#------------------------------------------------------------------------------
#$Date: 2021-01-04 05:07:40 +0200 (Mon, 04 Jan 2021) $
#$Revision: 260418 $
#$URL: file:///home/coder/svn-repositories/cod/cif/4/00/38/4003838.cif $
#------------------------------------------------------------------------------
#
# This file is available in the Crystallography Open Database (COD),
# http://www.crystallography.net/
#
# All data on this site have been placed in the public domain by the
# contributors.
#
data_4003838
loop_
_publ_author_name
'Schkeryantz, Luke A.'
'Zheng, Jingfeng'
'McCulloch, William D.'
'Qin, Lei'
'Zhang, Songwei'
'Moore, Curtis E.'
'Wu, Yiying'
_publ_section_title
;
 Designing Potassium Battery Salts through a Solvent-in-Anion Concept for
 Concentrated Electrolytes and Mimicking Solvation Structures
;
_journal_issue                   24
_journal_name_full               'Chemistry of Materials'
_journal_page_first              10423
_journal_page_last               10434
_journal_paper_doi               10.1021/acs.chemmater.0c02983
_journal_volume                  32
_journal_year                    2020
_chemical_formula_moiety         'C5 H9 F3 K N O4 S'
_chemical_formula_sum            'C5 H9 F3 K N O4 S'
_chemical_formula_weight         275.29
_space_group_crystal_system      triclinic
_space_group_IT_number           2
_space_group_name_Hall           '-P 1'
_space_group_name_H-M_alt        'P -1'
_atom_sites_solution_hydrogens   geom
_atom_sites_solution_primary     dual
_atom_sites_solution_secondary   difmap
_audit_creation_date             2019-03-22
_audit_creation_method
;
Olex2 1.2-beta
(compiled 2018.05.29 svn.r3508 for OlexSys, GUI svn.r5506)
;
_cell_angle_alpha                96.330(2)
_cell_angle_beta                 90.086(2)
_cell_angle_gamma                95.585(2)
_cell_formula_units_Z            2
_cell_length_a                   7.3440(5)
_cell_length_b                   7.7957(5)
_cell_length_c                   9.1286(6)
_cell_measurement_reflns_used    9898
_cell_measurement_temperature    100
_cell_measurement_theta_max      28.305
_cell_measurement_theta_min      3.272
_cell_volume                     516.94(6)
_computing_cell_refinement       'SAINT v8.38A (Bruker, 2017)'
_computing_data_collection       'APEX3 v2017.3-0 (Bruker, 2017)'
_computing_data_reduction        'SAINT v8.38A (Bruker, 2017)'
_computing_molecular_graphics    'Olex2 (Dolomanov et al., 2009)'
_computing_publication_material  'Olex2 (Dolomanov et al., 2009)'
_computing_structure_refinement  'ShelXL (Sheldrick, 2015)'
_computing_structure_solution    'ShelXT (Sheldrick, 2015)'
_diffrn_ambient_temperature      100.0
_diffrn_detector                 'Bruker Photon II area detector'
_diffrn_detector_area_resol_mean 10.5
_diffrn_detector_type            'CMOS area detector'
_diffrn_measured_fraction_theta_full 0.996
_diffrn_measured_fraction_theta_max 0.995
_diffrn_measurement_device       'Kappa Four-Circle Diffractometer'
_diffrn_measurement_device_type  'Bruker D8 Venture'
_diffrn_measurement_method       '\w and \f scans'
_diffrn_radiation_monochromator  'Curved-Graphite, Bruker TRIUMPH'
_diffrn_radiation_probe          x-ray
_diffrn_radiation_type           MoK\a
_diffrn_radiation_wavelength     0.71073
_diffrn_reflns_av_R_equivalents  0.0273
_diffrn_reflns_av_unetI/netI     0.0183
_diffrn_reflns_Laue_measured_fraction_full 0.996
_diffrn_reflns_Laue_measured_fraction_max 0.995
_diffrn_reflns_limit_h_max       9
_diffrn_reflns_limit_h_min       -9
_diffrn_reflns_limit_k_max       10
_diffrn_reflns_limit_k_min       -10
_diffrn_reflns_limit_l_max       12
_diffrn_reflns_limit_l_min       -12
_diffrn_reflns_number            15733
_diffrn_reflns_point_group_measured_fraction_full 0.996
_diffrn_reflns_point_group_measured_fraction_max 0.995
_diffrn_reflns_theta_full        25.000
_diffrn_reflns_theta_max         28.315
_diffrn_reflns_theta_min         2.787
_diffrn_source                   'sealed tube'
_diffrn_source_type              fine-focus
_exptl_absorpt_coefficient_mu    0.754
_exptl_absorpt_correction_T_max  0.2627
_exptl_absorpt_correction_T_min  0.2052
_exptl_absorpt_correction_type   multi-scan
_exptl_absorpt_process_details
'SADABS-2016/2 (Bruker,2016/2) was used for absorption correction. wR2(int) was 0.0863 before and 0.0492 after correction. The Ratio of minimum to maximum transmission is 0.7811. The \l/2 correction factor is Not present.'
_exptl_crystal_colour            Colorless
_exptl_crystal_colour_primary    Colorless
_exptl_crystal_density_diffrn    1.769
_exptl_crystal_description       Plate
_exptl_crystal_F_000             280
_exptl_crystal_size_max          0.257
_exptl_crystal_size_mid          0.231
_exptl_crystal_size_min          0.095
_refine_diff_density_max         0.388
_refine_diff_density_min         -0.384
_refine_diff_density_rms         0.053
_refine_ls_extinction_coef       0.018(3)
_refine_ls_extinction_expression Fc^*^=kFc[1+0.001xFc^2^\l^3^/sin(2\q)]^-1/4^
_refine_ls_extinction_method     'SHELXL-2018/3 (Sheldrick 2018)'
_refine_ls_goodness_of_fit_ref   1.115
_refine_ls_hydrogen_treatment    constr
_refine_ls_matrix_type           full
_refine_ls_number_parameters     139
_refine_ls_number_reflns         2560
_refine_ls_number_restraints     0
_refine_ls_restrained_S_all      1.115
_refine_ls_R_factor_all          0.0276
_refine_ls_R_factor_gt           0.0221
_refine_ls_shift/su_max          0.001
_refine_ls_shift/su_mean         0.000
_refine_ls_structure_factor_coef Fsqd
_refine_ls_weighting_details
'w=1/[\s^2^(Fo^2^)+(0.0151P)^2^+0.3212P] where P=(Fo^2^+2Fc^2^)/3'
_refine_ls_weighting_scheme      calc
_refine_ls_wR_factor_gt          0.0508
_refine_ls_wR_factor_ref         0.0548
_reflns_Friedel_coverage         0.000
_reflns_number_gt                2298
_reflns_number_total             2560
_reflns_threshold_expression     'I > 2\s(I)'
_cod_data_source_file            cm0c02983_si_001.cif
_cod_data_source_block           Wu_LS_KDESA
_cod_depositor_comments
;
The following automatic conversions were performed:

data item '_diffrn_radiation_probe' value 'X-ray' was changed to
'x-ray' in accordance with the
/home/data/users/saulius/crontab/automatic-downloads/rss-feeds/ACS/lib/dictionaries/cif_core.dic
dictionary named 'cif_core.dic' version 2.4.2 last updated on
2011-04-26.

Automatic conversion script
Id: cif_fix_values 7556 2019-12-06 15:28:31Z antanas 

 Adding full bibliography for 4003834--4003838.cif.
;
_cod_database_code               4003838
_shelx_shelxl_version_number     2018/3
_shelx_space_group_comment
;
The symmetry employed for this shelxl refinement is uniquely defined
by the following loop, which should always be used as a source of
symmetry information in preference to the above space-group names.
They are only intended as comments.
;
_shelx_estimated_absorpt_t_max   0.932
_shelx_estimated_absorpt_t_min   0.830
_olex2_refinement_description
;
1. Fixed Uiso
 At 1.2 times of:
  All C(H) groups, All C(H,H) groups
 At 1.5 times of:
  All C(H,H,H) groups
2.a Ternary CH refined with riding coordinates:
 C2(H2)
2.b Secondary CH2 refined with riding coordinates:
 C1(H1A,H1B)
2.c Idealised Me refined as rotating group:
 C3(H3A,H3B,H3C), C4(H4A,H4B,H4C)
;
_shelx_res_file
;
TITL kdesa_a.res in P-1
    kdesa.res
    created by SHELXL-2018/3 at 14:46:08 on 22-Mar-2019
REM Old TITL KDESA in P-1
REM SHELXT solution in P-1
REM R1 0.072, Rweak 0.003, Alpha 0.028, Orientation as input
REM Formula found by SHELXT: C5 N O2 F5 S K
CELL 0.71073 7.344 7.7957 9.1286 96.33 90.086 95.585
ZERR 2 0.0005 0.0005 0.0006 0.002 0.002 0.002
LATT 1
SFAC C H F K N O S
UNIT 10 18 6 2 2 8 2
EQIV $1 -1+X,+Y,+Z

L.S. 10
PLAN  20
SIZE 0.257 0.231 0.095
TEMP -173.15
FREE K1 C1_$1
BOND $H
list 4
fmap 2
acta 50
OMIT 1 0 4
REM <olex2.extras>
REM <HklSrc "%.\\KDESA.hkl">
REM </olex2.extras>

WGHT    0.015100    0.321200
EXTI    0.017546
FVAR       1.30472
K1    4    0.158650    0.677957    0.423872    11.00000    0.01196    0.01668 =
         0.01740    0.00307    0.00153    0.00154
S1    7    0.644401    0.527099    0.316425    11.00000    0.01067    0.01467 =
         0.01273    0.00066    0.00093    0.00131
F1    3    0.744305    0.719407    0.105626    11.00000    0.03759    0.02933 =
         0.02804    0.01377    0.01180    0.00659
F2    3    0.938026    0.541746    0.152189    11.00000    0.01395    0.04056 =
         0.02137    0.00033    0.00538    0.00379
F3    3    0.691546    0.447704    0.028877    11.00000    0.02748    0.04081 =
         0.01461   -0.00690   -0.00038    0.00071
O1    6    0.464967    0.580781    0.291454    11.00000    0.01180    0.02182 =
         0.01785    0.00123    0.00012    0.00313
O2    6    0.655175    0.343872    0.322058    11.00000    0.01792    0.01385 =
         0.01958    0.00010   -0.00045    0.00126
O3    6    0.727708    1.023212    0.694353    11.00000    0.02151    0.01291 =
         0.01837    0.00014    0.00527    0.00294
O4    6    0.965627    0.849514    0.660724    11.00000    0.01287    0.02406 =
         0.01397   -0.00275    0.00032    0.00169
N1    5    0.765125    0.633605    0.436513    11.00000    0.01345    0.01433 =
         0.01511   -0.00019   -0.00064    0.00217
C1    1    0.725124    0.811897    0.485027    11.00000    0.01659    0.01338 =
         0.01726    0.00113   -0.00003    0.00217
AFIX  23
H1A   2    0.593506    0.823147    0.469809    11.00000   -1.20000
H1B   2    0.796690    0.893912    0.426602    11.00000   -1.20000
AFIX   0
C2    1    0.774914    0.853884    0.646294    11.00000    0.01351    0.01210 =
         0.01782    0.00069    0.00282    0.00103
AFIX  13
H2    2    0.708469    0.767239    0.705179    11.00000   -1.20000
AFIX   0
C3    1    0.608742    1.031991    0.818378    11.00000    0.02515    0.02116 =
         0.02271   -0.00084    0.00897    0.00599
AFIX 137
H3A   2    0.666781    0.987721    0.901393    11.00000   -1.50000
H3B   2    0.492978    0.961536    0.792425    11.00000   -1.50000
H3C   2    0.584987    1.152728    0.846260    11.00000   -1.50000
AFIX   0
C4    1    1.026180    0.878577    0.811165    11.00000    0.02037    0.02788 =
         0.01667   -0.00397   -0.00233    0.00473
AFIX 137
H4A   2    0.956042    0.796280    0.868409    11.00000   -1.50000
H4B   2    1.007496    0.997300    0.851431    11.00000   -1.50000
H4C   2    1.156498    0.862067    0.816752    11.00000   -1.50000
AFIX   0
C5    1    0.758162    0.559393    0.140572    11.00000    0.01662    0.02299 =
         0.01591    0.00115    0.00180    0.00306
HKLF 4




REM  kdesa_a.res in P-1
REM wR2 = 0.0548, GooF = S = 1.115, Restrained GooF = 1.115 for all data
REM R1 = 0.0221 for 2298 Fo > 4sig(Fo) and 0.0276 for all 2560 data
REM 139 parameters refined using 0 restraints

END

WGHT      0.0151      0.3212

REM Highest difference peak  0.388,  deepest hole -0.384,  1-sigma level  0.053
Q1    1   0.7136  0.5546  0.2176  11.00000  0.05    0.39
Q2    1   0.7538  0.8344  0.5624  11.00000  0.05    0.34
Q3    1   0.5348  0.9231  0.8430  11.00000  0.05    0.30
Q4    1   0.7033  0.5875  0.3812  11.00000  0.05    0.27
Q5    1   0.7438  0.7220  0.4570  11.00000  0.05    0.27
Q6    1   0.8667  0.8593  0.6526  11.00000  0.05    0.22
Q7    1   0.8449  0.6382  0.4057  11.00000  0.05    0.21
Q8    1   0.6379  0.4232  0.3132  11.00000  0.05    0.21
Q9    1   0.4890  1.0142  0.7826  11.00000  0.05    0.20
Q10   1   0.5228  0.5273  0.3064  11.00000  0.05    0.20
Q11   1   0.5539  0.6156  0.2990  11.00000  0.05    0.20
Q12   1   0.7565  0.9586  0.6772  11.00000  0.05    0.19
Q13   1   0.1589  0.8527  0.4120  11.00000  0.05    0.18
Q14   1   1.0353  1.1084  0.8373  11.00000  0.05    0.18
Q15   1   0.5223  0.5445  0.2166  11.00000  0.05    0.18
Q16   1   0.7373  0.6403  0.1168  11.00000  0.05    0.18
Q17   1   1.0359  0.5646  0.3005  11.00000  0.05    0.18
Q18   1   0.7651  1.0844  0.6619  11.00000  0.05    0.18
Q19   1   0.7448  0.8044  0.7094  11.00000  0.05    0.17
Q20   1   0.6744  0.2983  0.2796  11.00000  0.05    0.17
;
_shelx_res_checksum              7715
_shelx_hkl_file
;
   1   0   0   12.00    2.30
  -3   0   0 1638.14   48.80
  -3   0   0 1548.05   49.30
  -3   0   0 1648.24   48.80
  -3   0   0 1557.74   48.90
  -3   0   0 1616.74   48.80
   3   0   0 1559.44   48.80
   3   0   0 1617.94   48.80
   3   0   0 1587.64   49.80
   3   0   0 1615.84   49.20
   3   0   0 1646.44   48.90
   3   0   0 1622.64   48.60
   3   0   0 1642.94   48.90
   3   0   0 1636.14   49.80
   3   0   0 1672.53   48.70
   3   0   0 1555.24   49.20
  -4   0   0  208.78    9.20
  -4   0   0  204.38    9.30
  -4   0   0  221.58   10.40
  -4   0   0  215.68    9.60
   4   0   0  217.68    9.00
   4   0   0  202.38   10.20
   4   0   0  224.78    9.40
   4   0   0  207.08    8.80
   4   0   0  204.58   10.30
   4   0   0  213.38    9.90
   4   0   0  223.78    9.80
   4   0   0  208.88    9.20
   4   0   0  209.68    9.10
   4   0   0  196.38    9.50
  -5   0   0    6.00    2.70
  -5   0   0    4.20    2.70
  -5   0   0    5.70    2.90
  -5   0   0    3.60    3.30
   5   0   0    3.60    3.10
   5   0   0    7.80    3.60
   5   0   0    8.70    3.60
   5   0   0    1.10    7.10
   5   0   0    5.30    2.80
   5   0   0    3.50    2.10
   5   0   0    2.80    2.50
   5   0   0    7.00    2.40
   5   0   0    2.50    2.90
   5   0   0    5.00    3.00
   5   0   0    7.50    3.10
   5   0   0    3.80    2.70
  -6   0   0  281.87   12.40
   6   0   0  286.17   12.30
   6   0   0  269.27   12.30
   6   0   0  273.47   12.80
   6   0   0  284.27   12.00
   6   0   0  264.77   14.30
   6   0   0  270.37   11.30
   6   0   0  266.07   12.50
   6   0   0  272.97   12.20
   6   0   0  277.97   14.00
   6   0   0  282.67   13.00
   6   0   0  278.47   13.60
   6   0   0  278.87   12.80
   7   0   0   44.20    7.70
   7   0   0   44.50    5.30
   7   0   0   46.60    6.20
   7   0   0   40.90    7.50
   7   0   0   45.20    6.30
   7   0   0   52.39    5.90
   7   0   0   45.20    6.40
   7   0   0   43.70    6.80
   7   0   0   36.50    5.20
   8   0   0   94.49    7.10
   8   0   0   93.59    9.60
   8   0   0  108.89   10.20
   8   0   0  108.99    8.70
   8   0   0   98.69    8.90
   8   0   0   94.09    7.40
   8   0   0  116.09    8.70
   9   0   0   82.79   10.00
   9   0   0   95.49    7.90
   9   0   0  110.79    8.70
   9   0   0  101.49    9.50
   9   0   0  107.99    7.50
   9  -1   0   17.80    5.60
   9  -1   0   11.80    4.80
   9  -1   0   13.80    4.00
   9  -1   0   13.80    5.00
   8  -1   0   89.79    7.60
   8  -1   0   92.09    8.60
   8  -1   0   83.59    9.60
   8  -1   0   81.49    7.00
   8  -1   0   79.89    8.50
   8  -1   0   85.99    8.30
   8  -1   0   87.59    8.40
   7  -1   0   -4.60    3.10
   7  -1   0   -0.70    3.40
   7  -1   0    7.50    3.60
   7  -1   0    0.50    3.20
   7  -1   0   -2.00    3.10
   7  -1   0    0.40    3.10
   7  -1   0    1.20    3.10
   7  -1   0    7.10    4.20
   7  -1   0   -1.00    3.50
  -7   1   0   -4.70    3.70
   6  -1   0   13.70    3.50
   6  -1   0   38.90    5.90
   6  -1   0   23.60    4.50
   6  -1   0   22.50    4.30
   6  -1   0   28.80    5.10
   6  -1   0   30.90    4.40
   6  -1   0   25.00    3.90
   6  -1   0   17.70    4.10
   6  -1   0   24.50    4.70
   6  -1   0   18.50    4.10
   6  -1   0   24.90    4.20
  -6   1   0   23.90    4.50
   5  -1   0 3791.42  112.49
   5  -1   0 3758.42  112.89
   5  -1   0 3800.82  113.09
   5  -1   0 3738.23  113.39
   5  -1   0 3791.92  113.49
   5  -1   0 3538.85  113.49
   5  -1   0 3850.61  112.69
   5  -1   0 3784.82  112.69
  -5   1   0 3933.91  112.99
  -5   1   0 3791.02  112.99
  -5   1   0 3741.43  113.69
   4  -1   0 2544.95   79.29
   4  -1   0 2614.84   78.79
   4  -1   0 2618.74   78.49
   4  -1   0 2526.05   79.49
   4  -1   0 2679.63   79.09
   4  -1   0 2644.64   79.49
   4  -1   0 2702.23   79.09
   4  -1   0 2498.65   80.09
   4  -1   0 2662.93   79.19
   4  -1   0 2721.43   78.79
  -4   1   0 2686.53   79.69
  -4   1   0 2645.34   78.89
  -4   1   0 2642.14   78.99
   3  -1   0 1738.23   52.59
   3  -1   0 1750.02   53.59
   3  -1   0 1759.62   52.69
   3  -1   0 1801.82   52.69
   3  -1   0 1742.23   52.39
   3  -1   0 1680.03   53.09
   3  -1   0 1655.63   52.59
   3  -1   0 1787.92   52.89
   3  -1   0 1789.32   53.29
   3  -1   0 1776.72   52.79
  -3   1   0 1751.12   52.99
  -3   1   0 1682.23   52.49
  -3   1   0 1729.13   52.99
  -3   1   0 1771.62   52.79
  -3   1   0 1814.62   52.79
   2  -1   0  210.98    7.80
   2  -1   0  222.38    8.30
   2  -1   0  220.48    8.10
   2  -1   0  211.48    7.70
   2  -1   0  215.28    8.40
   2  -1   0  224.58    8.10
   2  -1   0  232.98    8.00
  -2   1   0  211.58    7.90
  -2   1   0  221.08    8.10
  -2   1   0  208.48    8.10
  -2   1   0  229.18    8.30
  -2   1   0  217.58    8.30
  -2   1   0  226.88    8.20
   1  -1   0 1609.54   48.00
  -1   1   0 1643.04   48.10
  -1  -1   0  223.98    7.60
  -1  -1   0  191.08    7.10
  -1  -1   0  212.88    9.10
  -1  -1   0  211.08    7.40
  -1  -1   0  225.88    7.80
  -1  -1   0  227.78    8.30
   1   1   0  229.68    9.00
   1   1   0  238.58    7.80
   1   1   0  228.88    7.50
   1   1   0  240.78    8.30
  -2  -1   0  799.92   24.80
  -2  -1   0  797.92   25.30
  -2  -1   0  798.92   24.90
  -2  -1   0  812.22   24.90
  -2  -1   0  792.12   24.50
  -2  -1   0  798.02   26.70
  -2  -1   0  816.42   25.70
   2   1   0  788.12   24.80
   2   1   0  790.32   24.50
   2   1   0  840.92   25.80
   2   1   0  802.52   24.90
   2   1   0  812.62   24.80
   2   1   0  794.92   26.70
   2   1   0  790.52   23.80
   2   1   0  816.32   24.80
  -3  -1   0 1004.80   31.60
  -3  -1   0 1031.10   32.00
  -3  -1   0 1034.00   31.90
  -3  -1   0 1005.20   32.50
  -3  -1   0 1029.80   33.10
  -3  -1   0 1037.40   31.80
   3   1   0 1031.80   31.70
   3   1   0  988.90   31.60
   3   1   0 1042.30   32.80
   3   1   0 1030.90   34.20
   3   1   0 1021.70   32.00
   3   1   0 1012.20   32.60
   3   1   0 1025.50   31.80
   3   1   0 1036.80   31.90
   3   1   0 1061.79   33.10
   3   1   0  993.40   30.70
  -4  -1   0   27.30    3.60
  -4  -1   0   31.40    4.30
  -4  -1   0   29.40    3.80
  -4  -1   0   34.00    4.60
   4   1   0   34.80    3.90
   4   1   0   30.40    3.00
   4   1   0   30.80    4.40
   4   1   0   34.00    4.90
   4   1   0   31.80    4.20
   4   1   0   36.80    3.70
   4   1   0   28.70    3.50
   4   1   0   29.20    3.60
   4   1   0   34.70    4.50
  -5  -1   0 1132.99   35.60
  -5  -1   0 1119.89   35.30
  -5  -1   0 1069.89   36.80
  -5  -1   0 1046.60   36.00
   5   1   0 1106.09   37.20
   5   1   0 1100.49   35.00
   5   1   0 1107.09   35.50
   5   1   0 1118.69   34.10
   5   1   0 1060.19   36.60
   5   1   0 1065.29   36.40
   5   1   0 1110.09   35.70
   5   1   0 1119.29   35.40
   5   1   0 1117.09   36.30
   5   1   0 1118.59   35.70
   5   1   0 1108.19   38.40
  -6  -1   0 1252.27   41.20
  -6  -1   0 1220.08   40.20
  -6  -1   0 1192.28   41.50
  -6  -1   0 1253.17   40.00
   6   1   0 1261.47   43.90
   6   1   0 1261.37   40.10
   6   1   0 1253.07   41.30
   6   1   0 1183.28   40.00
   6   1   0 1243.08   40.60
   6   1   0 1288.07   42.70
   6   1   0 1227.08   39.60
   6   1   0 1223.18   41.50
   6   1   0 1232.58   38.50
  -7  -1   0 1755.72   55.79
   7   1   0 1793.02   58.79
   7   1   0 1770.92   53.79
   7   1   0 1704.43   54.79
   7   1   0 1721.03   56.29
   7   1   0 1747.03   59.69
   7   1   0 1710.63   54.79
   7   1   0 1758.22   55.59
   7   1   0 1765.62   55.99
   8   1   0  137.49    8.50
   8   1   0  137.79    9.10
   8   1   0  140.09    7.40
   8   1   0  127.09   13.40
   8   1   0  154.68   13.00
   9   1   0   17.90    5.80
   9   1   0   15.90    3.30
   9   1   0   10.10    3.50
   9   1   0   15.80    6.20
   9  -2   0   58.49    7.20
   9  -2   0   66.49    7.80
   9  -2   0   59.09    6.70
   9  -2   0   62.19    7.50
   8  -2   0  174.28   11.50
   8  -2   0  159.88   12.80
   8  -2   0  157.88   10.30
   8  -2   0  171.18   12.50
   8  -2   0  178.98   10.50
   8  -2   0  165.08   10.00
  -8   2   0  181.68   11.40
   7  -2   0    2.90    3.30
   7  -2   0   -1.60    4.50
   7  -2   0   -2.00    4.30
   7  -2   0   -3.60    3.00
   7  -2   0    3.10    3.50
   7  -2   0    5.50    3.30
   7  -2   0    1.00    3.40
  -7   2   0   -2.30    4.70
   6  -2   0  354.16   15.40
   6  -2   0  356.06   15.10
   6  -2   0  361.36   14.10
   6  -2   0  348.37   16.20
   6  -2   0  370.86   15.10
   6  -2   0  357.66   14.30
   6  -2   0  347.27   14.10
   6  -2   0  316.57   15.40
  -6   2   0  364.56   15.20
  -6   2   0  347.77   15.50
   5  -2   0  976.80   30.90
   5  -2   0  952.30   30.80
   5  -2   0  860.71   31.30
   5  -2   0  919.91   29.90
   5  -2   0  886.91   32.10
   5  -2   0  911.01   29.90
   5  -2   0  958.10   31.10
   5  -2   0  975.60   31.70
  -5   2   0  950.30   31.40
  -5   2   0  942.31   30.90
   4  -2   0  530.25   19.10
   4  -2   0  551.54   18.70
   4  -2   0  517.05   17.40
   4  -2   0  527.65   18.40
   4  -2   0  527.95   18.10
   4  -2   0  505.25   17.40
   4  -2   0  544.85   19.30
  -4   2   0  514.95   18.00
  -4   2   0  545.25   18.60
  -4   2   0  541.15   18.80
   3  -2   0 3394.86  100.79
   3  -2   0 3425.76  101.29
   3  -2   0 3380.36   99.69
   3  -2   0 3377.26  100.19
   3  -2   0 3379.96  100.69
  -3   2   0 3450.95  100.69
  -3   2   0 3272.37  100.69
  -3   2   0 3521.15  100.79
   2  -2   0  689.93   21.40
   2  -2   0  697.13   20.80
   2  -2   0  708.13   21.90
   2  -2   0  703.33   22.30
   2  -2   0  699.53   21.20
   2  -2   0  713.23   22.40
  -2   2   0  700.23   21.50
  -2   2   0  697.23   21.80
  -2   2   0  673.53   22.20
   1  -2   0  232.48    8.60
   1  -2   0  240.78    8.60
   1  -2   0  220.48    8.10
  -1   2   0  225.38    8.00
  -1   2   0  224.68    7.80
  -1   2   0  222.88    8.50
   0  -2   0 1592.44   49.99
   0  -2   0 1643.44   48.00
   0  -2   0 1697.33   49.50
   0  -2   0 1644.64   49.00
   0   2   0 1654.83   49.00
   0   2   0 1597.74   49.90
   0   2   0 1686.53   49.40
  -1  -2   0 3853.11  119.29
  -1  -2   0 4089.49  117.99
   1   2   0 3925.01  119.29
   1   2   0 4037.40  116.99
   1   2   0 4140.39  117.89
  -2  -2   0   46.90    3.50
  -2  -2   0   48.40    6.10
  -2  -2   0   44.80    3.50
  -2  -2   0   48.20    4.60
  -2  -2   0   47.90    3.00
  -2  -2   0   47.90    4.10
   2   2   0   49.30    3.70
   2   2   0   47.60    3.90
   2   2   0   45.30    3.90
   2   2   0   48.20    4.80
   2   2   0   43.70    5.30
  -3  -2   0 1196.28   37.30
  -3  -2   0 1235.68   43.60
  -3  -2   0 1222.98   38.40
  -3  -2   0 1150.38   36.30
  -3  -2   0 1189.18   36.80
  -3  -2   0 1162.18   37.20
   3   2   0 1181.18   36.90
   3   2   0 1198.48   36.30
   3   2   0 1184.58   37.20
   3   2   0 1183.28   36.80
   3   2   0 1231.88   38.40
  -4  -2   0   15.50    2.60
  -4  -2   0   15.00    3.00
  -4  -2   0   21.20    3.00
  -4  -2   0   13.30    3.90
  -4  -2   0   22.40    4.30
   4   2   0   14.50    1.80
   4   2   0   18.30    3.50
   4   2   0   15.50    2.80
   4   2   0   18.20    3.40
   4   2   0   11.20    4.30
   4   2   0   15.40    2.80
   4   2   0   14.20    2.50
   4   2   0   23.40    5.10
  -5  -2   0   92.69    5.90
  -5  -2   0   88.79    6.70
  -5  -2   0   91.39    8.10
  -5  -2   0   95.09    8.10
   5   2   0   99.49    6.60
   5   2   0   95.99    6.10
   5   2   0   98.39    9.60
   5   2   0   89.19    4.20
   5   2   0   85.59    7.40
   5   2   0   89.99    5.70
   5   2   0   78.99    6.50
   5   2   0   88.69    7.70
  -6  -2   0  144.49   10.90
  -6  -2   0  144.39    8.80
  -6  -2   0  141.59    8.40
  -6  -2   0  145.39    9.80
   6   2   0  148.29    8.30
   6   2   0  144.29   10.30
   6   2   0  159.98   12.40
   6   2   0  147.69    6.10
   6   2   0  140.69    8.50
   6   2   0  143.19    8.10
   6   2   0  150.78    8.90
  -7  -2   0 1889.11   64.89
  -7  -2   0 1936.41   63.89
   7   2   0 2117.89   65.49
   7   2   0 1936.51   64.09
   7   2   0 1983.70   59.49
   7   2   0 1861.31   64.09
   7   2   0 1935.41   62.09
   7   2   0 1963.50   61.99
   7   2   0 2008.50   67.99
   7   2   0 2227.88   67.49
  -8  -2   0   62.39    8.90
   8   2   0   62.69    8.70
   8   2   0   44.90    6.00
   8   2   0   56.09    6.50
   8   2   0   42.30    6.10
   8   2   0   56.89    9.60
   8   2   0   51.99    5.40
   9   2   0   14.90    6.20
   9   2   0   33.70    6.30
   9   2   0   14.20    3.80
   9  -3   0   58.09    8.00
   9  -3   0   50.99    7.00
   9  -3   0   58.59    8.00
   9  -3   0   64.19    8.30
  -9   3   0   41.70    6.90
   8  -3   0   34.10    5.80
   8  -3   0   30.80    4.70
   8  -3   0   34.20    7.50
   8  -3   0   39.80    6.20
   8  -3   0   36.00    3.50
   8  -3   0   35.10    5.70
  -8   3   0   42.90    6.50
  -8   3   0   51.79    7.50
   7  -3   0  451.75   18.10
   7  -3   0  477.35   15.70
   7  -3   0  401.66   20.50
   7  -3   0  468.55   17.00
   7  -3   0  470.35   19.50
   7  -3   0  475.65   20.50
   7  -3   0  469.65   19.30
  -7   3   0  460.15   20.10
  -7   3   0  523.25   22.30
   6  -3   0  930.01   30.30
   6  -3   0  774.82   30.80
   6  -3   0  764.02   30.20
   6  -3   0  869.01   28.90
   6  -3   0  878.51   29.70
   6  -3   0  873.71   27.70
   6  -3   0  867.21   26.60
  -6   3   0  886.21   30.00
  -6   3   0  897.91   30.70
   5  -3   0  110.39    7.10
   5  -3   0  112.19    8.00
   5  -3   0  104.29    6.10
   5  -3   0  109.19    7.80
  -5   3   0  105.99    7.50
  -5   3   0  112.49    7.60
  -5   3   0  105.79    7.00
   4  -3   0  177.78    9.20
   4  -3   0  172.98    7.30
   4  -3   0  173.28    7.70
   4  -3   0  170.58    8.40
   4  -3   0  177.48    9.30
  -4   3   0  172.58    8.40
  -4   3   0  177.38    7.90
  -4   3   0  185.68   10.10
  -4   3   0  167.38    8.30
   3  -3   0 1463.85   45.20
   3  -3   0 1489.85   44.90
   3  -3   0 1547.15   46.00
   3  -3   0 1521.45   46.50
   3  -3   0 1539.85   46.90
  -3   3   0 1475.85   46.40
  -3   3   0 1409.86   45.50
  -3   3   0 1574.44   46.20
   2  -3   0   93.59    5.30
   2  -3   0  105.29    5.20
   2  -3   0  101.39    4.90
   2  -3   0  101.59    5.90
   2  -3   0  101.19    6.20
   2  -3   0  101.49    4.30
   2  -3   0   99.69    6.10
  -2   3   0  101.39    6.10
  -2   3   0  109.39    4.50
  -2   3   0  110.59    5.20
   1  -3   0  141.59    6.90
   1  -3   0  143.89    6.90
   1  -3   0  147.39    7.00
  -1   3   0  147.19    6.40
  -1   3   0  146.79    7.00
  -1   3   0  147.79    6.90
   0  -3   0   -1.50    2.70
   0  -3   0    5.30    2.40
   0  -3   0    1.30    0.90
   0  -3   0    4.40    2.40
   0   3   0    2.60    2.90
   0   3   0   -0.50    2.00
   0   3   0    1.60    2.20
  -1  -3   0    1.30    1.50
  -1  -3   0   -1.80    1.80
  -1  -3   0    1.10    3.10
  -1  -3   0    0.60    2.10
   1   3   0    1.40    3.10
   1   3   0    1.50    2.40
   1   3   0    1.00    2.20
  -2  -3   0 3380.66  104.29
  -2  -3   0 3378.06  100.39
  -2  -3   0 3445.46  101.69
  -2  -3   0 3367.66  100.19
  -2  -3   0 3402.06   99.79
   2   3   0 3481.55  100.39
   2   3   0 3343.67  100.59
   2   3   0 3500.75  101.59
   2   3   0 3355.66  104.79
  -3  -3   0 2985.30   91.69
  -3  -3   0 3017.90   90.09
  -3  -3   0 3042.10   90.69
  -3  -3   0 3098.29   92.09
  -3  -3   0 3168.08   93.19
   3   3   0 3056.29   90.89
   3   3   0 3102.69   90.89
   3   3   0 2923.31   93.09
   3   3   0 3092.29   95.39
  -4  -3   0   61.39    4.40
  -4  -3   0   64.49    7.20
  -4  -3   0   74.09    7.50
  -4  -3   0   64.19    5.60
  -4  -3   0   56.79    5.40
   4   3   0   60.69    5.40
   4   3   0   74.09    5.80
   4   3   0   65.09    5.00
   4   3   0   64.79    6.80
   4   3   0   57.69    8.40
   4   3   0   57.69    5.40
  -5  -3   0  206.28   12.40
  -5  -3   0  175.68    9.40
  -5  -3   0  167.78    9.20
  -5  -3   0  187.38   11.80
  -5  -3   0  182.58   11.20
   5   3   0  173.28   13.30
   5   3   0  179.68    9.20
   5   3   0  190.48   10.60
   5   3   0  171.08    8.90
   5   3   0  176.18    9.30
  -6  -3   0  189.88   12.50
  -6  -3   0  200.48   10.10
  -6  -3   0  187.68    9.00
  -6  -3   0  174.98   11.10
   6   3   0  184.68    9.90
   6   3   0  173.38   11.90
   6   3   0  182.28   14.20
   6   3   0  178.18    9.60
  -7  -3   0  670.13   27.90
  -7  -3   0  679.93   27.30
   7   3   0  760.22   28.50
   7   3   0  671.53   24.80
   7   3   0  696.43   27.70
   7   3   0  682.93   28.30
   7   3   0  638.74   34.70
  -8  -3   0   13.90    5.60
  -8  -3   0   19.20    5.50
   8   3   0   20.50    6.20
   8   3   0   20.90    4.20
   8   3   0   25.10    7.60
  -9  -3   0  291.57   19.00
   9   3   0  242.98   12.80
   9   3   0  253.97   16.40
   9   3   0  285.67   19.60
   9   3   0  275.37   14.60
   9  -4   0  395.36   16.00
   9  -4   0  426.26   19.40
   9  -4   0  404.26   18.10
   9  -4   0  423.96   19.90
   8  -4   0   66.69    6.90
   8  -4   0   81.59    8.70
   8  -4   0   62.29    8.30
   8  -4   0   68.59    6.60
  -8   4   0   86.99    9.30
  -8   4   0   69.89    8.60
   7  -4   0  115.39    9.70
   7  -4   0  129.39    9.80
   7  -4   0  127.99    8.50
   7  -4   0   86.49   10.90
   7  -4   0   99.49   10.20
   7  -4   0  130.69    7.70
  -7   4   0  128.69    9.80
  -7   4   0  129.89   10.30
   6  -4   0  568.24   20.40
   6  -4   0  564.74   21.50
   6  -4   0  575.84   21.90
   6  -4   0  590.14   19.40
  -6   4   0  585.84   22.40
  -6   4   0  552.54   21.80
  -6   4   0  556.74   20.60
   5  -4   0  107.89    7.70
   5  -4   0  117.19    8.50
   5  -4   0  113.09    6.90
   5  -4   0  120.39    8.60
  -5   4   0  112.19    7.90
  -5   4   0  112.59    8.30
  -5   4   0  109.89    7.40
  -5   4   0  115.59    8.40
   4  -4   0  325.27   11.80
   4  -4   0  325.57   13.70
   4  -4   0  317.67   11.60
   4  -4   0  260.67   17.00
   4  -4   0  326.07   13.60
  -4   4   0  303.67   13.30
  -4   4   0  333.77   13.20
  -4   4   0  322.07   12.30
  -4   4   0  348.47   13.00
   3  -4   0   72.09    5.10
   3  -4   0   65.39    4.10
   3  -4   0   73.29    5.80
   3  -4   0   74.49    6.30
   3  -4   0   73.99    5.90
   3  -4   0   68.29    5.10
  -3   4   0   76.79    5.10
   2  -4   0 1113.69   35.80
   2  -4   0 1086.89   33.10
   2  -4   0 1114.99   35.20
   2  -4   0 1072.49   34.80
   2  -4   0 1156.48   35.50
  -2   4   0 1098.09   35.40
  -2   4   0 1106.59   34.20
  -2   4   0 1146.39   34.10
   1  -4   0 5356.76  152.68
   1  -4   0 5327.57  153.38
   1  -4   0 4956.70  153.38
  -1   4   0 5139.99  153.18
  -1   4   0 5108.49  151.78
  -1   4   0 5173.58  152.58
   0  -4   0    3.10    2.70
   0  -4   0    2.50    1.10
   0  -4   0    3.00    5.50
   0  -4   0    1.60    2.90
   0   4   0    2.30    3.00
   0   4   0    3.70    2.40
   0   4   0    4.50    2.80
  -1  -4   0  692.83   22.20
  -1  -4   0  761.12   24.30
  -1  -4   0  737.53   24.70
  -1  -4   0  696.03   26.50
   1   4   0  735.23   24.40
   1   4   0  712.23   23.50
   1   4   0  708.63   26.50
  -2  -4   0    3.80    1.10
  -2  -4   0    2.90    2.90
  -2  -4   0    3.10    3.00
  -2  -4   0    4.70    1.90
  -2  -4   0    4.20    3.90
  -2  -4   0    1.50    1.90
   2   4   0    2.90    3.80
   2   4   0    6.10    2.70
   2   4   0    3.00    2.40
  -3  -4   0 1236.18   40.10
  -3  -4   0 1281.17   41.80
  -3  -4   0 1245.98   38.30
  -3  -4   0 1237.88   38.60
  -3  -4   0 1197.28   37.40
   3   4   0 1236.98   38.50
   3   4   0 1194.38   38.70
   3   4   0 1223.88   43.60
   3   4   0 1277.57   40.00
  -4  -4   0  123.89    9.30
  -4  -4   0  123.69    6.00
  -4  -4   0  124.69    7.10
  -4  -4   0  131.09    9.50
  -4  -4   0  130.79    9.40
   4   4   0  110.79    7.10
   4   4   0  119.59    7.90
   4   4   0  119.79   11.20
   4   4   0  123.79    7.40
  -5  -4   0  956.70   34.00
  -5  -4   0  980.30   33.20
  -5  -4   0  951.00   31.50
  -5  -4   0  891.41   30.60
  -5  -4   0  990.80   35.00
   5   4   0  954.20   32.00
   5   4   0  951.70   31.70
   5   4   0  978.00   32.70
   5   4   0  961.50   32.00
   5   4   0  968.00   38.00
  -6  -4   0  150.38    9.30
  -6  -4   0  149.39   11.70
  -6  -4   0  155.58    9.70
  -6  -4   0  155.68    8.20
   6   4   0  159.88    9.50
   6   4   0  156.58    9.00
   6   4   0  146.99    9.70
  -7  -4   0    1.60    4.30
  -7  -4   0   -3.00    5.10
   7   4   0    5.50    4.30
   7   4   0    4.50    6.50
   7   4   0    3.00    3.90
   7   4   0    8.70    3.90
  -8  -4   0  191.88   14.60
  -8  -4   0  198.48   14.30
   8   4   0  227.08   12.10
   8   4   0  230.48   15.40
   8   4   0  229.98   12.20
   8   4   0  235.98   18.50
  -9   5   0  181.28   13.40
   8  -5   0    4.00    6.00
   8  -5   0   12.40    4.00
   8  -5   0    7.90    5.00
   8  -5   0    8.00    4.20
   8  -5   0    5.80    3.70
  -8   5   0   11.90    5.30
  -8   5   0    4.10    4.30
   7  -5   0  107.29    7.90
   7  -5   0  103.99    9.70
   7  -5   0  128.99   10.20
   7  -5   0  126.69    7.50
   7  -5   0  114.39    8.60
   7  -5   0  121.29   10.10
  -7   5   0  112.59   12.20
  -7   5   0  104.79    9.80
   6  -5   0  155.58    8.50
   6  -5   0  159.38    9.80
   6  -5   0  150.98    8.50
   6  -5   0  126.59    9.10
  -6   5   0  170.58   10.30
  -6   5   0  151.38    9.40
   5  -5   0 1655.53   54.59
   5  -5   0 1690.23   54.09
   5  -5   0 1696.23   54.09
   5  -5   0 1638.14   51.59
   5  -5   0 1666.13   51.59
   5  -5   0 1715.83   53.29
  -5   5   0 1624.14   53.99
  -5   5   0 1736.63   53.69
  -5   5   0 1762.62   53.89
   4  -5   0  833.12   27.20
   4  -5   0  828.12   28.60
   4  -5   0  815.32   26.80
   4  -5   0  804.22   25.70
   4  -5   0  821.42   28.60
   4  -5   0  825.72   28.50
  -4   5   0  783.22   28.20
  -4   5   0  796.12   27.00
  -4   5   0  831.12   27.70
   3  -5   0  373.56   15.30
   3  -5   0  355.06   12.20
   3  -5   0  379.46   15.10
   3  -5   0  358.96   15.30
   3  -5   0  375.56   13.70
  -3   5   0  358.56   15.00
  -3   5   0  391.86   12.90
  -3   5   0  393.26   13.70
   2  -5   0  135.59    8.30
   2  -5   0  129.19    7.70
   2  -5   0  134.39    7.20
   2  -5   0  132.19    8.00
  -2   5   0  133.59    7.20
  -2   5   0  139.49    7.20
  -2   5   0  129.29    7.90
   1  -5   0   10.50    3.60
   1  -5   0    5.10    2.70
   1  -5   0   11.60    3.60
  -1   5   0    7.20    3.40
  -1   5   0   11.60    4.00
  -1   5   0   12.30    3.10
   0  -5   0  377.16   15.00
   0  -5   0  338.37   15.90
   0  -5   0  358.06   14.20
   0   5   0  375.86   14.90
   0   5   0  344.07   14.00
   0   5   0  353.66   15.80
  -1  -5   0  917.51   30.00
  -1  -5   0  868.11   27.50
  -1  -5   0  908.81   30.90
   1   5   0  877.31   29.40
   1   5   0  927.21   30.60
   1   5   0  908.61   33.10
  -2  -5   0    2.10    3.20
  -2  -5   0    0.60    1.80
  -2  -5   0    5.10    3.30
  -2  -5   0    2.30    1.30
   2   5   0    2.30    2.80
   2   5   0    0.50    4.10
   2   5   0    1.50    2.70
  -3  -5   0  207.08    8.60
  -3  -5   0  193.08   11.00
  -3  -5   0  193.08    7.60
  -3  -5   0  205.08   11.90
   3   5   0  207.58   14.20
   3   5   0  199.38   10.50
   3   5   0  179.18   13.60
  -4  -5   0  465.85   16.60
  -4  -5   0  448.96   15.20
  -4  -5   0  456.65   20.70
  -4  -5   0  453.15   18.80
   4   5   0  466.45   23.10
   4   5   0  432.96   17.00
   4   5   0  468.25   18.50
  -5  -5   0  343.87   15.70
  -5  -5   0  340.77   12.30
  -5  -5   0  339.77   13.80
   5   5   0  341.47   15.10
   5   5   0  344.27   14.00
   5   5   0  317.57   13.90
   5   5   0  315.37   23.30
  -6  -5   0  823.62   31.90
  -6  -5   0  813.52   30.40
  -6  -5   0  847.72   33.60
  -6  -5   0  833.52   28.30
   6   5   0  823.52   29.60
   6   5   0  799.92   28.60
   6   5   0  856.41   36.50
   6   5   0  787.72   28.20
  -7  -5   0    1.50    3.90
  -7  -5   0    3.30    4.50
  -7  -5   0   10.00    5.40
  -7  -5   0    9.60    6.20
   7   5   0    5.40    4.70
   7   5   0    9.30    4.90
   7   5   0    7.90    3.60
   7   5   0   10.90    7.40
  -8  -5   0   -2.50    6.70
   8   5   0   -1.40    3.40
   8  -6   0  253.77   12.80
   8  -6   0  281.97   15.70
   8  -6   0  277.17   12.20
  -8   6   0  206.08   15.70
  -8   6   0  269.47   15.80
   7  -6   0   90.09    7.50
   7  -6   0  101.89    9.50
   7  -6   0   95.69    7.40
   7  -6   0  105.09   10.10
   7  -6   0   86.49    8.50
  -7   6   0   95.59    9.60
  -7   6   0  102.29    8.00
  -7   6   0   86.39    9.50
   6  -6   0    1.40    2.80
   6  -6   0    4.30    5.00
   6  -6   0    2.00    4.20
  -6   6   0    1.00    4.50
  -6   6   0   -2.10    4.40
  -6   6   0    4.20    4.30
   5  -6   0   63.79    7.50
   5  -6   0   54.59    6.40
   5  -6   0   60.89    4.70
  -5   6   0   67.39    7.80
  -5   6   0   67.29    7.60
   4  -6   0 1135.49   38.30
   4  -6   0 1124.99   36.40
   4  -6   0 1162.78   38.40
   4  -6   0 1111.59   38.50
   4  -6   0 1121.79   34.50
   3  -6   0    2.40    3.70
   3  -6   0    7.80    4.40
   3  -6   0    6.40    1.50
   3  -6   0    3.10    2.60
   3  -6   0    7.30    3.10
  -3   6   0    3.50    7.30
  -3   6   0    4.30    2.90
  -3   6   0    2.50    3.40
   2  -6   0    3.80    4.40
   2  -6   0    9.50    2.90
   2  -6   0    7.00    3.90
   2  -6   0    8.00    2.30
  -2   6   0    9.00    4.00
  -2   6   0    6.90    3.80
  -2   6   0    8.00    3.50
   1  -6   0   44.10    6.50
   1  -6   0   39.20    6.40
   1  -6   0   33.70    5.20
  -1   6   0   36.70    4.90
  -1   6   0   33.50    4.50
  -1   6   0   35.60    6.60
   0  -6   0 1531.65   54.29
   0  -6   0 1528.15   49.99
   0  -6   0 1557.64   48.80
   0   6   0 1565.64   49.70
   0   6   0 1577.64   51.39
   0   6   0 1457.35   48.20
   0   6   0 1494.15   48.30
  -1  -6   0  642.54   21.60
  -1  -6   0  673.23   23.60
  -1  -6   0  643.34   24.50
   1   6   0  637.24   24.00
   1   6   0  666.93   27.20
   1   6   0  656.03   23.20
  -2  -6   0 1224.38   36.70
  -2  -6   0 1213.58   41.70
  -2  -6   0 1179.78   39.50
  -2  -6   0 1165.48   36.40
  -2  -6   0 1198.88   40.80
   2   6   0 1229.78   40.40
   2   6   0 1218.98   44.00
   2   6   0 1158.18   38.60
  -3  -6   0   95.29    4.80
  -3  -6   0   93.49    9.20
  -3  -6   0   96.69    8.10
   3   6   0  104.69    8.50
   3   6   0   78.49    7.40
   3   6   0  100.49   11.50
  -4  -6   0   23.90    3.10
  -4  -6   0   30.90    3.80
  -4  -6   0   33.40    5.70
   4   6   0   32.30    8.00
   4   6   0   31.10    5.10
   4   6   0   29.10    4.90
  -5  -6   0   61.79    8.80
  -5  -6   0   73.69    4.30
  -5  -6   0   70.29    6.20
  -5  -6   0   81.19    8.70
  -5  -6   0   63.69    9.10
   5   6   0   86.19    8.10
   5   6   0   61.49    6.90
   5   6   0   70.99    7.30
   5   6   0   75.99   11.90
  -6  -6   0  961.10   31.90
  -6  -6   0  929.51   37.60
  -6  -6   0  897.81   35.90
   6   6   0  937.01   32.40
   6   6   0 1012.60   42.10
  -7  -6   0   25.40    6.20
  -7  -6   0   17.10    7.50
  -7  -6   0   22.50    4.70
   7   6   0   27.00    8.10
   7   6   0   25.80    5.00
   7  -7   0   23.20    6.40
   7  -7   0   22.70    6.30
  -7   7   0   24.80    4.90
  -7   7   0   17.70    5.80
  -7   7   0   10.50    5.80
   6  -7   0   45.60    7.20
   6  -7   0   37.50    6.60
  -6   7   0   47.30    6.70
  -6   7   0   45.70    7.30
  -6   7   0   35.60    6.60
   5  -7   0  106.89    9.10
   5  -7   0  124.19   10.30
   5  -7   0  107.49    5.70
   5  -7   0  111.69    7.60
   5  -7   0  106.89    9.30
  -5   7   0  103.19    8.30
  -5   7   0  114.39    9.30
  -5   7   0  113.39    9.10
   4  -7   0 1262.27   51.19
   4  -7   0 1512.15   49.00
   4  -7   0 1535.15   46.60
  -4   7   0 1556.84   46.80
  -4   7   0 1478.15   47.70
   3  -7   0   38.10    5.70
   3  -7   0   27.10    5.70
   3  -7   0   40.00    7.90
   3  -7   0   30.60    4.60
  -3   7   0   35.50    5.10
  -3   7   0   39.90    5.40
   2  -7   0  170.28   11.80
   2  -7   0  212.58   10.40
   2  -7   0  217.58   12.10
   2  -7   0  225.18    8.80
  -2   7   0  227.38   11.20
  -2   7   0  200.38   10.50
  -2   7   0  225.98   11.90
   1  -7   0    6.50    5.70
   1  -7   0   15.70    4.80
  -1   7   0   11.50    4.50
  -1   7   0    2.10    3.90
  -1   7   0    1.20    4.40
   0  -7   0  217.68   10.40
   0  -7   0  204.48   11.90
   0   7   0  207.58   13.70
   0   7   0  208.98   12.00
   0   7   0  199.38   11.10
  -1  -7   0  203.78   12.60
  -1  -7   0  259.97   13.20
  -1  -7   0  262.27   10.60
   1   7   0  253.77   13.10
   1   7   0  246.08   12.20
   1   7   0  258.37   15.70
  -2  -7   0  411.36   18.00
  -2  -7   0  386.96   13.90
  -2  -7   0  402.46   13.80
   2   7   0  426.76   21.70
   2   7   0  413.76   17.90
   2   7   0  394.36   17.00
  -3  -7   0  157.88   12.10
  -3  -7   0  142.99    6.10
   3   7   0  149.88    9.90
   3   7   0  173.68   14.40
  -4  -7   0   -0.20    2.40
  -4  -7   0    3.80    5.60
  -4  -7   0    0.10    1.20
   4   7   0   -5.20    5.40
   4   7   0   -2.20    3.80
   4   7   0   -4.50    4.00
  -5  -7   0   96.59    6.70
  -5  -7   0   94.59   11.50
  -5  -7   0   89.89   12.10
  -5  -7   0   88.09   10.60
   5   7   0   77.09    7.80
   5   7   0  113.49    9.40
   5   7   0   89.39    8.40
   5   7   0  106.69   13.70
  -6  -7   0  287.67   19.60
  -6  -7   0  347.27   14.10
   6   7   0  330.77   15.80
   6   7   0  371.46   16.90
   6   7   0  330.77   15.70
   6  -8   0  137.79   12.60
   6  -8   0  166.88   13.00
   6  -8   0  149.69    9.90
  -6   8   0  154.48   11.40
  -6   8   0  157.68   11.00
  -6   8   0  145.29   11.30
   5  -8   0   37.50    6.50
   5  -8   0   46.70    7.30
   5  -8   0   36.00    4.90
  -5   8   0   29.60    6.50
  -5   8   0   34.20    6.50
   4  -8   0    5.00    4.00
   4  -8   0   -4.90    2.50
   4  -8   0    6.40    3.60
   4  -8   0    4.90    5.40
  -4   8   0    0.40    4.90
  -4   8   0    0.80    4.60
   3  -8   0   31.40    6.30
   3  -8   0   34.80    4.90
   3  -8   0   28.90    5.70
  -3   8   0   22.10    4.50
  -3   8   0   34.40    5.80
   2  -8   0  628.74   24.80
   2  -8   0  591.34   22.90
   2  -8   0  630.04   26.60
   2  -8   0  665.33   20.90
   2  -8   0  650.83   24.50
  -2   8   0  639.24   24.00
  -2   8   0  626.54   22.70
  -2   8   0  606.74   24.70
   1  -8   0   23.60    4.20
   1  -8   0   19.70    2.50
   1  -8   0   19.40    3.60
   1  -8   0   17.20    5.50
  -1   8   0   15.90    5.10
  -1   8   0   21.30    5.30
   0  -8   0  161.38    9.10
   0  -8   0  163.58    9.10
   0  -8   0  127.89   12.70
   0   8   0  169.88   12.30
   0   8   0  155.88   13.00
  -1  -8   0    2.40    2.80
  -1  -8   0    3.20    3.80
  -2  -8   0  166.48   13.60
  -2  -8   0  149.19    8.10
  -2  -8   0  165.28    6.50
   2   8   0  157.68   14.30
   2   8   0  152.08   10.90
  -3  -8   0  395.06   20.80
   3   8   0  451.45   24.10
   3   8   0  403.76   18.80
   3   8   0  405.96   18.50
  -4  -8   0  137.39   14.10
  -4  -8   0  133.39    6.80
   4   8   0  134.09   10.90
   4   8   0  128.59    9.30
   4   8   0  142.09   15.00
  -5  -8   0    0.80    2.70
   5   8   0    3.70    4.60
   5   8   0    0.50    5.60
   5   8   0    4.60    4.40
   5  -9   0   79.69    9.70
   5  -9   0  113.89   10.90
  -5   9   0  100.39    9.20
   4  -9   0  235.48   10.90
   4  -9   0  230.38   15.10
   4  -9   0  256.17   15.10
  -4   9   0  228.98   12.80
   3  -9   0   22.60    6.50
   3  -9   0    7.70    4.50
  -3   9   0    7.80    4.10
   2  -9   0    2.90    5.10
   2  -9   0   -4.80    1.90
   2  -9   0   -2.80    3.60
   2  -9   0    1.80    3.50
  -2   9   0   -5.40    5.80
  -2   9   0    0.50    4.70
   1  -9   0  289.57   15.70
   1  -9   0  289.97    9.90
   1  -9   0  290.97   12.80
   1  -9   0  298.97   14.40
  -1   9   0  260.67   16.00
  -1   9   0  273.67   15.80
   0  -9   0  167.88   12.40
   0  -9   0  184.68   10.40
   0  -9   0  182.88    8.90
   0   9   0  175.28   15.50
  -1  -9   0   57.19    5.50
  -1  -9   0   46.10    7.00
  -1  -9   0   56.49    4.50
   1   9   0   50.99   10.00
  -2  -9   0   21.60    3.40
  -2  -9   0   26.20    7.40
  -2  -9   0   25.90    2.80
   2   9   0   30.70    7.80
  -3  -9   0  142.09   17.60
   3   9   0  146.19   15.70
   3   9   0  150.78   11.50
   3 -10   0   86.99   16.40
   3 -10   0  119.79   11.10
   2 -10   0   22.30    2.50
   2 -10   0   31.30    7.20
  -2  10   0   18.40    5.30
   1 -10   0  782.62   27.50
   0 -10   0   95.49   10.80
   0 -10   0   76.49    7.60
   0 -10   0   56.09    5.90
   0  10   0   70.99   10.00
  -1 -10   0  733.13   24.30
  -1 -10   0  702.83   24.80
   1  10   0  687.83   31.80
  -1 -10   1  196.78   14.50
  -1 -10   1  167.98    9.80
  -1 -10   1  162.28    9.80
   0  10  -1    4.70    5.30
   0 -10   1    9.40    5.70
   0 -10   1    1.30    3.60
   1 -10   1   57.39    7.70
   1 -10   1   38.50    5.40
   1 -10   1   67.49   10.00
  -2  10  -1   43.50    8.60
   2 -10   1   49.80    5.80
   2 -10   1   47.60    7.90
   2 -10   1   53.29    8.30
   3 -10   1  191.88   11.90
   3 -10   1  227.38   13.90
   4   9  -1   -0.20    4.60
  -4  -9   1    6.90    6.00
   3   9  -1    1.80    5.00
   3   9  -1    7.90    7.00
   3   9  -1   -7.10    7.80
  -3  -9   1    3.00    6.60
   2   9  -1  219.98   14.10
   2   9  -1  246.88   17.80
   2   9  -1  237.88   15.10
  -2  -9   1  235.18   16.90
  -2  -9   1  223.78   10.00
   1   9  -1  309.97   18.90
   1   9  -1  291.27   21.20
   1   9  -1  318.37   16.50
  -1  -9   1  303.17   10.70
  -1  -9   1  326.67   16.30
  -1  -9   1  313.47   13.20
   0  -9   1   94.99    9.50
   0  -9   1  105.19    7.60
   0  -9   1   87.19    5.80
  -1   9  -1   19.60    5.80
   1  -9   1   18.50    3.50
   1  -9   1   22.90    6.00
  -2   9  -1    2.80    4.00
  -2   9  -1   -2.10    5.60
   2  -9   1    3.70    4.90
   2  -9   1    2.90    3.10
  -3   9  -1    4.50    5.50
  -3   9  -1   11.80    4.00
   3  -9   1   14.20    2.50
   3  -9   1   23.50    6.30
  -4   9  -1 1137.49   38.10
   4  -9   1 1084.69   35.10
   4  -9   1 1061.69   39.60
  -5   9  -1   74.49    9.10
  -5   9  -1   68.39    7.80
  -5   9  -1   65.79    9.10
   5  -9   1   82.59    7.20
   5   8  -1  124.59   10.10
   5   8  -1  111.09   13.10
   4   8  -1  268.17   19.90
   4   8  -1  246.88   13.30
   4   8  -1  261.57   15.20
  -4  -8   1  247.38   17.90
   3   8  -1   37.10    5.50
   3   8  -1   46.70    9.10
   3   8  -1   61.29    8.90
  -3  -8   1   37.90    7.00
   2   8  -1  103.99   10.20
   2   8  -1  103.89    8.30
   2   8  -1   93.59   12.40
  -2  -8   1   87.39   11.30
  -2  -8   1   94.79    6.20
  -2  -8   1   96.49    9.20
   1   8  -1   62.79    7.30
   1   8  -1   78.29    8.90
   1   8  -1   70.99    9.80
   1   8  -1   67.89    8.00
  -1  -8   1   70.39    8.80
  -1  -8   1   64.99    4.10
  -1  -8   1   74.19    8.20
   0   8  -1  157.88   10.90
   0   8  -1  177.08   13.30
   0   8  -1  146.19   11.70
   0  -8   1  150.78    7.40
   0  -8   1  165.18   10.90
  -1   8  -1  287.87   15.60
   1  -8   1  300.77   12.60
  -2   8  -1   53.99    7.50
  -2   8  -1   48.80    6.70
   2  -8   1   56.99    8.40
   2  -8   1   51.19    3.70
   2  -8   1   46.10    5.50
   2  -8   1   45.20    7.10
  -3   8  -1   47.50    7.50
   3  -8   1   63.79    9.30
   3  -8   1   62.89    9.00
   3  -8   1   50.29    4.50
   3  -8   1   53.19    6.20
  -4   8  -1  371.56   16.00
   4  -8   1  360.96   14.00
   4  -8   1  348.57   17.20
  -5   8  -1    5.20    5.80
  -5   8  -1    4.70    4.60
   5  -8   1    5.50    3.10
   5  -8   1    8.50    5.50
   5  -8   1    0.60    2.00
  -6   8  -1  238.18   13.10
  -6   8  -1  239.88   14.20
  -6   8  -1  267.37   14.40
   6  -8   1  267.37   15.70
   6   7  -1    3.30    4.30
  -6  -7   1    5.10    5.80
   5   7  -1    1.80    3.80
   5   7  -1   11.30    7.20
   5   7  -1    7.70    4.60
  -5  -7   1   -2.40    4.70
  -5  -7   1   -4.20    5.70
   4   7  -1  679.23   24.90
   4   7  -1  735.53   27.90
   4   7  -1  767.72   34.00
  -4  -7   1  709.83   30.20
  -4  -7   1  677.03   28.80
   3   7  -1    0.80    3.80
   3   7  -1    6.90    7.10
  -3  -7   1    4.60    4.70
   2   7  -1 1499.65   48.60
   2   7  -1 1394.96   45.80
   2   7  -1 1502.15   52.59
  -2  -7   1 1223.48   52.29
  -2  -7   1 1444.16   44.00
  -2  -7   1 1468.85   44.30
  -2  -7   1 1482.85   47.10
   1   7  -1   -6.00    3.10
   1   7  -1    1.10    5.60
   1   7  -1    4.30    3.60
   1   7  -1    7.80    3.60
  -1  -7   1   -0.40    3.70
  -1  -7   1    8.80    4.30
  -1  -7   1    0.90    2.00
  -1  -7   1    2.80    1.70
   0   7  -1  219.78   11.10
   0   7  -1  195.58   10.60
   0   7  -1  213.18   12.10
   0   7  -1  209.28   13.10
   0  -7   1  186.38    8.20
   0  -7   1  204.08    7.40
   0  -7   1  182.58   11.40
  -1   7  -1   49.10    6.80
  -1   7  -1   59.79    6.80
  -1   7  -1   61.89    8.30
   1  -7   1   59.79    3.20
   1  -7   1   55.79    8.30
   1  -7   1   54.09    4.70
  -2   7  -1  807.32   27.40
  -2   7  -1  817.02   28.50
  -2   7  -1  794.92   28.80
   2  -7   1  771.32   27.20
   2  -7   1  803.92   30.10
   2  -7   1  828.12   28.90
   2  -7   1  805.92   25.20
  -3   7  -1   30.00    5.20
  -3   7  -1   29.50    5.00
  -3   7  -1   31.00    6.50
   3  -7   1   29.10    4.10
   3  -7   1   27.50    5.80
   3  -7   1   35.10    4.60
   3  -7   1   35.30    5.70
   3  -7   1   32.30    2.80
  -4   7  -1    0.10    4.50
   4  -7   1    3.10    3.00
   4  -7   1   -0.40    3.30
   4  -7   1    2.90    5.20
   4  -7   1    4.20    2.10
   4  -7   1    2.10    3.80
  -5   7  -1  108.99    8.60
  -5   7  -1  121.39    9.60
  -5   7  -1  107.09    9.40
   5  -7   1  116.69    6.20
   5  -7   1  109.29   10.20
   5  -7   1  113.79    9.70
   5  -7   1  109.79    7.40
   5  -7   1   94.69    8.80
  -6   7  -1  228.38   13.30
  -6   7  -1  210.18   12.30
   6  -7   1  213.28    9.90
   6  -7   1  227.98   14.00
   6  -7   1  207.28   12.80
  -7   7  -1   15.80    5.90
  -7   7  -1   14.90    5.70
  -7   7  -1   22.70    6.10
   7  -7   1   11.40    6.00
   7  -7   1   10.00    3.90
   7   6  -1  462.35   17.60
   7   6  -1  464.45   20.30
  -7  -6   1  428.16   23.60
   6   6  -1   29.60    4.80
   6   6  -1   36.60    6.00
   6   6  -1   45.60   10.10
   6   6  -1   20.20    5.00
  -6  -6   1   36.80    6.90
  -6  -6   1   26.70    7.20
  -6  -6   1   26.40    6.60
   5   6  -1   59.19    6.50
   5   6  -1   75.09   12.20
  -5  -6   1   52.09    7.80
  -5  -6   1   65.69   10.80
   4   6  -1  631.94   34.80
   4   6  -1  683.23   26.30
   4   6  -1  656.13   23.70
  -4  -6   1  688.03   24.30
  -4  -6   1  815.72   33.30
  -4  -6   1  695.33   27.10
  -4  -6   1  710.83   23.00
   3   6  -1   47.40    5.90
   3   6  -1   48.20    8.60
   3   6  -1   43.10    6.30
  -3  -6   1   48.60    5.60
  -3  -6   1   41.20    6.60
  -3  -6   1   60.49    7.50
  -3  -6   1   42.30    3.90
   2   6  -1 2636.74   86.19
   2   6  -1 2702.23   82.69
   2   6  -1 2569.14   80.19
  -2  -6   1 2597.24   82.99
  -2  -6   1 2609.84   77.79
  -2  -6   1 2653.83   78.69
  -2  -6   1 2719.93   83.99
  -2  -6   1 2708.43   81.09
  -2  -6   1 2649.73   79.39
   1   6  -1    2.60    3.70
   1   6  -1    0.80    2.80
   1   6  -1   -3.10    4.00
   1   6  -1   -2.90    3.20
  -1  -6   1    3.60    2.10
  -1  -6   1    0.30    2.70
  -1  -6   1    2.10    1.40
  -1  -6   1    0.70    3.80
   0   6  -1  590.74   21.90
   0   6  -1  550.34   20.20
   0   6  -1  567.74   20.60
   0   6  -1  575.04   23.50
   0  -6   1  577.94   20.90
   0  -6   1  549.65   17.70
   0  -6   1  564.24   22.00
   0  -6   1  546.45   18.50
  -1   6  -1  931.51   31.40
  -1   6  -1  921.61   30.70
  -1   6  -1  958.00   32.80
  -1   6  -1  957.30   33.10
   1  -6   1  926.51   30.20
   1  -6   1  932.11   28.40
   1  -6   1  976.80   31.80
   1  -6   1  954.50   33.00
  -2   6  -1  517.05   20.30
  -2   6  -1  546.15   19.90
  -2   6  -1  547.55   19.30
   2  -6   1  524.75   17.60
   2  -6   1  545.25   20.40
   2  -6   1  541.75   21.20
   2  -6   1  564.14   21.00
  -3   6  -1  722.43   26.10
  -3   6  -1  757.12   24.70
  -3   6  -1  708.43   23.20
   3  -6   1  735.83   26.10
   3  -6   1  712.03   23.50
   3  -6   1  733.33   26.70
   3  -6   1  688.43   25.30
  -4   6  -1   13.50    4.80
   4  -6   1   20.10    4.70
   4  -6   1   17.70    2.90
   4  -6   1   17.30    5.40
   4  -6   1   18.10    3.50
   4  -6   1   17.30    4.10
  -5   6  -1  594.04   23.20
  -5   6  -1  512.25   20.40
  -5   6  -1  532.15   19.90
   5  -6   1  514.15   19.50
   5  -6   1  518.15   18.50
   5  -6   1  488.35   20.90
   5  -6   1  519.15   19.50
  -6   6  -1   11.30    5.00
  -6   6  -1    8.80    4.80
  -6   6  -1    5.80    4.90
   6  -6   1    2.00    4.60
   6  -6   1   14.10    4.20
   6  -6   1    4.30    3.20
   6  -6   1   10.80    4.80
   6  -6   1    6.80    3.60
   6  -6   1    4.70    5.30
  -7   6  -1   68.59    8.90
  -7   6  -1   78.89   10.30
  -7   6  -1   75.59    8.80
   7  -6   1   81.99    7.80
   7  -6   1   74.29    9.70
   7  -6   1   74.79    7.40
  -8   6  -1  622.54   27.60
   8  -6   1  674.53   27.10
   8  -6   1  675.33   23.70
   8  -6   1  645.04   25.80
   8  -6   1  675.13   27.90
   8  -6   1  624.54   24.30
   8   5  -1  109.49    9.50
   8   5  -1  108.29    8.00
  -8  -5   1  134.69   14.90
   7   5  -1  705.93   28.20
   7   5  -1  670.03   24.30
   7   5  -1  744.53   35.00
  -7  -5   1  706.23   29.30
  -7  -5   1  714.53   30.50
   6   5  -1  319.97   20.30
   6   5  -1  311.27   15.00
   6   5  -1  281.97   12.30
  -6  -5   1  286.97   15.00
  -6  -5   1  272.87   16.30
  -6  -5   1  270.17   17.10
   5   5  -1  566.54   22.00
  -5  -5   1  558.74   19.50
  -5  -5   1  569.64   22.70
  -5  -5   1  523.25   23.90
   4   5  -1  241.58   16.30
   4   5  -1  213.68    9.70
   4   5  -1  222.58   12.10
  -4  -5   1  214.58    9.20
  -4  -5   1  220.68   10.60
  -4  -5   1  225.68   12.30
  -4  -5   1  207.48   13.30
   3   5  -1  530.85   24.20
   3   5  -1  508.95   18.30
   3   5  -1  536.05   20.40
  -3  -5   1  569.14   22.10
  -3  -5   1  521.65   17.30
  -3  -5   1  514.55   20.80
  -3  -5   1  522.45   18.60
   2   5  -1  968.70   33.20
   2   5  -1 1001.80   36.40
   2   5  -1  950.50   31.20
  -2  -5   1 1022.20   34.60
  -2  -5   1  978.10   33.40
  -2  -5   1  914.51   29.50
  -2  -5   1 1014.90   32.00
   1   5  -1 1039.10   37.70
   1   5  -1 1038.00   33.70
   1   5  -1 1102.39   35.70
  -1  -5   1 1094.39   34.20
  -1  -5   1 1052.19   32.60
  -1  -5   1 1048.40   31.40
  -1  -5   1 1064.29   35.70
   0   5  -1 2240.98   69.99
   0   5  -1 2279.37   68.69
   0   5  -1 2173.88   67.09
   0  -5   1 2274.67   67.39
   0  -5   1 2266.07   68.99
   0  -5   1 2189.18   65.29
   0  -5   1 2077.99   65.69
  -1   5  -1   67.59    6.50
  -1   5  -1   68.59    5.60
  -1   5  -1   71.39    6.50
  -1   5  -1   67.09    7.10
   1  -5   1   70.29    3.50
   1  -5   1   64.29    4.50
   1  -5   1   68.89    6.20
   1  -5   1   70.39    6.30
  -2   5  -1 1268.77   38.90
  -2   5  -1 1243.08   40.10
  -2   5  -1 1235.48   39.30
   2  -5   1 1302.37   40.30
   2  -5   1 1261.37   38.00
   2  -5   1 1257.77   40.70
   2  -5   1 1188.88   39.30
  -3   5  -1 3691.53  105.89
  -3   5  -1 3663.73  104.09
  -3   5  -1 3512.05  107.19
   3  -5   1 3566.44  105.49
   3  -5   1 3553.04  107.49
   3  -5   1 3332.77  106.79
   3  -5   1 3606.74  107.19
   3  -5   1 3541.75  106.09
  -4   5  -1 1589.64   47.90
  -4   5  -1 1496.25   49.10
  -4   5  -1 1601.84   48.70
   4  -5   1 1510.45   49.20
   4  -5   1 1539.05   49.10
   4  -5   1 1512.95   46.80
   4  -5   1 1490.95   48.90
   4  -5   1 1521.25   51.99
   4  -5   1 1516.15   47.40
  -5   5  -1 1202.58   41.80
  -5   5  -1 1230.48   42.50
  -5   5  -1 1268.27   41.50
  -5   5  -1 1305.07   41.10
   5  -5   1 1267.37   39.70
   5  -5   1 1293.87   42.10
   5  -5   1 1265.77   41.30
   5  -5   1 1268.17   40.70
   5  -5   1 1305.27   42.50
   5  -5   1 1196.08   43.40
  -6   5  -1  472.75   19.20
  -6   5  -1  508.95   19.60
   6  -5   1  479.45   19.20
   6  -5   1  490.25   18.20
   6  -5   1  493.45   17.80
   6  -5   1  483.15   18.90
  -7   5  -1   51.09    6.80
  -7   5  -1   48.80    7.80
  -7   5  -1   57.79    7.60
   7  -5   1   48.80    7.00
   7  -5   1   42.20    5.40
   7  -5   1   40.80    5.20
   7  -5   1   43.20    6.10
   7  -5   1   47.80    6.90
  -8   5  -1   18.80    5.30
  -8   5  -1    6.30    5.50
   8  -5   1    3.30    4.90
   8  -5   1    5.00    3.60
   8  -5   1   13.20    4.30
   8  -5   1   13.80    5.40
   8  -5   1   16.30    5.80
   9  -5   1  231.98   12.30
   8   4  -1   12.20    4.00
   8   4  -1   12.30    7.70
   8   4  -1   14.40    5.00
  -8  -4   1   15.40    6.60
  -8  -4   1    7.00    5.90
   7   4  -1 1015.70   42.00
   7   4  -1  972.10   34.80
   7   4  -1 1031.20   35.50
   7   4  -1  973.00   32.70
  -7  -4   1 1005.90   37.00
  -7  -4   1 1007.80   38.20
   6   4  -1   18.60    8.50
   6   4  -1   12.90    4.50
   6   4  -1    9.60    4.10
  -6  -4   1   14.30    4.40
  -6  -4   1   15.60    5.60
  -6  -4   1   12.40    6.10
   5   4  -1  462.35   18.20
   5   4  -1  461.55   17.00
   5   4  -1  488.25   19.00
   5   4  -1  494.55   24.00
   5   4  -1  428.96   19.50
  -5  -4   1  478.25   17.30
  -5  -4   1  487.85   19.50
  -5  -4   1  510.15   21.40
  -5  -4   1  490.45   18.50
  -5  -4   1  499.55   20.30
   4   4  -1    8.00    3.50
   4   4  -1    6.60    2.60
   4   4  -1   11.50    5.70
  -4  -4   1   17.50    4.00
  -4  -4   1    3.80    4.30
  -4  -4   1   16.30    3.60
  -4  -4   1   11.90    3.90
  -4  -4   1   14.00    2.70
   3   4  -1   61.39    5.60
   3   4  -1   66.49    4.90
   3   4  -1   66.59    9.00
  -3  -4   1   69.09    6.60
  -3  -4   1   71.39    5.50
  -3  -4   1   64.99    4.20
   2   4  -1    6.00    2.70
   2   4  -1    2.90    4.20
   2   4  -1    6.30    2.50
  -2  -4   1    4.10    1.60
  -2  -4   1    5.80    2.70
  -2  -4   1    6.60    1.50
  -2  -4   1    7.50    3.60
  -2  -4   1    2.90    2.70
  -2  -4   1    3.70    2.40
   1   4  -1 4385.06  133.79
   1   4  -1 4452.55  129.59
   1   4  -1 4425.86  131.09
  -1  -4   1 4458.25  131.39
  -1  -4   1 4358.96  128.89
  -1  -4   1 4427.56  129.79
  -1  -4   1 4293.37  127.89
   0   4  -1 1426.36   44.60
   0   4  -1 1396.06   43.70
   0   4  -1 1374.96   45.60
   0   4  -1 1411.06   43.50
   0  -4   1 1435.86   43.50
   0  -4   1 1409.56   42.40
   0  -4   1 1454.85   44.90
  -1   4  -1 1894.41   55.99
  -1   4  -1 1748.72   55.89
  -1   4  -1 1788.12   55.19
  -1   4  -1 1777.92   54.59
   1  -4   1 1805.42   54.59
   1  -4   1 1787.22   53.39
   1  -4   1 1811.92   56.09
   1  -4   1 1884.91   56.49
  -2   4  -1   88.19    5.80
  -2   4  -1   81.59    4.90
  -2   4  -1   81.99    6.00
   2  -4   1   74.29    5.50
   2  -4   1   81.29    6.20
   2  -4   1   77.29    4.30
   2  -4   1   77.09    5.30
   2  -4   1   83.19    6.20
  -3   4  -1   62.09    5.70
   3  -4   1   65.59    4.80
   3  -4   1   69.59    5.60
   3  -4   1   72.49    6.30
   3  -4   1   69.79    5.60
  -4   4  -1   28.50    4.00
  -4   4  -1   25.90    4.10
  -4   4  -1   31.30    4.50
  -4   4  -1   26.50    4.30
   4  -4   1   24.10    3.70
   4  -4   1   35.50    3.90
   4  -4   1   23.10    4.40
   4  -4   1   24.20    3.60
   4  -4   1   24.50    4.00
   4  -4   1   35.20    4.80
  -5   4  -1  860.81   29.30
  -5   4  -1  861.41   28.90
  -5   4  -1  873.01   29.20
   5  -4   1  875.21   29.80
   5  -4   1  834.12   29.90
   5  -4   1  903.21   27.90
   5  -4   1  903.21   30.10
   5  -4   1  715.73   32.60
   5  -4   1  879.21   29.00
  -6   4  -1   14.70    4.50
  -6   4  -1   11.90    4.70
  -6   4  -1    7.00    3.80
   6  -4   1   12.70    3.70
   6  -4   1   20.50    4.70
   6  -4   1   17.70    3.80
   6  -4   1   20.00    3.60
   6  -4   1   15.70    4.80
  -7   4  -1   21.60    5.60
  -7   4  -1   11.50    4.10
   7  -4   1   15.20    4.00
   7  -4   1    8.40    4.00
   7  -4   1    2.50    5.60
   7  -4   1   20.70    5.60
   7  -4   1   10.60    3.20
  -8   4  -1   29.40    6.20
  -8   4  -1   26.80    6.00
   8  -4   1   18.60    5.60
   8  -4   1   28.00    6.10
   8  -4   1   20.60    4.10
   8  -4   1   19.10    4.80
   9  -4   1  540.35   22.30
   9  -4   1  548.05   21.30
   9  -4   1  572.34   23.70
   9  -4   1  563.24   24.20
   9   3  -1  264.57   14.10
   9   3  -1  245.68   12.10
   9   3  -1  291.47   20.30
   9   3  -1  260.87   12.60
   9   3  -1  255.27   16.00
  -9  -3   1  256.07   17.20
   8   3  -1  114.99    7.50
   8   3  -1  111.19    8.40
   8   3  -1   98.89    7.80
   8   3  -1  123.19   11.20
   8   3  -1  119.69   13.40
  -8  -3   1  103.19   10.30
  -8  -3   1   88.49   10.30
   7   3  -1    5.40    4.60
   7   3  -1    1.70    5.80
   7   3  -1    3.80    3.20
   7   3  -1    7.80    4.10
  -7  -3   1    4.20    5.10
  -7  -3   1    0.10    7.90
   6   3  -1   52.39    9.70
   6   3  -1   40.20    5.90
   6   3  -1   45.70    7.40
   6   3  -1   45.10    5.30
   6   3  -1   49.60    6.20
   6   3  -1   50.59    5.00
  -6  -3   1   38.00    6.40
  -6  -3   1   46.60    7.00
   5   3  -1  435.46   16.50
   5   3  -1  440.06   21.50
   5   3  -1  431.46   16.60
   5   3  -1  432.76   15.10
   5   3  -1  434.56   18.20
   5   3  -1  437.06   17.30
   5   3  -1  425.66   18.00
   5   3  -1  415.06   15.40
  -5  -3   1  425.36   17.20
  -5  -3   1  431.76   16.80
  -5  -3   1  417.96   18.20
  -5  -3   1  422.66   18.50
  -5  -3   1  439.16   16.10
   4   3  -1  363.56   13.40
   4   3  -1  390.86   15.20
   4   3  -1  395.36   19.00
   4   3  -1  377.06   15.90
   4   3  -1  376.66   14.20
  -4  -3   1  369.46   15.70
  -4  -3   1  375.16   15.90
  -4  -3   1  385.46   14.70
  -4  -3   1  367.16   15.10
  -4  -3   1  367.46   13.70
   3   3  -1  671.93   25.80
   3   3  -1  651.03   22.30
   3   3  -1  631.04   20.70
  -3  -3   1  680.03   23.50
  -3  -3   1  615.14   20.60
  -3  -3   1  636.84   22.40
  -3  -3   1  626.84   19.80
  -3  -3   1  666.63   21.70
   2   3  -1    5.90    4.70
   2   3  -1    8.50    2.10
   2   3  -1    6.80    2.80
  -2  -3   1    7.70    1.10
  -2  -3   1   12.10    1.50
  -2  -3   1    6.50    1.70
  -2  -3   1    6.50    2.20
  -2  -3   1    5.50    2.80
  -2  -3   1    7.10    2.70
   1   3  -1 3180.28   93.49
   1   3  -1 3114.69   95.19
   1   3  -1 3122.89   91.99
  -1  -3   1 3127.59   92.19
  -1  -3   1 3140.19   91.89
  -1  -3   1 3038.90   90.99
  -1  -3   1 3165.18   93.59
   0   3  -1 2909.21   81.89
   0   3  -1 2706.03   80.69
   0   3  -1 2645.54   82.39
   0   3  -1 2701.63   80.89
   0  -3   1 2646.14   79.89
   0  -3   1 2709.63   80.69
   0  -3   1 2775.22   81.79
  -1   3  -1 2748.23   81.19
  -1   3  -1 2759.52   80.69
  -1   3  -1 2907.11   81.79
  -1   3  -1 2629.54   81.29
   1  -3   1 2728.73   81.09
   1  -3   1 2713.83   79.89
   1  -3   1 2851.31   81.79
   1  -3   1 2676.43   80.89
   1  -3   1 2573.94   80.69
  -2   3  -1  222.78    7.70
  -2   3  -1  236.48    9.00
  -2   3  -1  221.88    9.50
   2  -3   1  228.78    8.70
   2  -3   1  231.08    8.40
   2  -3   1  231.68    9.50
   2  -3   1  216.98    9.20
   2  -3   1  233.28    9.60
  -3   3  -1  570.54   20.00
  -3   3  -1  622.74   19.60
  -3   3  -1  582.04   20.40
   3  -3   1  600.14   20.00
   3  -3   1  630.74   19.50
   3  -3   1  613.64   20.60
   3  -3   1  575.74   20.40
   3  -3   1  572.74   19.70
  -4   3  -1  173.48    8.50
  -4   3  -1  162.88    8.40
  -4   3  -1  165.48    8.40
   4  -3   1  161.48    8.00
   4  -3   1  170.98    8.00
   4  -3   1  165.18    7.50
   4  -3   1  158.68    8.60
   4  -3   1  173.98    9.30
  -5   3  -1 1178.38   37.60
  -5   3  -1 1138.69   37.10
  -5   3  -1 1163.88   37.50
   5  -3   1 1130.79   38.20
   5  -3   1 1136.09   37.60
   5  -3   1 1176.48   36.90
   5  -3   1 1146.89   36.10
   5  -3   1 1145.59   37.30
  -6   3  -1  192.88   10.50
  -6   3  -1  205.08   11.10
  -6   3  -1  192.48   12.40
   6  -3   1  207.98   10.80
   6  -3   1  195.18   11.20
   6  -3   1  206.98   10.10
   6  -3   1  215.68   10.00
   6  -3   1  191.88   12.60
  -7   3  -1   26.40    5.40
  -7   3  -1   11.50    5.50
   7  -3   1   22.20    5.20
   7  -3   1   17.50    4.60
   7  -3   1   13.50    4.10
   7  -3   1   21.70    5.30
  -8   3  -1   -0.20    4.80
   8  -3   1    0.80    4.00
   8  -3   1    3.60    4.00
   8  -3   1    0.30    5.30
  -9   3  -1   -1.90    5.20
   9  -3   1   -0.60    3.20
   9  -3   1    7.10    4.90
   9  -3   1    1.30    3.70
   9  -3   1    7.30    3.80
   9   2  -1  134.09   14.40
   9   2  -1  104.99    8.80
   9   2  -1  124.19    9.50
   9   2  -1  125.19   10.90
   9   2  -1  135.59    8.80
   8   2  -1  177.18   13.80
   8   2  -1  204.18   16.20
   8   2  -1  177.78   10.60
   8   2  -1  193.38    9.80
   8   2  -1  198.48   11.20
  -8  -2   1  183.58   12.60
   7   2  -1   63.19    6.20
   7   2  -1   86.69   10.80
   7   2  -1   73.59    8.40
   7   2  -1   59.39    8.20
   7   2  -1   72.79    6.90
   7   2  -1   73.89    6.10
   7   2  -1   70.69    4.70
  -7  -2   1   84.79    8.80
  -7  -2   1   72.89    8.60
   6   2  -1   66.49    6.50
   6   2  -1   35.70    6.90
   6   2  -1   48.90    5.90
   6   2  -1   55.09    4.10
   6   2  -1   50.49    8.20
   6   2  -1   50.19    6.80
   6   2  -1   57.19    6.40
   6   2  -1   42.60    5.70
  -6  -2   1   54.69    6.70
  -6  -2   1   53.69    7.50
   5   2  -1  599.84   25.10
   5   2  -1  551.14   19.60
   5   2  -1  579.54   20.70
   5   2  -1  574.54   20.60
   5   2  -1  591.94   20.70
   5   2  -1  555.24   21.80
   5   2  -1  564.84   21.80
   5   2  -1  571.44   20.90
   5   2  -1  573.44   18.50
  -5  -2   1  592.94   21.90
  -5  -2   1  576.74   22.30
  -5  -2   1  602.24   20.30
  -5  -2   1  589.74   20.90
   4   2  -1  128.69    7.60
   4   2  -1  127.19    6.00
   4   2  -1  119.89    6.80
   4   2  -1  131.19    6.70
   4   2  -1  135.19    7.40
   4   2  -1  140.89   10.40
   4   2  -1  122.59    5.10
   4   2  -1  120.89    9.50
  -4  -2   1  119.49    8.00
  -4  -2   1  123.99    8.00
  -4  -2   1  125.59    7.20
  -4  -2   1  119.99    6.40
  -4  -2   1  125.29    7.30
   3   2  -1  985.60   30.00
   3   2  -1  930.11   29.50
   3   2  -1  978.40   30.90
   3   2  -1 1014.10   37.10
   3   2  -1 1024.50   31.90
   3   2  -1  990.30   30.70
   3   2  -1  987.70   31.70
   3   2  -1 1020.60   32.20
  -3  -2   1  939.41   33.10
  -3  -2   1  959.00   30.40
  -3  -2   1  986.40   32.20
  -3  -2   1  997.60   31.70
   2   2  -1  675.83   24.00
   2   2  -1  637.54   20.20
   2   2  -1  679.33   20.60
   2   2  -1  675.83   21.90
   2   2  -1  643.34   19.90
  -2  -2   1  673.53   21.10
  -2  -2   1  657.93   21.80
  -2  -2   1  660.23   22.00
  -2  -2   1  658.63   20.30
  -2  -2   1  638.84   20.40
   1   2  -1 5728.93  167.88
  -1  -2   1 5637.34  164.88
  -1   2  -1  969.00   30.00
  -1   2  -1  978.30   29.80
  -1   2  -1 1019.50   29.60
  -1   2  -1 1010.90   30.10
  -1   2  -1  965.90   29.10
   1  -2   1  975.40   29.90
   1  -2   1  985.40   29.60
   1  -2   1  963.90   29.80
   1  -2   1  933.51   29.10
   1  -2   1  980.50   30.10
  -2   2  -1    5.10    2.30
  -2   2  -1    5.00    1.80
  -2   2  -1    6.10    2.40
  -2   2  -1    4.20    1.80
  -2   2  -1    5.60    1.70
   2  -2   1    3.00    1.60
   2  -2   1    3.90    1.70
   2  -2   1    4.40    2.30
   2  -2   1    4.30    1.90
   2  -2   1    2.90    1.70
  -3   2  -1  132.69    6.40
  -3   2  -1  129.49    7.00
  -3   2  -1  140.39    6.90
  -3   2  -1  132.49    6.50
  -3   2  -1  139.29    7.30
   3  -2   1  126.99    6.70
   3  -2   1  127.19    6.20
   3  -2   1  131.69    7.20
   3  -2   1  124.39    6.30
  -4   2  -1 1541.25   45.80
  -4   2  -1 1526.45   46.50
  -4   2  -1 1452.95   45.60
  -4   2  -1 1485.25   45.60
   4  -2   1 1482.85   46.00
   4  -2   1 1501.75   46.30
   4  -2   1 1482.75   45.40
   4  -2   1 1393.36   45.00
   4  -2   1 1477.25   46.40
   4  -2   1 1441.06   45.60
   4  -2   1 1413.36   43.80
  -5   2  -1  101.29    7.10
  -5   2  -1  105.49    6.80
  -5   2  -1  100.69    7.10
  -5   2  -1   97.79    7.20
  -5   2  -1   87.69    7.40
   5  -2   1   97.99    7.10
   5  -2   1   97.99    6.70
   5  -2   1  108.19    7.00
   5  -2   1  101.09    5.40
   5  -2   1  103.99    7.10
   5  -2   1   96.89    7.50
   5  -2   1  102.09    6.80
   5  -2   1   88.09    7.20
  -6   2  -1  863.81   30.10
  -6   2  -1  902.01   30.80
  -6   2  -1  887.11   29.90
   6  -2   1  837.82   32.00
   6  -2   1  859.71   29.60
   6  -2   1  847.32   29.30
   6  -2   1  909.01   31.20
   6  -2   1  872.81   29.70
   6  -2   1  873.91   28.40
   6  -2   1  878.81   30.20
   6  -2   1  891.81   30.20
  -7   2  -1   74.29    9.70
   7  -2   1   68.49    8.20
   7  -2   1   54.99    7.40
   7  -2   1   81.59    7.80
   7  -2   1   79.39    6.00
   7  -2   1   75.09    6.40
   7  -2   1   67.39    7.60
   7  -2   1   78.69    8.50
  -8   2  -1  713.53   27.00
   8  -2   1  660.33   25.60
   8  -2   1  697.83   26.00
   8  -2   1  721.43   29.20
   8  -2   1  718.93   25.10
  -9   2  -1   84.39    9.80
   9  -2   1   96.49    8.20
   9  -2   1   93.89    7.20
   9  -2   1   75.09    7.60
   9  -2   1   70.49    9.80
   9  -2   1  105.29    9.40
   9   1  -1  171.58    9.70
   9   1  -1  176.38   10.60
   9   1  -1  152.78    8.70
   9   1  -1  168.58   11.40
   9   1  -1  186.08   14.90
   8   1  -1  193.88   11.00
   8   1  -1  176.68    9.00
   8   1  -1  179.68   11.00
   8   1  -1  174.28   12.70
   8   1  -1  178.38    9.90
   8   1  -1  180.18   14.50
   8   1  -1  180.78   11.10
   7   1  -1  676.53   24.90
   7   1  -1  672.73   26.90
   7   1  -1  697.93   25.40
   7   1  -1  692.53   23.30
   7   1  -1  705.43   23.90
   7   1  -1  688.53   25.70
   7   1  -1  694.13   29.40
   6   1  -1 2579.24   82.69
   6   1  -1 2752.82   83.29
   6   1  -1 2694.83   81.59
   6   1  -1 2797.02   84.79
   6   1  -1 2682.23   82.69
   6   1  -1 2673.53   84.29
   6   1  -1 2739.93   83.19
   6   1  -1 2726.43   83.39
   6   1  -1 2777.92   87.19
  -6  -1   1 2716.13   83.69
  -6  -1   1 2679.73   83.99
   5   1  -1 1400.26   45.80
   5   1  -1 1470.35   45.10
   5   1  -1 1456.65   45.40
   5   1  -1 1456.25   48.60
   5   1  -1 1407.76   43.60
   5   1  -1 1420.86   46.00
   5   1  -1 1403.76   45.00
   5   1  -1 1390.86   44.60
   5   1  -1 1434.86   45.00
  -5  -1   1 1476.55   46.10
  -5  -1   1 1435.86   45.20
  -5  -1   1 1346.77   45.20
   4   1  -1 1024.20   32.10
   4   1  -1  997.20   32.00
   4   1  -1  974.80   30.90
   4   1  -1 1002.30   34.90
   4   1  -1 1035.60   32.90
   4   1  -1 1018.40   32.80
   4   1  -1  994.30   32.90
   4   1  -1 1000.20   32.40
   4   1  -1 1010.40   32.10
   4   1  -1 1000.10   31.70
  -4  -1   1  993.90   32.20
  -4  -1   1  980.40   32.50
  -4  -1   1 1001.70   31.80
   3   1  -1    2.90    1.40
   3   1  -1    4.30    2.10
   3   1  -1    4.80    2.40
   3   1  -1    2.80    2.20
   3   1  -1    4.10    2.70
   3   1  -1    2.80    2.10
   3   1  -1    4.20    2.80
   3   1  -1    5.50    1.70
   3   1  -1    5.80    2.40
  -3  -1   1    5.90    2.90
  -3  -1   1    6.00    2.30
  -3  -1   1    4.90    2.30
  -3  -1   1    1.50    2.20
  -3  -1   1    3.80    2.00
   2   1  -1  980.80   29.70
   2   1  -1  970.70   29.80
   2   1  -1  980.30   29.30
   2   1  -1  941.91   29.10
   2   1  -1  975.80   30.40
   2   1  -1  970.50   30.20
   2   1  -1  994.90   30.50
  -2  -1   1  970.80   30.30
  -2  -1   1  959.60   29.20
  -2  -1   1  979.20   29.90
  -2  -1   1  959.00   30.30
  -2  -1   1 1004.80   29.60
  -2  -1   1  964.50   30.20
   1   1  -1 4193.38  121.79
   1   1  -1 4051.49  121.79
  -1  -1   1 4203.48  121.79
   0   1  -1  378.06   11.30
   0   1  -1  308.87   11.10
   0   1  -1  354.46   10.60
   0   1  -1  339.67   11.50
   0  -1   1  345.07   11.90
   0  -1   1  361.06   12.70
   1  -1   1 3838.52  113.29
   1  -1   1 3868.41  113.29
  -3   1  -1  636.14   21.10
  -3   1  -1  628.64   21.20
  -3   1  -1  636.64   21.00
  -3   1  -1  661.93   20.90
  -3   1  -1  648.84   21.30
   3  -1   1  614.34   20.50
   3  -1   1  626.64   20.90
   3  -1   1  647.24   21.20
   3  -1   1  641.34   21.40
   3  -1   1  660.43   20.80
   3  -1   1  662.53   21.40
   3  -1   1  633.84   21.00
   3  -1   1  662.43   22.00
  -4   1  -1 6541.35  192.58
  -4   1  -1 6458.45  191.88
  -4   1  -1 6537.65  192.08
   4  -1   1 6571.44  192.18
   4  -1   1 6650.53  192.08
   4  -1   1 6618.14  192.18
   4  -1   1 6572.14  192.68
   4  -1   1 6309.27  191.88
   4  -1   1 6578.94  191.98
  -5   1  -1    8.30    2.90
  -5   1  -1    7.90    3.30
  -5   1  -1    7.70    3.10
   5  -1   1    3.40    2.80
   5  -1   1    3.30    3.20
   5  -1   1    2.00    3.20
   5  -1   1   -1.10    2.70
   5  -1   1    3.70    3.40
   5  -1   1    5.80    3.00
   5  -1   1    1.90    2.70
   5  -1   1    7.60    3.30
  -6   1  -1  184.98   10.20
  -6   1  -1  197.18   10.10
  -6   1  -1  178.78    9.90
   6  -1   1  180.38    9.80
   6  -1   1  188.98   11.40
   6  -1   1  196.98   10.20
   6  -1   1  183.28    9.90
   6  -1   1  183.18    8.50
   6  -1   1  151.88   10.30
   6  -1   1  180.78   10.00
   6  -1   1  166.18   11.30
   6  -1   1  178.88    9.50
  -7   1  -1   82.39    7.90
  -7   1  -1   84.99    9.00
   7  -1   1   73.89    7.90
   7  -1   1   86.59    7.60
   7  -1   1   73.49    7.60
   7  -1   1   73.49    7.80
   7  -1   1   86.29    8.50
   7  -1   1   84.69    7.60
   7  -1   1   55.29    9.00
  -8   1  -1  607.44   24.00
   8  -1   1  598.24   23.60
   8  -1   1  589.74   29.30
   8  -1   1  597.64   21.50
   8  -1   1  612.94   23.70
   8  -1   1  628.14   24.60
   8  -1   1  600.64   22.70
   9  -1   1    7.40    3.00
   9  -1   1   11.20    5.30
   9  -1   1    3.90    4.00
   9  -1   1    2.50    3.50
   9  -1   1    7.10    5.20
   9   0  -1   -3.90    4.60
   9   0  -1   -1.10    3.10
   9   0  -1    0.50    3.60
   9   0  -1   -1.40    2.80
   9   0  -1    0.00    4.70
   8   0  -1  187.88   10.00
   8   0  -1  186.48   10.20
   8   0  -1  184.18   13.70
   8   0  -1  191.48   11.20
   8   0  -1  204.78   11.50
   8   0  -1  219.68   13.80
   7   0  -1    5.10    3.20
   7   0  -1    0.40    3.20
   7   0  -1    2.30    2.90
   7   0  -1    5.40    4.50
   7   0  -1    3.00    3.40
   7   0  -1   -0.60    4.20
   7   0  -1    4.60    3.60
   6   0  -1 2138.69   65.79
   6   0  -1 2118.79   67.79
   6   0  -1 2148.58   66.49
   6   0  -1 2176.78   69.19
   6   0  -1 2154.58   65.39
   6   0  -1 2139.29   66.89
   6   0  -1 2084.79   65.99
   6   0  -1 2155.18   66.19
   6   0  -1 2103.89   66.39
   6   0  -1 2138.99   65.09
   6   0  -1 2152.38   66.49
   6   0  -1 2081.69   67.29
   5   0  -1    4.10    3.90
   5   0  -1    2.40    2.60
   5   0  -1    3.90    3.40
   5   0  -1    4.90    2.50
   5   0  -1    7.20    3.10
   5   0  -1    3.10    2.60
   5   0  -1    4.90    3.20
   5   0  -1    4.00    3.00
   5   0  -1    5.00    2.70
   5   0  -1    5.30    2.70
   5   0  -1    8.00    2.80
  -5   0   1    2.70    2.70
   4   0  -1  562.44   18.90
   4   0  -1  535.25   17.90
   4   0  -1  544.95   18.90
   4   0  -1  518.85   18.50
   4   0  -1  533.75   19.10
   4   0  -1  549.15   19.20
   4   0  -1  524.35   18.50
   4   0  -1  531.55   18.20
   4   0  -1  557.64   19.40
   4   0  -1  555.04   19.50
   4   0  -1  527.65   18.70
  -4   0   1  556.64   18.90
  -4   0   1  559.14   18.90
  -4   0   1  563.94   19.80
   3   0  -1 1218.78   36.50
   3   0  -1 1195.58   37.00
   3   0  -1 1195.58   36.80
   3   0  -1 1214.58   36.70
   3   0  -1 1159.08   35.90
   3   0  -1 1204.68   37.20
   3   0  -1 1165.78   37.00
   3   0  -1 1182.48   36.60
   3   0  -1 1202.08   36.70
   3   0  -1 1180.68   37.10
  -3   0   1 1216.58   36.90
  -3   0   1 1184.58   36.70
  -3   0   1 1152.08   36.70
  -3   0   1 1192.88   37.40
   2   0  -1 2692.33   81.19
   2   0  -1 2743.93   81.69
   2   0  -1 2864.21   82.09
   2   0  -1 2829.22   81.79
   2   0  -1 2859.21   81.99
   2   0  -1 2715.33   81.69
  -2   0   1 2689.53   81.69
  -2   0   1 2787.92   81.79
  -2   0   1 2809.42   81.89
   1   0  -1  794.72   23.80
   1   0  -1  839.12   24.40
   1   0  -1  826.22   24.10
   1   0  -1  806.72   24.40
   1   0  -1  850.21   24.40
  -1   0   1  791.32   24.60
  -1   0   1  766.82   24.40
  -1   0  -1  279.67    9.60
  -1   0  -1  282.67    9.00
  -1   0  -1  270.97    9.50
  -1   0  -1  253.77    9.10
   1   0   1  288.87    9.40
   1   0   1  280.67    9.10
   1   0   1  272.07    9.40
   1   0   1  288.17    9.30
   1   0   1  269.17    9.30
  -2   0  -1   33.60    3.20
  -2   0  -1   36.50    3.50
  -2   0  -1   31.50    4.30
  -2   0  -1   32.00    3.50
  -2   0  -1   34.30    3.10
  -2   0  -1   40.30    4.30
   2   0   1   34.50    2.80
   2   0   1   42.30    4.50
   2   0   1   33.70    3.40
   2   0   1   34.10    4.20
   2   0   1   33.70    2.00
   2   0   1   36.80    3.70
   2   0   1   33.70    3.60
  -3   0  -1 1108.39   34.80
  -3   0  -1 1115.49   34.40
  -3   0  -1 1147.89   34.90
  -3   0  -1 1140.59   34.70
  -3   0  -1 1099.29   35.70
  -3   0  -1 1100.09   35.40
   3   0   1 1125.79   35.00
   3   0   1 1134.59   34.90
   3   0   1 1109.59   34.10
   3   0   1 1118.19   35.90
   3   0   1 1114.19   34.60
   3   0   1 1119.39   35.10
   3   0   1 1149.69   35.10
   3   0   1 1088.79   33.50
   3   0   1 1078.49   35.50
  -4   0  -1 3337.57   97.69
  -4   0  -1 3337.87   97.99
  -4   0  -1 3249.97   98.09
  -4   0  -1 3314.17   98.89
   4   0   1 3288.67   97.99
   4   0   1 3333.27   97.89
   4   0   1 3344.87   98.39
   4   0   1 3201.58   98.49
   4   0   1 3187.78   96.59
   4   0   1 3234.58   99.39
   4   0   1 3276.47   99.69
   4   0   1 3251.07   97.29
   4   0   1 3245.68   99.09
   4   0   1 3304.47   98.09
  -5   0  -1  900.91   30.20
  -5   0  -1  916.81   29.80
  -5   0  -1  943.21   30.40
  -5   0  -1  896.71   30.00
   5   0   1  886.01   30.80
   5   0   1  903.01   38.10
   5   0   1  925.31   32.30
   5   0   1  921.21   30.50
   5   0   1  878.51   28.50
   5   0   1  910.41   30.40
   5   0   1  870.91   29.90
   5   0   1  890.21   32.00
   5   0   1  935.21   29.50
  -6   0  -1   -1.00    3.30
  -6   0  -1   10.30    3.80
  -6   0  -1    3.70    3.20
   6   0   1    4.40    3.00
   6   0   1    3.70    3.70
   6   0   1    4.40    3.00
   6   0   1    5.60    4.30
   6   0   1    4.90    2.60
   6   0   1    6.50    4.00
   6   0   1    1.60    3.80
   6   0   1    5.10    2.20
   6   0   1    1.70    3.90
  -7   0  -1   80.99    9.30
  -7   0  -1   90.19    8.00
   7   0   1   87.19    7.90
   7   0   1   81.59    8.50
   7   0   1   79.19    8.80
   7   0   1   91.79    6.60
   7   0   1   89.19    7.10
   7   0   1   88.69    8.90
   7   0   1   82.09    8.40
   7   0   1   91.39    8.40
  -8   0  -1  771.42   28.20
   8   0   1  759.62   28.70
   8   0   1  738.13   25.50
   8   0   1  735.83   27.50
   8   0   1  727.03   29.40
   8   0   1  817.82   30.70
   8   0   1  758.32   26.30
   9   0   1  152.58    8.40
   9   0   1  150.28   11.00
   9   0   1  143.59   10.10
   9   0   1  147.99    8.80
   9   0   1  153.78   11.90
   9  -1  -1   31.50    6.50
   9  -1  -1   26.90    5.00
   9  -1  -1   29.80    5.40
   9  -1  -1   29.50    5.70
   8  -1  -1   83.49    7.50
   8  -1  -1   81.99   10.60
   8  -1  -1   82.99    7.70
   8  -1  -1   89.39    9.20
   8  -1  -1  107.39    8.10
   8  -1  -1   89.49    8.10
   8  -1  -1   93.19    9.40
   7  -1  -1   -2.20    2.80
   7  -1  -1    4.30    4.00
   7  -1  -1   -3.10    3.80
   7  -1  -1   -4.50    2.90
   7  -1  -1    4.30    3.00
   7  -1  -1   -3.50    3.20
   7  -1  -1    2.60    3.50
   6  -1  -1  932.91   33.10
   6  -1  -1  969.80   31.90
   6  -1  -1  994.30   34.40
   6  -1  -1  967.20   31.70
   6  -1  -1 1030.90   33.00
   6  -1  -1  968.80   32.60
   6  -1  -1  949.71   32.50
   6  -1  -1  990.70   34.10
   6  -1  -1  985.60   33.00
   6  -1  -1  994.90   33.50
   6  -1  -1  982.80   34.30
   6  -1  -1  959.10   33.40
  -6   1   1  988.70   34.20
  -6   1   1 1000.40   33.20
   5  -1  -1  135.79    7.30
   5  -1  -1  130.19    7.70
   5  -1  -1  133.59    7.60
   5  -1  -1  132.19    7.70
   5  -1  -1  124.79    7.00
   5  -1  -1  123.59    7.80
   5  -1  -1  129.99    8.50
   5  -1  -1  123.79    7.40
   5  -1  -1  133.29    8.30
   5  -1  -1  132.89    7.80
   5  -1  -1  133.09    8.40
  -5   1   1  139.69    8.20
  -5   1   1  138.59    8.70
   4  -1  -1   81.39    5.40
   4  -1  -1   78.79    5.70
   4  -1  -1   81.49    5.90
   4  -1  -1   83.89    5.00
   4  -1  -1   84.99    6.20
   4  -1  -1   83.69    6.00
   4  -1  -1   89.89    5.70
   4  -1  -1   80.39    5.70
   4  -1  -1   87.49    5.30
  -4   1   1   85.89    5.80
  -4   1   1   90.69    6.50
  -4   1   1   77.79    5.50
   3  -1  -1 2231.48   67.69
   3  -1  -1 2282.07   66.99
   3  -1  -1 2303.37   67.49
   3  -1  -1 2332.67   67.89
   3  -1  -1 2291.07   67.39
   3  -1  -1 2189.58   67.19
   3  -1  -1 2321.17   67.79
   3  -1  -1 2289.57   67.69
   3  -1  -1 2220.18   67.09
   3  -1  -1 2183.28   66.39
  -3   1   1 2220.88   67.19
  -3   1   1 2301.27   67.49
  -3   1   1 2120.29   66.89
   2  -1  -1  514.75   16.10
   2  -1  -1  524.95   16.40
   2  -1  -1  477.15   15.30
   2  -1  -1  505.95   16.70
   2  -1  -1  504.25   16.20
  -2   1   1  508.75   16.20
  -2   1   1  497.75   16.10
  -2   1   1  535.25   16.70
  -2   1   1  509.75   16.40
   1  -1  -1 3515.05  104.09
   1  -1  -1 3552.04  104.29
  -1   1   1 3541.05  104.19
   0  -1  -1  181.18    6.30
   0  -1  -1  178.88    6.60
   0  -1  -1  180.78    7.10
   0   1   1  184.78    7.00
   0   1   1  178.28    6.60
   0   1   1  178.78    6.30
  -2  -1  -1    2.00    1.20
  -2  -1  -1    3.10    2.30
  -2  -1  -1    5.70    2.30
  -2  -1  -1    0.50    2.70
  -2  -1  -1    3.20    1.70
   2   1   1    0.60    1.40
   2   1   1    3.90    1.90
   2   1   1    5.30    2.70
   2   1   1    3.70    1.20
   2   1   1    1.00    2.00
  -3  -1  -1 3092.99   90.49
  -3  -1  -1 3020.70   90.39
  -3  -1  -1 3006.90   89.59
  -3  -1  -1 3028.60   92.69
   3   1   1 3022.50   90.29
   3   1   1 3006.30   89.59
   3   1   1 3059.49   92.59
   3   1   1 3107.69   89.99
   3   1   1 3073.59   91.89
   3   1   1 3020.30   90.99
   3   1   1 3041.90   90.39
  -4  -1  -1 2308.17   69.59
  -4  -1  -1 2247.48   67.99
  -4  -1  -1 2233.78   68.39
  -4  -1  -1 2371.56   71.99
  -4  -1  -1 2184.38   70.39
   4   1   1 2226.18   68.79
   4   1   1 2153.88   68.59
   4   1   1 2266.67   68.89
   4   1   1 2214.88   67.89
   4   1   1 2287.57   67.49
   4   1   1 2181.48   66.79
   4   1   1 2281.67   73.09
   4   1   1 2179.78   67.69
   4   1   1 2242.58   69.69
  -5  -1  -1 1367.16   43.40
  -5  -1  -1 1367.26   43.20
  -5  -1  -1 1403.46   45.00
  -5  -1  -1 1374.86   44.00
   5   1   1 1439.66   44.60
   5   1   1 1356.46   44.30
   5   1   1 1352.46   43.50
   5   1   1 1331.97   45.20
   5   1   1 1351.76   44.30
   5   1   1 1325.47   43.20
   5   1   1 1332.27   41.80
   5   1   1 1357.56   44.40
   5   1   1 1353.46   45.90
  -6  -1  -1   12.50    3.70
  -6  -1  -1   12.90    4.60
  -6  -1  -1    8.90    4.80
  -6  -1  -1    8.00    4.00
   6   1   1   11.60    2.60
   6   1   1    3.20    2.80
   6   1   1   16.50    4.40
   6   1   1    8.50    4.90
   6   1   1   14.90    3.40
   6   1   1   10.20    3.60
   6   1   1   12.20    4.50
   6   1   1   10.30    5.10
   6   1   1   11.70    2.80
  -7  -1  -1   12.90    4.20
   7   1   1   17.10    4.20
   7   1   1   20.50    3.20
   7   1   1   16.50    5.80
   7   1   1   24.30    5.70
   7   1   1   11.80    4.20
  -8  -1  -1  104.19    8.90
   8   1   1   94.49    8.60
   8   1   1   94.29    6.40
   8   1   1  111.29   10.20
   8   1   1  101.29    8.40
   8   1   1   87.19    9.60
   8   1   1  100.09    6.30
   8   1   1   89.39   10.70
   9   1   1  374.96   18.20
   9   1   1  344.47   19.50
   9   1   1  344.47   14.00
   9   1   1  350.66   16.30
   9   1   1  356.06   13.90
   9  -2  -1  578.24   24.10
   9  -2  -1  586.04   23.60
   9  -2  -1  590.64   22.60
   9  -2  -1  604.34   23.40
   9  -2  -1  560.44   21.30
   8  -2  -1  334.67   15.10
   8  -2  -1  327.27   15.00
   8  -2  -1  307.17   13.30
   8  -2  -1  332.57   15.80
   8  -2  -1  323.37   17.10
   7  -2  -1   34.90    5.20
   7  -2  -1   32.10    4.30
   7  -2  -1   38.10    5.20
   7  -2  -1   32.10    4.80
   7  -2  -1   34.10    5.90
   7  -2  -1   32.30    6.30
  -7   2   1   37.40    7.00
   6  -2  -1  293.97   12.80
   6  -2  -1  303.27   14.20
   6  -2  -1  279.07   13.70
   6  -2  -1  287.37   12.80
   6  -2  -1  285.97   13.30
   6  -2  -1  295.87   14.40
   6  -2  -1  284.67   13.20
  -6   2   1  304.17   14.40
  -6   2   1  296.77   13.50
   5  -2  -1  155.78    8.80
   5  -2  -1  151.38    8.60
   5  -2  -1  150.58    8.80
   5  -2  -1  142.49   10.40
   5  -2  -1  147.89    7.90
   5  -2  -1  144.19    6.80
   5  -2  -1  147.49    9.00
   5  -2  -1  139.29    8.20
   5  -2  -1  160.78    8.20
  -5   2   1  153.78    9.10
  -5   2   1  152.48    8.60
   4  -2  -1  780.42   25.40
   4  -2  -1  811.22   26.90
   4  -2  -1  804.82   25.90
   4  -2  -1  772.42   26.40
   4  -2  -1  812.72   26.00
   4  -2  -1  800.32   24.40
   4  -2  -1  815.32   26.30
   4  -2  -1  791.32   26.50
  -4   2   1  767.32   26.10
  -4   2   1  801.92   26.60
  -4   2   1  757.92   25.80
   3  -2  -1  814.22   26.50
   3  -2  -1  803.22   24.20
   3  -2  -1  796.92   25.00
   3  -2  -1  845.42   27.80
   3  -2  -1  800.72   25.10
   3  -2  -1  798.72   25.50
   3  -2  -1  805.72   25.80
   3  -2  -1  811.62   25.80
  -3   2   1  856.71   26.20
  -3   2   1  789.82   25.70
  -3   2   1  770.92   25.10
  -3   2   1  807.52   25.80
  -3   2   1  777.62   24.50
   2  -2  -1 4202.48  122.49
   2  -2  -1 4238.78  123.09
  -2   2   1 4060.69  121.69
  -2   2   1 4175.68  122.49
   1  -2  -1 2980.80   85.99
   1  -2  -1 2904.31   86.19
  -1   2   1 2750.02   84.69
  -1   2   1 2913.51   85.29
  -1   2   1 2894.61   85.89
  -1   2   1 3036.90   85.89
   0  -2  -1  793.72   24.70
   0  -2  -1  776.02   25.70
   0  -2  -1  801.72   24.80
   0  -2  -1  800.62   24.30
   0   2   1  796.42   25.50
   0   2   1  778.92   24.70
  -1  -2  -1  886.31   27.40
  -1  -2  -1  856.21   26.60
  -1  -2  -1  845.82   25.50
  -1  -2  -1  832.32   28.50
   1   2   1  859.51   25.90
   1   2   1  873.41   26.50
   1   2   1  836.92   26.60
   1   2   1  859.31   28.40
   1   2   1  830.32   25.70
  -2  -2  -1  398.36   14.70
  -2  -2  -1  389.56   13.40
  -2  -2  -1  393.56   13.10
  -2  -2  -1  378.46   16.00
   2   2   1  393.56   13.30
   2   2   1  382.26   15.80
   2   2   1  382.16   14.60
   2   2   1  384.56   13.10
   2   2   1  387.16   11.60
  -3  -2  -1 1542.25   47.20
  -3  -2  -1 1582.74   47.00
  -3  -2  -1 1556.04   48.80
  -3  -2  -1 1572.74   48.10
  -3  -2  -1 1474.55   46.70
  -3  -2  -1 1514.65   50.29
   3   2   1 1542.25   46.70
   3   2   1 1545.35   50.19
   3   2   1 1538.75   48.70
   3   2   1 1522.85   46.50
   3   2   1 1540.85   47.00
  -4  -2  -1  488.95   16.80
  -4  -2  -1  493.75   20.90
  -4  -2  -1  495.85   17.40
  -4  -2  -1  464.05   16.90
  -4  -2  -1  472.05   18.30
  -4  -2  -1  493.75   19.30
   4   2   1  471.05   16.70
   4   2   1  490.25   20.50
   4   2   1  492.35   19.30
   4   2   1  496.65   16.60
   4   2   1  462.55   14.80
  -5  -2  -1 1117.09   38.30
  -5  -2  -1 1137.39   35.80
  -5  -2  -1 1157.98   36.30
  -5  -2  -1 1089.19   36.90
   5   2   1 1089.79   35.70
   5   2   1 1134.59   36.20
   5   2   1 1087.39   33.10
   5   2   1 1120.59   35.00
   5   2   1 1110.79   39.70
   5   2   1 1076.89   33.20
   5   2   1 1074.49   38.00
   5   2   1 1082.59   37.30
  -6  -2  -1  432.06   18.90
  -6  -2  -1  469.95   18.10
  -6  -2  -1  462.05   20.50
  -6  -2  -1  474.55   17.70
   6   2   1  451.55   17.20
   6   2   1  446.16   19.30
   6   2   1  456.65   17.40
   6   2   1  435.56   20.00
   6   2   1  469.55   22.00
   6   2   1  456.95   14.90
   6   2   1  454.65   18.00
   6   2   1  468.05   19.60
  -7  -2  -1  860.31   30.20
  -7  -2  -1  775.32   33.00
  -7  -2  -1  890.71   31.90
   7   2   1  874.21   31.10
   7   2   1  895.51   28.80
   7   2   1  897.51   33.50
   7   2   1  845.72   32.00
   7   2   1  879.01   34.60
   7   2   1  836.22   26.80
   7   2   1  852.11   26.90
   7   2   1  908.31   30.30
  -8  -2  -1   -1.90    4.70
  -8  -2  -1    1.40    3.40
  -8  -2  -1   -0.40    3.90
   8   2   1   -0.40    2.50
   8   2   1    6.10    5.00
   8   2   1    2.00    2.00
   8   2   1    0.70    5.60
   8   2   1    1.10    1.90
  -9  -2  -1   43.60    6.60
   9   2   1   66.79   10.30
   9   2   1   45.30    3.70
   9   2   1   52.49    5.70
   9   2   1   56.29    7.50
   9   2   1   54.29    9.00
   9  -3  -1  151.48   12.30
   9  -3  -1  166.88    8.60
   9  -3  -1  171.78   11.70
   9  -3  -1  138.99    7.70
   9  -3  -1  190.58   12.00
   8  -3  -1  164.48   12.50
   8  -3  -1  173.28    8.50
   8  -3  -1  172.68    9.90
   8  -3  -1  170.48   10.20
   8  -3  -1  168.88   11.40
  -8   3   1  173.48   12.70
  -8   3   1  156.28   10.50
   7  -3  -1  573.24   19.70
   7  -3  -1  566.84   22.80
   7  -3  -1  563.34   23.60
   7  -3  -1  492.85   18.50
   7  -3  -1  531.35   20.60
   7  -3  -1  513.05   22.90
   7  -3  -1  557.04   22.10
   7  -3  -1  549.45   20.90
  -7   3   1  569.24   22.30
   6  -3  -1  331.97   12.60
   6  -3  -1  367.16   15.90
   6  -3  -1  352.16   13.40
   6  -3  -1  360.86   15.30
   6  -3  -1  363.26   16.10
   6  -3  -1  352.06   14.80
   6  -3  -1  343.17   16.00
   6  -3  -1  336.57   14.00
   6  -3  -1  323.07   15.90
   6  -3  -1  359.76   12.50
  -6   3   1  367.46   16.10
  -6   3   1  340.17   15.20
   5  -3  -1  179.48    7.60
   5  -3  -1  186.68    7.50
   5  -3  -1  197.98    9.90
   5  -3  -1  190.68   10.50
   5  -3  -1  191.78   10.40
   5  -3  -1  196.08   10.30
   5  -3  -1  198.48    9.80
  -5   3   1  194.48   10.70
  -5   3   1  181.38    9.90
  -5   3   1  192.98   10.00
   4  -3  -1   84.79    6.60
   4  -3  -1   81.09    6.10
   4  -3  -1   71.59    6.10
   4  -3  -1   86.49    4.20
   4  -3  -1   78.29    5.00
   4  -3  -1   81.89    4.30
  -4   3   1   84.09    6.30
  -4   3   1   80.89    4.90
  -4   3   1   87.19    6.30
  -4   3   1   83.19    6.10
   3  -3  -1 2590.74   76.49
   3  -3  -1 2635.04   78.49
   3  -3  -1 2647.94   77.79
   3  -3  -1 2538.95   76.29
   3  -3  -1 2509.05   75.89
  -3   3   1 2538.25   77.69
  -3   3   1 2571.64   76.19
  -3   3   1 2644.24   77.69
   2  -3  -1  444.66   16.80
   2  -3  -1  455.85   15.90
   2  -3  -1  476.25   16.60
  -2   3   1  451.15   16.10
  -2   3   1  448.06   15.40
  -2   3   1  497.35   15.50
  -2   3   1  480.15   14.70
   1  -3  -1 2040.40   62.49
   1  -3  -1 2023.60   61.79
   1  -3  -1 2051.89   62.19
   1  -3  -1 2105.29   61.99
  -1   3   1 2072.89   61.99
  -1   3   1 2031.50   61.69
   0  -3  -1    1.50    2.60
   0  -3  -1   -0.40    2.10
   0  -3  -1    0.40    2.50
   0  -3  -1    0.00    1.50
   0   3   1    0.50    2.60
   0   3   1   -2.40    2.20
  -1  -3  -1 1584.94   52.19
  -1  -3  -1 1731.33   51.09
  -1  -3  -1 1631.04   50.09
  -1  -3  -1 1661.73   50.29
  -1  -3  -1 1606.44   48.60
   1   3   1 1645.64   52.19
   1   3   1 1601.44   49.80
   1   3   1 1612.84   48.50
   1   3   1 1673.03   49.99
  -2  -3  -1  275.17   11.10
  -2  -3  -1  291.27   12.20
  -2  -3  -1  265.37   13.80
  -2  -3  -1  270.27    8.60
   2   3   1  280.07   11.00
   2   3   1  281.87   10.90
   2   3   1  270.67   13.60
   2   3   1  278.57   10.20
  -3  -3  -1   25.20    4.50
  -3  -3  -1   15.00    5.70
  -3  -3  -1   16.00    3.10
  -3  -3  -1   12.90    2.40
  -3  -3  -1   17.80    3.80
   3   3   1   14.00    2.90
   3   3   1   16.70    2.80
   3   3   1   19.90    4.90
   3   3   1   16.40    3.20
   3   3   1   12.70    2.40
  -4  -3  -1   31.80    5.20
  -4  -3  -1   31.80    4.10
  -4  -3  -1   34.00    4.70
  -4  -3  -1   33.40    4.40
  -4  -3  -1   29.50    6.10
  -4  -3  -1   29.40    5.10
   4   3   1   34.10    4.10
   4   3   1   31.90    3.90
   4   3   1   28.20    4.30
   4   3   1   29.80    4.30
   4   3   1   34.20    5.40
   4   3   1   36.40    6.10
  -5  -3  -1   68.69    5.50
  -5  -3  -1   51.59    8.20
  -5  -3  -1   63.29    6.00
  -5  -3  -1   69.19    6.30
  -5  -3  -1   64.89    8.10
   5   3   1   71.79    5.70
   5   3   1   66.89    5.80
   5   3   1   68.19    7.30
   5   3   1   68.29    9.40
   5   3   1   67.49    6.30
  -6  -3  -1  234.58   11.00
  -6  -3  -1  228.08   11.70
  -6  -3  -1  237.28   11.00
  -6  -3  -1  226.08   13.60
  -6  -3  -1  246.08   14.70
   6   3   1  220.78   10.70
   6   3   1  218.18   14.00
   6   3   1  242.58   10.80
   6   3   1  231.88   15.60
  -7  -3  -1  398.06   16.40
  -7  -3  -1  352.76   18.50
  -7  -3  -1  398.56   18.80
  -7  -3  -1  393.06   20.00
   7   3   1  398.36   15.60
   7   3   1  378.96   16.50
   7   3   1  398.36   19.10
   7   3   1  430.96   22.70
  -8  -3  -1   19.80    5.10
  -8  -3  -1   23.10    6.10
  -8  -3  -1   25.90    4.60
  -8  -3  -1   18.40    6.20
   8   3   1   15.30    7.50
   8   3   1   27.50    7.40
   8   3   1   22.70    3.60
   9  -4  -1  142.19   11.90
   9  -4  -1  144.39   11.70
   9  -4  -1  144.69    7.90
  -9   4   1  156.68   12.80
   8  -4  -1  454.55   16.30
   8  -4  -1  469.15   19.10
   8  -4  -1  505.35   21.40
   8  -4  -1  495.55   20.10
  -8   4   1  473.55   20.80
  -8   4   1  450.55   21.50
   7  -4  -1  622.64   26.00
   7  -4  -1  624.04   28.40
   7  -4  -1  614.34   29.50
   7  -4  -1  687.23   26.20
   7  -4  -1  669.83   25.30
   7  -4  -1  664.43   23.70
  -7   4   1  742.53   29.60
  -7   4   1  648.94   25.20
   6  -4  -1  648.24   23.40
   6  -4  -1  568.84   20.10
   6  -4  -1  587.34   23.00
   6  -4  -1  628.44   21.80
   6  -4  -1  666.03   24.60
   6  -4  -1  575.94   23.70
  -6   4   1  638.04   23.50
  -6   4   1  619.24   23.20
  -6   4   1  648.14   24.30
   5  -4  -1   75.99    5.60
   5  -4  -1   65.39    6.70
   5  -4  -1   71.49    5.10
   5  -4  -1   68.79    7.00
   5  -4  -1   77.79    7.70
   5  -4  -1   77.09    6.50
  -5   4   1   67.99    7.10
  -5   4   1   62.29    7.00
  -5   4   1   66.19    6.90
  -5   4   1   65.89    5.40
   4  -4  -1  290.57   10.40
   4  -4  -1  270.67   10.50
   4  -4  -1  280.77   11.80
   4  -4  -1  274.67   12.50
   4  -4  -1  297.87   12.70
   4  -4  -1  298.07   12.90
  -4   4   1  294.17   12.50
  -4   4   1  285.77   12.10
  -4   4   1  273.37   12.30
  -4   4   1  293.27   10.70
   3  -4  -1 2095.39   64.59
   3  -4  -1 2029.60   62.29
   3  -4  -1 2053.89   63.59
   3  -4  -1 2106.89   65.29
  -3   4   1 2136.29   62.69
  -3   4   1 2192.48   63.99
  -3   4   1 2145.59   66.49
   2  -4  -1  963.60   31.80
   2  -4  -1  988.60   31.50
   2  -4  -1  956.40   31.50
   2  -4  -1  982.80   31.70
  -2   4   1  990.00   30.50
  -2   4   1  948.61   29.70
  -2   4   1  951.00   31.20
   1  -4  -1 4851.11  146.99
   1  -4  -1 4873.91  145.89
   1  -4  -1 5072.49  145.99
   1  -4  -1 4916.91  146.29
  -1   4   1 5017.30  146.29
  -1   4   1 4868.61  145.69
   0  -4  -1  650.33   24.00
   0  -4  -1  662.33   22.20
   0  -4  -1  646.34   21.20
   0  -4  -1  660.43   22.50
   0   4   1  637.54   23.90
   0   4   1  642.44   21.80
  -1  -4  -1   53.49    5.70
  -1  -4  -1   56.49    5.60
  -1  -4  -1   56.29    3.60
  -1  -4  -1   48.90    6.70
   1   4   1   62.49    5.20
   1   4   1   50.99    3.20
   1   4   1   58.39    5.20
   1   4   1   55.99    7.00
  -2  -4  -1  770.92   26.20
  -2  -4  -1  777.82   27.00
  -2  -4  -1  758.02   23.00
   2   4   1  778.42   24.20
   2   4   1  730.33   25.20
   2   4   1  782.32   25.70
   2   4   1  751.32   28.70
  -3  -4  -1    8.10    3.50
  -3  -4  -1    6.50    4.40
  -3  -4  -1    7.50    2.60
  -3  -4  -1    3.20    2.00
  -3  -4  -1    2.70    2.80
   3   4   1    5.40    4.20
   3   4   1    6.30    3.20
   3   4   1    8.60    2.50
   3   4   1    6.00    2.60
  -4  -4  -1  274.67   13.90
  -4  -4  -1  247.68   15.70
  -4  -4  -1  260.67   12.20
  -4  -4  -1  267.47   11.60
  -4  -4  -1  269.87   10.70
  -4  -4  -1  283.27   13.60
   4   4   1  273.27   16.00
   4   4   1  261.97   10.70
   4   4   1  254.27   11.30
   4   4   1  270.57   11.50
   4   4   1  260.07   11.70
  -5  -4  -1  587.84   23.60
  -5  -4  -1  567.84   20.10
  -5  -4  -1  573.84   20.90
  -5  -4  -1  596.84   24.10
  -5  -4  -1  575.34   22.90
   5   4   1  560.54   20.80
   5   4   1  544.55   20.10
   5   4   1  566.74   21.30
   5   4   1  570.44   26.30
   5   4   1  597.64   21.00
  -6  -4  -1  108.49    8.20
  -6  -4  -1  100.79   10.20
  -6  -4  -1  106.59    7.40
  -6  -4  -1  115.19   11.20
  -6  -4  -1  107.59    8.10
   6   4   1  102.89    8.60
   6   4   1  103.39    7.60
   6   4   1  104.99   12.30
   6   4   1  101.89    7.50
  -7  -4  -1  174.98   12.90
  -7  -4  -1  192.88   10.90
  -7  -4  -1  163.18   13.10
  -7  -4  -1  176.08    9.70
   7   4   1  177.08    9.70
   7   4   1  183.68   14.50
   7   4   1  191.38   15.60
   7   4   1  168.28   10.80
  -8  -4  -1  518.45   20.90
  -8  -4  -1  494.15   23.80
   8   4   1  496.75   23.50
   8   4   1  530.95   27.30
   8   4   1  496.55   19.20
   8   4   1  460.85   20.40
   8  -5  -1   44.90    5.80
   8  -5  -1   63.89    8.80
   8  -5  -1   48.10    7.50
   8  -5  -1   53.69    7.70
  -8   5   1   49.00    6.70
  -8   5   1   47.30    8.00
   7  -5  -1  769.52   28.40
   7  -5  -1  716.43   26.00
   7  -5  -1  811.52   29.80
  -7   5   1  755.32   28.90
  -7   5   1  733.73   28.20
   6  -5  -1  918.51   33.00
   6  -5  -1  862.71   29.30
  -6   5   1  916.01   32.20
  -6   5   1  880.31   28.90
   5  -5  -1 2715.93   81.59
   5  -5  -1 2451.05   84.59
   5  -5  -1 2750.42   84.59
   5  -5  -1 2821.52   85.39
   5  -5  -1 2844.82   84.59
   5  -5  -1 2772.72   83.69
  -5   5   1 2719.83   84.29
  -5   5   1 2749.12   84.19
  -5   5   1 2754.02   83.79
   4  -5  -1   41.90    5.20
   4  -5  -1   52.79    7.10
   4  -5  -1   49.10    4.30
   4  -5  -1   45.70    6.80
   4  -5  -1   53.99    5.40
   4  -5  -1   47.10    6.50
   4  -5  -1   41.10    3.70
  -4   5   1   48.00    6.10
  -4   5   1   50.19    5.50
  -4   5   1   46.40    6.20
   3  -5  -1  190.38   10.30
   3  -5  -1  184.78    9.90
   3  -5  -1  191.98    9.10
   3  -5  -1  182.68   10.30
  -3   5   1  184.88    8.90
  -3   5   1  198.48    8.60
  -3   5   1  202.38    8.40
  -3   5   1  177.08    9.80
   2  -5  -1  116.59    8.10
   2  -5  -1  114.09    7.50
   2  -5  -1  120.19    7.60
   2  -5  -1  112.69    7.50
  -2   5   1  118.49    7.60
  -2   5   1  117.99    6.60
  -2   5   1  121.19    7.00
   1  -5  -1  100.59    6.90
   1  -5  -1  103.39    8.00
   1  -5  -1   97.59    7.50
   1  -5  -1  103.29    6.60
  -1   5   1  121.79   12.50
  -1   5   1   98.19    6.70
  -1   5   1   97.39    7.00
   0  -5  -1 3035.80   92.79
   0  -5  -1 2979.70   94.69
   0  -5  -1 3097.99   91.49
   0  -5  -1 3074.39   92.09
   0   5   1 3143.29   94.19
   0   5   1 2962.10   91.79
  -1  -5  -1  138.69   10.60
  -1  -5  -1  142.39    6.70
  -1  -5  -1  145.09    8.80
  -1  -5  -1  146.99    8.50
   1   5   1  160.08    8.90
   1   5   1  134.89    8.40
   1   5   1  155.28   11.10
  -2  -5  -1  299.27   13.60
  -2  -5  -1  294.27   10.10
  -2  -5  -1  299.87   16.40
  -2  -5  -1  294.97   14.20
   2   5   1  311.67   16.30
   2   5   1  278.77   12.40
   2   5   1  311.17   12.90
  -3  -5  -1  453.55   15.90
  -3  -5  -1  436.06   22.00
  -3  -5  -1  461.05   18.40
  -3  -5  -1  461.75   16.40
  -3  -5  -1  473.25   20.40
   3   5   1  439.16   17.20
   3   5   1  447.26   16.00
   3   5   1  447.06   21.60
   3   5   1  459.35   17.80
  -4  -5  -1 1115.09   39.20
  -4  -5  -1  991.20   36.70
  -4  -5  -1 1151.38   40.70
  -4  -5  -1 1151.78   36.50
  -4  -5  -1 1126.49   38.30
   4   5   1 1195.08   39.40
   4   5   1 1161.08   42.90
   4   5   1 1190.28   37.70
   4   5   1 1123.69   36.30
   4   5   1 1099.19   37.00
  -5  -5  -1  565.04   25.30
  -5  -5  -1  561.84   21.00
  -5  -5  -1  576.74   19.90
  -5  -5  -1  641.54   27.00
  -5  -5  -1  579.84   22.30
   5   5   1  571.64   20.90
   5   5   1  558.04   21.40
   5   5   1  558.14   21.50
   5   5   1  587.24   28.00
   5   5   1  530.25   20.30
  -6  -5  -1   20.80    6.70
  -6  -5  -1   14.80    3.50
  -6  -5  -1   22.00    6.30
  -6  -5  -1    7.90    4.30
  -6  -5  -1   15.70    4.50
   6   5   1   17.20    4.90
   6   5   1   19.10    6.90
   6   5   1   20.50    3.80
   6   5   1   23.20    4.00
  -7  -5  -1   21.40    5.30
  -7  -5  -1   25.20    6.80
  -7  -5  -1   32.30    5.10
  -7  -5  -1   25.50    7.30
  -7  -5  -1   21.30    3.70
   7   5   1   30.80    4.70
   7   5   1   26.10    8.10
   7   5   1   19.80    5.00
   8  -6  -1   39.90    8.00
  -8   6   1   41.30    7.50
  -8   6   1   23.20    6.90
   7  -6  -1   93.19   10.90
   7  -6  -1   96.39   10.20
  -7   6   1   98.89    9.50
  -7   6   1   91.99    9.40
   6  -6  -1  271.57   14.40
   6  -6  -1  276.47   15.10
   6  -6  -1  276.17   14.70
  -6   6   1  270.27   11.60
  -6   6   1  286.07   14.10
  -6   6   1  262.67   15.00
   5  -6  -1   -0.30    3.50
   5  -6  -1    0.30    3.00
   5  -6  -1   -4.10    3.80
  -5   6   1    1.30    4.20
  -5   6   1   -0.10    3.90
   4  -6  -1  685.23   23.80
   4  -6  -1  691.83   25.70
   4  -6  -1  685.83   25.80
   4  -6  -1  665.93   23.00
   4  -6  -1  674.73   25.40
   4  -6  -1  687.63   25.50
  -4   6   1  706.73   24.20
  -4   6   1  677.53   23.10
   3  -6  -1   19.50    4.00
   3  -6  -1   14.00    5.00
   3  -6  -1   16.20    4.40
   3  -6  -1   18.00    4.20
   3  -6  -1   20.40    4.10
  -3   6   1   17.50    3.80
  -3   6   1   19.80    3.60
  -3   6   1   15.30    3.90
   2  -6  -1  884.21   31.90
   2  -6  -1  930.01   31.30
   2  -6  -1  910.31   31.50
   2  -6  -1  899.21   32.00
  -2   6   1  893.81   31.20
  -2   6   1  910.61   29.60
  -2   6   1  956.80   30.80
   1  -6  -1    2.70    4.10
   1  -6  -1    9.20    3.00
   1  -6  -1    6.10    3.60
   1  -6  -1    4.20    3.30
  -1   6   1    6.20    3.70
  -1   6   1    5.10    3.50
  -1   6   1    6.00    3.80
   0  -6  -1 2276.27   72.59
   0  -6  -1 2326.07   71.69
   0  -6  -1 2277.37   74.69
   0  -6  -1 2356.26   70.59
   0   6   1 2366.66   73.99
   0   6   1 2285.77   71.29
  -1  -6  -1    3.20    4.90
  -1  -6  -1   -0.30    2.10
  -1  -6  -1    6.40    3.60
  -1  -6  -1    1.10    4.10
   1   6   1   -3.50    3.90
   1   6   1   -0.90    4.20
  -2  -6  -1  235.68   14.00
  -2  -6  -1  213.78   15.50
  -2  -6  -1  230.28    8.80
  -2  -6  -1  239.38   12.70
   2   6   1  239.98   12.30
   2   6   1  249.28   15.50
   2   6   1  231.58   11.60
  -3  -6  -1   19.40    5.50
  -3  -6  -1    7.80    5.90
  -3  -6  -1   11.10    3.10
  -3  -6  -1    4.60    3.80
  -3  -6  -1    4.50    2.50
   3   6   1   10.90    3.40
   3   6   1    9.50    5.60
   3   6   1   13.30    4.20
  -4  -6  -1  227.98   10.80
  -4  -6  -1  229.98   15.20
  -4  -6  -1  224.88   13.00
   4   6   1  240.68   12.40
   4   6   1  224.38   11.90
   4   6   1  248.58   17.10
  -5  -6  -1    7.20    5.40
  -5  -6  -1   -1.70    4.40
  -5  -6  -1    8.70    5.20
  -5  -6  -1    0.60    3.50
   5   6   1   -2.40    2.90
   5   6   1   -2.30    4.60
   5   6   1    2.60    5.70
   5   6   1   -4.30    3.20
  -6  -6  -1  378.56   15.70
  -6  -6  -1  397.56   19.70
  -6  -6  -1  360.06   13.80
  -6  -6  -1  316.97   18.40
   6   6   1  356.46   19.30
   6   6   1  390.86   23.30
   6   6   1  366.46   16.40
   6   6   1  378.76   15.60
  -7  -6  -1    1.80    4.30
   7   6   1   10.20    4.50
   7   6   1   -0.80    6.30
   7   6   1    4.10    3.70
   7  -7  -1   37.50    7.30
   7  -7  -1   44.60    7.30
  -7   7   1   33.00    6.50
  -7   7   1   39.60    7.30
   6  -7  -1   27.70    6.60
   6  -7  -1   32.10    5.20
   6  -7  -1   29.50    5.70
  -6   7   1   24.70    5.70
  -6   7   1   27.70    5.40
   5  -7  -1   35.50    7.00
   5  -7  -1   26.60    6.30
   5  -7  -1   27.20    6.40
   5  -7  -1   33.60    5.00
   5  -7  -1   32.10    5.90
  -5   7   1   28.40    5.30
   4  -7  -1  592.54   21.40
   4  -7  -1  607.84   23.90
   4  -7  -1  591.24   23.70
   4  -7  -1  547.65   23.50
  -4   7   1  609.74   22.60
  -4   7   1  596.74   22.30
   3  -7  -1  464.05   16.90
   3  -7  -1  466.65   19.70
   3  -7  -1  463.95   19.10
   3  -7  -1  470.55   18.80
  -3   7   1  464.75   17.10
  -3   7   1  450.95   17.60
  -3   7   1  473.85   18.00
   2  -7  -1   20.80    4.60
   2  -7  -1   21.90    5.60
  -2   7   1    9.60    4.20
  -2   7   1   17.60    4.40
  -2   7   1   26.50    5.00
   1  -7  -1  157.38   10.90
   1  -7  -1  155.88    9.30
   1  -7  -1  154.88   11.80
  -1   7   1  162.18   11.10
  -1   7   1  156.58    9.80
  -1   7   1  153.28   10.30
   0  -7  -1 1613.94   52.49
   0  -7  -1 1597.24   55.79
   0  -7  -1 1649.23   50.89
   0   7   1 1635.74   54.59
   0   7   1 1572.54   51.89
  -1  -7  -1  336.97   13.20
  -1  -7  -1  336.17   19.20
  -1  -7  -1  344.87   16.20
   1   7   1  327.67   15.80
   1   7   1  350.76   18.60
  -2  -7  -1  921.61   29.70
  -2  -7  -1  978.40   39.70
   2   7   1  922.81   32.70
   2   7   1 1006.40   34.10
   2   7   1  933.51   41.40
  -3  -7  -1   39.90    7.30
  -3  -7  -1   46.90    5.10
   3   7   1   43.50    8.30
   3   7   1   57.49    7.80
   3   7   1   37.10    5.70
  -4  -7  -1   -1.20    2.90
  -4  -7  -1    1.80    6.10
   4   7   1   -1.20    4.00
   4   7   1   -2.50    4.50
  -5  -7  -1   88.99    7.00
  -5  -7  -1   76.09   10.10
  -5  -7  -1   90.79   11.60
  -5  -7  -1   84.59   10.80
   5   7   1   95.19    9.20
   5   7   1   90.59    8.70
   5   7   1   98.89    7.90
   5   7   1   78.39   12.60
   6   7   1   10.60    4.20
   6  -8  -1   -1.90    6.40
   6  -8  -1    5.20    4.40
  -6   8   1    3.70    5.20
  -6   8   1    3.20    4.50
   5  -8  -1   22.20    5.80
   5  -8  -1   25.30    6.30
  -5   8   1   21.90    5.10
  -5   8   1   24.00    5.50
   4  -8  -1  154.88   11.30
   4  -8  -1  155.78   11.80
   4  -8  -1  131.19   10.20
   4  -8  -1  140.39    9.00
  -4   8   1  161.68   12.30
  -4   8   1  137.69    9.40
   3  -8  -1  820.72   29.90
   3  -8  -1  763.12   26.40
   3  -8  -1  776.92   30.00
  -3   8   1  800.12   27.00
  -3   8   1  784.22   27.60
   2  -8  -1  200.98   11.70
   2  -8  -1  193.28   10.60
   2  -8  -1  197.28   12.90
  -2   8   1  185.58   10.90
  -2   8   1  202.98   12.30
   1  -8  -1    3.40    3.90
   1  -8  -1   10.80    5.40
   1  -8  -1    8.90    5.20
  -1   8   1    7.50    4.90
  -1   8   1    2.70    4.60
  -1   8   1    8.10    5.20
   0  -8  -1    4.40    5.00
   0  -8  -1    7.40    4.10
   0  -8  -1    2.00    3.30
   0  -8  -1   10.50    6.20
   0   8   1    7.30    5.30
   0   8   1    2.70    4.70
  -1  -8  -1    3.30    5.40
  -1  -8  -1    5.60    5.10
  -1  -8  -1   -3.20    2.30
  -1  -8  -1    3.10    4.00
   1   8   1    2.90    4.60
  -2  -8  -1  149.69   12.30
   2   8   1  170.48   11.10
   2   8   1  182.18   14.60
  -3  -8  -1   18.30    3.20
  -3  -8  -1   19.60    6.70
   3   8   1   15.90    5.20
   3   8   1   21.10    7.20
  -4  -8  -1   79.09    6.00
  -4  -8  -1   58.69    9.60
   4   8   1   85.39   12.80
   4   8   1   79.09    8.70
  -5  -8  -1  198.18    9.50
   5   8   1  170.08   10.50
   5   8   1  169.98   20.10
   5   8   1  200.88   12.60
   5  -9  -1   -1.30    6.60
  -5   9   1   -3.70    4.20
   4  -9  -1   -2.80    4.60
   4  -9  -1  -11.10    5.10
  -4   9   1    1.00    4.70
   3  -9  -1  329.07   16.60
   3  -9  -1  328.17   13.50
   3  -9  -1  358.96   18.30
   3  -9  -1  342.57   17.10
  -3   9   1  319.27   15.10
  -3   9   1  357.06   15.50
   2  -9  -1    3.40    5.40
   2  -9  -1    1.10    3.70
   2  -9  -1   -4.80    2.90
  -2   9   1    2.40    4.70
   1  -9  -1  427.66   20.10
   1  -9  -1  474.35   19.20
   1  -9  -1  437.26   17.60
  -1   9   1  418.26   20.40
  -1   9   1  418.46   18.60
   0  -9  -1   -4.30    2.90
   0  -9  -1   -7.70    5.60
   0   9   1    0.20    4.60
  -1  -9  -1    4.60    2.60
  -1  -9  -1   -3.40    5.80
  -1  -9  -1    3.50    4.80
   1   9   1   -2.90    4.70
  -2  -9  -1   15.80    6.50
   2   9   1    0.20    5.40
  -3  -9  -1  654.03   22.80
   3   9   1  724.13   34.50
   2 -10  -1   -8.70    4.20
   2 -10  -1    3.60    4.20
  -2  10   1   -9.30    6.80
   1 -10  -1  423.86   18.70
   0 -10  -1    5.50    6.60
   0 -10  -1    4.30    3.50
   0 -10  -1   -1.00    3.50
   0  10   1   -1.20    6.70
   1  10  -2   92.89   12.70
   1  10  -2   92.39   10.50
  -1 -10   2  121.69   11.80
  -1 -10   2   84.09    8.70
  -1 -10   2  104.19    7.80
   0  10  -2   59.89   10.70
   0 -10   2   38.50    7.20
   0 -10   2   43.60    3.80
   1 -10   2  148.09    8.00
   2 -10   2  406.26   16.90
   2 -10   2  423.66   20.20
  -3  10  -2    0.60    4.20
   3 -10   2   -1.30    3.90
   4   9  -2    2.80    4.80
   3   9  -2   37.00    5.70
   3   9  -2   46.60    9.80
   3   9  -2   64.59    9.50
  -3  -9   2   36.40    7.40
   2   9  -2  559.44   28.40
   2   9  -2  533.45   24.20
   2   9  -2  520.05   21.00
  -2  -9   2  567.34   23.00
  -2  -9   2  552.14   19.20
  -2  -9   2  525.35   25.90
   1   9  -2   98.89    9.40
   1   9  -2  104.09    9.90
   1   9  -2  113.49   12.50
  -1  -9   2  104.59    7.60
  -1  -9   2  108.09   10.50
   0   9  -2    1.40    4.50
   0   9  -2    5.00    5.00
   0  -9   2    0.80    1.90
   0  -9   2    3.40    5.10
  -1   9  -2    2.50    4.50
   1  -9   2   -1.80    4.40
  -2   9  -2  180.98   11.70
   2  -9   2  172.98    9.60
   2  -9   2  175.08   12.70
  -3   9  -2    4.50    4.50
   3  -9   2   17.80    5.80
   3  -9   2   12.30    4.20
   4  -9   2  332.37   18.30
   4  -9   2  335.97   17.70
  -5   9  -2   11.40    5.70
  -5   9  -2   16.40    5.10
   5  -9   2   17.30    2.60
   5   8  -2   58.59    6.80
   5   8  -2   83.09   10.10
  -5  -8   2   81.69   12.70
   4   8  -2   -2.10    4.60
   4   8  -2   -2.10    6.40
   4   8  -2    1.00    3.70
  -4  -8   2   14.80    6.30
   3   8  -2   35.00    8.40
   3   8  -2   28.60    5.60
   3   8  -2   22.30    4.80
  -3  -8   2   31.70    3.70
  -3  -8   2   31.50    3.00
  -3  -8   2   20.20    6.80
  -3  -8   2   30.90    4.30
   2   8  -2  830.52   29.00
   2   8  -2  859.41   36.20
   2   8  -2  806.42   31.60
  -2  -8   2  833.72   27.60
  -2  -8   2  836.52   27.50
  -2  -8   2  845.12   30.40
  -2  -8   2  848.52   34.60
   1   8  -2   28.80    7.30
   1   8  -2   27.60    6.10
   1   8  -2   20.80    4.60
   1   8  -2   31.80    7.20
  -1  -8   2   23.00    4.20
  -1  -8   2   29.20    5.80
   0   8  -2 1069.59   39.10
   0   8  -2 1040.00   37.30
   0   8  -2 1010.40   35.10
   0  -8   2 1033.40   31.80
   0  -8   2 1007.70   32.10
   0  -8   2 1023.70   35.60
  -1   8  -2   24.50    5.00
  -1   8  -2   18.60    5.30
   1  -8   2   20.40    5.60
   1  -8   2   19.80    2.30
   1  -8   2   16.30    5.30
   1  -8   2   21.60    3.50
  -2   8  -2   -2.60    3.70
  -2   8  -2    1.60    4.50
   2  -8   2    0.10    2.80
   2  -8   2   -7.00    4.70
   2  -8   2    0.50    4.50
   3  -8   2   -2.80    3.30
   3  -8   2   -2.80    2.90
   3  -8   2   -0.60    4.60
   4  -8   2  365.16   17.90
   4  -8   2  332.07   12.20
  -5   8  -2   51.09    7.00
  -5   8  -2   50.69    6.80
   5  -8   2   51.79    7.60
  -6   8  -2  139.39   14.10
  -6   8  -2  170.88   14.80
  -6   8  -2  150.38   11.70
   6  -8   2  138.39    7.90
   6  -8   2  114.99   14.30
   6   7  -2  312.17   13.30
   6   7  -2  356.56   17.90
  -6  -7   2  337.57   20.40
   5   7  -2  493.65   22.00
   5   7  -2  479.55   18.30
   5   7  -2  538.25   28.40
  -5  -7   2  499.35   23.90
   4   7  -2 1112.69   39.80
   4   7  -2 1037.90   35.30
   4   7  -2 1157.18   45.60
  -4  -7   2 1127.39   36.50
  -4  -7   2 1108.59   41.80
  -4  -7   2 1045.90   40.70
   3   7  -2  255.27   11.70
   3   7  -2  281.57   18.80
   3   7  -2  281.67   15.10
  -3  -7   2  282.27   12.20
  -3  -7   2  271.97   16.00
  -3  -7   2  258.97    9.80
   2   7  -2   90.89    7.30
   2   7  -2   98.49   11.90
  -2  -7   2   90.19    8.80
  -2  -7   2   84.39    6.50
  -2  -7   2   84.69    6.00
   1   7  -2  330.77   14.20
   1   7  -2  349.37   18.90
   1   7  -2  358.86   16.70
  -1  -7   2  345.87   13.70
  -1  -7   2  342.17   14.80
  -1  -7   2  337.07   13.50
   0   7  -2   86.09    8.70
   0   7  -2   86.39    7.60
   0   7  -2   97.79    9.30
   0   7  -2   61.39    7.50
   0  -7   2   89.59    5.00
   0  -7   2   76.99    7.60
   0  -7   2   82.19    4.90
  -1   7  -2   42.40    7.30
  -1   7  -2   27.10    5.30
  -1   7  -2   32.10    4.90
  -1   7  -2   31.50    4.90
   1  -7   2   30.30    5.30
   1  -7   2   27.70    3.90
   1  -7   2   25.00    5.40
  -2   7  -2  846.92   30.30
  -2   7  -2  870.91   30.60
  -2   7  -2  858.91   29.10
   2  -7   2  860.61   31.70
   2  -7   2  882.01   30.30
   2  -7   2  846.42   28.90
  -3   7  -2  237.08   11.60
  -3   7  -2  228.28   14.40
  -3   7  -2  220.48   10.20
   3  -7   2  246.78   11.80
   3  -7   2  239.48   13.20
   3  -7   2  250.97   13.50
  -4   7  -2  402.06   16.60
  -4   7  -2  366.86   17.30
   4  -7   2  356.06   17.10
   4  -7   2  432.56   16.20
   4  -7   2  376.46   17.40
   4  -7   2  362.36   16.30
  -5   7  -2  476.15   18.50
  -5   7  -2  442.16   19.00
  -5   7  -2  485.75   20.40
   5  -7   2  461.45   20.70
   5  -7   2  470.35   18.30
   5  -7   2  453.95   17.60
   5  -7   2  509.35   23.10
  -6   7  -2  537.85   23.60
  -6   7  -2  589.44   22.60
  -6   7  -2  632.04   24.70
   6  -7   2  586.64   21.00
   6  -7   2  581.04   23.80
   6  -7   2  595.54   22.60
   6  -7   2  619.44   24.90
  -7   7  -2   69.69    8.40
  -7   7  -2   68.59    9.50
   7  -7   2   51.29    7.50
   7  -7   2   84.99   10.60
   7  -7   2   73.39   11.80
   7   6  -2   19.90    5.00
  -7  -6   2    3.10    6.70
   6   6  -2  322.07   16.70
   6   6  -2  328.17   22.30
  -6  -6   2  296.57   18.50
  -6  -6   2  323.67   18.10
   5   6  -2   52.79    8.90
   5   6  -2   53.19    8.10
   5   6  -2   46.60    9.00
  -5  -6   2   42.20    7.70
  -5  -6   2   55.59    7.40
  -5  -6   2   54.99    8.50
   4   6  -2 1149.29   39.30
   4   6  -2 1046.70   44.40
   4   6  -2 1063.29   36.70
  -4  -6   2 1137.49   40.90
  -4  -6   2 1143.49   36.80
   3   6  -2  654.23   29.10
   3   6  -2  608.24   22.10
   3   6  -2  655.53   25.20
  -3  -6   2  653.13   22.40
  -3  -6   2  639.14   20.40
  -3  -6   2  661.23   26.20
  -3  -6   2  628.44   25.00
   2   6  -2  427.66   21.10
   2   6  -2  415.16   17.90
   2   6  -2  364.06   15.20
  -2  -6   2  415.86   14.50
  -2  -6   2  409.16   15.00
  -2  -6   2  377.76   17.80
  -2  -6   2  420.86   16.20
   1   6  -2  123.49    8.80
   1   6  -2  143.79   11.20
   1   6  -2  118.99   10.90
   1   6  -2  132.29    8.80
  -1  -6   2  120.79    6.60
  -1  -6   2  128.19    8.90
  -1  -6   2  123.59    8.20
   0   6  -2    6.60    3.70
   0   6  -2    6.50    3.10
   0   6  -2    8.60    4.20
   0   6  -2   12.00    3.90
   0  -6   2   13.00    4.10
   0  -6   2   12.50    4.20
   0  -6   2   12.40    2.00
  -1   6  -2 2483.75   74.09
  -1   6  -2 2448.66   74.59
  -1   6  -2 2500.85   75.99
  -1   6  -2 2525.35   76.69
   1  -6   2 2477.95   74.59
   1  -6   2 2352.56   76.09
   1  -6   2 2272.87   73.09
  -2   6  -2  165.28   10.00
  -2   6  -2  166.98    9.20
  -2   6  -2  164.78    9.00
  -2   6  -2  161.88    9.50
   2  -6   2  154.78    8.10
   2  -6   2  170.68    9.80
   2  -6   2  160.18    9.70
  -3   6  -2 1047.40   36.10
  -3   6  -2 1118.09   35.00
  -3   6  -2 1033.80   33.20
   3  -6   2 1080.49   33.50
   3  -6   2 1083.79   36.20
   3  -6   2 1080.49   35.50
   3  -6   2 1070.99   36.60
  -4   6  -2  882.21   29.00
   4  -6   2  877.61   31.10
   4  -6   2  903.21   31.10
   4  -6   2  861.81   32.80
   4  -6   2  878.91   30.70
   4  -6   2  875.51   30.10
  -5   6  -2  269.47   12.60
  -5   6  -2  244.48   13.80
   5  -6   2  250.07   12.20
   5  -6   2  254.17   13.00
   5  -6   2  237.68   11.00
   5  -6   2  256.97   11.60
   5  -6   2  263.47   16.10
  -6   6  -2  506.65   20.50
  -6   6  -2  449.56   20.30
  -6   6  -2  474.45   19.10
   6  -6   2  481.15   18.80
   6  -6   2  503.05   21.00
   6  -6   2  472.65   18.00
   6  -6   2  479.25   18.80
   6  -6   2  472.65   22.80
   6  -6   2  481.75   19.60
  -7   6  -2  337.87   16.30
  -7   6  -2  310.07   15.30
  -7   6  -2  301.47   16.20
   7  -6   2  309.37   14.80
   7  -6   2  299.07   14.20
   7  -6   2  321.57   17.30
   7  -6   2  319.57   14.30
  -8   6  -2  142.79   10.80
   8  -6   2  113.29   10.10
   8  -6   2  131.69   11.10
   8   5  -2   54.19    7.80
  -8  -5   2   32.30    7.70
   7   5  -2  374.26   18.30
   7   5  -2  412.06   25.20
  -7  -5   2  365.76   19.10
  -7  -5   2  391.96   19.20
  -7  -5   2  394.36   20.50
   6   5  -2   97.19    6.30
   6   5  -2  104.99    8.90
   6   5  -2  112.79   13.70
  -6  -5   2  107.69   11.00
  -6  -5   2  101.89   10.80
  -6  -5   2  115.39    9.30
   5   5  -2   50.09    6.60
   5   5  -2   45.10   11.10
   5   5  -2   52.29    4.90
  -5  -5   2   41.30    7.10
  -5  -5   2   47.70    5.80
  -5  -5   2   36.60    5.90
   4   5  -2   10.30    6.10
   4   5  -2    3.60    3.80
   4   5  -2    4.20    2.60
  -4  -5   2    4.20    3.80
  -4  -5   2    6.00    4.90
  -4  -5   2    3.50    3.50
   3   5  -2 1606.74   49.50
   3   5  -2 1649.44   56.99
   3   5  -2 1621.14   52.69
  -3  -5   2 1609.94   50.49
  -3  -5   2 1615.04   52.89
  -3  -5   2 1674.63   53.49
  -3  -5   2 1588.74   48.50
   2   5  -2   66.29    7.10
   2   5  -2   57.69    4.80
   2   5  -2   62.89    8.90
  -2  -5   2   69.69    6.40
  -2  -5   2   72.29    7.20
  -2  -5   2   67.99    5.20
  -2  -5   2   65.69    4.40
   1   5  -2    1.30    2.50
   1   5  -2    2.10    3.20
   1   5  -2    9.00    3.00
   1   5  -2   -2.00    4.30
  -1  -5   2    0.40    2.90
  -1  -5   2   -2.70    2.00
  -1  -5   2    1.80    2.10
  -1  -5   2    2.30    3.20
   0   5  -2   30.70    5.10
   0   5  -2   40.60    4.60
   0   5  -2   25.90    4.20
   0   5  -2   35.20    5.00
   0  -5   2   31.30    4.60
   0  -5   2   35.50    4.80
   0  -5   2   29.30    3.00
  -1   5  -2 2169.28   65.59
  -1   5  -2 2099.59   64.49
  -1   5  -2 2028.00   65.69
   1  -5   2 2133.39   64.39
   1  -5   2 2160.38   65.89
   1  -5   2 2055.89   63.29
  -2   5  -2    0.00    2.40
  -2   5  -2    5.80    3.10
  -2   5  -2    2.80    3.00
   2  -5   2    2.50    3.50
   2  -5   2    3.90    3.20
   2  -5   2    0.40    2.10
   2  -5   2    2.60    3.40
  -3   5  -2 2816.52   88.39
  -3   5  -2 3349.66   91.09
  -3   5  -2 2955.90   91.49
   3  -5   2 2851.91   90.99
   3  -5   2 3090.59   91.89
   3  -5   2 2944.81   89.49
   3  -5   2 3087.79   91.59
   3  -5   2 3022.00   90.59
  -4   5  -2  226.68   11.80
  -4   5  -2  237.28   10.10
  -4   5  -2  239.78   11.80
   4  -5   2  209.68   10.90
   4  -5   2  226.18   11.20
   4  -5   2  243.68   11.40
   4  -5   2  226.88   11.20
   4  -5   2  247.68   12.30
  -5   5  -2   19.60    5.00
  -5   5  -2    4.60    5.10
  -5   5  -2    9.50    4.30
   5  -5   2   16.70    3.50
   5  -5   2   13.30    4.20
   5  -5   2   14.10    3.70
   5  -5   2   16.70    5.20
   5  -5   2   10.50    3.60
   5  -5   2   16.10    3.30
  -6   5  -2    2.30    4.10
  -6   5  -2    0.90    4.50
  -6   5  -2    6.10    4.70
   6  -5   2    0.70    5.80
   6  -5   2    5.00    2.80
   6  -5   2    3.10    2.90
   6  -5   2    2.80    3.10
   6  -5   2    6.50    4.30
  -7   5  -2  530.65   22.80
  -7   5  -2  583.44   22.80
  -7   5  -2  550.24   22.20
   7  -5   2  543.75   21.00
   7  -5   2  543.55   22.90
   7  -5   2  566.14   20.80
   7  -5   2  578.14   23.30
  -8   5  -2    3.60    5.30
   8  -5   2    9.40    5.80
   8  -5   2    5.50    3.60
   8   4  -2    1.20    6.70
   8   4  -2    0.40    2.60
   8   4  -2    0.70    3.60
  -8  -4   2   -3.10    5.60
  -8  -4   2    2.90    5.10
   7   4  -2  734.43   25.20
   7   4  -2  820.52   36.10
  -7  -4   2  754.02   30.70
  -7  -4   2  806.52   30.60
   6   4  -2    4.40    3.70
   6   4  -2    9.80    5.60
   6   4  -2   -1.80    5.70
   6   4  -2    2.50    2.50
  -6  -4   2    2.90    4.90
  -6  -4   2   -5.10    3.80
  -6  -4   2    4.80    4.80
   5   4  -2   73.79    8.20
   5   4  -2   84.99    7.30
   5   4  -2   90.09    5.40
   5   4  -2  106.09   12.20
  -5  -4   2   76.09    8.90
  -5  -4   2  100.09    7.60
  -5  -4   2   94.69    7.50
  -5  -4   2   87.39    8.80
   4   4  -2  226.48   12.00
   4   4  -2  238.98   15.60
   4   4  -2  222.58   11.90
   4   4  -2  233.28    9.10
  -4  -4   2  246.58   11.00
  -4  -4   2  239.58   12.80
  -4  -4   2  231.58   11.80
  -4  -4   2  227.88   12.40
   3   4  -2   47.70    7.60
   3   4  -2   52.99    6.20
   3   4  -2   49.70    4.00
  -3  -4   2   53.29    3.20
  -3  -4   2   51.39    5.30
  -3  -4   2   62.69    6.70
  -3  -4   2   51.19    5.50
   2   4  -2 1550.64   47.10
   2   4  -2 1588.94   49.90
   2   4  -2 1554.74   52.39
  -2  -4   2 1583.64   48.90
  -2  -4   2 1440.36   51.39
  -2  -4   2 1589.94   47.50
  -2  -4   2 1621.04   47.20
   1   4  -2 1040.50   34.00
   1   4  -2 1007.90   31.90
   1   4  -2 1040.80   36.00
   1   4  -2 1008.70   33.00
  -1  -4   2 1047.50   34.20
  -1  -4   2 1033.80   32.10
  -1  -4   2 1044.60   32.10
   0   4  -2    7.10    2.40
   0   4  -2    7.90    2.70
   0   4  -2    7.20    3.00
   0   4  -2    6.70    3.60
   0  -4   2    5.30    1.50
   0  -4   2    8.40    2.90
   0  -4   2    9.40    2.80
  -1   4  -2 4601.04  135.39
  -1   4  -2 4749.22  136.39
  -1   4  -2 4732.13  135.09
  -1   4  -2 4441.26  136.29
   1  -4   2 4268.37  134.59
   1  -4   2 4586.74  135.59
   1  -4   2 4727.33  136.49
  -2   4  -2   65.39    5.30
  -2   4  -2   60.09    5.40
  -2   4  -2   58.29    4.80
  -2   4  -2   62.09    5.40
   2  -4   2   60.99    5.60
   2  -4   2   54.99    4.60
   2  -4   2   62.99    5.60
   2  -4   2   68.39    5.70
  -3   4  -2 2959.80   88.59
  -3   4  -2 2999.80   90.89
  -3   4  -2 3124.69   89.79
   3  -4   2 3031.50   89.19
   3  -4   2 2945.11   88.89
   3  -4   2 2889.11   90.09
   3  -4   2 3016.70   90.19
   3  -4   2 2967.70   90.19
  -4   4  -2 2347.36   71.99
   4  -4   2 2297.97   70.19
   4  -4   2 2345.47   68.79
   4  -4   2 2222.08   68.89
   4  -4   2 2154.18   69.99
   4  -4   2 2268.57   69.29
  -5   4  -2  351.36   15.40
  -5   4  -2  393.26   15.10
  -5   4  -2  376.96   15.80
   5  -4   2  385.16   16.30
   5  -4   2  379.96   14.70
   5  -4   2  379.26   15.20
   5  -4   2  376.56   14.90
   5  -4   2  354.86   15.80
  -6   4  -2   29.20    5.30
  -6   4  -2   28.20    5.70
  -6   4  -2   38.60    5.60
   6  -4   2   34.50    4.90
   6  -4   2   37.00    4.90
   6  -4   2   24.30    4.70
   6  -4   2   27.80    5.70
  -7   4  -2   13.10    5.10
  -7   4  -2   11.50    4.90
  -7   4  -2    6.90    5.30
   7  -4   2    8.40    5.90
   7  -4   2    7.00    3.90
   7  -4   2    4.80    2.70
   7  -4   2   12.30    6.10
  -8   4  -2  462.65   20.50
   8  -4   2  453.85   18.80
   8  -4   2  472.85   21.00
   8  -4   2  459.85   17.60
   9  -4   2  312.57   15.10
   9  -4   2  297.97   13.10
   9  -4   2  318.97   17.00
   8   3  -2    1.40    1.80
   8   3  -2   -4.10    3.20
   8   3  -2    3.00    2.90
   8   3  -2    9.40    6.80
   8   3  -2    8.60    4.80
  -8  -3   2   13.90    5.40
  -8  -3   2    1.30    5.10
   7   3  -2  135.29    7.30
   7   3  -2  130.99    9.80
   7   3  -2  151.08    8.40
   7   3  -2  149.69   14.80
   7   3  -2  131.79    6.20
   7   3  -2  138.59    7.80
   7   3  -2  146.49    9.90
  -7  -3   2  141.69   11.30
  -7  -3   2  161.48   11.70
  -7  -3   2  148.19   10.10
   6   3  -2 1168.78   37.30
   6   3  -2 1194.28   39.00
   6   3  -2 1159.78   36.70
   6   3  -2 1176.08   39.60
   6   3  -2 1124.89   36.00
   6   3  -2 1188.98   40.40
   6   3  -2 1251.57   46.10
  -6  -3   2 1181.18   40.60
  -6  -3   2 1207.98   39.80
  -6  -3   2 1199.78   41.20
   5   3  -2 1140.29   38.50
   5   3  -2 1141.49   37.50
   5   3  -2 1120.19   38.50
   5   3  -2 1151.88   36.70
   5   3  -2 1103.99   34.60
   5   3  -2 1118.99   35.00
   5   3  -2 1202.18   43.40
   5   3  -2 1121.49   35.30
  -5  -3   2 1139.99   38.50
  -5  -3   2 1127.59   38.80
  -5  -3   2 1167.08   37.80
  -5  -3   2 1147.39   38.50
   4   3  -2  907.81   34.00
   4   3  -2  877.11   28.20
   4   3  -2  868.31   30.20
   4   3  -2  877.71   27.00
   4   3  -2  857.41   26.90
   4   3  -2  845.92   27.00
   4   3  -2  851.11   30.10
  -4  -3   2  895.71   30.60
  -4  -3   2  871.31   30.60
  -4  -3   2  885.61   30.30
  -4  -3   2  911.61   29.40
  -4  -3   2  894.81   27.00
   3   3  -2   49.70    4.00
   3   3  -2   41.50    5.70
   3   3  -2   55.89    7.90
   3   3  -2   46.20    3.10
   3   3  -2   43.50    5.40
   3   3  -2   50.39    3.40
  -3  -3   2   41.80    4.90
  -3  -3   2   52.09    5.60
  -3  -3   2   49.99    5.60
  -3  -3   2   48.70    3.20
   2   3  -2  254.07    8.90
   2   3  -2  262.47   11.40
   2   3  -2  254.97    8.80
  -2  -3   2  248.18   11.00
  -2  -3   2  265.37   11.10
  -2  -3   2  255.77    9.20
  -2  -3   2  255.17    9.90
   1   3  -2   19.10    3.50
   1   3  -2   16.50    3.30
   1   3  -2   21.10    2.70
  -1  -3   2   20.00    2.90
  -1  -3   2   15.00    2.90
  -1  -3   2   17.60    2.30
   0   3  -2 1060.09   32.50
   0   3  -2 1051.19   32.80
   0   3  -2 1051.79   31.80
   0   3  -2 1092.09   33.80
   0  -3   2 1044.80   32.50
   0  -3   2 1076.19   31.80
   0  -3   2 1056.99   33.80
  -1   3  -2  120.09    5.70
  -1   3  -2  129.89    6.70
  -1   3  -2  113.09    4.60
  -1   3  -2  118.09    6.10
  -1   3  -2  120.19    6.40
   1  -3   2  116.09    6.40
   1  -3   2  129.39    6.60
   1  -3   2  111.49    5.40
   1  -3   2  125.49    6.70
  -2   3  -2   75.69    5.10
  -2   3  -2   79.29    5.20
  -2   3  -2   72.79    4.20
  -2   3  -2   80.59    5.30
  -2   3  -2   71.99    5.50
   2  -3   2   67.39    5.10
   2  -3   2   68.09    5.00
   2  -3   2   75.79    5.40
  -3   3  -2   88.59    6.20
  -3   3  -2   80.29    6.00
  -3   3  -2   84.89    4.70
  -3   3  -2   86.29    5.00
   3  -3   2   89.69    7.30
   3  -3   2   84.49    6.30
   3  -3   2   86.39    5.00
   3  -3   2   84.29    5.20
   3  -3   2   81.59    5.80
  -4   3  -2 1797.92   55.39
  -4   3  -2 1817.22   54.29
  -4   3  -2 1820.42   54.69
  -4   3  -2 1657.23   54.69
  -4   3  -2 1791.02   54.19
   4  -3   2 1752.12   53.79
   4  -3   2 1740.73   54.29
   4  -3   2 1806.12   53.99
   4  -3   2 1734.73   55.39
   4  -3   2 1774.32   55.09
  -5   3  -2  203.48   10.30
  -5   3  -2  196.18   10.00
  -5   3  -2  206.78    9.70
  -5   3  -2  185.58   11.90
  -5   3  -2  219.38   10.90
   5  -3   2  196.28   10.70
   5  -3   2  203.08    9.80
   5  -3   2  200.18    9.60
   5  -3   2  204.28   10.80
   5  -3   2  191.98   10.40
   5  -3   2  193.48    8.50
  -6   3  -2   -6.60    3.40
  -6   3  -2   -2.60    3.70
  -6   3  -2   -1.60    4.50
  -6   3  -2   -1.80    2.50
  -6   3  -2   -3.00    3.10
   6  -3   2    1.30    3.30
   6  -3   2   -0.80    4.90
   6  -3   2    4.60    3.50
   6  -3   2   -2.70    3.50
   6  -3   2   -4.90    4.60
   6  -3   2    1.90    2.20
  -7   3  -2   -6.60    4.00
   7  -3   2    6.80    4.30
   7  -3   2   -0.40    4.20
   7  -3   2    4.00    2.60
   7  -3   2    9.10    5.80
  -8   3  -2  329.47   15.80
   8  -3   2  314.17   14.90
   8  -3   2  309.97   14.30
   8  -3   2  346.27   16.60
   8  -3   2  325.27   13.60
  -9   3  -2  203.28   13.80
   9  -3   2  213.08   14.10
   9  -3   2  180.08   11.60
   9  -3   2  197.78   10.20
   9   2  -2  470.05   20.50
   9   2  -2  434.76   16.70
   9   2  -2  489.75   25.70
   9   2  -2  462.75   17.10
   9   2  -2  434.16   18.90
   9   2  -2  460.65   20.30
   8   2  -2  414.96   18.70
   8   2  -2  419.26   15.60
   8   2  -2  449.26   23.70
   8   2  -2  442.66   15.60
   8   2  -2  387.46   19.20
   8   2  -2  421.36   17.40
  -8  -2   2  396.86   18.90
   7   2  -2    9.80    4.10
   7   2  -2   12.00    2.70
   7   2  -2   10.70    3.30
   7   2  -2    5.30    3.90
   7   2  -2    9.40    3.90
   7   2  -2   16.50    6.30
   7   2  -2   13.30    3.10
  -7  -2   2    4.60    4.20
  -7  -2   2   19.70    5.10
  -7  -2   2    3.50    4.70
   6   2  -2   21.60    4.20
   6   2  -2   14.90    3.00
   6   2  -2   20.90    4.30
   6   2  -2   15.40    2.60
   6   2  -2   12.90    5.90
   6   2  -2   19.10    4.30
   6   2  -2   10.70    3.70
   6   2  -2   17.00    3.30
  -6  -2   2   19.30    4.40
  -6  -2   2   28.90    5.40
  -6  -2   2   25.70    5.10
   5   2  -2  797.22   27.40
   5   2  -2  743.83   24.40
   5   2  -2  755.62   25.10
   5   2  -2  765.42   25.90
   5   2  -2  735.23   27.00
   5   2  -2  777.22   30.60
   5   2  -2  756.82   26.30
   5   2  -2  767.12   27.10
  -5  -2   2  767.92   27.20
  -5  -2   2  771.92   27.10
  -5  -2   2  777.92   26.50
   4   2  -2   46.40    4.80
   4   2  -2   54.29    3.80
   4   2  -2   46.40    7.50
   4   2  -2   49.90    4.50
   4   2  -2   43.70    3.70
   4   2  -2   47.10    5.50
   4   2  -2   50.19    5.60
  -4  -2   2   53.09    5.40
  -4  -2   2   51.69    5.20
  -4  -2   2   48.80    6.00
  -4  -2   2   46.80    5.00
   3   2  -2  956.30   29.40
   3   2  -2  928.41   28.10
   3   2  -2  876.61   28.80
   3   2  -2  947.61   31.40
   3   2  -2  936.01   28.60
   3   2  -2  967.30   30.80
  -3  -2   2  950.20   28.90
  -3  -2   2  951.20   30.00
  -3  -2   2  927.01   30.80
  -3  -2   2  993.30   30.90
  -3  -2   2  900.61   33.70
   2   2  -2    8.80    3.00
   2   2  -2   12.00    2.80
   2   2  -2   10.90    1.90
   2   2  -2    9.40    1.80
  -2  -2   2   11.00    2.90
  -2  -2   2   10.80    1.90
  -2  -2   2    9.40    2.90
  -2  -2   2   13.50    2.50
   1   2  -2   54.69    4.40
   1   2  -2   55.99    2.90
   1   2  -2   61.89    4.90
   1   2  -2   57.49    3.80
  -1  -2   2   53.99    4.40
  -1  -2   2   61.89    4.00
  -1  -2   2   59.19    3.00
   0   2  -2 7681.93  221.98
   0   2  -2 7398.16  221.88
   0  -2   2 7569.44  221.88
   0  -2   2 7540.05  221.88
  -1   2  -2   15.50    1.80
  -1   2  -2   14.80    2.10
  -1   2  -2   22.40    3.30
  -1   2  -2   16.70    2.30
   1  -2   2   14.00    2.20
   1  -2   2   13.70    2.40
   1  -2   2   22.10    2.70
   1  -2   2   17.40    2.20
  -2   2  -2  791.62   25.20
  -2   2  -2  788.72   24.00
  -2   2  -2  779.72   24.50
  -2   2  -2  769.32   24.40
  -2   2  -2  765.52   23.90
  -2   2  -2  799.92   25.20
   2  -2   2  757.62   25.00
   2  -2   2  777.42   25.10
   2  -2   2  804.32   24.50
   2  -2   2  810.22   24.70
  -3   2  -2  797.82   25.80
  -3   2  -2  859.31   28.10
  -3   2  -2  794.12   25.50
  -3   2  -2  813.62   25.60
  -3   2  -2  752.52   26.20
   3  -2   2  826.92   25.10
   3  -2   2  814.32   26.60
   3  -2   2  803.32   26.00
   3  -2   2  791.12   26.50
  -4   2  -2 1180.78   37.60
  -4   2  -2 1187.28   37.60
  -4   2  -2 1176.48   38.20
  -4   2  -2 1164.48   37.50
  -4   2  -2 1197.58   38.40
   4  -2   2 1182.98   36.30
   4  -2   2 1197.78   37.00
   4  -2   2 1185.48   38.10
   4  -2   2 1241.68   38.70
   4  -2   2 1163.38   37.60
   4  -2   2 1223.98   35.80
  -5   2  -2   11.80    3.10
  -5   2  -2    7.30    3.40
  -5   2  -2   10.80    3.30
   5  -2   2    9.70    3.60
   5  -2   2    5.10    2.90
   5  -2   2    9.60    3.10
   5  -2   2    8.20    1.80
   5  -2   2    7.20    2.00
   5  -2   2    3.60    3.20
   5  -2   2    5.90    3.20
   5  -2   2    8.40    4.00
   5  -2   2   11.10    4.00
  -6   2  -2  760.92   27.50
  -6   2  -2  790.82   27.00
  -6   2  -2  742.83   26.50
   6  -2   2  759.62   24.70
   6  -2   2  746.43   26.80
   6  -2   2  775.32   29.60
   6  -2   2  746.53   26.60
   6  -2   2  774.42   26.30
   6  -2   2  750.92   24.30
   6  -2   2  749.53   27.60
   6  -2   2  761.12   27.90
   6  -2   2  747.83   27.20
  -7   2  -2   -4.00    4.40
   7  -2   2   -2.60    4.20
   7  -2   2   -2.00    1.70
   7  -2   2   -9.00    4.00
   7  -2   2    4.60    4.60
   7  -2   2   -5.50    4.10
   7  -2   2   -3.40    4.50
   7  -2   2   -2.80    2.10
   7  -2   2    0.20    2.40
  -8   2  -2    5.00    4.40
  -8   2  -2    6.80    4.80
   8  -2   2    8.70    2.30
   8  -2   2    4.20    5.30
   8  -2   2   12.60    5.60
   8  -2   2   10.70    5.50
  -9   2  -2    0.10    4.80
   9  -2   2   -0.90    2.90
   9  -2   2   -2.40    4.10
   9  -2   2    6.80    4.90
   9   1  -2  147.39   13.30
   9   1  -2  119.09   10.40
   9   1  -2  143.49   12.30
   9   1  -2  132.69    8.40
   9   1  -2  124.19    8.30
   8   1  -2  406.36   15.80
   8   1  -2  403.96   25.50
   8   1  -2  412.86   17.40
   8   1  -2  420.96   17.90
   8   1  -2  423.86   18.60
   8   1  -2  405.06   15.50
   8   1  -2  383.56   20.90
   7   1  -2   12.40    6.30
   7   1  -2   16.40    3.30
   7   1  -2   13.30    4.20
   7   1  -2   14.90    4.50
   7   1  -2   14.30    3.80
   7   1  -2   18.80    4.80
   7   1  -2   12.50    3.30
   7   1  -2   15.20    4.20
  -7  -1   2   15.50    5.10
   6   1  -2  134.39    7.80
   6   1  -2  123.89    8.70
   6   1  -2  139.29    9.30
   6   1  -2  130.09    9.10
   6   1  -2  132.39    7.20
   6   1  -2  134.29   12.30
   6   1  -2  135.89    8.90
   6   1  -2  128.89    7.90
  -6  -1   2  142.59    9.50
  -6  -1   2  127.69    8.90
   5   1  -2   29.60    4.30
   5   1  -2   28.10    4.70
   5   1  -2   26.60    3.50
   5   1  -2   31.10    3.90
   5   1  -2   27.50    3.70
   5   1  -2   35.00    4.90
   5   1  -2   27.50    3.60
   5   1  -2   22.70    5.70
   5   1  -2   30.60    4.40
   5   1  -2   26.00    4.50
   5   1  -2   31.10    4.50
  -5  -1   2   30.00    4.40
  -5  -1   2   32.50    5.00
  -5  -1   2   27.30    4.50
   4   1  -2 3224.08   96.69
   4   1  -2 3223.78   95.19
   4   1  -2 3117.09   93.19
   4   1  -2 2996.90   92.09
   4   1  -2 3111.79   95.79
   4   1  -2 3141.59   94.39
   4   1  -2 3148.49   94.59
   4   1  -2 3093.59   93.39
   4   1  -2 3189.28   93.99
  -4  -1   2 3135.69   94.29
  -4  -1   2 3221.38   94.29
  -4  -1   2 3077.59   94.29
   3   1  -2   77.39    5.50
   3   1  -2   82.09    4.90
   3   1  -2   70.19    4.30
   3   1  -2   83.49    4.60
   3   1  -2   82.59    4.90
   3   1  -2   72.19    3.40
   3   1  -2   78.29    5.70
  -3  -1   2   75.89    4.70
  -3  -1   2   74.49    5.50
  -3  -1   2   76.29    5.10
  -3  -1   2   75.19    6.10
   2   1  -2 6709.13  193.78
   2   1  -2 6774.52  193.68
  -2  -1   2 6326.17  193.38
  -2  -1   2 6641.14  193.58
   1   1  -2  809.42   24.20
   1   1  -2  813.02   25.30
   1   1  -2  784.02   24.10
   1   1  -2  770.12   24.50
  -1  -1   2  796.12   24.40
  -1  -1   2  798.22   25.20
  -1  -1   2  772.92   24.50
   0   1  -2  342.47   11.80
   0   1  -2  364.06   11.40
   0   1  -2  325.37   11.60
   0  -1   2  340.37   10.60
   0  -1   2  367.26   11.50
   0  -1   2  333.27   11.80
   0  -1   2  344.37   11.70
  -1   1  -2  122.69    5.40
  -1   1  -2  107.59    5.00
  -1   1  -2  104.89    5.90
  -1   1  -2  109.09    4.60
   1  -1   2  104.49    4.50
   1  -1   2  116.59    3.80
   1  -1   2  111.99    5.40
   1  -1   2  107.89    5.60
   1  -1   2  106.99    5.00
  -2   1  -2  787.32   24.30
  -2   1  -2  731.73   24.70
  -2   1  -2  767.52   24.80
  -2   1  -2  775.62   24.30
   2  -1   2  802.82   23.80
   2  -1   2  799.42   23.90
   2  -1   2  763.22   24.60
   2  -1   2  765.02   24.60
  -3   1  -2 2914.61   87.09
  -3   1  -2 2965.90   87.69
  -3   1  -2 2826.52   87.49
  -3   1  -2 2838.92   87.19
  -3   1  -2 2933.71   86.69
   3  -1   2 3091.59   85.89
   3  -1   2 2895.81   86.49
   3  -1   2 2953.30   88.29
   3  -1   2 2912.91   87.29
   3  -1   2 2884.21   87.49
   3  -1   2 2911.31   86.69
   3  -1   2 2953.30   87.19
  -4   1  -2  305.87   12.20
  -4   1  -2  312.67   12.00
  -4   1  -2  303.37   12.40
  -4   1  -2  304.87   13.20
  -4   1  -2  309.07   12.70
   4  -1   2  296.67   12.00
   4  -1   2  312.17   11.70
   4  -1   2  294.57   12.50
   4  -1   2  307.07   12.30
   4  -1   2  302.37   13.40
   4  -1   2  285.77   12.40
  -5   1  -2   67.49    6.20
  -5   1  -2   73.09    6.40
  -5   1  -2   78.49    6.20
   5  -1   2   68.19    7.00
   5  -1   2   76.89    4.10
   5  -1   2   70.49    6.80
   5  -1   2   78.29    7.80
   5  -1   2   82.79    5.90
   5  -1   2   76.19    6.10
   5  -1   2   71.39    6.10
   5  -1   2   75.59    7.10
  -6   1  -2 1365.26   43.30
  -6   1  -2 1340.47   43.50
  -6   1  -2 1359.36   44.20
   6  -1   2 1336.97   43.50
   6  -1   2 1313.47   44.00
   6  -1   2 1322.07   40.80
   6  -1   2 1339.87   44.60
   6  -1   2 1306.67   46.10
   6  -1   2 1367.06   43.90
   6  -1   2 1315.87   43.30
   6  -1   2 1317.67   43.20
  -7   1  -2  272.67   13.90
  -7   1  -2  274.77   13.50
   7  -1   2  274.17   12.80
   7  -1   2  266.27   14.20
   7  -1   2  262.67   13.20
   7  -1   2  263.37   10.30
   7  -1   2  273.57   13.60
   7  -1   2  265.87   15.80
  -8   1  -2  319.27   15.40
  -8   1  -2  336.47   15.70
  -8   1  -2  313.67   15.30
   8  -1   2  322.77   14.50
   8  -1   2  316.67   11.70
   8  -1   2  290.27   15.70
   8  -1   2  313.57   15.50
  -9   1  -2   67.39    9.00
   9  -1   2   61.99    4.20
   9  -1   2   73.59    8.80
   9  -1   2   74.49    8.90
   9  -1   2   63.89    8.30
   9  -1   2   63.89    7.50
   9   0  -2  125.69    8.10
   9   0  -2  131.49   20.10
   9   0  -2  119.79    8.50
   9   0  -2  118.19    9.00
   9   0  -2  121.59   10.40
   8   0  -2 1083.39   35.10
   8   0  -2 1013.80   40.30
   8   0  -2 1092.89   36.00
   8   0  -2 1131.39   41.40
   8   0  -2 1026.40   35.80
   8   0  -2 1113.39   38.30
   7   0  -2  108.69   10.70
   7   0  -2  104.69    8.80
   7   0  -2   94.29    8.50
   7   0  -2  100.89    7.60
   7   0  -2   98.79    7.30
   7   0  -2   94.09    7.90
   7   0  -2   95.69    6.60
   6   0  -2  153.48   10.10
   6   0  -2  150.48    9.40
   6   0  -2  162.38    9.40
   6   0  -2  148.59    8.70
   6   0  -2  141.39   10.50
   6   0  -2  148.49    8.70
   6   0  -2  159.68    9.10
   6   0  -2  158.68    8.90
   6   0  -2  168.28   12.20
   6   0  -2  161.58    7.90
  -6   0   2  158.38    9.40
   5   0  -2 1833.22   56.69
   5   0  -2 1813.82   57.59
   5   0  -2 1855.71   57.99
   5   0  -2 1902.71   57.69
   5   0  -2 1872.31   56.89
   5   0  -2 1888.01   58.59
   5   0  -2 1812.12   57.89
   5   0  -2 1886.81   55.89
   5   0  -2 1848.62   57.49
   5   0  -2 1812.62   56.99
   5   0  -2 1842.62   57.49
  -5   0   2 1818.02   58.59
  -5   0   2 1883.01   57.49
   4   0  -2   47.50    3.70
   4   0  -2   52.79    4.40
   4   0  -2   46.70    4.80
   4   0  -2   42.20    4.70
   4   0  -2   48.20    5.00
   4   0  -2   48.80    5.40
   4   0  -2   49.99    4.50
   4   0  -2   43.60    4.30
   4   0  -2   48.40    4.70
   4   0  -2   50.79    4.70
  -4   0   2   50.39    5.90
  -4   0   2   53.69    5.30
  -4   0   2   50.69    4.80
   3   0  -2  344.57   12.50
   3   0  -2  342.77   12.60
   3   0  -2  338.97   12.30
   3   0  -2  324.67   13.40
   3   0  -2  354.46   12.20
   3   0  -2  352.66   12.80
   3   0  -2  342.77   12.60
   3   0  -2  332.47   11.20
  -3   0   2  359.56   12.60
  -3   0   2  355.56   13.20
  -3   0   2  333.97   12.40
  -3   0   2  341.97   12.50
   1   0  -2  557.04   17.60
   1   0  -2  612.14   18.10
   1   0  -2  566.84   18.50
  -1   0   2  562.04   17.50
  -1   0   2  570.14   17.60
  -1   0   2  620.94   18.30
  -1   0   2  587.74   18.60
  -1   0   2  577.64   18.00
   0   0  -2 1079.99   32.00
   0   0  -2 1023.70   31.50
   0   0  -2 1111.19   32.30
   0   0   2 1041.80   31.90
   0   0   2 1036.50   31.50
   0   0   2 1005.70   31.20
  -1   0  -2 5230.78  153.08
   1   0   2 5078.49  151.48
   1   0   2 5116.09  151.48
  -2   0  -2  859.11   25.80
  -2   0  -2  844.12   26.70
  -2   0  -2  805.72   26.80
  -2   0  -2  805.62   26.60
  -2   0  -2  834.92   26.20
  -2   0  -2  817.92   25.20
   2   0   2  836.22   26.20
   2   0   2  829.32   26.80
   2   0   2  816.12   26.20
   2   0   2  835.32   25.90
   2   0   2  827.22   25.50
   2   0   2  828.32   26.30
  -3   0  -2 2224.18   67.49
  -3   0  -2 2224.18   66.59
  -3   0  -2 2261.67   67.09
  -3   0  -2 2303.37   68.29
  -3   0  -2 2183.28   68.49
  -3   0  -2 2305.17   67.69
   3   0   2 2221.08   67.39
   3   0   2 2214.18   67.39
   3   0   2 2197.98   67.79
   3   0   2 2226.88   68.49
   3   0   2 2221.98   67.79
  -4   0  -2   12.70    3.20
  -4   0  -2    7.90    3.50
  -4   0  -2    9.00    3.00
  -4   0  -2   13.40    2.80
  -4   0  -2    7.00    3.00
   4   0   2    6.30    1.20
   4   0   2    9.40    2.80
   4   0   2   15.40    3.90
   4   0   2   10.80    3.30
   4   0   2   10.50    3.70
   4   0   2    9.20    3.30
   4   0   2    9.90    3.30
  -5   0  -2  892.01   31.60
  -5   0  -2  900.41   30.10
  -5   0  -2  920.61   29.30
  -5   0  -2  880.61   29.80
   5   0   2  896.81   30.80
   5   0   2  885.11   30.00
   5   0   2  881.61   31.80
   5   0   2  899.81   30.20
   5   0   2  876.41   29.80
   5   0   2  886.61   30.30
   5   0   2  853.91   29.30
   5   0   2  838.62   26.90
  -6   0  -2  167.58    9.40
  -6   0  -2  168.58    9.80
  -6   0  -2  171.18    9.90
   6   0   2  157.78    9.60
   6   0   2  157.18   10.20
   6   0   2  136.39   11.00
   6   0   2  152.48   10.40
   6   0   2  158.18   10.30
   6   0   2  153.28    6.50
   6   0   2  158.88    9.50
  -7   0  -2 1335.57   44.00
  -7   0  -2 1317.77   43.10
   7   0   2 1280.27   43.90
   7   0   2 1266.97   39.80
   7   0   2 1355.06   44.80
   7   0   2 1287.17   43.70
   7   0   2 1303.97   43.80
  -8   0  -2  367.76   16.70
  -8   0  -2  355.56   17.00
   8   0   2  338.87   14.40
   8   0   2  386.66   17.20
   8   0   2  357.56   17.00
   8   0   2  355.76   17.40
   8   0   2  340.77   12.40
   8   0   2  346.17   17.00
  -9   0  -2   39.90    6.30
   9   0   2   38.60    7.30
   9   0   2   38.40    3.20
   9   0   2   47.50    7.20
   9   0   2   45.00    7.30
   9   0   2   36.20    4.70
   9  -1  -2   24.00    4.70
   9  -1  -2   25.00    5.40
   9  -1  -2   40.00    5.20
   9  -1  -2   25.00    4.90
   9  -1  -2   37.80    7.20
   8  -1  -2   87.29    7.20
   8  -1  -2   91.29    7.60
   8  -1  -2   75.69    6.90
   8  -1  -2   95.29    9.10
   8  -1  -2   87.99   10.30
   8  -1  -2  102.79    9.20
   8  -1  -2   95.89    9.10
   7  -1  -2 1560.64   49.30
   7  -1  -2 1549.24   52.39
   7  -1  -2 1534.45   52.09
   7  -1  -2 1589.54   53.59
   7  -1  -2 1603.34   49.70
   7  -1  -2 1616.74   52.89
   7  -1  -2 1634.64   51.09
   6  -1  -2  935.81   33.90
   6  -1  -2 1011.60   33.70
   6  -1  -2 1001.10   33.80
   6  -1  -2  964.40   33.20
   6  -1  -2  948.81   32.30
   6  -1  -2  984.60   31.50
   6  -1  -2  927.61   33.00
   6  -1  -2  977.00   31.30
   6  -1  -2  985.60   32.70
  -6   1   2  995.00   32.70
  -6   1   2  973.80   34.40
   5  -1  -2  749.53   26.20
   5  -1  -2  722.73   25.50
   5  -1  -2  721.13   23.90
   5  -1  -2  827.52   28.50
   5  -1  -2  755.52   26.00
   5  -1  -2  752.82   26.20
   5  -1  -2  763.42   26.20
   5  -1  -2  768.92   25.90
   5  -1  -2  723.13   25.10
  -5   1   2  763.82   25.60
  -5   1   2  755.42   26.90
   4  -1  -2   11.20    2.90
   4  -1  -2   12.40    2.50
   4  -1  -2    8.30    2.70
   4  -1  -2    9.50    2.70
   4  -1  -2   11.00    2.70
   4  -1  -2   11.40    2.20
   4  -1  -2    5.90    2.20
   4  -1  -2   11.10    2.80
   4  -1  -2   11.10    2.90
  -4   1   2   11.80    2.60
  -4   1   2   10.80    3.00
  -4   1   2   18.70    4.00
   3  -1  -2 1503.65   46.10
   3  -1  -2 1507.45   47.20
   3  -1  -2 1438.36   45.10
   3  -1  -2 1565.74   46.90
   3  -1  -2 1594.04   46.90
   3  -1  -2 1579.74   46.70
  -3   1   2 1644.34   49.00
  -3   1   2 1487.95   46.10
  -3   1   2 1550.54   47.00
  -3   1   2 1485.75   46.50
   2  -1  -2  651.73   20.80
   2  -1  -2  675.53   21.70
   2  -1  -2  675.53   21.20
  -2   1   2  660.23   20.90
  -2   1   2  694.53   21.40
  -2   1   2  654.63   21.70
  -2   1   2  683.23   21.20
  -2   1   2  651.53   20.80
   1  -1  -2  976.20   30.20
   1  -1  -2  987.70   30.00
   1  -1  -2  985.70   29.20
   1  -1  -2  986.40   29.50
  -1   1   2  957.40   30.00
  -1   1   2  951.40   28.60
  -1   1   2  956.00   29.50
   0  -1  -2  190.18    8.10
   0  -1  -2  178.58    6.90
   0  -1  -2  175.88    6.70
   0   1   2  186.58    7.80
   0   1   2  178.48    7.10
   0   1   2  181.78    7.40
   0   1   2  176.38    6.90
  -1  -1  -2 1140.09   35.70
  -1  -1  -2 1099.79   33.90
  -1  -1  -2 1108.69   32.90
  -1  -1  -2 1145.89   34.80
   1   1   2 1192.88   35.30
   1   1   2 1078.19   34.60
   1   1   2 1099.29   33.90
   1   1   2 1130.99   34.80
  -2  -1  -2  357.66   11.80
  -2  -1  -2  378.86   13.10
  -2  -1  -2  363.26   14.90
  -2  -1  -2  367.06   12.00
  -2  -1  -2  389.86   14.00
  -2  -1  -2  384.86   13.30
   2   1   2  369.36   12.20
   2   1   2  367.76   14.00
   2   1   2  373.26   13.80
   2   1   2  374.26   14.40
  -3  -1  -2 1203.18   39.40
  -3  -1  -2 1148.59   36.40
  -3  -1  -2 1190.68   36.60
  -3  -1  -2 1143.59   39.60
  -3  -1  -2 1175.78   34.60
  -3  -1  -2 1132.79   35.40
  -3  -1  -2 1126.39   38.60
   3   1   2 1188.58   37.50
   3   1   2 1174.88   38.20
   3   1   2 1152.48   37.70
   3   1   2 1161.88   35.20
   3   1   2 1146.59   35.00
   3   1   2 1128.89   34.40
  -4  -1  -2  161.28    9.10
  -4  -1  -2  160.68    8.60
  -4  -1  -2  158.38    8.20
  -4  -1  -2  152.58    8.10
  -4  -1  -2  156.88    8.50
  -4  -1  -2  143.29    9.90
   4   1   2  157.08    8.00
   4   1   2  146.79    6.40
   4   1   2  156.48    8.90
   4   1   2  150.98    7.00
   4   1   2  149.69    5.80
   4   1   2  157.18    9.90
   4   1   2  167.88    9.60
  -5  -1  -2  923.61   31.20
  -5  -1  -2  906.11   32.40
  -5  -1  -2  933.01   31.00
  -5  -1  -2  939.21   31.10
   5   1   2  947.31   31.90
   5   1   2  896.91   30.70
   5   1   2  911.21   30.70
   5   1   2  927.51   33.10
   5   1   2  890.61   28.30
   5   1   2  940.21   33.00
   5   1   2  970.50   33.40
   5   1   2  912.31   31.60
   5   1   2  913.31   31.70
  -6  -1  -2    1.20    3.40
  -6  -1  -2    1.70    4.10
  -6  -1  -2    1.00    4.00
  -6  -1  -2    3.90    3.80
   6   1   2    1.00    4.00
   6   1   2    3.80    3.10
   6   1   2    3.10    4.20
   6   1   2    1.60    4.90
   6   1   2   -0.60    2.80
   6   1   2    1.20    1.70
   6   1   2    1.90    4.30
   6   1   2   -0.30    2.70
   6   1   2    0.10    4.90
  -7  -1  -2  634.14   24.70
  -7  -1  -2  615.24   25.30
  -7  -1  -2  748.83   27.80
   7   1   2  652.83   24.70
   7   1   2  653.03   21.20
   7   1   2  630.44   27.60
   7   1   2  654.43   25.80
   7   1   2  690.43   27.50
  -8  -1  -2    2.70    3.90
  -8  -1  -2    1.50    3.60
   8   1   2    2.70    2.40
   8   1   2    3.50    4.90
   8   1   2   -2.60    1.60
   8   1   2   -0.40    3.90
   8   1   2   -3.70    4.50
  -9  -1  -2  596.44   24.00
  -9  -1  -2  563.94   23.30
   9   1   2  558.04   20.00
   9   1   2  536.85   17.90
   9   1   2  531.85   23.70
   9   1   2  617.24   21.80
   9   1   2  542.45   22.70
   9   1   2  577.84   25.50
   9  -2  -2  243.88   12.60
   9  -2  -2  242.38   13.30
   9  -2  -2  244.18   14.10
   9  -2  -2  211.88   10.40
   9  -2  -2  226.18   14.10
   8  -2  -2   73.49    7.60
   8  -2  -2   66.29    8.30
   8  -2  -2   92.89    9.70
   8  -2  -2   68.79    5.80
   8  -2  -2   84.89    8.60
  -8   2   2   85.49   10.40
   7  -2  -2  128.79    9.10
   7  -2  -2  115.39    9.50
   7  -2  -2  130.79    8.50
   7  -2  -2  125.79    9.60
   7  -2  -2  110.49    8.00
   6  -2  -2  339.17   15.00
   6  -2  -2  325.37   11.50
   6  -2  -2  320.97   14.90
   6  -2  -2  330.27   14.90
   6  -2  -2  322.17   13.50
   6  -2  -2  329.67   14.50
   6  -2  -2  293.27   13.60
   6  -2  -2  318.67   13.50
  -6   2   2  329.17   15.60
  -6   2   2  314.47   14.40
   5  -2  -2 1413.86   45.00
   5  -2  -2 1423.46   46.00
   5  -2  -2 1481.15   46.40
   5  -2  -2 1432.66   45.60
   5  -2  -2 1477.15   46.50
   5  -2  -2 1457.15   45.10
   5  -2  -2 1435.66   46.50
   5  -2  -2 1431.16   46.30
   5  -2  -2 1454.45   43.10
  -5   2   2 1445.76   45.90
  -5   2   2 1453.45   45.30
  -5   2   2 1500.45   46.90
  -5   2   2 1393.06   45.20
   4  -2  -2  148.19    7.90
   4  -2  -2  156.08    8.40
   4  -2  -2  146.09    8.20
   4  -2  -2  154.58    7.80
   4  -2  -2  143.29    5.20
  -4   2   2  153.38    7.60
  -4   2   2  150.88    8.50
  -4   2   2  147.99    7.50
  -4   2   2  144.29    7.80
   3  -2  -2  376.36   13.50
   3  -2  -2  354.26   12.90
   3  -2  -2  357.86   13.10
   3  -2  -2  364.96   14.00
  -3   2   2  351.26   12.60
  -3   2   2  394.86   13.90
  -3   2   2  358.76   13.40
  -3   2   2  342.77   12.90
   2  -2  -2   24.40    3.20
   2  -2  -2   26.40    3.40
   2  -2  -2   26.70    2.70
   2  -2  -2   26.80    4.00
  -2   2   2   22.50    2.80
  -2   2   2   24.60    3.50
  -2   2   2   26.30    3.10
   1  -2  -2 3282.77   96.49
   1  -2  -2 3357.06   96.89
   1  -2  -2 3221.48   96.19
  -1   2   2 3406.66   96.59
  -1   2   2 3220.18   96.09
  -1   2   2 3198.88   96.39
  -1   2   2 3108.29   95.19
   0  -2  -2  583.04   20.10
   0  -2  -2  588.74   19.10
   0  -2  -2  570.74   18.60
   0   2   2  572.54   18.60
   0   2   2  554.54   17.20
   0   2   2  599.94   19.70
   0   2   2  582.94   19.00
  -1  -2  -2  798.82   28.00
  -1  -2  -2  842.72   25.80
  -1  -2  -2  840.42   26.80
  -1  -2  -2  809.62   25.30
   1   2   2  809.82   26.40
   1   2   2  812.62   25.20
   1   2   2  850.51   27.70
   1   2   2  825.02   24.20
  -2  -2  -2    2.90    3.50
  -2  -2  -2    3.40    1.50
  -2  -2  -2    4.30    3.10
  -2  -2  -2    2.30    1.60
   2   2   2    3.90    3.30
   2   2   2    2.80    2.90
   2   2   2    2.60    1.20
   2   2   2    3.00    1.40
  -3  -2  -2  451.35   19.50
  -3  -2  -2  468.55   16.70
  -3  -2  -2  466.75   15.70
  -3  -2  -2  487.35   17.30
  -3  -2  -2  501.35   18.40
   3   2   2  468.85   16.40
   3   2   2  463.45   18.20
   3   2   2  481.25   19.30
   3   2   2  451.45   14.80
   3   2   2  468.35   15.50
   3   2   2  494.55   15.60
  -4  -2  -2   72.19    5.70
  -4  -2  -2   71.69    6.40
  -4  -2  -2   65.19    4.20
  -4  -2  -2   67.59    6.70
  -4  -2  -2   66.39    7.40
   4   2   2   67.19    3.50
   4   2   2   68.99    6.80
   4   2   2   70.19    4.20
   4   2   2   59.99    8.00
   4   2   2   70.59    4.70
   4   2   2   64.09    7.40
   4   2   2   62.29    6.20
  -5  -2  -2 2475.15   72.89
  -5  -2  -2 2369.86   73.09
  -5  -2  -2 2422.16   72.59
  -5  -2  -2 2274.77   76.39
  -5  -2  -2 2323.77   74.59
   5   2   2 2301.67   69.59
   5   2   2 2358.16   74.09
   5   2   2 2398.06   70.49
   5   2   2 2375.16   75.09
   5   2   2 2349.96   72.39
   5   2   2 2371.26   75.99
   5   2   2 2271.67   72.39
  -6  -2  -2   20.60    5.40
  -6  -2  -2   17.90    4.30
  -6  -2  -2   20.80    5.30
  -6  -2  -2   23.20    4.40
   6   2   2   21.60    2.90
   6   2   2   26.10    5.50
   6   2   2   18.30    4.00
   6   2   2   18.40    4.90
   6   2   2   23.80    5.70
   6   2   2   20.10    3.60
   6   2   2   27.80    6.20
   6   2   2   21.50    3.20
  -7  -2  -2    3.60    4.10
  -7  -2  -2    3.50    4.20
  -7  -2  -2    5.10    4.80
  -7  -2  -2   10.10    5.50
   7   2   2    5.70    2.00
   7   2   2   -1.10    4.50
   7   2   2    9.10    2.20
   7   2   2    5.70    5.10
   7   2   2   11.10    5.80
   7   2   2    8.10    4.70
   7   2   2    4.40    1.90
   7   2   2    8.20    3.80
   7   2   2    2.40    3.80
  -8  -2  -2  501.05   20.80
  -8  -2  -2  461.65   21.10
  -8  -2  -2  477.55   20.30
   8   2   2  488.55   16.30
   8   2   2  507.75   24.10
   8   2   2  481.65   16.10
   8   2   2  520.15   22.40
  -9  -2  -2   23.80    6.00
   9   2   2   28.80    6.90
   9   2   2   28.40    3.70
   9   2   2   29.60    7.50
   9  -3  -2  100.69    9.40
   9  -3  -2   97.39    9.70
   9  -3  -2   90.39    9.30
  -9   3   2  113.69   11.00
   8  -3  -2   64.39    8.80
   8  -3  -2   70.29    8.30
   8  -3  -2   72.09    6.60
  -8   3   2   65.49    9.60
   7  -3  -2   66.59    8.00
   7  -3  -2   72.49    4.60
   7  -3  -2   78.69    8.10
   7  -3  -2   70.39    8.70
   7  -3  -2   74.99    7.90
   7  -3  -2   64.09    6.40
   7  -3  -2   74.09   10.90
   7  -3  -2   75.99    7.30
  -7   3   2   67.89    8.00
  -7   3   2   78.09    8.90
   6  -3  -2  349.37   16.70
   6  -3  -2  445.26   17.00
   6  -3  -2  451.75   18.40
   6  -3  -2  444.16   18.20
   6  -3  -2  404.16   15.30
   6  -3  -2  426.06   18.00
   6  -3  -2  420.26   16.20
   6  -3  -2  476.55   18.80
   6  -3  -2  410.46   13.70
  -6   3   2  425.26   17.60
  -6   3   2  445.56   18.60
   5  -3  -2 3669.43  111.09
   5  -3  -2 3459.95  107.59
   5  -3  -2 3687.23  111.99
   5  -3  -2 3570.44  109.39
   5  -3  -2 3737.33  110.59
   5  -3  -2 3759.32  111.99
  -5   3   2 3732.33  110.99
  -5   3   2 3559.84  110.49
  -5   3   2 4046.10  112.29
   4  -3  -2  493.85   17.30
   4  -3  -2  505.35   18.10
   4  -3  -2  496.75   18.90
  -4   3   2  534.15   18.90
  -4   3   2  522.55   18.60
  -4   3   2  489.45   17.30
  -4   3   2  500.15   18.10
   3  -3  -2   98.79    6.40
   3  -3  -2   98.49    6.40
   3  -3  -2  104.09    5.80
  -3   3   2   94.49    5.00
  -3   3   2   98.49    6.20
  -3   3   2   98.49    6.30
   2  -3  -2  827.42   27.30
   2  -3  -2  813.62   27.00
   2  -3  -2  837.22   28.30
  -2   3   2  770.82   25.00
  -2   3   2  943.01   27.30
  -2   3   2  810.52   26.70
  -2   3   2  811.32   26.00
  -2   3   2  824.52   24.90
   1  -3  -2  798.42   26.40
   1  -3  -2  778.62   27.00
   1  -3  -2  753.32   25.30
  -1   3   2  825.62   25.80
  -1   3   2  788.12   24.00
  -1   3   2  751.42   25.30
   0  -3  -2   69.39    4.40
   0  -3  -2   65.69    6.40
   0  -3  -2   65.79    5.10
   0  -3  -2   67.59    5.90
   0   3   2   68.49    5.50
   0   3   2   72.69    6.00
  -1  -3  -2 4231.28  120.79
  -1  -3  -2 4109.49  119.39
  -1  -3  -2 4009.10  121.99
  -1  -3  -2 3858.41  118.09
   1   3   2 3983.70  118.19
   1   3   2 3975.70  119.39
  -2  -3  -2  186.28   11.50
  -2  -3  -2  191.68    7.10
  -2  -3  -2  195.68    8.60
  -2  -3  -2  191.18   10.00
   2   3   2  195.48    7.00
   2   3   2  192.58    9.20
   2   3   2  200.88    8.30
   2   3   2  213.88   11.50
   2   3   2  192.38    7.00
   2   3   2  191.88    7.90
  -3  -3  -2  985.10   36.30
  -3  -3  -2 1000.30   33.60
  -3  -3  -2  997.80   32.00
  -3  -3  -2  979.00   31.40
  -3  -3  -2  965.90   32.40
   3   3   2  981.30   30.20
   3   3   2  959.80   31.10
   3   3   2  994.90   31.00
   3   3   2  944.41   32.10
   3   3   2  990.70   35.10
   3   3   2  982.20   33.50
  -4  -3  -2  244.98   10.80
  -4  -3  -2  243.28   10.40
  -4  -3  -2  255.07   12.90
  -4  -3  -2  241.58   12.10
  -4  -3  -2  231.78   14.50
  -4  -3  -2  261.37   11.20
   4   3   2  249.38   14.20
   4   3   2  244.08    9.70
   4   3   2  250.17   12.90
   4   3   2  254.97   10.00
   4   3   2  242.48   10.70
  -5  -3  -2  346.87   14.50
  -5  -3  -2  347.47   17.10
  -5  -3  -2  323.27   18.40
  -5  -3  -2  337.57   13.30
  -5  -3  -2  352.76   16.10
  -5  -3  -2  338.37   14.60
   5   3   2  345.97   14.20
   5   3   2  356.86   14.20
   5   3   2  344.97   18.10
  -6  -3  -2   -3.80    5.00
  -6  -3  -2    3.40    3.30
  -6  -3  -2    0.20    3.70
   6   3   2    2.80    5.00
   6   3   2    0.60    4.70
   6   3   2    3.50    3.00
  -7  -3  -2   21.30    4.40
  -7  -3  -2   19.20    5.50
  -7  -3  -2   23.60    5.30
  -7  -3  -2   17.10    5.70
   7   3   2   29.00    6.80
   7   3   2   20.60    3.00
   7   3   2   27.70    7.60
   7   3   2   13.60    3.70
  -8  -3  -2   25.70    7.00
  -8  -3  -2   29.20    5.00
  -8  -3  -2   24.70    5.40
  -8  -3  -2   20.90    6.30
   8   3   2   19.20    4.90
   8   3   2   23.10    3.40
   8   3   2   33.00    7.10
   8   3   2   23.50    6.80
   9  -4  -2  539.95   23.20
   9  -4  -2  500.45   21.80
   8  -4  -2  102.19    9.30
   8  -4  -2   79.89    9.90
   8  -4  -2  104.59    6.10
   8  -4  -2  113.69    9.40
   8  -4  -2   96.49    5.40
  -8   4   2  115.59   11.00
  -8   4   2   95.39    9.40
   7  -4  -2    1.60    5.60
   7  -4  -2   -1.40    4.60
   7  -4  -2    6.30    2.70
   7  -4  -2    6.90    4.30
   7  -4  -2    2.90    4.40
   7  -4  -2    4.10    2.50
  -7   4   2    5.20    4.50
  -7   4   2    9.40    5.50
   6  -4  -2  760.62   29.30
   6  -4  -2  761.42   28.30
   6  -4  -2  829.22   28.10
   6  -4  -2  762.62   25.10
  -6   4   2  774.92   27.90
  -6   4   2  791.12   28.90
  -6   4   2  736.43   27.50
   5  -4  -2  509.65   19.80
   5  -4  -2  523.25   20.10
   5  -4  -2  531.45   18.30
   5  -4  -2  555.04   21.30
  -5   4   2  523.35   19.90
  -5   4   2  526.35   20.20
  -5   4   2  537.65   20.70
   4  -4  -2  731.43   24.00
   4  -4  -2  719.43   26.00
   4  -4  -2  719.03   25.20
  -4   4   2  744.13   22.30
  -4   4   2  728.73   24.60
  -4   4   2  678.63   24.80
   3  -4  -2 2030.10   62.59
   3  -4  -2 2021.30   61.69
   3  -4  -2 2011.50   61.89
  -3   4   2 2047.80   61.09
  -3   4   2 1971.10   59.29
  -3   4   2 1959.90   61.69
   2  -4  -2  128.09    7.80
   2  -4  -2  132.79    7.90
   2  -4  -2  129.79    7.70
  -2   4   2  126.69    5.80
  -2   4   2  121.89    6.20
  -2   4   2  134.89    7.20
   1  -4  -2  617.54   21.20
   1  -4  -2  597.74   22.50
   1  -4  -2  651.53   21.70
   1  -4  -2  635.34   21.80
  -1   4   2  608.54   21.20
  -1   4   2  589.04   22.00
   0  -4  -2  615.54   21.60
   0  -4  -2  610.94   21.60
   0  -4  -2  628.34   20.60
   0  -4  -2  616.94   23.50
   0   4   2  597.74   21.20
   0   4   2  631.24   22.80
  -1  -4  -2 1800.62   60.19
  -1  -4  -2 1819.92   55.59
  -1  -4  -2 1915.41   58.29
  -1  -4  -2 1824.92   57.29
  -1  -4  -2 1900.41   57.49
   1   4   2 1817.82   57.39
   1   4   2 1825.52   54.89
   1   4   2 1917.61   59.79
  -2  -4  -2 1828.82   55.79
  -2  -4  -2 1751.92   53.29
  -2  -4  -2 1827.12   57.19
  -2  -4  -2 1733.63   59.29
   2   4   2 1784.72   53.99
   2   4   2 1830.42   58.99
   2   4   2 1794.32   57.49
  -3  -4  -2   87.69    6.20
  -3  -4  -2   87.09    6.70
  -3  -4  -2   96.09    9.60
  -3  -4  -2   96.99    8.50
   3   4   2   92.09    5.00
   3   4   2   90.19    5.80
   3   4   2   96.99    6.10
   3   4   2  111.39    9.70
   3   4   2   89.69    7.10
  -4  -4  -2  272.07   12.00
  -4  -4  -2  301.77   15.30
  -4  -4  -2  246.58   16.00
  -4  -4  -2  271.57   13.50
  -4  -4  -2  266.87   11.50
  -4  -4  -2  271.87   12.10
   4   4   2  278.77   11.40
   4   4   2  272.57   15.90
   4   4   2  276.27   10.60
   4   4   2  262.67   11.50
   4   4   2  276.67   12.80
  -5  -4  -2   12.40    5.20
  -5  -4  -2   16.60    3.30
  -5  -4  -2   15.10    4.50
  -5  -4  -2   15.70    3.80
  -5  -4  -2   13.30    6.10
  -5  -4  -2    8.00    4.50
   5   4   2   21.10    3.80
   5   4   2   17.00    3.30
   5   4   2   23.50    6.50
   5   4   2   17.90    5.10
   5   4   2   15.90    3.70
  -6  -4  -2  500.65   22.60
  -6  -4  -2  488.05   18.90
  -6  -4  -2  481.15   19.40
  -6  -4  -2  477.05   21.30
   6   4   2  471.25   17.80
   6   4   2  509.25   24.60
   6   4   2  465.15   22.00
   6   4   2  503.45   18.00
   6   4   2  461.25   19.70
  -7  -4  -2   73.79    7.50
  -7  -4  -2   66.59    9.20
  -7  -4  -2   69.39    9.20
  -7  -4  -2   74.99    7.90
   7   4   2   57.29    7.00
   7   4   2   80.69   11.40
   7   4   2   73.89    6.10
   7   4   2   73.39   10.10
   7   4   2   70.29    8.90
  -8  -4  -2   51.79    9.80
  -8  -4  -2   77.89    8.70
  -8  -4  -2   62.49   11.60
   8   4   2   68.29   12.00
   8   4   2   74.39    5.90
   8  -5  -2  909.21   33.60
   8  -5  -2  887.91   31.70
  -8   5   2  834.52   32.00
  -8   5   2  784.22   33.00
   7  -5  -2   -0.90    4.80
   7  -5  -2    8.10    4.50
  -7   5   2   10.20    4.90
  -7   5   2    8.50    5.50
  -7   5   2    8.80    4.70
   6  -5  -2  477.05   15.90
   6  -5  -2  460.45   20.30
  -6   5   2  439.16   22.30
   5  -5  -2  126.19    8.60
   5  -5  -2  126.49    9.50
   5  -5  -2  132.69    9.90
   5  -5  -2  123.99    6.90
  -5   5   2  117.39    9.00
  -5   5   2  125.89    6.20
  -5   5   2  137.09    9.00
  -5   5   2  120.29    9.50
   4  -5  -2  779.12   27.20
   4  -5  -2  761.42   26.00
   4  -5  -2  767.32   27.80
  -4   5   2  794.12   24.30
  -4   5   2  758.62   26.20
  -4   5   2  706.63   26.60
   3  -5  -2   17.90    3.90
   3  -5  -2   18.90    4.00
   3  -5  -2   17.10    4.40
   3  -5  -2   18.70    3.50
  -3   5   2   16.60    3.60
  -3   5   2   14.40    3.90
  -3   5   2   16.90    2.90
  -3   5   2   19.40    4.30
   2  -5  -2 1563.14   49.30
   2  -5  -2 1525.95   50.09
   2  -5  -2 1541.45   49.60
   2  -5  -2 1556.64   49.30
  -2   5   2 1667.93   50.59
  -2   5   2 1547.85   47.10
  -2   5   2 1514.15   47.30
  -2   5   2 1490.95   48.80
   1  -5  -2  291.27   14.30
   1  -5  -2  301.87   12.30
   1  -5  -2  278.87   12.70
   1  -5  -2  289.27   13.00
  -1   5   2  264.67   12.40
  -1   5   2  307.77   13.30
   0  -5  -2   22.40    4.30
   0  -5  -2   17.90    3.80
   0  -5  -2   18.10    3.00
   0   5   2   18.80    3.90
   0   5   2   21.70    4.60
  -1  -5  -2  351.96   17.40
  -1  -5  -2  344.77   14.70
  -1  -5  -2  354.36   12.80
  -1  -5  -2  356.66   15.20
  -1  -5  -2  371.46   15.90
   1   5   2  368.16   17.00
   1   5   2  346.17   11.60
   1   5   2  349.07   14.60
  -2  -5  -2 2094.59   65.49
  -2  -5  -2 2035.90   69.39
  -2  -5  -2 2104.39   62.19
  -2  -5  -2 2084.69   66.69
   2   5   2 2204.88   68.89
   2   5   2 2050.19   64.79
   2   5   2 2057.49   62.49
  -3  -5  -2    8.30    3.60
  -3  -5  -2    7.20    3.00
  -3  -5  -2    2.90    3.90
  -3  -5  -2    3.00    4.80
   3   5   2    6.20    3.10
   3   5   2   -2.30    3.60
   3   5   2    7.80    3.00
   3   5   2    7.60    5.10
  -4  -5  -2  855.81   30.00
  -4  -5  -2  849.72   31.00
  -4  -5  -2  888.41   32.80
  -4  -5  -2  840.12   28.70
  -4  -5  -2  848.62   28.30
   4   5   2  840.22   28.70
   4   5   2  853.41   34.30
   4   5   2  822.52   28.00
   4   5   2  808.22   29.60
   4   5   2  820.62   27.10
  -5  -5  -2    6.20    4.70
  -5  -5  -2    6.30    4.30
  -5  -5  -2   -2.30    4.00
  -5  -5  -2    8.10    5.20
  -5  -5  -2    9.00    7.10
  -5  -5  -2    6.50    3.50
   5   5   2    9.30    6.10
   5   5   2    6.30    4.40
   5   5   2    4.90    2.60
   5   5   2    9.10    3.10
   5   5   2   11.40    3.50
  -6  -5  -2    3.20    5.30
  -6  -5  -2   -0.40    5.20
  -6  -5  -2    2.70    3.30
  -6  -5  -2   -6.70    3.70
   6   5   2   -2.00    2.40
   6   5   2   -1.20    5.60
   6   5   2   -2.40    2.80
   6   5   2    4.90    4.30
  -7  -5  -2    3.70    4.30
  -7  -5  -2    8.90    5.10
  -7  -5  -2   -4.10    3.80
  -7  -5  -2    6.00    3.20
  -7  -5  -2    7.90    5.40
   7   5   2    2.70    4.00
   7   5   2    1.70    3.00
   7   5   2    7.20    6.20
   7   5   2   -1.60    5.90
   8  -6  -2  371.76   18.00
  -8   6   2  335.07   20.10
   7  -6  -2    2.50    5.10
   7  -6  -2   14.10    5.50
  -7   6   2    1.50    5.50
  -7   6   2    9.20    5.60
   6  -6  -2 1081.19   38.20
   6  -6  -2  970.60   35.90
   6  -6  -2 1088.49   37.00
  -6   6   2 1036.40   36.00
   5  -6  -2   -0.10    3.20
   5  -6  -2    0.50    3.30
   5  -6  -2   -8.90    4.60
   5  -6  -2    1.50    2.40
   5  -6  -2    1.90    3.20
   5  -6  -2    7.70    3.70
  -5   6   2    3.70    3.90
  -5   6   2   -0.70    2.80
   4  -6  -2   44.80    5.80
   4  -6  -2   54.89    7.80
   4  -6  -2   51.99    7.90
   4  -6  -2   49.40    6.40
   4  -6  -2   39.70    5.60
  -4   6   2   59.29    6.90
  -4   6   2   49.50    5.50
   3  -6  -2  394.56   16.80
   3  -6  -2  388.86   17.20
   3  -6  -2  385.86   16.90
   3  -6  -2  360.16   16.90
  -3   6   2  388.06   14.20
  -3   6   2  397.06   15.20
  -3   6   2  429.06   16.00
   2  -6  -2  953.30   33.20
   2  -6  -2  963.40   32.80
   2  -6  -2  940.11   34.10
  -2   6   2  945.01   30.70
  -2   6   2  970.40   30.80
  -2   6   2  988.00   32.40
   1  -6  -2  418.46   19.30
   1  -6  -2  418.56   17.80
   1  -6  -2  420.36   17.90
   1  -6  -2  432.46   16.90
  -1   6   2  425.86   17.40
  -1   6   2  460.45   18.30
   0  -6  -2    0.90    4.20
   0  -6  -2   -4.40    4.00
   0  -6  -2    0.60    2.90
   0  -6  -2   -0.20    2.90
   0   6   2    3.60    4.10
   0   6   2    5.30    4.50
  -1  -6  -2 1134.59   38.10
  -1  -6  -2 1127.99   38.00
  -1  -6  -2 1057.89   40.90
  -1  -6  -2 1115.89   38.60
   1   6   2 1072.39   36.70
   1   6   2 1120.89   39.90
  -2  -6  -2 1906.41   66.49
  -2  -6  -2 1965.50   63.79
  -2  -6  -2 1943.11   58.39
  -2  -6  -2 1904.21   62.19
   2   6   2 2012.50   65.89
   2   6   2 1948.01   61.39
  -3  -6  -2  211.48   15.80
  -3  -6  -2  220.48   10.30
  -3  -6  -2  205.38   12.20
   3   6   2  200.68    9.30
   3   6   2  195.88   11.60
  -4  -6  -2 1425.56   45.50
  -4  -6  -2 1432.86   47.80
  -4  -6  -2 1391.16   50.09
  -4  -6  -2 1443.36   45.20
   4   6   2 1410.86   47.10
   4   6   2 1470.65   52.69
   4   6   2 1329.07   44.40
   4   6   2 1469.65   46.60
  -5  -6  -2   71.29    9.80
  -5  -6  -2   54.99    7.20
  -5  -6  -2   65.79    6.00
  -5  -6  -2   62.89    8.10
  -5  -6  -2   56.19    9.30
   5   6   2   69.09    8.60
   5   6   2   66.89   11.20
   5   6   2   58.59    6.60
   5   6   2   62.49    6.90
   5   6   2   64.49    5.40
  -6  -6  -2  173.88   13.50
  -6  -6  -2  186.18   10.70
  -6  -6  -2  166.98    9.70
  -6  -6  -2  158.38   11.90
  -6  -6  -2  178.48   14.00
   6   6   2  192.38   10.40
   6   6   2  182.58    9.70
   6   6   2  199.08   16.90
  -7  -6  -2  216.48   10.90
  -7  -6  -2  211.68   12.00
  -7  -6  -2  216.88   17.70
  -7  -6  -2  161.28   14.70
  -7  -6  -2  213.28   15.80
   7   6   2  201.98   13.00
   7   6   2  245.78   19.40
   7   6   2  246.28   22.90
   7  -7  -2  421.06   19.90
  -7   7   2  415.56   18.70
  -7   7   2  373.66   19.80
   6  -7  -2  560.74   23.60
   6  -7  -2  558.04   23.20
  -6   7   2  541.75   17.80
  -6   7   2  461.95   22.20
  -6   7   2  529.15   21.50
   5  -7  -2   13.40    5.30
   5  -7  -2    7.50    4.50
  -5   7   2    2.50    3.30
  -5   7   2    8.60    4.50
   4  -7  -2   -4.70    2.60
   4  -7  -2   -4.30    5.50
   4  -7  -2    1.30    3.50
   4  -7  -2   -5.30    3.80
   4  -7  -2    0.60    3.20
  -4   7   2    2.60    3.80
  -4   7   2   -2.60    3.20
  -4   7   2    0.30    4.70
   3  -7  -2  154.98   11.70
   3  -7  -2  168.08   10.90
  -3   7   2  166.68    8.90
  -3   7   2  164.18   13.10
  -3   7   2  175.18   10.40
   2  -7  -2  112.69    8.60
   2  -7  -2   89.19    9.00
  -2   7   2   88.19    7.30
  -2   7   2   94.89    6.80
  -2   7   2  100.89    9.00
   1  -7  -2 1303.97   42.80
   1  -7  -2 1272.77   46.20
   1  -7  -2 1365.16   44.70
  -1   7   2 1332.17   44.50
  -1   7   2 1244.78   41.90
   0  -7  -2  328.37   18.50
   0  -7  -2  340.87   16.60
   0  -7  -2  349.37   14.30
   0   7   2  320.07   17.40
   0   7   2  353.96   17.40
  -1  -7  -2  993.10   31.90
  -1  -7  -2  988.50   38.90
  -1  -7  -2  977.40   35.00
   1   7   2  983.40   37.50
  -2  -7  -2  100.19    5.80
  -2  -7  -2   98.49   14.70
  -2  -7  -2  101.99   10.00
  -3  -7  -2  221.98   15.30
  -3  -7  -2  222.08   10.60
   3   7   2  242.48   16.70
   3   7   2  216.28   12.60
  -4  -7  -2   19.70    3.50
  -4  -7  -2   14.40    5.50
  -4  -7  -2   19.80    4.40
   4   7   2   18.80    7.20
   4   7   2   12.20    5.00
  -5  -7  -2   25.60    3.80
  -5  -7  -2   29.50    4.80
  -5  -7  -2   22.00    6.20
  -5  -7  -2   34.40    8.00
  -5  -7  -2   31.30    7.20
   5   7   2   28.70    8.40
   5   7   2   25.10    3.90
  -6  -7  -2    8.40    4.60
  -6  -7  -2    1.30    5.40
  -6  -7  -2    4.10    5.70
  -6  -7  -2    3.20    3.30
   6   7   2    2.00    7.60
   6   7   2   10.80    3.90
  -6   8   2   13.50    5.30
  -6   8   2   10.50    6.30
   5  -8  -2   11.10    4.60
   5  -8  -2    7.20    4.90
   5  -8  -2   15.50    6.20
  -5   8   2   16.00    4.70
   4  -8  -2   99.29    9.90
   4  -8  -2   95.79   10.50
   4  -8  -2   90.69    7.50
  -4   8   2   88.19    7.50
   3  -8  -2   28.30    5.30
   3  -8  -2   22.50    5.50
   3  -8  -2   17.80    5.70
   3  -8  -2   24.90    6.50
  -3   8   2   13.60    4.80
  -3   8   2   21.10    5.50
  -3   8   2   18.70    3.90
   2  -8  -2    0.10    5.10
   2  -8  -2   -2.00    4.20
   2  -8  -2    2.30    4.00
  -2   8   2   -1.00    4.10
  -2   8   2   -3.40    3.40
  -2   8   2    0.70    4.20
   1  -8  -2  466.35   18.70
   1  -8  -2  437.56   20.30
   1  -8  -2  452.35   22.20
  -1   8   2  430.16   19.70
  -1   8   2  436.76   17.90
   0  -8  -2   11.40    5.30
   0  -8  -2   16.40    4.00
   0   8   2   12.70    5.50
  -1  -8  -2  809.72   27.00
  -1  -8  -2  785.72   31.70
  -1  -8  -2  781.22   34.30
  -1  -8  -2  808.62   30.80
   1   8   2  826.42   33.00
  -2  -8  -2   -1.40    5.50
   2   8   2   -2.80    4.90
  -3  -8  -2    6.10    6.10
  -3  -8  -2   15.50    3.40
  -3  -8  -2   10.40    3.20
   3   8   2   16.00    6.90
  -4  -8  -2   14.90    3.30
  -4  -8  -2    4.70    6.00
  -4  -8  -2   13.30    4.00
   4   8   2   25.10    8.00
   4   8   2   16.40    3.30
   5  -9  -2   59.39    8.90
  -5   9   2   36.40    6.60
  -5   9   2   74.19    8.00
   4  -9  -2   17.60    5.60
  -4   9   2   26.60    4.70
   3  -9  -2  594.74   24.70
   3  -9  -2  540.25   20.00
   3  -9  -2  612.14   23.90
  -3   9   2  464.45   22.10
  -3   9   2  554.64   22.10
  -3   9   2  510.35   20.20
   2  -9  -2   23.10    6.40
   2  -9  -2   13.90    4.60
   2  -9  -2    7.90    6.10
  -2   9   2   17.00    5.30
  -2   9   2   14.10    3.70
   1  -9  -2   14.60    6.00
   1  -9  -2    9.80    6.90
  -1   9   2   10.10    5.40
  -1   9   2   14.10    6.80
   0  -9  -2   15.50    4.00
   0  -9  -2   13.40    5.90
   0   9   2   10.60    5.80
  -1  -9  -2  254.87   11.70
  -1  -9  -2  256.77   16.20
   1   9   2  266.17   17.10
  -2  -9  -2    2.80    5.10
   2   9   2   -2.20    6.40
  -3  -9  -2  104.19    7.30
  -3  -9  -2  106.09    7.40
   1 -10  -2   82.49   11.70
  -1  10   2   87.79    7.00
  -1  10   2   69.29    9.80
   1  10  -3   -2.10    4.60
   0  10  -3  165.58   14.50
   0 -10   3  139.79   10.80
  -1  10  -3  159.58   20.70
   1 -10   3  163.88   12.30
  -2  10  -3  122.39   11.20
   2 -10   3  133.49    8.40
   2 -10   3  163.68   12.90
  -3  10  -3   -4.80    3.50
   3   9  -3    7.70    4.50
   3   9  -3    8.00    6.30
   3   9  -3   -0.90    6.70
  -3  -9   3    0.20    2.60
  -3  -9   3    1.70    3.40
  -3  -9   3   13.40    7.10
   2   9  -3   76.49   11.90
   2   9  -3   53.99    7.90
  -2  -9   3   48.90    9.50
  -2  -9   3   49.50    6.40
  -2  -9   3   63.99    6.20
  -2  -9   3   61.89    8.70
   1   9  -3   17.20    7.20
   1   9  -3   20.80    5.30
   1   9  -3   20.00    5.80
  -1  -9   3   19.20    3.50
  -1  -9   3   14.90    4.50
   0   9  -3   92.99   10.50
   0   9  -3   84.59    8.90
   0  -9   3  102.99    7.90
   0  -9   3   98.79    9.20
  -1   9  -3   40.40    6.50
  -1   9  -3   45.80    8.80
   1  -9   3   39.70    7.10
  -2   9  -3 1076.79   38.90
   2  -9   3 1135.19   36.50
   3  -9   3   58.29    8.10
   3  -9   3   67.49    7.10
   4  -9   3    5.60    5.50
   4  -9   3    5.00    4.30
  -5   9  -3   -2.70    3.70
   5   8  -3    0.30    3.00
   5   8  -3    8.50    5.70
  -5  -8   3    8.30    4.10
  -5  -8   3   -6.40    6.50
   4   8  -3   87.99   14.20
   4   8  -3  112.89   10.10
   4   8  -3   90.39    7.00
  -4  -8   3  126.99   12.90
  -4  -8   3  106.49   12.70
   3   8  -3   71.39    7.10
   3   8  -3  110.39   13.40
   3   8  -3   80.09    8.70
  -3  -8   3   82.89    6.80
  -3  -8   3   97.39   11.80
  -3  -8   3   71.09    5.60
   2   8  -3  863.21   29.90
   2   8  -3  862.21   33.50
   2   8  -3  926.01   38.00
  -2  -8   3  864.91   31.10
  -2  -8   3  904.21   29.50
   1   8  -3    4.40    3.50
   1   8  -3   -3.70    4.10
   1   8  -3    2.80    5.90
  -1  -8   3   -0.30    2.60
  -1  -8   3   -3.00    3.00
  -1  -8   3    2.50    4.20
   0   8  -3  246.38   15.90
   0   8  -3  227.28   14.20
   0   8  -3  232.18   12.30
   0   8  -3  241.08   13.00
   0  -8   3  247.78   11.70
   0  -8   3  226.08   16.40
   0  -8   3  236.58    8.80
   0  -8   3  243.08   13.00
   0  -8   3  228.08    9.70
  -1   8  -3  118.69    9.60
  -1   8  -3  110.39   11.60
  -1   8  -3  122.29   11.10
  -1   8  -3  110.49   10.50
   1  -8   3  115.89    6.60
   1  -8   3  131.39    9.60
   1  -8   3   95.29    9.80
  -2   8  -3  259.97   13.80
  -2   8  -3  270.97   13.90
   2  -8   3  263.57   14.80
   2  -8   3  269.17   15.90
   2  -8   3  271.37   11.90
  -3   8  -3  116.49   14.60
   3  -8   3   97.19    9.70
   3  -8   3   99.69    9.70
   3  -8   3   92.59    7.80
  -4   8  -3  100.69    9.70
  -4   8  -3   97.19    7.40
   4  -8   3  108.69   11.50
   4  -8   3  131.89   10.70
  -5   8  -3   -4.00    3.70
  -5   8  -3  -10.50    7.70
   5  -8   3   -3.30    5.40
   5  -8   3   -3.60    2.70
  -6   8  -3    0.70    4.30
  -6   8  -3   -1.50    5.20
   6  -8   3   -2.60    3.30
   6   7  -3  360.46   18.80
  -6  -7   3  344.27   20.70
  -6  -7   3  285.07   23.20
  -6  -7   3  374.16   16.80
   5   7  -3  141.09   11.90
   5   7  -3  168.08   16.70
  -5  -7   3  160.98   10.40
  -5  -7   3  131.29   13.10
   4   7  -3  576.84   29.30
   4   7  -3  583.14   24.40
  -4  -7   3  540.95   25.50
  -4  -7   3  589.04   21.80
   3   7  -3    3.80    6.10
   3   7  -3    2.00    3.00
   3   7  -3    8.50    3.70
  -3  -7   3    4.30    2.60
  -3  -7   3    6.50    5.00
  -3  -7   3   14.70    3.90
   2   7  -3  310.07   13.10
   2   7  -3  306.87   18.30
   2   7  -3  335.97   19.50
  -2  -7   3  309.07   12.90
  -2  -7   3  343.67   13.20
  -2  -7   3  324.17   14.20
   1   7  -3  229.88   13.10
   1   7  -3  216.18   10.60
   1   7  -3  237.38   16.00
  -1  -7   3  216.48   11.30
  -1  -7   3  220.78    9.80
  -1  -7   3  212.58   10.20
   0   7  -3   47.50    6.20
   0   7  -3   60.89    8.30
   0   7  -3   49.99    7.40
   0  -7   3   54.29    3.70
   0  -7   3   41.70    6.40
   0  -7   3   48.20    5.80
  -1   7  -3    0.40    3.00
  -1   7  -3   -3.30    3.80
  -1   7  -3    5.00    4.20
   1  -7   3    1.70    2.30
   1  -7   3    1.40    3.80
   1  -7   3   -0.90    3.60
  -2   7  -3  205.28   11.10
  -2   7  -3  154.28   10.00
  -2   7  -3  207.68   11.40
  -2   7  -3  196.48   11.90
   2  -7   3  187.58    9.20
   2  -7   3  198.38   11.90
   2  -7   3  196.78   11.90
  -3   7  -3  641.24   22.70
   3  -7   3  658.03   25.70
   3  -7   3  693.33   25.70
   3  -7   3  655.53   23.70
  -4   7  -3  220.28   13.10
  -4   7  -3  220.58   10.20
   4  -7   3  222.98   12.70
   4  -7   3  226.08   11.70
   4  -7   3  222.98   13.70
   4  -7   3  213.28   12.50
  -5   7  -3  432.96   16.90
   5  -7   3  431.56   19.50
   5  -7   3  451.45   21.50
   5  -7   3  433.26   18.90
  -6   7  -3  111.69    8.40
  -6   7  -3   96.69   10.10
  -6   7  -3   99.39   13.20
   6  -7   3   96.99    7.90
   6  -7   3  102.69    9.80
   6  -7   3  101.79   10.10
   6  -7   3   94.59   10.20
  -7   7  -3    1.20    6.50
  -7   7  -3    6.50    4.70
   7  -7   3    3.50    4.40
   7  -7   3    2.50    3.90
   7  -7   3    4.80    4.80
   7   6  -3  101.09   10.20
   7   6  -3   79.69    4.60
  -7  -6   3   92.59   12.00
  -7  -6   3   86.49    9.80
   6   6  -3   40.70    6.90
   6   6  -3   49.99    4.20
   6   6  -3   52.19   10.60
  -6  -6   3   44.50    8.00
  -6  -6   3   46.00    7.80
  -6  -6   3   64.49    7.70
   5   6  -3  307.37   20.30
   5   6  -3  255.57   10.20
   5   6  -3  251.17   14.40
   5   6  -3  273.27   15.40
  -5  -6   3  276.17   15.70
  -5  -6   3  280.17   16.90
  -5  -6   3  261.17   15.40
  -5  -6   3  277.27   15.10
   4   6  -3   76.19   11.90
   4   6  -3   71.79    5.10
  -4  -6   3   69.19    3.80
  -4  -6   3   70.69    9.50
  -4  -6   3   64.19    7.10
   3   6  -3  108.89    8.90
   3   6  -3  117.39   11.30
   3   6  -3  110.09   12.60
   3   6  -3   97.49    6.30
  -3  -6   3  102.89    6.20
  -3  -6   3  105.69   10.10
  -3  -6   3  104.19    7.50
   2   6  -3   71.49   10.20
   2   6  -3   61.79    5.60
   2   6  -3   68.59    7.30
  -2  -6   3   71.69    6.30
  -2  -6   3   51.19    6.50
  -2  -6   3   63.79    5.80
   1   6  -3 1789.52   57.79
   1   6  -3 1961.00   63.69
   1   6  -3 1859.41   60.59
  -1  -6   3 1983.70   58.39
  -1  -6   3 1994.90   58.29
  -1  -6   3 1741.33   60.59
   0   6  -3  458.05   20.80
   0   6  -3  454.25   17.70
   0   6  -3  462.85   18.90
   0   6  -3  447.46   17.50
   0  -6   3  467.75   19.30
   0  -6   3  458.25   15.20
   0  -6   3  484.65   17.40
   0  -6   3  467.15   17.30
  -1   6  -3  478.65   18.40
  -1   6  -3  496.05   20.50
  -1   6  -3  499.45   19.50
  -1   6  -3  486.15   18.30
   1  -6   3  483.95   20.00
   1  -6   3  492.25   17.00
   1  -6   3  499.05   18.60
  -2   6  -3   88.39    7.00
  -2   6  -3   75.39    7.00
  -2   6  -3   79.69    7.80
  -2   6  -3   80.29    7.30
   2  -6   3   89.49    7.50
   2  -6   3   81.09    5.80
   2  -6   3   83.89    7.00
  -3   6  -3   16.00    4.40
  -3   6  -3   18.00    4.60
  -3   6  -3   20.80    3.30
   3  -6   3   24.00    5.90
   3  -6   3   22.60    3.70
   3  -6   3   19.70    4.00
   3  -6   3   16.30    5.00
  -4   6  -3   28.20    4.20
  -4   6  -3   16.80    5.80
   4  -6   3   27.30    4.70
   4  -6   3   37.80    6.10
   4  -6   3   27.60    5.50
   4  -6   3   39.50    4.90
  -5   6  -3  823.62   27.90
  -5   6  -3  815.32   30.50
   5  -6   3  838.72   30.50
   5  -6   3  833.52   28.90
   5  -6   3  823.82   29.40
  -6   6  -3   -0.20    4.10
  -6   6  -3    5.60    7.60
  -6   6  -3   -0.90    4.50
   6  -6   3   -0.20    3.00
   6  -6   3    0.40    3.30
   6  -6   3   -2.40    5.00
   6  -6   3    4.10    5.30
  -7   6  -3  243.18   14.80
  -7   6  -3  270.37   13.00
   7  -6   3  242.38   12.60
   7  -6   3  250.57   12.60
   7  -6   3  266.67   15.60
   7  -6   3  239.38   13.90
   8  -6   3    4.80    5.20
   8  -6   3    2.50    3.80
   7   5  -3  109.69    5.40
   7   5  -3  126.59   10.90
   7   5  -3  144.99   16.00
  -7  -5   3  122.89   11.50
  -7  -5   3  109.29   11.40
  -7  -5   3  143.69   10.80
   6   5  -3   60.69    8.60
   6   5  -3   76.19   12.90
   6   5  -3   57.49    4.00
  -6  -5   3   73.49    9.90
  -6  -5   3   68.19    8.80
  -6  -5   3   71.49    7.70
  -6  -5   3   46.10   11.80
   5   5  -3 1372.56   42.40
   5   5  -3 1378.56   48.70
   5   5  -3 1495.95   54.19
  -5  -5   3 1441.86   46.10
  -5  -5   3 1347.37   48.00
   4   5  -3  190.58   11.90
   4   5  -3  182.28   10.80
   4   5  -3  202.58   15.60
   4   5  -3  188.88    7.60
  -4  -5   3  181.88   12.60
  -4  -5   3  201.08   10.30
  -4  -5   3  189.28   11.40
  -4  -5   3  186.28   12.00
  -4  -5   3  197.78    7.50
   3   5  -3  981.10   34.50
   3   5  -3 1081.99   40.20
   3   5  -3 1017.00   31.90
   3   5  -3 1037.40   36.10
  -3  -5   3 1002.00   36.00
  -3  -5   3 1034.10   32.40
  -3  -5   3 1054.19   33.80
  -3  -5   3 1071.99   36.40
   2   5  -3  348.47   13.00
   2   5  -3  353.06   15.20
   2   5  -3  367.66   16.30
   2   5  -3  371.96   18.90
  -2  -5   3  362.16   16.00
  -2  -5   3  376.76   14.10
  -2  -5   3  376.86   13.60
  -2  -5   3  378.96   13.70
   1   5  -3   39.40    5.90
   1   5  -3   40.90    4.20
   1   5  -3   43.10    5.80
   1   5  -3   43.50    6.90
  -1  -5   3   46.70    4.90
  -1  -5   3   42.80    4.90
  -1  -5   3   39.70    5.30
   0   5  -3  554.14   22.20
   0   5  -3  553.24   20.60
   0   5  -3  529.95   18.90
   0   5  -3  532.65   19.20
   0  -5   3  548.95   21.00
   0  -5   3  540.25   19.20
   0  -5   3  553.54   17.50
   0  -5   3  554.44   19.00
  -1   5  -3  528.95   19.70
  -1   5  -3  517.55   18.30
  -1   5  -3  495.55   18.40
  -1   5  -3  515.45   20.20
   1  -5   3  515.85   19.80
   1  -5   3  507.35   17.40
   1  -5   3  511.05   18.50
  -2   5  -3  428.76   15.80
  -2   5  -3  399.06   16.00
  -2   5  -3  428.96   16.30
  -2   5  -3  442.96   16.90
   2  -5   3  406.76   15.50
   2  -5   3  417.76   16.80
   2  -5   3  421.26   16.20
   2  -5   3  438.16   16.80
  -3   5  -3   25.00    3.70
  -3   5  -3   30.80    3.50
  -3   5  -3   34.60    4.70
  -3   5  -3   16.00    4.70
   3  -5   3   25.20    3.90
   3  -5   3   28.60    4.80
   3  -5   3   31.50    5.00
   3  -5   3   22.30    4.40
  -4   5  -3  115.59    9.20
   4  -5   3  125.29    9.10
   4  -5   3  110.89    8.00
   4  -5   3  122.89    7.80
   4  -5   3  113.39    9.10
  -5   5  -3 2183.78   65.39
  -5   5  -3 2090.89   66.89
   5  -5   3 2199.28   65.79
   5  -5   3 2177.28   67.39
   5  -5   3 1984.30   66.99
   5  -5   3 2121.49   66.19
  -6   5  -3  198.78   12.50
  -6   5  -3  226.48   11.60
  -6   5  -3  211.08   13.70
   6  -5   3  205.28   12.50
   6  -5   3  230.98   13.50
   6  -5   3  200.88   10.50
   6  -5   3  229.38   11.20
   6  -5   3  224.78   11.50
  -7   5  -3  338.77   17.10
   7  -5   3  346.07   16.00
   7  -5   3  378.76   18.00
   7  -5   3  362.36   15.00
  -8   5  -3  130.39   14.30
  -8   5  -3   98.39   10.90
   8  -5   3  112.19    9.90
   8  -5   3  101.29    7.50
   8  -5   3  111.39   11.40
   8   4  -3  142.49   15.90
   8   4  -3  117.89   10.50
  -8  -4   3  116.89   13.00
  -8  -4   3  113.29   11.70
   7   4  -3  117.49    5.30
   7   4  -3  113.59    5.20
   7   4  -3  115.79   10.40
   7   4  -3  128.09   14.90
  -7  -4   3  111.69   10.50
  -7  -4   3  115.19    9.80
  -7  -4   3  119.99   10.30
   6   4  -3   19.00    4.50
   6   4  -3   19.40    2.80
   6   4  -3   18.20    6.70
   6   4  -3   17.60    7.10
   6   4  -3   21.00    4.70
  -6  -4   3   22.40    4.80
  -6  -4   3   14.00    5.20
  -6  -4   3   17.90    6.00
   5   4  -3  419.46   13.60
   5   4  -3  429.36   23.10
   5   4  -3  424.26   18.80
   5   4  -3  432.76   15.90
   5   4  -3  379.86   17.50
  -5  -4   3  416.06   18.50
  -5  -4   3  438.16   18.80
  -5  -4   3  444.96   17.50
  -5  -4   3  431.86   18.60
   4   4  -3   16.60    2.50
   4   4  -3   17.20    3.10
   4   4  -3   15.20    4.30
   4   4  -3   10.70    3.80
   4   4  -3   13.80    6.30
  -4  -4   3    7.20    4.00
  -4  -4   3   15.50    4.50
  -4  -4   3   17.10    4.70
  -4  -4   3    8.20    4.00
  -4  -4   3   11.90    2.30
   3   4  -3  912.61   31.90
   3   4  -3  943.81   29.20
   3   4  -3  940.71   35.90
   3   4  -3  911.31   28.60
   3   4  -3  956.20   32.70
  -3  -4   3  948.71   32.40
  -3  -4   3  927.91   32.50
  -3  -4   3  962.30   29.70
  -3  -4   3  982.60   31.10
   2   4  -3  388.66   15.10
   2   4  -3  378.96   12.80
   2   4  -3  385.26   16.10
   2   4  -3  388.06   12.40
  -2  -4   3  389.36   13.20
  -2  -4   3  392.06   13.90
  -2  -4   3  392.56   14.30
  -2  -4   3  390.56   16.10
   1   4  -3  573.84   20.50
   1   4  -3  540.05   18.00
  -1  -4   3  530.15   22.30
  -1  -4   3  567.14   18.80
  -1  -4   3  556.64   18.10
   0   4  -3 1931.11   58.99
   0   4  -3 1904.41   58.59
   0   4  -3 1983.90   60.49
   0   4  -3 1911.21   57.69
   0  -4   3 1968.80   58.59
   0  -4   3 1928.91   60.39
   0  -4   3 1985.20   59.29
  -1   4  -3    5.10    2.30
  -1   4  -3    5.30    1.30
  -1   4  -3    4.30    2.50
  -1   4  -3    5.00    2.10
  -1   4  -3    9.40    3.10
   1  -4   3    4.40    1.80
   1  -4   3    7.70    2.80
   1  -4   3    0.60    3.50
   1  -4   3    7.30    2.90
  -2   4  -3  439.36   14.80
  -2   4  -3  484.55   16.60
  -2   4  -3  476.75   17.80
  -2   4  -3  446.36   16.70
  -2   4  -3  420.86   16.50
   2  -4   3  442.06   16.70
   2  -4   3  439.76   16.10
   2  -4   3  467.95   16.50
   2  -4   3  464.45   16.70
  -3   4  -3  701.93   23.40
  -3   4  -3  719.73   24.60
  -3   4  -3  833.62   26.90
  -3   4  -3  686.13   22.50
   3  -4   3  717.13   24.00
   3  -4   3  683.93   24.60
   3  -4   3  675.43   24.10
  -4   4  -3    0.50    2.40
  -4   4  -3   -3.50    3.60
  -4   4  -3   -3.20    2.60
  -4   4  -3    0.90    3.00
   4  -4   3    7.20    3.00
   4  -4   3    0.60    2.50
   4  -4   3   -1.50    3.50
   4  -4   3   -0.20    3.80
  -5   4  -3  167.88    9.90
  -5   4  -3  166.08    8.90
  -5   4  -3  164.78    8.80
  -5   4  -3  164.78   10.10
  -5   4  -3  156.78   10.40
   5  -4   3  165.58    9.50
   5  -4   3  161.18    9.50
   5  -4   3  176.18   10.90
   5  -4   3  160.38    8.40
  -6   4  -3  847.02   31.00
  -6   4  -3  847.02   29.30
  -6   4  -3  817.72   33.10
   6  -4   3  845.52   29.00
   6  -4   3  844.02   27.90
  -7   4  -3   58.29    9.50
  -7   4  -3   51.79    6.30
  -7   4  -3   41.10    6.80
   7  -4   3   53.49    8.20
   7  -4   3   50.49    7.00
   7  -4   3   36.70    6.70
   7  -4   3   40.40    4.80
  -8   4  -3  690.13   28.00
   8  -4   3  700.33   26.40
   8  -4   3  740.73   28.60
   9  -4   3   -1.80    5.30
   9  -4   3   -0.90    2.60
   8   3  -3   45.90    5.70
   8   3  -3   64.79   12.10
   8   3  -3   58.09    8.40
   8   3  -3   56.99    4.20
  -8  -3   3   58.09    7.20
  -8  -3   3   60.29    8.40
  -8  -3   3   66.19    9.30
   7   3  -3 1169.58   45.60
   7   3  -3 1053.99   33.70
   7   3  -3 1102.49   33.70
  -7  -3   3 1134.09   38.70
  -7  -3   3 1091.29   39.00
  -7  -3   3 1116.59   39.30
   6   3  -3  815.22   26.90
   6   3  -3  842.82   30.80
   6   3  -3  825.62   25.20
   6   3  -3  849.12   35.50
   6   3  -3  805.62   25.10
   6   3  -3  858.01   28.80
   6   3  -3  776.42   27.70
  -6  -3   3  808.12   30.10
  -6  -3   3  839.72   30.20
   5   3  -3  893.61   28.60
   5   3  -3  879.11   27.30
   5   3  -3  882.41   28.80
   5   3  -3  922.01   30.20
   5   3  -3  929.71   32.60
   5   3  -3  901.61   31.80
   5   3  -3  945.51   37.20
  -5  -3   3  961.90   31.40
  -5  -3   3  915.81   32.30
  -5  -3   3  892.11   31.80
  -5  -3   3  891.01   31.80
   4   3  -3    2.80    2.30
   4   3  -3   -1.30    3.10
   4   3  -3    1.70    1.40
   4   3  -3    0.80    1.80
   4   3  -3    0.30    2.60
  -4  -3   3   -3.20    2.80
  -4  -3   3   -1.80    2.60
  -4  -3   3   -3.20    3.30
  -4  -3   3   -1.20    3.20
  -4  -3   3    0.00    1.80
   3   3  -3   11.10    1.30
   3   3  -3   13.30    3.30
   3   3  -3   10.70    3.10
   3   3  -3    7.80    2.20
   3   3  -3   10.70    2.30
  -3  -3   3    9.10    3.20
  -3  -3   3   14.40    3.20
  -3  -3   3   13.40    3.90
  -3  -3   3    7.60    2.10
   2   3  -3  524.95   19.60
   2   3  -3  531.65   17.70
   2   3  -3  554.24   17.00
   2   3  -3  516.95   18.40
   2   3  -3  523.55   16.30
   2   3  -3  530.45   18.50
  -2  -3   3  544.15   18.00
  -2  -3   3  544.85   16.50
  -2  -3   3  522.05   19.60
   1   3  -3   18.50    2.50
   1   3  -3   18.70    3.20
   1   3  -3   17.60    3.20
   1   3  -3   19.60    1.80
  -1  -3   3   22.00    2.80
  -1  -3   3   18.30    3.50
  -1  -3   3   20.90    2.30
   0   3  -3  149.19    8.00
   0   3  -3  149.79    6.70
   0   3  -3  150.68    6.10
   0   3  -3  166.88    7.40
   0  -3   3  147.19    7.90
   0  -3   3  147.59    6.60
   0  -3   3  151.08    7.00
  -1   3  -3  388.06   13.60
  -1   3  -3  384.86   12.60
  -1   3  -3  403.26   14.00
  -1   3  -3  382.86   14.50
   1  -3   3  398.66   14.50
   1  -3   3  390.46   13.50
   1  -3   3  396.86   14.10
  -2   3  -3 1786.32   51.89
  -2   3  -3 1674.03   53.69
  -2   3  -3 1727.83   52.79
  -2   3  -3 1825.32   53.89
  -2   3  -3 1760.12   53.69
   2  -3   3 1873.21   53.69
   2  -3   3 1722.53   53.69
   2  -3   3 1794.52   54.09
   2  -3   3 1697.93   53.79
  -3   3  -3  267.37    9.10
  -3   3  -3  239.98   11.00
  -3   3  -3  232.68    9.00
  -3   3  -3  237.78   10.40
  -3   3  -3  235.18   11.00
   3  -3   3  237.28    9.70
   3  -3   3  238.58   10.60
   3  -3   3  250.07   10.50
   3  -3   3  241.78   11.00
  -4   3  -3  689.43   26.10
  -4   3  -3  687.53   22.70
  -4   3  -3  687.03   24.30
  -4   3  -3  690.73   23.30
   4  -3   3  675.53   24.10
   4  -3   3  690.03   24.40
   4  -3   3  675.53   23.40
   4  -3   3  686.13   22.40
  -5   3  -3   82.09    7.50
  -5   3  -3   82.69    7.10
  -5   3  -3   78.59    8.70
  -5   3  -3   83.99    6.70
   5  -3   3   84.99    8.00
   5  -3   3   84.89    7.30
   5  -3   3   86.89    7.50
   5  -3   3   81.19    8.00
   5  -3   3   85.39    5.00
   5  -3   3   84.69    7.20
  -6   3  -3  332.57   15.00
  -6   3  -3  323.87   14.80
  -6   3  -3  347.97   15.70
  -6   3  -3  325.37   16.30
   6  -3   3  310.97   14.30
   6  -3   3  339.47   12.30
   6  -3   3  345.37   15.90
  -7   3  -3    3.60    4.70
  -7   3  -3    9.10    4.30
  -7   3  -3    8.00    3.80
  -7   3  -3   -1.50    6.20
   7  -3   3   14.40    5.50
   7  -3   3    8.00    6.00
   7  -3   3    1.60    4.90
   7  -3   3    3.80    5.20
   7  -3   3    8.90    4.10
   7  -3   3    7.00    2.20
  -8   3  -3  423.86   18.60
  -8   3  -3  446.46   19.70
   8  -3   3  420.16   14.90
   8  -3   3  446.26   20.00
   8  -3   3  416.26   18.60
  -9   3  -3    1.10    5.40
   9  -3   3   -0.70    5.20
   9  -3   3    0.70    5.60
   9   2  -3   72.49   12.20
   9   2  -3   75.49    8.90
   9   2  -3   76.89    8.90
   9   2  -3   68.09    6.20
   9   2  -3   57.69    8.30
   8   2  -3    4.80    4.30
   8   2  -3    3.50    2.90
   8   2  -3    6.60    4.30
   8   2  -3    2.50    6.60
   8   2  -3    2.10    4.30
   8   2  -3    3.00    3.10
  -8  -2   3    5.80    4.20
  -8  -2   3   -6.80    4.50
   7   2  -3  119.59    8.80
   7   2  -3  130.79   10.20
   7   2  -3  129.29    9.70
   7   2  -3  136.49    6.10
   7   2  -3  128.39    8.10
   7   2  -3  130.49    7.60
  -7  -2   3  130.69    9.70
  -7  -2   3  134.09   10.40
  -7  -2   3  141.99    9.60
   6   2  -3  179.48    7.10
   6   2  -3  194.48   11.30
   6   2  -3  173.48    9.90
   6   2  -3  183.48   14.40
   6   2  -3  191.88   10.40
   6   2  -3  186.18   10.80
   6   2  -3  172.18    9.20
   6   2  -3  195.88    8.90
  -6  -2   3  188.18   10.60
  -6  -2   3  201.48   11.30
  -6  -2   3  184.68   10.60
   5   2  -3  184.98    9.10
   5   2  -3  154.18    9.30
   5   2  -3  163.68    6.20
   5   2  -3  178.98   10.40
   5   2  -3  168.88    9.80
   5   2  -3  178.68    8.10
  -5  -2   3  170.18    9.70
  -5  -2   3  180.48    9.90
  -5  -2   3  170.58    9.70
   4   2  -3   53.39    4.00
   4   2  -3   62.49    4.70
   4   2  -3   50.09    5.60
   4   2  -3   56.99    6.40
   4   2  -3   56.09    4.80
  -4  -2   3   59.89    4.50
  -4  -2   3   60.89    5.50
  -4  -2   3   48.70    6.40
  -4  -2   3   52.39    6.40
   3   2  -3  606.14   20.10
   3   2  -3  603.54   20.20
   3   2  -3  629.34   22.30
   3   2  -3  610.84   21.20
  -3  -2   3  624.34   20.90
  -3  -2   3  596.44   21.80
  -3  -2   3  617.74   20.20
  -3  -2   3  611.34   20.80
   2   2  -3 7228.78  214.58
   2   2  -3 7475.15  214.98
  -2  -2   3 7337.47  216.18
   1   2  -3 2308.07   69.99
   1   2  -3 2431.56   69.89
   1   2  -3 2405.96   71.59
   1   2  -3 2364.86   70.49
  -1  -2   3 2314.37   71.39
  -1  -2   3 2359.06   70.59
  -1  -2   3 2340.77   68.99
   0   2  -3 3821.32  109.89
   0   2  -3 3771.92  109.69
   0   2  -3 3631.44  110.79
   0  -2   3 3641.34  109.59
   0  -2   3 3827.12  110.49
   0  -2   3 3909.21  110.19
   0  -2   3 3583.04  110.69
  -1   2  -3 1260.47   38.80
  -1   2  -3 1229.28   38.90
  -1   2  -3 1292.97   38.90
   1  -2   3 1324.17   38.80
   1  -2   3 1238.78   38.80
   1  -2   3 1258.47   38.90
   1  -2   3 1272.37   39.20
  -2   2  -3 1904.11   57.69
  -2   2  -3 1896.11   58.89
  -2   2  -3 1947.51   58.09
  -2   2  -3 1887.11   58.69
  -2   2  -3 1992.30   58.09
   2  -2   3 1963.50   58.89
   2  -2   3 1955.30   58.79
   2  -2   3 1938.61   57.89
   2  -2   3 1934.81   59.39
  -3   2  -3   90.49    5.50
  -3   2  -3   92.49    6.40
  -3   2  -3   89.59    6.90
   3  -2   3   94.09    6.80
   3  -2   3   92.69    4.50
   3  -2   3   98.79    6.60
   3  -2   3   92.19    4.60
   3  -2   3   92.39    6.10
  -4   2  -3   82.49    6.00
  -4   2  -3   89.99    6.10
  -4   2  -3   76.99    5.50
  -4   2  -3   85.89    6.20
   4  -2   3   79.49    7.00
   4  -2   3   75.49    5.00
   4  -2   3   82.59    4.80
   4  -2   3   74.49    6.30
   4  -2   3   77.29    4.00
   4  -2   3   86.79    7.20
   4  -2   3   83.59    7.10
  -5   2  -3  177.98    9.60
  -5   2  -3  197.98    9.80
  -5   2  -3  182.38   10.30
  -5   2  -3  176.08   11.40
  -5   2  -3  177.08    8.90
   5  -2   3  179.08   11.20
   5  -2   3  186.98   10.20
   5  -2   3  191.28    8.90
   5  -2   3  198.88   10.30
   5  -2   3  179.38    7.00
   5  -2   3  176.98   10.00
   5  -2   3  179.38    7.70
   5  -2   3  181.98   10.60
  -6   2  -3  336.37   14.60
  -6   2  -3  326.77   15.20
  -6   2  -3  308.17   15.50
  -6   2  -3  325.37   14.40
   6  -2   3  312.57   14.10
   6  -2   3  331.97   13.80
   6  -2   3  324.97   14.70
   6  -2   3  329.87   15.90
   6  -2   3  332.97   15.20
   6  -2   3  332.07   12.20
   6  -2   3  318.77   11.00
  -7   2  -3  642.24   23.90
  -7   2  -3  643.14   24.50
   7  -2   3  632.74   23.80
   7  -2   3  557.64   26.40
   7  -2   3  624.24   19.70
   7  -2   3  599.14   23.40
   7  -2   3  591.14   22.90
   7  -2   3  634.24   24.90
   7  -2   3  616.34   19.40
   7  -2   3  643.24   22.30
  -8   2  -3  308.17   15.40
  -8   2  -3  318.47   15.70
  -8   2  -3  298.97   15.10
   8  -2   3  275.07   14.60
   8  -2   3  300.17   15.70
   8  -2   3  309.67   16.00
  -9   2  -3    0.70    5.20
  -9   2  -3    9.50    5.90
   9  -2   3   -3.60    5.40
   9  -2   3    0.50    5.40
   9   1  -3   -4.00    2.80
   9   1  -3   -1.80    3.80
   9   1  -3    4.10    4.00
   9   1  -3   -4.00    5.00
   9   1  -3    0.00    3.20
   8   1  -3  481.65   19.70
   8   1  -3  474.85   19.80
   8   1  -3  467.45   16.70
   8   1  -3  502.45   25.00
   8   1  -3  462.85   20.60
   8   1  -3  474.95   18.40
   8   1  -3  486.45   25.40
  -8  -1   3  485.85   20.40
   7   1  -3   85.99    6.60
   7   1  -3   83.79    7.90
   7   1  -3   87.79    7.90
   7   1  -3   91.79    7.70
   7   1  -3  102.19    9.10
   7   1  -3   81.59    7.00
   7   1  -3   84.89   10.40
  -7  -1   3   89.79    8.20
   6   1  -3 2264.27   70.99
   6   1  -3 2189.28   66.19
   6   1  -3 2231.08   68.09
   6   1  -3 2162.68   69.19
   6   1  -3 2191.48   69.19
   6   1  -3 2239.78   68.79
  -6  -1   3 2280.37   69.59
  -6  -1   3 2245.68   69.29
   5   1  -3  484.85   17.90
   5   1  -3  535.05   20.60
   5   1  -3  506.65   17.80
   5   1  -3  479.05   18.80
   5   1  -3  471.15   15.90
   5   1  -3  506.85   18.40
   5   1  -3  495.25   19.20
   5   1  -3  502.55   18.50
  -5  -1   3  493.15   18.90
  -5  -1   3  506.85   18.30
  -5  -1   3  534.95   18.90
   4   1  -3 2381.26   72.69
   4   1  -3 2390.86   73.39
   4   1  -3 2496.95   74.99
   4   1  -3 2374.16   73.99
   4   1  -3 2476.95   75.29
   4   1  -3 2460.15   72.69
   4   1  -3 2278.87   70.49
   4   1  -3 2453.35   72.99
  -4  -1   3 2342.27   72.69
  -4  -1   3 2479.25   73.29
  -4  -1   3 2393.86   72.69
  -4  -1   3 2420.56   74.39
  -4  -1   3 2402.96   73.19
   3   1  -3  755.32   25.50
   3   1  -3  719.63   23.70
   3   1  -3  721.93   23.20
   3   1  -3  730.13   24.00
  -3  -1   3  707.43   23.40
  -3  -1   3  735.13   23.90
  -3  -1   3  735.83   26.20
  -3  -1   3  754.02   24.10
  -3  -1   3  727.03   23.80
   2   1  -3   70.39    4.80
   2   1  -3   76.29    5.60
   2   1  -3   67.29    4.40
   2   1  -3   70.09    4.70
  -2  -1   3   68.39    3.90
  -2  -1   3   74.49    4.70
  -2  -1   3   74.99    4.90
  -2  -1   3   71.29    5.40
   1   1  -3 3008.40   88.39
   1   1  -3 2935.91   89.39
   1   1  -3 3028.40   90.19
  -1  -1   3 3056.59   88.79
  -1  -1   3 2965.20   89.39
  -1  -1   3 3036.80   88.79
  -1  -1   3 3078.69   89.99
   0   1  -3 6586.44  194.48
   0   1  -3 6752.32  194.58
   0  -1   3 6534.15  194.48
   0  -1   3 6500.35  194.28
  -1   1  -3  317.87   11.10
  -1   1  -3  321.37   11.90
  -1   1  -3  326.37   12.00
  -1   1  -3  336.37   12.10
  -1   1  -3  334.57   11.70
   1  -1   3  320.27   11.70
   1  -1   3  331.97   11.10
   1  -1   3  325.77   11.80
  -2   1  -3 2845.92   86.49
  -2   1  -3 2742.83   88.19
  -2   1  -3 3156.48   88.39
   2  -1   3 2822.92   86.69
   2  -1   3 2989.50   88.19
   2  -1   3 2997.10   88.29
   2  -1   3 2994.30   88.49
   2  -1   3 3005.40   87.39
   2  -1   3 2930.51   87.99
   2  -1   3 3103.49   87.89
  -3   1  -3  259.57   11.40
  -3   1  -3  256.67   11.00
  -3   1  -3  255.47   10.70
  -3   1  -3  257.67   10.80
   3  -1   3  254.07    8.00
   3  -1   3  270.17   10.50
   3  -1   3  266.17   10.10
   3  -1   3  248.98   10.60
   3  -1   3  260.37   11.00
   3  -1   3  255.57   10.00
   3  -1   3  255.67   11.60
  -4   1  -3  640.24   21.40
  -4   1  -3  607.94   22.40
  -4   1  -3  619.34   22.50
  -4   1  -3  626.94   21.90
  -4   1  -3  615.34   24.70
   4  -1   3  627.74   21.40
   4  -1   3  643.64   21.40
   4  -1   3  683.33   24.00
   4  -1   3  646.54   22.80
   4  -1   3  646.34   22.60
   4  -1   3  624.34   21.90
  -5   1  -3 1253.27   43.30
  -5   1  -3 1386.76   42.30
  -5   1  -3 1327.47   43.30
  -5   1  -3 1325.07   42.60
  -5   1  -3 1292.07   43.20
   5  -1   3 1342.77   41.90
   5  -1   3 1318.57   43.00
   5  -1   3 1329.17   43.00
   5  -1   3 1324.77   42.80
   5  -1   3 1303.97   42.10
   5  -1   3 1340.97   44.80
  -6   1  -3  458.75   19.10
  -6   1  -3  470.35   18.40
  -6   1  -3  468.25   18.70
   6  -1   3  419.86   17.90
   6  -1   3  483.25   18.00
   6  -1   3  489.15   19.50
   6  -1   3  460.35   18.80
   6  -1   3  454.25   18.60
   6  -1   3  468.65   18.10
  -7   1  -3   10.10    5.00
  -7   1  -3    7.30    4.50
   7  -1   3   17.20    5.50
   7  -1   3    4.40    4.50
   7  -1   3   10.30    3.80
   7  -1   3    7.80    4.40
   7  -1   3    8.60    3.70
   7  -1   3    1.80    4.80
  -8   1  -3   11.20    4.50
  -8   1  -3   16.30    5.00
  -8   1  -3   18.70    5.20
   8  -1   3    8.00    5.60
   8  -1   3    9.00    3.90
   8  -1   3   11.90    5.30
   8  -1   3    5.20    6.00
  -9   1  -3   73.79    9.40
  -9   1  -3   45.90    6.90
  -9   1  -3   60.69    8.60
   9  -1   3   63.49    7.50
   9  -1   3   71.79    9.20
   9  -1   3   64.79    9.90
   9   0  -3  321.37   15.10
   9   0  -3  363.96   18.30
   9   0  -3  386.86   20.30
   9   0  -3  334.27   20.30
   9   0  -3  350.16   14.10
   9   0  -3  368.66   18.10
   8   0  -3  224.28   11.30
   8   0  -3  219.28   15.00
   8   0  -3  216.08   12.70
   8   0  -3  207.38    9.50
   8   0  -3  205.78   12.00
   8   0  -3  207.08   10.70
   7   0  -3    9.60    2.80
   7   0  -3    7.80    5.50
   7   0  -3    5.10    3.40
   7   0  -3    9.70    3.50
   7   0  -3    8.70    3.10
   7   0  -3    5.60    4.40
   7   0  -3    7.90    3.70
   7   0  -3    7.90    3.80
   6   0  -3 1106.59   35.80
   6   0  -3 1199.98   40.10
   6   0  -3 1172.08   38.90
   6   0  -3 1169.68   37.70
   6   0  -3  975.20   43.30
   6   0  -3 1164.68   38.20
   6   0  -3 1187.28   38.50
  -6   0   3 1191.48   40.30
  -6   0   3 1184.98   38.30
   5   0  -3 3048.50   94.19
   5   0  -3 3024.60   91.89
   5   0  -3 3125.49   94.59
   5   0  -3 3002.60   95.69
   5   0  -3 3182.38   94.09
   5   0  -3 3147.08   94.39
   5   0  -3 3172.88   93.99
   5   0  -3 3165.58   94.49
  -5   0   3 3145.19   94.19
  -5   0   3 3146.39   95.69
   4   0  -3  989.60   33.40
   4   0  -3  995.40   32.00
   4   0  -3 1033.00   34.20
   4   0  -3 1072.69   34.30
   4   0  -3  984.70   31.50
   4   0  -3  947.11   33.40
   4   0  -3  992.60   31.90
   4   0  -3  940.21   30.00
  -4   0   3  987.40   33.00
  -4   0   3  995.00   31.90
  -4   0   3  954.10   31.90
   3   0  -3 4214.28  125.99
   3   0  -3 4547.04  125.49
   3   0  -3 4294.77  127.79
   3   0  -3 4144.09  124.69
   3   0  -3 4282.27  126.49
   3   0  -3 4223.98  126.39
   3   0  -3 4059.89  124.69
  -3   0   3 4217.28  126.49
  -3   0   3 4167.08  124.69
  -3   0   3 4649.13  127.99
  -3   0   3 4220.08  127.39
   2   0  -3  251.17    8.30
   2   0  -3  253.97    9.10
   2   0  -3  246.48   10.10
   2   0  -3  249.97   11.00
   2   0  -3  247.08    8.60
   2   0  -3  259.67    8.50
  -2   0   3  270.77   10.10
  -2   0   3  251.97    9.90
  -2   0   3  262.17    8.60
   1   0  -3 3384.16   99.19
  -1   0   3 3432.26   99.19
  -1   0   3 3349.86  100.39
  -1   0   3 3419.76   99.39
   0   0  -3  859.01   26.80
   0   0  -3  903.01   27.30
   0   0  -3  849.72   26.20
   0   0   3  860.91   26.00
   0   0   3  859.31   26.80
   0   0   3  754.12   25.50
  -1   0  -3 1162.58   35.10
  -1   0  -3 1064.89   35.10
  -1   0  -3 1167.78   34.90
  -1   0  -3 1199.08   35.90
  -1   0  -3 1008.30   34.10
   1   0   3 1161.58   34.00
   1   0   3 1238.18   35.60
   1   0   3 1150.48   35.10
   1   0   3 1146.09   35.00
   1   0   3 1078.89   35.00
  -2   0  -3 2041.70   62.89
  -2   0  -3 2090.39   62.29
  -2   0  -3 2092.69   62.29
  -2   0  -3 2016.50   62.59
  -2   0  -3 2013.30   60.99
  -2   0  -3 2017.90   59.89
   2   0   3 2062.99   61.29
   2   0   3 2066.19   62.09
   2   0   3 2074.59   62.19
   2   0   3 2064.79   61.59
   2   0   3 2062.59   62.59
  -3   0  -3   13.60    3.70
  -3   0  -3   14.90    4.20
  -3   0  -3   17.50    3.10
  -3   0  -3   13.50    2.40
  -3   0  -3   14.60    2.90
  -3   0  -3   18.50    3.60
   3   0   3   19.00    3.60
   3   0   3   15.10    3.30
   3   0   3   12.30    2.40
   3   0   3   17.10    3.40
   3   0   3   16.40    3.10
  -4   0  -3   -0.30    3.40
  -4   0  -3   -0.70    2.80
  -4   0  -3    1.60    2.30
  -4   0  -3    3.20    2.90
   4   0   3    1.10    2.60
   4   0   3    6.00    2.80
   4   0   3   -0.90    2.10
   4   0   3   -1.00    2.60
   4   0   3    1.40    3.30
  -5   0  -3 1400.56   45.50
  -5   0  -3 1370.66   46.80
  -5   0  -3 1377.36   45.00
  -5   0  -3 1417.76   44.20
   5   0   3 1442.66   45.60
   5   0   3 1399.66   45.20
   5   0   3 1427.66   45.30
   5   0   3 1432.86   45.50
   5   0   3 1372.76   46.90
   5   0   3 1414.46   45.60
   5   0   3 1354.26   43.50
  -6   0  -3  372.76   18.30
  -6   0  -3  346.37   15.30
  -6   0  -3  379.06   15.90
  -6   0  -3  353.16   16.10
   6   0   3  345.87   15.50
   6   0   3  372.06   16.50
   6   0   3  356.26   16.00
   6   0   3  366.96   16.20
   6   0   3  357.76   16.30
  -7   0  -3  916.61   30.60
  -7   0  -3  919.61   35.30
  -7   0  -3  879.51   31.20
   7   0   3  876.31   31.50
   7   0   3  867.11   31.20
   7   0   3  730.23   33.40
  -8   0  -3   91.89    9.20
  -8   0  -3   94.59    9.20
   8   0   3   96.59    9.00
   8   0   3   80.99    9.30
   8   0   3   86.59    6.90
   8   0   3   99.99   10.60
  -9   0  -3   41.50    6.80
   9   0   3   45.10    5.50
   9   0   3   33.40    6.70
   9   0   3   43.30    5.70
   9   0   3   45.40    7.60
   9   0   3   31.30    6.50
   9  -1  -3  315.07   13.30
   9  -1  -3  330.77   13.70
   9  -1  -3  298.77   16.40
   9  -1  -3  328.97   15.40
   9  -1  -3  325.77   18.90
   8  -1  -3   27.70    7.00
   8  -1  -3   37.10    5.70
   8  -1  -3   37.70    5.20
   8  -1  -3   35.10    6.80
   8  -1  -3   31.40    5.10
   7  -1  -3  580.64   23.10
   7  -1  -3  582.04   23.10
   7  -1  -3  593.14   20.60
   7  -1  -3  563.34   24.20
   7  -1  -3  584.94   22.70
   7  -1  -3  585.44   22.30
  -7   1   3  621.44   25.10
   6  -1  -3   72.69    5.50
   6  -1  -3   69.79    7.30
   6  -1  -3   61.59    6.60
   6  -1  -3   48.00    5.70
   6  -1  -3   67.89    5.00
   6  -1  -3   69.09    7.10
   6  -1  -3   62.29    7.10
   6  -1  -3   70.39    7.40
  -6   1   3   73.39    6.80
  -6   1   3   61.59    8.30
   5  -1  -3  719.23   25.70
   5  -1  -3  735.43   24.90
   5  -1  -3  749.92   25.60
   5  -1  -3  745.33   25.20
   5  -1  -3  774.32   25.90
   5  -1  -3  740.63   25.70
   5  -1  -3  693.03   23.00
   5  -1  -3  716.63   25.60
  -5   1   3  759.72   25.40
  -5   1   3  759.02   26.80
   4  -1  -3  909.01   28.70
   4  -1  -3  937.61   29.90
   4  -1  -3  875.31   27.60
   4  -1  -3  958.60   29.60
   4  -1  -3  936.11   30.40
  -4   1   3  910.21   29.60
  -4   1   3  896.21   28.70
  -4   1   3  926.51   30.80
   3  -1  -3 1704.73   50.89
   3  -1  -3 1708.93   50.59
   3  -1  -3 1580.84   49.90
   3  -1  -3 1688.73   51.39
   3  -1  -3 1656.53   49.99
  -3   1   3 1630.84   51.29
  -3   1   3 1726.33   51.49
  -3   1   3 1645.84   49.90
  -3   1   3 1628.14   50.49
   2  -1  -3  557.64   17.30
   2  -1  -3  538.45   18.80
   2  -1  -3  556.34   17.90
   2  -1  -3  539.65   18.50
   2  -1  -3  530.65   17.50
  -2   1   3  521.95   18.40
  -2   1   3  557.64   17.50
   1  -1  -3 3701.73  107.39
   1  -1  -3 3600.74  106.79
   1  -1  -3 3714.23  107.79
  -1   1   3 3617.04  106.69
  -1   1   3 3658.83  107.39
  -1   1   3 3477.75  105.79
   0  -1  -3  713.33   23.10
   0  -1  -3  757.02   24.50
   0  -1  -3  724.53   23.40
   0  -1  -3  702.43   22.70
   0   1   3  807.22   24.20
   0   1   3  704.23   23.30
   0   1   3  728.23   23.40
   0   1   3  713.93   22.80
  -1  -1  -3 9182.78  288.27
  -1  -1  -3 9947.00  284.27
   1   1   3 9542.85  283.87
   1   1   3 9999.00  284.17
  -2  -1  -3 2929.01   85.09
  -2  -1  -3 2862.91   83.69
  -2  -1  -3 2789.42   83.49
  -2  -1  -3 2770.72   82.59
  -2  -1  -3 2788.72   82.59
  -2  -1  -3 2796.72   86.19
   2   1   3 2778.82   84.99
   2   1   3 2951.40   85.49
   2   1   3 2732.33   83.49
   2   1   3 2789.32   85.79
  -3  -1  -3 3240.38   96.89
  -3  -1  -3 3213.78   95.19
  -3  -1  -3 3393.96   96.99
  -3  -1  -3 3159.68   98.99
  -3  -1  -3 3237.98   97.59
   3   1   3 3300.17   98.09
   3   1   3 3177.18   97.99
   3   1   3 3196.88   97.19
   3   1   3 3151.38   95.39
  -4  -1  -3  813.52   30.70
  -4  -1  -3  838.52   27.90
  -4  -1  -3  854.61   28.40
  -4  -1  -3  838.52   29.30
  -4  -1  -3  855.51   26.90
  -4  -1  -3  858.11   28.20
   4   1   3  847.22   29.50
   4   1   3  832.82   26.50
   4   1   3  804.52   29.60
   4   1   3  826.52   28.80
  -5  -1  -3  217.88   12.60
  -5  -1  -3  211.78   10.30
  -5  -1  -3  232.28   11.50
  -5  -1  -3  217.78   13.60
  -5  -1  -3  209.28   11.10
  -5  -1  -3  214.78   11.30
   5   1   3  220.38   10.50
   5   1   3  220.28   12.10
   5   1   3  228.08    9.10
   5   1   3  233.58   12.40
   5   1   3  209.68   12.20
   5   1   3  216.28   11.50
  -6  -1  -3  776.52   28.90
  -6  -1  -3  759.92   30.50
  -6  -1  -3  791.62   27.90
  -6  -1  -3  790.92   28.00
  -6  -1  -3  748.33   27.30
   6   1   3  746.23   28.30
   6   1   3  772.72   29.00
   6   1   3  783.02   28.60
   6   1   3  757.82   25.10
  -7  -1  -3  232.68   12.80
  -7  -1  -3  222.48   12.80
   7   1   3  216.18   13.60
   7   1   3  232.88   13.30
   7   1   3  187.48   14.20
   7   1   3  216.98    9.70
  -8  -1  -3   -0.90    4.30
  -8  -1  -3    4.20    4.10
   8   1   3   -0.40    4.80
   8   1   3   -5.90    5.00
   9   1   3  255.57   11.60
   9   1   3  280.37   16.10
   9   1   3  267.67   11.70
   9   1   3  268.77   16.30
   9   1   3  276.37   15.80
   9  -2  -3  207.38   13.20
   9  -2  -3  163.58   13.20
   9  -2  -3  215.28   12.70
   9  -2  -3  215.68   14.20
   9  -2  -3  202.48   15.40
   8  -2  -3   76.99    7.20
   8  -2  -3   86.19    8.40
   8  -2  -3   76.29    7.90
   8  -2  -3   67.99    9.20
   8  -2  -3   81.89    8.70
  -8   2   3   93.79   10.60
   7  -2  -3   41.10    5.10
   7  -2  -3   45.90    6.60
   7  -2  -3   47.70    5.70
   7  -2  -3   46.20    7.50
   7  -2  -3   38.30    3.50
   7  -2  -3   39.20    6.30
   7  -2  -3   38.00    6.00
  -7   2   3   47.00    8.20
   6  -2  -3  871.31   31.30
   6  -2  -3  875.01   30.40
   6  -2  -3  893.11   31.00
   6  -2  -3  889.81   30.70
   6  -2  -3  877.41   30.90
   6  -2  -3  837.42   26.30
   6  -2  -3  889.11   29.20
  -6   2   3  899.81   30.10
  -6   2   3  907.21   32.20
   5  -2  -3   44.80    5.60
   5  -2  -3   39.20    5.80
   5  -2  -3   50.39    5.30
   5  -2  -3   47.00    5.90
   5  -2  -3   46.60    5.50
   5  -2  -3   44.40    5.40
   5  -2  -3   45.40    6.20
  -5   2   3   44.30    6.80
  -5   2   3   51.69    5.70
  -5   2   3   43.00    5.20
   4  -2  -3  497.15   18.30
   4  -2  -3  495.45   18.00
   4  -2  -3  463.45   17.20
   4  -2  -3  494.35   17.50
  -4   2   3  502.35   18.50
  -4   2   3  482.35   17.00
  -4   2   3  468.55   16.90
   3  -2  -3 1232.28   39.10
   3  -2  -3 1273.67   38.20
   3  -2  -3 1227.68   38.00
   3  -2  -3 1216.68   38.60
  -3   2   3 1215.18   39.20
  -3   2   3 1215.08   37.90
  -3   2   3 1187.48   37.60
   2  -2  -3  493.25   17.20
   2  -2  -3  475.85   16.40
   2  -2  -3  485.35   15.80
   2  -2  -3  458.45   17.00
  -2   2   3  483.25   16.40
  -2   2   3  468.75   17.10
   1  -2  -3 1812.92   54.59
   1  -2  -3 1784.22   54.29
   1  -2  -3 1875.11   52.89
   1  -2  -3 1845.92   55.39
  -1   2   3 1674.93   54.39
  -1   2   3 1688.93   52.99
  -1   2   3 1875.51   54.89
  -1   2   3 1761.12   54.09
   0  -2  -3   27.60    3.70
   0  -2  -3   24.40    3.40
   0  -2  -3   24.30    4.20
   0   2   3   25.80    3.70
   0   2   3   31.60    4.40
   0   2   3   33.80    4.70
   0   2   3   26.40    4.00
  -1  -2  -3 4589.04  131.69
  -1  -2  -3 4493.55  133.39
  -1  -2  -3 4377.96  130.59
   1   2   3 4332.97  131.29
   1   2   3 4513.35  130.59
   1   2   3 4342.97  131.39
  -2  -2  -3  194.88    7.90
  -2  -2  -3  194.58   11.20
  -2  -2  -3  196.48    8.60
  -2  -2  -3  206.88    7.90
  -2  -2  -3  206.18   10.90
   2   2   3  187.28    7.70
   2   2   3  199.98    9.70
   2   2   3  193.18    9.80
   2   2   3  196.38   10.50
  -3  -2  -3 1200.58   37.00
  -3  -2  -3 1143.99   35.00
  -3  -2  -3 1175.48   38.00
  -3  -2  -3 1152.58   36.50
  -3  -2  -3 1094.59   39.60
   3   2   3 1165.18   38.80
   3   2   3 1094.09   34.90
   3   2   3 1123.59   37.50
  -4  -2  -3  393.66   16.70
  -4  -2  -3  376.96   12.80
  -4  -2  -3  381.06   15.20
  -4  -2  -3  411.86   15.50
  -4  -2  -3  360.46   18.00
  -4  -2  -3  380.26   15.60
   4   2   3  375.06   14.60
   4   2   3  374.16   13.00
   4   2   3  380.36   17.40
   4   2   3  379.56   16.40
   4   2   3  362.26   16.60
  -5  -2  -3 1913.81   58.79
  -5  -2  -3 1886.11   60.69
  -5  -2  -3 1859.61   58.79
  -5  -2  -3 1888.91   58.69
  -5  -2  -3 1778.52   62.29
   5   2   3 1785.82   55.59
   5   2   3 1886.11   59.99
   5   2   3 1840.32   58.09
   5   2   3 1871.51   61.39
  -6  -2  -3   66.69    7.80
  -6  -2  -3   53.59    9.10
  -6  -2  -3   60.69    8.20
  -6  -2  -3   65.59    8.10
  -6  -2  -3   65.49    7.40
   6   2   3   60.19    4.50
   6   2   3   63.99   10.50
   6   2   3   72.39    8.20
   6   2   3   65.39    9.00
  -7  -2  -3   14.50    4.80
  -7  -2  -3   25.80    5.90
  -7  -2  -3   12.80    4.20
  -7  -2  -3   20.20    5.30
   7   2   3   13.10    2.40
   7   2   3   12.70    5.20
   7   2   3    9.00    6.70
   7   2   3   12.00    5.50
  -8  -2  -3  270.17   14.80
  -8  -2  -3  249.28   14.10
  -8  -2  -3  262.87   14.10
   8   2   3  257.37   16.60
   8   2   3  243.98    9.70
   8   2   3  255.57   15.10
   9  -3  -3   -0.30    4.10
   9  -3  -3    4.60    4.50
   9  -3  -3   -4.20    4.60
   9  -3  -3   -0.50    3.80
   8  -3  -3   96.59    9.10
   8  -3  -3  107.09    9.50
   8  -3  -3  104.79    9.40
   8  -3  -3  116.09    9.00
  -8   3   3  101.39   11.20
   7  -3  -3  274.27   15.30
   7  -3  -3  306.57   15.30
   7  -3  -3  286.87   13.30
   7  -3  -3  312.47   15.30
   7  -3  -3  293.27   14.60
  -7   3   3  304.57   16.20
   6  -3  -3  247.68   11.80
   6  -3  -3  248.18   12.80
   6  -3  -3  235.48   12.20
   6  -3  -3  229.88   12.80
   6  -3  -3  231.48   11.10
   6  -3  -3  259.17   13.00
  -6   3   3  219.78   12.30
  -6   3   3  234.68   11.40
  -6   3   3  254.67   14.00
   5  -3  -3 1973.00   59.69
   5  -3  -3 1785.82   59.49
   5  -3  -3 1865.21   58.79
   5  -3  -3 1955.00   59.19
   5  -3  -3 1888.61   58.89
   5  -3  -3 1909.81   60.49
  -5   3   3 1856.61   58.99
  -5   3   3 1905.21   58.59
  -5   3   3 1905.81   59.49
  -5   3   3 2021.50   60.99
   4  -3  -3    6.10    3.20
   4  -3  -3    4.60    2.90
   4  -3  -3    1.80    2.60
   4  -3  -3    4.90    3.00
  -4   3   3    4.70    3.60
  -4   3   3    3.10    2.80
  -4   3   3    1.10    2.70
   3  -3  -3  216.38    9.90
   3  -3  -3  226.98   10.20
   3  -3  -3  230.68   10.50
  -3   3   3  213.78    8.50
  -3   3   3  214.28    9.90
  -3   3   3  214.48    9.30
   2  -3  -3  757.52   25.20
   2  -3  -3  772.42   26.00
   2  -3  -3  744.93   25.60
  -2   3   3  752.92   25.10
  -2   3   3  724.93   24.00
  -2   3   3  714.23   23.30
  -2   3   3  843.72   26.20
   1  -3  -3  512.05   18.10
   1  -3  -3  511.65   19.20
   1  -3  -3  532.95   18.20
  -1   3   3  493.95   16.00
  -1   3   3  485.65   19.50
  -1   3   3  508.05   17.90
  -1   3   3  503.95   17.80
   0  -3  -3 1460.25   44.80
   0  -3  -3 1436.36   47.20
   0  -3  -3 1467.35   45.50
   0  -3  -3 1485.85   45.40
   0   3   3 1410.26   44.70
   0   3   3 1403.46   45.10
   0   3   3 1503.75   46.30
  -1  -3  -3  446.56   15.30
  -1  -3  -3  461.15   19.10
  -1  -3  -3  454.95   16.10
  -1  -3  -3  438.66   17.10
   1   3   3  478.95   18.20
   1   3   3  423.86   16.50
   1   3   3  452.75   15.40
  -2  -3  -3  119.39    5.90
  -2  -3  -3  124.99    6.90
  -2  -3  -3  134.09    8.10
   2   3   3  118.39    5.60
   2   3   3  131.09    9.40
  -3  -3  -3  422.16   15.40
  -3  -3  -3  376.86   16.40
  -3  -3  -3  381.06   15.40
  -3  -3  -3  388.36   14.20
  -3  -3  -3  379.86   18.40
   3   3   3  380.46   12.50
   3   3   3  383.76   14.20
   3   3   3  359.66   15.70
   3   3   3  385.26   16.40
   3   3   3  382.46   12.80
   3   3   3  386.36   17.50
  -4  -3  -3  685.13   29.30
  -4  -3  -3  709.93   23.80
  -4  -3  -3  765.22   25.70
  -4  -3  -3  736.03   27.50
  -4  -3  -3  727.73   25.90
   4   3   3  719.93   22.30
   4   3   3  733.43   27.30
   4   3   3  700.93   26.90
   4   3   3  717.83   24.70
   4   3   3  715.53   22.90
   4   3   3  756.02   28.80
  -5  -3  -3  578.64   22.00
  -5  -3  -3  541.05   18.90
  -5  -3  -3  551.14   23.50
  -5  -3  -3  560.54   21.20
  -5  -3  -3  517.35   25.40
  -5  -3  -3  569.04   21.30
   5   3   3  557.74   22.90
   5   3   3  552.74   20.40
   5   3   3  555.04   24.40
   5   3   3  545.65   18.80
  -6  -3  -3  326.17   14.70
  -6  -3  -3  281.47   17.50
  -6  -3  -3  329.07   16.80
   6   3   3  318.57   16.80
   6   3   3  318.47   12.60
  -7  -3  -3    4.10    5.40
  -7  -3  -3   16.60    4.50
  -7  -3  -3   11.70    5.40
  -7  -3  -3    6.50    4.50
   7   3   3    9.00    5.70
   7   3   3   13.20    5.70
  -8  -3  -3  378.76   17.90
  -8  -3  -3  376.96   18.90
  -8  -3  -3  376.96   18.50
  -8  -3  -3  370.26   20.10
   8   3   3  402.56   20.00
   8   3   3  392.36   21.20
   8  -4  -3    9.30    3.40
   8  -4  -3    1.80    5.10
   8  -4  -3   13.10    5.40
   8  -4  -3    7.20    4.70
  -8   4   3   19.00    6.90
   7  -4  -3   48.60    5.80
   7  -4  -3   54.29    8.00
   7  -4  -3   52.79    7.30
   7  -4  -3   55.59    8.00
  -7   4   3   45.10    6.10
  -7   4   3   50.09    7.70
   6  -4  -3  378.06   16.90
   6  -4  -3  377.96   16.10
   6  -4  -3  347.77   14.40
  -6   4   3  350.06   15.90
  -6   4   3  373.86   16.10
   5  -4  -3  169.78   10.50
   5  -4  -3  157.38   10.10
   5  -4  -3  186.68   11.10
   5  -4  -3  172.08    9.10
  -5   4   3  170.48    9.70
  -5   4   3  153.88    9.40
  -5   4   3  178.98   10.90
   4  -4  -3  624.84   22.40
   4  -4  -3  610.54   21.90
   4  -4  -3  603.84   23.00
  -4   4   3  592.64   20.00
  -4   4   3  612.74   21.60
  -4   4   3  608.34   22.00
   3  -4  -3   15.90    3.60
   3  -4  -3   13.50    3.90
   3  -4  -3   15.30    3.30
  -3   4   3   14.60    2.90
  -3   4   3   13.50    1.80
  -3   4   3   12.70    2.10
  -3   4   3   12.50    3.60
   2  -4  -3  469.65   18.70
   2  -4  -3  485.85   18.10
   2  -4  -3  482.15   17.90
  -2   4   3  457.45   14.80
  -2   4   3  461.55   17.40
  -2   4   3  465.85   16.10
  -2   4   3  462.25   15.50
  -2   4   3  521.85   18.10
   1  -4  -3  235.58   12.10
   1  -4  -3  226.68   10.20
   1  -4  -3  232.48   11.00
  -1   4   3  218.28    8.20
  -1   4   3  238.58   10.70
  -1   4   3  232.48   10.80
   0  -4  -3 1543.05   51.99
   0  -4  -3 1654.93   50.39
   0  -4  -3 1581.94   49.80
   0  -4  -3 1623.94   49.70
   0   4   3 1485.55   46.40
   0   4   3 1544.05   49.40
   0   4   3 1618.44   50.69
  -1  -4  -3    2.10    2.60
  -1  -4  -3   -2.20    3.60
  -1  -4  -3    4.10    2.60
  -1  -4  -3    0.10    2.00
   1   4   3   -0.10    3.50
   1   4   3   -0.50    3.00
  -2  -4  -3  699.23   22.40
  -2  -4  -3  709.03   24.10
  -2  -4  -3  696.33   25.60
  -2  -4  -3  671.13   27.90
   2   4   3  678.03   24.50
   2   4   3  725.63   27.10
   2   4   3  691.23   21.00
   2   4   3  686.53   22.40
  -3  -4  -3  106.39    5.00
  -3  -4  -3  105.99   10.30
  -3  -4  -3  107.89    7.10
  -3  -4  -3  105.59    9.50
   3   4   3  106.49    9.80
   3   4   3  105.19    6.20
   3   4   3  105.19    4.80
   3   4   3  101.49    8.10
  -4  -4  -3  158.08    9.00
  -4  -4  -3  160.28    8.80
  -4  -4  -3  149.79   10.60
  -4  -4  -3  153.78   10.50
  -4  -4  -3  150.98   12.90
   4   4   3  153.08    8.40
   4   4   3  151.58    6.70
   4   4   3  165.48   12.70
   4   4   3  161.38   10.20
  -5  -4  -3  145.79   10.60
  -5  -4  -3  140.29    9.40
  -5  -4  -3  128.79    9.30
  -5  -4  -3  133.09    8.00
   5   4   3  140.49    7.10
   5   4   3  144.09   10.00
   5   4   3  135.49    8.30
  -6  -4  -3 1210.78   40.20
  -6  -4  -3 1156.98   38.20
  -6  -4  -3 1174.48   53.09
  -6  -4  -3 1183.18   41.40
  -6  -4  -3 1202.78   43.20
  -6  -4  -3 1206.18   43.70
   6   4   3 1198.78   45.50
   6   4   3 1196.28   37.80
   6   4   3 1211.68   42.90
   6   4   3 1152.18   44.40
  -7  -4  -3   22.40    6.00
  -7  -4  -3   44.20    7.20
  -7  -4  -3   49.20    8.40
  -7  -4  -3   35.10    5.80
   7   4   3   53.19   10.40
   7   4   3   38.50    7.50
  -8  -4  -3   17.30    6.50
  -8  -4  -3   18.70    5.30
   8   4   3   26.40    7.90
   8  -5  -3  587.64   23.20
   8  -5  -3  592.34   25.30
  -8   5   3  521.95   25.10
  -8   5   3  561.44   23.70
   7  -5  -3  115.79    9.80
   7  -5  -3  112.29   10.10
   7  -5  -3  103.59    6.60
  -7   5   3   97.89   10.50
  -7   5   3  105.99    9.40
   6  -5  -3   71.09    8.60
   6  -5  -3   68.99    6.20
   6  -5  -3   66.29    7.60
  -6   5   3   79.79    9.20
   5  -5  -3  631.84   22.50
   5  -5  -3  629.54   24.00
  -5   5   3  612.54   23.30
  -5   5   3  602.94   26.70
  -5   5   3  619.84   22.90
   4  -5  -3 1058.49   36.40
   4  -5  -3 1060.19   35.90
   4  -5  -3 1080.99   35.70
  -4   5   3 1008.20   35.50
  -4   5   3 1075.39   34.70
   3  -5  -3   24.40    4.50
   3  -5  -3   24.70    4.70
   3  -5  -3   19.10    5.50
  -3   5   3   18.80    4.20
  -3   5   3   24.10    3.80
  -3   5   3   24.10    2.90
   2  -5  -3  391.16   16.00
   2  -5  -3  383.56   16.20
   2  -5  -3  393.66   16.40
   2  -5  -3  384.66   17.20
  -2   5   3  380.16   15.80
  -2   5   3  375.06   13.80
  -2   5   3  425.36   16.10
   1  -5  -3  107.29   10.60
   1  -5  -3  120.39    8.60
   1  -5  -3  108.29    8.10
   1  -5  -3  119.19    7.40
  -1   5   3  120.69    8.80
  -1   5   3  114.99    7.90
  -1   5   3  106.09    5.30
   0  -5  -3  847.02   32.40
   0  -5  -3  847.82   29.70
   0  -5  -3  873.31   30.10
   0  -5  -3  867.61   28.60
   0   5   3  905.41   31.20
   0   5   3  835.82   29.40
  -1  -5  -3 1333.37   43.10
  -1  -5  -3 1274.07   46.20
  -1  -5  -3 1302.27   43.80
   1   5   3 1320.27   39.50
   1   5   3 1279.47   42.60
   1   5   3 1363.16   45.10
  -2  -5  -3 2255.17   70.39
  -2  -5  -3 2299.87   68.99
  -2  -5  -3 2093.99   72.79
  -2  -5  -3 2151.38   65.99
   2   5   3 2132.79   68.49
   2   5   3 2294.87   71.99
   2   5   3 2174.48   65.89
  -3  -5  -3  120.19    9.00
  -3  -5  -3  107.69    5.20
  -3  -5  -3  111.79   10.40
   3   5   3  123.49    5.20
   3   5   3  122.99   11.10
   3   5   3  109.49    7.90
   3   5   3  108.99    9.10
  -4  -5  -3  166.18   11.90
  -4  -5  -3  214.68   11.00
  -4  -5  -3  199.08   11.00
   4   5   3  189.98   12.00
   4   5   3  186.28    7.80
   4   5   3  193.28    9.80
  -5  -5  -3  159.48   11.60
  -5  -5  -3  145.79    9.00
  -5  -5  -3  141.29   12.90
  -5  -5  -3  151.98    9.80
  -5  -5  -3  139.59    9.50
   5   5   3  145.89    9.10
   5   5   3  162.38   13.20
   5   5   3  137.29    7.10
   5   5   3  137.19   13.60
  -6  -5  -3  467.15   19.00
  -6  -5  -3  457.65   23.20
  -6  -5  -3  468.95   21.50
  -6  -5  -3  469.55   20.10
  -6  -5  -3  459.85   18.90
   6   5   3  484.15   22.90
   6   5   3  508.65   25.20
   6   5   3  459.35   16.90
   6   5   3  451.75   19.10
  -7  -5  -3  276.57   16.20
  -7  -5  -3  252.97   14.10
  -7  -5  -3  265.17   17.30
  -7  -5  -3  232.88   12.20
  -7  -5  -3  261.97   14.30
   7   5   3  257.87   11.90
   7   5   3  283.07   19.00
   7  -6  -3  182.68   12.70
   7  -6  -3  163.18   11.90
  -7   6   3  165.98   13.40
  -7   6   3  173.08   11.70
   6  -6  -3   81.29    9.40
   6  -6  -3   74.19    6.30
   6  -6  -3   78.09    9.30
  -6   6   3   63.79    9.30
  -6   6   3   83.09    8.40
   5  -6  -3    1.60    4.90
   5  -6  -3    1.80    4.50
   5  -6  -3   -3.20    2.80
   5  -6  -3   -2.30    3.60
  -5   6   3    0.20    4.20
  -5   6   3   -6.00    4.80
   4  -6  -3  380.36   16.70
   4  -6  -3  359.36   17.20
  -4   6   3  381.26   15.50
  -4   6   3  394.86   13.20
   3  -6  -3  931.61   33.20
   3  -6  -3  941.31   33.30
  -3   6   3  999.00   32.90
  -3   6   3  938.21   29.60
  -3   6   3  918.41   30.80
   2  -6  -3  176.88   11.50
   2  -6  -3  172.38   11.30
   2  -6  -3  165.88   10.10
  -2   6   3  172.18    8.70
  -2   6   3  166.08    8.10
  -2   6   3  188.28   10.70
   1  -6  -3    2.30    4.40
   1  -6  -3   -1.90    2.70
   1  -6  -3    0.10    2.80
   1  -6  -3    2.20    3.80
  -1   6   3    0.50    4.40
  -1   6   3    1.40    2.40
   0  -6  -3   74.59    9.40
   0  -6  -3   73.19    8.70
   0  -6  -3   73.69    7.10
   0  -6  -3   75.19    6.60
   0   6   3   77.79    8.70
   0   6   3   60.49    7.30
  -1  -6  -3  182.78   11.20
  -1  -6  -3  183.28    8.90
  -1  -6  -3  160.28   11.80
  -1  -6  -3  181.48   13.90
   1   6   3  190.68   13.10
   1   6   3  179.18   11.10
  -2  -6  -3  566.14   26.90
  -2  -6  -3  588.64   19.70
  -2  -6  -3  610.94   24.70
  -2  -6  -3  569.14   22.90
   2   6   3  603.54   25.90
   2   6   3  595.84   19.20
   2   6   3  562.54   22.70
  -3  -6  -3  298.57   14.90
  -3  -6  -3  308.87   10.60
  -3  -6  -3  365.56   20.40
  -3  -6  -3  278.47   18.80
   3   6   3  321.67   10.90
   3   6   3  318.57   18.60
  -4  -6  -3  133.59   11.40
  -4  -6  -3  146.59    9.30
  -4  -6  -3  136.59   11.70
  -4  -6  -3  140.89   10.50
  -4  -6  -3  130.29    9.30
   4   6   3  136.29   10.70
   4   6   3  152.18    6.50
   4   6   3  126.99    8.30
   4   6   3  145.69   13.10
  -5  -6  -3   56.59    8.00
  -5  -6  -3   67.29    9.30
  -5  -6  -3   67.69    7.10
  -5  -6  -3   60.49    7.60
   5   6   3   46.90    5.80
   5   6   3   67.89   11.30
  -6  -6  -3  115.59    9.60
  -6  -6  -3  141.19   10.60
  -6  -6  -3  151.18   13.20
  -6  -6  -3  147.49    9.60
  -6  -6  -3  124.89   12.10
   6   6   3  153.88   15.80
   6   6   3  131.79    7.70
   6   6   3  148.79   14.70
   7  -7  -3  198.88   16.00
   7  -7  -3  178.18   13.60
  -7   7   3  175.68   12.80
   6  -7  -3  442.16   16.50
   6  -7  -3  457.45   20.80
   6  -7  -3  492.25   21.80
  -6   7   3  398.16   21.00
  -6   7   3  444.06   19.40
   5  -7  -3  307.07   16.30
   5  -7  -3  288.57   13.60
   5  -7  -3  317.57   16.10
   5  -7  -3  254.17   13.50
  -5   7   3  296.77   10.40
   4  -7  -3   38.70    6.90
   4  -7  -3   45.10    6.50
  -4   7   3   40.80    5.30
  -4   7   3   43.60    5.30
   3  -7  -3  300.07   15.80
   3  -7  -3  297.67   15.80
  -3   7   3  333.17   15.20
  -3   7   3  319.07   13.00
  -3   7   3  292.87   12.60
   2  -7  -3   11.90    4.10
   2  -7  -3   14.80    5.30
   2  -7  -3   15.80    5.30
  -2   7   3   18.00    3.50
  -2   7   3   17.00    4.80
  -2   7   3   12.20    4.50
   1  -7  -3   95.99    8.00
   1  -7  -3  113.19   11.40
   1  -7  -3  116.19   12.10
  -1   7   3  116.09   10.50
  -1   7   3  106.39    6.30
   0  -7  -3   61.59    6.70
   0  -7  -3   68.99   10.50
   0  -7  -3   54.89    9.70
   0   7   3   51.19    7.80
   0   7   3   63.99    9.00
  -1  -7  -3  282.57   12.00
  -1  -7  -3  287.27   18.30
   1   7   3  266.77   14.20
  -2  -7  -3    4.00    5.90
  -2  -7  -3   16.20    5.00
   2   7   3    3.30    4.80
   2   7   3    8.60    6.00
  -3  -7  -3 1095.69   41.40
   3   7   3 1128.39   43.00
   3   7   3 1098.99   33.90
  -4  -7  -3  166.98   12.80
  -4  -7  -3  150.68    9.40
  -4  -7  -3  154.68   13.90
  -4  -7  -3  154.78    9.50
   4   7   3  153.48    6.80
   4   7   3  150.28   14.30
  -5  -7  -3  152.18   14.00
  -5  -7  -3  147.29    9.70
  -5  -7  -3  129.79   12.80
  -5  -7  -3  154.08    9.80
   5   7   3  152.38   18.30
   6  -8  -3   -0.10    4.50
  -6   8   3   -6.60    4.00
   5  -8  -3  298.57   16.20
   5  -8  -3  292.37   16.60
  -5   8   3  283.57   14.00
  -5   8   3  273.67   11.10
   4  -8  -3   75.39    8.40
   4  -8  -3   92.69   10.40
   4  -8  -3   96.49    9.60
  -4   8   3   76.99    7.30
   3  -8  -3  168.38   10.60
   3  -8  -3  149.29   12.00
   3  -8  -3  158.28   12.30
  -3   8   3  158.88    8.90
  -3   8   3  150.58    8.90
  -3   8   3  154.78   11.10
   2  -8  -3  103.09    8.90
   2  -8  -3   92.89   10.40
   2  -8  -3   98.89   10.60
  -2   8   3  101.79    9.80
  -2   8   3   99.69    6.80
  -2   8   3   92.19    7.80
   1  -8  -3  243.48   13.10
   1  -8  -3  252.47   14.90
   1  -8  -3  238.28   16.10
  -1   8   3  247.18   14.70
  -1   8   3  260.37   13.00
  -1   8   3  248.88   10.30
   0  -8  -3    2.10    3.30
   0  -8  -3    2.60    5.20
   0  -8  -3   -6.00    4.50
   0  -8  -3    2.70    4.90
   0   8   3    0.80    4.80
  -1  -8  -3   64.99    6.50
  -1  -8  -3   75.79    9.60
   1   8   3   72.79   10.50
  -2  -8  -3    3.20    4.60
   2   8   3    6.00    6.20
  -3  -8  -3   64.19    7.20
  -3  -8  -3   69.19    9.70
   3   8   3   72.49   12.00
   3   8   3   62.19    4.10
  -4  -8  -3   71.19    9.20
  -4  -8  -3   79.09    7.90
   4   8   3   81.69    4.70
   4  -9  -3   -3.30    4.50
   4  -9  -3    1.90    4.50
   3  -9  -3  108.99   11.20
  -3   9   3  106.09   10.70
  -3   9   3  112.29    7.80
  -3   9   3   83.79    8.70
   2  -9  -3    0.30    5.60
   2  -9  -3   -1.60    3.90
   2  -9  -3   -2.70    5.60
  -2   9   3   -0.70    6.10
  -2   9   3    6.40    3.10
   1  -9  -3   34.30    7.00
   1  -9  -3   27.50    5.30
   1  -9  -3   43.10    9.30
  -1   9   3   37.30    5.00
  -1   9   3   32.60    6.70
  -1   9   3   30.50    7.10
   0  -9  -3   90.99   11.10
   0  -9  -3   84.49   10.90
   0   9   3   91.79   10.90
   0   9   3   74.49    5.50
  -1  -9  -3  619.74   28.20
  -1  -9  -3  625.54   22.50
   2   9   3    6.30    6.50
   0  10  -4  393.46   21.90
   0  10  -4  377.06   20.20
   0 -10   4  433.96   19.30
   0 -10   4  413.96   14.90
  -1  10  -4    0.00    5.30
  -1  10  -4   -2.40    4.80
   1 -10   4   -5.10    4.60
   1 -10   4   -3.00    2.60
  -2  10  -4    4.20    5.10
   2 -10   4   19.60    6.20
   2 -10   4    0.20    3.30
   3   9  -4   14.00    4.00
   3   9  -4   12.30    8.80
  -3  -9   4   13.20    6.30
  -3  -9   4    9.90    4.60
   2   9  -4   22.50    5.20
   2   9  -4   20.80    5.50
   2   9  -4   31.20    8.90
  -2  -9   4   23.50    5.40
  -2  -9   4    8.60    4.40
  -2  -9   4   12.40    3.90
   1   9  -4    5.70    5.60
   1   9  -4   10.60    5.20
  -1  -9   4    4.50    5.10
  -1  -9   4    2.40    4.00
  -1  -9   4    2.80    2.90
   0   9  -4  123.59    9.10
   0   9  -4  147.29   16.00
   0   9  -4  112.69   10.50
   0  -9   4  144.49   11.00
   0  -9   4  126.79    7.40
  -1   9  -4   -1.80    4.50
  -1   9  -4   -0.90    3.30
   1  -9   4   -1.60    4.30
  -2   9  -4  110.69   10.60
  -2   9  -4  105.39   10.40
   2  -9   4  126.19   10.40
   2  -9   4  114.09    7.60
  -3   9  -4    2.10    4.40
   3  -9   4    2.00    3.30
   3  -9   4   11.30    5.40
  -4   9  -4   64.59    6.00
   4  -9   4   61.29    7.60
   4  -9   4   79.19   10.60
  -5   9  -4  135.49    8.60
   5  -9   4  122.39   13.80
   5   8  -4   49.70   11.20
  -5  -8   4   42.30    5.90
  -5  -8   4   30.70    8.70
   4   8  -4  532.15   29.10
   4   8  -4  527.85   24.30
  -4  -8   4  531.15   20.60
  -4  -8   4  531.85   25.50
  -4  -8   4  476.75   16.80
   3   8  -4    2.30    3.10
   3   8  -4    9.70    4.40
   3   8  -4    0.60    6.00
  -3  -8   4   -3.20    3.00
  -3  -8   4   -4.70    5.90
   2   8  -4  514.45   26.70
   2   8  -4  491.45   18.60
   2   8  -4  505.35   22.80
  -2  -8   4  477.75   18.70
  -2  -8   4  515.65   19.90
  -2  -8   4  493.95   19.00
   1   8  -4  273.27   15.70
   1   8  -4  290.17   13.10
  -1  -8   4  296.77   12.50
  -1  -8   4  317.57   14.30
  -1  -8   4  302.77   13.60
   0   8  -4    7.30    5.20
   0   8  -4    5.30    4.20
   0   8  -4    5.10    4.50
   0  -8   4    9.80    4.30
   0  -8   4   11.60    4.10
  -1   8  -4  426.66   18.90
  -1   8  -4  450.75   21.10
  -1   8  -4  412.06   19.60
   1  -8   4  426.86   18.30
   1  -8   4  504.15   24.00
   1  -8   4  446.76   15.90
  -2   8  -4   81.09    8.50
  -2   8  -4   67.39    7.90
  -2   8  -4   73.89    7.80
   2  -8   4   74.59    6.10
   2  -8   4   69.39    8.40
   2  -8   4   71.69    8.90
   3  -8   4  302.97   15.80
   3  -8   4  303.07   15.50
   3  -8   4  311.17   13.80
  -4   8  -4   12.30    3.50
   4  -8   4   12.50    5.70
   4  -8   4   10.40    5.60
  -5   8  -4  183.48    9.30
   5  -8   4  183.78   13.50
   5  -8   4  209.78   13.40
  -6   8  -4   24.40    4.80
   6  -8   4   30.00    7.30
   6   7  -4  499.45   29.90
   6   7  -4  451.05   23.00
  -6  -7   4  463.25   20.20
  -6  -7   4  427.36   23.40
   5   7  -4   -0.60    1.90
   5   7  -4    5.50    4.30
   5   7  -4   -2.80    6.30
  -5  -7   4    0.00    5.70
  -5  -7   4    2.40    4.10
  -5  -7   4    4.00    6.20
   4   7  -4    4.50    6.40
   4   7  -4   -3.90    2.30
   4   7  -4   -0.10    4.90
   4   7  -4    4.70    6.20
  -4  -7   4    2.50    5.40
  -4  -7   4   -2.20    2.20
   3   7  -4   80.99   12.20
   3   7  -4   73.39    5.50
   3   7  -4   81.69    8.90
  -3  -7   4   77.39    6.30
  -3  -7   4   65.99    7.00
   2   7  -4    5.10    4.60
  -2  -7   4   10.30    3.90
  -2  -7   4    2.20    3.20
  -2  -7   4   13.00    3.60
   1   7  -4  156.18    8.70
   1   7  -4  173.88   13.50
   1   7  -4  171.38   13.50
  -1  -7   4  166.68    9.60
  -1  -7   4  175.88    9.70
   0   7  -4   15.70    5.80
   0   7  -4    9.80    3.50
   0   7  -4   19.00    5.60
   0  -7   4   12.80    3.80
   0  -7   4   12.30    4.40
  -1   7  -4   40.20    6.40
  -1   7  -4   47.60    8.20
  -1   7  -4   42.40    5.60
   1  -7   4   41.80    6.00
   1  -7   4   38.40    5.70
   1  -7   4   38.00    5.10
   1  -7   4   41.10    4.40
  -2   7  -4  406.36   17.80
  -2   7  -4  403.36   18.50
  -2   7  -4  426.56   18.40
   2  -7   4  398.96   18.40
   2  -7   4  430.66   16.30
   2  -7   4  467.65   18.50
  -3   7  -4  937.31   31.40
   3  -7   4  934.71   33.90
   3  -7   4  928.81   31.80
  -4   7  -4  474.15   18.40
   4  -7   4  526.05   20.90
   4  -7   4  463.55   19.30
   4  -7   4  468.15   20.00
  -5   7  -4    4.40    6.60
  -5   7  -4    3.90    3.40
   5  -7   4    4.60    5.60
   5  -7   4   -4.40    3.50
   5  -7   4    5.00    5.20
  -6   7  -4    8.20    5.70
  -6   7  -4   19.80    4.40
   6  -7   4   12.20    6.30
   6  -7   4   23.60    6.70
   7  -7   4  102.69   11.30
   7  -7   4   90.19    9.10
   7   6  -4  388.66   20.10
   7   6  -4  418.66   26.60
  -7  -6   4  400.96   21.10
   6   6  -4  102.99   15.00
   6   6  -4  101.29   10.70
  -6  -6   4   83.79    8.60
  -6  -6   4   90.29   10.60
  -6  -6   4   83.29   10.90
   5   6  -4  265.77   14.60
   5   6  -4  284.77   16.30
   5   6  -4  286.77   20.50
  -5  -6   4  288.07   13.90
  -5  -6   4  315.77   25.30
  -5  -6   4  277.77   10.00
  -5  -6   4  278.17   15.90
   4   6  -4   -0.60    5.20
   4   6  -4   -0.10    1.80
   4   6  -4    5.90    4.60
   4   6  -4   -0.90    5.70
   4   6  -4    1.00    3.50
  -4  -6   4   -2.70    3.70
  -4  -6   4    0.50    4.70
  -4  -6   4   -0.50    2.10
  -4  -6   4   -0.90    4.40
   3   6  -4  200.48   18.00
   3   6  -4  173.28    7.70
   3   6  -4  178.98   10.80
  -3  -6   4  191.38   12.60
  -3  -6   4  196.48    9.20
  -3  -6   4  185.58   10.20
   2   6  -4    8.00    3.80
   2   6  -4    5.10    2.60
   2   6  -4    7.50    4.80
   2   6  -4    2.90    5.50
  -2  -6   4    9.10    3.20
  -2  -6   4    0.70    2.70
   1   6  -4 2622.44   82.39
   1   6  -4 2773.32   89.09
   1   6  -4 2681.83   85.89
  -1  -6   4 2862.01   82.89
  -1  -6   4 2779.82   83.49
   0   6  -4    3.20    4.50
   0   6  -4   -1.20    3.80
   0   6  -4    3.10    3.00
   0  -6   4    3.50    4.10
   0  -6   4    5.00    3.30
   0  -6   4    2.30    3.60
  -1   6  -4  185.38   11.40
  -1   6  -4  202.58   12.20
  -1   6  -4  192.88   10.40
  -1   6  -4  193.88    9.70
   1  -6   4  198.68    8.80
   1  -6   4  176.68   10.80
   1  -6   4  192.08   10.00
   1  -6   4  197.68   10.00
  -2   6  -4  118.09    8.30
  -2   6  -4  128.09    8.50
  -2   6  -4  122.19    9.20
   2  -6   4  128.29    9.20
   2  -6   4  119.59    8.40
   2  -6   4  105.19   10.70
   2  -6   4  112.19    9.70
  -3   6  -4  944.21   33.10
  -3   6  -4  968.90   32.50
  -3   6  -4  930.51   31.30
  -3   6  -4  939.41   29.50
   3  -6   4  977.40   33.00
   3  -6   4  907.21   33.00
   3  -6   4  945.51   32.00
   3  -6   4  990.90   33.30
  -4   6  -4    9.40    5.30
  -4   6  -4   21.40    3.90
   4  -6   4   22.80    6.40
   4  -6   4   20.80    4.40
   4  -6   4   21.60    6.60
   4  -6   4   19.10    3.70
  -5   6  -4  124.49    7.40
   5  -6   4  125.69    8.50
   5  -6   4  128.59   10.70
  -6   6  -4    4.80    5.40
  -6   6  -4   21.40    8.20
   6  -6   4   10.00    5.80
   6  -6   4   16.50    6.00
   6  -6   4   11.80    3.90
  -7   6  -4   20.80    6.20
   7  -6   4   18.20    6.10
   7  -6   4   16.00    4.10
   7  -6   4   21.20    6.80
  -8   6  -4   92.19   11.60
   8  -6   4  112.99   11.00
   8  -6   4  119.19    8.10
   8  -6   4  110.69   12.30
   7   5  -4  188.98   13.50
   7   5  -4  201.88   19.10
  -7  -5   4  189.48   13.50
  -7  -5   4  194.48   12.40
  -7  -5   4  175.88   14.30
   6   5  -4  532.65   23.40
   6   5  -4  554.24   29.40
  -6  -5   4  527.25   24.40
  -6  -5   4  553.94   23.40
  -6  -5   4  534.75   22.10
   5   5  -4  473.65   25.30
   5   5  -4  465.25   20.10
  -5  -5   4  439.26   15.10
  -5  -5   4  437.16   19.70
  -5  -5   4  367.36   21.60
   4   5  -4  119.19    9.90
   4   5  -4   96.79    8.60
   4   5  -4  103.99    9.10
   4   5  -4  107.29   15.00
  -4  -5   4   99.89    9.20
  -4  -5   4  105.39    6.10
  -4  -5   4  104.19    7.70
  -4  -5   4  103.39    9.10
   3   5  -4   84.19    7.30
   3   5  -4   76.89   10.70
   3   5  -4   70.59    4.10
   3   5  -4   69.29    7.50
   3   5  -4   69.89    8.00
  -3  -5   4   66.89    6.40
  -3  -5   4   77.69    8.20
  -3  -5   4   56.49    7.20
  -3  -5   4   61.79    5.50
   2   5  -4    6.50    2.50
   2   5  -4   15.50    4.20
   2   5  -4   10.40    4.30
   2   5  -4    6.90    4.20
  -2  -5   4    1.20    2.70
  -2  -5   4    7.30    3.50
  -2  -5   4    8.80    3.10
   1   5  -4 3117.19   95.59
   1   5  -4 3077.69   94.39
   1   5  -4 3181.08   97.79
  -1  -5   4 3252.97   94.59
  -1  -5   4 3199.28   97.99
  -1  -5   4 3248.07   95.59
   0   5  -4  346.47   13.40
   0   5  -4  364.26   14.30
   0   5  -4  364.36   15.80
   0  -5   4  360.96   13.60
   0  -5   4  355.66   15.90
   0  -5   4  328.07   15.30
  -1   5  -4 2336.97   70.69
  -1   5  -4 2327.67   72.09
  -1   5  -4 2336.37   69.89
   1  -5   4 2316.47   69.89
   1  -5   4 2324.97   71.39
   1  -5   4 2360.96   70.69
   1  -5   4 2353.66   71.69
   1  -5   4 2217.68   72.09
  -2   5  -4  154.68    8.80
  -2   5  -4  158.28    8.20
  -2   5  -4  158.28    9.20
  -2   5  -4  155.38    6.30
   2  -5   4  152.98    9.70
   2  -5   4  153.88    8.00
   2  -5   4  156.48    9.00
   2  -5   4  149.69    9.00
  -3   5  -4   23.40    4.60
  -3   5  -4   24.80    4.20
  -3   5  -4   20.90    3.30
  -3   5  -4   25.20    4.00
  -3   5  -4   25.50    4.60
   3  -5   4   20.30    4.70
   3  -5   4   23.40    3.90
   3  -5   4   14.20    4.60
   3  -5   4   24.30    4.10
  -4   5  -4  185.78   11.30
  -4   5  -4  178.18    8.60
  -4   5  -4  190.68    8.30
  -4   5  -4  174.68    9.90
   4  -5   4  188.98    9.70
   4  -5   4  175.88   11.30
   4  -5   4  166.68    9.90
   4  -5   4  186.98   10.70
  -5   5  -4   35.80    6.60
  -5   5  -4   36.80    4.60
  -5   5  -4   34.40    5.00
   5  -5   4   35.50    5.10
   5  -5   4   36.10    6.40
  -6   5  -4   16.00    4.10
  -6   5  -4   11.40    5.20
  -6   5  -4   18.00    4.10
   6  -5   4   14.80    3.50
   6  -5   4   13.20    5.80
   6  -5   4   12.40    4.00
  -7   5  -4    1.50    5.20
  -7   5  -4    4.80    6.90
   7  -5   4   12.90    6.00
   7  -5   4    5.90    3.70
   7  -5   4    7.70    5.80
  -8   5  -4   57.09    8.50
   8  -5   4   42.60    6.60
   8   4  -4  192.58   13.20
  -8  -4   4  173.28   13.20
  -8  -4   4  163.58   11.80
   7   4  -4   55.59    8.00
   7   4  -4   63.39   12.50
  -7  -4   4   44.80    7.80
  -7  -4   4   66.49    8.50
  -7  -4   4   61.79    9.60
   6   4  -4   74.39    7.00
   6   4  -4   70.19   12.10
   6   4  -4   68.89    4.30
   6   4  -4   76.29    8.50
   6   4  -4   64.19    8.90
  -6  -4   4   79.49   10.20
  -6  -4   4   82.29    8.30
  -6  -4   4   83.49    7.80
   5   4  -4  209.18   10.00
   5   4  -4  220.58   12.90
  -5  -4   4  221.18   12.60
  -5  -4   4  223.28    9.30
  -5  -4   4  224.98   11.90
  -5  -4   4  213.38   12.20
   4   4  -4 1183.48   40.00
   4   4  -4 1140.89   36.10
   4   4  -4 1126.69   37.90
   4   4  -4 1118.79   38.20
  -4  -4   4 1170.18   37.90
  -4  -4   4 1115.69   39.50
  -4  -4   4 1156.08   38.60
  -4  -4   4 1143.49   38.70
  -4  -4   4 1179.08   36.30
   3   4  -4 1134.49   35.70
   3   4  -4 1153.28   39.60
   3   4  -4 1159.58   38.20
   3   4  -4 1152.98   37.80
  -3  -4   4 1185.98   38.60
  -3  -4   4 1146.69   39.40
  -3  -4   4 1217.08   37.80
  -3  -4   4 1150.58   36.80
   2   4  -4   10.60    3.30
   2   4  -4    8.90    1.80
   2   4  -4    9.20    3.20
   2   4  -4    6.70    3.40
  -2  -4   4   12.70    3.70
  -2  -4   4   12.20    2.10
  -2  -4   4   16.70    3.00
   1   4  -4 1151.68   38.50
   1   4  -4 1077.99   34.50
   1   4  -4 1156.78   36.60
   1   4  -4 1142.89   36.00
  -1  -4   4 1175.68   38.60
  -1  -4   4 1222.08   37.00
  -1  -4   4 1180.98   35.40
   0   4  -4  538.15   19.90
   0   4  -4  515.25   17.10
   0   4  -4  538.25   18.60
   0  -4   4  503.95   21.30
   0  -4   4  531.75   19.40
   0  -4   4  513.15   17.70
   0  -4   4  538.35   18.80
  -1   4  -4  254.37   10.10
  -1   4  -4  266.57   11.00
  -1   4  -4  244.28    8.80
  -1   4  -4  254.07   11.50
   1  -4   4  253.87   10.80
   1  -4   4  257.57   11.60
   1  -4   4  249.97   11.40
  -2   4  -4   49.99    3.70
  -2   4  -4   52.09    5.20
  -2   4  -4   47.30    5.80
  -2   4  -4   47.50    4.70
   2  -4   4   49.50    4.70
   2  -4   4   56.79    6.30
   2  -4   4   42.90    4.50
   2  -4   4   49.60    5.60
  -3   4  -4   -0.20    2.30
  -3   4  -4    1.70    2.70
  -3   4  -4    7.70    2.70
  -3   4  -4    5.40    3.70
  -3   4  -4    1.80    2.70
   3  -4   4    1.00    2.40
   3  -4   4    3.30    4.00
   3  -4   4    4.60    2.40
   3  -4   4    6.10    3.80
  -4   4  -4  983.50   30.60
  -4   4  -4  995.60   34.00
  -4   4  -4 1003.00   33.60
  -4   4  -4  977.60   31.90
   4  -4   4  991.50   32.90
   4  -4   4  991.00   33.60
   4  -4   4  981.70   33.40
   4  -4   4  960.40   31.90
  -5   4  -4  210.48   12.40
  -5   4  -4  216.28   11.90
  -5   4  -4  205.98   10.30
   5  -4   4  202.28   11.40
   5  -4   4  203.68   11.20
   5  -4   4  198.08    9.40
   5  -4   4  191.58   12.10
  -6   4  -4 2505.75   80.89
  -6   4  -4 2565.64   81.59
  -6   4  -4 2618.84   79.19
   6  -4   4 2505.45   77.19
   6  -4   4 2544.35   79.09
   6  -4   4 2632.34   80.89
  -7   4  -4   72.49    9.00
  -7   4  -4   67.59    8.10
  -7   4  -4   70.89    7.80
   7  -4   4   64.19    4.80
   7  -4   4   56.19    8.20
   7  -4   4   66.09    9.90
   7  -4   4   59.19    7.00
  -8   4  -4   50.09    7.50
  -8   4  -4   55.19    7.50
  -8   4  -4   48.70    6.40
   8  -4   4   38.00    7.60
   8  -4   4   38.80    6.50
   8  -4   4   49.50    4.20
   8   3  -4  647.64   32.50
   8   3  -4  612.94   22.00
   8   3  -4  659.43   27.40
   8   3  -4  621.84   22.80
  -8  -3   4  627.44   26.00
  -8  -3   4  643.64   25.80
   7   3  -4  422.26   24.30
   7   3  -4  416.56   15.80
   7   3  -4  421.16   19.80
   7   3  -4  390.96   20.30
  -7  -3   4  422.56   18.80
  -7  -3   4  434.86   18.80
  -7  -3   4  415.26   18.20
   6   3  -4  323.57   15.80
   6   3  -4  382.86   18.50
   6   3  -4  369.46   15.50
   6   3  -4  351.56   13.30
   6   3  -4  343.77   13.70
  -6  -3   4  358.56   16.10
  -6  -3   4  346.87   15.30
  -6  -3   4  344.27   16.10
   5   3  -4  173.38   11.30
   5   3  -4  151.18    8.60
   5   3  -4  153.98    7.00
   5   3  -4  142.39    7.90
   5   3  -4  148.69    9.60
  -5  -3   4  165.38    8.10
  -5  -3   4  157.68    9.40
  -5  -3   4  154.88    9.60
  -5  -3   4  158.78   10.20
   4   3  -4 1005.60   34.30
   4   3  -4 1059.79   32.50
   4   3  -4 1064.49   35.20
   4   3  -4 1078.39   33.80
   4   3  -4  997.00   33.90
   4   3  -4 1071.29   36.90
  -4  -3   4 1083.09   35.20
  -4  -3   4 1055.69   33.70
  -4  -3   4 1105.39   35.10
  -4  -3   4 1065.09   35.10
  -4  -3   4 1052.99   36.50
   3   3  -4    2.60    1.90
   3   3  -4    0.60    2.70
   3   3  -4    1.00    2.50
  -3  -3   4    1.70    2.60
  -3  -3   4    1.20    3.20
  -3  -3   4    0.60    2.70
  -3  -3   4    3.00    2.40
  -3  -3   4    2.50    3.00
   2   3  -4  941.61   34.90
   2   3  -4  982.50   33.40
   2   3  -4  974.60   31.40
   2   3  -4  980.60   31.40
  -2  -3   4 1009.30   35.40
  -2  -3   4 1004.70   31.80
  -2  -3   4 1014.10   29.20
   1   3  -4  500.65   16.20
   1   3  -4  512.25   18.90
   1   3  -4  528.95   16.70
   1   3  -4  438.36   21.00
   1   3  -4  523.55   17.40
  -1  -3   4  506.65   16.10
  -1  -3   4  547.65   18.00
  -1  -3   4  484.95   18.60
   0   3  -4   84.99    5.80
   0   3  -4   86.69    4.70
   0   3  -4   90.79    3.80
   0   3  -4   94.09    6.70
   0  -3   4   90.39    5.10
   0  -3   4   85.09    6.50
   0  -3   4   81.59    5.70
   0  -3   4   86.49    6.00
  -1   3  -4  377.26   13.60
  -1   3  -4  380.16   14.50
  -1   3  -4  379.76   13.90
   1  -3   4  370.96   14.20
   1  -3   4  380.46   14.50
   1  -3   4  391.06   14.30
   1  -3   4  388.86   14.00
  -2   3  -4 1875.21   56.89
  -2   3  -4 2072.79   57.79
  -2   3  -4 1908.41   57.59
  -2   3  -4 1863.11   57.89
  -2   3  -4 1918.91   58.39
   2  -3   4 1919.91   60.09
   2  -3   4 1950.50   57.79
   2  -3   4 1822.82   57.89
   2  -3   4 1851.21   57.79
   2  -3   4 1710.43   57.39
  -3   3  -4  489.75   17.20
  -3   3  -4  519.85   17.20
  -3   3  -4  482.15   18.20
  -3   3  -4  504.45   18.70
  -3   3  -4  495.95   16.90
   3  -3   4  503.15   19.90
   3  -3   4  455.25   16.70
   3  -3   4  468.55   17.80
   3  -3   4  504.85   18.50
  -4   3  -4   41.10    5.10
  -4   3  -4   42.60    5.00
  -4   3  -4   38.00    4.60
  -4   3  -4   37.60    5.30
   4  -3   4   45.10    3.90
   4  -3   4   34.80    5.30
   4  -3   4   37.30    4.70
   4  -3   4   43.30    7.00
  -5   3  -4    3.90    3.70
  -5   3  -4    4.10    4.40
  -5   3  -4    4.20    3.80
  -5   3  -4    5.20    3.80
  -5   3  -4    5.40    2.60
   5  -3   4   -2.70    4.00
   5  -3   4    7.30    4.50
   5  -3   4    4.20    2.00
   5  -3   4    3.30    3.00
   5  -3   4    2.20    4.00
   5  -3   4    3.50    3.70
  -6   3  -4  481.05   23.20
  -6   3  -4  502.85   19.90
  -6   3  -4  492.35   19.30
  -6   3  -4  494.55   21.50
   6  -3   4  496.95   16.30
   6  -3   4  478.55   19.50
  -7   3  -4   20.70    5.30
  -7   3  -4   15.90    5.30
  -7   3  -4   12.10    4.60
   7  -3   4   11.50    4.20
   7  -3   4    9.70    5.50
   7  -3   4   21.60    6.10
  -8   3  -4  432.46   19.50
  -8   3  -4  427.36   20.10
  -8   3  -4  418.96   18.60
   8  -3   4  394.96   18.20
   8  -3   4  407.26   20.00
   9  -3   4    1.40    6.30
   8   2  -4  455.45   21.20
   8   2  -4  422.76   17.00
   8   2  -4  400.96   17.50
   8   2  -4  426.46   24.50
  -8  -2   4  421.56   19.20
   7   2  -4   37.10    4.70
   7   2  -4   41.60    8.90
   7   2  -4   42.50    5.30
   7   2  -4   47.30    7.10
   7   2  -4   39.80    6.60
  -7  -2   4   44.20    6.10
  -7  -2   4   40.10    6.10
   6   2  -4  214.88   12.80
   6   2  -4  204.78   10.90
   6   2  -4  199.48   10.00
  -6  -2   4  202.88   10.80
  -6  -2   4  202.78   11.70
   5   2  -4   19.00    3.30
   5   2  -4   20.50    4.40
   5   2  -4   23.40    4.50
   5   2  -4   17.10    4.10
   5   2  -4   19.10    3.10
  -5  -2   4   17.60    4.50
  -5  -2   4   20.00    3.60
  -5  -2   4   20.20    3.40
  -5  -2   4   28.80    4.60
   4   2  -4   86.89    5.30
   4   2  -4   84.29    6.40
   4   2  -4   92.69    6.00
   4   2  -4   97.29    8.30
   4   2  -4   93.19    6.60
   4   2  -4  101.69    7.20
  -4  -2   4   85.99    6.70
  -4  -2   4  101.89    6.90
  -4  -2   4   85.19    6.10
  -4  -2   4   94.09    6.20
   3   2  -4    6.80    3.10
   3   2  -4    3.70    2.70
   3   2  -4    1.70    2.50
   3   2  -4    4.50    3.30
  -3  -2   4    7.90    3.50
  -3  -2   4    2.00    2.20
  -3  -2   4    6.30    2.90
  -3  -2   4    5.20    2.30
  -3  -2   4    3.90    2.50
   2   2  -4 4278.77  125.29
   2   2  -4 4170.88  126.49
   2   2  -4 4214.78  123.99
   2   2  -4 4314.07  124.29
  -2  -2   4 4208.88  124.99
  -2  -2   4 4141.59  124.09
  -2  -2   4 4145.08  125.99
  -2  -2   4 4245.68  124.29
   1   2  -4  823.12   24.30
   1   2  -4  767.72   24.80
   1   2  -4  825.72   28.60
   1   2  -4  791.12   25.90
  -1  -2   4  778.52   25.80
  -1  -2   4  766.62   23.90
  -1  -2   4  742.03   26.10
  -1  -2   4  795.12   25.60
   0   2  -4  214.98   10.60
   0   2  -4  208.78    8.60
   0   2  -4  194.68    9.10
   0  -2   4  229.38    9.20
   0  -2   4  208.08    9.30
   0  -2   4  218.38    9.10
  -1   2  -4  928.51   30.10
  -1   2  -4  948.41   30.30
  -1   2  -4  928.71   30.10
   1  -2   4  931.31   30.10
   1  -2   4  990.90   31.30
   1  -2   4  968.00   30.50
  -2   2  -4 1800.52   53.99
  -2   2  -4 1777.22   54.19
  -2   2  -4 1710.73   52.69
  -2   2  -4 1775.72   53.59
   2  -2   4 1680.33   52.59
   2  -2   4 1733.63   53.39
   2  -2   4 1758.32   53.89
  -3   2  -4   76.69    5.80
  -3   2  -4   78.29    5.50
  -3   2  -4   73.99    4.10
  -3   2  -4   80.29    5.90
   3  -2   4   80.19    4.20
   3  -2   4   77.49    4.10
   3  -2   4   77.69    6.00
   3  -2   4   80.29    6.70
   3  -2   4   71.49    6.80
  -4   2  -4 1056.59   38.10
  -4   2  -4 1164.28   38.10
  -4   2  -4 1147.69   37.20
  -4   2  -4 1150.88   37.50
   4  -2   4 1195.98   35.90
   4  -2   4 1183.18   39.00
   4  -2   4 1172.98   38.00
   4  -2   4 1165.48   34.80
   4  -2   4 1170.78   37.60
  -5   2  -4   48.80    6.00
  -5   2  -4   52.79    7.10
  -5   2  -4   63.59    6.50
  -5   2  -4   47.30    7.80
  -5   2  -4   56.89    6.50
   5  -2   4   55.89    7.90
   5  -2   4   59.79    5.20
   5  -2   4   49.10    7.20
   5  -2   4   56.49    5.00
   5  -2   4   43.60    6.50
   5  -2   4   61.59    7.20
   5  -2   4   42.90    5.70
  -6   2  -4   35.40    6.30
  -6   2  -4   34.30    6.20
  -6   2  -4   39.10    5.40
  -6   2  -4   33.20    5.50
  -6   2  -4   34.40    5.30
   6  -2   4   30.20    5.40
   6  -2   4   35.20    6.10
   6  -2   4   28.00    5.30
   6  -2   4   38.10    5.60
  -7   2  -4  149.99   10.00
  -7   2  -4  134.79   10.60
   7  -2   4  137.99    9.40
   7  -2   4  150.88   12.20
   7  -2   4  138.09   10.80
   7  -2   4  161.18   11.70
   7  -2   4  157.88   14.30
  -8   2  -4  299.07   15.60
  -8   2  -4  285.27   14.60
  -8   2  -4  310.47   15.30
   8  -2   4  267.37   15.50
   8  -2   4  288.17   15.10
   8  -2   4  252.67   11.60
   8  -2   4  261.67   15.50
  -9   2  -4   72.19    9.60
   9  -2   4   59.99    6.00
   9  -2   4   51.89    9.60
   9  -2   4   70.99    9.90
   9   1  -4    0.10    4.90
   9   1  -4    5.50    4.20
   9   1  -4   -0.30    6.50
   8   1  -4   18.00    5.50
   8   1  -4    7.60    4.60
   8   1  -4   14.40    5.70
   8   1  -4   22.10    4.70
   8   1  -4   15.90    3.90
   8   1  -4    9.70    6.80
  -8  -1   4   23.00    5.20
   7   1  -4   89.99    7.10
   7   1  -4   96.99    7.10
   7   1  -4  103.09    4.80
   7   1  -4   88.09    8.60
   7   1  -4   95.49    7.60
  -7  -1   4  107.59    8.80
   6   1  -4  331.07   15.00
   6   1  -4  347.77   15.90
   6   1  -4  350.36   17.10
   6   1  -4  332.87   11.20
   6   1  -4  333.37   14.30
   6   1  -4  354.56   14.20
  -6  -1   4  356.06   15.30
  -6  -1   4  365.36   15.20
   5   1  -4   17.20    3.40
   5   1  -4   10.20    4.00
   5   1  -4   23.40    4.50
   5   1  -4   12.20    3.40
   5   1  -4   21.10    3.60
   5   1  -4   15.10    3.90
   5   1  -4   11.50    3.10
  -5  -1   4   23.60    4.20
  -5  -1   4   26.10    5.50
  -5  -1   4   21.60    4.20
  -5  -1   4   21.50    4.00
   4   1  -4  133.79    7.80
   4   1  -4  131.19    7.40
   4   1  -4  133.49    8.80
   4   1  -4  132.49    9.10
   4   1  -4  119.69    7.50
   4   1  -4  122.59    6.60
  -4  -1   4  127.09    7.30
  -4  -1   4  126.39    6.20
  -4  -1   4  135.09    8.60
  -4  -1   4  126.79    7.30
  -4  -1   4  129.39    7.60
   3   1  -4  929.41   30.30
   3   1  -4  923.41   31.90
   3   1  -4  961.70   30.00
   3   1  -4  913.01   28.80
  -3  -1   4  934.61   29.50
  -3  -1   4  909.81   28.70
  -3  -1   4  934.61   30.30
  -3  -1   4  956.30   31.00
   2   1  -4 2034.10   62.59
   2   1  -4 2042.00   62.39
   2   1  -4 1950.40   59.49
  -2  -1   4 2039.60   60.89
  -2  -1   4 1977.30   59.09
  -2  -1   4 1985.70   61.09
  -2  -1   4 2021.10   59.79
  -1  -1   4 7493.05  218.98
  -1  -1   4 7448.45  217.08
   0   1  -4 2616.74   77.29
   0   1  -4 2583.54   77.99
   0   1  -4 2644.54   78.09
   0  -1   4 2587.94   77.99
   0  -1   4 2564.34   77.09
  -1   1  -4  574.54   19.80
  -1   1  -4  557.04   18.90
  -1   1  -4  576.34   19.70
  -1   1  -4  577.04   19.70
  -1   1  -4  611.54   20.30
   1  -1   4  579.14   19.10
   1  -1   4  583.94   19.30
   1  -1   4  564.24   19.60
  -2   1  -4   78.49    5.80
  -2   1  -4   78.99    6.00
  -2   1  -4   78.49    6.40
  -2   1  -4   76.99    4.10
   2  -1   4   82.09    6.40
   2  -1   4   82.49    5.80
   2  -1   4   81.19    5.30
   2  -1   4   84.39    4.70
   2  -1   4   89.59    6.30
  -3   1  -4    4.60    3.40
  -3   1  -4    5.70    3.20
  -3   1  -4    5.30    2.50
   3  -1   4    5.90    2.60
   3  -1   4    6.50    3.10
   3  -1   4    4.40    2.80
   3  -1   4    4.40    3.30
   3  -1   4    5.40    2.50
   3  -1   4    9.40    2.80
  -4   1  -4 1942.11   58.59
  -4   1  -4 1900.71   59.59
  -4   1  -4 1894.61   60.69
  -4   1  -4 1822.02   60.59
  -4   1  -4 1897.51   60.29
   4  -1   4 2117.69   60.99
   4  -1   4 1917.71   61.19
   4  -1   4 1965.10   58.89
   4  -1   4 1932.31   59.49
   4  -1   4 1891.71   59.19
   4  -1   4 1885.81   59.89
   4  -1   4 1908.51   59.99
  -5   1  -4  403.96   16.90
  -5   1  -4  426.66   17.40
  -5   1  -4  448.56   16.60
  -5   1  -4  408.56   18.30
  -5   1  -4  409.96   17.90
   5  -1   4  439.66   17.30
   5  -1   4  427.16   16.30
   5  -1   4  410.16   17.20
   5  -1   4  423.76   18.60
   5  -1   4  417.96   17.90
   5  -1   4  399.96   16.00
   5  -1   4  420.86   16.00
  -6   1  -4   55.29    7.00
  -6   1  -4   50.39    6.80
  -6   1  -4   49.40    6.80
  -6   1  -4   54.19    7.30
   6  -1   4   53.89    8.70
   6  -1   4   55.79    6.10
   6  -1   4   67.59    6.90
   6  -1   4   55.39    5.80
   6  -1   4   49.60    6.20
   6  -1   4   54.29    7.70
  -7   1  -4   34.50    5.80
  -7   1  -4   24.50    5.20
  -7   1  -4   18.10    5.00
   7  -1   4   26.60    4.40
   7  -1   4   25.00    5.70
   7  -1   4   26.70    5.30
   7  -1   4   32.80    6.20
   7  -1   4   22.30    5.80
   7  -1   4   27.60    5.50
  -8   1  -4   16.70    4.90
  -8   1  -4    5.70    4.40
  -8   1  -4   13.80    5.20
   8  -1   4    6.80    5.20
   8  -1   4   14.20    4.00
   8  -1   4   11.70    4.00
   8  -1   4   10.00    5.90
   8  -1   4   19.60    6.10
  -9   1  -4  703.73   27.20
  -9   1  -4  647.94   28.70
   9  -1   4  709.63   28.30
   9  -1   4  662.73   25.10
   9  -1   4  691.83   28.00
   9  -1   4  670.63   25.40
   9   0  -4    2.30    4.20
   9   0  -4    5.80    4.20
   9   0  -4   17.50    3.50
   9   0  -4    3.70    6.00
   9   0  -4   16.70    4.10
   9   0  -4    9.20    3.80
   8   0  -4   13.70    5.60
   8   0  -4   10.50    4.30
   8   0  -4   17.90    3.90
   8   0  -4    8.60    4.40
   8   0  -4   16.00    4.80
   8   0  -4   17.60    3.20
  -8   0   4   20.00    5.30
   7   0  -4    5.20    4.10
   7   0  -4    5.20    3.70
   7   0  -4    7.90    3.20
   7   0  -4    7.30    3.70
   7   0  -4   13.30    3.40
  -7   0   4   11.50    6.20
  -7   0   4    6.50    4.50
   6   0  -4    3.80    2.30
   6   0  -4    2.20    2.90
   6   0  -4   -1.40    2.90
   6   0  -4    1.20    2.80
   6   0  -4    5.10    3.70
   6   0  -4    1.90    4.10
   6   0  -4    1.10    3.50
   6   0  -4    5.00    3.10
  -6   0   4    3.80    3.80
  -6   0   4    6.80    5.00
   5   0  -4 3180.98   94.99
   5   0  -4 3066.89   92.29
   5   0  -4 3149.78   95.29
   5   0  -4 3162.88   94.89
   5   0  -4 3094.09   94.99
   5   0  -4 3068.99   93.69
   5   0  -4 3146.59   97.19
   5   0  -4 3043.30   92.39
  -5   0   4 3096.19   94.99
  -5   0   4 3154.58   94.89
  -5   0   4 3312.97   96.89
   4   0  -4   27.30    3.30
   4   0  -4   26.60    3.90
   4   0  -4   32.40    4.80
   4   0  -4   22.70    3.20
   4   0  -4   25.10    3.00
   4   0  -4   36.20    5.20
   4   0  -4   28.70    3.70
  -4   0   4   32.10    5.20
  -4   0   4   30.00    4.20
   3   0  -4  154.58    7.10
   3   0  -4  153.08    5.90
   3   0  -4  147.99    7.70
   3   0  -4  158.88    7.90
   3   0  -4  148.99    6.20
   3   0  -4  167.28    5.80
   3   0  -4  160.88    9.00
  -3   0   4  167.08    8.40
  -3   0   4  157.88    6.10
  -3   0   4  158.48    8.00
  -3   0   4  157.68    7.70
   2   0  -4 1053.99   33.10
   2   0  -4 1066.19   35.90
   2   0  -4 1133.39   33.50
   2   0  -4 1130.59   35.50
  -2   0   4 1135.79   34.80
  -2   0   4 1120.39   33.30
  -2   0   4 1100.99   35.10
   1   0  -4 4041.00  120.79
   1   0  -4 4233.98  122.69
   1   0  -4 4144.59  122.29
   1   0  -4 4123.19  122.69
  -1   0   4 4026.80  120.49
  -1   0   4 4226.58  120.99
  -1   0   4 4060.29  122.09
   0   0  -4 1553.54   48.30
   0   0  -4 1629.94   49.20
   0   0  -4 1564.24   48.50
   0   0  -4 1543.95   47.80
   0   0   4 1539.05   48.50
   0   0   4 1614.14   47.10
   0   0   4 1593.24   47.50
  -1   0  -4   27.20    3.20
  -1   0  -4   39.00    5.30
  -1   0  -4   40.60    4.90
   1   0   4   40.00    5.50
   1   0   4   33.00    4.20
   1   0   4   41.40    4.50
   1   0   4   42.90    4.70
  -2   0  -4  642.04   23.20
  -2   0  -4  671.43   22.50
  -2   0  -4  657.03   20.80
  -2   0  -4  684.33   24.00
  -2   0  -4  710.93   23.20
   2   0   4  703.13   23.40
   2   0   4  637.14   22.20
   2   0   4  689.03   21.60
   2   0   4  687.43   23.20
   2   0   4  668.03   22.90
  -3   0  -4  353.16   15.20
  -3   0  -4  357.06   14.40
  -3   0  -4  351.86   16.60
  -3   0  -4  339.87   12.30
   3   0   4  340.47   13.00
   3   0   4  362.56   14.20
   3   0   4  344.87   14.00
   3   0   4  348.87   14.40
   3   0   4  339.27   13.00
  -4   0  -4   33.10    4.60
  -4   0  -4   45.70    6.60
  -4   0  -4   47.80    5.10
  -4   0  -4   53.49    5.50
   4   0   4   47.30    6.20
   4   0   4   41.80    5.40
   4   0   4   44.00    4.60
   4   0   4   55.59    5.70
   4   0   4   44.00    6.50
  -5   0  -4 7295.67  207.78
  -5   0  -4 7025.80  209.08
  -5   0  -4 6885.61  221.48
  -5   0  -4 7115.19  209.78
   5   0   4 7035.10  208.98
   5   0   4 7147.58  209.48
   5   0   4 7261.97  209.38
   5   0   4 6908.61  207.58
   5   0   4 7019.30  208.88
   5   0   4 6901.61  211.08
  -6   0  -4   36.50    4.90
  -6   0  -4   37.00    5.60
  -6   0  -4   36.00    6.70
  -6   0  -4   34.40    5.20
   6   0   4   35.10    6.00
   6   0   4   34.70    5.70
   6   0   4   41.70    5.50
   6   0   4   41.10    6.80
   6   0   4   44.70    6.30
  -7   0  -4  247.38   12.50
  -7   0  -4  233.18   15.30
  -7   0  -4  259.97   14.20
  -7   0  -4  244.48   13.50
   7   0   4  268.27   17.10
   7   0   4  234.98   14.30
   7   0   4  245.28   13.30
   7   0   4  247.38   11.50
   7   0   4  247.98   13.70
  -8   0  -4    9.40    5.10
  -8   0  -4   13.20    4.40
  -8   0  -4   14.90    5.00
   8   0   4    8.60    4.10
   8   0   4   12.30    6.30
   8   0   4   18.30    4.90
  -9   0  -4   43.30    7.30
  -9   0  -4   41.00   11.90
   9   0   4   63.89    7.80
   9   0   4   57.09    8.10
   9   0   4   56.99    9.50
   9  -1  -4  164.28   11.70
   9  -1  -4  179.18    9.10
   9  -1  -4  163.48   13.90
   9  -1  -4  190.98   14.80
   9  -1  -4  169.78   11.00
   8  -1  -4  174.28   12.70
   8  -1  -4  172.48   13.90
   8  -1  -4  199.58   11.70
   8  -1  -4  201.08   11.50
   8  -1  -4  188.18    9.30
  -8   1   4  204.68   14.20
  -8   1   4  200.48   11.90
   7  -1  -4   12.30    3.80
   7  -1  -4    7.80    4.20
   7  -1  -4   12.40    3.80
   7  -1  -4    0.30    3.60
   7  -1  -4    8.50    2.50
   7  -1  -4   17.10    3.50
  -7   1   4   15.70    5.90
  -7   1   4    2.80    4.80
   6  -1  -4  407.86   16.80
   6  -1  -4  430.66   19.30
   6  -1  -4  397.16   14.70
   6  -1  -4  393.36   15.70
   6  -1  -4  385.56   16.70
   6  -1  -4  399.96   17.10
   6  -1  -4  389.16   13.00
   6  -1  -4  415.76   16.80
   6  -1  -4  410.56   13.40
  -6   1   4  410.66   18.60
  -6   1   4  408.16   16.80
   5  -1  -4 3254.27   96.99
   5  -1  -4 3337.87   98.19
   5  -1  -4 3046.20   96.39
   5  -1  -4 3358.66  100.59
   5  -1  -4 3252.47   98.29
   5  -1  -4 3132.29   94.69
   5  -1  -4 3273.97   98.59
  -5   1   4 3235.38   97.89
  -5   1   4 3347.47   99.79
  -5   1   4 3196.48   96.39
   4  -1  -4  581.54   19.60
   4  -1  -4  629.14   21.80
   4  -1  -4  597.74   20.60
   4  -1  -4  593.14   19.70
   4  -1  -4  598.24   21.00
  -4   1   4  587.14   19.60
  -4   1   4  615.74   20.90
  -4   1   4  578.74   21.40
  -4   1   4  614.24   22.10
   3  -1  -4   48.70    4.30
   3  -1  -4   51.29    3.00
   3  -1  -4   49.99    4.10
   3  -1  -4   51.29    4.60
   3  -1  -4   48.50    4.80
  -3   1   4   49.00    4.30
  -3   1   4   49.30    4.20
  -3   1   4   51.99    4.80
  -3   1   4   52.99    5.90
   2  -1  -4   12.40    3.60
   2  -1  -4   15.90    2.50
   2  -1  -4    9.40    2.50
   2  -1  -4   15.40    3.10
   2  -1  -4   12.10    2.00
   2  -1  -4   13.10    2.00
  -2   1   4   11.80    3.10
  -2   1   4   13.30    2.50
  -2   1   4   13.60    1.70
   1  -1  -4  850.51   27.20
   1  -1  -4  932.41   30.20
   1  -1  -4  900.41   28.00
  -1   1   4  926.51   27.60
  -1   1   4  934.01   28.70
  -1   1   4  902.41   29.40
   0  -1  -4 1469.95   45.30
   0  -1  -4 1442.86   46.70
   0  -1  -4 1495.95   44.70
   0  -1  -4 1558.54   46.00
   0   1   4 1494.75   44.90
   0   1   4 1426.36   45.60
   0   1   4 1477.95   45.60
  -1  -1  -4 1609.14   49.80
  -1  -1  -4 1547.05   50.09
  -1  -1  -4 1640.74   51.69
  -1  -1  -4 1662.53   49.90
  -1  -1  -4 1578.44   48.30
   1   1   4 1591.54   49.70
   1   1   4 1826.92   52.79
   1   1   4 1637.44   49.99
   1   1   4 1541.75   49.60
  -2  -1  -4 1042.50   36.10
  -2  -1  -4 1089.29   36.10
  -2  -1  -4 1015.60   33.40
  -2  -1  -4 1094.89   31.90
  -2  -1  -4 1082.29   32.80
   2   1   4 1080.39   34.80
   2   1   4 1039.20   33.40
   2   1   4 1080.69   34.60
   2   1   4 1018.90   34.00
  -3  -1  -4   67.99    4.20
  -3  -1  -4   58.29    6.20
  -3  -1  -4   67.99    6.60
  -3  -1  -4   65.89    8.30
  -3  -1  -4   66.19    7.40
   3   1   4   70.59    6.50
   3   1   4   61.89    6.20
   3   1   4   64.79    6.70
   3   1   4   60.19    4.70
  -4  -1  -4   37.30    4.80
  -4  -1  -4   23.10    5.30
  -4  -1  -4   29.00    5.00
  -4  -1  -4   30.40    4.10
  -4  -1  -4   31.80    4.70
   4   1   4   32.70    5.00
   4   1   4   29.80    5.10
   4   1   4   26.40    3.90
   4   1   4   27.80    4.80
  -5  -1  -4 1685.93   53.59
  -5  -1  -4 1695.33   54.49
  -5  -1  -4 1750.82   54.89
  -5  -1  -4 1732.53   55.89
  -5  -1  -4 1748.23   52.79
  -5  -1  -4 1635.34   57.49
   5   1   4 1657.03   56.49
   5   1   4 1648.24   52.19
   5   1   4 1678.63   54.89
   5   1   4 1807.92   56.09
  -6  -1  -4  270.17   16.30
  -6  -1  -4  284.47   14.50
  -6  -1  -4  277.37   16.50
  -6  -1  -4  288.77   12.90
  -6  -1  -4  286.47   13.70
   6   1   4  283.97   11.60
   6   1   4  302.87   15.60
   6   1   4  282.27   14.70
  -7  -1  -4  388.86   17.80
  -7  -1  -4  388.46   20.90
  -7  -1  -4  389.76   18.20
   7   1   4  385.76   18.80
   7   1   4  374.76   18.60
   7   1   4  381.66   18.80
  -8  -1  -4    6.10    4.80
  -8  -1  -4   10.80    4.30
   8   1   4   11.30    3.40
   8   1   4   14.50    6.00
   8   1   4   10.20    5.70
   9  -2  -4   96.99   10.40
   9  -2  -4  112.29    9.80
   9  -2  -4   90.39    9.80
   9  -2  -4   85.99   10.80
   9  -2  -4   99.69    7.60
  -9   2   4   58.09   15.20
   8  -2  -4   83.19    7.30
   8  -2  -4   84.49    7.60
   8  -2  -4   81.29   10.00
   8  -2  -4   81.39    8.40
  -8   2   4   77.59   10.60
   7  -2  -4  345.07   16.60
   7  -2  -4  341.17   15.00
   7  -2  -4  350.86   14.00
   7  -2  -4  322.77   16.50
   7  -2  -4  353.56   18.20
  -7   2   4  357.66   18.60
   6  -2  -4   53.29    6.50
   6  -2  -4   60.09    6.00
   6  -2  -4   49.10    6.30
   6  -2  -4   55.89    7.10
   6  -2  -4   55.19    5.70
  -6   2   4   50.59    6.00
  -6   2   4   64.19    9.90
   5  -2  -4  722.83   30.10
   5  -2  -4  627.14   22.00
   5  -2  -4  648.04   22.90
   5  -2  -4  624.24   22.10
   5  -2  -4  621.84   23.80
   5  -2  -4  634.94   22.90
  -5   2   4  623.84   21.90
  -5   2   4  628.54   22.50
  -5   2   4  645.54   24.40
   4  -2  -4   61.99    5.80
   4  -2  -4   67.79    5.80
   4  -2  -4   69.99    5.70
   4  -2  -4   65.59    6.00
   4  -2  -4   69.09    7.10
  -4   2   4   62.09    5.30
  -4   2   4   57.49    6.70
  -4   2   4   62.29    6.80
  -4   2   4   68.79    5.60
   3  -2  -4  997.60   32.40
   3  -2  -4  976.90   30.90
   3  -2  -4 1019.70   34.40
   3  -2  -4  985.10   32.30
  -3   2   4  898.91   32.00
  -3   2   4  935.21   30.70
   2  -2  -4  121.19    7.40
   2  -2  -4  121.29    7.70
   2  -2  -4  126.19    5.90
   2  -2  -4  111.59    7.80
  -2   2   4  121.39    7.40
  -2   2   4  119.79    6.70
  -2   2   4  116.39    4.30
   1  -2  -4  816.52   25.00
   1  -2  -4  831.02   27.10
   1  -2  -4  808.42   28.10
   1  -2  -4  799.82   25.70
  -1   2   4  806.22   27.00
  -1   2   4  786.42   25.20
  -1   2   4  816.52   26.60
  -1   2   4  886.51   28.20
   0  -2  -4 1395.16   43.90
   0  -2  -4 1454.45   46.40
   0  -2  -4 1462.45   45.90
   0   2   4 1377.26   44.50
   0   2   4 1426.76   44.40
   0   2   4 1525.95   45.60
   0   2   4 1373.26   43.60
  -1  -2  -4   15.40    3.20
  -1  -2  -4   10.50    3.90
  -1  -2  -4   19.10    2.90
   1   2   4   11.20    2.50
   1   2   4    6.80    3.40
   1   2   4    8.40    6.50
   1   2   4   13.50    3.40
  -2  -2  -4 3543.55  102.89
  -2  -2  -4 3399.66  100.59
  -2  -2  -4 3635.84  108.79
  -2  -2  -4 3253.67  100.99
  -2  -2  -4 3445.36  101.09
   2   2   4 3205.98  100.89
   2   2   4 3228.08  102.49
   2   2   4 3309.97  102.19
   2   2   4 3596.64  103.69
  -3  -2  -4    0.40    3.70
  -3  -2  -4    0.20    3.10
  -3  -2  -4   -1.60    2.30
  -3  -2  -4    3.00    3.10
  -3  -2  -4    1.30    1.50
   3   2   4    2.80    3.40
   3   2   4    0.00    3.40
   3   2   4    2.00    3.40
  -4  -2  -4   11.40    3.70
  -4  -2  -4    9.60    1.80
  -4  -2  -4   11.70    3.70
  -4  -2  -4    9.00    4.40
  -4  -2  -4    9.10    4.70
   4   2   4    8.50    4.40
   4   2   4    2.80    3.90
   4   2   4    5.70    2.30
   4   2   4    5.40    4.30
  -5  -2  -4  571.04   21.20
  -5  -2  -4  544.45   22.80
  -5  -2  -4  567.64   21.40
  -5  -2  -4  537.95   20.80
  -5  -2  -4  530.85   24.60
   5   2   4  563.14   23.10
   5   2   4  555.44   20.30
   5   2   4  558.74   22.20
   5   2   4  459.25   21.90
   5   2   4  543.85   18.40
  -6  -2  -4 1509.05   52.79
  -6  -2  -4 1449.76   54.49
  -6  -2  -4 1490.85   49.70
  -6  -2  -4 1577.64   50.69
   6   2   4 1564.54   52.59
   6   2   4 1514.95   46.90
   6   2   4 1574.94   51.39
  -7  -2  -4  187.58   12.00
  -7  -2  -4  192.78   12.30
  -7  -2  -4  199.38   13.20
  -7  -2  -4  203.28   12.40
   7   2   4  182.88    8.40
   7   2   4  200.98   13.20
   7   2   4  201.28   13.80
  -8  -2  -4  182.98   12.90
  -8  -2  -4  182.08   12.40
   8   2   4  170.88    8.00
   8   2   4  186.58   14.10
   8   2   4  190.78   14.50
   8  -3  -4  360.76   17.40
   8  -3  -4  360.96   19.10
   8  -3  -4  311.97   15.30
   8  -3  -4  333.37   14.90
   8  -3  -4  328.67   16.10
  -8   3   4  357.06   19.30
   7  -3  -4  857.21   31.10
   7  -3  -4  908.41   31.80
   7  -3  -4  915.71   33.10
   7  -3  -4  905.81   30.70
  -7   3   4  895.61   34.20
   6  -3  -4   46.50    7.50
   6  -3  -4   64.19    7.20
   6  -3  -4   62.59    6.50
   6  -3  -4   64.99    7.00
   6  -3  -4   58.49    7.20
  -6   3   4   68.69    6.60
  -6   3   4   44.60    8.70
  -6   3   4   55.99    6.60
   5  -3  -4    6.10    4.00
   5  -3  -4   -0.50    2.70
   5  -3  -4    5.00    3.90
   5  -3  -4    2.10    3.10
   5  -3  -4    4.60    4.20
  -5   3   4   -0.80    4.50
  -5   3   4    5.50    3.50
  -5   3   4    0.60    3.00
   4  -3  -4   58.89    6.70
   4  -3  -4   58.49    5.30
   4  -3  -4   53.89    5.90
   4  -3  -4   53.19    6.50
  -4   3   4   57.09    5.50
  -4   3   4   62.79    7.00
  -4   3   4   50.89    5.40
   3  -3  -4  443.76   16.50
   3  -3  -4  443.66   15.60
   3  -3  -4  411.56   17.20
   3  -3  -4  456.85   17.50
  -3   3   4  471.55   17.80
  -3   3   4  426.46   17.30
  -3   3   4  426.76   15.10
   2  -3  -4   83.89    6.20
   2  -3  -4   88.19    7.00
   2  -3  -4   87.89    6.60
  -2   3   4   81.59    3.90
  -2   3   4   82.29    6.50
  -2   3   4   85.69    6.50
   1  -3  -4  497.55   20.00
   1  -3  -4  501.45   18.40
   1  -3  -4  513.05   18.50
  -1   3   4  543.95   19.20
  -1   3   4  485.15   16.80
  -1   3   4  497.55   18.30
  -1   3   4  498.15   18.20
   0  -3  -4    6.10    3.90
   0  -3  -4    7.80    2.90
   0  -3  -4    6.00    2.50
   0   3   4    9.20    3.60
   0   3   4    6.50    2.90
   0   3   4    4.10    2.40
  -1  -3  -4  523.55   19.70
  -1  -3  -4  533.65   24.60
  -1  -3  -4  551.74   18.90
  -1  -3  -4  546.85   18.90
   1   3   4  517.95   19.30
   1   3   4  527.45   18.50
   1   3   4  569.24   21.00
   1   3   4  533.15   19.70
  -2  -3  -4 3511.95  113.99
  -2  -3  -4 3766.82  109.69
  -2  -3  -4 3656.53  109.19
  -2  -3  -4 3853.91  111.69
   2   3   4 3625.14  109.09
   2   3   4 3924.51  113.09
   2   3   4 3510.55  110.79
   2   3   4 3602.44  110.89
  -3  -3  -4  237.78   14.40
  -3  -3  -4  241.88    9.60
  -3  -3  -4  249.68   10.10
  -3  -3  -4  246.18   12.50
  -3  -3  -4  244.88   11.50
   3   3   4  243.18   13.40
   3   3   4  233.98   12.30
   3   3   4  236.48   12.60
   3   3   4  230.88    9.40
   3   3   4  236.08   12.10
  -4  -3  -4  109.79    8.30
  -4  -3  -4   94.69    7.90
  -4  -3  -4   99.69    5.80
  -4  -3  -4  103.49    8.80
  -4  -3  -4   80.59   10.10
   4   3   4   87.89    6.90
   4   3   4   93.99    8.30
   4   3   4   95.79    9.80
   4   3   4  108.19    9.50
   4   3   4   93.19    5.30
  -5  -3  -4   85.19    5.00
  -5  -3  -4   83.29    9.60
  -5  -3  -4   88.69    9.10
  -5  -3  -4   88.69    8.10
  -5  -3  -4  105.09    8.60
  -5  -3  -4   78.19   10.60
   5   3   4   75.19    4.70
   5   3   4   90.59    9.90
   5   3   4   88.09    7.60
  -6  -3  -4    7.10    4.50
  -6  -3  -4    1.60    3.80
  -6  -3  -4    3.10    5.40
  -6  -3  -4    8.00    4.70
   6   3   4    3.10    1.80
   6   3   4    4.30    5.40
   6   3   4   11.30    6.50
  -7  -3  -4   51.19    7.80
  -7  -3  -4   41.30    6.40
  -7  -3  -4   35.70    5.80
  -7  -3  -4   58.19    8.30
   7   3   4   63.79    9.80
   7   3   4   56.19    9.30
  -8  -3  -4  432.56   21.00
  -8  -3  -4  441.56   20.90
  -8  -3  -4  498.25   23.20
   8   3   4  469.35   23.60
   8  -4  -4    0.30    4.70
   8  -4  -4    4.10    4.00
   8  -4  -4    0.10    7.50
   8  -4  -4    3.10    4.40
  -8   4   4    8.10    6.30
   7  -4  -4  167.68   10.50
   7  -4  -4  162.58   10.20
   7  -4  -4  180.78   12.30
   7  -4  -4  159.78   11.90
  -7   4   4  167.58   12.80
   6  -4  -4 1208.28   40.70
   6  -4  -4 1208.38   40.00
   6  -4  -4 1270.27   42.10
   6  -4  -4 1129.69   40.60
  -6   4   4 1208.08   42.20
  -6   4   4 1173.18   40.00
   5  -4  -4  178.88   11.00
   5  -4  -4  171.58   10.30
  -5   4   4  175.98   11.60
  -5   4   4  172.18    9.90
  -5   4   4  176.38    8.60
   4  -4  -4 1003.70   33.30
   4  -4  -4 1021.40   34.60
   4  -4  -4  889.81   33.80
  -4   4   4  965.00   32.30
  -4   4   4 1030.80   33.30
  -4   4   4 1040.50   32.70
   3  -4  -4  391.46   17.30
   3  -4  -4  426.56   16.70
   3  -4  -4  408.36   16.30
  -3   4   4  385.96   13.70
  -3   4   4  402.16   15.90
  -3   4   4  393.76   14.70
   2  -4  -4  292.07   13.60
   2  -4  -4  308.27   13.50
  -2   4   4  297.17   11.10
  -2   4   4  298.37   10.40
  -2   4   4  343.17   14.60
  -2   4   4  284.07   12.90
   1  -4  -4  249.38   12.20
   1  -4  -4  258.97   15.40
   1  -4  -4  255.77   11.40
  -1   4   4  247.08   11.60
  -1   4   4  242.48   11.60
  -1   4   4  268.67   12.30
   0  -4  -4  376.96   14.30
   0  -4  -4  367.96   15.10
   0  -4  -4  382.46   15.20
   0  -4  -4  361.36   17.30
   0   4   4  355.26   14.40
   0   4   4  387.76   16.10
   0   4   4  362.06   15.10
  -1  -4  -4  171.78    9.50
  -1  -4  -4  170.18    9.30
  -1  -4  -4  155.18    7.90
  -1  -4  -4  155.58   11.70
   1   4   4  156.08    9.30
   1   4   4  158.68    7.70
   1   4   4  166.88   10.80
  -2  -4  -4  447.56   16.90
  -2  -4  -4  422.26   20.80
  -2  -4  -4  437.36   18.20
  -2  -4  -4  439.46   15.60
   2   4   4  424.36   15.40
   2   4   4  468.85   19.80
   2   4   4  413.76   17.50
  -3  -4  -4  160.98    7.40
  -3  -4  -4  173.08   10.20
  -3  -4  -4  160.48   11.00
  -3  -4  -4  124.99   12.30
  -3  -4  -4  167.58    9.10
   3   4   4  159.58   11.80
   3   4   4  159.88   11.20
   3   4   4  159.98    8.20
   3   4   4  157.18    7.10
   3   4   4  155.58   10.10
  -4  -4  -4 1015.90   35.20
  -4  -4  -4 1010.10   33.50
  -4  -4  -4 1072.09   37.60
  -4  -4  -4 1073.99   35.30
   4   4   4  961.50   35.50
   4   4   4 1006.40   31.20
   4   4   4  996.10   33.60
   4   4   4 1019.60   38.20
   4   4   4 1035.20   36.60
  -5  -4  -4   11.50    5.10
  -5  -4  -4   13.10    5.00
  -5  -4  -4   11.60    3.20
  -5  -4  -4    9.10    5.10
  -5  -4  -4   15.60    6.10
   5   4   4   10.80    6.30
   5   4   4   10.80    4.00
   5   4   4   15.80    6.30
   5   4   4   10.30    5.60
  -6  -4  -4   61.59    7.70
  -6  -4  -4   55.49    5.10
  -6  -4  -4   70.29    8.40
  -6  -4  -4   62.29    8.60
  -6  -4  -4   63.19    8.60
   6   4   4   69.89   10.30
   6   4   4   49.10    6.40
   6   4   4   61.99   10.30
  -7  -4  -4   19.70    6.30
  -7  -4  -4   15.00    5.00
  -7  -4  -4    3.00    5.00
  -7  -4  -4   18.40    5.00
   7   4   4   23.30    6.90
   7   4   4   26.00    7.20
   8  -5  -4   17.70    5.80
   8  -5  -4   32.80    6.40
   7  -5  -4    6.40    3.70
   7  -5  -4    1.50    4.40
   7  -5  -4   -2.50    4.30
  -7   5   4    7.00    6.20
   6  -5  -4  273.17   14.90
   6  -5  -4  263.87   14.20
  -6   5   4  271.57   14.20
  -6   5   4  246.78   15.00
   5  -5  -4  153.98   10.40
   5  -5  -4  138.09   10.60
  -5   5   4  139.19    8.90
  -5   5   4  126.19   10.80
   4  -5  -4  230.68   14.40
   4  -5  -4  227.38   12.50
   4  -5  -4  225.98   12.70
  -4   5   4  217.08   12.10
  -4   5   4  235.28   10.60
   3  -5  -4   46.60    5.80
   3  -5  -4   32.40    5.90
   3  -5  -4   40.40    6.90
  -3   5   4   29.50    5.50
  -3   5   4   41.80    3.60
  -3   5   4   38.00    4.80
   2  -5  -4  537.65   20.90
   2  -5  -4  563.74   21.40
   2  -5  -4  532.45   22.50
  -2   5   4  522.25   18.30
  -2   5   4  538.75   20.70
  -2   5   4  585.04   21.50
  -2   5   4  528.55   16.60
   1  -5  -4   55.39    6.90
   1  -5  -4   69.49    6.40
   1  -5  -4   54.39    7.70
   1  -5  -4   48.60    8.10
  -1   5   4   60.69    7.40
  -1   5   4   58.29    7.00
  -1   5   4   56.59    3.70
   0  -5  -4 2794.02   85.39
   0  -5  -4 2748.43   83.59
   0  -5  -4 2705.33   84.79
   0  -5  -4 2683.73   84.89
   0  -5  -4 2652.73   88.09
   0   5   4 2931.81   86.39
  -1  -5  -4  405.86   20.70
  -1  -5  -4  435.36   18.40
  -1  -5  -4  421.36   15.90
  -1  -5  -4  427.46   17.30
   1   5   4  456.05   19.80
   1   5   4  419.86   14.20
   1   5   4  398.66   17.50
  -2  -5  -4  401.36   17.10
  -2  -5  -4  403.06   18.50
  -2  -5  -4  396.06   21.20
   2   5   4  405.66   14.50
   2   5   4  411.26   17.60
   2   5   4  438.56   19.90
  -3  -5  -4    6.50    4.70
  -3  -5  -4    2.60    3.30
  -3  -5  -4    3.60    2.40
   3   5   4    4.70    5.50
   3   5   4    8.70    6.20
   3   5   4    0.50    2.80
  -4  -5  -4   11.20    4.00
  -4  -5  -4    6.50    4.40
  -4  -5  -4    5.00    4.00
  -4  -5  -4    6.50    5.60
   4   5   4   18.80    7.00
   4   5   4   11.50    3.90
   4   5   4   11.40    5.80
   4   5   4    2.10    4.70
  -5  -5  -4  191.48   11.30
  -5  -5  -4  168.08   10.00
  -5  -5  -4  186.08   11.50
  -5  -5  -4  177.68   12.10
  -5  -5  -4  202.88   14.60
   5   5   4  185.38   13.60
   5   5   4  143.19    9.90
   5   5   4  199.18   14.90
  -6  -5  -4  130.39   13.00
  -6  -5  -4  129.19   11.50
  -6  -5  -4  123.59   10.90
  -6  -5  -4  108.39   11.60
   6   5   4  147.39   12.90
   6   5   4  138.19   13.70
  -7  -5  -4   20.00    5.20
  -7  -5  -4   18.50    7.80
  -7  -5  -4   19.90    7.10
  -7  -5  -4   14.50    5.60
   7   5   4   30.40    9.20
   7  -6  -4    2.60    5.10
  -7   6   4    1.20    7.70
   6  -6  -4   58.99    8.60
   6  -6  -4   63.39    8.90
  -6   6   4   66.79    8.30
   5  -6  -4  576.94   24.10
   5  -6  -4  577.44   23.40
   5  -6  -4  590.44   23.60
  -5   6   4  560.64   21.60
  -5   6   4  589.04   26.00
   4  -6  -4 1130.09   39.30
   4  -6  -4 1117.39   39.40
   4  -6  -4 1139.59   39.10
  -4   6   4 1094.19   36.50
   3  -6  -4 1113.49   37.50
   3  -6  -4 1043.50   38.20
  -3   6   4 1024.60   33.90
  -3   6   4 1056.39   32.60
   2  -6  -4   28.40    5.10
   2  -6  -4   46.60    6.50
   2  -6  -4   41.50    6.90
  -2   6   4   39.30    4.30
  -2   6   4   30.00    6.10
  -2   6   4   33.30    5.40
   1  -6  -4  171.98    9.90
   1  -6  -4  171.88   13.40
   1  -6  -4  173.68   11.70
   1  -6  -4  156.88   10.30
  -1   6   4  178.18   11.30
  -1   6   4  164.48    6.90
   0  -6  -4  297.37   13.20
   0  -6  -4  291.87   14.10
   0  -6  -4  277.67   14.80
   0  -6  -4  292.17   14.80
   0  -6  -4  288.57   17.20
   0   6   4  301.47   15.60
   0   6   4  256.07    9.20
  -1  -6  -4  166.58   14.20
  -1  -6  -4  185.78   11.50
  -1  -6  -4  175.88   11.60
  -1  -6  -4  202.58    9.60
   1   6   4  178.08    7.00
   1   6   4  198.68   13.40
  -2  -6  -4    7.00    3.60
  -2  -6  -4    5.80    6.10
  -2  -6  -4    7.20    2.90
  -2  -6  -4    5.60    5.00
   2   6   4    8.80    2.50
   2   6   4    2.70    5.00
  -3  -6  -4   17.00    6.20
  -3  -6  -4   20.90    4.80
  -3  -6  -4   19.80    2.90
  -3  -6  -4   20.00    8.50
   3   6   4   15.50    3.60
   3   6   4   16.30    5.70
   3   6   4   26.50    5.80
  -4  -6  -4   20.30    4.80
  -4  -6  -4   16.50    5.70
  -4  -6  -4   17.50    6.20
  -4  -6  -4   19.90    4.60
   4   6   4   21.80    3.90
   4   6   4   15.40    6.50
  -5  -6  -4 1477.95   53.59
  -5  -6  -4 1483.95   49.20
  -5  -6  -4 1500.65   49.10
  -5  -6  -4 1397.76   50.19
  -5  -6  -4 1438.06   49.00
   5   6   4 1486.85   54.69
   5   6   4 1556.44   52.79
  -6  -6  -4  127.89   12.20
  -6  -6  -4  109.59    9.60
  -6  -6  -4  102.09    9.10
  -6  -6  -4  123.19   10.10
   6  -7  -4    0.40    6.20
   6  -7  -4    0.40    8.50
  -6   7   4   -7.00    5.30
  -6   7   4    4.20    4.10
   5  -7  -4  208.18   13.80
   5  -7  -4  224.58   15.00
   5  -7  -4  201.58   12.40
   4  -7  -4   84.59    9.30
   4  -7  -4   74.79    9.40
   4  -7  -4   88.99   10.30
  -4   7   4   79.99    7.20
  -4   7   4   82.19    5.20
   3  -7  -4  608.34   24.30
   3  -7  -4  563.24   25.10
   3  -7  -4  594.74   23.80
  -3   7   4  585.84   24.10
  -3   7   4  581.14   19.70
  -3   7   4  576.44   20.40
   2  -7  -4   11.00    5.30
   2  -7  -4    0.20    3.90
   2  -7  -4    4.70    5.40
   2  -7  -4   -1.50    4.00
  -2   7   4    2.20    2.40
  -2   7   4    4.30    5.30
  -2   7   4    9.30    4.10
   1  -7  -4  158.88   11.10
   1  -7  -4  164.78   13.10
   1  -7  -4  163.88   12.30
   1  -7  -4  181.18   10.80
  -1   7   4  170.58   12.00
  -1   7   4  148.89    6.90
   0  -7  -4  318.87   13.60
   0  -7  -4  296.87   15.80
   0   7   4  253.67    9.40
  -1  -7  -4  743.23   33.90
  -1  -7  -4  794.42   31.20
  -1  -7  -4  822.42   27.30
   1   7   4  810.32   31.90
  -2  -7  -4    6.20    4.70
  -2  -7  -4   13.80    3.20
   2   7   4    5.90    5.70
  -3  -7  -4  105.19   10.60
  -3  -7  -4   87.99    5.40
   3   7   4   99.99   12.20
  -4  -7  -4   18.50    4.90
  -4  -7  -4   21.10    6.70
  -4  -7  -4   17.80    5.90
   4   7   4   16.30    7.30
   4   7   4    5.60    3.90
  -5  -7  -4    5.40    4.90
  -5  -7  -4   -5.00    5.50
   5   7   4  -10.80   11.10
   5  -8  -4  182.78   11.50
  -5   8   4  173.98   10.30
   4  -8  -4   12.20    6.20
   4  -8  -4   17.00    5.20
   4  -8  -4   15.70    5.60
  -4   8   4   12.30    4.00
   3  -8  -4  348.67   18.40
   3  -8  -4  349.27   17.20
   3  -8  -4  334.87   18.60
  -3   8   4  335.17   13.60
  -3   8   4  334.17   14.90
  -3   8   4  343.67   17.40
   2  -8  -4   19.40    6.40
   2  -8  -4   19.10    4.90
  -2   8   4   14.50    4.40
  -2   8   4   15.20   10.20
  -2   8   4   20.80    3.10
   1  -8  -4  276.87   18.20
   1  -8  -4  280.77   16.30
  -1   8   4  277.37   13.50
   0  -8  -4   -4.30    2.60
   0  -8  -4    3.60    4.00
   0   8   4   -1.60    1.70
   0   8   4    3.20    5.20
  -1  -8  -4   10.40    3.40
  -1  -8  -4   10.00    4.80
   1   8   4    7.70    6.60
  -2  -8  -4  179.48   13.80
  -2  -8  -4  193.28    9.50
   2   8   4  195.88   15.50
  -3  -8  -4  296.97   18.80
   3  -9  -4   78.39   11.00
   3  -9  -4   68.69   11.90
  -3   9   4   78.39   10.30
  -3   9   4   93.09    6.90
   2  -9  -4  233.68   13.30
  -2   9   4  200.68   14.20
  -2   9   4  209.48    9.60
   1  -9  -4  301.67   14.90
   1  -9  -4  259.77   16.80
  -1   9   4  298.47   19.20
  -1   9   4  312.27   15.50
   0  -9  -4   44.60   10.30
   0  -9  -4   40.80    8.00
   0   9   4   37.80    8.10
  -1  -9  -4  139.29   16.70
   1   9   4  144.69   14.20
   3   9  -5   39.80    7.90
   3   9  -5   49.90    5.60
  -3  -9   5   33.10    5.30
   2   9  -5   84.09    7.00
   2   9  -5   88.79   12.80
  -2  -9   5   76.49    7.90
  -2  -9   5   78.29    8.50
   1   9  -5   97.79   10.20
   1   9  -5   94.89    8.50
   1   9  -5  104.29   12.50
  -1  -9   5  101.69    9.20
  -1  -9   5   85.89    7.50
   0   9  -5  260.37   16.70
   0   9  -5  226.08   15.30
   0   9  -5  245.38   12.70
   0  -9   5  247.58   13.70
   0  -9   5  231.18   14.00
  -1   9  -5   12.10    5.20
  -1   9  -5   14.00    5.80
   1  -9   5    6.90    5.30
  -2   9  -5    2.60    4.70
  -2   9  -5    8.10    5.20
   2  -9   5    7.50    6.00
  -3   9  -5  319.67   14.30
   3  -9   5  254.57   13.10
   4  -9   5  130.99   12.20
  -4  -8   5  272.17   14.10
  -4  -8   5  265.77   17.70
   3   8  -5   13.50    7.50
   3   8  -5   16.50    6.10
  -3  -8   5    9.80    4.30
  -3  -8   5    5.00    4.10
  -3  -8   5   11.50    6.30
   2   8  -5   42.80    5.30
   2   8  -5   51.89    7.30
   2   8  -5   37.40    6.80
   2   8  -5   48.90    9.30
  -2  -8   5   38.40    5.40
  -2  -8   5   49.80    6.90
  -2  -8   5   40.80    5.50
   1   8  -5  483.05   18.40
   1   8  -5  474.85   21.90
   1   8  -5  525.05   25.50
  -1  -8   5  475.85   19.40
  -1  -8   5  504.95   19.30
  -1  -8   5  473.75   18.50
   0   8  -5  119.59   11.70
   0   8  -5   95.49    7.50
   0   8  -5  121.79   10.10
   0  -8   5  116.69    9.30
   0  -8   5   92.29   10.10
  -1   8  -5  223.48   14.20
  -1   8  -5  246.58   15.40
   1  -8   5  246.48   13.10
  -2   8  -5   79.79    8.80
  -2   8  -5   66.29    9.00
   2  -8   5   67.99    6.00
   2  -8   5   71.29    8.80
  -3   8  -5    2.00    4.20
   3  -8   5    0.80    3.10
   3  -8   5   -6.10    4.70
   4  -8   5   -4.60    3.90
   4  -8   5    0.00    6.10
   5  -8   5  139.79   12.60
   6  -8   5   35.70    7.80
   6  -8   5   47.50    8.30
   5   7  -5  138.99   12.20
   5   7  -5  139.39   17.00
  -5  -7   5   91.99    5.80
  -5  -7   5  126.79   10.10
  -5  -7   5   95.49   11.30
  -5  -7   5  116.79   11.80
   4   7  -5  386.96   23.50
   4   7  -5  336.47   18.00
  -4  -7   5  359.36   16.10
  -4  -7   5  317.17   18.20
   3   7  -5  773.52   31.10
   3   7  -5  768.02   34.90
   3   7  -5  723.83   27.60
  -3  -7   5  790.72   26.90
   2   7  -5   31.70    7.80
   2   7  -5   39.60    5.50
   2   7  -5   31.20    6.40
  -2  -7   5   31.40    4.80
  -2  -7   5   30.20    4.70
  -2  -7   5   29.70    4.60
   1   7  -5   39.90    7.70
   1   7  -5   38.20    6.50
   1   7  -5   33.90    4.40
  -1  -7   5   40.60    5.20
  -1  -7   5   35.80    4.80
  -1  -7   5   32.90    5.90
   0   7  -5    2.10    4.90
   0   7  -5    5.70    4.60
   0  -7   5   -0.80    3.60
   0  -7   5    2.80    3.90
   0  -7   5    0.80    3.40
  -1   7  -5  645.14   26.60
   1  -7   5  635.84   23.60
  -2   7  -5   20.20    7.10
  -2   7  -5   11.20    4.80
  -2   7  -5   12.00    4.90
   2  -7   5    8.70    4.70
   2  -7   5    9.20    3.20
   2  -7   5   16.00    5.20
  -3   7  -5  497.25   21.00
  -3   7  -5  488.25   20.60
  -3   7  -5  494.75   16.10
   3  -7   5  465.35   20.50
   3  -7   5  529.95   21.90
   3  -7   5  498.65   19.40
  -4   7  -5    3.20    2.50
   4  -7   5    4.30    6.00
   4  -7   5   -0.20    3.60
   4  -7   5    2.00    4.90
   5  -7   5  127.69    9.50
   5  -7   5  140.89   11.50
   5  -7   5  141.89   11.80
  -6   7  -5   -8.20    4.50
   6  -7   5    0.20    6.30
   6  -7   5   -8.10    5.90
   6  -7   5   -8.30    3.70
   7  -7   5  251.07   15.40
   7  -7   5  241.18   16.50
   7  -7   5  246.68   14.80
   6   6  -5    3.70    5.30
   6   6  -5    4.90    9.10
  -6  -6   5    1.60    4.70
  -6  -6   5   -4.20    5.40
  -6  -6   5    0.00    4.20
   5   6  -5   11.30    4.80
   5   6  -5   11.10    7.60
   5   6  -5   19.40    5.70
  -5  -6   5   19.60    5.10
  -5  -6   5    6.30    5.40
  -5  -6   5   11.20    2.80
   4   6  -5   83.89    8.20
   4   6  -5   80.99   12.70
   4   6  -5   96.79   11.10
   4   6  -5   95.59    9.90
  -4  -6   5   88.59    9.80
  -4  -6   5   79.09    8.20
   3   6  -5  744.43   34.60
   3   6  -5  751.62   27.90
   3   6  -5  780.62   30.30
   3   6  -5  758.82   27.20
  -3  -6   5  741.43   26.40
  -3  -6   5  788.22   29.50
  -3  -6   5  768.72   27.20
   2   6  -5  283.07   12.50
   2   6  -5  272.57   17.60
  -2  -6   5  276.67   11.50
  -2  -6   5  278.67   12.60
   1   6  -5   13.40    4.60
   1   6  -5   22.70    3.90
   1   6  -5   21.20    4.70
  -1  -6   5   17.30    3.80
  -1  -6   5   22.90    5.10
  -1  -6   5   23.30    3.90
   0   6  -5   79.49    8.50
   0  -6   5   62.99    7.00
   0  -6   5   81.09    7.60
   0  -6   5   81.29    7.30
  -1   6  -5  981.10   34.90
   1  -6   5  961.00   34.90
   1  -6   5 1011.80   34.10
   1  -6   5 1008.60   33.00
  -2   6  -5   -2.10    3.40
  -2   6  -5    7.40    4.00
  -2   6  -5   14.30    3.30
   2  -6   5    7.70    5.10
   2  -6   5    8.60    5.80
   2  -6   5    8.70    2.90
   2  -6   5   13.40    3.60
   2  -6   5    7.90    3.50
  -3   6  -5 2569.94   75.19
  -3   6  -5 2431.86   76.39
  -3   6  -5 2424.56   77.19
   3  -6   5 2526.35   77.69
   3  -6   5 2435.56   76.39
   3  -6   5 2474.15   77.49
  -4   6  -5  109.89    6.60
  -4   6  -5  102.89    6.00
  -4   6  -5  106.99    8.30
  -4   6  -5  103.19    5.90
   4  -6   5   97.09    7.80
   4  -6   5   94.69    7.60
  -5   6  -5  599.64   23.80
  -5   6  -5  630.84   25.00
   5  -6   5  580.94   22.50
   5  -6   5  576.24   23.90
   5  -6   5  644.94   24.90
   5  -6   5  607.64   23.60
   6  -6   5  222.48   11.20
   6  -6   5  230.78   13.50
  -7   6  -5  232.48   15.40
   7  -6   5  264.17   18.50
   7  -6   5  244.38   11.90
   7  -6   5  267.67   14.60
   7   5  -5 1021.50   39.40
  -7  -5   5 1037.10   37.90
  -7  -5   5 1008.60   37.50
   6   5  -5   76.09    8.90
   6   5  -5   66.69   13.00
  -6  -5   5   58.59    8.20
  -6  -5   5   73.29    9.60
  -6  -5   5   70.09    9.10
   5   5  -5  108.79    9.50
   5   5  -5  117.29   14.30
   5   5  -5  109.69    7.00
   5   5  -5  123.29   11.20
  -5  -5   5  100.19    7.60
  -5  -5   5  110.99    9.10
  -5  -5   5  115.19    9.60
   4   5  -5   19.80    6.80
   4   5  -5   14.40    7.00
   4   5  -5   14.00    2.70
   4   5  -5   12.00    4.30
   4   5  -5   20.40    4.90
  -4  -5   5   11.40    4.50
  -4  -5   5   14.60    5.10
  -4  -5   5   10.20    4.20
   3   5  -5  473.75   15.80
   3   5  -5  461.15   18.70
   3   5  -5  491.35   21.10
   3   5  -5  482.25   18.50
  -3  -5   5  489.75   18.60
  -3  -5   5  486.95   19.90
   2   5  -5 1891.31   60.79
   2   5  -5 1964.40   63.49
   2   5  -5 1969.00   60.39
   2   5  -5 1912.81   57.79
  -2  -5   5 2024.00   58.79
  -2  -5   5 2009.50   61.19
   1   5  -5  114.79    9.40
   1   5  -5  105.29    4.80
   1   5  -5  117.19    9.40
   1   5  -5  112.39    6.80
  -1  -5   5  113.79    9.30
  -1  -5   5  117.99    6.70
  -1  -5   5  119.09    7.90
   0   5  -5 1721.93   54.09
   0   5  -5 1768.42   56.19
   0   5  -5 1739.53   52.49
   0   5  -5 1731.73   52.09
   0  -5   5 1727.43   54.69
   0  -5   5 1713.73   56.19
   0  -5   5 1758.42   53.29
  -1   5  -5   44.10    3.10
  -1   5  -5   41.60    6.10
  -1   5  -5   43.60    4.60
  -1   5  -5   41.30    6.30
   1  -5   5   43.10    6.50
   1  -5   5   40.30    6.00
   1  -5   5   43.80    6.20
   1  -5   5   41.80    6.30
  -2   5  -5  158.38    9.10
  -2   5  -5  162.18    9.60
  -2   5  -5  152.48    6.90
  -2   5  -5  158.88    8.50
   2  -5   5  167.58    9.80
   2  -5   5  163.08    9.50
   2  -5   5  155.28   10.70
   2  -5   5  156.88    9.30
  -3   5  -5 1078.49   32.70
  -3   5  -5  989.90   34.50
  -3   5  -5  996.00   32.00
  -3   5  -5 1007.70   33.80
  -3   5  -5 1022.80   33.90
   3  -5   5  965.00   33.60
   3  -5   5  988.20   33.90
   3  -5   5 1018.10   34.40
   3  -5   5 1014.10   34.10
  -4   5  -5  418.76   17.20
  -4   5  -5  394.46   14.50
  -4   5  -5  359.16   17.50
  -4   5  -5  408.86   15.20
   4  -5   5  401.96   17.60
   4  -5   5  397.96   17.70
   4  -5   5  389.36   16.60
   4  -5   5  399.56   16.30
  -5   5  -5   55.49    5.70
   5  -5   5   60.99    8.90
  -6   5  -5   82.49    9.60
  -6   5  -5   95.19    8.70
  -6   5  -5   96.19    8.00
   6  -5   5   65.89    9.30
   6  -5   5  101.89   10.90
   6  -5   5  100.49    9.70
  -7   5  -5  157.68   11.60
  -7   5  -5  129.09   11.50
  -7   5  -5  159.88   10.00
   7  -5   5  146.29   11.30
   7  -5   5  141.99    7.70
   7  -5   5  151.68   12.60
   8  -5   5  789.62   24.90
   8  -5   5  736.93   29.00
   7   4  -5   32.20    8.90
   7   4  -5   32.20    5.40
   7   4  -5   39.60    5.40
   7   4  -5   29.40    6.50
   7   4  -5   42.10    8.00
   7   4  -5   29.70    4.00
  -7  -4   5   37.50    5.90
  -7  -4   5   35.70    5.70
  -7  -4   5   45.50    7.20
   6   4  -5   70.39    7.20
   6   4  -5   76.59    6.30
   6   4  -5   69.19    9.80
   6   4  -5   78.79   12.90
   6   4  -5   86.69    9.10
   6   4  -5   80.59    4.50
  -6  -4   5   85.89    7.90
  -6  -4   5   74.39    8.90
  -6  -4   5   80.79    9.50
   5   4  -5   65.09    6.20
   5   4  -5   72.19    7.70
   5   4  -5   70.69    3.70
   5   4  -5   83.79    8.90
   5   4  -5   71.59    6.00
  -5  -4   5   63.09    7.90
  -5  -4   5   70.79    7.00
  -5  -4   5   76.29    8.20
   4   4  -5   51.39    7.70
   4   4  -5   58.59    7.40
   4   4  -5   59.39    5.40
   4   4  -5   65.09    6.90
   4   4  -5   60.59    5.90
  -4  -4   5   48.80    6.70
  -4  -4   5   54.19    7.80
  -4  -4   5   51.79    7.30
  -4  -4   5   54.29    7.00
   3   4  -5    1.50    2.10
   3   4  -5   -1.50    3.30
   3   4  -5    0.00    2.90
   3   4  -5    4.10    4.30
   3   4  -5   -3.70    3.70
  -3  -4   5    0.70    2.80
  -3  -4   5    0.60    3.00
  -3  -4   5   -2.10    2.60
  -3  -4   5    0.70    3.10
   2   4  -5 3305.67   98.59
   2   4  -5 3330.97  101.89
   2   4  -5 3194.88   96.79
   2   4  -5 3193.48   98.89
  -2  -4   5 3494.85   96.89
  -2  -4   5 3222.88  101.39
  -2  -4   5 3392.86  101.59
   1   4  -5    2.40    1.70
   1   4  -5    7.60    2.40
   1   4  -5    4.90    3.40
   1   4  -5    8.20    3.90
  -1  -4   5    7.50    3.20
  -1  -4   5    4.90    3.50
  -1  -4   5    6.90    2.60
   0   4  -5 2838.02   84.69
   0   4  -5 2850.91   83.29
   0   4  -5 2830.52   85.49
   0   4  -5 2862.81   87.39
   0  -4   5 2820.52   86.19
   0  -4   5 2924.41   86.59
   0  -4   5 2766.12   87.09
   0  -4   5 2844.42   84.79
  -1   4  -5  246.58   11.10
  -1   4  -5  258.27   11.70
  -1   4  -5  255.67   11.60
   1  -4   5  260.57   10.90
   1  -4   5  257.97   11.70
   1  -4   5  249.88   13.40
   1  -4   5  256.17   12.20
  -2   4  -5   10.10    2.60
  -2   4  -5   11.60    3.20
  -2   4  -5   11.80    3.10
  -2   4  -5    9.60    3.80
   2  -4   5    8.80    4.10
   2  -4   5   11.60    3.50
   2  -4   5   10.90    3.00
   2  -4   5   11.80    4.10
  -3   4  -5  117.79    7.10
  -3   4  -5  120.89    8.00
  -3   4  -5  108.39    6.70
  -3   4  -5  113.89    8.90
  -3   4  -5  120.19    7.40
   3  -4   5  117.89    8.20
   3  -4   5  109.69    9.40
   3  -4   5  117.09    7.70
   3  -4   5  108.89    9.20
   3  -4   5  119.49    7.20
  -4   4  -5 1224.58   41.00
  -4   4  -5 1260.17   39.50
  -4   4  -5 1229.98   41.60
  -4   4  -5 1238.78   39.20
   4  -4   5 1202.18   40.60
   4  -4   5 1221.38   39.10
   4  -4   5 1201.88   40.20
   4  -4   5 1272.87   41.40
  -5   4  -5  114.79    6.80
  -5   4  -5  123.09    9.30
  -5   4  -5  128.49    8.20
  -5   4  -5  119.09   11.00
   5  -4   5  120.69    9.70
   5  -4   5  124.79   12.30
   5  -4   5  109.49    6.50
  -6   4  -5  350.06   16.80
  -6   4  -5  340.67   16.10
  -6   4  -5  340.57   15.80
   6  -4   5  350.56   12.60
   6  -4   5  324.97   21.40
   6  -4   5  310.97   16.00
   6  -4   5  323.37   16.30
   6  -4   5  352.96   17.60
  -7   4  -5    2.70    5.20
  -7   4  -5   -1.80    3.40
  -7   4  -5   -0.90    3.40
   7  -4   5   -3.00    4.80
   7  -4   5   -3.60    5.60
   7  -4   5   -2.40    1.70
  -8   4  -5   51.19    8.00
  -8   4  -5   81.19    8.80
  -8   4  -5   65.09    8.60
   8  -4   5   81.99    9.60
   8   3  -5  160.28   13.30
   8   3  -5  150.18   10.60
   8   3  -5  140.49    9.00
   8   3  -5  158.18    8.90
   8   3  -5  150.08   16.40
  -8  -3   5  143.39   11.90
   7   3  -5   72.99    7.90
   7   3  -5   69.89    6.70
   7   3  -5   75.69    9.00
   7   3  -5   74.09    6.90
   7   3  -5   47.70    9.90
   7   3  -5   61.29    7.30
  -7  -3   5   78.29    7.60
  -7  -3   5   67.89    8.00
  -7  -3   5   67.39    8.20
   6   3  -5  442.86   20.90
   6   3  -5  419.06   17.20
   6   3  -5  419.06   23.50
   6   3  -5  434.86   17.60
   6   3  -5  431.66   16.80
   6   3  -5  425.76   15.70
  -6  -3   5  442.36   18.70
  -6  -3   5  427.86   18.60
  -6  -3   5  442.86   17.80
  -6  -3   5  412.86   16.50
   5   3  -5  236.28   11.30
   5   3  -5  235.58   12.40
   5   3  -5  226.28   11.20
   5   3  -5  244.88   11.40
   5   3  -5  250.67   14.50
   5   3  -5  253.77   10.00
  -5  -3   5  247.98   11.70
  -5  -3   5  263.27   15.10
  -5  -3   5  252.57   11.20
  -5  -3   5  234.28   12.40
   4   3  -5  969.30   33.30
   4   3  -5 1009.20   31.40
   4   3  -5 1024.90   36.30
   4   3  -5  964.40   32.50
   4   3  -5  969.20   32.80
   4   3  -5 1004.00   35.90
  -4  -3   5  976.10   35.30
  -4  -3   5 1168.08   39.60
  -4  -3   5 1023.90   34.00
  -4  -3   5  952.80   33.20
   3   3  -5   32.50    4.90
   3   3  -5   22.00    3.70
   3   3  -5   35.10    5.50
   3   3  -5   33.90    4.90
  -3  -3   5   27.20    4.30
  -3  -3   5   20.80    4.10
  -3  -3   5   27.70    3.80
  -3  -3   5   28.00    4.50
   2   3  -5    7.30    2.60
   2   3  -5   11.10    3.30
   2   3  -5    6.60    2.80
  -2  -3   5   14.00    3.30
  -2  -3   5    7.70    2.80
   1   3  -5   24.60    4.10
   1   3  -5   27.00    4.50
   1   3  -5   27.50    3.90
   1   3  -5   31.50    3.20
  -1  -3   5   27.70    5.00
  -1  -3   5   37.20    4.90
  -1  -3   5   33.10    3.30
  -1  -3   5   39.40    5.00
   0   3  -5 1166.48   36.70
   0   3  -5 1173.78   38.50
   0  -3   5 1230.18   37.90
   0  -3   5 1135.99   36.40
   0  -3   5 1188.48   38.40
   0  -3   5 1176.28   39.50
  -1   3  -5    8.70    3.60
  -1   3  -5   11.90    3.10
  -1   3  -5   12.90    2.90
   1  -3   5    8.40    3.60
   1  -3   5   11.10    2.90
   1  -3   5    8.80    2.80
   1  -3   5   11.30    3.20
  -2   3  -5  101.59    6.70
  -2   3  -5  107.79    7.80
  -2   3  -5  101.29    6.30
  -2   3  -5  102.39    7.00
   2  -3   5  107.49    7.20
   2  -3   5  105.99    7.60
   2  -3   5  101.19    6.00
   2  -3   5  102.89    7.30
  -3   3  -5  116.79    7.30
  -3   3  -5  115.09    6.30
  -3   3  -5  118.49    6.80
  -3   3  -5  116.19    8.40
  -3   3  -5  115.69    7.80
   3  -3   5  114.99    8.00
   3  -3   5  121.89    8.40
   3  -3   5  107.49    6.10
   3  -3   5  107.59    8.10
  -4   3  -5 1213.68   39.90
  -4   3  -5 1194.48   38.90
  -4   3  -5 1200.38   40.40
  -4   3  -5 1225.58   38.70
   4  -3   5 1151.78   37.00
   4  -3   5 1234.78   40.30
   4  -3   5 1185.58   40.40
   4  -3   5 1180.08   39.00
   4  -3   5 1183.68   39.50
   4  -3   5 1206.38   39.70
  -5   3  -5  709.83   28.40
  -5   3  -5  810.92   28.40
  -5   3  -5  751.82   26.80
  -5   3  -5  785.12   26.80
  -5   3  -5  764.42   26.60
   5  -3   5  760.92   27.20
   5  -3   5  758.92   27.00
   5  -3   5  673.73   28.20
   5  -3   5  792.62   27.40
   5  -3   5  774.42   23.90
   5  -3   5  778.62   28.50
  -6   3  -5  106.09    7.80
  -6   3  -5  120.59   10.00
  -6   3  -5  104.29   11.30
  -6   3  -5  106.89    9.40
   6  -3   5  132.19   10.90
   6  -3   5  125.29   15.60
   6  -3   5  102.19   10.10
  -7   3  -5  235.28   12.90
  -7   3  -5  235.78   14.00
  -7   3  -5  229.38   13.50
   7  -3   5  254.07   14.90
   7  -3   5  245.78   13.50
   7  -3   5  233.78   13.20
  -8   3  -5   72.09    8.30
  -8   3  -5   54.29    7.60
  -8   3  -5   69.69    8.40
   8  -3   5   56.69    7.90
   8  -3   5   44.30    7.40
   8   2  -5  380.76   17.10
   8   2  -5  362.56   23.00
   8   2  -5  390.16   16.50
   8   2  -5  409.36   20.50
   8   2  -5  373.66   15.80
  -8  -2   5  402.46   18.70
   7   2  -5  120.89    7.80
   7   2  -5  124.69    8.20
   7   2  -5  122.09   11.50
   7   2  -5  113.59    9.40
   7   2  -5  126.49    8.20
  -7  -2   5  122.89    9.40
  -7  -2   5  119.69    9.70
   6   2  -5   85.59    6.70
   6   2  -5   89.19    7.10
   6   2  -5   91.99    7.90
   6   2  -5   85.69    7.00
  -6  -2   5   80.99    6.80
  -6  -2   5   99.09    8.70
  -6  -2   5   85.79    7.60
   5   2  -5  811.42   27.40
   5   2  -5  816.22   26.60
   5   2  -5  800.62   30.50
   5   2  -5  803.02   28.00
   5   2  -5  792.42   27.20
   5   2  -5  701.53   27.30
  -5  -2   5  787.42   27.40
  -5  -2   5  801.22   27.50
  -5  -2   5  832.02   28.30
   4   2  -5  412.56   15.40
   4   2  -5  446.76   16.40
   4   2  -5  428.16   16.60
   4   2  -5  415.46   18.50
   4   2  -5  432.96   16.70
  -4  -2   5  418.46   16.20
  -4  -2   5  451.45   16.90
  -4  -2   5  444.46   17.10
  -4  -2   5  415.36   15.20
   3   2  -5    9.60    3.00
   3   2  -5    4.90    2.70
   3   2  -5    3.00    3.00
   3   2  -5   11.70    3.40
  -3  -2   5    6.30    3.00
  -3  -2   5    9.70    2.30
  -3  -2   5    1.60    2.80
   2   2  -5  571.74   20.30
   2   2  -5  559.34   18.90
   2   2  -5  564.14   21.70
  -2  -2   5  559.24   18.40
  -2  -2   5  580.84   19.80
  -2  -2   5  562.34   21.00
  -2  -2   5  576.04   18.80
  -2  -2   5  580.94   20.40
   1   2  -5  457.25   16.90
   1   2  -5  446.36   15.60
   1   2  -5  443.66   17.50
  -1  -2   5  444.46   16.60
  -1  -2   5  424.06   17.00
  -1  -2   5  501.45   16.80
  -1  -2   5  427.56   15.20
   0   2  -5  522.85   17.90
   0   2  -5  520.65   18.70
   0   2  -5  542.15   20.80
   0  -2   5  535.35   18.10
   0  -2   5  475.75   18.30
   0  -2   5  530.35   18.70
  -1   2  -5   54.39    4.80
  -1   2  -5   56.29    5.90
  -1   2  -5   51.39    4.80
  -1   2  -5   53.59    6.30
   1  -2   5   54.69    5.60
   1  -2   5   50.69    4.50
   1  -2   5   53.49    5.30
  -2   2  -5   28.20    3.60
  -2   2  -5   20.70    4.00
  -2   2  -5   24.90    3.90
   2  -2   5   17.20    3.80
   2  -2   5   20.40    3.30
   2  -2   5   22.60    4.20
  -3   2  -5 1260.67   38.90
  -3   2  -5 1176.68   39.10
  -3   2  -5 1165.78   36.00
  -3   2  -5 1194.18   38.80
   3  -2   5 1145.19   36.00
   3  -2   5 1144.69   38.20
   3  -2   5 1168.48   39.30
   3  -2   5 1186.78   38.00
   3  -2   5 1153.38   35.50
   3  -2   5 1196.18   37.00
  -4   2  -5  263.67   12.00
  -4   2  -5  271.97   13.10
  -4   2  -5  261.67   13.50
  -4   2  -5  264.17   13.00
   4  -2   5  287.07   13.70
   4  -2   5  263.97   12.70
   4  -2   5  269.77   10.30
   4  -2   5  261.47   12.00
   4  -2   5  290.57   12.50
  -5   2  -5 1157.28   37.40
  -5   2  -5 1142.89   37.90
  -5   2  -5 1076.59   39.40
  -5   2  -5 1160.88   39.10
  -5   2  -5 1143.59   38.70
   5  -2   5 1115.09   37.60
   5  -2   5 1162.78   36.10
   5  -2   5 1111.69   37.50
   5  -2   5 1169.48   38.30
   5  -2   5 1108.89   39.50
  -6   2  -5  472.45   19.20
  -6   2  -5  510.55   20.20
  -6   2  -5  491.85   22.20
  -6   2  -5  437.06   22.50
   6  -2   5  491.45   18.10
   6  -2   5  507.05   19.50
   6  -2   5  485.75   18.20
   6  -2   5  450.65   19.60
  -7   2  -5  246.68   13.10
  -7   2  -5  249.48   14.40
  -7   2  -5  235.78   13.20
   7  -2   5  229.88   12.10
   7  -2   5  243.38   14.80
   7  -2   5  248.98   13.90
   7  -2   5  230.68   14.40
   7  -2   5  233.48   11.40
  -8   2  -5  156.38   11.60
  -8   2  -5  141.89   11.10
  -8   2  -5  135.99   10.60
   8  -2   5  151.48   12.10
   8  -2   5  166.28   12.70
   8  -2   5  152.38   12.00
   8  -2   5  147.69    9.30
   8   1  -5  607.14   21.60
   8   1  -5  637.54   22.80
   8   1  -5  644.64   27.50
   8   1  -5  612.74   24.60
   8   1  -5  612.94   30.10
  -8  -1   5  616.94   25.10
   7   1  -5  631.54   24.50
   7   1  -5  631.74   27.60
   7   1  -5  688.73   26.10
   7   1  -5  655.73   24.50
  -7  -1   5  674.33   25.50
   6   1  -5  402.16   16.40
   6   1  -5  402.16   16.90
   6   1  -5  377.76   14.30
   6   1  -5  386.06   16.00
   6   1  -5  423.76   22.40
   5   1  -5    5.50    2.80
   5   1  -5    5.10    3.10
   5   1  -5    9.40    3.60
   5   1  -5   -1.70    3.10
   5   1  -5    2.10    3.70
  -5  -1   5    9.20    4.80
  -5  -1   5    5.60    3.00
  -5  -1   5    5.90    3.70
  -5  -1   5    9.60    3.40
   4   1  -5  378.36   13.70
   4   1  -5  385.76   17.50
   4   1  -5  399.36   15.90
  -4  -1   5  390.66   15.80
  -4  -1   5  406.26   16.90
  -4  -1   5  426.16   14.90
  -4  -1   5  421.96   16.10
   3   1  -5    3.80    3.50
   3   1  -5    1.80    2.70
   3   1  -5   -1.00    2.30
  -3  -1   5    5.90    2.40
  -3  -1   5    3.30    3.20
   2   1  -5 1517.35   46.90
   2   1  -5 1506.45   48.00
   2   1  -5 1418.96   44.70
  -2  -1   5 1483.35   44.50
  -2  -1   5 1507.45   46.10
  -2  -1   5 1435.16   46.70
  -2  -1   5 1530.85   44.10
   1   1  -5 1328.77   42.50
   1   1  -5 1434.76   44.10
   1   1  -5 1321.27   44.40
  -1  -1   5 1441.36   42.80
  -1  -1   5 1414.36   41.20
  -1  -1   5 1429.96   42.70
  -1  -1   5 1411.16   44.10
   0   1  -5  453.15   17.30
   0   1  -5  460.25   16.70
   0   1  -5  434.76   15.70
   0   1  -5  424.56   16.40
   0  -1   5  438.86   16.40
   0  -1   5  457.05   16.70
   0  -1   5  442.06   14.60
  -1   1  -5 1994.80   60.89
  -1   1  -5 1981.30   60.49
  -1   1  -5 1989.60   61.19
  -1   1  -5 1821.62   59.79
   1  -1   5 2002.60   58.19
   1  -1   5 2035.70   59.89
   1  -1   5 1972.50   60.69
   1  -1   5 2003.10   59.89
  -2   1  -5  228.88   10.50
  -2   1  -5  213.28   12.20
  -2   1  -5  201.48    8.30
  -2   1  -5  208.68   10.60
   2  -1   5  226.78   10.20
   2  -1   5  211.38    9.60
   2  -1   5  214.98    9.90
   2  -1   5  220.58    8.30
  -3   1  -5 2314.97   71.59
  -3   1  -5 2184.38   71.69
  -3   1  -5 2324.97   67.99
  -3   1  -5 2365.96   72.39
   3  -1   5 2388.26   71.19
   3  -1   5 2283.87   69.69
   3  -1   5 2342.67   71.19
  -4   1  -5  108.09    8.50
  -4   1  -5   94.09    9.30
  -4   1  -5  105.79    9.20
  -4   1  -5  105.19    6.90
  -4   1  -5  119.79    7.90
   4  -1   5  120.29    9.20
   4  -1   5  102.19    8.60
   4  -1   5  115.49    8.90
   4  -1   5  122.89    8.00
   4  -1   5  111.59    7.60
   4  -1   5  114.69    6.60
  -5   1  -5   15.70    4.40
  -5   1  -5   16.90    5.80
  -5   1  -5   18.00    4.00
  -5   1  -5   13.50    6.60
  -5   1  -5   19.70    4.50
   5  -1   5   18.70    4.20
   5  -1   5   14.00    4.90
   5  -1   5   19.60    4.30
   5  -1   5    5.40    4.90
   5  -1   5   10.20    4.00
   5  -1   5   15.90    4.20
  -6   1  -5  141.39   11.00
  -6   1  -5  145.09    9.20
   6  -1   5  146.59    9.10
   6  -1   5  153.08    9.10
   6  -1   5  130.59    9.30
   6  -1   5  148.19    9.20
  -7   1  -5  690.93   26.60
  -7   1  -5  673.23   25.90
  -7   1  -5  604.54   26.80
  -7   1  -5  669.03   27.10
   7  -1   5  636.94   25.90
   7  -1   5  641.94   24.40
   7  -1   5  672.43   24.40
   7  -1   5  651.03   24.20
   7  -1   5  671.43   26.30
  -8   1  -5  125.09   10.60
  -8   1  -5  143.69   11.10
  -8   1  -5  102.89   10.70
   8  -1   5   96.39   11.10
   8  -1   5   87.19    9.70
   8  -1   5  106.39   10.90
   8  -1   5  133.19   11.90
   8  -1   5  112.99    8.60
   8   0  -5   84.49    9.90
   8   0  -5  110.29   12.10
   8   0  -5  113.19    6.50
   8   0  -5  138.19    9.50
   8   0  -5  104.59    7.90
  -8   0   5  135.69   10.90
   7   0  -5  692.23   22.30
   7   0  -5  703.43   22.30
   7   0  -5  671.43   26.20
   7   0  -5  699.03   29.30
   7   0  -5  706.53   26.20
  -7   0   5  739.83   29.10
  -7   0   5  701.33   26.70
   6   0  -5  131.89    8.90
   6   0  -5  115.49    8.40
   6   0  -5  123.89   10.30
   6   0  -5  135.59    9.20
   6   0  -5  122.89    6.90
   6   0  -5  126.69    5.90
   6   0  -5  124.19    5.80
  -6   0   5  130.69   10.90
   5   0  -5   91.79    5.00
   5   0  -5   90.09    9.40
   5   0  -5   95.29    5.30
   5   0  -5   96.19    7.70
   5   0  -5   92.19    7.10
   5   0  -5   96.89    4.90
   5   0  -5   91.69    7.50
  -5   0   5  102.09    9.10
  -5   0   5   94.09    8.00
  -5   0   5   91.19    7.60
   4   0  -5  256.67   11.70
   4   0  -5  247.18    9.00
   4   0  -5  275.37   13.40
   4   0  -5  258.67   10.80
   4   0  -5  253.07   12.00
  -4   0   5  267.67   11.70
  -4   0   5  263.67   12.60
  -4   0   5  261.57    9.30
  -4   0   5  256.17   12.00
   3   0  -5  130.19    8.00
   3   0  -5  121.89    5.40
   3   0  -5  138.39    8.80
  -3   0   5  129.19    7.90
  -3   0   5  141.89    8.00
  -3   0   5  136.59    5.70
   2   0  -5  641.04   21.20
   2   0  -5  696.23   24.40
   2   0  -5  683.13   23.40
  -2   0   5  671.23   23.00
  -2   0   5  676.53   23.60
  -2   0   5  672.53   21.40
  -2   0   5  665.33   21.30
   1   0  -5 2078.19   64.99
   1   0  -5 2131.69   65.49
   1   0  -5 2180.08   64.79
   1   0  -5 2129.19   63.09
  -1   0   5 2016.80   62.69
  -1   0   5 2112.39   64.69
  -1   0   5 2107.29   63.29
   0   0  -5  760.42   26.30
   0   0  -5  780.02   25.70
   0   0  -5  750.32   24.80
   0   0  -5  742.03   25.20
   0   0   5  766.22   23.70
   0   0   5  738.63   24.10
   0   0   5  765.92   25.50
  -1   0  -5  693.33   23.60
  -1   0  -5  663.13   24.60
  -1   0  -5  687.63   23.50
  -1   0  -5  695.33   22.80
   1   0   5  662.33   22.80
   1   0   5  728.13   23.30
   1   0   5  716.73   24.50
   1   0   5  700.93   23.70
  -2   0  -5    1.60    2.30
  -2   0  -5    2.20    1.70
  -2   0  -5    0.50    2.40
  -2   0  -5    6.60    3.60
  -2   0  -5    1.20    3.80
   2   0   5    4.70    2.70
   2   0   5    3.60    2.60
   2   0   5    4.90    3.10
   2   0   5    1.60    3.10
  -3   0  -5 2554.14   82.49
  -3   0  -5 2667.73   82.19
  -3   0  -5 2657.53   83.89
   3   0   5 2754.02   81.89
   3   0   5 2679.03   80.29
   3   0   5 2742.13   81.89
   3   0   5 2695.33   80.99
  -4   0  -5   30.00    5.80
  -4   0  -5   32.50    4.70
  -4   0  -5   25.20    6.00
  -4   0  -5   25.10    3.70
   4   0   5   23.30    5.10
   4   0   5   27.90    5.10
   4   0   5   21.90    4.40
   4   0   5   30.30    5.90
  -5   0  -5 1095.99   40.40
  -5   0  -5 1180.98   36.30
  -5   0  -5 1094.79   37.90
  -5   0  -5 1099.49   38.50
   5   0   5 1158.08   37.50
   5   0   5 1116.59   38.20
   5   0   5 1120.19   37.70
   5   0   5 1134.79   39.90
   5   0   5 1111.79   37.30
   5   0   5 1098.69   36.40
  -6   0  -5   19.20    6.10
  -6   0  -5   17.50    5.90
  -6   0  -5   16.50    4.00
   6   0   5   20.20    3.90
   6   0   5   21.70    4.90
   6   0   5   18.70    5.10
   6   0   5   24.10    5.20
  -7   0  -5   78.59   10.60
  -7   0  -5   92.39    9.80
  -7   0  -5   91.59    9.40
  -7   0  -5   92.79    7.90
   7   0   5   84.49    8.30
   7   0   5   80.49    9.00
   7   0   5   73.09    7.20
   7   0   5   86.79    8.70
   7   0   5   92.39    9.70
  -8   0  -5   78.19    9.80
  -8   0  -5   81.29    8.30
  -8   0  -5   74.99    9.80
   8   0   5   78.89    8.50
   8   0   5   83.69   10.20
   8   0   5   78.99    7.60
   8  -1  -5   29.90    4.80
   8  -1  -5   31.90    5.50
   8  -1  -5   31.90    4.80
   8  -1  -5   20.00    6.30
  -8   1   5   24.80    5.80
  -8   1   5   22.00    7.20
   7  -1  -5  406.46   15.10
   7  -1  -5  388.76   18.30
   7  -1  -5  447.46   20.70
   7  -1  -5  396.16   18.40
  -7   1   5  417.86   18.20
  -7   1   5  447.36   20.90
   6  -1  -5   11.90    5.40
   6  -1  -5   20.40    4.40
   6  -1  -5   14.20    5.30
   6  -1  -5   12.00    4.40
   6  -1  -5   17.30    4.10
   6  -1  -5   24.40    3.50
  -6   1   5   23.60    4.40
   5  -1  -5  615.74   22.20
   5  -1  -5  587.74   21.30
   5  -1  -5  585.64   19.80
   5  -1  -5  602.84   22.60
   5  -1  -5  596.54   20.30
   5  -1  -5  620.04   24.30
  -5   1   5  602.54   23.50
  -5   1   5  592.34   21.90
  -5   1   5  600.24   22.60
  -5   1   5  590.94   20.00
   4  -1  -5  283.77    9.60
   4  -1  -5  274.57   10.80
   4  -1  -5  268.37   12.90
   4  -1  -5  274.47   11.20
   4  -1  -5  285.57   12.20
  -4   1   5  290.37   13.40
  -4   1   5  269.57   12.80
  -4   1   5  267.17   10.60
  -4   1   5  274.77   11.80
   3  -1  -5  106.39    6.70
   3  -1  -5   95.39    5.50
   3  -1  -5  107.59    7.50
   3  -1  -5  107.39    6.20
   3  -1  -5  106.99    8.50
  -3   1   5  103.19    5.70
  -3   1   5  109.99    7.00
  -3   1   5  110.29    7.30
   2  -1  -5   28.80    2.70
   2  -1  -5   27.10    3.10
   2  -1  -5   26.40    3.60
   2  -1  -5   33.30    4.10
   2  -1  -5   28.30    5.40
  -2   1   5   28.70    4.40
  -2   1   5   31.90    3.10
  -2   1   5   35.20    4.10
   1  -1  -5 3751.32  110.79
   1  -1  -5 3864.21  112.39
   1  -1  -5 3818.62  113.09
   1  -1  -5 3656.93  109.49
  -1   1   5 3742.73  110.09
  -1   1   5 3737.73  111.19
  -1   1   5 3692.03  112.29
   0  -1  -5 2022.70   60.49
   0  -1  -5 1788.92   58.59
   0  -1  -5 1879.91   61.39
   0  -1  -5 1956.10   59.79
   0   1   5 1956.10   59.99
   0   1   5 1956.90   60.29
   0   1   5 2187.78   61.89
   0   1   5 1952.50   59.19
  -1  -1  -5 1775.52   52.49
  -1  -1  -5 1677.33   54.99
  -1  -1  -5 1627.34   53.09
  -1  -1  -5 1679.53   50.59
  -1  -1  -5 1780.02   52.99
   1   1   5 1781.22   53.89
   1   1   5 1661.23   52.69
   1   1   5 1703.83   52.49
   1   1   5 1672.83   52.39
  -2  -1  -5 1151.38   35.60
  -2  -1  -5 1192.98   37.60
  -2  -1  -5 1134.39   37.10
   2   1   5 1139.49   37.70
   2   1   5 1179.88   37.50
   2   1   5 1131.29   37.00
   2   1   5 1204.58   38.30
  -3  -1  -5  189.08   11.60
  -3  -1  -5  198.98    7.20
  -3  -1  -5  206.28    8.00
  -3  -1  -5  201.18    7.20
  -3  -1  -5  215.08   11.10
  -3  -1  -5  207.98   10.80
  -3  -1  -5  194.28   12.90
   3   1   5  209.18    9.40
   3   1   5  212.18   11.00
   3   1   5  211.28   10.70
   3   1   5  210.58   11.20
  -4  -1  -5  150.58   11.90
  -4  -1  -5  169.88    7.80
  -4  -1  -5  177.08    8.70
  -4  -1  -5  163.08    9.90
  -4  -1  -5  174.68   10.70
   4   1   5  168.28   10.30
   4   1   5  158.68    8.50
   4   1   5  178.18   10.90
   4   1   5  165.28   10.40
  -5  -1  -5  112.09    9.60
  -5  -1  -5  101.69    8.10
  -5  -1  -5  110.29    7.10
  -5  -1  -5  114.49   10.90
  -5  -1  -5  111.99    8.70
  -5  -1  -5  113.89    8.90
   5   1   5  113.69    9.40
   5   1   5  114.29   10.00
   5   1   5   90.59    9.50
   5   1   5   96.09    7.60
  -6  -1  -5  755.62   29.00
  -6  -1  -5  725.73   32.30
  -6  -1  -5  821.72   27.00
   6   1   5  749.73   29.00
   6   1   5  765.22   26.40
   6   1   5  859.81   34.40
   6   1   5  794.72   29.80
   6   1   5  777.12   29.40
  -7  -1  -5   83.39    8.50
  -7  -1  -5   76.09    9.00
   7   1   5   65.29    8.80
   7   1   5   56.49    6.40
   7   1   5   69.29    9.00
  -8  -1  -5  520.25   27.80
  -8  -1  -5  535.95   23.40
  -8  -1  -5  506.85   23.30
   8   1   5  535.95   23.40
   8   1   5  498.85   19.20
   8   1   5  541.95   23.60
   8  -2  -5   80.39   12.80
   8  -2  -5   95.59    7.90
   8  -2  -5  120.29   10.10
   8  -2  -5  122.39    7.80
  -8   2   5  112.59    9.70
  -8   2   5  120.79   12.10
   7  -2  -5   60.59    9.40
   7  -2  -5   36.10    5.80
   7  -2  -5   32.40    5.40
   7  -2  -5   45.20    5.80
   7  -2  -5   29.30    6.30
  -7   2   5   42.80    5.90
  -7   2   5   38.10    7.60
   6  -2  -5  231.48   11.90
   6  -2  -5  223.68   10.50
   6  -2  -5  211.88   12.90
   6  -2  -5  227.58   10.10
  -6   2   5  229.08   10.90
  -6   2   5  227.78   13.60
  -6   2   5  220.78   11.50
   5  -2  -5  113.69    8.40
   5  -2  -5  109.89    6.20
   5  -2  -5   99.29    9.30
   5  -2  -5  115.89    8.20
   5  -2  -5  119.09    7.40
   5  -2  -5  106.49    7.10
  -5   2   5  106.49    7.80
  -5   2   5  122.09    9.90
  -5   2   5  117.99    7.30
   4  -2  -5 1345.37   44.80
   4  -2  -5 1393.56   41.90
   4  -2  -5 1340.67   42.90
   4  -2  -5 1400.26   45.20
   4  -2  -5 1383.56   43.00
   4  -2  -5 1386.86   43.70
  -4   2   5 1383.96   43.00
  -4   2   5 1356.86   45.10
  -4   2   5 1364.66   44.90
  -4   2   5 1381.06   43.30
   3  -2  -5  799.92   25.50
   3  -2  -5  795.12   26.20
   3  -2  -5  792.22   26.50
   3  -2  -5  797.02   27.70
   3  -2  -5  814.92   28.30
  -3   2   5  812.52   26.30
  -3   2   5  776.62   27.80
   2  -2  -5  302.97   12.60
   2  -2  -5  315.77   13.20
   2  -2  -5  308.57   10.70
   2  -2  -5  327.97   11.60
  -2   2   5  314.77   13.20
  -2   2   5  305.07   12.40
  -2   2   5  311.57   10.20
   1  -2  -5  517.15   17.90
   1  -2  -5  558.04   17.60
   1  -2  -5  575.24   19.90
  -1   2   5  553.34   19.40
  -1   2   5  540.85   17.90
   0  -2  -5   54.99    2.70
   0  -2  -5   49.99    5.50
   0  -2  -5   51.09    4.20
   0   2   5   58.39    6.60
   0   2   5   58.19    5.80
   0   2   5   49.40    4.80
   0   2   5   46.50    5.10
  -1  -2  -5   22.70    5.00
  -1  -2  -5   28.30    3.80
  -1  -2  -5   28.30    4.70
  -1  -2  -5   22.70    3.30
   1   2   5   26.00    4.10
   1   2   5   26.90    4.80
   1   2   5   21.40    3.30
   1   2   5   24.30    4.10
  -2  -2  -5    3.50    3.00
  -2  -2  -5   -0.10    2.70
  -2  -2  -5    5.80    4.30
  -2  -2  -5   -0.70    1.90
  -2  -2  -5    5.50    2.50
   2   2   5   -0.60    2.50
   2   2   5    3.40    3.60
   2   2   5    0.40    2.90
   2   2   5    6.20    3.70
  -3  -2  -5  712.73   22.80
  -3  -2  -5  746.93   26.10
  -3  -2  -5  695.23   25.90
  -3  -2  -5  705.73   24.00
  -3  -2  -5  683.53   28.50
  -3  -2  -5  731.13   24.20
   3   2   5  696.43   23.90
   3   2   5  712.83   25.60
   3   2   5  692.13   25.90
   3   2   5  746.83   26.90
  -4  -2  -5  618.24   22.90
  -4  -2  -5  556.94   25.70
  -4  -2  -5  634.64   23.60
  -4  -2  -5  603.64   21.40
   4   2   5  614.14   24.20
   4   2   5  587.64   20.40
   4   2   5  549.54   23.10
   4   2   5  576.64   22.80
  -5  -2  -5   -1.20    4.00
  -5  -2  -5    6.80    3.90
  -5  -2  -5    2.30    5.50
  -5  -2  -5    6.90    4.50
  -5  -2  -5    8.00    4.40
   5   2   5    2.20    4.50
   5   2   5    4.30    2.80
  -6  -2  -5  983.10   35.80
  -6  -2  -5  939.81   34.50
  -6  -2  -5  969.90   36.50
   6   2   5  955.40   35.00
   6   2   5  948.11   31.00
   6   2   5  943.71   33.50
  -7  -2  -5   16.40    5.70
  -7  -2  -5    2.40    8.20
  -7  -2  -5   11.20    4.40
  -7  -2  -5   12.90    4.90
   7   2   5   15.10    6.00
   7   2   5   12.60    6.20
   7   2   5   10.80    3.90
  -8  -2  -5    0.90    5.20
  -8  -2  -5  -11.80    9.20
   8   2   5    5.70    5.20
   8  -3  -5  428.96   17.80
   8  -3  -5  417.06   18.80
   8  -3  -5  460.65   20.50
   8  -3  -5  436.26   17.70
  -8   3   5  373.76   24.70
   7  -3  -5   96.19    9.70
   7  -3  -5  100.99    7.70
   7  -3  -5   92.49    7.20
   7  -3  -5   92.89    8.60
   7  -3  -5   80.99    8.70
  -7   3   5   83.09   10.50
   6  -3  -5   70.39    8.40
   6  -3  -5   82.19    7.30
   6  -3  -5   61.09    7.80
   6  -3  -5   74.29    5.80
   6  -3  -5   65.59    7.70
  -6   3   5   87.49    7.40
  -6   3   5   70.39    6.90
  -6   3   5   77.79    9.30
   5  -3  -5  474.45   19.80
   5  -3  -5  461.65   16.70
   5  -3  -5  460.45   17.70
   5  -3  -5  453.45   19.00
   5  -3  -5  464.05   17.70
   5  -3  -5  438.16   17.60
  -5   3   5  456.25   17.40
  -5   3   5  474.05   17.90
   4  -3  -5 1167.28   36.70
   4  -3  -5 1085.69   38.10
   4  -3  -5 1151.28   38.60
   4  -3  -5 1132.89   37.00
   4  -3  -5 1202.08   40.20
  -4   3   5 1136.89   36.10
  -4   3   5 1153.48   36.90
  -4   3   5 1050.59   38.00
   3  -3  -5 1125.19   37.40
   3  -3  -5 1118.39   36.50
   3  -3  -5 1050.69   37.60
   3  -3  -5 1147.69   35.20
  -3   3   5 1167.28   35.10
  -3   3   5 1042.60   37.30
  -3   3   5 1137.39   36.30
   2  -3  -5  839.82   25.60
   2  -3  -5  784.92   29.20
   2  -3  -5  799.92   28.00
   2  -3  -5  825.52   27.70
  -2   3   5  807.02   24.80
  -2   3   5  807.42   27.30
  -2   3   5  806.32   28.30
   1  -3  -5  265.07   11.10
   1  -3  -5  267.67   14.30
   1  -3  -5  285.77   12.50
  -1   3   5  272.67   12.30
  -1   3   5  288.87   12.60
  -1   3   5  265.77   10.60
  -1   3   5  316.17   14.10
   0  -3  -5   14.70    4.90
   0  -3  -5   26.00    3.80
   0   3   5   17.10    4.60
   0   3   5   15.00    4.50
   0   3   5   19.90    4.00
  -1  -3  -5  221.88   10.70
  -1  -3  -5  220.58   10.00
  -1  -3  -5  212.98   13.30
   1   3   5  217.78   10.10
   1   3   5  210.48   10.60
   1   3   5  215.48   11.30
   1   3   5  194.78   10.80
  -2  -3  -5  287.07   11.90
  -2  -3  -5  300.97   13.60
  -2  -3  -5  300.47   12.20
  -2  -3  -5  276.77   16.00
  -2  -3  -5  297.27   12.00
   2   3   5  263.57   13.30
   2   3   5  277.87   11.80
   2   3   5  283.77   13.20
   2   3   5  298.77   14.80
  -3  -3  -5   20.80    3.50
  -3  -3  -5   19.00    3.20
  -3  -3  -5   21.50    4.30
  -3  -3  -5   25.50    6.30
  -3  -3  -5   26.40    5.20
   3   3   5   19.40    5.00
   3   3   5   16.90    4.90
   3   3   5   19.70    3.10
   3   3   5   22.60    4.30
  -4  -3  -5   16.30    2.90
  -4  -3  -5   20.60    5.10
  -4  -3  -5   20.50    4.40
  -4  -3  -5   26.40    5.10
  -4  -3  -5   10.00    5.60
   4   3   5   12.40    5.00
   4   3   5   22.40    5.50
   4   3   5   17.20    3.00
   4   3   5   24.70    5.40
   4   3   5   18.80    6.20
  -5  -3  -5   99.49    4.80
  -5  -3  -5  110.29    9.50
  -5  -3  -5   90.99   11.30
  -5  -3  -5  105.99    8.50
   5   3   5   94.29    5.80
   5   3   5  104.49   10.00
  -6  -3  -5  794.02   30.30
  -6  -3  -5  850.81   30.80
  -6  -3  -5  798.02   32.10
  -6  -3  -5  789.52   29.50
   6   3   5  812.82   32.90
   6   3   5  815.32   31.70
   6   3   5  833.92   31.50
   6   3   5  769.12   25.80
  -7  -3  -5  134.99   11.10
  -7  -3  -5  127.99   10.80
  -7  -3  -5  160.18   13.20
  -7  -3  -5  142.09   11.40
   7   3   5  138.19   13.30
   7   3   5  140.99   12.00
   7   3   5  114.79    5.90
   8  -4  -5  740.23   26.50
   8  -4  -5  705.73   26.80
   8  -4  -5  663.23   26.30
   7  -4  -5   50.49    7.10
   7  -4  -5   36.20    7.00
   7  -4  -5   37.80    7.70
   7  -4  -5   30.40    4.90
  -7   4   5   43.30    7.80
   6  -4  -5  769.52   27.40
   6  -4  -5  831.02   30.40
   6  -4  -5  792.62   29.20
   6  -4  -5  823.52   28.40
   6  -4  -5  760.32   28.20
  -6   4   5  784.52   27.10
  -6   4   5  718.83   30.10
  -6   4   5  794.52   28.60
   5  -4  -5   16.10    4.90
   5  -4  -5   23.40    4.70
   5  -4  -5   22.10    4.80
   5  -4  -5   21.30    5.00
  -5   4   5   26.40    5.10
  -5   4   5   13.70    3.60
  -5   4   5   14.60    6.10
   4  -4  -5  210.48   11.90
   4  -4  -5  187.28   11.70
   4  -4  -5  200.08   11.00
  -4   4   5  208.08    9.20
  -4   4   5  175.08   10.80
   3  -4  -5  316.47   15.60
   3  -4  -5  331.77   15.10
   3  -4  -5  318.37   14.50
  -3   4   5  330.07   14.20
   2  -4  -5  326.27   16.70
   2  -4  -5  338.87   15.00
   2  -4  -5  343.57   14.90
  -2   4   5  307.77   14.60
  -2   4   5  326.37   11.60
  -2   4   5  360.76   16.30
  -2   4   5  336.87   14.80
   1  -4  -5  246.78   14.50
   1  -4  -5  270.47   12.10
   1  -4  -5  270.47   13.00
   1  -4  -5  259.17   11.70
  -1   4   5  288.17   13.70
  -1   4   5  252.67   12.20
  -1   4   5  265.67   12.50
  -1   4   5  252.37   10.80
   0  -4  -5   22.00    5.80
   0  -4  -5   33.00    4.40
   0  -4  -5   29.90    4.60
   0   4   5   19.60    3.90
   0   4   5   24.20    4.40
   0   4   5   17.30    4.50
   0   4   5   24.50    5.40
  -1  -4  -5  141.19    8.20
  -1  -4  -5  149.39    9.50
  -1  -4  -5  151.38    8.80
  -1  -4  -5  140.89   12.10
   1   4   5  134.69    9.50
   1   4   5  117.69    9.50
   1   4   5  131.99    9.50
   1   4   5  148.09   10.40
  -2  -4  -5  569.24   22.60
  -2  -4  -5  593.64   20.40
  -2  -4  -5  564.84   23.00
   2   4   5  567.14   22.40
   2   4   5  549.74   20.00
   2   4   5  582.94   23.80
  -3  -4  -5   -1.40    4.30
  -3  -4  -5    0.20    3.70
  -3  -4  -5    1.70    2.70
   3   4   5    5.90    4.70
   3   4   5    0.00    4.50
   3   4   5   -0.80    2.10
   3   4   5    2.80    4.80
  -4  -4  -5 1487.75   46.50
  -4  -4  -5 1477.75   49.00
  -4  -4  -5 1427.26   47.70
   4   4   5 1434.46   45.00
   4   4   5 1504.65   50.09
   4   4   5 1506.95   52.29
   4   4   5 1422.46   46.70
  -5  -4  -5  133.59   11.10
  -5  -4  -5  125.89    7.40
  -5  -4  -5  143.69   10.60
   5   4   5  138.69    6.20
   5   4   5  123.59   11.40
   5   4   5  148.59   12.60
  -6  -4  -5  107.59    9.90
  -6  -4  -5  101.29    9.80
  -6  -4  -5   86.49    4.80
  -6  -4  -5   83.59    9.10
  -6  -4  -5   95.29   11.30
   6   4   5  104.89   11.70
   6   4   5   98.99   11.10
  -7  -4  -5  100.19   10.70
  -7  -4  -5   95.69    9.90
  -7  -4  -5   87.99   12.90
   7   4   5  108.39   12.20
   7  -5  -5    5.10    4.60
   7  -5  -5   12.10    5.50
   7  -5  -5   11.70    4.60
   7  -5  -5    7.00    4.50
  -7   5   5   10.10    6.40
   6  -5  -5  455.55   19.20
   6  -5  -5  415.56   18.50
   6  -5  -5  414.46   18.50
   6  -5  -5  440.86   20.20
  -6   5   5  458.95   19.30
  -6   5   5  360.26   19.50
   5  -5  -5  308.17   15.20
   5  -5  -5  317.17   15.90
  -5   5   5  258.07   15.40
   4  -5  -5  384.06   18.00
   4  -5  -5  378.66   17.10
   4  -5  -5  377.96   17.20
   3  -5  -5   33.50    6.20
   3  -5  -5   26.30    4.60
   3  -5  -5   21.70    5.70
  -3   5   5   26.50    3.60
  -3   5   5   27.70    5.00
   2  -5  -5 1119.19   37.50
   2  -5  -5 1084.89   37.00
   2  -5  -5 1065.39   39.40
  -2   5   5 1109.39   37.90
  -2   5   5 1084.89   32.90
  -2   5   5 1060.49   36.50
  -2   5   5 1058.79   33.90
   1  -5  -5 2035.80   64.29
   1  -5  -5 2025.20   64.29
   1  -5  -5 1954.70   63.39
   1  -5  -5 2042.40   63.49
   1  -5  -5 1984.40   67.39
  -1   5   5 2003.90   63.69
  -1   5   5 2093.39   64.99
  -1   5   5 2014.50   61.99
   0  -5  -5 2875.51   87.49
   0  -5  -5 2839.82   88.59
   0  -5  -5 2904.01   88.69
   0  -5  -5 2796.82   92.59
   0   5   5 2839.42   87.39
   0   5   5 2937.91   89.79
  -1  -5  -5   54.69    6.40
  -1  -5  -5   58.29    6.40
  -1  -5  -5   60.19    7.50
  -1  -5  -5   38.10    7.80
   1   5   5   55.89    7.00
   1   5   5   47.70    5.30
   1   5   5   56.79    8.80
  -2  -5  -5  112.69    8.50
  -2  -5  -5  110.49    7.30
  -2  -5  -5  109.89   10.00
   2   5   5  116.29   12.90
   2   5   5  104.29    6.90
   2   5   5  111.69   10.40
  -3  -5  -5   58.59    9.70
  -3  -5  -5   72.69    7.60
  -3  -5  -5   82.19    8.60
   3   5   5   80.79   10.10
   3   5   5   68.59    8.90
   3   5   5   65.69    6.40
  -4  -5  -5    3.20    5.60
  -4  -5  -5    3.80    5.30
  -4  -5  -5    3.70    3.70
  -4  -5  -5   -0.30    4.30
   4   5   5    3.20    3.30
   4   5   5   -3.00    5.40
   4   5   5   -2.40    5.10
  -5  -5  -5  362.16   17.50
  -5  -5  -5  383.66   20.40
  -5  -5  -5  372.26   18.30
   5   5   5  387.86   20.90
   5   5   5  384.46   20.50
  -6  -5  -5   17.30    6.10
  -6  -5  -5   32.20    6.30
  -6  -5  -5   17.40    4.40
  -6  -5  -5   29.60    6.20
  -6  -5  -5   32.30    7.20
   6   5   5   26.80    8.50
   6   5   5   31.00    7.50
   7  -6  -5  100.89    9.10
   7  -6  -5   96.89   10.70
   7  -6  -5   94.79   11.10
  -7   6   5   95.49   15.30
   6  -6  -5   -1.00    4.60
   6  -6  -5   -1.50    4.50
   6  -6  -5   -4.20    4.10
  -6   6   5    7.30    6.20
   5  -6  -5  960.10   35.90
   5  -6  -5  972.30   35.40
   5  -6  -5  987.10   36.20
   4  -6  -5   44.60    6.70
   4  -6  -5   37.80    6.00
   4  -6  -5   35.60    6.60
  -4   6   5   40.20    7.60
   3  -6  -5  134.09   11.20
   3  -6  -5  122.99    9.90
   3  -6  -5  131.49   11.00
  -3   6   5  109.29    6.00
  -3   6   5  128.79    6.20
  -3   6   5  129.09   10.30
   2  -6  -5   63.99    9.00
   2  -6  -5   65.79    7.80
   2  -6  -5   63.99   10.30
  -2   6   5   73.69    9.70
  -2   6   5   63.69    7.80
   1  -6  -5  741.53   28.90
   1  -6  -5  720.03   27.60
   1  -6  -5  765.12   31.90
   1  -6  -5  758.32   27.20
  -1   6   5  744.33   28.80
   0  -6  -5   92.59   13.60
   0  -6  -5  101.09    7.90
   0  -6  -5   95.89    9.10
   0   6   5   94.69    4.30
   0   6   5  106.49   10.50
  -1  -6  -5  700.03   27.10
  -1  -6  -5  659.73   25.70
  -1  -6  -5  632.84   31.10
  -1  -6  -5  655.63   23.80
   1   6   5  660.43   21.30
   1   6   5  696.23   28.50
  -2  -6  -5    2.00    5.50
  -2  -6  -5    2.80    3.10
  -2  -6  -5   -2.10    3.80
  -2  -6  -5   -1.60    6.50
   2   6   5    2.10    5.50
   2   6   5    2.40    2.50
  -3  -6  -5  276.67   16.60
  -3  -6  -5  276.87   14.30
   3   6   5  275.47   17.20
   3   6   5  280.07   12.00
   3   6   5  302.87   16.40
  -4  -6  -5   22.30    6.20
  -4  -6  -5    5.40    4.90
  -4  -6  -5    6.90    4.80
   4   6   5    3.30    4.00
   4   6   5   13.90    6.00
   4   6   5   14.50    6.80
  -5  -6  -5  607.34   24.60
  -5  -6  -5  622.94   27.50
  -5  -6  -5  620.94   25.00
  -5  -6  -5  555.14   23.20
  -5  -6  -5  553.54   23.90
   5   6   5  617.84   29.80
   5   6   5  571.44   24.60
   5   6   5  639.44   27.30
   6  -7  -5   68.89    9.80
   6  -7  -5   46.00    9.70
   6  -7  -5   56.39    8.20
   5  -7  -5  698.93   28.70
   5  -7  -5  680.03   28.20
   5  -7  -5  710.63   28.30
   4  -7  -5  143.39   12.10
   4  -7  -5  155.58   10.80
   4  -7  -5  147.89   12.50
   3  -7  -5  253.97   16.30
   3  -7  -5  265.87   14.50
   3  -7  -5  261.77   15.50
  -3   7   5  245.68   10.10
   2  -7  -5   36.70    5.70
   2  -7  -5   35.60    6.90
  -2   7   5   34.80    7.70
   1  -7  -5  208.38   13.80
   1  -7  -5  222.28   16.10
   1  -7  -5  227.18   12.20
  -1   7   5  184.78   13.20
   0  -7  -5    5.40    6.00
   0  -7  -5    3.40    4.80
   0  -7  -5    7.10    3.50
   0  -7  -5    1.20    5.10
   0   7   5    7.70    5.40
  -1  -7  -5  630.34   26.90
  -1  -7  -5  600.74   25.80
   1   7   5  663.33   27.70
  -2  -7  -5  104.29    7.50
  -2  -7  -5  108.69   11.10
  -2  -7  -5  108.29   10.40
   2   7   5   95.99    5.60
   2   7   5  115.29   12.00
  -3  -7  -5   25.40    6.40
   3   7   5   26.20    6.70
   3   7   5   23.20    3.80
   3   7   5   20.10    7.10
  -4  -7  -5   89.19   11.50
  -4  -7  -5   79.89    9.60
  -4  -7  -5  110.99   10.10
   4   7   5   69.49    7.10
   4  -8  -5  512.85   23.20
   3  -8  -5  250.27   15.90
   3  -8  -5  265.87   15.00
   3  -8  -5  246.38   16.80
   2  -8  -5   30.80    9.20
   2  -8  -5   31.50    5.70
   2  -8  -5   34.80    7.40
  -2   8   5   27.60    4.90
  -2   8   5   27.80    7.30
   1  -8  -5    2.80    5.00
   1  -8  -5   -7.00    4.60
   1  -8  -5   -1.10    4.20
  -1   8   5    0.70    5.40
   0  -8  -5    0.20    4.80
   0   8   5   -1.80    5.80
  -1  -8  -5    0.90    3.60
  -1  -8  -5    8.10    6.20
   1   8   5    4.50    6.10
  -2  -8  -5  451.95   22.60
   3   8   5   48.80   10.50
   3   8   5   36.30   10.00
   2   9  -6   -5.00    3.90
   2   9  -6   -7.00    5.90
   2   9  -6    3.40    4.90
  -2  -9   6   -2.30    3.80
  -2  -9   6   -1.10    3.90
   1   9  -6   53.79    9.80
   1   9  -6   33.50    4.80
  -1  -9   6   25.80    6.20
  -1  -9   6   28.70    5.30
  -1  -9   6   26.70    4.80
   0   9  -6    8.70    5.80
   0   9  -6   -0.30    5.90
   0  -9   6    3.40    5.70
  -1   9  -6    3.70    5.40
   1  -9   6   -4.00    5.10
  -2   9  -6  138.59   11.40
  -2   9  -6  145.79   12.10
  -3   9  -6  472.95   20.10
   3  -9   6  465.85   21.30
   4   8  -6    2.40    5.70
  -4  -8   6    5.80    6.10
  -4  -8   6    6.60    4.70
   3   8  -6   49.50    9.20
   3   8  -6   68.79   13.30
  -3  -8   6   43.30    5.80
  -3  -8   6   54.09    9.00
  -3  -8   6   58.79    8.00
   2   8  -6   14.50    5.80
   2   8  -6   15.10    7.20
   2   8  -6   16.90    4.80
  -2  -8   6   17.20    4.30
  -2  -8   6   17.00    5.20
  -2  -8   6   12.60    4.70
   1   8  -6  490.95   18.20
   1   8  -6  474.15   22.50
   1   8  -6  505.65   26.20
  -1  -8   6  479.65   18.80
   0   8  -6   44.00    7.10
   0   8  -6   53.89    5.00
   0  -8   6   54.39    7.60
   0  -8   6   66.49    8.30
  -1   8  -6   74.69    8.70
  -1   8  -6   79.89   10.20
   1  -8   6   78.29    9.50
  -2   8  -6    5.50    4.60
  -2   8  -6    4.40    3.80
   2  -8   6   -5.90    4.30
  -3   8  -6  368.66   18.70
  -3   8  -6  388.16   17.30
   3  -8   6  417.16   18.60
  -4   8  -6   30.10    4.60
   4  -8   6   49.70    6.90
   4  -8   6   42.00    7.30
   5  -8   6  226.28   18.50
  -5  -7   6  235.08   15.10
  -5  -7   6  211.38   12.10
  -5  -7   6  268.47   15.70
  -5  -7   6  241.28   13.90
   4   7  -6   20.80    8.40
   4   7  -6   12.90    6.00
  -4  -7   6   13.70    4.80
  -4  -7   6   12.50    6.60
  -4  -7   6    3.00    4.20
  -4  -7   6   14.00    6.50
   3   7  -6   55.39    8.10
   3   7  -6   69.49    7.20
   3   7  -6   68.29   12.30
  -3  -7   6   52.69    7.20
  -3  -7   6   65.49    7.50
   2   7  -6   87.89    7.20
   2   7  -6   91.89   10.10
   2   7  -6   86.09   12.70
  -2  -7   6   80.29    8.20
   1   7  -6  198.08    9.30
   1   7  -6  196.18   12.90
  -1  -7   6  199.08   10.20
  -1  -7   6  201.78   11.40
   0   7  -6  251.17    9.80
   0   7  -6  260.87   16.80
   0   7  -6  246.18   14.10
   0  -7   6  236.68   14.30
   0  -7   6  255.47   12.10
  -1   7  -6 1002.10   36.40
   1  -7   6  972.20   36.00
   1  -7   6  943.31   33.10
  -2   7  -6   17.20    5.40
   2  -7   6   12.00    6.00
   2  -7   6    9.30    5.00
   2  -7   6   15.70    4.60
  -3   7  -6   86.19    8.90
  -3   7  -6   88.89    8.20
  -3   7  -6   82.69    9.50
   3  -7   6   77.49   10.80
   3  -7   6   80.69    9.00
  -4   7  -6    3.60    3.30
  -4   7  -6    8.40    3.40
   4  -7   6    3.10    5.60
   4  -7   6    1.40    3.60
   4  -7   6    8.20    7.10
   5  -7   6  195.68   13.60
   5  -7   6  189.58   13.40
   5  -7   6  170.78   10.80
   6  -7   6   -2.20    6.20
   6  -7   6   -3.10    3.80
  -6  -6   6    9.50    5.90
  -6  -6   6    5.70    5.80
  -6  -6   6    4.10    5.10
   5   6  -6  218.08   14.50
   5   6  -6  249.88   20.10
  -5  -6   6  213.18   14.10
  -5  -6   6  250.47   14.20
  -5  -6   6  213.18   12.70
  -5  -6   6  210.68   10.50
   4   6  -6  167.68   12.90
   4   6  -6  137.49    9.70
   4   6  -6  160.78   16.00
  -4  -6   6  171.18   14.40
  -4  -6   6  151.88    9.30
  -4  -6   6  155.48   11.70
  -4  -6   6  155.58   10.90
   3   6  -6  900.21   31.10
   3   6  -6  935.41   35.10
   3   6  -6  876.61   32.70
  -3  -6   6  941.41   31.80
  -3  -6   6  937.51   33.80
   2   6  -6   90.29    9.60
   2   6  -6   83.09    8.70
  -2  -6   6   80.99    8.80
  -2  -6   6   86.09    5.80
  -2  -6   6   89.09    7.50
   1   6  -6   93.59    5.90
  -1  -6   6   82.39    7.60
  -1  -6   6   97.69    7.00
   0   6  -6  287.07    9.90
   0   6  -6  273.07   14.50
   0   6  -6  271.07   10.60
   0  -6   6  281.17   14.50
   0  -6   6  287.67   12.60
   0  -6   6  266.87   13.20
  -1   6  -6  889.91   32.10
  -1   6  -6  921.81   29.30
   1  -6   6  921.61   30.40
   1  -6   6  776.82   31.00
   1  -6   6  921.21   32.60
  -2   6  -6  268.87   14.20
  -2   6  -6  283.17   12.50
  -2   6  -6  277.47   10.00
   2  -6   6  264.27   13.40
   2  -6   6  275.27   13.40
  -3   6  -6   -1.30    3.70
  -3   6  -6    0.50    3.10
  -3   6  -6    0.70    2.30
  -3   6  -6    5.50    4.00
   3  -6   6    3.60    6.00
   3  -6   6   -4.30    4.20
   3  -6   6    5.20    3.50
   3  -6   6    1.20    4.70
  -4   6  -6   69.69    6.40
  -4   6  -6   77.49    6.10
  -4   6  -6   77.99    7.90
  -4   6  -6   56.49    9.30
   4  -6   6   72.19   10.00
   4  -6   6   85.29    9.70
   4  -6   6   72.49    7.60
  -5   6  -6   19.60    5.20
  -5   6  -6   24.20    4.40
   5  -6   6   10.30    7.00
   5  -6   6   13.70    4.00
   5  -6   6    6.50    6.70
  -6   6  -6  743.93   26.70
  -6   6  -6  744.83   28.60
   6  -6   6  698.33   25.70
   6  -6   6  713.53   28.00
  -7   6  -6  108.59    9.30
   7  -6   6  102.49   11.20
   7  -6   6  113.09    7.50
   6   5  -6   50.89   11.20
   6   5  -6   28.60    6.10
   6   5  -6   35.90    5.30
  -6  -5   6   31.90    6.40
  -6  -5   6   30.10    4.50
  -6  -5   6   20.90    6.30
  -6  -5   6   32.00    5.90
   5   5  -6   76.19    6.10
   5   5  -6   84.19   10.20
   5   5  -6   60.89    9.10
  -5  -5   6   87.99    8.50
  -5  -5   6   82.99    9.10
  -5  -5   6   67.49    6.60
   4   5  -6  219.88   11.90
   4   5  -6  227.48    9.60
   4   5  -6  231.78   14.10
  -4  -5   6  244.68   12.50
  -4  -5   6  224.78   12.40
  -4  -5   6  224.48   12.90
  -4  -5   6  222.68   11.10
   3   5  -6  121.69   12.90
   3   5  -6  132.89    6.30
   3   5  -6  135.79    8.20
   3   5  -6  124.79    9.00
  -3  -5   6  134.99    9.70
  -3  -5   6  131.09    8.50
   2   5  -6  129.29    5.10
   2   5  -6  140.29    6.00
   2   5  -6  154.08    7.80
   2   5  -6  126.99   10.50
   2   5  -6  132.19    9.30
  -2  -5   6  146.59    6.30
  -2  -5   6  143.29    9.00
  -2  -5   6  129.59    9.80
   1   5  -6   37.70    4.20
   1   5  -6   22.70    4.90
   1   5  -6   40.90    6.30
   1   5  -6   37.60    3.40
  -1  -5   6   33.00    4.80
  -1  -5   6   37.20    5.30
  -1  -5   6   34.80    4.80
   0   5  -6  641.24   23.40
   0   5  -6  656.33   25.20
   0   5  -6  666.73   22.00
   0  -5   6  659.83   25.20
   0  -5   6  599.44   24.30
   0  -5   6  656.33   23.90
   0  -5   6  660.33   22.20
  -1   5  -6    0.80    2.50
  -1   5  -6   -4.20    3.30
  -1   5  -6    0.90    1.80
  -1   5  -6   -1.30    3.00
   1  -5   6    3.60    3.40
   1  -5   6    4.70    3.70
   1  -5   6    4.80    5.20
   1  -5   6    0.50    3.60
  -2   5  -6 2038.60   65.59
  -2   5  -6 2096.39   64.59
   2  -5   6 2145.89   65.69
   2  -5   6 2108.49   64.99
   2  -5   6 2050.29   65.59
   2  -5   6 2057.69   65.79
  -3   5  -6    0.10    2.90
  -3   5  -6   -0.10    3.30
  -3   5  -6    3.60    4.10
  -3   5  -6    1.70    3.10
   3  -5   6    1.80    3.20
   3  -5   6   -3.60    4.60
   3  -5   6    4.10    5.20
  -4   5  -6  264.57   12.50
  -4   5  -6  293.17   14.20
  -4   5  -6  277.57   12.30
   4  -5   6  289.27   12.80
  -5   5  -6  123.69    7.50
  -5   5  -6  161.78   14.30
  -5   5  -6  145.39    8.90
  -5   5  -6  142.09   10.30
   5  -5   6  144.49   11.50
   5  -5   6  131.49   11.00
   5  -5   6  129.39    9.70
  -6   5  -6  142.29   10.00
  -6   5  -6  145.69   10.60
   6  -5   6  153.88   11.50
   6  -5   6  134.29    7.70
   6  -5   6  149.79   12.60
  -7   5  -6   71.19    9.60
  -7   5  -6   52.79    6.80
  -7   5  -6   41.30    7.70
   7  -5   6   55.09    4.70
   7  -5   6   64.79   10.00
   7   4  -6   -8.30    4.70
   7   4  -6   -2.90    2.00
   7   4  -6   -3.70    3.50
   7   4  -6    5.50    8.10
   7   4  -6    0.00    4.10
  -7  -4   6   -3.40    4.40
  -7  -4   6    0.90    5.40
  -7  -4   6   -2.20    3.90
   6   4  -6  411.86   16.60
   6   4  -6  427.56   21.50
   6   4  -6  415.76   17.20
   6   4  -6  421.56   14.20
   6   4  -6  414.36   20.00
  -6  -4   6  424.06   18.70
  -6  -4   6  396.06   17.00
  -6  -4   6  396.66   17.90
  -6  -4   6  422.36   16.70
   5   4  -6  168.68   10.70
   5   4  -6  185.48   10.00
   5   4  -6  179.58   12.60
   5   4  -6  168.08    9.50
   5   4  -6  181.88    7.20
  -5  -4   6  176.38   10.10
  -5  -4   6  190.68   11.80
  -5  -4   6  165.18   11.20
  -5  -4   6  179.98    9.80
   4   4  -6  119.39    8.30
   4   4  -6  115.29    5.30
   4   4  -6  115.89    8.80
   4   4  -6  113.39    7.80
   4   4  -6  104.09   11.70
  -4  -4   6  109.89    8.30
  -4  -4   6  124.49    8.30
  -4  -4   6  132.09    8.60
   3   4  -6    0.60    4.20
   3   4  -6    3.60    3.60
   3   4  -6    1.60    2.50
   3   4  -6   -1.80    2.80
   3   4  -6   -3.30    3.70
  -3  -4   6   -0.40    3.10
  -3  -4   6   -2.40    3.60
  -3  -4   6   -3.90    3.40
   2   4  -6 1629.74   52.29
   2   4  -6 1654.83   50.39
   2   4  -6 1645.04   54.59
   2   4  -6 1624.54   51.29
   2   4  -6 1584.54   49.70
  -2  -4   6 1667.63   52.59
  -2  -4   6 1757.02   48.80
  -2  -4   6 1609.14   53.99
   1   4  -6  209.08   11.60
   1   4  -6  206.18   10.60
   1   4  -6  216.18    8.80
  -1  -4   6  210.58   11.00
  -1  -4   6  222.48   11.90
  -1  -4   6  220.68    8.80
   0   4  -6   59.89    6.50
   0   4  -6   63.29    7.00
   0  -4   6   52.99    6.90
   0  -4   6   67.29    6.60
   0  -4   6   51.29    6.40
   0  -4   6   65.39    8.30
  -1   4  -6   29.70    4.30
  -1   4  -6   33.00    4.80
  -1   4  -6   17.80    4.40
   1  -4   6   29.40    4.10
   1  -4   6   25.20    3.90
   1  -4   6   29.10    5.30
   1  -4   6   22.70    4.40
  -2   4  -6  261.37   13.50
  -2   4  -6  298.97   13.70
  -2   4  -6  312.77   13.10
  -2   4  -6  303.07   13.50
   2  -4   6  282.07   14.30
   2  -4   6  309.47   13.40
   2  -4   6  306.17   14.00
   2  -4   6  291.57   13.80
  -3   4  -6  644.24   22.70
  -3   4  -6  627.94   22.10
  -3   4  -6  653.33   23.20
  -3   4  -6  644.04   23.70
   3  -4   6  606.74   23.50
   3  -4   6  669.13   24.10
   3  -4   6  626.04   22.50
  -4   4  -6 1251.97   41.80
  -4   4  -6 1221.68   39.90
  -4   4  -6 1256.77   40.40
   4  -4   6 1227.28   40.80
   4  -4   6 1178.58   41.50
   4  -4   6 1314.07   42.20
   4  -4   6 1177.28   39.00
  -5   4  -6   64.99    9.50
  -5   4  -6   63.49    6.60
  -5   4  -6   62.39    6.60
   5  -4   6   66.99    4.90
   5  -4   6   62.99    8.40
   5  -4   6   62.49    7.00
   5  -4   6   57.39    6.90
   5  -4   6   63.59    9.00
  -6   4  -6  241.98   14.00
  -6   4  -6  277.17   15.00
  -6   4  -6  261.37   11.50
  -6   4  -6  261.07   13.60
   6  -4   6  285.77   15.90
   6  -4   6  273.07   14.50
   6  -4   6  265.87    9.90
  -7   4  -6  117.69    9.80
  -7   4  -6   89.49   10.30
  -7   4  -6   81.19   10.10
   7  -4   6   97.69   11.30
   7  -4   6  109.79   11.70
  -8   4  -6  286.17   17.10
  -8   4  -6  284.77   17.50
  -8   4  -6  292.27   15.30
   8  -4   6  284.57   18.80
   8  -4   6  321.57   20.40
   7   3  -6   23.40    5.40
   7   3  -6   19.50    4.30
   7   3  -6   25.50    6.30
   7   3  -6   20.10    3.50
  -7  -3   6   21.70    5.60
  -7  -3   6   14.30    5.40
   6   3  -6  449.46   17.50
   6   3  -6  458.75   18.70
   6   3  -6  448.76   19.10
   6   3  -6  470.55   18.40
   6   3  -6  438.36   22.00
  -6  -3   6  441.96   17.90
  -6  -3   6  448.36   19.60
  -6  -3   6  454.55   17.30
  -6  -3   6  467.25   18.60
   5   3  -6   50.69    5.90
   5   3  -6   69.09    6.90
   5   3  -6   64.99    7.10
   5   3  -6   65.59    5.30
   5   3  -6   74.29    8.60
   5   3  -6   63.29    6.70
  -5  -3   6   73.39    7.00
  -5  -3   6   75.49    7.00
  -5  -3   6   77.59    5.90
  -5  -3   6   75.59    8.00
   4   3  -6    7.70    4.00
   4   3  -6    3.10    3.00
   4   3  -6    8.00    3.60
   4   3  -6    7.90    3.70
   4   3  -6   10.10    3.80
  -4  -3   6   -1.20    3.60
  -4  -3   6    5.20    3.10
  -4  -3   6    6.60    3.00
  -4  -3   6   12.50    4.00
   3   3  -6   45.00    6.00
   3   3  -6   45.80    6.20
   3   3  -6   39.80    5.40
   3   3  -6   38.00    5.60
  -3  -3   6   40.60    4.70
  -3  -3   6   52.49    5.60
  -3  -3   6   30.40    5.40
  -3  -3   6   35.00    4.70
   2   3  -6  175.88   10.60
   2   3  -6  166.78    9.50
   2   3  -6  162.08    8.50
  -2  -3   6  172.08    9.60
  -2  -3   6  174.48    5.90
  -2  -3   6  156.28   10.30
   1   3  -6 1433.16   46.70
   1   3  -6 1401.16   44.10
   1   3  -6 1402.66   45.50
  -1  -3   6 1533.45   45.40
  -1  -3   6 1313.17   45.70
  -1  -3   6 1405.76   42.80
  -1  -3   6 1409.76   45.50
   0   3  -6  719.33   24.00
   0   3  -6  677.73   25.20
   0   3  -6  689.43   24.00
   0  -3   6  718.53   23.70
   0  -3   6  722.33   25.20
   0  -3   6  720.23   25.70
   0  -3   6  727.53   24.70
  -1   3  -6  182.68    9.20
  -1   3  -6  169.68    9.20
  -1   3  -6  154.98   16.00
  -1   3  -6  158.98    9.30
   1  -3   6  164.38    8.90
   1  -3   6  157.98    8.70
   1  -3   6  173.58    8.70
   1  -3   6  156.78    9.50
  -2   3  -6  189.98   10.40
  -2   3  -6  192.08   10.60
  -2   3  -6  190.38    9.80
  -2   3  -6  182.68    9.30
   2  -3   6  196.28   10.30
   2  -3   6  185.38   10.20
   2  -3   6  182.48    8.90
   2  -3   6  182.28   10.20
  -3   3  -6  280.07   13.20
  -3   3  -6  262.87   13.00
  -3   3  -6  280.77   11.30
  -3   3  -6  277.67   13.60
   3  -3   6  274.27   11.30
   3  -3   6  277.27   13.00
   3  -3   6  283.27   13.60
   3  -3   6  274.17   13.10
  -4   3  -6  304.37   13.60
  -4   3  -6  303.07   14.20
  -4   3  -6  303.77   14.20
   4  -3   6  314.87   13.30
   4  -3   6  301.17   15.70
   4  -3   6  295.97   14.20
   4  -3   6  298.57   14.20
   4  -3   6  288.87   11.10
   4  -3   6  290.47   14.60
  -5   3  -6  135.89   10.20
  -5   3  -6  155.38    9.80
   5  -3   6  183.38   10.50
   5  -3   6  158.88   10.70
  -6   3  -6   -0.90    6.60
  -6   3  -6   -6.10    3.00
  -6   3  -6   -2.20    3.70
  -6   3  -6   -0.30    3.60
   6  -3   6    0.50    4.70
   6  -3   6   -3.50    3.30
   6  -3   6    5.40    5.40
  -7   3  -6   56.49    8.00
  -7   3  -6   53.59    6.90
  -7   3  -6   78.39    8.50
  -7   3  -6   46.90    6.70
   7  -3   6   56.99    9.40
   7  -3   6   69.29   10.30
  -8   3  -6   73.79    8.90
  -8   3  -6   59.89    7.90
   8  -3   6   86.29   10.30
   8   2  -6   65.09    7.00
   8   2  -6   46.60    9.80
   8   2  -6   78.69    7.40
   8   2  -6   54.89    8.70
   8   2  -6   58.49    7.90
   7   2  -6   10.50    4.80
   7   2  -6    9.10    4.10
   7   2  -6   12.20    4.10
   7   2  -6    5.40    3.80
  -7  -2   6    9.50    4.80
   6   2  -6  353.26   18.50
   6   2  -6  379.66   15.20
   6   2  -6  366.16   15.80
   6   2  -6  347.47   14.00
  -6  -2   6  372.26   16.90
  -6  -2   6  371.16   15.90
  -6  -2   6  344.27   15.30
   5   2  -6  778.72   28.00
   5   2  -6  801.92   27.70
   5   2  -6  760.32   25.90
  -5  -2   6  798.12   27.00
  -5  -2   6  778.42   27.80
   4   2  -6  766.42   29.20
   4   2  -6  713.73   25.80
   4   2  -6  765.12   26.70
  -4  -2   6  770.32   26.80
  -4  -2   6  740.63   26.50
  -4  -2   6  720.73   23.70
  -4  -2   6  773.32   25.40
   3   2  -6 1894.11   58.79
   3   2  -6 1872.41   60.89
   3   2  -6 1825.52   56.59
  -3  -2   6 1903.11   58.79
  -3  -2   6 1850.81   58.79
  -3  -2   6 1884.71   56.89
  -3  -2   6 1858.21   55.69
   2   2  -6   77.59    6.10
   2   2  -6   88.29    7.40
   2   2  -6   81.19    6.90
  -2  -2   6   85.29    7.10
  -2  -2   6   86.69    4.20
  -2  -2   6   79.09    5.10
  -2  -2   6   84.89    4.00
  -2  -2   6   85.89    4.00
  -2  -2   6   86.39   10.40
   1   2  -6   35.60    4.80
   1   2  -6   35.40    4.90
   1   2  -6   35.80    5.00
  -1  -2   6   35.60    5.30
  -1  -2   6   36.30    4.60
  -1  -2   6   30.70    4.20
   0   2  -6  755.42   26.00
   0   2  -6  747.43   26.00
   0  -2   6  735.83   25.50
   0  -2   6  750.92   25.90
   0  -2   6  723.73   22.90
   0  -2   6  732.93   24.90
  -1   2  -6  163.78    8.50
  -1   2  -6  136.89    8.50
  -1   2  -6  155.68    9.20
  -1   2  -6  145.89    8.00
   1  -2   6  137.39    7.60
   1  -2   6  150.98    8.50
   1  -2   6  153.48    8.70
  -2   2  -6  789.42   26.90
  -2   2  -6  786.22   27.40
  -2   2  -6  756.32   25.40
  -2   2  -6  754.42   26.90
   2  -2   6  775.22   24.40
   2  -2   6  797.82   26.30
   2  -2   6  761.62   26.80
   2  -2   6  734.53   26.20
  -3   2  -6  423.06   17.90
  -3   2  -6  429.46   14.50
  -3   2  -6  421.96   17.60
  -3   2  -6  415.16   17.30
   3  -2   6  411.26   17.10
   3  -2   6  397.06   15.10
   3  -2   6  426.46   16.90
   3  -2   6  424.16   16.70
   3  -2   6  399.26   13.40
  -4   2  -6    4.30    3.50
  -4   2  -6   -2.20    3.00
  -4   2  -6    0.10    4.20
   4  -2   6    4.00    3.70
   4  -2   6    1.90    3.30
   4  -2   6   -0.30    2.40
   4  -2   6   -2.40    4.30
   4  -2   6   -0.40    3.50
  -5   2  -6 1529.25   50.49
  -5   2  -6 1459.15   49.00
  -5   2  -6 1512.75   48.50
   5  -2   6 1583.24   51.79
   5  -2   6 1472.75   46.70
   5  -2   6 1504.95   49.10
   5  -2   6 1504.75   48.50
  -6   2  -6   18.60    6.30
  -6   2  -6   13.00    4.50
  -6   2  -6   14.90    4.90
  -6   2  -6   13.00    5.10
  -6   2  -6   20.40    5.40
   6  -2   6   13.00    5.40
   6  -2   6   12.20    4.20
   6  -2   6    4.90    5.00
   6  -2   6    9.70    4.60
   6  -2   6   14.50    5.40
  -7   2  -6   74.79    8.20
  -7   2  -6   44.40    6.90
  -7   2  -6   66.09    8.50
  -7   2  -6   53.49    8.30
   7  -2   6   63.89    7.00
   7  -2   6   57.79    7.90
   7  -2   6   67.49   10.20
   7  -2   6   42.40    7.70
  -8   2  -6    6.10    4.90
  -8   2  -6    1.10    4.70
  -8   2  -6   -5.40    5.70
   8  -2   6    5.10    7.10
   8  -2   6   -1.30    7.40
   8  -2   6   -2.20    5.40
   8   1  -6    9.90    5.40
   8   1  -6   18.90    4.50
   8   1  -6    9.10    4.80
   7   1  -6  369.56   19.90
   7   1  -6  345.17   16.00
  -7  -1   6  358.06   17.30
   6   1  -6  359.46   16.00
   6   1  -6  368.06   17.50
   6   1  -6  361.56   13.30
   6   1  -6  374.46   16.70
   6   1  -6  378.16   18.90
  -6  -1   6  356.46   16.30
  -6  -1   6  387.06   18.70
  -6  -1   6  384.46   17.00
   5   1  -6  402.96   19.20
   5   1  -6  381.56   13.80
   5   1  -6  404.06   17.00
  -5  -1   6  394.36   18.00
  -5  -1   6  414.46   17.10
  -5  -1   6  395.86   17.20
   4   1  -6  661.43   25.70
   4   1  -6  626.74   23.70
   4   1  -6  620.94   20.80
  -4  -1   6  670.53   23.50
  -4  -1   6  641.44   24.30
  -4  -1   6  643.34   23.90
   3   1  -6 1112.49   37.20
   3   1  -6 1206.68   39.40
   3   1  -6 1080.09   34.60
  -3  -1   6 1116.99   37.20
  -3  -1   6 1112.99   37.10
   2   1  -6 1431.16   46.10
   2   1  -6 1404.56   44.80
   2   1  -6 1321.67   42.50
  -2  -1   6 1400.56   43.70
  -2  -1   6 1430.46   41.90
  -2  -1   6 1357.06   44.70
   1   1  -6   18.10    3.90
   1   1  -6   16.90    4.30
   1   1  -6   19.30    3.50
  -1  -1   6   24.60    3.50
  -1  -1   6   25.40    3.90
  -1  -1   6   17.80    3.20
   0   1  -6 1067.79   37.50
   0   1  -6 1160.18   37.10
   0   1  -6 1180.68   38.00
   0   1  -6 1229.68   39.20
   0  -1   6 1204.58   35.70
   0  -1   6 1134.09   36.30
   0  -1   6 1146.39   37.80
  -1   1  -6 1699.73   53.99
  -1   1  -6 1697.53   52.99
   1  -1   6 1742.23   50.49
   1  -1   6 1817.72   52.79
   1  -1   6 1659.63   52.59
   1  -1   6 1653.33   53.69
  -2   1  -6   86.19    7.30
  -2   1  -6   82.39    8.00
  -2   1  -6   89.39    5.30
   2  -1   6   77.19    4.70
   2  -1   6   85.29    6.80
   2  -1   6   84.89    6.30
   2  -1   6   91.49    7.20
  -3   1  -6  457.95   14.90
  -3   1  -6  409.36   21.00
  -3   1  -6  457.45   18.70
  -3   1  -6  450.75   19.00
   3  -1   6  469.95   16.30
   3  -1   6  469.45   18.50
   3  -1   6  470.15   17.90
   3  -1   6  468.25   18.30
  -4   1  -6  795.72   30.30
  -4   1  -6  839.22   29.20
  -4   1  -6  673.73   30.90
   4  -1   6  828.12   29.70
   4  -1   6  804.12   26.50
   4  -1   6  811.52   28.50
   4  -1   6  849.32   28.90
   4  -1   6  802.62   27.90
  -5   1  -6    5.00    4.00
  -5   1  -6    5.00    3.20
  -5   1  -6   -0.50    4.10
  -5   1  -6    3.60    4.40
   5  -1   6    2.00    3.70
   5  -1   6    0.00    5.60
   5  -1   6    0.70    3.80
   5  -1   6    6.50    3.80
   5  -1   6    7.20    3.70
   5  -1   6    0.90    3.30
  -6   1  -6   37.10    5.30
  -6   1  -6   39.40    6.60
  -6   1  -6   33.10    7.10
  -6   1  -6   36.10    5.90
   6  -1   6   38.50    5.80
   6  -1   6   45.60    6.50
   6  -1   6   45.00    7.60
   6  -1   6   46.40    7.30
   6  -1   6   34.80    6.60
   6  -1   6   46.00    6.60
  -7   1  -6  503.05   23.30
  -7   1  -6  519.65   22.70
  -7   1  -6  498.35   21.50
   7  -1   6  521.35   24.30
   7  -1   6  486.05   21.90
   7  -1   6  463.35   19.70
   7  -1   6  467.75   19.80
  -8   1  -6  142.19   11.30
  -8   1  -6  126.09   10.30
  -8   1  -6  129.09   12.70
   8  -1   6  123.69   11.70
   8  -1   6  114.79    9.60
   8  -1   6  102.59    9.20
   8  -1   6  135.49   12.80
   8  -1   6  121.99   10.40
   8   0  -6   45.60    5.80
   8   0  -6   58.89    7.40
   8   0  -6   49.30    8.60
  -8   0   6   75.09    8.80
   7   0  -6 1513.35   49.99
   7   0  -6 1472.95   45.50
   7   0  -6 1450.35   44.80
   7   0  -6 1543.05   53.69
  -7   0   6 1496.95   52.59
  -7   0   6 1551.34   50.29
   6   0  -6  258.87   13.80
   6   0  -6  270.17   14.10
   6   0  -6  272.27    9.90
   6   0  -6  291.17   14.20
   6   0  -6  319.57   17.10
  -6   0   6  296.97   16.20
  -6   0   6  320.57   14.90
   5   0  -6    3.10    1.90
   5   0  -6    7.30    3.90
   5   0  -6    0.10    3.00
   5   0  -6    4.60    3.50
  -5   0   6   -4.60    4.70
  -5   0   6    3.30    4.10
  -5   0   6   -2.50    3.80
   4   0  -6   46.10    6.70
   4   0  -6   47.80    6.70
   4   0  -6   40.70    3.70
   4   0  -6   46.50    5.80
  -4   0   6   42.80    5.90
  -4   0   6   43.60    3.80
  -4   0   6   38.50    5.10
  -4   0   6   45.40    6.90
   3   0  -6 2824.42   87.09
   3   0  -6 2957.30   88.59
   3   0  -6 2747.12   83.99
  -3   0   6 2779.72   86.99
  -3   0   6 2793.42   86.49
  -3   0   6 2936.01   83.99
   2   0  -6   51.39    7.20
   2   0  -6   39.90    5.20
   2   0  -6   43.80    4.40
   2   0  -6   49.40    6.50
  -2   0   6   47.40    4.40
  -2   0   6   47.30    5.30
  -2   0   6   42.70    5.70
  -2   0   6   44.50    5.40
   1   0  -6    2.50    2.50
   1   0  -6   -2.30    2.80
   1   0  -6    2.60    2.70
   1   0  -6    2.00    3.70
  -1   0   6    2.00    2.80
  -1   0   6    3.30    2.70
  -1   0   6    2.00    2.60
   0   0  -6 1287.37   42.40
   0   0  -6 1286.97   41.50
   0   0  -6 1256.77   40.50
   0   0  -6 1316.17   41.30
   0   0   6 1288.97   39.20
   0   0   6 1235.18   41.30
   0   0   6 1334.17   40.00
  -1   0  -6  631.84   24.50
  -1   0  -6  657.83   22.20
  -1   0  -6  675.23   23.40
  -1   0  -6  659.63   23.40
   1   0   6  649.83   23.10
   1   0   6  642.84   22.00
   1   0   6  652.13   22.30
  -2   0  -6  412.86   16.30
  -2   0  -6  408.36   14.50
  -2   0  -6  413.26   16.90
  -2   0  -6  417.36   16.90
  -2   0  -6  394.36   17.90
   2   0   6  413.76   16.20
   2   0   6  417.06   17.10
   2   0   6  390.06   16.00
   2   0   6  398.86   15.90
  -3   0  -6 3314.87   99.79
  -3   0  -6 3177.78  101.19
  -3   0  -6 3168.58   95.29
  -3   0  -6 3150.98   99.89
   3   0   6 3339.87   99.19
   3   0   6 3263.97   98.79
   3   0   6 3262.27   98.39
   3   0   6 3342.97   99.59
  -4   0  -6   10.60    4.70
  -4   0  -6   14.70    3.30
  -4   0  -6   10.50    5.80
  -4   0  -6   20.50    5.40
   4   0   6    4.90    4.70
   4   0   6   12.20    3.60
   4   0   6   14.20    4.30
   4   0   6    5.20    4.60
  -5   0  -6    7.40    5.10
  -5   0  -6    2.00    5.60
  -5   0  -6    5.10    3.40
  -5   0  -6    5.40    4.50
   5   0   6    7.20    4.10
   5   0   6   -1.80    3.30
   5   0   6    5.30    3.30
   5   0   6    4.30    4.40
  -6   0  -6  659.83   26.00
  -6   0  -6  651.33   29.10
  -6   0  -6  697.73   27.10
  -6   0  -6  679.33   23.80
   6   0   6  629.44   24.60
   6   0   6  643.74   23.80
   6   0   6  646.14   25.20
   6   0   6  674.73   26.40
   6   0   6  662.73   27.80
  -7   0  -6   66.09    9.00
  -7   0  -6   49.00    9.50
  -7   0  -6   62.09    7.60
  -7   0  -6   42.80    6.70
   7   0   6   54.69    8.10
   7   0   6   48.50    6.40
   7   0   6   64.89   10.10
  -8   0  -6  200.68   19.30
  -8   0  -6  213.88   15.10
  -8   0  -6  225.28   12.70
   8   0   6  218.98   13.30
   8   0   6  223.08   17.40
   8  -1  -6  240.98   13.90
   8  -1  -6  246.18   17.30
  -8   1   6  258.97   19.80
  -8   1   6  245.18   13.90
   7  -1  -6 1156.48   45.90
   7  -1  -6 1355.86   47.20
   7  -1  -6 1295.97   43.70
   7  -1  -6 1226.78   39.70
  -7   1   6 1261.67   45.90
  -7   1   6 1307.17   43.10
   6  -1  -6  253.47   12.10
   6  -1  -6  256.07    9.90
   6  -1  -6  250.97   13.80
   6  -1  -6  243.58   14.90
   6  -1  -6  299.27   16.70
   6  -1  -6  294.37   15.80
  -6   1   6  254.57   15.20
   5  -1  -6    3.70    3.20
   5  -1  -6    1.40    3.50
   5  -1  -6    4.00    3.30
   5  -1  -6    6.30    3.90
  -5   1   6    3.40    2.80
  -5   1   6    2.80    3.80
  -5   1   6   11.40    5.20
  -5   1   6    7.10    4.10
   4  -1  -6  382.06   18.10
   4  -1  -6  387.66   16.10
   4  -1  -6  391.36   14.70
   4  -1  -6  425.26   17.40
   4  -1  -6  416.66   18.60
  -4   1   6  432.26   16.10
  -4   1   6  376.46   17.20
  -4   1   6  401.06   17.20
  -4   1   6  409.56   14.50
   3  -1  -6   56.29    6.60
   3  -1  -6   65.09    4.00
   3  -1  -6   60.89    5.50
   3  -1  -6   54.59    4.30
   3  -1  -6   56.29    7.80
  -3   1   6   62.69    6.50
  -3   1   6   61.69    5.50
  -3   1   6   60.29    6.50
   2  -1  -6 1312.57   39.70
   2  -1  -6 1248.08   38.50
   2  -1  -6 1328.27   42.40
   2  -1  -6 1315.37   43.00
   2  -1  -6 1312.27   40.50
  -2   1   6 1252.07   39.10
  -2   1   6 1275.77   42.30
  -2   1   6 1323.77   40.50
   1  -1  -6  119.09    9.20
   1  -1  -6  121.89    8.20
   1  -1  -6  118.89    6.80
  -1   1   6  121.89    7.50
  -1   1   6  117.89    8.10
  -1   1   6  123.49    6.20
   0  -1  -6 1152.18   40.60
   0  -1  -6 1199.68   38.60
   0  -1  -6 1227.08   39.20
   0  -1  -6 1223.88   36.90
   0   1   6 1190.88   38.60
   0   1   6 1185.08   39.10
   0   1   6 1230.28   37.80
  -1  -1  -6  143.39    8.00
  -1  -1  -6  140.69    9.30
  -1  -1  -6  136.99    7.00
  -1  -1  -6  129.39   10.00
   1   1   6  133.09    7.20
   1   1   6  134.09    7.80
   1   1   6  134.39    7.90
   1   1   6  143.49    9.80
  -2  -1  -6  208.58   13.20
  -2  -1  -6  235.78   10.60
  -2  -1  -6  231.28   11.00
   2   1   6  220.58   10.70
   2   1   6  225.58   11.00
   2   1   6  229.48   12.00
   2   1   6  230.48   11.00
  -3  -1  -6  765.72   24.20
  -3  -1  -6  797.22   28.50
  -3  -1  -6  775.52   24.10
  -3  -1  -6  780.32   24.50
  -3  -1  -6  786.92   27.40
  -3  -1  -6  770.02   30.70
   3   1   6  782.22   27.70
   3   1   6  748.53   27.90
   3   1   6  790.32   28.20
   3   1   6  777.22   26.70
  -4  -1  -6  555.94   22.50
  -4  -1  -6  523.35   25.00
  -4  -1  -6  561.14   21.90
  -4  -1  -6  533.15   19.70
   4   1   6  562.34   22.40
   4   1   6  587.44   22.80
   4   1   6  541.35   20.10
   4   1   6  557.94   21.80
  -5  -1  -6  182.28    9.10
  -5  -1  -6  179.18   14.00
  -5  -1  -6  178.18   14.70
   5   1   6  194.58   11.90
   5   1   6  175.18   13.50
   5   1   6  170.68    9.30
  -6  -1  -6  145.19    8.80
  -6  -1  -6  132.59   10.70
  -6  -1  -6  155.28   11.60
   6   1   6  135.09   10.50
   6   1   6  141.69   11.20
   6   1   6  132.19    8.40
   6   1   6  150.38   11.60
  -7  -1  -6    2.90    6.70
  -7  -1  -6    5.20    5.00
  -7  -1  -6    6.80    5.10
   7   1   6   -4.50    3.30
   7   1   6    3.70    4.30
   7   1   6    6.10    5.60
   7   1   6    3.10    5.00
  -8  -1  -6  350.96   19.10
   8   1   6  346.87   18.00
   8   1   6  333.77   14.70
   8  -2  -6   86.29    6.90
   8  -2  -6   93.39   11.70
   8  -2  -6   77.09    9.10
   8  -2  -6   67.69    7.50
   8  -2  -6   56.89   11.30
  -8   2   6   90.29    9.00
   7  -2  -6  121.59    7.30
   7  -2  -6  130.09    9.80
   7  -2  -6  141.49    8.00
   7  -2  -6  137.09   12.60
  -7   2   6  139.79   12.60
  -7   2   6  134.69    9.30
   6  -2  -6  709.23   26.90
   6  -2  -6  673.83   27.10
   6  -2  -6  683.93   23.70
   6  -2  -6  711.33   22.70
   6  -2  -6  721.43   28.90
   6  -2  -6  679.83   24.80
  -6   2   6  651.13   24.10
  -6   2   6  680.43   28.00
  -6   2   6  691.83   25.90
   5  -2  -6    3.70    3.10
   5  -2  -6    1.70    1.70
   5  -2  -6   -3.50    4.70
   5  -2  -6    7.30    3.40
   5  -2  -6    4.60    3.10
  -5   2   6    0.50    3.70
   4  -2  -6   43.00    6.20
   4  -2  -6   54.49    5.10
   4  -2  -6   45.20    5.90
   4  -2  -6   46.60    7.40
   4  -2  -6   57.69    6.60
  -4   2   6   42.70    5.80
  -4   2   6   62.99    7.60
  -4   2   6   46.00    6.10
  -4   2   6   62.69    8.20
   3  -2  -6    5.30    4.20
   3  -2  -6    7.90    3.70
   3  -2  -6    3.20    3.20
   3  -2  -6    7.20    2.30
  -3   2   6    5.20    3.50
  -3   2   6    4.00    3.00
   2  -2  -6  861.11   29.50
   2  -2  -6  826.92   30.40
   2  -2  -6  773.32   25.60
   2  -2  -6  846.52   27.00
  -2   2   6  828.02   29.40
  -2   2   6  901.51   29.80
  -2   2   6  864.51   25.80
   1  -2  -6  266.17   14.50
   1  -2  -6  282.07   10.50
   1  -2  -6  301.47   10.40
   1  -2  -6  295.47   13.00
  -1   2   6  291.77   13.20
  -1   2   6  306.17   14.20
  -1   2   6  284.87   10.90
   0  -2  -6 2986.30  100.79
   0  -2  -6 3396.56   97.29
   0  -2  -6 3260.67   98.69
   0  -2  -6 3333.27   95.29
   0   2   6 3198.18   98.59
   0   2   6 3352.76  100.19
   0   2   6 3317.67   97.19
   0   2   6 3192.18   98.29
  -1  -2  -6    3.50    2.10
  -1  -2  -6    9.20    3.00
  -1  -2  -6    6.90    4.70
  -1  -2  -6    8.70    3.30
   1   2   6    7.30    4.40
   1   2   6    3.50    3.50
   1   2   6    2.70    2.90
   1   2   6    0.20    3.40
  -2  -2  -6   24.80    4.10
  -2  -2  -6   16.60    5.40
  -2  -2  -6   21.30    3.80
  -2  -2  -6   27.30    3.40
   2   2   6   16.20    3.60
   2   2   6   24.20    4.50
   2   2   6   19.40    4.20
   2   2   6   20.80    5.20
   2   2   6   22.30    4.30
  -3  -2  -6   50.39    8.90
  -3  -2  -6   48.80    4.20
  -3  -2  -6   51.69    7.00
  -3  -2  -6   42.60    5.70
  -3  -2  -6   43.30    6.60
  -3  -2  -6   52.39    5.30
   3   2   6   44.90    7.60
   3   2   6   53.29    6.70
   3   2   6   46.30    7.20
   3   2   6   50.39    5.60
  -4  -2  -6  640.74   22.80
  -4  -2  -6  657.23   25.50
  -4  -2  -6  661.83   25.50
  -4  -2  -6  611.34   28.40
   4   2   6  683.13   25.30
   4   2   6  646.94   25.70
   4   2   6  645.14   25.60
   4   2   6  649.04   23.30
  -5  -2  -6    6.80    4.10
   5   2   6    1.10    4.80
   5   2   6    9.00    3.50
  -6  -2  -6   22.00    5.80
  -6  -2  -6   27.30    8.00
  -6  -2  -6   19.70    5.00
  -6  -2  -6   24.90    6.20
   6   2   6   30.70    6.60
   6   2   6   32.10    6.50
   6   2   6   27.60    4.00
  -7  -2  -6   -0.60    5.00
  -7  -2  -6  -10.00    4.50
   7   2   6    2.90    4.90
   7   2   6    2.10    5.50
   7   2   6    1.10    3.10
   8  -3  -6   61.59    6.30
   8  -3  -6   52.69    8.70
   8  -3  -6   72.59    7.50
  -8   3   6   85.99    9.00
  -8   3   6   61.09   11.90
   7  -3  -6    5.00    4.10
   7  -3  -6   10.40    4.40
   7  -3  -6    9.60    5.00
  -7   3   6   12.40    4.50
  -7   3   6   10.00    6.50
  -7   3   6   11.60    4.20
   6  -3  -6  106.09    6.40
   6  -3  -6  119.59   10.20
   6  -3  -6  113.09    9.90
   6  -3  -6  105.99    8.30
   6  -3  -6  100.49    8.40
   6  -3  -6  104.19    9.70
  -6   3   6   92.19   10.60
  -6   3   6  104.19    8.20
  -6   3   6  109.59    8.60
   5  -3  -6   22.10    4.70
   5  -3  -6   27.20    6.10
   5  -3  -6   32.70    5.60
   5  -3  -6   19.10    4.10
   5  -3  -6   26.30    4.50
   5  -3  -6   25.00    3.60
  -5   3   6   21.60    5.90
  -5   3   6   29.80    4.80
  -5   3   6   28.40    4.70
   4  -3  -6    9.00    3.60
   4  -3  -6    9.50    3.80
   4  -3  -6    3.80    4.00
   4  -3  -6    7.60    4.20
   4  -3  -6    7.90    4.50
  -4   3   6    8.60    4.60
  -4   3   6    6.80    4.00
  -4   3   6   10.30    3.50
   3  -3  -6    1.80    4.20
   3  -3  -6    3.00    3.50
   3  -3  -6    2.00    2.60
   3  -3  -6    3.90    3.80
  -3   3   6   -2.40    2.60
  -3   3   6    2.00    3.90
   2  -3  -6   13.30    5.10
   2  -3  -6   18.20    2.80
   2  -3  -6   22.90    4.70
   2  -3  -6   19.30    2.90
  -2   3   6   14.20    4.00
  -2   3   6   24.20    4.70
  -2   3   6   19.80    2.70
   1  -3  -6  600.14   22.20
   1  -3  -6  577.74   20.30
   1  -3  -6  542.95   24.00
  -1   3   6  641.74   24.10
  -1   3   6  595.84   19.80
  -1   3   6  566.64   21.90
  -1   3   6  613.14   22.00
   0  -3  -6 5061.39  149.39
   0  -3  -6 4661.33  152.38
   0  -3  -6 5286.07  148.89
   0   3   6 5041.60  150.58
   0   3   6 5054.79  149.49
   0   3   6 4899.51  149.29
   0   3   6 4992.60  147.89
  -1  -3  -6    7.00    3.10
  -1  -3  -6   -1.40    3.60
  -1  -3  -6    1.50    3.10
   1   3   6    4.00    4.60
   1   3   6    3.00    3.80
   1   3   6    4.40    4.00
   1   3   6   -1.10    2.80
  -2  -3  -6  138.89    8.00
  -2  -3  -6  133.39    8.10
  -2  -3  -6  144.39    7.50
  -2  -3  -6  137.39    9.30
   2   3   6  137.49   10.50
   2   3   6  127.29    9.40
   2   3   6  123.19    7.70
  -3  -3  -6   17.60    6.60
  -3  -3  -6   15.90    3.20
  -3  -3  -6   21.30    4.00
  -3  -3  -6   18.80    5.00
  -3  -3  -6   22.10    4.20
   3   3   6   15.90    5.40
   3   3   6   12.30    4.80
  -4  -3  -6   38.60    6.30
  -4  -3  -6   21.80    3.10
  -4  -3  -6   27.10    5.20
  -4  -3  -6   33.50    4.90
   4   3   6   19.70    6.20
  -5  -3  -6  119.39    8.80
  -5  -3  -6  109.79   14.30
  -5  -3  -6  128.79   11.00
  -5  -3  -6  118.79   11.10
   5   3   6  119.19   11.30
   5   3   6  109.39    8.10
   5   3   6  120.69   13.90
   5   3   6  120.99   10.70
  -6  -3  -6  276.07   15.80
  -6  -3  -6  308.37   16.50
  -6  -3  -6  300.47   17.00
  -6  -3  -6  280.17   14.80
   6   3   6  271.27   12.20
   6   3   6  286.97   17.00
   6   3   6  311.97   16.50
  -7  -3  -6   31.30    6.40
  -7  -3  -6   21.70    7.90
  -7  -3  -6   22.90    5.70
  -7  -3  -6    3.40    5.40
   7   3   6    9.40    2.90
   7   3   6   15.00    6.10
   7  -4  -6   -2.30    4.60
   7  -4  -6   -4.60    3.10
   7  -4  -6   -1.40    4.10
  -7   4   6   -1.10    3.90
  -7   4   6   -1.10    5.70
   6  -4  -6   75.59    7.90
   6  -4  -6   42.10    5.80
   6  -4  -6   63.09    8.00
   6  -4  -6   62.99    9.30
  -6   4   6   47.10    8.10
  -6   4   6   57.29    6.60
  -6   4   6   44.20    7.50
   5  -4  -6  638.64   23.70
   5  -4  -6  642.44   26.30
   5  -4  -6  671.73   24.60
   5  -4  -6  709.93   26.80
  -5   4   6  689.03   25.10
  -5   4   6  608.74   26.30
  -5   4   6  664.03   23.10
   4  -4  -6 1166.28   39.70
   4  -4  -6 1070.59   39.80
   4  -4  -6 1147.79   38.30
  -4   4   6 1149.89   38.00
  -4   4   6 1139.09   36.20
   3  -4  -6  632.44   26.90
   3  -4  -6  671.83   25.20
   3  -4  -6  654.63   24.60
  -3   4   6  665.03   24.20
  -3   4   6  694.13   22.30
  -3   4   6  653.33   25.80
   2  -4  -6  135.09    9.60
   2  -4  -6  127.29   10.20
   2  -4  -6  118.79    7.50
   2  -4  -6  127.59   11.10
  -2   4   6  130.89    9.50
  -2   4   6  130.49    6.40
  -2   4   6  123.69    9.50
   1  -4  -6  848.32   29.20
   1  -4  -6  764.02   31.80
   1  -4  -6  831.62   28.00
  -1   4   6  816.52   29.00
  -1   4   6  772.02   28.70
  -1   4   6  868.71   31.10
   0  -4  -6  807.32   28.50
   0  -4  -6  875.31   28.60
   0  -4  -6  786.02   32.50
   0   4   6  811.02   27.70
   0   4   6  776.72   28.30
   0   4   6  781.42   29.10
   0   4   6  838.22   30.40
  -1  -4  -6  130.09   12.60
  -1  -4  -6  132.79    8.80
  -1  -4  -6  129.19    9.00
  -1  -4  -6  142.29    9.40
   1   4   6  141.49   10.90
   1   4   6  135.29    9.50
   1   4   6  143.99    8.40
  -2  -4  -6  547.65   19.60
  -2  -4  -6  540.45   21.60
  -2  -4  -6  525.75   19.60
  -2  -4  -6  524.55   19.80
   2   4   6  536.55   23.50
   2   4   6  496.45   19.40
   2   4   6  528.65   21.00
  -3  -4  -6    1.20    3.60
  -3  -4  -6   -1.30    3.10
  -3  -4  -6    2.90    3.20
  -3  -4  -6   -3.20    2.90
   3   4   6    6.80    5.20
   3   4   6    5.30    4.80
  -4  -4  -6   26.30    6.20
  -4  -4  -6   28.00    5.40
  -4  -4  -6   19.90    3.50
   4   4   6   22.60    6.00
   4   4   6   18.10    3.40
   4   4   6   22.10    6.50
  -5  -4  -6  233.08   14.50
  -5  -4  -6  240.68   15.10
  -5  -4  -6  223.48    9.90
   5   4   6  259.37   13.30
   5   4   6  267.37   15.30
   5   4   6  242.78   10.20
   5   4   6  255.07   16.30
  -6  -4  -6  146.19   10.60
  -6  -4  -6  147.59   11.90
  -6  -4  -6  134.09   13.00
  -6  -4  -6  134.79   11.70
   6   4   6  147.59   13.60
   6   4   6  149.99   12.70
   6   4   6  130.59    6.50
   7  -5  -6  318.47   20.20
   7  -5  -6  327.67   15.20
   7  -5  -6  236.58   15.20
   7  -5  -6  251.57   12.90
   6  -5  -6   92.59    9.90
   6  -5  -6   63.09    7.60
   6  -5  -6   85.19    8.50
   6  -5  -6   78.39    9.60
  -6   5   6   79.69    7.00
   5  -5  -6   36.90    6.00
   5  -5  -6   25.50    6.20
   5  -5  -6   40.30    6.60
  -5   5   6   15.90    6.10
  -5   5   6   36.90    4.90
  -5   5   6   33.70    6.30
   4  -5  -6  115.89   10.30
   4  -5  -6   92.29   10.90
  -4   5   6  115.49    6.70
   3  -5  -6  563.64   25.50
   3  -5  -6  609.94   23.90
   2  -5  -6   97.69    9.50
   2  -5  -6   92.19    7.40
   2  -5  -6   92.79    7.90
   2  -5  -6   86.59   10.50
  -2   5   6   73.19    9.40
  -2   5   6   85.39    5.70
   1  -5  -6   97.69   11.40
   1  -5  -6  114.69    8.60
   1  -5  -6   99.49    8.80
  -1   5   6  117.79    7.70
  -1   5   6  100.39    8.90
  -1   5   6   87.69    9.80
   0  -5  -6   32.90    5.30
   0  -5  -6   24.30    5.00
   0  -5  -6   32.50    5.00
   0  -5  -6   32.70    9.00
   0   5   6   25.50    6.50
   0   5   6   23.20    4.60
   0   5   6   27.30    5.00
  -1  -5  -6  619.14   23.40
  -1  -5  -6  594.14   22.40
  -1  -5  -6  627.24   24.10
  -1  -5  -6  532.45   30.70
   1   5   6  602.84   22.20
   1   5   6  612.64   23.30
  -2  -5  -6   -1.00    3.40
  -2  -5  -6   -3.90    4.10
  -2  -5  -6    2.80    5.90
  -2  -5  -6   -2.20    3.00
   2   5   6   -6.40    5.10
   2   5   6   -5.90    2.80
   2   5   6    0.20    4.40
  -3  -5  -6  894.11   30.10
  -3  -5  -6  911.11   31.60
  -3  -5  -6  874.51   31.50
  -3  -5  -6  862.41   33.90
   3   5   6  939.71   34.00
   3   5   6  916.61   35.40
  -4  -5  -6   -1.60    3.50
  -4  -5  -6    1.60    3.70
  -4  -5  -6    5.90    5.10
   4   5   6   10.50    5.60
   4   5   6   -1.20    2.50
   4   5   6    1.50    3.80
   4   5   6    1.30    4.50
  -5  -5  -6   51.99    7.70
  -5  -5  -6   76.39    9.80
  -5  -5  -6   61.89    9.10
   5   5   6   65.39   10.90
   5   5   6   76.69   10.50
   5   5   6   52.89    6.80
  -6  -5  -6  112.39   10.20
  -6  -5  -6   96.39   10.50
  -6  -5  -6   72.79    5.60
  -6  -5  -6  100.39   10.60
   6   5   6  118.49   14.10
   6  -6  -6  118.19   17.10
   6  -6  -6   70.39    9.70
   6  -6  -6   94.29   10.50
   5  -6  -6  130.89   11.60
   5  -6  -6  121.09   10.90
   5  -6  -6   93.79   11.00
   4  -6  -6   -2.80    4.50
   4  -6  -6   -2.40    5.20
   4  -6  -6   -0.80    3.40
   3  -6  -6  859.51   38.70
   3  -6  -6  908.31   32.70
  -3   6   6  848.82   26.60
   2  -6  -6   41.80    7.00
   2  -6  -6   35.50    5.60
   2  -6  -6   29.40    5.60
  -2   6   6   26.90    2.90
   1  -6  -6  597.54   24.70
   1  -6  -6  603.34   23.90
   1  -6  -6  595.54   28.50
   1  -6  -6  631.04   24.10
  -1   6   6  632.34   22.30
  -1   6   6  593.14   25.80
   0  -6  -6  504.45   21.30
   0  -6  -6  473.25   25.20
   0   6   6  486.85   19.50
   0   6   6  475.35   21.90
  -1  -6  -6   10.80    6.20
  -1  -6  -6    5.90    3.90
   1   6   6    1.50    4.40
   1   6   6    1.10    5.40
  -2  -6  -6  119.29   11.00
  -2  -6  -6  102.49    7.80
  -2  -6  -6   99.29    9.10
   2   6   6   99.79   11.40
   2   6   6  114.89    9.90
  -3  -6  -6  969.90   31.30
  -3  -6  -6  953.50   36.20
  -3  -6  -6  854.01   33.70
  -3  -6  -6  949.31   33.90
   3   6   6  985.70   35.80
   3   6   6  946.91   31.20
   3   6   6  918.91   37.30
  -4  -6  -6   13.30    5.50
  -4  -6  -6   18.80    6.50
  -4  -6  -6   19.60    5.90
  -4  -6  -6   25.60    6.10
   4   6   6   40.70    7.60
   4   6   6   20.90    7.40
   4   6   6   25.20    4.80
  -5  -6  -6   41.70    6.80
  -5  -6  -6   30.60    6.80
   5   6   6   29.30    8.60
   5  -7  -6    0.50    5.40
   5  -7  -6   -6.20    6.20
   4  -7  -6   68.79   10.30
   4  -7  -6   82.69   11.50
   4  -7  -6   67.79    9.50
   3  -7  -6   55.79    8.20
   3  -7  -6   41.00    8.00
   3  -7  -6   56.89    7.80
  -3   7   6   41.40    4.50
   2  -7  -6  677.33   31.40
   2  -7  -6  749.53   36.70
   2  -7  -6  755.92   28.40
   2  -7  -6  732.13   29.10
  -2   7   6  768.92   25.00
  -2   7   6  694.43   29.30
   1  -7  -6  532.45   21.90
   1  -7  -6  517.75   24.80
  -1   7   6  533.85   20.50
   0  -7  -6   85.39    9.70
   0  -7  -6   66.89    9.20
   0   7   6   70.59   10.20
   0   7   6   85.59    8.70
  -1  -7  -6    7.60    5.30
  -1  -7  -6    5.20    3.80
   1   7   6    5.40    2.00
   1   7   6    8.80    4.80
   1   7   6    2.50    5.50
  -2  -7  -6   13.20    5.90
  -2  -7  -6   13.80    3.70
  -2  -7  -6    1.80    6.00
   2   7   6   22.10    6.10
   2   7   6   19.30    7.00
  -3  -7  -6   87.99   10.20
  -3  -7  -6   97.99   10.30
  -3  -7  -6   52.39    8.10
  -3  -7  -6   77.99    6.30
   3   7   6   89.99   10.90
   3   7   6   60.59    6.30
   3  -8  -6   18.30    5.70
   2  -8  -6   23.60    6.10
   2  -8  -6   26.20    5.60
  -2   8   6   31.20    4.90
  -2   8   6   22.80    4.70
  -2   8   6   18.40    7.30
   1  -8  -6   -2.30    4.60
   1  -8  -6   -5.30    4.40
  -1   8   6   -4.90    3.90
  -1   8   6   -6.50    6.60
   0  -8  -6   82.09   10.50
   0   8   6   65.79   10.70
   0   8   6   97.69    9.40
  -1  -8  -6   87.49   11.10
  -1  -8  -6   78.19    8.30
   1   8   6  100.19   10.40
   0   9  -7   -1.00    2.50
   0   9  -7    3.60    6.90
   0  -9   7    3.90    4.70
  -1   9  -7  636.94   28.90
  -2   9  -7   -2.40    4.20
  -2   9  -7   -1.50    4.70
   2  -9   7    2.40    5.60
   3   8  -7  174.68   15.10
   3   8  -7  110.79    8.90
  -3  -8   7  147.49   13.30
   2   8  -7   17.90    7.20
   2   8  -7   15.20    7.30
   2   8  -7    6.50    4.10
  -2  -8   7   -3.20    4.90
  -2  -8   7    3.60    4.20
   1   8  -7   -3.50    4.00
   1   8  -7    5.90    7.30
  -1  -8   7   -7.30    4.90
  -1  -8   7   -3.20    3.50
   0   8  -7   26.70    6.60
   0   8  -7   23.30    3.30
   0   8  -7   27.30    7.90
   0  -8   7   26.30    5.50
  -1   8  -7  244.38   18.70
  -1   8  -7  212.78   14.00
  -2   8  -7    2.60    4.70
  -2   8  -7    3.10    4.60
   2  -8   7    4.20    4.80
  -3   8  -7  411.86   18.30
  -3   8  -7  437.76   20.80
  -3   8  -7  491.85   20.70
   3  -8   7  494.15   20.80
   4  -8   7   -0.10    6.00
   4   7  -7   -5.30    7.70
  -4  -7   7    3.50    5.90
  -4  -7   7   -7.50    3.50
   3   7  -7  472.85   26.50
   3   7  -7  466.65   22.70
   3   7  -7  438.36   17.50
  -3  -7   7  422.76   19.20
  -3  -7   7  414.76   19.10
   2   7  -7   99.89    7.10
   2   7  -7  101.89   11.20
   1   7  -7  725.93   24.00
   1   7  -7  729.33   30.10
  -1  -7   7  778.82   25.60
   0   7  -7  189.58   12.60
   0  -7   7  203.28   11.00
   0  -7   7  199.98   12.20
  -1   7  -7  559.24   24.30
   1  -7   7  576.44   21.90
   1  -7   7  555.24   24.00
  -2   7  -7    2.70    4.20
  -2   7  -7    4.10    2.90
   2  -7   7   14.70    6.40
   2  -7   7    3.00    4.50
  -3   7  -7   51.19    7.90
  -3   7  -7   56.89    6.40
  -3   7  -7   40.90    6.60
   3  -7   7   31.10    7.90
   3  -7   7   44.60    6.70
   3  -7   7   36.20    6.50
  -4   7  -7   82.59    8.70
  -4   7  -7   61.09    6.80
   4  -7   7   90.19   11.40
   4  -7   7   88.29   10.00
  -5   7  -7   -2.00    3.70
   5  -7   7   -3.20    6.00
   5  -7   7    0.80    4.70
   5  -7   7   -4.80    6.40
  -5  -6   7  315.17   16.00
  -5  -6   7  306.37   15.80
  -5  -6   7  299.87   16.20
  -5  -6   7  284.67   14.00
   4   6  -7  380.46   13.60
   4   6  -7  395.16   20.50
  -4  -6   7  379.36   17.70
  -4  -6   7  359.66   17.50
  -4  -6   7  390.76   17.10
  -4  -6   7  393.76   18.30
   3   6  -7    5.90    3.50
   3   6  -7    7.80    4.50
   3   6  -7    9.70    2.20
  -3  -6   7    5.20    4.10
  -3  -6   7   18.10    5.10
  -3  -6   7   17.70    5.60
   2   6  -7    3.00    4.00
  -2  -6   7    3.70    4.20
  -2  -6   7    4.00    2.40
   1   6  -7  157.18    6.60
   1   6  -7  138.09   10.40
   1   6  -7  158.98   12.00
  -1  -6   7  150.68   11.00
  -1  -6   7  157.98    8.40
   0   6  -7    1.40    1.40
   0   6  -7    0.60    2.20
   0   6  -7    3.40    4.60
   0  -6   7    4.80    3.50
   0  -6   7   -2.90    5.10
  -1   6  -7  192.08    9.50
  -1   6  -7  191.68   12.30
  -1   6  -7  194.58    7.40
   1  -6   7  198.38   10.90
   1  -6   7  177.58   11.10
   1  -6   7  186.98   14.40
  -2   6  -7    8.00    3.90
  -2   6  -7    6.70    3.40
   2  -6   7    0.60    4.50
   2  -6   7    5.00    4.10
   2  -6   7    7.70    4.50
   2  -6   7    6.10    6.00
  -3   6  -7   21.70    3.30
  -3   6  -7   12.80    4.50
  -3   6  -7   21.50    4.60
  -3   6  -7   13.60    4.20
   3  -6   7    9.80    6.20
   3  -6   7   12.30    4.00
  -4   6  -7 1585.04   52.39
  -4   6  -7 1614.34   53.49
  -4   6  -7 1706.03   54.59
  -4   6  -7 1654.73   51.49
   4  -6   7 1641.24   53.49
   4  -6   7 1735.53   55.19
   4  -6   7 1607.64   54.29
  -5   6  -7  119.19   10.30
  -5   6  -7  118.89    8.10
  -5   6  -7   99.79    7.30
   5  -6   7  123.19   11.80
   5  -6   7  103.89    8.30
   5  -6   7  112.49   12.50
  -6   6  -7  428.66   18.00
  -6   6  -7  459.15   20.90
   6  -6   7  430.16   17.20
   6  -6   7  427.86   20.70
   6   5  -7  372.96   15.70
  -6  -5   7  375.26   17.60
  -6  -5   7  339.77   16.00
  -6  -5   7  382.86   16.60
   5   5  -7  186.18    9.70
   5   5  -7  184.88   11.50
   5   5  -7  195.68   14.10
  -5  -5   7  196.48   11.40
  -5  -5   7  185.78   11.00
  -5  -5   7  190.88   12.50
   4   5  -7 1020.20   35.30
   4   5  -7 1055.29   39.50
   4   5  -7 1040.40   34.90
  -4  -5   7 1036.40   36.00
  -4  -5   7 1047.40   36.60
  -4  -5   7 1057.39   35.70
  -4  -5   7 1024.40   35.70
   3   5  -7    2.70    2.50
   3   5  -7    2.00    1.20
   3   5  -7   -1.00    3.50
   3   5  -7    1.20    4.40
  -3  -5   7    4.60    3.60
  -3  -5   7   -8.70    4.80
  -3  -5   7    1.40    3.90
  -3  -5   7    8.70    4.10
   2   5  -7  456.85   15.30
   2   5  -7  517.75   25.00
   2   5  -7  434.46   16.10
  -2  -5   7  429.76   20.30
  -2  -5   7  479.25   19.30
  -2  -5   7  459.25   14.90
   1   5  -7  125.29   10.20
   1   5  -7  114.99    6.50
   1   5  -7  123.59    9.30
  -1  -5   7  111.59    9.00
  -1  -5   7  118.59    9.00
   0   5  -7  777.42   26.00
   0   5  -7  735.83   28.10
   0   5  -7  760.82   29.20
   0  -5   7  796.12   29.20
   0  -5   7  800.42   28.50
   0  -5   7  758.62   28.90
   0  -5   7  808.82   26.20
  -1   5  -7    1.80    3.50
  -1   5  -7   -1.10    2.30
   1  -5   7   -3.30    3.40
   1  -5   7   -3.20    3.60
   1  -5   7  -11.30    5.70
  -2   5  -7  395.26   16.50
  -2   5  -7  402.06   17.10
  -2   5  -7  403.96   14.70
  -2   5  -7  370.16   17.00
   2  -5   7  420.86   17.00
   2  -5   7  372.66   16.80
  -3   5  -7  154.28    9.80
  -3   5  -7  142.59    9.70
  -3   5  -7  138.69    9.20
  -3   5  -7  157.38    8.30
   3  -5   7  161.28   11.60
   3  -5   7  164.58    9.40
   3  -5   7  160.48   11.50
  -4   5  -7  470.85   22.70
  -4   5  -7  502.45   19.50
  -4   5  -7  533.85   19.20
   4  -5   7  530.85   21.70
   4  -5   7  490.65   19.20
   4  -5   7  502.85   21.30
  -5   5  -7    9.00    4.30
  -5   5  -7   10.20    4.20
  -5   5  -7   11.70    4.30
   5  -5   7    7.80    5.90
   5  -5   7    6.60    5.80
  -6   5  -7  414.66   15.60
  -6   5  -7  421.46   20.10
  -6   5  -7  424.76   18.20
   6  -5   7  417.36   15.50
   6  -5   7  447.16   21.20
   6  -5   7  420.16   19.60
  -7   5  -7    2.80    3.80
  -7   5  -7   -5.10    6.40
   7  -5   7   -1.20    7.80
   7   4  -7  153.18   11.40
   7   4  -7  137.29   16.50
   7   4  -7  130.09   20.80
   7   4  -7  132.49    6.60
  -7  -4   7  115.49   12.80
  -7  -4   7  127.29   10.70
   6   4  -7   -0.30    4.00
   6   4  -7    1.40    3.90
   6   4  -7   -1.60    2.20
  -6  -4   7   -1.10    3.80
  -6  -4   7   -5.10    5.10
  -6  -4   7   -0.10    3.50
  -6  -4   7   -1.20    5.00
   5   4  -7   16.50    4.00
   5   4  -7   19.80    5.90
   5   4  -7   13.70    2.60
   5   4  -7    7.60    3.90
  -5  -4   7   15.70    5.00
  -5  -4   7   12.60    3.80
  -5  -4   7    8.20    4.30
  -5  -4   7   15.70    5.10
   4   4  -7  239.08   10.90
   4   4  -7  234.48   11.60
   4   4  -7  265.67   15.60
   4   4  -7  220.38   11.90
   4   4  -7  242.28   12.30
  -4  -4   7  247.58   12.70
  -4  -4   7  250.07   13.60
  -4  -4   7  244.48   11.20
  -4  -4   7  229.68   11.80
   3   4  -7   57.59    7.60
   3   4  -7   60.09    7.20
   3   4  -7   53.79    8.30
  -3  -4   7   48.00    6.90
  -3  -4   7   66.79    7.10
   2   4  -7  453.05   18.10
   2   4  -7  502.85   18.80
   2   4  -7  481.45   19.50
   2   4  -7  497.55   21.20
  -2  -4   7  493.65   20.50
  -2  -4   7  495.35   15.20
  -2  -4   7  475.55   19.40
   1   4  -7  307.17   14.00
   1   4  -7  306.37   12.30
   1   4  -7  323.87   15.80
  -1  -4   7  300.07   15.00
  -1  -4   7  319.57   11.80
  -1  -4   7  323.47   14.70
  -1  -4   7  310.47   15.00
   0   4  -7  411.46   17.20
   0   4  -7  408.86   15.90
   0   4  -7  420.36   18.30
   0  -4   7  439.66   18.10
   0  -4   7  435.06   15.90
   0  -4   7  400.36   17.60
   0  -4   7  413.76   17.40
  -1   4  -7  244.18   12.80
  -1   4  -7  239.08   11.40
  -1   4  -7  264.57   13.00
   1  -4   7  247.98   13.10
   1  -4   7  254.37   12.40
   1  -4   7  249.48   12.50
   1  -4   7  270.47   12.20
  -2   4  -7  685.03   24.70
  -2   4  -7  713.23   24.90
  -2   4  -7  649.14   24.70
   2  -4   7  668.13   24.40
   2  -4   7  659.13   25.00
   2  -4   7  702.93   25.10
  -3   4  -7  500.05   20.40
  -3   4  -7  528.35   19.40
  -3   4  -7  540.65   19.80
  -3   4  -7  552.44   21.20
   3  -4   7  566.94   21.50
   3  -4   7  483.45   21.00
  -4   4  -7   21.30    3.50
  -4   4  -7   18.80    4.00
  -4   4  -7   23.50    5.30
   4  -4   7   18.30    3.20
   4  -4   7   21.90    4.90
   4  -4   7   14.00    5.70
  -5   4  -7   35.90    8.20
  -5   4  -7   45.10    5.70
  -5   4  -7   48.80    7.20
   5  -4   7   33.30    4.00
   5  -4   7   58.69    9.20
   5  -4   7   53.69    8.60
   5  -4   7   38.80    6.10
   5  -4   7   43.10    7.10
  -6   4  -7   72.29    8.00
  -6   4  -7   93.59    9.10
  -6   4  -7   80.69    9.40
  -6   4  -7   94.59    9.10
   6  -4   7   95.69   11.20
   6  -4   7   99.49   10.50
   6  -4   7   84.49    9.90
  -7   4  -7   64.49    6.70
  -7   4  -7   62.99    8.10
  -7   4  -7   93.19    8.70
   7  -4   7   73.59   10.20
   7   3  -7  281.07   14.40
   7   3  -7  260.77   12.30
   7   3  -7  262.87   17.60
   7   3  -7  265.97   14.60
  -7  -3   7  268.17   13.70
   6   3  -7   66.09    5.70
   6   3  -7   83.09    7.30
   6   3  -7   73.89   10.30
   6   3  -7   58.49    8.10
   6   3  -7   63.59    7.70
  -6  -3   7   68.39    8.60
  -6  -3   7   72.89    7.40
  -6  -3   7   60.59    8.20
   5   3  -7   13.00    4.10
   5   3  -7   13.70    4.70
   5   3  -7    4.90    4.10
   5   3  -7    0.80    4.00
  -5  -3   7   19.00    4.40
  -5  -3   7    9.90    4.80
  -5  -3   7   16.50    3.00
  -5  -3   7    9.00    4.40
   4   3  -7  206.18   11.40
   4   3  -7  197.68   13.40
   4   3  -7  185.48    9.70
  -4  -3   7  204.38    8.50
  -4  -3   7  215.58   11.90
  -4  -3   7  205.58   10.10
  -4  -3   7  204.18   11.40
   3   3  -7  308.07   15.80
   3   3  -7  311.37   14.50
   3   3  -7  302.27   13.00
  -3  -3   7  301.77   14.20
  -3  -3   7  313.87   11.60
  -3  -3   7  322.87   12.70
   2   3  -7 1331.17   43.50
   2   3  -7 1309.27   45.10
   2   3  -7 1252.47   41.30
  -2  -3   7 1303.37   40.60
  -2  -3   7 1344.17   39.10
  -2  -3   7 1334.77   43.50
   1   3  -7  887.31   31.00
   1   3  -7  851.11   29.20
   1   3  -7  864.11   31.50
  -1  -3   7  913.01   28.00
  -1  -3   7  936.11   30.60
  -1  -3   7  823.22   30.80
  -1  -3   7  891.11   30.90
   0   3  -7  184.38   10.10
   0   3  -7  183.28   10.70
   0   3  -7  192.18    9.40
   0   3  -7  187.98   10.90
   0  -3   7  158.28    9.50
   0  -3   7  187.78   10.10
   0  -3   7  173.18   10.40
   0  -3   7  191.18    9.00
  -1   3  -7  172.28   11.00
  -1   3  -7  185.18   11.00
  -1   3  -7  177.38    9.60
  -1   3  -7  182.98   10.00
   1  -3   7  164.18    9.70
   1  -3   7  169.88   10.00
   1  -3   7  170.28   10.40
   1  -3   7  177.38    9.50
  -2   3  -7  281.97   12.30
  -2   3  -7  262.37   13.80
  -2   3  -7  291.27   13.40
  -2   3  -7  279.57   13.40
   2  -3   7  292.27   13.50
   2  -3   7  268.57   11.90
   2  -3   7  291.27   13.60
  -3   3  -7  349.87   15.70
  -3   3  -7  335.57   15.50
   3  -3   7  348.97   15.70
   3  -3   7  324.57   15.80
   3  -3   7  328.27   13.10
   3  -3   7  329.77   15.20
   3  -3   7  326.47   15.00
   3  -3   7  340.87   13.20
  -4   3  -7   -3.70    3.00
  -4   3  -7   -3.10    2.10
  -4   3  -7   -2.30    4.20
  -4   3  -7    3.50    3.90
   4  -3   7   -0.40    5.50
   4  -3   7   -3.10    3.40
   4  -3   7   -0.70    4.10
  -5   3  -7   24.70    5.10
  -5   3  -7   22.30    5.60
   5  -3   7   28.10    5.20
   5  -3   7   17.10    6.20
   5  -3   7   22.80    5.90
   5  -3   7   20.50    5.70
  -6   3  -7  209.48   13.90
  -6   3  -7  202.58   13.30
  -6   3  -7  189.68   11.70
  -6   3  -7  206.58   12.20
   6  -3   7  209.48   12.80
   6  -3   7  216.48   14.30
  -7   3  -7  386.76   19.40
  -7   3  -7  361.16   17.90
  -7   3  -7  411.36   18.70
  -7   3  -7  444.66   26.20
   7  -3   7  411.26   20.70
   7  -3   7  378.56   18.80
   7   2  -7 1017.60   34.80
   7   2  -7  930.01   31.50
   7   2  -7  961.30   38.90
   7   2  -7  974.60   33.90
  -7  -2   7  995.20   36.20
   6   2  -7   63.79    6.80
   6   2  -7   56.99    6.30
   6   2  -7   67.09    9.20
   6   2  -7   51.39    6.90
  -6  -2   7   63.79    8.10
   5   2  -7  687.53   23.70
   5   2  -7  736.23   26.60
   5   2  -7  722.53   29.30
   5   2  -7  701.73   26.10
  -5  -2   7  724.53   26.90
  -5  -2   7  702.43   24.30
  -5  -2   7  706.03   26.60
   4   2  -7  281.77   12.10
   4   2  -7  310.67   14.20
  -4  -2   7  290.37   14.10
  -4  -2   7  302.57   15.00
  -4  -2   7  297.77   12.00
   3   2  -7   24.70    4.10
   3   2  -7   39.40    5.30
   3   2  -7   32.80    5.90
  -3  -2   7   27.10    5.50
  -3  -2   7   27.00    4.80
  -3  -2   7   26.10    3.20
   2   2  -7  501.35   21.20
   2   2  -7  508.35   18.60
   2   2  -7  551.34   20.60
  -2  -2   7  521.25   18.90
  -2  -2   7  526.05   20.30
  -2  -2   7  522.15   16.80
  -2  -2   7  501.45   16.70
   1   2  -7   65.69    7.30
   1   2  -7   59.59    6.60
   1   2  -7   59.39    7.30
  -1  -2   7   63.19    6.90
  -1  -2   7   62.69    3.40
  -1  -2   7   59.59    5.30
  -1  -2   7   60.19    7.90
   0   2  -7  106.59    7.90
   0   2  -7  119.89    8.10
   0   2  -7  106.09    8.60
   0   2  -7   93.69    9.00
   0  -2   7  104.79    8.10
   0  -2   7  102.69    5.30
   0  -2   7  110.49    6.00
   0  -2   7  107.09    8.50
  -1   2  -7  226.18   12.40
  -1   2  -7  249.58   11.90
  -1   2  -7  247.18   12.00
  -1   2  -7  236.98   11.30
  -1   2  -7  235.48   11.90
   1  -2   7  224.58   11.80
   1  -2   7  231.58   10.40
   1  -2   7  262.57   12.20
   1  -2   7  239.68    8.40
  -2   2  -7  160.18   10.40
  -2   2  -7  164.48   10.00
  -2   2  -7  163.68   10.90
   2  -2   7  160.88    7.00
   2  -2   7  154.98   10.00
   2  -2   7  164.18   10.00
  -3   2  -7 1027.60   38.10
  -3   2  -7 1098.59   38.00
  -3   2  -7 1119.29   37.70
  -3   2  -7 1098.39   34.40
   3  -2   7 1094.49   37.10
   3  -2   7 1137.09   36.50
   3  -2   7 1085.89   37.00
   3  -2   7 1106.09   33.40
   3  -2   7 1065.59   34.40
  -4   2  -7  288.17   14.70
  -4   2  -7  273.47   15.30
   4  -2   7  267.27   13.00
   4  -2   7  263.37   10.00
   4  -2   7  242.58   13.70
   4  -2   7  278.17   15.30
   4  -2   7  274.67   11.90
  -5   2  -7  709.83   25.60
  -5   2  -7  734.33   28.10
  -5   2  -7  699.33   28.70
   5  -2   7  707.83   25.50
   5  -2   7  703.13   26.60
   5  -2   7  707.33   23.40
  -6   2  -7  182.08   13.50
  -6   2  -7  207.78   12.50
  -6   2  -7  190.78   14.30
  -6   2  -7  206.48   13.50
   6  -2   7  200.08   12.30
   6  -2   7  206.98   13.10
  -7   2  -7    4.70    4.40
  -7   2  -7   -5.40    5.70
  -7   2  -7    1.90    4.10
  -7   2  -7   -1.30    4.60
   7  -2   7    1.90    6.10
   7  -2   7    1.00    4.00
   7  -2   7    1.50    5.40
   8  -2   7    0.30    6.70
   7   1  -7  351.46   19.10
   7   1  -7  393.76   21.30
   7   1  -7  392.76   18.20
  -7  -1   7  399.96   18.70
   6   1  -7   33.70    4.80
   6   1  -7   27.70    6.60
   6   1  -7   21.30    5.80
   6   1  -7   17.90    4.60
  -6  -1   7   21.60    5.00
  -6  -1   7   27.70    6.70
   5   1  -7  888.51   33.40
   5   1  -7  777.72   26.20
   5   1  -7  825.02   30.10
  -5  -1   7  799.62   30.80
  -5  -1   7  866.31   30.20
   4   1  -7   48.10    4.60
   4   1  -7   37.30    5.50
   4   1  -7   47.40    7.00
  -4  -1   7   50.79    8.00
  -4  -1   7   39.90    5.60
   3   1  -7  365.96   17.30
   3   1  -7  341.37   13.10
   3   1  -7  342.27   15.60
  -3  -1   7  366.46   11.60
  -3  -1   7  343.17   15.10
  -3  -1   7  328.67   15.40
   2   1  -7  244.68   10.80
   2   1  -7  260.17   12.90
   2   1  -7  275.47   13.90
  -2  -1   7  238.78   12.10
  -2  -1   7  254.37    9.90
  -2  -1   7  253.07   11.50
  -2  -1   7  271.67   12.00
   1   1  -7 2356.76   71.49
   1   1  -7 2203.68   73.69
   1   1  -7 2416.86   73.09
   1   1  -7 2413.96   73.79
  -1  -1   7 2412.96   70.79
  -1  -1   7 2388.86   73.09
  -1  -1   7 2266.07   72.19
  -1  -1   7 2316.87   70.99
   0   1  -7  501.45   19.80
   0   1  -7  497.35   18.70
   0   1  -7  461.45   20.00
   0   1  -7  511.15   19.40
   0  -1   7  500.75   19.50
   0  -1   7  536.45   18.40
   0  -1   7  478.15   16.70
  -1   1  -7 2153.28   70.39
  -1   1  -7 2171.18   69.59
  -1   1  -7 2300.77   68.79
  -1   1  -7 2232.58   69.19
   1  -1   7 2309.17   68.19
   1  -1   7 2221.88   69.59
   1  -1   7 2224.08   67.89
  -2   1  -7   43.00    4.80
  -2   1  -7   33.80    6.50
  -2   1  -7   48.90    7.00
  -2   1  -7   45.60    5.50
   2  -1   7   43.80    6.00
   2  -1   7   44.70    3.70
   2  -1   7   44.30    5.30
   2  -1   7   44.90    6.60
  -3   1  -7   -6.30    4.40
  -3   1  -7   -0.40    1.70
  -3   1  -7   -2.00    3.70
  -3   1  -7   -0.10    4.80
   3  -1   7   -1.40    3.00
   3  -1   7   -3.80    2.40
   3  -1   7   -2.50    4.00
   3  -1   7   -0.40    3.60
  -4   1  -7   14.80    5.70
  -4   1  -7   15.80    4.40
   4  -1   7   20.40    4.40
   4  -1   7   13.90    5.20
   4  -1   7   11.80    4.30
  -5   1  -7  557.04   20.90
  -5   1  -7  562.54   23.60
  -5   1  -7  537.95   25.20
  -5   1  -7  575.04   22.80
   5  -1   7  554.14   23.00
   5  -1   7  573.34   22.00
   5  -1   7  576.14   22.80
   5  -1   7  570.04   21.20
  -6   1  -7   -1.80    5.80
  -6   1  -7    2.30    4.40
  -6   1  -7   -5.10    3.90
  -6   1  -7    4.20    5.10
   6  -1   7    5.00    3.80
   6  -1   7    4.00    5.00
   6  -1   7    0.00    5.00
  -7   1  -7   22.70    6.30
  -7   1  -7   21.50    5.60
  -7   1  -7   15.80    7.20
  -7   1  -7   22.50    5.50
   7  -1   7   23.70    5.80
   7  -1   7   19.60    6.20
   7  -1   7   34.00    5.80
   7  -1   7   19.10    5.90
   8  -1   7   26.90    6.90
   8   0  -7   83.19   15.60
   8   0  -7   76.59    8.60
   7   0  -7   62.49    8.30
   7   0  -7   53.19    8.70
   7   0  -7   42.70    6.80
  -7   0   7   39.60    6.80
  -7   0   7   68.49   10.20
   6   0  -7    4.70    4.50
   6   0  -7    1.10    3.20
  -6   0   7   -0.60    5.60
  -6   0   7   -5.10    3.60
  -6   0   7   -5.90    4.30
   5   0  -7  677.03   26.90
   5   0  -7  567.54   19.40
  -5   0   7  613.94   25.60
   4   0  -7  629.34   23.80
   4   0  -7  593.44   19.60
   4   0  -7  657.53   25.60
   4   0  -7  574.64   22.30
  -4   0   7  563.64   23.10
  -4   0   7  645.24   19.60
  -4   0   7  579.44   23.40
   3   0  -7  900.31   28.80
   3   0  -7  879.51   33.50
   3   0  -7  935.01   32.20
   3   0  -7  959.90   33.40
  -3   0   7  883.51   32.00
  -3   0   7  934.41   28.80
  -3   0   7  892.41   31.30
   2   0  -7   38.60    5.60
   2   0  -7   29.00    5.80
   2   0  -7   33.30    4.80
   2   0  -7   30.60    4.50
  -2   0   7   16.30    4.70
  -2   0   7   38.20    5.80
  -2   0   7   28.50    3.60
   1   0  -7  283.97   13.30
   1   0  -7  273.47   13.20
   1   0  -7  270.37   11.50
   1   0  -7  264.37   13.80
  -1   0   7  271.07   11.50
  -1   0   7  276.67   11.50
  -1   0   7  279.27   13.10
   0   0  -7 1492.35   49.60
   0   0  -7 1506.05   48.80
   0   0  -7 1547.75   48.70
   0   0  -7 1460.95   49.99
   0   0   7 1500.35   48.90
   0   0   7 1548.05   46.10
   0   0   7 1571.04   47.00
  -1   0  -7  540.95   20.40
  -1   0  -7  482.75   21.70
  -1   0  -7  512.15   19.80
  -1   0  -7  498.55   18.90
   1   0   7  535.95   19.80
   1   0   7  491.85   18.30
   1   0   7  551.84   19.00
  -2   0  -7  794.22   28.60
  -2   0  -7  716.93   29.70
  -2   0  -7  819.82   26.00
  -2   0  -7  783.32   27.70
   2   0   7  780.72   27.40
   2   0   7  807.12   27.20
   2   0   7  774.52   27.60
  -3   0  -7   82.79    4.70
  -3   0  -7   76.99    8.80
  -3   0  -7   69.99   10.40
  -3   0  -7   81.09   10.40
   3   0   7   82.69    7.50
   3   0   7   81.09    8.90
   3   0   7   76.19    8.50
   3   0   7   94.39    7.60
  -4   0  -7   40.80    6.10
  -4   0  -7   35.80    7.20
  -4   0  -7   55.09    9.10
  -4   0  -7   47.10    5.80
   4   0   7   50.59    6.40
   4   0   7   45.80    7.00
   4   0   7   43.00    8.40
   4   0   7   37.40    6.30
  -5   0  -7  682.73   29.80
  -5   0  -7  677.63   27.20
  -5   0  -7  679.93   23.70
   5   0   7  674.03   25.00
   5   0   7  665.13   26.30
   5   0   7  671.93   26.00
  -6   0  -7  300.87   13.10
  -6   0  -7  296.97   16.60
  -6   0  -7  259.27   15.00
  -6   0  -7  301.67   23.50
   6   0   7  266.47   13.70
   6   0   7  272.97   13.40
   6   0   7  265.67   15.40
   6   0   7  284.17   15.50
  -7   0  -7  135.09   12.40
  -7   0  -7  124.29    9.30
  -7   0  -7  150.08   16.20
  -7   0  -7  123.69   11.60
   7   0   7  134.89   12.00
   7   0   7  129.49   11.90
   7   0   7  132.49   11.40
   7   0   7  119.29   10.10
   7  -1  -7   45.70    7.90
   7  -1  -7   44.00    6.50
  -7   1   7   28.50    5.70
  -7   1   7   31.60    8.10
   6  -1  -7  134.29   12.20
   6  -1  -7  104.89   11.50
   6  -1  -7  130.39   10.10
  -6   1   7  102.29   11.10
  -6   1   7  131.99    9.60
   5  -1  -7  108.59    8.80
   5  -1  -7  113.29   10.00
  -5   1   7  125.29    9.00
  -5   1   7  104.89    6.50
   4  -1  -7  388.46   19.40
   4  -1  -7  437.76   17.30
   4  -1  -7  451.75   20.40
   4  -1  -7  442.96   18.90
  -4   1   7  450.35   15.80
  -4   1   7  419.96   18.50
  -4   1   7  458.35   17.80
   3  -1  -7   35.80    4.00
   3  -1  -7   30.70    6.00
   3  -1  -7   39.70    5.60
   3  -1  -7   32.90    4.40
   3  -1  -7   42.20    5.90
  -3   1   7   32.40    4.00
  -3   1   7   30.80    5.80
  -3   1   7   20.40    5.10
   2  -1  -7 1175.38   35.80
   2  -1  -7 1171.58   36.30
   2  -1  -7 1158.28   38.70
   2  -1  -7 1057.09   39.00
  -2   1   7 1158.88   36.50
  -2   1   7 1094.99   38.20
  -2   1   7 1132.09   35.00
   1  -1  -7    3.30    2.90
   1  -1  -7   -1.80    3.90
   1  -1  -7    1.90    3.10
  -1   1   7   -1.60    3.60
  -1   1   7   -0.60    3.70
   0  -1  -7 2640.04   85.99
   0  -1  -7 2736.23   83.49
   0  -1  -7 2786.72   84.29
   0   1   7 2808.52   82.19
   0   1   7 2702.43   84.19
   0   1   7 2723.63   83.39
  -1  -1  -7  710.43   30.10
  -1  -1  -7  827.82   27.10
  -1  -1  -7  803.12   28.10
  -1  -1  -7  783.32   28.10
   1   1   7  792.02   27.80
   1   1   7  782.02   29.10
   1   1   7  829.62   26.80
   1   1   7  784.62   27.70
   1   1   7  818.12   27.30
  -2  -1  -7 1382.66   45.70
  -2  -1  -7 1454.25   44.10
  -2  -1  -7 1261.37   48.50
   2   1   7 1375.46   45.30
   2   1   7 1401.56   45.60
   2   1   7 1568.54   51.29
   2   1   7 1405.86   47.30
  -3  -1  -7    9.80    2.30
  -3  -1  -7    4.70    5.20
  -3  -1  -7    7.40    2.20
  -3  -1  -7    6.70    4.70
   3   1   7    8.60    5.00
   3   1   7    7.70    4.70
   3   1   7    9.40    3.60
   3   1   7    6.80    4.00
  -4  -1  -7  790.02   34.10
   4   1   7  852.41   31.30
   4   1   7  840.62   30.90
   4   1   7  834.62   29.10
  -5  -1  -7    0.60    3.90
  -5  -1  -7   -0.80    2.90
   5   1   7   -0.80    4.90
   5   1   7   -5.70    3.60
  -6  -1  -7  601.04   21.60
  -6  -1  -7  583.04   29.90
  -6  -1  -7  625.34   26.20
  -6  -1  -7  625.74   25.70
   6   1   7  607.14   25.50
   6   1   7  599.64   22.90
   6   1   7  629.74   25.60
  -7  -1  -7   85.69   10.60
  -7  -1  -7   72.19   10.70
   7   1   7   82.19    8.00
   7   1   7   84.99   10.60
   7  -2  -7   42.90    6.00
   7  -2  -7   35.00    7.40
   7  -2  -7   31.40    6.30
  -7   2   7   29.30    8.10
   6  -2  -7 1266.87   39.20
   6  -2  -7 1310.17   45.50
   6  -2  -7 1251.67   43.00
   6  -2  -7 1101.39   42.20
   6  -2  -7 1207.78   39.90
   6  -2  -7 1186.98   43.70
  -6   2   7 1241.58   40.90
  -6   2   7 1133.99   43.20
  -6   2   7 1235.38   39.00
   5  -2  -7  676.03   26.10
   5  -2  -7  661.23   23.40
   5  -2  -7  636.04   24.50
  -5   2   7  673.53   27.20
  -5   2   7  693.63   24.60
  -5   2   7  619.24   26.30
  -5   2   7  700.13   23.50
   4  -2  -7  310.47   16.20
   4  -2  -7  333.27   13.90
   4  -2  -7  330.77   12.50
  -4   2   7  349.96   14.50
  -4   2   7  338.37   13.80
  -4   2   7  343.27   15.80
   3  -2  -7  537.45   18.90
   3  -2  -7  489.15   21.70
   3  -2  -7  528.85   21.00
   3  -2  -7  504.75   17.10
  -3   2   7  539.25   19.30
   2  -2  -7   13.60    3.00
   2  -2  -7   12.40    3.80
   2  -2  -7   10.40    1.80
   2  -2  -7    7.60    4.90
  -2   2   7    6.60    4.10
  -2   2   7   13.60    3.00
  -2   2   7   12.30    3.80
   1  -2  -7  872.01   26.40
   1  -2  -7  790.22   31.60
   1  -2  -7  872.31   26.70
   1  -2  -7  871.01   30.20
  -1   2   7  818.22   28.70
  -1   2   7  828.82   29.90
   0  -2  -7  199.68    7.40
   0  -2  -7  209.08    9.00
   0  -2  -7  182.78   13.20
   0  -2  -7  206.88   11.40
   0   2   7  185.48   11.20
   0   2   7  194.78   11.10
   0   2   7  191.28   10.10
  -1  -2  -7    3.10    3.10
  -1  -2  -7   -3.50    4.50
  -1  -2  -7    2.90    3.50
  -1  -2  -7   -1.60    1.70
   1   2   7    1.90    4.00
   1   2   7    5.80    5.40
   1   2   7   -2.10    3.70
   1   2   7   -3.30    3.50
  -2  -2  -7  936.01   39.20
  -2  -2  -7 1062.39   35.10
  -2  -2  -7 1078.89   35.50
  -2  -2  -7 1048.70   32.30
   2   2   7 1063.69   35.10
   2   2   7 1010.90   34.90
   2   2   7 1028.00   35.80
   2   2   7 1074.99   35.30
   2   2   7 1058.49   37.00
  -3  -2  -7   43.40    6.50
  -3  -2  -7   52.79    6.90
  -3  -2  -7   49.90    5.20
  -3  -2  -7   47.30    4.50
  -3  -2  -7   40.70    5.30
   3   2   7   48.70    6.50
   3   2   7   46.60    6.10
   3   2   7   56.59    8.30
   3   2   7   47.90    7.70
  -4  -2  -7 1030.30   37.30
  -4  -2  -7  955.30   29.80
  -4  -2  -7  992.20   32.50
  -4  -2  -7 1003.20   35.50
   4   2   7 1025.00   36.10
   4   2   7  966.10   33.50
  -5  -2  -7   20.40    5.50
  -5  -2  -7   11.70    5.30
  -5  -2  -7   -2.90    6.80
   5   2   7   12.80    5.70
   5   2   7    7.40    3.70
   5   2   7   12.50    5.40
   5   2   7    6.40    5.00
  -6  -2  -7  150.78   12.40
   6   2   7  115.79    8.30
   6   2   7  122.99   11.40
   6   2   7  137.09   11.70
  -7  -2  -7   99.19   12.00
   7   2   7   70.59    7.60
   7   2   7  100.89   11.00
   7  -3  -7    6.20    2.10
   7  -3  -7    8.10    4.70
   7  -3  -7   -1.00    4.10
   7  -3  -7    4.00    4.10
   7  -3  -7    8.60    4.60
  -7   3   7    4.20    4.50
  -7   3   7    3.00    4.40
  -7   3   7  -16.60   10.90
   6  -3  -7  223.48   14.40
   6  -3  -7  240.48   11.80
   6  -3  -7  229.48   14.00
   6  -3  -7  212.48    8.50
   6  -3  -7  254.57   13.90
   6  -3  -7  228.38   11.60
  -6   3   7  259.77   14.70
  -6   3   7  235.98   12.40
  -6   3   7  212.68   14.60
   5  -3  -7   31.70    5.30
   5  -3  -7   27.10    4.10
   5  -3  -7   23.20    5.60
   5  -3  -7   24.40    4.70
  -5   3   7   36.40    5.60
  -5   3   7   35.80    6.80
  -5   3   7   36.00    5.10
   4  -3  -7  117.29    7.00
   4  -3  -7  118.09   11.30
   4  -3  -7  130.59    8.00
   4  -3  -7  117.59    9.40
   4  -3  -7  110.49    4.80
  -4   3   7  125.69   10.30
  -4   3   7  124.29    8.00
  -4   3   7  124.59    8.90
   3  -3  -7  321.57   11.30
   3  -3  -7  328.27   12.10
   3  -3  -7  335.57   17.40
  -3   3   7  353.56   15.00
   2  -3  -7  842.52   25.90
   2  -3  -7  804.82   29.40
   2  -3  -7  763.72   31.00
   2  -3  -7  783.12   25.60
  -2   3   7  802.12   29.70
  -2   3   7  800.82   28.10
  -2   3   7  827.82   25.00
   1  -3  -7  845.62   30.20
   1  -3  -7  854.41   27.40
   1  -3  -7  760.82   32.30
  -1   3   7  842.02   30.30
  -1   3   7  834.02   29.60
  -1   3   7  886.11   28.70
   0  -3  -7  804.32   34.50
   0  -3  -7  864.01   29.50
   0  -3  -7  917.51   31.40
   0   3   7  908.41   31.50
   0   3   7  871.91   31.30
   0   3   7  893.51   33.10
   0   3   7  949.60   29.70
  -1  -3  -7  269.97   12.10
  -1  -3  -7  248.48   12.60
  -1  -3  -7  264.97   10.10
   1   3   7  236.88   12.30
   1   3   7  245.38   14.30
   1   3   7  244.68   12.20
   1   3   7  233.28   12.70
  -2  -3  -7   27.70    4.70
  -2  -3  -7   24.90    4.80
  -2  -3  -7   23.80    4.00
   2   3   7   23.20    4.10
   2   3   7   28.30    5.20
  -3  -3  -7  226.28   10.30
  -3  -3  -7  222.18   10.20
  -3  -3  -7  230.68   11.90
  -3  -3  -7  219.18   12.60
   3   3   7  212.38   11.10
   3   3   7  238.58   14.50
   3   3   7  219.08   14.00
  -4  -3  -7  213.98   13.70
  -4  -3  -7  209.98    9.00
  -4  -3  -7  217.48   10.80
   4   3   7  199.48   13.90
   4   3   7  214.48   13.10
   4   3   7  193.38   10.40
  -5  -3  -7  200.78   14.10
  -5  -3  -7  193.78   10.90
  -5  -3  -7  207.58   13.40
   5   3   7  197.68   13.70
   5   3   7  180.38   13.60
   5   3   7  166.98    9.80
  -6  -3  -7   -0.40    4.30
  -6  -3  -7    3.80    5.40
  -6  -3  -7    2.60    5.20
  -6  -3  -7    6.90    5.30
   6   3   7   12.70    6.00
   6   3   7    7.40    6.00
   6   3   7    5.70    3.60
   7  -4  -7   15.40    4.90
   7  -4  -7   17.70    5.90
  -7   4   7    2.10    5.40
  -7   4   7   15.60    5.10
  -7   4   7   19.50    8.80
   6  -4  -7  225.98   14.40
   6  -4  -7  231.58   12.10
   6  -4  -7  235.08   13.90
   6  -4  -7  211.58    9.30
  -6   4   7  213.78   15.10
  -6   4   7  201.48   13.20
   5  -4  -7  473.55   17.10
   5  -4  -7  516.95   20.90
   5  -4  -7  535.05   22.70
   5  -4  -7  472.75   25.60
   5  -4  -7  493.05   19.00
  -5   4   7  534.55   19.20
   4  -4  -7  140.69   10.60
   4  -4  -7  140.39   10.40
   4  -4  -7  129.29    7.90
  -4   4   7  132.79    8.00
  -4   4   7  144.59    9.90
   3  -4  -7    0.20    5.10
   3  -4  -7    9.20    3.30
   3  -4  -7    3.10    3.50
  -3   4   7   -6.70    4.10
  -3   4   7   -1.60    3.20
  -3   4   7   -4.50    4.60
   2  -4  -7   22.80    6.60
  -2   4   7   14.60    4.20
  -2   4   7   24.70    3.10
   1  -4  -7   10.50    6.30
   1  -4  -7   10.20    3.20
   1  -4  -7   14.30    4.40
  -1   4   7    9.20    3.50
  -1   4   7    7.40    3.80
  -1   4   7   10.10    7.00
   0  -4  -7   26.90    4.90
   0  -4  -7   33.20    4.70
   0   4   7   23.10    4.90
   0   4   7   28.70    4.60
  -1  -4  -7  412.06   17.30
  -1  -4  -7  389.76   16.60
  -1  -4  -7  392.96   16.80
   1   4   7  382.56   16.70
   1   4   7  368.16   19.10
   1   4   7  382.16   16.50
  -2  -4  -7  186.78   11.30
  -2  -4  -7  160.78    9.90
  -2  -4  -7  186.88   10.50
  -2  -4  -7  166.58    9.40
   2   4   7  178.38   11.40
   2   4   7  171.88    9.80
   2   4   7  165.18   12.70
  -3  -4  -7  373.46   21.00
  -3  -4  -7  358.36   15.70
  -3  -4  -7  349.96   15.50
  -3  -4  -7  350.96   15.10
   3   4   7  374.46   15.40
   3   4   7  361.96   19.00
   3   4   7  390.36   17.50
  -4  -4  -7   89.79    8.10
  -4  -4  -7   72.09    6.40
  -4  -4  -7   78.99    9.70
  -4  -4  -7   78.49    9.10
   4   4   7   72.99   10.30
   4   4   7   76.19    7.00
   4   4   7   88.29    9.50
  -5  -4  -7  533.35   23.60
  -5  -4  -7  461.65   16.30
  -5  -4  -7  493.15   20.30
  -5  -4  -7  485.65   22.70
   5   4   7  476.15   23.50
   5   4   7  529.65   22.80
   5   4   7  453.75   18.50
  -6  -4  -7   -3.60    3.90
  -6  -4  -7   -1.20    4.80
   6  -5  -7  130.39   12.40
   6  -5  -7  136.79   11.00
   6  -5  -7  163.98   11.60
  -6   5   7  159.78    9.40
   5  -5  -7   96.29   10.30
   5  -5  -7   74.79   10.90
   5  -5  -7   69.89    8.50
   5  -5  -7   97.89   10.20
  -5   5   7   81.99    7.00
   4  -5  -7    1.70    4.50
   4  -5  -7    0.80    3.40
   4  -5  -7   -4.00    5.90
  -4   5   7    3.00    3.40
  -4   5   7    1.70    5.50
   3  -5  -7 1022.50   40.40
   3  -5  -7 1097.69   37.80
   3  -5  -7  996.10   34.10
  -3   5   7 1074.59   33.10
  -3   5   7  997.20   36.90
   2  -5  -7  216.18   12.00
   2  -5  -7  197.18   15.00
   2  -5  -7  198.48   10.40
  -2   5   7  176.08   12.60
  -2   5   7  203.48   13.00
   1  -5  -7   89.39   12.00
   1  -5  -7  114.59    8.50
  -1   5   7  115.29    7.90
  -1   5   7  106.99   11.10
  -1   5   7   92.49    9.50
   0  -5  -7  145.19   14.30
   0  -5  -7  154.08   10.20
   0  -5  -7  159.48   10.70
   0   5   7  142.09   10.10
   0   5   7  166.48    9.70
   0   5   7  147.49   12.40
   0   5   7  151.18   11.40
  -1  -5  -7  739.73   26.70
  -1  -5  -7  729.53   27.50
  -1  -5  -7  733.83   27.90
   1   5   7  686.13   29.30
   1   5   7  739.13   26.70
   1   5   7  738.83   26.80
  -2  -5  -7   38.90    5.20
  -2  -5  -7   56.99    7.20
   2   5   7   31.90    5.20
   2   5   7   35.40    7.40
  -3  -5  -7   20.00    4.80
  -3  -5  -7   15.40    4.00
  -3  -5  -7    2.10    4.40
  -3  -5  -7   27.30    6.10
   3   5   7   12.50    6.40
   3   5   7   14.60    6.10
   3   5   7   11.60    3.80
  -4  -5  -7   -6.30    4.50
  -4  -5  -7   -7.10    4.50
  -4  -5  -7    9.80    5.50
   4   5   7    4.90    6.30
   4   5   7    9.30    5.40
  -5  -5  -7  294.87   15.30
  -5  -5  -7  301.77   17.20
  -5  -5  -7  281.17   17.30
   5  -6  -7   42.50    6.90
   4  -6  -7   61.29    9.10
   4  -6  -7   71.89    9.70
   3  -6  -7  232.88   12.10
   3  -6  -7  241.08   14.50
   3  -6  -7  244.08   14.60
   2  -6  -7   -0.30    3.30
   2  -6  -7    0.80    4.30
   1  -6  -7   56.19    7.80
   1  -6  -7   61.09    7.90
  -1   6   7   43.60    8.40
  -1   6   7   54.49    6.90
   0  -6  -7   66.99    8.20
   0  -6  -7   64.49    8.00
   0   6   7   80.09    8.00
  -1  -6  -7  340.17   15.00
  -1  -6  -7  336.97   17.40
  -1  -6  -7  312.47   18.40
   1   6   7  294.97   18.00
  -2  -6  -7  397.26   17.80
  -2  -6  -7  433.66   20.40
  -2  -6  -7  420.06   17.60
   2   6   7  447.66   19.90
   2   6   7  436.06   16.20
   2   6   7  405.66   21.70
  -3  -6  -7   35.00    6.10
  -3  -6  -7   42.00    6.20
  -3  -6  -7   50.39    8.00
  -3  -6  -7   41.50    6.20
   3   6   7   44.70    5.50
   3   6   7   36.70    7.70
   3   6   7   55.39   10.70
  -4  -6  -7   77.69    9.50
  -4  -6  -7   98.09    9.10
  -4  -6  -7   71.39    9.10
  -4  -6  -7   97.59   11.70
   4   6   7  108.29   12.70
   4   6   7   70.49   13.60
   4  -7  -7    4.40    5.20
   3  -7  -7  172.98   14.00
   3  -7  -7  216.28   14.20
   2  -7  -7  240.28   14.80
   2  -7  -7  257.17   19.20
  -2   7   7  240.98   10.90
   1  -7  -7  151.28   11.20
   1  -7  -7  161.78   11.40
  -1   7   7  136.49   13.50
  -1   7   7  160.28    9.90
   0  -7  -7   91.99    8.80
   0  -7  -7   81.79   10.00
   0   7   7   84.49   11.50
   0   7   7   95.59    9.30
  -1  -7  -7   67.89    9.70
   1   7   7   60.29   11.10
   1   7   7   77.49    9.40
   1   7   7   52.19    4.40
  -2  -7  -7  239.38   15.60
  -2  -7  -7  214.48   12.10
   2   7   7  270.87   15.50
   2   8  -8   21.90    7.20
   2   8  -8   22.80   10.10
   1   8  -8   48.30    9.30
   1   8  -8   31.40   10.80
  -1  -8   8   38.20    5.20
   0   8  -8    4.20    4.60
   0   8  -8    4.30    6.60
   0  -8   8   -1.10    4.30
  -1   8  -8  450.75   23.40
   1  -8   8  416.26   18.60
  -2   8  -8   85.99   11.90
  -2   8  -8   65.89    8.60
   2  -8   8   78.89    9.40
  -3   8  -8  217.38   13.90
  -3   8  -8  163.58   11.70
  -3   8  -8  205.78   13.60
   3  -8   8  213.28   13.70
   3  -8   8  244.78   19.30
   3   7  -8  219.98   10.80
  -3  -7   8  238.38   14.00
  -3  -7   8  226.98   17.30
  -3  -7   8  250.77   15.20
   2   7  -8  488.85   24.00
   1   7  -8  527.25   24.10
  -1  -7   8  537.55   19.30
   0   7  -8   -3.00    2.10
   0   7  -8    3.30    4.00
   0  -7   8   -6.30    3.70
  -1   7  -8   -5.80    2.40
  -1   7  -8   -4.40    4.00
   1  -7   8    1.80    4.30
  -2   7  -8   33.60    6.90
  -2   7  -8   43.40    6.60
   2  -7   8   47.20    8.20
   2  -7   8   46.00    6.40
  -3   7  -8   13.90    5.00
  -3   7  -8   -0.10    5.00
  -3   7  -8   17.90    4.40
  -3   7  -8    7.70    2.80
   3  -7   8    2.00    8.00
   3  -7   8    6.70    4.60
   3  -7   8   10.70    5.70
  -4   7  -8    4.20    5.00
  -4   7  -8   11.90    3.40
  -4   7  -8   17.90    4.80
   4  -7   8   14.40    4.70
   4  -7   8   13.70    6.10
   4   6  -8   -6.60    3.80
  -4  -6   8   -2.70    4.50
  -4  -6   8    0.10    4.10
  -4  -6   8    3.00    4.80
   3   6  -8  228.08    9.20
   3   6  -8  253.87   16.40
  -3  -6   8  242.88   13.20
  -3  -6   8  227.48   14.00
  -3  -6   8  242.48   13.20
   2   6  -8 1318.17   39.90
   2   6  -8 1413.56   48.40
   2   6  -8 1248.88   39.30
  -2  -6   8 1308.27   46.10
   1   6  -8  193.08   13.20
  -1  -6   8  215.28    9.70
  -1  -6   8  185.08   12.60
   0   6  -8  333.97   13.30
   0   6  -8  329.97   16.80
   0  -6   8  316.97   16.50
   0  -6   8  335.57   14.10
   0  -6   8  323.07   17.00
  -1   6  -8    6.90    2.80
  -1   6  -8    4.60    5.10
   1  -6   8    8.00    4.70
   1  -6   8   10.70    6.20
   1  -6   8    4.90    4.40
  -2   6  -8   67.99    6.80
  -2   6  -8   47.80    8.40
  -2   6  -8   57.89    5.10
  -2   6  -8   54.79    7.80
   2  -6   8   36.50    7.70
   2  -6   8   61.59    8.30
   2  -6   8   54.59    7.80
  -3   6  -8    0.50    2.80
  -3   6  -8   -0.70    3.50
  -3   6  -8   -5.60    4.20
   3  -6   8   -2.90    4.80
   3  -6   8    2.40    6.30
   3  -6   8    5.20    4.10
  -4   6  -8  638.94   24.60
  -4   6  -8  553.74   23.20
  -4   6  -8  611.64   21.90
  -4   6  -8  572.14   22.80
   4  -6   8  621.74   25.00
   4  -6   8  587.14   25.00
   4  -6   8  577.44   22.90
  -5   6  -8   -3.30    3.40
  -5   6  -8   -3.10    3.80
   5  -6   8   -6.90    6.00
   5  -6   8   -0.80    6.80
   5  -6   8   -8.80    3.70
   5   5  -8   26.00    8.20
   5   5  -8   18.90    4.20
  -5  -5   8   35.70    6.50
  -5  -5   8   20.90    4.30
  -5  -5   8   22.80    6.20
  -5  -5   8   17.60    6.80
   4   5  -8  130.89    7.80
   4   5  -8  135.49   12.70
   4   5  -8  123.59    5.10
  -4  -5   8  135.99    8.60
  -4  -5   8  128.69   10.70
  -4  -5   8  140.09    9.80
   3   5  -8  142.79   11.30
   3   5  -8  166.28   12.40
   3   5  -8  162.98    7.00
  -3  -5   8  155.68    9.60
  -3  -5   8  165.18    9.40
   2   5  -8  357.26   16.20
   2   5  -8  382.16   19.00
   1   5  -8   52.59    5.30
   1   5  -8   54.59    8.60
   1   5  -8   56.19    8.20
  -1  -5   8   50.59    7.90
   0   5  -8  697.03   24.20
   0   5  -8  703.53   27.50
   0   5  -8  674.33   25.80
   0  -5   8  630.04   29.00
   0  -5   8  712.23   24.10
   0  -5   8  724.43   27.70
  -1   5  -8    8.50    5.00
  -1   5  -8   18.40    6.00
  -1   5  -8   29.50    4.60
  -1   5  -8   24.30    5.00
   1  -5   8   17.20    6.20
   1  -5   8   25.10    5.40
   1  -5   8   20.40    4.70
   1  -5   8   23.20    5.00
  -2   5  -8    0.10    3.30
  -2   5  -8    5.80    2.90
  -2   5  -8   -3.20    4.80
  -2   5  -8   -2.50    2.90
   2  -5   8    6.90    4.50
   2  -5   8    7.70    4.60
   2  -5   8    0.00    6.50
   2  -5   8   -3.10    3.10
  -3   5  -8   27.40    4.70
  -3   5  -8   25.70    5.60
  -3   5  -8   32.30    4.40
  -3   5  -8   32.20    5.50
   3  -5   8   27.40    6.60
   3  -5   8   32.30    5.00
  -4   5  -8  557.84   21.00
  -4   5  -8  568.04   23.20
  -4   5  -8  537.25   20.80
  -4   5  -8  511.95   22.40
   4  -5   8  573.34   23.60
   4  -5   8  546.45   20.70
   4  -5   8  549.35   23.30
  -5   5  -8  396.56   18.80
  -5   5  -8  342.67   24.00
  -5   5  -8  368.36   16.60
   5  -5   8  374.76   18.80
   5  -5   8  403.96   19.80
  -6   5  -8  483.65   22.60
  -6   5  -8  484.85   20.30
   6   4  -8  150.78   10.90
   6   4  -8  177.38   11.00
   6   4  -8  159.68   12.80
   6   4  -8  135.99    8.60
  -6  -4   8  175.68   10.80
  -6  -4   8  160.08   11.60
   5   4  -8  750.62   31.80
   5   4  -8  711.93   26.50
   5   4  -8  752.02   28.00
   5   4  -8  723.83   24.30
   5   4  -8  706.23   26.60
  -5  -4   8  761.02   29.00
  -5  -4   8  721.83   30.60
  -5  -4   8  754.62   26.50
   4   4  -8  762.02   31.80
   4   4  -8  745.23   25.70
   4   4  -8  734.53   30.80
  -4  -4   8  689.33   27.60
  -4  -4   8  724.43   25.70
   3   4  -8  437.86   19.50
   3   4  -8  453.55   21.60
   3   4  -8  446.76   17.60
  -3  -4   8  465.85   17.10
  -3  -4   8  416.26   16.50
   2   4  -8  220.88   10.20
   2   4  -8  230.08   14.60
   2   4  -8  212.78   11.40
   2   4  -8  231.28   12.70
  -2  -4   8  225.28    7.80
  -2  -4   8  218.98   10.20
  -2  -4   8  221.28   13.60
   1   4  -8   -1.10    3.20
   1   4  -8   -5.60    4.40
   1   4  -8   -2.40    2.60
  -1  -4   8   -9.00    5.00
  -1  -4   8   -0.60    4.10
   0   4  -8   20.70    5.40
   0   4  -8   28.60    5.00
   0   4  -8   23.40    4.30
   0  -4   8   33.20    5.30
   0  -4   8   25.30    6.90
   0  -4   8   30.60    4.70
  -1   4  -8  784.12   27.80
  -1   4  -8  688.33   29.10
  -1   4  -8  760.92   28.60
   1  -4   8  793.22   28.50
   1  -4   8  851.51   30.90
   1  -4   8  824.12   27.80
  -2   4  -8  216.08   12.10
  -2   4  -8  184.18   11.80
  -2   4  -8  222.58   13.50
  -2   4  -8  208.38   11.20
   2  -4   8  200.68   14.50
   2  -4   8  209.98   11.00
   2  -4   8  214.78   11.70
  -3   4  -8   22.70    8.40
  -3   4  -8   24.70    4.30
  -3   4  -8   11.40    5.30
  -3   4  -8   19.40    4.90
   3  -4   8   18.40    6.10
   3  -4   8   17.80    3.80
   3  -4   8   20.30    5.10
   3  -4   8   16.40    6.00
  -4   4  -8  507.95   19.90
  -4   4  -8  441.36   20.80
  -4   4  -8  521.75   21.70
  -4   4  -8  497.45   18.30
   4  -4   8  491.65   18.90
   4  -4   8  503.85   21.70
   4  -4   8  502.85   21.10
  -5   4  -8  601.94   23.80
  -5   4  -8  572.14   25.10
  -5   4  -8  623.34   25.60
   5  -4   8  578.24   22.90
   5  -4   8  623.84   24.70
   5  -4   8  639.14   25.90
  -6   4  -8  198.18   12.20
  -6   4  -8  177.88   12.70
  -6   4  -8  213.88   13.50
  -6   4  -8  168.18   12.70
   6  -4   8  188.78   15.20
   6  -4   8  230.78   15.30
   6  -4   8  208.28   13.90
   6   3  -8  239.38   11.80
   6   3  -8  266.87   13.70
   6   3  -8  227.68   11.60
   6   3  -8  265.47   17.40
  -6  -3   8  249.08   14.60
  -6  -3   8  230.08   17.00
   5   3  -8   72.69    8.20
   5   3  -8   70.99    9.20
   5   3  -8   59.79    7.20
  -5  -3   8   69.29   10.30
  -5  -3   8   82.39    9.90
  -5  -3   8   72.29    6.70
   4   3  -8  220.28   11.10
   4   3  -8  237.68   15.20
  -4  -3   8  237.48   10.40
   3   3  -8  399.46   19.00
   3   3  -8  389.16   17.50
   3   3  -8  386.06   15.40
  -3  -3   8  367.76   12.30
   2   3  -8  505.05   19.30
   2   3  -8  510.65   22.40
   2   3  -8  524.35   21.20
  -2  -3   8  520.55   16.50
  -2  -3   8  508.55   16.90
  -2  -3   8  512.65   17.20
  -2  -3   8  515.95   16.60
   1   3  -8  286.77   14.00
   1   3  -8  251.87   12.50
   1   3  -8  263.07   13.70
  -1  -3   8  259.37   14.30
  -1  -3   8  258.97    9.60
  -1  -3   8  233.48   13.00
   0   3  -8  667.43   24.70
   0   3  -8  686.93   24.40
   0   3  -8  666.93   25.60
   0   3  -8  687.53   25.70
   0   3  -8  604.04   26.20
   0  -3   8  670.13   24.60
   0  -3   8  693.53   23.40
  -1   3  -8 1242.28   40.90
  -1   3  -8 1112.39   41.00
  -1   3  -8 1235.38   40.90
  -1   3  -8 1230.48   40.50
   1  -3   8 1290.67   40.40
   1  -3   8 1178.48   41.00
  -2   3  -8    2.00    3.60
  -2   3  -8   -0.50    5.30
  -2   3  -8   -1.30    4.70
  -2   3  -8    1.80    2.90
   2  -3   8    3.00    5.00
   2  -3   8    4.10    2.50
   2  -3   8    4.20    3.90
  -3   3  -8  555.94   21.90
  -3   3  -8  495.85   22.50
  -3   3  -8  551.34   19.70
  -3   3  -8  541.35   23.60
   3  -3   8  567.54   24.10
   3  -3   8  540.65   21.80
   3  -3   8  534.95   21.60
   3  -3   8  511.65   19.20
  -4   3  -8  237.98   13.90
  -4   3  -8  208.18   14.10
  -4   3  -8  247.18   13.00
  -4   3  -8  242.28   10.00
   4  -3   8  250.27   13.90
   4  -3   8  254.97   14.50
   4  -3   8  248.18   13.70
   4  -3   8  230.68   11.20
  -5   3  -8   85.69   10.60
  -5   3  -8   99.49    9.10
  -5   3  -8  119.19    9.90
   5  -3   8  120.69   11.60
   5  -3   8  125.09   10.70
   5  -3   8   97.39    8.40
  -6   3  -8   19.30    5.30
  -6   3  -8   30.80    6.00
  -6   3  -8   40.90    6.80
  -6   3  -8   19.10    7.00
   6  -3   8   30.00    7.30
   6  -3   8   29.30    6.50
  -7   3  -8  213.58   14.60
  -7   3  -8  218.48   14.30
  -7   3  -8  217.48   13.60
   7   2  -8  346.07   14.30
   7   2  -8  420.76   25.80
   7   2  -8  398.96   17.90
  -7  -2   8  323.97   25.70
   6   2  -8    7.10    3.80
   6   2  -8   13.10    4.60
   6   2  -8    5.60    4.90
  -6  -2   8   22.00    5.80
   5   2  -8   97.49    7.40
   5   2  -8  133.49   12.20
   5   2  -8  135.59   10.10
  -5  -2   8  120.89   10.00
  -5  -2   8  117.89   10.00
   4   2  -8  264.67   11.50
   4   2  -8  299.37   16.00
  -4  -2   8  264.27   14.30
   3   2  -8  598.44   22.90
   3   2  -8  569.24   20.30
  -3  -2   8  552.04   21.70
   2   2  -8   81.59    8.80
   2   2  -8   68.89    7.90
   2   2  -8   71.89    7.10
  -2  -2   8   75.09    4.90
  -2  -2   8   69.59    7.00
  -2  -2   8   59.49    7.40
  -2  -2   8   65.19    8.50
   1   2  -8   19.60    4.90
   1   2  -8   14.20    4.60
   1   2  -8   17.00    4.70
  -1  -2   8   15.40    5.40
  -1  -2   8   21.20    2.70
  -1  -2   8    6.90    4.20
  -1  -2   8   21.10    3.90
   0   2  -8   92.89    8.00
   0   2  -8   93.79    8.70
   0   2  -8   98.59    8.10
   0   2  -8   79.89    8.60
   0  -2   8   92.49    5.60
   0  -2   8   96.79    8.10
   0  -2   8   91.39    5.30
  -1   2  -8  946.21   32.10
  -1   2  -8  903.51   32.20
  -1   2  -8  826.52   32.30
  -1   2  -8  914.11   31.70
  -1   2  -8  952.80   31.60
   1  -2   8  871.71   27.40
   1  -2   8  875.01   29.80
   1  -2   8  989.60   31.20
  -2   2  -8   10.20    5.30
  -2   2  -8   10.80    3.40
  -2   2  -8   10.40    4.40
  -2   2  -8    6.80    4.60
   2  -2   8   11.50    4.60
   2  -2   8   14.50    4.80
   2  -2   8   12.70    2.50
   2  -2   8   11.00    3.70
  -3   2  -8 1772.12   61.69
  -3   2  -8 1941.01   60.99
  -3   2  -8 1814.92   57.39
   3  -2   8 1927.91   60.39
   3  -2   8 1897.91   56.89
  -4   2  -8   48.80    9.50
  -4   2  -8   65.99    7.90
  -4   2  -8   58.19    3.70
  -4   2  -8   79.99   10.10
   4  -2   8   60.79    6.30
   4  -2   8   69.49    4.30
   4  -2   8   62.89    7.10
   4  -2   8   61.29    9.60
   4  -2   8   49.20    7.60
  -5   2  -8   50.69    6.70
  -5   2  -8   51.09    8.60
  -5   2  -8   45.50    6.50
  -5   2  -8   65.89    9.60
   5  -2   8   57.39    8.70
   5  -2   8   69.79    8.30
   5  -2   8   57.69    6.60
   5  -2   8   59.99    8.80
   5  -2   8   57.89    4.80
  -6   2  -8   83.49    8.40
  -6   2  -8   76.19   11.40
  -6   2  -8  107.19   11.10
  -6   2  -8   98.59    9.60
   6  -2   8   92.69   10.20
  -7   2  -8   37.60    9.10
  -7   2  -8   31.40    8.10
  -7   2  -8   42.10    6.30
   7  -2   8   34.70    5.30
   7   1  -8  423.26   19.00
   7   1  -8  371.46   14.20
   7   1  -8  392.26   21.90
   6   1  -8   96.59    6.50
   6   1  -8  109.49    9.80
   6   1  -8  118.39   11.40
  -6  -1   8  113.29   10.10
  -6  -1   8  106.29   10.90
   5   1  -8   54.49    8.40
   5   1  -8   47.30    5.30
   5   1  -8   56.79    8.40
  -5  -1   8   41.10    6.50
  -5  -1   8   64.39    8.20
   4   1  -8   28.60    6.30
   4   1  -8   26.20    3.90
  -4  -1   8   22.60    6.20
   3   1  -8   72.79    7.40
   3   1  -8   91.69    9.10
   3   1  -8   90.99    8.00
  -3  -1   8   81.49    8.00
  -3  -1   8   93.99    5.00
   2   1  -8  549.65   21.70
   2   1  -8  536.15   21.00
   2   1  -8  565.24   22.90
  -2  -1   8  518.85   19.80
  -2  -1   8  517.25   21.60
  -2  -1   8  543.45   18.40
  -2  -1   8  521.45   19.90
   1   1  -8 1377.56   46.10
   1   1  -8 1350.06   44.10
   1   1  -8 1372.16   46.40
  -1  -1   8 1396.86   43.80
  -1  -1   8 1420.86   43.60
  -1  -1   8 1401.16   43.60
   0   1  -8    0.60    3.00
   0   1  -8   -1.60    4.40
   0   1  -8   -1.80    3.30
   0   1  -8   -2.10    3.20
   0  -1   8   -2.70    2.00
   0  -1   8    1.90    3.00
   0  -1   8   -1.60    4.10
  -1   1  -8   26.50    5.50
  -1   1  -8   29.00    4.70
  -1   1  -8   31.90    5.50
  -1   1  -8   27.50    6.00
   1  -1   8   24.60    5.10
   1  -1   8   25.40    3.90
   1  -1   8   33.20    5.50
  -2   1  -8    4.70    2.80
  -2   1  -8    2.10    3.90
  -2   1  -8    2.70    5.00
  -2   1  -8    5.60    4.60
   2  -1   8    2.00    3.00
   2  -1   8    2.30    3.40
   2  -1   8    2.90    4.10
  -3   1  -8  291.57   11.50
  -3   1  -8  259.67   16.80
  -3   1  -8  313.07   18.40
   3  -1   8  299.67   14.70
   3  -1   8  305.97   14.20
   3  -1   8  325.07   16.30
  -4   1  -8  715.93   32.90
  -4   1  -8  877.51   32.50
  -4   1  -8  848.42   31.50
   4  -1   8  800.22   30.50
   4  -1   8  861.21   30.00
  -5   1  -8  243.88   17.80
  -5   1  -8  265.77   12.60
  -5   1  -8  266.37   15.60
   5  -1   8  257.47   15.10
   5  -1   8  264.07   12.30
   5  -1   8  264.57   14.80
   5  -1   8  252.17   13.80
  -6   1  -8    5.70    4.20
  -6   1  -8    1.40    4.40
  -6   1  -8   12.60    5.70
   6  -1   8   12.30    4.20
   6  -1   8    7.80    5.70
  -7   1  -8   -0.50    4.60
  -7   1  -8  -13.10    7.10
   7  -1   8    7.80    4.90
   7   0  -8    9.00    4.80
  -7   0   8   19.30    6.90
  -7   0   8    3.10    5.90
   6   0  -8 1230.58   44.20
   6   0  -8 1120.59   40.60
  -6   0   8 1140.19   40.00
  -6   0   8 1079.39   41.60
   5   0  -8  588.14   18.20
   5   0  -8  561.74   23.50
   5   0  -8  590.04   25.80
   5   0  -8  553.84   22.40
  -5   0   8  540.15   22.40
  -5   0   8  549.74   23.90
   4   0  -8   28.40    7.20
   4   0  -8   34.20    4.60
   4   0  -8   30.40    4.80
   4   0  -8   41.00    6.90
   4   0  -8   41.50    6.20
  -4   0   8   36.70    6.10
  -4   0   8   39.20    4.20
   3   0  -8   75.59    5.70
   3   0  -8   69.79    8.10
  -3   0   8   77.39    5.80
  -3   0   8   74.69    7.40
   2   0  -8    4.10    3.30
   2   0  -8    2.90    3.20
   2   0  -8    2.70    3.30
  -2   0   8    3.40    4.00
  -2   0   8   -1.90    3.80
  -2   0   8    2.30    2.90
   1   0  -8  255.77   13.50
   1   0  -8  257.57   13.30
   1   0  -8  279.47   17.10
  -1   0   8  252.37   13.30
  -1   0   8  250.47   11.50
   0   0  -8 1935.41   60.19
   0   0  -8 1888.71   59.39
   0   0  -8 1836.22   60.39
   0   0   8 1813.22   60.29
   0   0   8 1826.92   58.89
   0   0   8 2011.00   58.29
  -1   0  -8    2.60    4.90
  -1   0  -8    6.20    3.10
  -1   0  -8   10.50    4.40
  -1   0  -8   -2.40    3.70
   1   0   8    4.40    4.00
   1   0   8    6.00    3.80
   1   0   8    4.50    3.20
  -2   0  -8   34.10    6.70
  -2   0  -8   48.20    7.00
  -2   0  -8   50.09    5.30
  -2   0  -8   45.70    5.90
  -2   0  -8   46.00    6.50
   2   0   8   51.99    6.40
   2   0   8   39.30    5.60
   2   0   8   47.80    7.00
  -3   0  -8   51.49    4.30
  -3   0  -8   46.10    9.20
  -3   0  -8   47.30    8.60
   3   0   8   47.10    6.70
   3   0   8   42.50    5.60
   3   0   8   50.79    7.60
  -4   0  -8 1156.68   38.60
  -4   0  -8 1282.87   43.80
   4   0   8 1233.58   43.30
   4   0   8 1185.78   42.40
   4   0   8 1265.87   41.80
   4   0   8 1199.68   41.20
  -5   0  -8   24.00    5.80
  -5   0  -8   32.80    4.70
   5   0   8   34.10    6.80
   5   0   8   29.20    6.60
  -6   0  -8   95.79   13.50
  -6   0  -8  100.89   10.50
  -6   0  -8  105.49    8.40
  -6   0  -8  121.99   11.20
   6   0   8  116.49   11.60
   6   0   8  117.69    8.80
   6   0   8   85.69    8.80
   6   0   8  112.09   11.00
  -7   0  -8   14.50    9.20
   7   0   8    2.50    5.80
   7   0   8   16.50    6.00
   7  -1  -8  129.79   11.20
  -7   1   8  130.59   15.40
  -7   1   8  102.69   10.30
   6  -1  -8  375.86   20.30
   6  -1  -8  342.47   17.70
  -6   1   8  321.47   18.50
  -6   1   8  371.86   16.70
   5  -1  -8  151.08   12.40
   5  -1  -8  140.09   11.30
  -5   1   8  139.29    7.60
  -5   1   8  144.59   10.00
  -5   1   8  146.89   12.10
   4  -1  -8  277.37   15.70
   4  -1  -8  280.77   14.80
   4  -1  -8  256.57   12.40
   4  -1  -8  237.08   14.90
  -4   1   8  262.47   17.10
  -4   1   8  276.57   11.20
  -4   1   8  253.07   14.00
   3  -1  -8  156.78    8.80
  -3   1   8  168.98   10.20
   2  -1  -8   69.99    8.00
   2  -1  -8   57.59    7.00
   2  -1  -8   58.39    5.50
   2  -1  -8   64.79    6.20
   2  -1  -8   62.99    9.00
  -2   1   8   55.59    6.40
   1  -1  -8  302.87   14.50
   1  -1  -8  320.37   13.40
   1  -1  -8  317.57   15.20
  -1   1   8  333.57   12.70
  -1   1   8  297.27   13.60
  -1   1   8  279.27   14.80
   0  -1  -8  806.12   29.90
   0  -1  -8  867.11   29.70
   0  -1  -8  826.12   29.10
   0   1   8  833.02   27.60
   0   1   8  822.32   30.10
   0   1   8  832.72   29.00
  -1  -1  -8  354.46   16.50
  -1  -1  -8  353.26   14.90
  -1  -1  -8  356.26   16.10
   1   1   8  354.36   16.00
   1   1   8  356.26   16.00
   1   1   8  346.87   14.70
   1   1   8  361.36   14.20
  -2  -1  -8   34.20    4.80
  -2  -1  -8   33.30    5.50
   2   1   8   28.00    5.10
   2   1   8   36.10    5.60
   2   1   8   43.70    5.50
   2   1   8   34.90    6.60
  -3  -1  -8    9.80    2.50
  -3  -1  -8   10.80    4.80
  -3  -1  -8    5.10    2.40
   3   1   8    8.40    4.10
   3   1   8    0.90    3.80
  -4  -1  -8  734.33   28.90
   4   1   8  755.22   27.20
   4   1   8  747.63   28.20
   4   1   8  703.33   28.60
  -5  -1  -8   68.49   10.20
  -5  -1  -8   71.39    5.80
   5   1   8   61.09    7.80
   5   1   8   71.29    9.80
   5   1   8   67.69    9.70
  -6  -1  -8  747.43   24.70
  -6  -1  -8  709.93   30.50
   6   1   8  751.62   29.40
   6   1   8  673.43   29.20
   7  -2  -8   -2.70    5.30
  -7   2   8   11.10    5.60
   6  -2  -8   88.19    7.80
   6  -2  -8  108.49   11.10
   6  -2  -8  102.59    9.50
  -6   2   8   97.39   11.90
  -6   2   8  105.89    9.20
  -6   2   8   83.09    7.40
   5  -2  -8  134.19   11.90
   5  -2  -8  123.59   10.60
  -5   2   8   99.99   11.40
  -5   2   8  117.49    8.10
  -5   2   8  114.29    8.80
   4  -2  -8  168.88    9.40
   4  -2  -8  169.18   11.90
   4  -2  -8  149.49   12.30
   4  -2  -8  166.58    7.60
  -4   2   8  173.68   11.40
  -4   2   8  180.28   10.00
  -4   2   8  173.28    9.50
   3  -2  -8   35.20    8.30
   3  -2  -8   47.10    5.50
   3  -2  -8   36.50    6.10
  -3   2   8   36.50    5.80
  -3   2   8   36.90    5.20
   2  -2  -8  227.18   10.00
  -2   2   8  238.18   10.70
  -2   2   8  225.18   11.80
   1  -2  -8   13.10    4.50
   1  -2  -8   15.10    2.70
  -1   2   8    9.00    3.80
  -1   2   8    9.50    3.50
  -1   2   8   14.70    4.70
   0  -2  -8  331.57   15.90
   0  -2  -8  348.17   11.60
   0   2   8  343.87   14.30
   0   2   8  330.57   15.90
   0   2   8  346.57   15.20
  -1  -2  -8  998.20   34.90
  -1  -2  -8 1009.40   33.10
   1   2   8 1039.10   34.10
   1   2   8  984.50   35.00
  -2  -2  -8  380.26   16.70
  -2  -2  -8  392.66   15.80
   2   2   8  337.97   21.40
   2   2   8  392.36   17.00
   2   2   8  369.36   16.60
  -3  -2  -8   38.30    5.70
  -3  -2  -8   31.90    5.50
  -3  -2  -8   56.19    7.60
  -3  -2  -8   40.40    4.80
  -3  -2  -8   26.50    8.10
   3   2   8   38.70    6.10
   3   2   8   45.30    8.70
   3   2   8   42.50    6.70
   3   2   8   43.90    6.40
  -4  -2  -8   21.20    6.20
  -4  -2  -8   26.70    2.90
   4   2   8   25.20    6.70
   4   2   8   13.80    4.30
   4   2   8   28.40    6.30
  -5  -2  -8   37.10    7.20
   5   2   8   34.30    5.80
   5   2   8   47.80    9.50
   5   2   8   62.59    9.30
  -6  -2  -8  161.38   13.60
   6   2   8  153.28   10.20
   6   2   8  154.08   13.00
   6  -3  -8   11.30    6.20
   6  -3  -8   10.20    4.00
   6  -3  -8   25.40    6.10
  -6   3   8   18.70    5.30
  -6   3   8   10.00    4.70
  -6   3   8   21.70    7.20
   5  -3  -8  131.29    8.20
   5  -3  -8  158.08   11.20
  -5   3   8  134.19   11.60
  -5   3   8  136.59    9.60
   4  -3  -8   10.70    6.90
   4  -3  -8   23.00    5.50
   4  -3  -8   12.30    3.60
   4  -3  -8   14.50    3.00
  -4   3   8   15.90    5.40
  -4   3   8   14.30    4.80
  -4   3   8   10.50    4.20
   3  -3  -8  345.37   16.50
   3  -3  -8  336.87   13.20
   3  -3  -8  331.97   11.70
   3  -3  -8  301.77   17.90
  -3   3   8  338.47   14.90
   2  -3  -8 1045.80   32.00
   2  -3  -8 1115.49   38.00
   2  -3  -8 1013.40   32.30
   2  -3  -8 1083.29   33.40
   2  -3  -8 1007.80   39.70
  -2   3   8 1106.09   32.90
  -2   3   8 1075.99   36.30
  -2   3   8 1064.59   37.80
   1  -3  -8   35.20    4.00
   1  -3  -8   24.30    7.00
  -1   3   8   28.30    5.70
  -1   3   8   35.10    5.50
   0  -3  -8   16.00    3.30
   0  -3  -8    1.10    5.80
   0  -3  -8    9.80    3.40
   0  -3  -8   10.10    1.90
   0   3   8    9.90    3.90
   0   3   8   13.80    4.20
  -1  -3  -8  244.98    9.40
  -1  -3  -8  271.47   13.50
  -1  -3  -8  262.17   12.20
   1   3   8  263.47   13.20
   1   3   8  267.97   13.50
   1   3   8  236.78   15.50
  -2  -3  -8   16.10    4.40
  -2  -3  -8   14.80    4.30
  -2  -3  -8   14.80    4.00
   2   3   8   19.60    4.80
   2   3   8   16.60    5.10
   2   3   8    8.00    5.70
   2   3   8   14.60    4.40
  -3  -3  -8  139.29    9.70
  -3  -3  -8  155.38   10.70
  -3  -3  -8  147.89    8.00
  -3  -3  -8  141.49    8.10
   3   3   8  161.38   11.00
   3   3   8  135.29   12.20
   3   3   8  132.09    9.20
  -4  -3  -8   25.30    6.50
  -4  -3  -8   24.30    3.40
  -4  -3  -8   21.70    3.00
  -4  -3  -8   23.40    4.90
  -4  -3  -8   18.20    3.80
   4   3   8   29.10    5.30
   4   3   8   22.40    6.00
   4   3   8   20.00    6.80
  -5  -3  -8   31.10    7.00
  -5  -3  -8   28.40    4.80
  -5  -3  -8   36.20    6.60
   5   3   8   32.60    7.10
   5   3   8   35.50    7.00
   5   3   8   29.00    5.20
  -6  -3  -8    9.80    9.30
   6   3   8   19.60    7.50
   6   3   8   11.00    4.20
   6  -4  -8  430.06   17.30
   6  -4  -8  372.16   23.70
  -6   4   8  434.66   18.10
  -6   4   8  424.06   19.20
   5  -4  -8  323.37   13.60
   5  -4  -8  351.56   18.10
  -5   4   8  304.07   17.40
  -5   4   8  325.87   14.40
  -5   4   8  297.97   18.50
   4  -4  -8    0.90    1.50
   4  -4  -8    4.30    4.60
  -4   4   8   -1.50    3.70
   3  -4  -8   34.70    8.70
   3  -4  -8   39.20    3.70
   3  -4  -8   31.70    4.40
   3  -4  -8   37.90    6.20
   2  -4  -8  155.08   14.30
   2  -4  -8  177.18   12.20
   1  -4  -8  797.22   29.70
   1  -4  -8  838.42   27.10
   1  -4  -8  731.73   33.80
  -1   4   8  724.13   29.40
  -1   4   8  810.02   26.30
   0  -4  -8    9.80    3.60
   0   4   8   18.10    7.10
   0   4   8   16.10    4.40
   0   4   8    7.00    5.20
  -1  -4  -8   79.89    6.10
  -1  -4  -8   88.09    8.40
  -1  -4  -8   89.69    8.90
  -1  -4  -8   88.19    7.80
   1   4   8   81.59    8.70
   1   4   8   96.29    8.10
   1   4   8   90.09   10.90
  -2  -4  -8   11.20    4.40
  -2  -4  -8   15.40    4.50
  -2  -4  -8   17.30    4.40
  -2  -4  -8   16.50    3.60
   2   4   8   12.90    6.40
   2   4   8    8.00    4.10
  -3  -4  -8  126.49    8.90
  -3  -4  -8  144.79    8.30
  -3  -4  -8  154.08   10.90
  -3  -4  -8  133.09    9.50
   3   4   8  149.29   11.10
   3   4   8  142.19    9.90
   3   4   8  132.79   12.60
  -4  -4  -8   -1.80    3.30
  -4  -4  -8   -3.40    4.10
  -4  -4  -8    5.40    5.30
  -4  -4  -8    1.90    5.40
   4   4   8    9.90    5.40
   4   4   8   -0.10    3.90
   4   4   8    4.40    5.80
  -5  -4  -8  208.18   14.10
  -5  -4  -8  183.08   13.50
  -5  -4  -8  203.28   11.40
   5   4   8  177.78   10.30
   5  -5  -8  780.12   28.70
  -5   5   8  883.31   28.70
   4  -5  -8   81.39    9.10
   4  -5  -8   52.69    6.40
  -4   5   8   70.89    6.70
   3  -5  -8   43.20    5.10
   3  -5  -8   37.00    5.90
  -3   5   8   47.60    5.80
   2  -5  -8   13.50    3.30
   2  -5  -8   17.40    5.40
   1  -5  -8  158.68    9.60
  -1   5   8  158.78    9.20
   0  -5  -8   -6.80    4.60
   0  -5  -8    3.60    3.90
   0  -5  -8   -0.60    3.60
   0   5   8   -2.80    6.10
   0   5   8   -3.30    4.50
   0   5   8   -5.00    4.20
  -1  -5  -8  153.08    9.00
  -1  -5  -8  184.08   11.90
   1   5   8  155.08   13.80
   1   5   8  165.58   11.50
   1   5   8  184.28   10.90
  -2  -5  -8    7.60    5.20
  -2  -5  -8   12.30    4.10
  -2  -5  -8   21.40    4.70
  -2  -5  -8   11.40    5.70
   2   5   8   18.50    7.10
   2   5   8   20.60    5.40
   2   5   8   12.60    4.80
  -3  -5  -8   54.99    7.10
  -3  -5  -8   46.60    6.50
  -3  -5  -8   55.29    6.40
  -3  -5  -8   43.90    7.10
   3   5   8   56.69   10.50
   3   5   8   63.89    7.70
   3   5   8   61.79   10.20
  -4  -5  -8   29.10    5.20
  -4  -5  -8   34.90    6.50
  -4  -5  -8   31.40    6.30
  -4  -5  -8   27.80    5.00
   4   5   8   27.00    5.30
   4   5   8   34.90    7.00
   4  -6  -8  225.78   11.20
  -4   6   8  235.68   10.00
   3  -6  -8   55.29    8.00
   3  -6  -8   61.19    6.70
  -3   6   8   56.39    5.30
   2  -6  -8  148.39    9.80
   2  -6  -8  151.08   11.80
   1  -6  -8    8.30    4.40
   1  -6  -8    3.60    4.70
  -1   6   8   11.10    4.00
  -1   6   8    6.70    7.00
   0  -6  -8  436.66   19.90
   0  -6  -8  458.45   23.10
   0   6   8  417.56   22.90
   0   6   8  491.85   19.10
  -1  -6  -8  433.26   19.80
   1   6   8  434.56   19.20
  -2  -6  -8  407.56   23.80
  -2  -6  -8  437.36   20.50
  -2  -6  -8  363.06   19.80
  -2  -6  -8  419.16   17.50
   2   6   8  461.45   26.00
  -3  -6  -8   -2.70    3.90
  -3  -6  -8    5.60    5.50
   3   6   8   -8.00    6.00
   1  -7  -8   27.50    5.90
   1  -7  -8   20.60    5.00
  -1   7   8   22.10    4.70
   1   7  -9   10.60    5.80
  -1  -7   9    6.10    3.60
   0   7  -9  289.37   11.70
   0   7  -9  243.88   16.40
   0  -7   9  252.57   12.80
  -1   7  -9   57.99    8.40
  -1   7  -9   72.79    6.40
   1  -7   9   47.20    8.00
  -2   7  -9  424.66   23.10
  -2   7  -9  551.64   22.50
   2  -7   9  491.75   21.10
  -3   7  -9    9.10    4.70
  -3   7  -9    1.50    3.50
  -3   7  -9    5.60    2.90
   3  -7   9   -1.20    6.30
   3   6  -9    3.70    6.00
  -3  -6   9    8.00    4.50
  -3  -6   9    9.70    4.00
   2   6  -9  193.28   13.90
   1   6  -9   55.19    5.00
   1   6  -9   41.50    7.20
  -1  -6   9   56.79    5.40
   0   6  -9   10.20    4.80
   0   6  -9    8.60    3.20
   0  -6   9    3.10    3.90
  -1   6  -9    4.60    4.40
  -1   6  -9   -3.80    5.70
  -1   6  -9   12.80    3.90
  -1   6  -9    5.10    2.60
   1  -6   9    9.00    6.70
   1  -6   9    4.60    5.40
   1  -6   9    5.80    4.50
  -2   6  -9  929.31   34.70
  -2   6  -9  990.60   34.30
  -2   6  -9  926.51   30.90
   2  -6   9  949.80   35.70
   2  -6   9  959.40   34.40
   2  -6   9  914.51   34.40
  -3   6  -9    6.10    4.20
  -3   6  -9    5.30    3.50
  -3   6  -9    4.00    4.70
  -3   6  -9    1.00    5.20
   3  -6   9    4.00    6.60
   3  -6   9   -4.00    5.90
   3  -6   9    0.80    6.80
  -4   6  -9   17.10    6.50
  -4   6  -9   25.00    5.20
  -4   6  -9   35.80    6.10
  -4   6  -9   43.60    5.80
   4  -6   9   45.10    8.20
   4  -6   9   29.50    5.10
   4   5  -9   87.89   13.40
   4   5  -9   67.29    7.20
  -4  -5   9   67.79    8.90
   3   5  -9  389.66   20.40
  -3  -5   9  406.36   16.00
  -3  -5   9  369.86   15.10
   2   5  -9 1233.58   44.80
   2   5  -9 1165.28   38.70
  -2  -5   9 1246.38   39.20
   1   5  -9  555.24   20.50
   1   5  -9  575.64   24.90
   0   5  -9  143.19   11.20
   0   5  -9  148.29    8.90
   0  -5   9  135.09   10.90
   0  -5   9  140.99    8.90
   0  -5   9  141.89   12.40
  -1   5  -9    5.60    3.30
  -1   5  -9    3.80    4.50
   1  -5   9    4.10    5.80
   1  -5   9   -1.40    4.00
  -2   5  -9  468.15   19.80
  -2   5  -9  430.26   19.50
   2  -5   9  404.06   18.70
   2  -5   9  477.45   20.30
   2  -5   9  463.25   20.80
  -3   5  -9  419.86   18.80
  -3   5  -9  344.77   18.20
  -3   5  -9  392.36   17.10
  -3   5  -9  396.26   16.50
   3  -5   9  425.46   19.10
   3  -5   9  411.46   17.30
   3  -5   9  427.26   19.50
  -4   5  -9   62.89    6.90
  -4   5  -9   63.29    8.70
  -4   5  -9   50.39    8.90
   4  -5   9   65.29    9.80
   4  -5   9   52.59    6.30
   4  -5   9   43.70    7.80
  -5   5  -9  119.89   11.20
  -5   5  -9   66.49   10.70
  -5   5  -9  101.49    8.90
   5  -5   9  110.79   12.10
   5  -5   9   81.29   10.00
   5   4  -9  647.14   25.00
   5   4  -9  596.84   25.60
   5   4  -9  581.74   23.50
  -5  -4   9  613.44   22.20
   4   4  -9   48.20    6.50
   4   4  -9   48.70    7.80
   4   4  -9   65.79    8.30
  -4  -4   9   48.10    6.50
   3   4  -9    4.40    4.20
   3   4  -9    5.20    5.00
   3   4  -9   -0.20    5.10
  -3  -4   9   -0.90    2.00
  -3  -4   9   -0.40    3.10
   2   4  -9  252.87   15.30
   2   4  -9  231.28   14.70
   2   4  -9  258.57   14.10
   2   4  -9  231.98   11.10
  -2  -4   9  231.88    8.40
  -2  -4   9  218.18   14.00
  -2  -4   9  244.08   10.20
   1   4  -9  121.29    8.30
   1   4  -9  101.39   10.40
   1   4  -9  138.79   11.30
  -1  -4   9  112.39    8.40
  -1  -4   9  122.89   10.60
   0   4  -9   53.89    8.30
   0   4  -9   47.20    7.50
   0   4  -9   57.39    6.40
   0  -4   9   43.60    5.60
   0  -4   9   36.50    7.80
   0  -4   9   44.40    7.60
  -1   4  -9   18.10    4.40
  -1   4  -9   12.80    5.60
  -1   4  -9   12.90    4.40
   1  -4   9   12.50    5.70
   1  -4   9   15.60    4.90
  -2   4  -9    7.20    4.00
  -2   4  -9    4.40    4.50
  -2   4  -9    4.00    3.50
   2  -4   9   -1.70    4.90
   2  -4   9   -4.20    5.00
   2  -4   9    1.00    4.10
  -3   4  -9  645.64   28.90
  -3   4  -9  747.93   26.90
  -3   4  -9  791.72   29.30
   3  -4   9  797.02   28.80
   3  -4   9  752.02   25.30
   3  -4   9  781.12   29.20
  -4   4  -9    4.00    5.70
  -4   4  -9   20.70    5.50
  -4   4  -9   12.30    3.50
  -4   4  -9    6.60    4.30
   4  -4   9    3.80    4.00
   4  -4   9   18.20    6.20
   4  -4   9   11.60    6.30
   4  -4   9   16.30    6.30
  -5   4  -9  585.44   22.70
  -5   4  -9  579.44   24.20
  -5   4  -9  498.85   24.50
   5  -4   9  487.85   21.30
  -6   4  -9    0.40    4.30
  -6   4  -9   -7.80    4.90
   6  -4   9   -5.90    6.20
   6   3  -9   24.30    5.20
   6   3  -9   15.80    5.10
   6   3  -9   22.80    7.00
  -6  -3   9   12.30    6.20
   5   3  -9  180.68   13.70
   5   3  -9  165.18   10.20
   5   3  -9  136.19   11.20
   5   3  -9  184.18   11.90
  -5  -3   9  163.98   12.50
   4   3  -9  210.98   12.80
   4   3  -9  208.68   14.00
   4   3  -9  179.98   10.60
   3   3  -9  161.88   10.20
   3   3  -9  184.88   12.60
   3   3  -9  177.38   11.80
  -3  -3   9  176.58    7.90
  -3  -3   9  169.88   12.20
   2   3  -9  143.99   11.30
   2   3  -9  126.49   10.80
   2   3  -9  128.99    9.10
  -2  -3   9  133.59    6.30
  -2  -3   9  135.99    6.20
  -2  -3   9  133.09    5.60
  -2  -3   9  133.09   10.80
   1   3  -9  858.71   30.70
   1   3  -9  818.62   29.10
   1   3  -9  719.83   32.20
   1   3  -9  828.92   31.60
  -1  -3   9  817.32   26.80
  -1  -3   9  802.32   30.10
  -1  -3   9  811.02   25.80
  -1  -3   9  835.42   29.90
   0   3  -9  135.29   13.00
   0   3  -9  152.38    9.60
   0   3  -9  152.78   10.80
   0   3  -9  158.78   11.50
   0  -3   9  147.59    9.20
   0  -3   9  143.69    7.70
   0  -3   9  129.59   12.10
   0  -3   9  173.58   11.90
  -1   3  -9  139.79    9.80
  -1   3  -9  134.99    9.80
   1  -3   9  131.69   10.00
   1  -3   9  140.69    5.70
  -2   3  -9  143.09   11.40
  -2   3  -9  124.09   12.00
  -2   3  -9  128.19    9.10
   2  -3   9  130.99    6.20
   2  -3   9  129.29    8.70
   2  -3   9  136.69   11.50
  -3   3  -9   36.10    7.70
  -3   3  -9   49.80    6.80
  -3   3  -9   49.80    5.80
   3  -3   9   37.90    6.60
   3  -3   9   40.20    4.70
   3  -3   9   42.20    6.50
  -4   3  -9  106.69    9.30
  -4   3  -9   64.29   10.50
   4  -3   9   91.09    7.20
   4  -3   9  103.49   10.50
   4  -3   9   73.89   10.60
  -5   3  -9  638.74   25.00
  -5   3  -9  610.14   26.70
  -5   3  -9  579.74   27.60
   5  -3   9  669.63   27.10
   5  -3   9  609.24   22.70
  -6   3  -9   46.00    7.00
  -6   3  -9   25.50    8.40
  -6   3  -9   41.00    6.70
   6  -3   9   37.70    6.70
   6   2  -9   62.09    6.70
   5   2  -9  330.77   18.60
   5   2  -9  317.57   16.00
   5   2  -9  283.37   13.00
   4   2  -9   58.29    8.10
   4   2  -9   51.59    6.90
   4   2  -9   50.19    7.70
  -4  -2   9   50.39    7.60
   3   2  -9  194.18   10.70
   3   2  -9  197.18   12.80
   3   2  -9  232.88   14.30
  -3  -2   9  197.98   11.70
  -3  -2   9  192.98   12.80
   2   2  -9   33.80    7.00
   2   2  -9   36.20    5.40
   2   2  -9   44.60    6.10
  -2  -2   9   24.50    5.60
  -2  -2   9   34.60    5.30
  -2  -2   9   40.60    6.20
  -2  -2   9   39.00    4.50
   1   2  -9   48.80    6.60
   1   2  -9   51.69    7.80
   1   2  -9   60.09    7.30
  -1  -2   9   55.69    5.90
  -1  -2   9   58.59    7.80
   0   2  -9  555.84   23.00
   0   2  -9  543.45   21.80
   0   2  -9  531.45   21.00
   0  -2   9  526.75   17.90
   0  -2   9  500.25   18.10
   0  -2   9  557.34   21.00
  -1   2  -9   91.49    9.10
  -1   2  -9   91.89    8.70
  -1   2  -9  107.29    8.30
  -1   2  -9  111.69    9.80
   1  -2   9   86.29    6.40
   1  -2   9   87.69    4.50
   1  -2   9   98.99    8.90
  -2   2  -9   56.39    6.60
  -2   2  -9   52.99    9.70
   2  -2   9   40.70    6.70
   2  -2   9   61.19    6.70
  -3   2  -9  179.68   10.70
  -3   2  -9  205.68   13.00
  -3   2  -9  151.38   17.20
   3  -2   9  184.68   12.00
   3  -2   9  191.08   11.80
   3  -2   9  228.08   14.20
   3  -2   9  201.58    8.30
  -4   2  -9   62.19    4.00
  -4   2  -9   65.89    9.30
   4  -2   9   73.29    9.10
  -5   2  -9  257.67   15.00
  -5   2  -9  243.48   14.40
  -5   2  -9  232.88   13.80
   5  -2   9  250.57   14.30
   5  -2   9  240.98   11.70
   5  -2   9  245.98    9.20
  -6   2  -9   78.49    8.60
  -6   2  -9   55.89   12.00
  -6   2  -9   75.99    9.40
   6   1  -9   38.30    6.40
   6   1  -9   41.40    5.10
  -6  -1   9   41.30    6.80
  -6  -1   9   62.79    9.50
   5   1  -9   12.10    4.80
   5   1  -9    5.00    5.20
  -5  -1   9    2.40    5.40
  -5  -1   9   12.10    6.60
   4   1  -9    4.60    4.60
   4   1  -9    9.90    4.40
  -4  -1   9    9.40    5.90
   3   1  -9  322.07   16.10
   3   1  -9  338.97   17.10
   3   1  -9  291.17   13.10
  -3  -1   9  311.07   14.90
  -3  -1   9  304.37   11.50
  -3  -1   9  325.67   16.60
   2   1  -9  807.32   30.60
   2   1  -9  813.92   28.10
  -2  -1   9  831.72   27.10
  -2  -1   9  792.32   31.20
  -2  -1   9  855.81   28.90
  -2  -1   9  837.62   28.50
   1   1  -9   89.79    9.20
   1   1  -9   87.59    8.00
   1   1  -9   89.49    8.30
  -1  -1   9   88.49    6.90
  -1  -1   9   89.69    7.40
  -1  -1   9   74.99    8.20
   0   1  -9   43.20    6.90
   0   1  -9   47.60    6.80
   0  -1   9   51.69    7.80
   0  -1   9   44.00    3.90
  -1   1  -9  189.18   11.90
  -1   1  -9  201.98   11.00
   1  -1   9  198.08    9.60
   1  -1   9  198.58   12.20
   1  -1   9  202.68   11.00
  -2   1  -9  378.26   17.60
  -2   1  -9  358.46   14.90
   2  -1   9  356.36   17.10
   2  -1   9  342.87   14.90
  -3   1  -9  533.25   23.10
  -3   1  -9  501.85   22.10
   3  -1   9  505.15   20.90
   3  -1   9  500.55   21.50
   3  -1   9  494.85   20.30
  -4   1  -9  115.99   11.60
   4  -1   9  114.59   10.10
  -5   1  -9    1.40    3.60
  -5   1  -9  -12.60    7.00
  -5   1  -9    2.00    3.90
   5  -1   9   -1.40    5.40
  -6   1  -9  197.78   13.20
   6  -1   9  191.58   10.10
   6   0  -9  795.42   31.00
  -6   0   9  758.42   31.70
   5   0  -9    3.40    3.00
   5   0  -9    2.80    5.20
   5   0  -9   12.40    5.00
  -5   0   9    5.40    4.70
  -5   0   9   12.90    5.80
   4   0  -9   27.80    4.40
   4   0  -9   13.40    5.00
   4   0  -9   29.20    5.80
  -4   0   9   15.60    3.10
   3   0  -9   87.89    6.60
   3   0  -9   82.89    8.60
   3   0  -9   86.99    9.90
  -3   0   9   74.19    8.50
  -3   0   9   88.39    6.40
   2   0  -9 1060.69   37.90
   2   0  -9 1047.60   36.90
  -2   0   9 1062.19   35.30
  -2   0   9 1058.99   35.70
  -2   0   9 1110.59   34.80
   1   0  -9  131.19   10.60
   1   0  -9  128.39    9.90
   1   0  -9  115.99    8.70
  -1   0   9  133.59    9.20
  -1   0   9  121.19    8.50
  -1   0   9  118.19    8.00
   0   0  -9  395.46   16.80
   0   0  -9  380.36   17.10
   0   0   9  397.46   16.00
   0   0   9  393.26   16.60
   0   0   9  409.86   18.60
  -1   0  -9  187.28   10.70
  -1   0  -9  177.38   12.40
   1   0   9  179.28   10.60
   1   0   9  175.98   12.00
   1   0   9  184.38    9.00
  -2   0  -9    7.30    4.00
  -2   0  -9    7.80    3.30
   2   0   9    9.50    4.10
   2   0   9   -0.20    4.80
   2   0   9    6.90    4.70
  -3   0  -9    1.50    2.20
  -3   0  -9    0.90    6.40
  -3   0  -9    2.40    5.60
  -3   0  -9    4.10    4.60
   3   0   9    2.70    4.50
   3   0   9   -3.00    4.20
   3   0   9   -1.60    4.30
  -4   0  -9  191.68   17.10
  -4   0  -9  240.98   15.30
  -4   0  -9  231.68   10.50
   4   0   9  257.17   14.10
   4   0   9  221.48   13.00
  -5   0  -9   96.09   11.20
  -5   0  -9   83.99    7.00
   5   0   9   88.79   10.70
  -6   0  -9  114.49    8.00
   6   0   9  144.49    9.50
   6   0   9  104.39   12.30
   6  -1  -9  209.78   14.00
  -6   1   9  225.98   13.30
  -6   1   9  197.88   15.90
   5  -1  -9  241.48   15.40
   5  -1  -9  200.08   13.90
  -5   1   9  204.78   13.30
  -5   1   9  158.78   10.50
   4  -1  -9  175.88   12.70
   4  -1  -9  188.28   13.30
  -4   1   9  169.58   11.70
   3  -1  -9   17.70    5.30
   3  -1  -9    4.20    3.80
   3  -1  -9   12.80    3.70
  -3   1   9    5.60    3.70
  -3   1   9    8.70    5.30
   2  -1  -9 1423.46   45.10
   2  -1  -9 1236.08   48.90
   2  -1  -9 1462.75   48.40
  -2   1   9 1522.45   44.20
  -2   1   9 1443.16   45.60
   1  -1  -9   34.30    5.70
   1  -1  -9   27.60    5.10
   1  -1  -9   30.60    5.80
  -1   1   9   26.90    5.00
  -1   1   9   23.00    5.80
  -1   1   9   31.80    4.90
   0  -1  -9  626.64   23.70
   0  -1  -9  642.54   23.70
   0  -1  -9  577.24   24.40
   0   1   9  606.14   23.10
   0   1   9  601.54   24.50
   0   1   9  617.34   21.80
  -1  -1  -9   11.50    6.70
  -1  -1  -9   16.40    4.10
   1   1   9   26.30    5.60
   1   1   9   19.60    4.90
  -2  -1  -9   -4.10    5.40
  -2  -1  -9   -0.40    2.50
   2   1   9   -3.00    4.60
   2   1   9    4.30    4.70
  -3  -1  -9   86.29   10.10
  -3  -1  -9   80.09    5.10
   3   1   9   88.59   10.30
   3   1   9   91.19    8.00
   3   1   9   90.69    9.00
  -4  -1  -9  409.26   19.80
   4   1   9  388.46   17.70
   4   1   9  375.96   20.40
   4   1   9  411.36   19.60
  -5  -1  -9  777.42   31.50
  -5  -1  -9  763.22   25.10
   5   1   9  695.63   30.60
   5   1   9  764.82   29.10
   5   1   9  796.52   30.60
  -6  -1  -9  122.89   12.30
  -6  -1  -9   84.59   12.10
   6   1   9  135.19   13.30
   6   1   9  130.29   14.50
   6  -2  -9  627.04   29.80
  -6   2   9  667.93   23.60
  -6   2   9  699.73   26.20
   5  -2  -9  758.42   28.10
   5  -2  -9  779.02   30.70
   5  -2  -9  808.92   32.10
  -5   2   9  689.13   29.60
  -5   2   9  767.52   26.60
   4  -2  -9  268.57   15.40
   4  -2  -9  244.48   12.30
   4  -2  -9  273.67   15.50
  -4   2   9  249.28   12.40
  -4   2   9  243.78   14.20
   3  -2  -9  299.97   15.50
   3  -2  -9  286.77   12.30
   3  -2  -9  283.27   15.60
  -3   2   9  264.07   13.40
  -3   2   9  277.67   14.20
   2  -2  -9   20.40    5.30
   2  -2  -9   18.10    5.60
  -2   2   9   18.20    5.30
   1  -2  -9   16.60    2.80
   1  -2  -9   11.10    4.60
  -1   2   9   13.60    3.70
  -1   2   9    7.80    5.20
  -1   2   9    5.70    4.90
   0  -2  -9   57.59    4.00
   0  -2  -9   61.39    8.20
   0  -2  -9   60.69    7.50
   0   2   9   42.50    6.70
   0   2   9   56.29    6.60
  -1  -2  -9   94.19    9.40
  -1  -2  -9   90.79    7.40
   1   2   9   89.19    8.70
   1   2   9   74.39    9.00
  -2  -2  -9  126.99   11.70
  -2  -2  -9  150.68    8.60
   2   2   9  124.09   12.00
   2   2   9  138.19   10.30
  -3  -2  -9  129.29   11.60
  -3  -2  -9   98.89    6.70
  -3  -2  -9  106.19   10.90
   3   2   9   98.79    9.60
   3   2   9   78.79    8.70
   3   2   9  118.49   10.20
   3   2   9  114.59   12.00
  -4  -2  -9   54.19    8.30
   4   2   9   48.70    6.70
   4   2   9   53.59   10.50
   4   2   9   61.39    9.40
   4   2   9   44.40    7.60
  -5  -2  -9  431.76   22.30
   5   2   9  457.15   21.40
   5   2   9  429.46   18.30
   5   2   9  387.86   21.10
   5  -3  -9  139.39   15.40
   5  -3  -9  128.49    9.40
  -5   3   9  127.39   10.60
  -5   3   9  130.09   12.10
  -5   3   9  146.79    9.90
   4  -3  -9  142.09    8.70
   4  -3  -9  143.79   11.90
  -4   3   9  123.09    9.80
  -4   3   9  158.98   11.80
  -4   3   9  138.59   11.00
   3  -3  -9  405.46   15.40
   3  -3  -9  409.76   19.90
   2  -3  -9  114.79    6.40
   2  -3  -9  131.39   10.90
   1  -3  -9   45.70    6.60
  -1   3   9   55.29    6.10
   0  -3  -9   10.10    3.00
   0  -3  -9    6.60    3.80
   0   3   9   -3.00    5.50
   0   3   9    6.50    4.10
   0   3   9   11.80    5.30
  -1  -3  -9  687.13   25.70
  -1  -3  -9  672.73   23.70
   1   3   9  702.43   24.90
   1   3   9  562.04   27.10
   1   3   9  654.43   25.80
  -2  -3  -9   17.20    5.30
  -2  -3  -9   16.70    4.20
  -2  -3  -9   18.10    4.50
   2   3   9   16.60    6.90
   2   3   9   18.10    5.00
   2   3   9   17.90    5.00
  -3  -3  -9  106.19    9.50
  -3  -3  -9  112.29   11.50
  -3  -3  -9  113.89    7.10
   3   3   9   99.49    9.20
   3   3   9  100.79   11.70
   3   3   9  113.89   10.30
  -4  -3  -9   -5.60    4.00
  -4  -3  -9   -6.40    4.00
  -4  -3  -9   -2.80    2.20
   4   3   9   -3.50    4.50
   4   3   9   -4.40    6.30
   4   3   9   -1.10    5.30
   5   3   9  119.19    9.30
   5  -4  -9   95.59   10.90
  -5   4   9   68.49    7.80
   4  -4  -9   20.60    3.50
   4  -4  -9   12.10    4.80
  -4   4   9   11.20    5.50
  -4   4   9   14.40    6.00
   3  -4  -9  325.77   11.70
   3  -4  -9  346.37   18.10
   2  -4  -9    4.70    2.20
   2  -4  -9   12.90    4.50
   1  -4  -9  655.73   23.20
   1  -4  -9  712.03   27.70
  -1   4   9  695.53   23.50
   0  -4  -9   62.29    4.40
   0  -4  -9   79.69    9.00
   0  -4  -9   84.59    6.70
   0   4   9   77.59    8.40
  -1  -4  -9  121.69   10.20
  -1  -4  -9  162.98    9.70
  -1  -4  -9  152.98   11.00
   1   4   9  154.18   13.40
   1   4   9  134.79   14.10
   1   4   9  150.88   12.50
  -2  -4  -9  110.79   10.20
  -2  -4  -9   90.59    6.10
  -2  -4  -9   89.19    8.30
  -2  -4  -9   97.89    8.80
   2   4   9   97.29    9.30
   2   4   9   83.99    8.80
   2   4   9   77.99   12.00
  -3  -4  -9  302.87   12.70
  -3  -4  -9  265.67   13.70
  -3  -4  -9  331.77   16.20
  -3  -4  -9  319.87   15.30
   3   4   9  292.67   15.50
   3   4   9  269.67   18.90
   3   4   9  326.87   16.40
  -4  -4  -9   16.70    4.10
  -4  -4  -9   21.30    5.20
   4   4   9   12.90    5.60
   4   4   9   18.40    7.20
   4  -5  -9    7.70    5.40
   4  -5  -9   -0.10    3.50
   3  -5  -9  241.78   15.70
  -3   5   9  230.48   11.30
   2  -5  -9   83.69    6.30
   2  -5  -9   97.99   10.50
   1  -5  -9  354.06   15.60
   1  -5  -9  406.96   19.20
  -1   5   9  386.86   15.20
   0  -5  -9  225.88   10.10
   0  -5  -9  226.48   12.40
   0   5   9  250.77   12.80
  -1  -5  -9  306.77   12.70
  -1  -5  -9  278.87   16.00
  -1  -5  -9  302.77   15.90
  -1  -5  -9  345.37   16.50
   1   5   9  355.36   16.00
  -2  -5  -9    2.30    3.90
  -2  -5  -9    5.70    4.80
  -2  -5  -9    8.60    4.40
   2   5   9   12.20    7.40
  -3  -5  -9  488.45   21.90
   3   5   9  438.26   20.00
   1  -6  -9   95.89    8.20
  -1   6   9   68.09    8.00
   0  -6  -9  400.16   19.40
   0  -6  -9  408.76   19.30
   2   6 -10    2.70    2.40
  -2  -6  10   -5.20    4.10
  -2  -6  10   -1.40    3.80
   1   6 -10   34.00    7.10
   1   6 -10   26.10    3.90
  -1  -6  10   17.40    4.60
   0   6 -10  222.48   11.20
   0   6 -10  208.28   14.50
   0  -6  10  193.58   10.90
  -1   6 -10  265.17   13.50
  -1   6 -10  207.08   14.60
   1  -6  10  258.27   16.90
   1  -6  10  244.38   13.50
  -2   6 -10  219.28   10.90
  -2   6 -10  242.28   13.50
   2  -6  10  215.18   13.80
  -3   6 -10  140.39   10.50
  -3   6 -10   88.59   11.20
  -3   6 -10   96.59    9.50
  -3   6 -10  127.79    8.40
   3  -6  10  117.09   10.90
   3  -6  10  107.89    9.50
   3  -6  10  137.99   13.60
   3   5 -10  354.36   14.00
  -3  -5  10  366.06   14.20
   2   5 -10   98.19   10.90
   2   5 -10   90.39    7.00
  -2  -5  10   99.09    6.60
   1   5 -10   -4.60    4.40
   1   5 -10   -0.60    2.90
  -1  -5  10   -3.50    2.80
   0   5 -10    4.80    3.70
   0   5 -10    2.20    4.40
   0  -5  10    9.20    6.10
   0  -5  10    4.60    3.90
  -1   5 -10  153.28   11.70
   1  -5  10  167.48   14.20
   1  -5  10  141.89   10.30
  -2   5 -10  205.78   12.40
   2  -5  10  206.68   15.10
   2  -5  10  189.48   12.30
  -3   5 -10  340.67   16.70
  -3   5 -10  326.47   16.90
  -3   5 -10  302.57   15.60
   3  -5  10  355.76   20.60
   3  -5  10  329.77   17.20
   3  -5  10  319.07   13.80
  -4   5 -10   19.30    4.50
  -4   5 -10   20.00    4.70
  -4   5 -10   25.10    5.80
   4  -5  10   18.80    5.60
   4  -5  10   17.90    6.50
   4   4 -10   -4.50    4.30
   3   4 -10  182.38   12.70
   3   4 -10  183.38   13.60
   2   4 -10  104.29   11.20
   2   4 -10  106.39   10.20
   2   4 -10   91.09    7.60
  -2  -4  10   82.79    4.30
  -2  -4  10   92.19    5.00
   1   4 -10  391.66   16.90
   1   4 -10  419.56   19.90
  -1  -4  10  403.86   14.80
  -1  -4  10  406.76   15.30
  -1  -4  10  399.76   13.20
  -1  -4  10  426.66   20.20
   0   4 -10   -4.30    4.10
   0   4 -10   -2.90    3.20
   0  -4  10   -5.10    5.40
   0  -4  10   -3.70    3.90
  -1   4 -10   92.59   10.30
  -1   4 -10   95.89   10.00
   1  -4  10   84.69   10.70
   1  -4  10   72.19    7.20
   1  -4  10   86.49    8.60
  -2   4 -10    6.50    3.70
  -2   4 -10   -0.40    3.90
  -2   4 -10    4.10    6.50
   2  -4  10    6.80    2.70
   2  -4  10    3.50    5.40
   2  -4  10    7.30    5.80
   2  -4  10    8.80    4.20
  -3   4 -10  721.73   28.20
  -3   4 -10  603.84   29.00
  -3   4 -10  698.23   25.60
   3  -4  10  720.53   27.80
   3  -4  10  744.73   27.90
  -4   4 -10    4.60    4.00
  -4   4 -10   -0.50    4.80
  -4   4 -10   -2.90    2.80
   4  -4  10   -5.10    5.50
  -5   4 -10   34.90    5.70
   5  -4  10   23.60    6.20
   5  -4  10   18.80    7.00
   5   3 -10   26.50   11.40
   5   3 -10   50.19    7.30
   5   3 -10   47.50    8.60
  -5  -3  10   32.40    6.90
   4   3 -10    1.80    4.90
   4   3 -10   -3.60    4.00
   3   3 -10   69.19   11.70
   3   3 -10   89.69   10.60
   3   3 -10   80.59    9.60
   2   3 -10  102.69   10.60
   2   3 -10   96.39    9.00
  -2  -3  10   88.89    5.40
  -2  -3  10   74.79    5.40
   1   3 -10  827.42   30.90
   1   3 -10  828.32   31.90
   1   3 -10  852.11   32.60
   1   3 -10  814.02   30.10
  -1  -3  10  804.62   27.80
  -1  -3  10  889.01   34.30
   0   3 -10   39.40    6.90
   0   3 -10   31.30    6.40
   0  -3  10   31.90    5.00
   0  -3  10   34.30    4.50
   0  -3  10   46.10    7.00
  -1   3 -10  221.68   12.50
  -1   3 -10  208.68   12.70
   1  -3  10  215.08   12.70
   1  -3  10  194.08   10.30
  -2   3 -10   45.70    6.70
  -2   3 -10   27.20    7.70
  -2   3 -10   48.80    6.90
   2  -3  10   43.40    6.70
   2  -3  10   44.30    7.20
  -3   3 -10   47.40    6.00
  -3   3 -10   47.20    6.90
  -3   3 -10   32.90    8.30
   3  -3  10   57.09    4.60
   3  -3  10   61.19    9.60
   3  -3  10   44.60    7.20
  -4   3 -10  145.19   13.90
  -4   3 -10  187.38   13.10
   4  -3  10  185.08   13.20
   4  -3  10  161.48    9.20
  -5   3 -10   -3.90    4.90
   5  -3  10   -1.10    7.30
   5  -3  10   -5.20    4.40
   5   2 -10  472.15   21.30
   5   2 -10  453.35   17.90
   4   2 -10   31.20    6.40
   4   2 -10   51.59    7.50
   4   2 -10   45.00    7.00
   3   2 -10  127.89   11.20
   3   2 -10  126.59   10.10
   3   2 -10  147.29   12.30
  -3  -2  10  149.39    9.70
   2   2 -10    3.70    4.50
   2   2 -10    5.80    4.50
   2   2 -10    1.90    4.40
  -2  -2  10    0.90    5.10
  -2  -2  10   -0.10    3.70
  -2  -2  10   -0.60    2.90
   1   2 -10  338.37   16.10
   1   2 -10  374.46   17.60
   1   2 -10  351.36   17.60
  -1  -2  10  341.27   14.50
  -1  -2  10  350.26   14.40
  -1  -2  10  339.57   16.30
   0   2 -10  268.57   14.20
   0   2 -10  272.67   15.10
   0  -2  10  236.38    9.80
   0  -2  10  252.07   10.20
  -1   2 -10  268.97   14.00
  -1   2 -10  257.67   15.10
  -1   2 -10  284.07   14.30
  -1   2 -10  262.37   14.60
   1  -2  10  212.58   12.80
   1  -2  10  270.97   13.70
  -2   2 -10  131.69   10.60
  -2   2 -10  118.09    8.60
  -2   2 -10   82.99   14.90
   2  -2  10  114.89   11.00
   2  -2  10  106.09    8.00
  -3   2 -10    4.40    4.70
  -3   2 -10   -0.90    2.50
   3  -2  10   -3.00    4.70
   3  -2  10   -3.80    4.40
  -4   2 -10  194.18   13.80
  -4   2 -10  170.28    7.30
   4  -2  10  196.78   12.80
   4  -2  10  183.08   12.30
  -5   2 -10    0.60    4.60
  -5   2 -10   11.20    5.20
   5   1 -10   12.20    4.30
  -5  -1  10   18.20    6.60
  -5  -1  10   17.00    6.70
   4   1 -10  678.83   28.50
   4   1 -10  632.34   26.70
   4   1 -10  649.14   22.80
  -4  -1  10  646.94   27.00
   3   1 -10  279.27   14.80
   3   1 -10  264.97   12.60
   3   1 -10  282.27   16.00
  -3  -1  10  267.37   10.70
  -3  -1  10  263.07   14.30
   2   1 -10   93.29    8.40
   2   1 -10   94.99   10.10
   2   1 -10   99.39   10.30
  -2  -1  10  102.29    8.00
  -2  -1  10   90.29    9.40
   1   1 -10  240.28   12.60
   1   1 -10  216.38   13.90
  -1  -1  10  226.88   11.50
  -1  -1  10  222.68   10.80
  -1  -1  10  242.88   12.50
   0   1 -10   85.39   10.00
   0   1 -10   93.89    8.40
   0   1 -10   84.19    8.60
   0  -1  10   90.99    9.20
   0  -1  10   94.39    7.60
   0  -1  10   83.59    6.40
  -1   1 -10  283.37   14.00
  -1   1 -10  266.37   15.30
  -1   1 -10  253.27   17.30
  -1   1 -10  268.77   14.70
   1  -1  10  274.37   11.70
  -2   1 -10  265.37   15.30
  -2   1 -10  259.17   12.50
   2  -1  10  254.37   12.60
   2  -1  10  256.37   13.60
  -3   1 -10  160.98   12.60
  -3   1 -10  159.18    8.70
   3  -1  10  174.28   10.90
   3  -1  10  171.48   11.40
  -4   1 -10    1.40    5.10
   4  -1  10    4.20    5.20
   4  -1  10   -2.20    5.10
  -5   1 -10  160.78   10.00
   5   0 -10    5.20    5.20
  -5   0  10    3.90    5.10
  -5   0  10    2.90    6.40
   4   0 -10  276.67   15.90
   4   0 -10  286.17   11.30
   4   0 -10  266.87   16.20
  -4   0  10  229.18   10.40
  -4   0  10  270.47   14.80
   3   0 -10   25.60    6.10
   3   0 -10   28.50    6.30
  -3   0  10   27.20    6.40
   2   0 -10  825.22   32.30
   2   0 -10  847.42   29.40
   2   0 -10  872.11   33.10
  -2   0  10  845.52   29.10
  -2   0  10  870.21   29.10
  -2   0  10  828.92   29.90
   1   0 -10  483.85   19.60
   1   0 -10  477.45   21.70
  -1   0  10  487.85   18.50
  -1   0  10  480.65   19.00
  -1   0  10  489.55   18.60
   0   0 -10   69.49    9.10
   0   0 -10   46.50    6.80
   0   0 -10   55.59    7.50
   0   0  10   52.69    7.70
   0   0  10   40.60    6.00
  -1   0 -10   27.20    5.80
  -1   0 -10   42.20    6.30
   1   0  10   31.90    4.60
  -2   0 -10 1108.09   36.30
  -2   0 -10 1124.09   42.50
  -2   0 -10 1056.19   39.20
  -2   0 -10 1074.59   38.70
   2   0  10 1047.10   36.20
   2   0  10 1056.59   36.30
  -3   0 -10   14.80    5.90
   3   0  10    9.70    4.90
   3   0  10   11.10    5.20
  -4   0 -10   17.30    3.40
  -4   0 -10    5.00    5.70
   4   0  10   19.60    6.10
   4   0  10   11.90    5.80
  -5   0 -10   17.90    3.90
  -5   1  10   -1.70    4.70
  -5   1  10    4.00    6.50
   4  -1 -10  330.17   15.40
   4  -1 -10  345.57   18.20
   4  -1 -10  328.07   18.10
  -4   1  10  302.97   16.60
  -4   1  10  318.57   13.60
   3  -1 -10  425.76   20.40
   3  -1 -10  415.06   17.20
   3  -1 -10  440.56   21.10
  -3   1  10  415.16   18.80
  -3   1  10  411.56   17.00
   2  -1 -10 1108.39   40.70
   2  -1 -10 1128.99   37.00
   2  -1 -10 1181.48   41.30
  -2   1  10 1086.19   38.20
  -2   1  10 1084.69   37.60
  -2   1  10 1191.18   36.60
   1  -1 -10  813.22   31.10
   1  -1 -10  774.92   30.50
  -1   1  10  798.32   26.80
  -1   1  10  778.62   28.40
   0  -1 -10   72.89    9.70
   0  -1 -10  100.39    8.80
   0   1  10   95.59    8.40
  -1  -1 -10   21.30    4.20
  -1  -1 -10   21.00    5.20
   1   1  10   10.20    5.60
  -2  -1 -10  151.88   11.80
  -2  -1 -10  162.18    9.50
   2   1  10  156.68   11.10
  -3  -1 -10   93.49    9.60
   3   1  10  104.39    9.50
   3   1  10   66.29    7.80
  -4  -1 -10  170.08   14.20
  -5  -1 -10   58.19    8.90
   5  -2 -10  140.49   11.90
   5  -2 -10  136.29   13.30
  -5   2  10  126.39   10.30
  -5   2  10  115.09   11.60
  -5   2  10   88.59    9.10
   4  -2 -10   10.70    4.90
   4  -2 -10   17.10    5.90
  -4   2  10   -3.20    4.50
  -4   2  10    0.70    5.50
   3  -2 -10   44.20    5.90
   3  -2 -10   55.69    8.20
   3  -2 -10   54.79    8.30
  -3   2  10   41.10    5.90
  -3   2  10   49.80    7.80
   2  -2 -10  234.48   14.50
   2  -2 -10  227.78   10.20
   2  -2 -10  222.58   14.40
  -2   2  10  233.28   10.60
   1  -2 -10 1245.48   42.30
   1  -2 -10 1127.89   41.80
   1  -2 -10 1164.18   36.70
  -1   2  10 1180.68   37.60
   0  -2 -10   42.40    6.30
   0  -2 -10   69.29    9.10
   0  -2 -10   59.89    3.80
   0   2  10   55.69    8.10
   0   2  10   66.69    7.10
  -1  -2 -10   25.00    5.50
  -1  -2 -10   24.10    4.50
  -2  -2 -10   -0.60    4.10
  -2  -2 -10   -1.20    2.90
   2   2  10   -4.60    4.00
  -3  -2 -10  332.17   18.10
  -3  -2 -10  345.67   13.70
  -3  -2 -10  310.37   16.50
   3   2  10  337.07   17.40
   4   2  10    3.30    7.90
   4   2  10    9.20    7.00
  -4   3  10   -7.40    4.50
  -4   3  10  -12.20    5.20
  -4   3  10   -5.40    5.40
   3  -3 -10   26.90    4.00
   3  -3 -10   31.90    6.70
   3  -3 -10   41.70    7.30
  -3   3  10   28.20    5.70
  -3   3  10   16.40    6.30
   2  -3 -10    4.00    2.90
   2  -3 -10   12.00    5.50
  -2   3  10    7.90    4.20
  -2   3  10   -4.50    6.20
   1  -3 -10  120.69   10.90
  -1   3  10  122.09    8.10
   0  -3 -10   19.70    5.30
   0   3  10   14.80    4.40
  -1  -3 -10   -5.00    4.30
  -1  -3 -10   -2.20    3.60
   1   3  10   -7.30    4.60
  -2  -3 -10   -0.70    3.20
  -2  -3 -10    3.30    4.30
  -2  -3 -10   -9.30    4.10
   2   3  10   -8.10    5.50
  -3  -3 -10    5.20    4.70
  -3  -3 -10    1.50    2.70
  -3  -3 -10   -4.10    3.70
   3   3  10   -2.90    6.10
   2  -4 -10    0.70    4.60
   1  -4 -10   -1.90    4.70
  -1   4  10   -7.10    3.20
   0  -4 -10  331.97   14.00
   0   4  10  345.37   14.80
  -1  -4 -10  189.58   10.70
  -1  -4 -10  144.09   12.50
   1   4  10  187.78   12.20
  -2  -4 -10  500.65   20.60
  -2  -4 -10  475.15   21.80
   2   4  10  373.76   28.10
   2   4  10  548.55   24.70
   1   5 -11  384.56   17.20
   1   5 -11  409.96   20.90
  -1  -5  11  377.96   14.60
   0   5 -11   12.00    5.60
   0   5 -11   17.70    4.60
   0  -5  11   16.50    7.30
   0  -5  11    8.70    4.60
  -1   5 -11  579.04   23.70
   1  -5  11  594.24   23.00
   1  -5  11  604.14   25.90
  -2   5 -11   10.90    4.70
  -2   5 -11   12.50    4.80
   2  -5  11    7.30    6.10
   2  -5  11    1.90    5.70
   2   4 -11   68.49   10.30
   2   4 -11   73.09    9.40
   1   4 -11  103.19   11.00
   1   4 -11   87.79    8.40
  -1  -4  11   75.69    4.60
  -1  -4  11   86.49    7.00
   0   4 -11    2.00    3.80
   0   4 -11   -3.90    4.10
   0  -4  11   -5.50    5.80
   0  -4  11   -7.10    4.20
  -1   4 -11  391.86   18.30
  -1   4 -11  391.96   18.60
   1  -4  11  379.36   16.10
  -2   4 -11   23.20    5.80
  -2   4 -11   12.10    5.00
   2  -4  11   23.60    6.40
   2  -4  11   14.70    5.30
   2  -4  11   22.90    7.10
  -3   4 -11  421.56   17.80
   3  -4  11  398.46   20.20
   3   3 -11  281.27   18.50
   3   3 -11  245.48   16.50
   3   3 -11  290.97   20.70
   2   3 -11  377.76   18.80
   2   3 -11  411.16   19.90
  -2  -3  11  347.87   13.30
   1   3 -11    0.60    4.20
   1   3 -11   -5.10    4.70
   1   3 -11   -0.50    3.50
  -1  -3  11   -0.80    3.70
  -1  -3  11   -8.80    6.30
   0   3 -11   34.00    5.70
   0   3 -11   29.20    5.90
   0  -3  11   17.80    6.30
   0  -3  11   19.20    3.00
   0  -3  11   21.50    5.20
  -1   3 -11  175.28   12.20
  -1   3 -11  192.38   14.30
   1  -3  11  163.38    9.20
   1  -3  11  187.98   12.40
  -2   3 -11   58.99    8.60
   2  -3  11   54.89    7.30
   2  -3  11   42.50    7.80
  -3   3 -11  366.36   15.80
  -3   3 -11  381.06   19.30
   4   2 -11   24.90    5.40
   3   2 -11   63.69   10.10
   3   2 -11   31.50    5.80
   3   2 -11   35.70    6.70
   2   2 -11  893.51   34.00
   2   2 -11  788.32   33.00
   2   2 -11  843.22   32.60
  -2  -2  11  818.92   28.90
   1   2 -11   79.79    9.40
   1   2 -11   74.59    9.10
   1   2 -11   76.59   10.50
  -1  -2  11   72.19    6.30
  -1  -2  11   72.19    7.10
  -1  -2  11   61.89   10.10
   0   2 -11  706.93   28.50
   0   2 -11  693.83   27.60
   0   2 -11  704.53   28.00
   0  -2  11  708.63   25.70
   0  -2  11  701.33   26.70
  -1   2 -11  269.77   14.70
  -1   2 -11  277.97   15.50
   1  -2  11  264.87   14.90
  -2   2 -11   -0.90    3.40
  -2   2 -11    4.20    4.30
   2  -2  11    1.20    5.10
   2  -2  11   -8.30    3.70
  -3   2 -11   87.19   10.40
  -3   2 -11   76.19    6.90
   3  -2  11   95.89   10.50
   4   1 -11  361.36   14.80
  -4  -1  11  345.87   17.60
   3   1 -11   -4.30    4.40
   3   1 -11    4.50    4.60
   3   1 -11    1.70    4.20
  -3  -1  11    2.60    6.70
   2   1 -11  182.78   12.50
   2   1 -11  192.98   11.60
   2   1 -11  172.78   13.00
  -2  -1  11  204.98   11.80
  -2  -1  11  164.58   10.80
  -2  -1  11  161.98    9.60
   1   1 -11   -4.00    4.10
   1   1 -11    0.10    4.50
  -1  -1  11   -1.80    4.30
  -1  -1  11    2.00    4.10
   0   1 -11  605.64   24.80
   0   1 -11  573.44   25.30
   0   1 -11  596.24   23.90
   0  -1  11  581.34   20.60
   0  -1  11  598.14   22.60
  -1   1 -11   16.60    5.40
  -1   1 -11   16.30    4.50
  -1   1 -11   10.00    5.40
   1  -1  11   13.20    5.20
   1  -1  11   13.10    3.40
   1  -1  11    8.20    5.30
  -2   1 -11   -3.60    3.00
  -2   1 -11    0.80    4.00
   2  -1  11    1.90    4.90
  -3   1 -11    4.00    4.80
  -3   1 -11    3.20    3.20
   3  -1  11   -7.30    4.10
   3  -1  11   -5.00    5.80
  -4   1 -11  533.75   26.20
   4  -1  11  576.14   20.60
   4   0 -11  196.48   14.60
  -4   0  11  214.48   12.90
   3   0 -11   26.50    5.90
   3   0 -11   29.30    5.00
  -3   0  11   20.40    4.80
   2   0 -11   11.90    5.30
   2   0 -11   12.10    4.70
   2   0 -11   25.40    5.20
  -2   0  11   11.70    5.60
  -2   0  11    7.20    4.70
  -2   0  11   12.40    4.80
   1   0 -11   50.29    7.40
   1   0 -11   48.20    7.50
  -1   0  11   41.30    6.00
  -1   0  11   54.19    7.40
  -1   0  11   55.69    7.80
   0   0 -11  388.06   19.20
   0   0 -11  449.86   19.90
   0   0 -11  417.16   19.50
   0   0  11  389.06   19.40
   0   0  11  397.96   16.00
  -1   0 -11  297.87   14.20
  -1   0 -11  269.57   16.00
   1   0  11  250.97   13.90
  -2   0 -11  269.47   16.10
  -2   0 -11  271.47   12.90
   2   0  11  276.97   14.10
   2   0  11  250.57   12.90
  -3   0 -11   64.49    6.20
   3   0  11   72.79    9.20
   3  -1 -11  165.58   13.50
  -3   1  11  129.09   10.10
  -3   1  11  166.78   11.20
   2  -1 -11   -1.80    3.30
   2  -1 -11    5.00    4.20
   2  -1 -11    3.50    4.70
  -2   1  11   -4.00    4.60
  -2   1  11    0.70    5.10
   1  -1 -11    2.30    4.30
   1  -1 -11   -1.80    2.80
   1  -1 -11    1.00    4.50
  -1   1  11    2.60    5.60
  -1   1  11   -4.50    6.20
  -1   1  11   -5.30    4.10
   0  -1 -11  341.07   16.70
   0  -1 -11  326.57   17.80
  -1  -1 -11  359.16   18.70
  -1  -1 -11  372.16   16.90
   1   1  11  354.36   15.80
  -2  -1 -11    2.90    4.30
  -2  -1 -11    2.60    4.80
  -2  -1 -11   -4.00    3.60
   2   1  11   -3.90    5.10
  -3  -1 -11  654.83   22.80
   3  -2 -11  304.37   18.00
   3  -2 -11  292.67   13.00
  -3   2  11  280.77   15.50
  -3   2  11  239.28   16.00
   2  -2 -11   -5.50    2.70
   2  -2 -11   -1.50    4.60
  -2   2  11   -3.60    5.00
  -2   2  11    0.50    3.60
   1  -2 -11  435.66   21.20
   1  -2 -11  461.25   20.90
  -1   2  11  413.46   16.90
   0  -2 -11   17.70    6.00
   0  -2 -11   23.20    5.10
   0  -2 -11   14.90    2.40
  -1  -2 -11   49.99   11.00
  -1  -2 -11   86.59    9.90
   1   2  11   70.29    8.50
  -2  -2 -11   62.89    7.20
  -2  -2 -11   78.99   10.20
   2   2  11   78.19    9.70
   2  -3 -11    7.70    5.60
   2  -3 -11    7.00    5.20
   1  -3 -11  221.08   14.20
  -1   3  11  185.78   10.10
   0  -3 -11   -2.60    3.70
   0  -3 -11    2.80    5.10
  -1  -3 -11   56.89    7.80
  -1  -3 -11   67.99   10.00
   1   3  11   54.29    8.40
   1   2 -12   -4.40    4.60
   1   2 -12   -3.90    3.80
  -1  -2  12   -6.30    4.60
  -1  -2  12   -4.00    5.70
   0   2 -12   -2.60    4.30
   0   2 -12    0.80    4.50
   0   2 -12   -1.60    4.10
   0  -2  12   -2.20    6.10
  -1   2 -12   27.90    5.60
  -1   2 -12   32.10    6.50
   1  -2  12   25.30    7.10
   1   1 -12   12.90    4.90
   1   1 -12   18.30    5.90
  -1  -1  12   12.70    5.80
  -1  -1  12   24.00    5.10
   0   1 -12    0.90    3.90
   0  -1  12   -4.10    5.30
   0  -1  12   -1.10    5.30
   0  -1  12    5.80    3.70
  -1   1 -12   -6.70    3.90
  -1   1 -12   -5.60    3.40
   1  -1  12   -5.40    5.50
   1   0 -12  421.26   20.50
  -1   0  12  396.36   17.30
  -1   0  12  420.06   17.70
  -1   0  12  398.16   18.00
   0   0 -12  126.39   11.50
   0   0 -12  114.69   12.10
   0   0  12  115.69    9.00
   0   0  12  141.09   10.60
  -1   0 -12   13.10    6.40
  -1   0 -12   12.10    4.60
   1   0  12    0.70    4.80
   0   0   0    0.00    0.00

_computing_structure_solution     'SHELXT 2014/5 (Sheldrick, 2014)'
;
_shelx_hkl_checksum              13363
_olex2_submission_special_instructions 'No special instructions were received'
loop_
_space_group_symop_operation_xyz
'x, y, z'
'-x, -y, -z'
loop_
_atom_site_label
_atom_site_type_symbol
_atom_site_fract_x
_atom_site_fract_y
_atom_site_fract_z
_atom_site_U_iso_or_equiv
_atom_site_adp_type
_atom_site_occupancy
_atom_site_site_symmetry_order
_atom_site_calc_flag
_atom_site_refinement_flags_posn
_atom_site_refinement_flags_adp
_atom_site_refinement_flags_occupancy
_atom_site_disorder_assembly
_atom_site_disorder_group
K1 K 0.15865(3) 0.67796(4) 0.42387(3) 0.01525(8) Uani 1 1 d . . . . .
S1 S 0.64440(4) 0.52710(4) 0.31643(3) 0.01275(9) Uani 1 1 d . . . . .
F1 F 0.74430(13) 0.71941(12) 0.10563(10) 0.0306(2) Uani 1 1 d . . . . .
F2 F 0.93803(11) 0.54175(12) 0.15219(9) 0.0254(2) Uani 1 1 d . . . . .
F3 F 0.69155(12) 0.44770(13) 0.02888(9) 0.0286(2) Uani 1 1 d . . . . .
O3 O 0.46497(12) 0.58078(12) 0.29145(10) 0.01713(19) Uani 1 1 d . . . . .
O4 O 0.65518(12) 0.34387(12) 0.32206(10) 0.01727(19) Uani 1 1 d . . . . .
O1 O 0.72771(13) 1.02321(12) 0.69435(10) 0.0176(2) Uani 1 1 d . . . . .
O2 O 0.96563(12) 0.84951(13) 0.66072(10) 0.01734(19) Uani 1 1 d . . . . .
N1 N 0.76512(14) 0.63361(14) 0.43651(12) 0.0144(2) Uani 1 1 d . . . . .
C1 C 0.72512(17) 0.81190(16) 0.48503(14) 0.0157(2) Uani 1 1 d . . . . .
H1A H 0.593506 0.823147 0.469809 0.019 Uiso 1 1 calc R . . . .
H1B H 0.796690 0.893912 0.426602 0.019 Uiso 1 1 calc R . . . .
C2 C 0.77491(16) 0.85388(16) 0.64629(14) 0.0146(2) Uani 1 1 d . . . . .
H2 H 0.708469 0.767239 0.705179 0.017 Uiso 1 1 calc R . . . .
C3 C 0.6087(2) 1.03199(19) 0.81838(16) 0.0230(3) Uani 1 1 d . . . . .
H3A H 0.666781 0.987721 0.901393 0.034 Uiso 1 1 calc GR . . . .
H3B H 0.492978 0.961536 0.792425 0.034 Uiso 1 1 calc GR . . . .
H3C H 0.584987 1.152728 0.846260 0.034 Uiso 1 1 calc GR . . . .
C4 C 1.02618(19) 0.8786(2) 0.81117(15) 0.0220(3) Uani 1 1 d . . . . .
H4A H 0.956042 0.796280 0.868409 0.033 Uiso 1 1 calc GR . . . .
H4B H 1.007496 0.997300 0.851431 0.033 Uiso 1 1 calc GR . . . .
H4C H 1.156498 0.862067 0.816752 0.033 Uiso 1 1 calc GR . . . .
C5 C 0.75816(18) 0.55939(18) 0.14057(15) 0.0185(3) Uani 1 1 d . . . . .
loop_
_atom_site_aniso_label
_atom_site_aniso_U_11
_atom_site_aniso_U_22
_atom_site_aniso_U_33
_atom_site_aniso_U_23
_atom_site_aniso_U_13
_atom_site_aniso_U_12
K1 0.01196(13) 0.01668(14) 0.01740(14) 0.00307(10) 0.00153(9) 0.00154(9)
S1 0.01067(14) 0.01467(16) 0.01273(15) 0.00066(11) 0.00093(10) 0.00131(10)
F1 0.0376(5) 0.0293(5) 0.0280(5) 0.0138(4) 0.0118(4) 0.0066(4)
F2 0.0139(4) 0.0406(5) 0.0214(4) 0.0003(4) 0.0054(3) 0.0038(3)
F3 0.0275(4) 0.0408(5) 0.0146(4) -0.0069(4) -0.0004(3) 0.0007(4)
O3 0.0118(4) 0.0218(5) 0.0178(4) 0.0012(4) 0.0001(3) 0.0031(3)
O4 0.0179(4) 0.0138(4) 0.0196(5) 0.0001(3) -0.0005(3) 0.0013(3)
O1 0.0215(5) 0.0129(4) 0.0184(5) 0.0001(3) 0.0053(4) 0.0029(3)
O2 0.0129(4) 0.0241(5) 0.0140(4) -0.0028(4) 0.0003(3) 0.0017(3)
N1 0.0134(5) 0.0143(5) 0.0151(5) -0.0002(4) -0.0006(4) 0.0022(4)
C1 0.0166(6) 0.0134(6) 0.0173(6) 0.0011(5) 0.0000(5) 0.0022(4)
C2 0.0135(5) 0.0121(6) 0.0178(6) 0.0007(5) 0.0028(4) 0.0010(4)
C3 0.0252(7) 0.0212(7) 0.0227(7) -0.0008(5) 0.0090(5) 0.0060(5)
C4 0.0204(6) 0.0279(7) 0.0167(6) -0.0040(5) -0.0023(5) 0.0047(5)
C5 0.0166(6) 0.0230(7) 0.0159(6) 0.0011(5) 0.0018(5) 0.0031(5)
loop_
_atom_type_symbol
_atom_type_description
_atom_type_scat_dispersion_real
_atom_type_scat_dispersion_imag
_atom_type_scat_source
C C 0.0033 0.0016 'International Tables Vol C Tables 4.2.6.8 and 6.1.1.4'
H H 0.0000 0.0000 'International Tables Vol C Tables 4.2.6.8 and 6.1.1.4'
F F 0.0171 0.0103 'International Tables Vol C Tables 4.2.6.8 and 6.1.1.4'
K K 0.2009 0.2494 'International Tables Vol C Tables 4.2.6.8 and 6.1.1.4'
N N 0.0061 0.0033 'International Tables Vol C Tables 4.2.6.8 and 6.1.1.4'
O O 0.0106 0.0060 'International Tables Vol C Tables 4.2.6.8 and 6.1.1.4'
S S 0.1246 0.1234 'International Tables Vol C Tables 4.2.6.8 and 6.1.1.4'
loop_
_geom_angle_atom_site_label_1
_geom_angle_atom_site_label_2
_geom_angle_atom_site_label_3
_geom_angle
_geom_angle_site_symmetry_1
_geom_angle_site_symmetry_3
_geom_angle_publ_flag
S1 K1 K1 65.653(10) 2_666 2_566 ?
F2 K1 K1 79.984(19) 1_455 2_566 ?
F2 K1 S1 131.74(2) 1_455 2_666 ?
O3 K1 K1 116.82(2) . 2_566 ?
O3 K1 S1 77.13(2) . 2_666 ?
O3 K1 F2 90.52(3) . 1_455 ?
O3 K1 O4 84.47(3) . 2_666 ?
O3 K1 O1 80.65(3) . 2_676 ?
O3 K1 O2 152.94(3) . 1_455 ?
O3 K1 N1 76.13(3) . 2_666 ?
O3 K1 N1 147.82(3) . 1_455 ?
O4 K1 K1 81.27(2) 2_666 2_566 ?
O4 K1 S1 24.23(2) 2_666 2_666 ?
O4 K1 F2 155.84(3) 2_666 1_455 ?
O4 K1 O1 111.06(3) 2_666 2_676 ?
O4 K1 O2 72.48(3) 2_666 1_455 ?
O4 K1 N1 116.74(3) 2_666 1_455 ?
O4 K1 N1 50.69(3) 2_666 2_666 ?
O1 K1 K1 160.25(2) 2_676 2_566 ?
O1 K1 S1 130.86(2) 2_676 2_666 ?
O1 K1 F2 91.29(3) 2_676 1_455 ?
O1 K1 O2 94.32(3) 2_676 1_455 ?
O1 K1 N1 151.45(3) 2_676 2_666 ?
O1 K1 N1 110.32(3) 2_676 1_455 ?
O2 K1 K1 74.22(2) 1_455 2_566 ?
O2 K1 S1 86.70(2) 1_455 2_666 ?
O2 K1 F2 116.29(3) 1_455 1_455 ?
O2 K1 N1 98.82(3) 1_455 2_666 ?
O2 K1 N1 58.72(3) 1_455 1_455 ?
N1 K1 K1 50.01(2) 1_455 2_566 ?
N1 K1 K1 48.14(2) 2_666 2_566 ?
N1 K1 S1 26.67(2) 2_666 2_666 ?
N1 K1 S1 111.79(2) 1_455 2_666 ?
N1 K1 F2 105.17(3) 2_666 1_455 ?
N1 K1 F2 59.98(3) 1_455 1_455 ?
N1 K1 N1 98.15(3) 1_455 2_666 ?
O3 S1 K1 135.82(4) . 2_666 ?
O3 S1 N1 117.74(6) . . ?
O3 S1 C5 102.01(6) . . ?
O4 S1 K1 50.61(4) . 2_666 ?
O4 S1 O3 116.69(6) . . ?
O4 S1 N1 110.57(6) . . ?
O4 S1 C5 101.18(6) . . ?
N1 S1 K1 60.61(4) . 2_666 ?
N1 S1 C5 106.15(6) . . ?
C5 S1 K1 121.34(4) . 2_666 ?
C5 F2 K1 122.41(7) . 1_655 ?
S1 O3 K1 144.33(6) . . ?
S1 O4 K1 105.16(5) . 2_666 ?
C2 O1 K1 126.84(7) . 2_676 ?
C2 O1 C3 114.34(10) . . ?
C3 O1 K1 118.82(8) . 2_676 ?
C2 O2 K1 118.82(7) . 1_655 ?
C2 O2 C4 112.30(10) . . ?
C4 O2 K1 125.16(7) . 1_655 ?
K1 N1 K1 81.85(3) 1_655 2_666 ?
S1 N1 K1 123.44(6) . 1_655 ?
S1 N1 K1 92.73(5) . 2_666 ?
C1 N1 K1 137.26(8) . 2_666 ?
C1 N1 K1 100.92(7) . 1_655 ?
C1 N1 S1 118.62(9) . . ?
K1 C1 H1A 159.8 1_655 . ?
K1 C1 H1B 70.6 1_655 . ?
N1 C1 K1 54.54(6) . 1_655 ?
N1 C1 H1A 109.9 . . ?
N1 C1 H1B 109.9 . . ?
N1 C1 C2 108.90(10) . . ?
H1A C1 H1B 108.3 . . ?
C2 C1 K1 88.70(7) . 1_655 ?
C2 C1 H1A 109.9 . . ?
C2 C1 H1B 109.9 . . ?
O1 C2 C1 108.66(10) . . ?
O1 C2 H2 110.3 . . ?
O2 C2 O1 109.60(10) . . ?
O2 C2 C1 107.76(10) . . ?
O2 C2 H2 110.3 . . ?
C1 C2 H2 110.3 . . ?
O1 C3 H3A 109.5 . . ?
O1 C3 H3B 109.5 . . ?
O1 C3 H3C 109.5 . . ?
H3A C3 H3B 109.5 . . ?
H3A C3 H3C 109.5 . . ?
H3B C3 H3C 109.5 . . ?
O2 C4 H4A 109.5 . . ?
O2 C4 H4B 109.5 . . ?
O2 C4 H4C 109.5 . . ?
H4A C4 H4B 109.5 . . ?
H4A C4 H4C 109.5 . . ?
H4B C4 H4C 109.5 . . ?
F1 C5 S1 110.79(9) . . ?
F1 C5 F2 106.83(11) . . ?
F2 C5 S1 110.13(9) . . ?
F3 C5 S1 113.31(9) . . ?
F3 C5 F1 108.15(11) . . ?
F3 C5 F2 107.35(11) . . ?
loop_
_geom_bond_atom_site_label_1
_geom_bond_atom_site_label_2
_geom_bond_distance
_geom_bond_site_symmetry_2
_geom_bond_publ_flag
K1 K1 3.8291(6) 2_566 ?
K1 S1 3.3975(4) 2_666 ?
K1 F2 2.9960(9) 1_455 ?
K1 O3 2.6896(9) . ?
K1 O4 2.7204(10) 2_666 ?
K1 O1 2.7326(10) 2_676 ?
K1 O2 2.8659(9) 1_455 ?
K1 N1 2.9635(11) 2_666 ?
K1 N1 2.8811(11) 1_455 ?
S1 O3 1.4461(9) . ?
S1 O4 1.4448(10) . ?
S1 N1 1.5265(11) . ?
S1 C5 1.8413(14) . ?
F1 C5 1.3344(16) . ?
F2 C5 1.3465(15) . ?
F3 C5 1.3255(16) . ?
O1 C2 1.4202(15) . ?
O1 C3 1.4309(16) . ?
O2 C2 1.4106(15) . ?
O2 C4 1.4301(16) . ?
N1 C1 1.4692(16) . ?
C1 H1A 0.9900 . ?
C1 H1B 0.9900 . ?
C1 C2 1.5089(18) . ?
C2 H2 1.0000 . ?
C3 H3A 0.9800 . ?
C3 H3B 0.9800 . ?
C3 H3C 0.9800 . ?
C4 H4A 0.9800 . ?
C4 H4B 0.9800 . ?
C4 H4C 0.9800 . ?
