#------------------------------------------------------------------------------
#$Date: 2021-04-24 01:27:22 +0300 (Sat, 24 Apr 2021) $
#$Revision: 264489 $
#$URL: file:///home/coder/svn-repositories/cod/cif/4/00/39/4003915.cif $
#------------------------------------------------------------------------------
#
# This file is available in the Crystallography Open Database (COD),
# http://www.crystallography.net/
#
# All data on this site have been placed in the public domain by the
# contributors.
#
data_4003915
loop_
_publ_author_name
'Xie, Yongfa'
'Zheng, Jingjing'
'Zheng, Kuangqi'
'Liu, Qing'
'Duan, Jie'
'Chen, Wei'
'Shao, Shuke'
'Cai, Hu'
_publ_section_title
;
 High-Temperature Switchable Nonlinear Optical and Dielectric Material
 Revealed by Molecular Modification
;
_journal_name_full               'Chemistry of Materials'
_journal_paper_doi               10.1021/acs.chemmater.0c04220
_journal_year                    2021
_chemical_formula_moiety         'C7 H14 N, O4 Re'
_chemical_formula_sum            'C7 H14 N O4 Re'
_chemical_formula_weight         362.40
_space_group_crystal_system      monoclinic
_space_group_IT_number           4
_space_group_name_Hall           'P 2yb'
_space_group_name_H-M_alt        'P 1 21 1'
_atom_sites_solution_hydrogens   geom
_audit_creation_method           SHELXL-2014/7
_cell_angle_alpha                90
_cell_angle_beta                 92.448(6)
_cell_angle_gamma                90
_cell_formula_units_Z            2
_cell_length_a                   6.2799(4)
_cell_length_b                   9.0158(5)
_cell_length_c                   8.7582(6)
_cell_measurement_reflns_used    2443
_cell_measurement_temperature    300
_cell_measurement_theta_max      29.5810
_cell_measurement_theta_min      3.2330
_cell_volume                     495.42(5)
_computing_cell_refinement       'CrysAlisPro 1.171.40.14e (Rigaku OD, 2018)'
_computing_data_collection       'CrysAlisPro 1.171.40.14e (Rigaku OD, 2018)'
_computing_data_reduction        'CrysAlisPro 1.171.40.14e (Rigaku OD, 2018)'
_computing_structure_refinement  'SHELXL-2014/7 (Sheldrick, 2014)'
_diffrn_ambient_temperature      300
_diffrn_measured_fraction_theta_full 0.973
_diffrn_measured_fraction_theta_max 0.786
_diffrn_measurement_device_type  'XtaLAB Synergy R, DW system, HyPix'
_diffrn_radiation_type           MoK\a
_diffrn_radiation_wavelength     0.71073
_diffrn_reflns_av_R_equivalents  0.0411
_diffrn_reflns_av_unetI/netI     0.0678
_diffrn_reflns_Laue_measured_fraction_full 0.973
_diffrn_reflns_Laue_measured_fraction_max 0.786
_diffrn_reflns_limit_h_max       8
_diffrn_reflns_limit_h_min       -7
_diffrn_reflns_limit_k_max       10
_diffrn_reflns_limit_k_min       -12
_diffrn_reflns_limit_l_max       11
_diffrn_reflns_limit_l_min       -10
_diffrn_reflns_number            3660
_diffrn_reflns_point_group_measured_fraction_full 0.917
_diffrn_reflns_point_group_measured_fraction_max 0.701
_diffrn_reflns_theta_full        25.242
_diffrn_reflns_theta_max         30.515
_diffrn_reflns_theta_min         3.244
_exptl_absorpt_coefficient_mu    12.248
_exptl_absorpt_correction_T_max  1.00000
_exptl_absorpt_correction_T_min  0.15508
_exptl_absorpt_correction_type   multi-scan
_exptl_crystal_colour            colourless
_exptl_crystal_density_diffrn    2.429
_exptl_crystal_description       block
_exptl_crystal_F_000             582
_exptl_crystal_size_max          0.2
_exptl_crystal_size_mid          0.1
_exptl_crystal_size_min          0.1
_refine_diff_density_max         0.781
_refine_diff_density_min         -1.238
_refine_diff_density_rms         0.187
_refine_ls_abs_structure_details
;
 Flack x determined using 678 quotients [(I+)-(I-)]/[(I+)+(I-)]
 (Parsons, Flack and Wagner, Acta Cryst. B69 (2013) 249-259).
;
_refine_ls_abs_structure_Flack   0.02(2)
_refine_ls_extinction_method     none
_refine_ls_goodness_of_fit_ref   0.943
_refine_ls_hydrogen_treatment    constr
_refine_ls_matrix_type           full
_refine_ls_number_parameters     118
_refine_ls_number_reflns         2109
_refine_ls_number_restraints     1
_refine_ls_restrained_S_all      0.943
_refine_ls_R_factor_all          0.0424
_refine_ls_R_factor_gt           0.0348
_refine_ls_shift/su_max          0.001
_refine_ls_shift/su_mean         0.000
_refine_ls_structure_factor_coef Fsqd
_refine_ls_weighting_details
'w=1/[\s^2^(Fo^2^)+(0.0236P)^2^] where P=(Fo^2^+2Fc^2^)/3'
_refine_ls_weighting_scheme      calc
_refine_ls_wR_factor_gt          0.0643
_refine_ls_wR_factor_ref         0.0662
_reflns_Friedel_coverage         0.686
_reflns_Friedel_fraction_full    0.852
_reflns_Friedel_fraction_max     0.605
_reflns_number_gt                1815
_reflns_number_total             2109
_reflns_threshold_expression     'I > 2\s(I)'
_cod_data_source_file            cm0c04220_si_002.cif
_cod_data_source_block           IsoQReO4_300K
_cod_original_sg_symbol_H-M      'P 21'
_cod_database_code               4003915
_shelx_shelxl_version_number     2014/7
_shelx_space_group_comment
;
The symmetry employed for this shelxl refinement is uniquely defined
by the following loop, which should always be used as a source of
symmetry information in preference to the above space-group names.
They are only intended as comments.
;
_shelx_res_file
;

    P21A.res created by SHELXL-2014/7

TITL P21A in P2(1)
CELL 0.71073   6.2799   9.0158   8.7582  90.000  92.448  90.000
ZERR    6.00   0.0004   0.0005   0.0006   0.000   0.006   0.000
LATT -1
SYMM -X, 0.5+Y, -Z
SFAC C  H  N  O  Re
UNIT 6 6 6 6 6
L.S. 50
ACTA
BOND
FMAP 2
PLAN 6
BIND C6   C5
WGHT    0.023600
FVAR       0.22845
MOLE 1
O3    4    0.448707    0.640278    0.868991    11.00000    0.06736    0.04604 =
         0.05475    0.01169    0.00505   -0.00696
O4    4    0.225979    0.876330    0.730070    11.00000    0.07957    0.06800 =
         0.09954    0.01438   -0.00189    0.04584
O2    4    0.670660    0.857262    0.709862    11.00000    0.06901    0.07376 =
         0.08317   -0.00967   -0.00268   -0.04655
O1    4    0.405714    0.656794    0.551407    11.00000    0.06846    0.06953 =
         0.03892   -0.01024   -0.00604   -0.02223
RE1   5    0.439322    0.761215    0.715493    11.00000    0.03099    0.02888 =
         0.03658    0.00080   -0.00030   -0.00136
N1    3    1.071982    0.620508    0.320107    11.00000    0.03780    0.02907 =
         0.03274   -0.00207   -0.00677    0.00391
AFIX  23
H1A   2    1.024862    0.528927    0.301364    11.00000   -1.20000
H1B   2    1.182206    0.614456    0.387142    11.00000   -1.20000
AFIX   0
C1    1    1.056045    0.934986    0.287812    11.00000    0.06372    0.03192 =
         0.06074   -0.01084    0.01110   -0.00509
AFIX  23
H1C   2    1.026053    1.023736    0.228089    11.00000   -1.20000
H1D   2    1.106465    0.964868    0.389433    11.00000   -1.20000
AFIX   0
C5    1    0.855136    0.842738    0.297622    11.00000    0.03316    0.03307 =
         0.05884    0.00089    0.01317    0.01004
AFIX  13
H5    2    0.743798    0.900990    0.344839    11.00000   -1.20000
AFIX   0
C7    1    0.900000    0.708974    0.387335    11.00000    0.04695    0.03385 =
         0.05105   -0.00975    0.00457   -0.00058
AFIX  23
H7A   2    0.771762    0.649298    0.390690    11.00000   -1.20000
H7B   2    0.942665    0.736474    0.491262    11.00000   -1.20000
AFIX   0
C4    1    0.955522    0.705257    0.063647    11.00000    0.04883    0.06215 =
         0.03221   -0.00353   -0.00512   -0.00087
AFIX  23
H4A   2    0.898296    0.607898    0.038632    11.00000   -1.20000
H4B   2    0.998085    0.751508   -0.030285    11.00000   -1.20000
AFIX   0
C2    1    1.223638    0.844250    0.213789    11.00000    0.03120    0.05176 =
         0.06266    0.01527    0.00447   -0.00379
AFIX  23
H2A   2    1.347637    0.836468    0.283248    11.00000   -1.20000
H2B   2    1.266864    0.894673    0.122306    11.00000   -1.20000
AFIX   0
C6    1    0.782910    0.799839    0.135528    11.00000    0.04085    0.06508 =
         0.05264   -0.01570   -0.02050    0.01768
AFIX  23
H6A   2    0.757080    0.888541    0.074851    11.00000   -1.20000
H6B   2    0.650898    0.744126    0.137277    11.00000   -1.20000
AFIX   0
C3    1    1.145964    0.689401    0.171458    11.00000    0.03788    0.04369 =
         0.05163   -0.00153    0.01457    0.00060
AFIX  13
H3    2    1.258352    0.630200    0.126687    11.00000   -1.20000
AFIX   0
HKLF 4

REM  P21A in P2(1)
REM R1 =  0.0348 for    1815 Fo > 4sig(Fo)  and  0.0424 for all    2109 data
REM    118 parameters refined using      1 restraints

END

WGHT      0.0236      0.0000

REM Highest difference peak  0.781,  deepest hole -1.238,  1-sigma level  0.187
Q1    1   0.9568  0.7594  0.6600  11.00000  0.05    0.78
Q2    1   0.5405  0.7048  0.6163  11.00000  0.05    0.77
Q3    1   0.5389  0.8182  0.6154  11.00000  0.05    0.77
Q4    1   0.3289  0.8179  0.8233  11.00000  0.05    0.65
Q5    1   0.7510  0.7596  0.7307  11.00000  0.05    0.65
Q6    1   0.3622  0.7622  0.8140  11.00000  0.05    0.65
;
_shelx_res_checksum              50727
_shelx_hkl_file
;
   0 -12   0   30.10   12.37
   0 -12  -1   -1.80    6.82
   0 -11   0   -1.75    6.65
   0 -11   1   78.16   16.34
   0 -11  -1   44.75   12.62
   0 -11  -2   10.93    7.72
   0 -10   0   75.11   14.85
   0 -10   1    3.30    6.85
   0 -10  -1    4.48    6.70
   0 -10   1    5.92    3.02
   0 -10  -2   85.07   15.14
   0 -10   2   67.30    7.72
   0 -10  -3   18.54    8.03
   0 -10  -4   33.97   10.05
   0 -10   4   24.54    5.21
   0 -10   5   42.27    6.48
   0  -9   0    0.42    1.75
   0  -9   0   -2.75    4.94
   0  -9   1  149.26   10.58
   0  -9  -1  160.33   19.01
   0  -9   1  179.37   20.76
   0  -9  -1  150.30   10.19
   0  -9  -2   16.15    7.74
   0  -9   2   15.95    3.72
   0  -9   2   22.77    8.73
   0  -9  -3   57.63   12.75
   0  -9   3   59.44    3.01
   0  -9   4   53.66    6.81
   0  -9   4   48.13    3.59
   0  -9  -4   55.04   13.23
   0  -9   5    8.72    3.60
   0  -9  -5   16.88    9.91
   0  -9   5   15.29    2.51
   0  -9   6   53.09    7.27
   0  -9   6   56.35    5.10
   0  -9   7    0.53    2.44
   0  -8   0  184.09   19.19
   0  -8   0  153.74    9.91
   0  -8   1    8.34    2.81
   0  -8   1   18.77    7.65
   0  -8  -1    8.44    2.67
   0  -8  -1    6.01    5.39
   0  -8  -2  165.45   18.97
   0  -8   2  147.77   18.13
   0  -8  -3   66.90   13.81
   0  -8   3   56.25    3.32
   0  -8  -4   57.06   13.33
   0  -8  -4   38.32    3.81
   0  -8   4   50.34    6.13
   0  -8   4   52.51    3.86
   0  -8   5   90.21    8.28
   0  -8  -5   89.90   16.24
   0  -8   5   77.70    5.46
   0  -8   6    2.90    1.74
   0  -8   6    5.98    3.12
   0  -8   7   51.92    5.72
   0  -8   7   59.49    7.00
   0  -8   8    0.41    1.99
   0  -8   9   19.93    4.35
   0  -7   0   -1.03    4.09
   0  -7   0    0.31    1.44
   0  -7  -1  256.66   12.16
   0  -7   1  270.10   12.85
   0  -7  -1  311.16   23.92
   0  -7   1  268.21   21.80
   0  -7  -2   31.54    9.33
   0  -7   2   33.11    8.78
   0  -7   2   26.76    1.83
   0  -7  -2   29.22    3.83
   0  -7   3  110.24    8.35
   0  -7   3  134.36    5.77
   0  -7  -3  140.06   18.11
   0  -7  -3  139.62    6.01
   0  -7   4   87.72    5.34
   0  -7   4   84.41    7.36
   0  -7   5   33.30    4.76
   0  -7   5   32.45    3.63
   0  -7   6   87.33    6.64
   0  -7   6   91.83    7.89
   0  -7   7    0.35    1.75
   0  -7   7   -0.41    1.97
   0  -7   8   60.69    6.59
   0  -7   8   54.79    6.33
   0  -7   9    5.70    2.85
   0  -6   0  235.40   10.83
   0  -6   0  216.06   17.96
   0  -6  -1   15.34    2.69
   0  -6  -1   14.32    6.26
   0  -6   1   16.87    5.93
   0  -6   1   15.28    2.75
   0  -6   2  280.31   21.28
   0  -6  -2  262.11   21.99
   0  -6   2  246.71    7.62
   0  -6  -2  233.90   10.52
   0  -6   3  123.92    8.08
   0  -6   3  133.47    5.99
   0  -6   4   85.93    5.41
   0  -6   4   97.44    7.19
   0  -6   5  143.37    7.95
   0  -6   5  138.50    8.98
   0  -6   6    7.12    2.17
   0  -6   6    7.85    2.42
   0  -6   7   82.14    7.01
   0  -6   7   91.93    7.27
   0  -6   8    2.44    2.29
   0  -6   8    1.42    2.09
   0  -6   9   39.40    5.62
   0  -6  10    8.93    3.56
   0  -5   0   -0.75    3.26
   0  -5   0    0.85    0.95
   0  -5   1  364.94   13.60
   0  -5   1  349.57   21.41
   0  -5  -1  365.89   13.22
   0  -5   1  375.90    9.13
   0  -5  -1  397.46   24.87
   0  -5  -2   65.35    4.63
   0  -5   2   78.09   10.40
   0  -5   2   67.57    3.43
   0  -5   3  246.25    9.03
   0  -5   3  269.67   11.43
   0  -5   4  161.95    7.80
   0  -5   4  175.57    9.14
   0  -5   5   39.90    4.33
   0  -5   5   35.45    3.82
   0  -5   6  109.40    7.40
   0  -5   6  124.30    7.87
   0  -5   7    0.29    1.49
   0  -5   7    0.69    1.76
   0  -5   8   72.82    7.11
   0  -5   8   74.77    6.18
   0  -5   9    9.20    3.12
   0  -5  10   25.06    5.01
   0  -4   0  248.11    9.42
   0  -4   0  242.96   16.40
   0  -4   1   11.54    4.04
   0  -4  -1   13.49    1.97
   0  -4  -1    5.70    3.83
   0  -4   1   13.95    2.08
   0  -4   1   13.68    1.06
   0  -4   2  300.31    8.92
   0  -4  -2  274.56    9.83
   0  -4   2  281.30   17.98
   0  -4  -3  149.37    6.09
   0  -4   3  139.00    7.24
   0  -4   4  131.69    7.20
   0  -4  -4  149.88    6.82
   0  -4  -5  161.33    7.93
   0  -4   5  163.15    8.20
   0  -4   6   16.38    2.71
   0  -4   6   14.58    2.79
   0  -4  -6   14.28    2.58
   0  -4  -7  109.35    7.37
   0  -4   7  122.56    8.40
   0  -4   7  105.47    6.70
   0  -4   8   -0.39    1.75
   0  -4   8    1.70    1.39
   0  -4   9   67.20    7.28
   0  -4  10    8.57    3.08
   0  -3   0   -0.12    0.66
   0  -3   0    0.49    2.34
   0  -3  -1  627.63   16.45
   0  -3   1  615.32   14.47
   0  -3  -2  208.91    6.61
   0  -3   2  216.71   14.14
   0  -3  -2  205.76    7.16
   0  -3   3  414.05   13.08
   0  -3  -3  428.21   12.47
   0  -3  -4  328.78   11.17
   0  -3   4  325.10   11.18
   0  -3  -5   68.42    4.82
   0  -3   5   73.49    4.70
   0  -3   6  227.65    9.35
   0  -3  -6  237.69   10.49
   0  -3   7   -0.34    1.57
   0  -3   7   -0.75    1.11
   0  -3  -7    0.29    1.28
   0  -3   8   93.53    5.70
   0  -3   8  101.50    8.15
   0  -3  -8  110.68    7.86
   0  -3   9   14.85    3.56
   0  -3  10   33.43    5.60
   0  -2   0 1205.29   38.27
   0  -2   0 1446.77   31.90
   0  -2   1   27.78    4.09
   0  -2  -1   25.71    1.31
   0  -2  -1   23.14    1.74
   0  -2  -2  637.13   16.08
   0  -2  -3  194.22    7.15
   0  -2   3  183.39    6.77
   0  -2  -4  195.05    8.09
   0  -2   4  195.88    7.13
   0  -2   5  278.48    9.40
   0  -2  -5  279.54   10.88
   0  -2  -6   18.56    2.76
   0  -2   6   21.40    2.22
   0  -2   7  180.51    7.33
   0  -2  -7  195.19    9.90
   0  -2  -8    4.21    1.98
   0  -2   8    8.00    2.70
   0  -2   9   62.74    7.02
   0  -2  10   19.63    4.46
   0  -1  -1  600.49   14.04
   0  -1   1  592.73   18.55
   0  -1  -1  627.78   13.92
   0  -1   2  208.12    6.05
   0  -1  -2  208.39    6.59
   0  -1   3  506.98   12.69
   0  -1  -3  506.99   14.21
   0  -1  -4  273.77    9.90
   0  -1   4  268.29    7.89
   0  -1   5  132.45    4.98
   0  -1  -5  141.72    7.18
   0  -1   6  341.57   10.01
   0  -1  -6  373.37   13.64
   0  -1   7    1.35    0.77
   0  -1  -7    1.63    1.34
   0  -1  -8  123.60    8.18
   0  -1   9    5.02    2.30
   0  -1  10   29.42    4.96
   0  -1 -10   36.85    8.19
   0   0  -2 1234.30   28.36
   0   0  -3  313.04    9.86
   0   0  -4  215.32    8.53
   0   0   4  219.15    5.69
   0   0   5  476.06   11.31
   0   0  -5  484.73   15.79
   0   0  -6   19.94    2.82
   0   0  -7  246.21   11.32
   0   0  -8   10.73    2.68
   0   0  -9   87.01   11.86
   0   1  -1  602.36   13.98
   0   1  -1  598.71   18.17
   0   1  -7   -0.79    3.14
   0   1  -8  120.52   13.46
   0   1   9    7.95    2.86
   0   1  -9    2.92    3.69
   0   1  10   28.88    4.92
   0   1  11    9.87    3.65
   0   2  -1   21.01    1.28
   0   2  -1   17.99    1.59
   0   2   2  749.25   17.40
   0   2  -2  720.23   25.47
   0   2  -2  723.95   18.06
   0   2   3  221.77    6.11
   0   2  -3  205.77    7.63
   0   2  -3  221.42   13.61
   0   2   4  225.18    5.97
   0   2  -4  242.81   15.52
   0   2  -4  228.94    8.92
   0   2  -5  310.98   19.05
   0   2  -5  291.01   11.32
   0   2  -6   22.34    3.00
   0   2  -6   30.72    6.59
   0   2  -7  198.81   16.81
   0   2  -7  186.90    9.62
   0   2  -8    3.16    1.82
   0   2   8    2.06    1.84
   0   2   9   80.61    7.31
   0   2  10   15.15    3.82
   0   2  11   12.95    3.95
   0   3  -1  624.55   14.83
   0   3  -1  650.00   16.81
   0   3   1  637.28   14.17
   0   3   1  635.32   16.45
   0   3   2  217.45    7.11
   0   3  -2  215.36    7.02
   0   3  -3  409.57   20.90
   0   3  -3  447.34   13.05
   0   3   3  437.15   11.74
   0   3  -4  345.26   11.82
   0   3  -4  356.94   20.14
   0   3   4  344.16    9.46
   0   3  -5   73.20    5.02
   0   3  -5   89.60   10.42
   0   3  -6  204.99    9.60
   0   3  -6  195.93   16.47
   0   3  -7    0.27    1.19
   0   3  -7   -0.91    3.94
   0   3   8  114.47    8.04
   0   3  -8  115.50   14.05
   0   3  -8  104.59    7.61
   0   3   9   11.61    3.09
   0   3  10   33.44    5.12
   0   4   1   11.38    1.67
   0   4  -1   11.48    1.66
   0   4  -1    6.67    3.93
   0   4   2  319.33    8.50
   0   4   2  322.74   10.24
   0   4  -2  313.93    9.21
   0   4  -3  146.74    6.15
   0   4   3  150.58    6.00
   0   4  -4  136.41   13.01
   0   4   4  143.65    5.61
   0   4  -4  134.73    6.50
   0   4  -5  191.22   15.97
   0   4  -5  169.16    7.99
   0   4   6   17.96    2.82
   0   4  -6   17.38    2.74
   0   4  -6    9.96    4.98
   0   4  -7  120.53    7.63
   0   4   7  109.83    7.26
   0   4  -7  119.94   13.96
   0   4   8    1.91    1.66
   0   4  -8    2.89    1.80
   0   4   9   60.91    6.34
   0   4  10   13.92    3.41
   0   5  -1  331.30   21.61
   0   5   1  364.28   11.97
   0   5   2   69.93    2.63
   0   5   2   63.18    4.14
   0   5  -2   74.12   10.49
   0   5  -3  237.34    8.51
   0   5   3  240.55    7.63
   0   5   3  245.24    8.94
   0   5   4  163.50    6.68
   0   5  -4  165.99    7.36
   0   5   5   43.54    3.64
   0   5  -5   41.48    3.79
   0   5  -5   41.20    8.92
   0   5  -6  106.25    6.72
   0   5  -6   97.75   13.31
   0   5   6  107.14    6.39
   0   5  -7   -2.24    4.64
   0   5  -7    0.85    1.18
   0   5   7    0.26    1.26
   0   5  -8   77.97    6.66
   0   5   8   92.14    6.87
   0   5   9   13.34    3.19
   0   5  10   27.77    4.60
   0   6  -2  210.57   19.03
   0   6   3  121.64    4.45
   0   6  -3  104.73   14.34
   0   6   4   84.52    4.32
   0   6  -4   90.62   13.27
   0   6   5  155.47    6.92
   0   6  -5  140.25    7.37
   0   6   6    6.59    1.71
   0   6  -6    6.23    4.96
   0   6  -6    6.18    1.90
   0   6   7  101.53    6.58
   0   6   8    0.58    1.44
   0   6   9   34.82    4.79
   0   6  10   13.22    3.49
   0   7  -2   25.88    1.68
   0   7  -2   24.22    7.84
   0   7  -3  136.02   17.07
   0   7   3  122.66    3.87
   0   7   4   82.64    3.86
   0   7  -4   63.01   12.83
   0   7   5   36.70    3.02
   0   7  -5   32.82    9.82
   0   7   6   88.39    5.38
   0   7   7    0.23    1.21
   0   7   8   50.30    4.91
   0   7   9    6.31    2.27
   0   7  10   17.00    3.52
   0   8  -3   42.93   10.54
   0   8   4   55.36    2.58
   0   8  -4   40.48   11.14
   0   8   5   83.85    4.20
   0   8   6    3.00    1.17
   0   8   7   58.87    4.55
   0   8   8    0.24    1.19
   0   9  -3   53.48    2.21
   0   9  -4   53.87    3.48
   0   9   5   16.99    1.47
   0   9   6   57.11    3.53
   1 -12  -2   48.02   17.94
   1 -12  -1   -8.54   12.31
   1 -12   0   48.95   17.63
   1 -12   1   20.23   13.42
   1 -11  -3   39.21   17.13
   1 -11  -2    0.51    2.22
   1 -11  -2   -2.70   11.22
   1 -11  -1   62.85   18.85
   1 -11  -1   40.78    6.60
   1 -11   0   10.36    9.82
   1 -11   0    9.23    3.98
   1 -11   1   34.66    6.39
   1 -11   1   36.29   16.16
   1 -11   2   38.94   15.24
   1 -11   2   15.26    4.58
   1 -11   3   25.53   14.03
   1 -10  -5    9.59   11.49
   1 -10  -4   57.73   20.01
   1 -10  -3    5.18    2.74
   1 -10  -3    2.93   10.54
   1 -10  -2   75.33    7.82
   1 -10  -2  111.94   23.31
   1 -10  -1    2.44    2.48
   1 -10  -1    4.87    9.22
   1 -10   0   60.14   16.46
   1 -10   0   69.62    7.89
   1 -10   1   27.28   12.50
   1 -10   1   28.61    5.41
   1 -10   2   25.57    5.26
  -1 -10  -2   30.09    7.75
   1 -10   2   34.16   13.10
   1 -10   3   57.25   16.51
  -1 -10  -3   55.52    9.07
   1 -10   4    4.35    3.16
   1 -10   5   35.46    6.46
  -1  -9   6   33.31    4.03
   1  -9  -5   24.13   15.78
  -1  -9   5   40.34    3.95
  -1  -9   4   20.93    2.69
   1  -9  -4   17.64   13.19
   1  -9  -3   74.96    7.16
  -1  -9   3  108.27    5.29
   1  -9  -3   86.42   22.99
   1  -9  -2    0.81    1.81
   1  -9  -2    2.67    9.06
   1  -9  -1  108.79    8.89
   1  -9  -1  117.01   22.29
   1  -9   0   18.93    4.24
   1  -9   0   18.67   11.13
   1  -9   1   87.27   17.53
   1  -9   1   73.45    7.72
  -1  -9  -1   61.52    9.87
   1  -9   2   46.89    6.45
   1  -9   2   35.57   12.34
  -1  -9  -2   47.87    8.53
  -1  -9  -3   20.74    5.90
   1  -9   3   26.05   11.27
   1  -9   3   25.92    2.04
   1  -9   4   67.02    7.94
  -1  -9  -4   52.40    7.93
   1  -9   4   80.12   17.20
   1  -9   4   69.82    4.56
   1  -9   5    0.57    2.66
   1  -9   5    0.74    1.33
   1  -9   6   61.94    8.16
   1  -9   6   57.88    5.66
   1  -9   7    4.81    3.82
  -1  -8   9   25.23    4.64
  -1  -8   8    3.37    2.29
  -1  -8   7   46.18    5.12
  -1  -8   6   30.95    3.89
  -1  -8   5   35.54    3.67
  -1  -8   4   73.89    4.95
   1  -8  -4   73.45    6.27
   1  -8  -3    5.26    2.23
  -1  -8   3    4.53    1.27
   1  -8  -3    7.60   10.52
   1  -8  -2  137.51    9.16
   1  -8  -2  157.92   25.88
   1  -8  -1   10.67    2.97
   1  -8  -1   15.49    9.19
   1  -8   0  191.32   11.53
   1  -8   0  200.29   25.15
  -1  -8   0  215.96   17.64
  -1  -8  -1   49.47    8.35
   1  -8   1   61.86    6.50
   1  -8   1   66.01   14.47
   1  -8   2   81.20    7.66
  -1  -8  -2   73.04    9.55
   1  -8   2   82.50    3.15
   1  -8   2   67.62   14.57
   1  -8   2   85.67    3.86
   1  -8   3   96.44   17.64
   1  -8   3   99.15    5.00
  -1  -8  -3  105.53   10.66
  -1  -8  -4   19.84    5.10
   1  -8   4   11.51    2.22
   1  -8   4   12.44    3.72
  -1  -8  -4    9.95    2.38
   1  -8   4    3.54    7.03
  -1  -8  -5   91.32    9.46
   1  -8   5   85.66    8.49
   1  -8   5  106.68    6.87
   1  -8   6    0.52    2.48
   1  -8   6    1.33    1.86
   1  -8   7   53.02    7.08
   1  -8   7   41.69    5.45
   1  -8   8    9.24    3.19
   1  -8   8   11.76    3.80
   1  -8   9   14.28    4.26
   1  -8   9   12.06    3.88
  -1  -7   9   -1.71    1.77
  -1  -7   8   44.99    5.55
  -1  -7   7   13.57    3.04
  -1  -7   6   62.84    5.39
   1  -7  -6   61.03    5.25
   1  -7  -5   90.62    5.82
  -1  -7   5   89.99    5.92
  -1  -7   4   42.01    3.59
   1  -7  -4   39.64    4.16
  -1  -7   3  238.82    8.77
   1  -7  -3  227.83   10.99
   1  -7  -2    0.89    1.42
  -1  -7   2    0.35    0.66
   1  -7  -2   -2.09    7.51
   1  -7  -1  266.37   12.56
   1  -7  -1  272.85   29.97
   1  -7   0   33.42   10.99
   1  -7   0   44.57    4.88
  -1  -7   0   40.87    7.45
   1  -7   1  165.48   20.42
   1  -7   1  159.16    9.71
  -1  -7  -1  151.14   12.99
  -1  -7  -2  136.65   11.64
   1  -7   2  146.01    5.55
   1  -7   2  145.89   19.20
  -1  -7  -3   31.44    5.90
   1  -7   3   39.87   10.80
  -1  -7  -3   42.85    3.77
  -1  -7  -4  153.56    8.74
   1  -7   4  148.56   10.18
  -1  -7  -4  147.88   12.13
   1  -7   4  157.01   20.03
  -1  -7  -5    0.68    3.05
  -1  -7  -5    1.26    1.41
   1  -7   5   -0.85    2.28
   1  -7   6  105.53    8.98
  -1  -7  -6  100.12   11.36
   1  -7   6  104.71    7.70
   1  -7   7    9.55    3.03
   1  -7   7   16.65    4.19
   1  -7   8   36.38    5.60
   1  -7   8   28.48    5.00
   1  -7   9   14.75    3.88
   1  -7   9   12.06    3.94
   1  -7  10    3.13    2.79
  -1  -6  10    0.48    1.90
  -1  -6   9   45.78    5.89
   1  -6  -8    2.07    1.85
  -1  -6   8    3.04    2.09
   1  -6  -7   64.79    5.75
  -1  -6   7   69.23    6.24
  -1  -6   6   36.90    4.24
   1  -6  -6   42.34    4.16
  -1  -6   5   64.33    4.95
   1  -6  -5   66.57    4.80
   1  -6  -4  153.58    6.79
   1  -6  -4  139.18    7.42
  -1  -6   4  147.02    7.17
   1  -6  -3   12.26    1.56
  -1  -6   3   11.45    1.71
   1  -6  -3   10.76    2.24
   1  -6  -2  283.22    7.62
   1  -6  -2  255.34    7.99
   1  -6  -2  277.87   11.67
  -1  -6   2  279.24    8.94
   1  -6  -1   17.40    2.83
   1  -6   0  256.69   11.63
  -1  -6   0  267.38   16.84
   1  -6   1   98.64    6.95
   1  -6   1   97.90    4.29
   1  -6   1  106.52   15.36
  -1  -6  -1   89.90    8.99
  -1  -6  -2  181.31    6.92
  -1  -6  -2  176.19   12.04
   1  -6   2  152.47   17.57
  -1  -6  -3  208.21   13.61
   1  -6   3  211.48   11.20
   1  -6   3  212.90   20.81
  -1  -6  -3  201.95    9.21
  -1  -6  -4   39.80    4.07
   1  -6   4   34.59   10.11
   1  -6   4   23.91    3.92
  -1  -6  -4   31.28    6.19
   1  -6   5  148.96    9.65
   1  -6   6    0.37    1.90
   1  -6   7   75.88    7.20
   1  -6   8   11.53    3.68
   1  -6   8   13.66    3.42
   1  -6   9   24.65    4.37
   1  -6   9   20.07    4.56
   1  -6  10   18.77    3.92
  -1  -5  10   43.20    6.14
  -1  -5   9    0.43    1.94
  -1  -5   8   83.87    7.32
   1  -5  -8   85.10    6.91
  -1  -5   7   23.75    3.85
   1  -5  -7   26.04    3.66
   1  -5  -6   91.54    6.17
  -1  -5   6   81.56    6.24
   1  -5  -5  155.80    7.70
  -1  -5   5  171.87    8.55
   1  -5  -4   72.38    4.54
   1  -5  -4   69.81    4.30
  -1  -5   4   63.20    4.58
  -1  -5   3  444.95   13.74
   1  -5  -3  445.84   14.72
  -1  -5   2    2.90    0.88
   1  -5  -2    2.08    1.18
   1  -5  -1  369.40    9.88
  -1  -5   1  364.67   10.48
   1  -5  -1  360.71   13.14
   1  -5   0   42.83    3.95
   1  -5   0   41.63    1.94
   1  -5   0   40.49    1.74
  -1  -5   0   41.29    5.84
   1  -5   0   37.10    9.95
  -1  -5  -1  218.46   12.63
   1  -5   1  221.54   10.10
   1  -5   1  235.94    7.12
   1  -5   1  252.66   21.99
   1  -5   2  229.86    7.86
  -1  -5  -2  220.32   12.27
  -1  -5  -2  214.03    8.54
   1  -5   2  222.30   19.46
  -1  -5  -3   95.84    5.60
   1  -5   3   77.31    5.89
  -1  -5  -3   87.47    8.30
   1  -5   4  251.48   22.13
   1  -5   4  275.65   12.34
   1  -5   5   -0.30    1.58
   1  -5   6  139.07    8.72
   1  -5   7    6.18    2.47
   1  -5   8   58.79    5.85
   1  -5   9   24.57    4.03
   1  -5   9   30.71    5.51
   1  -5  10    8.97    3.75
   1  -5  10   13.18    3.02
  -1  -4  10    2.39    2.56
  -1  -4   9   57.18    6.44
  -1  -4   8    0.38    1.43
   1  -4  -8    3.87    2.04
  -1  -4   7  104.03    7.60
   1  -4  -7  116.43    7.57
  -1  -4   6   58.05    5.34
   1  -4  -6   53.48    4.63
  -1  -4   5  151.90    7.91
   1  -4  -5  139.61    7.03
   1  -4  -4  309.16    9.80
   1  -4  -4  304.27   10.31
  -1  -4   3   56.04    3.68
   1  -4  -3   56.19    3.61
   1  -4  -2  568.98   16.27
  -1  -4   2  563.51   15.04
   1  -4  -1   14.29    1.13
   1  -4  -1   13.63    1.95
   1  -4  -1   17.64    1.45
  -1  -4   1   15.39    1.47
   1  -4   0  427.22   27.74
   1  -4   0  406.11   13.26
  -1  -4   0  414.45   17.62
   1  -4   0  407.26   10.41
  -1  -4  -1  211.87    7.27
  -1  -4  -1  203.87   10.55
   1  -4   1  205.38   18.81
   1  -4   1  216.85    8.95
   1  -4   1  234.02    7.36
   1  -4   2  316.68   10.38
  -1  -4  -2  333.58   10.92
   1  -4   2  299.66   21.10
  -1  -4  -2  314.09   13.66
   1  -4   3  406.90   14.33
   1  -4   3  409.18   13.19
   1  -4   3  395.79   24.38
   1  -4   4   42.68    4.08
   1  -4   5  238.81   10.71
   1  -4   6    4.17    1.90
   1  -4   7  108.21    7.08
   1  -4   8   27.99    3.81
   1  -4   9   31.17    4.10
   1  -4  10   21.68    3.37
   1  -4  10   16.04    4.37
  -1  -3  10   49.77    6.43
  -1  -3   9    0.83    1.73
  -1  -3   8  107.66    8.18
   1  -3  -8  116.21    8.07
  -1  -3   7   31.37    4.11
   1  -3  -7   35.48    4.14
   1  -3  -6  118.59    6.85
  -1  -3   6  113.84    7.33
  -1  -3   5  179.72    8.63
   1  -3  -5  164.25    7.72
  -1  -3   4   59.87    4.37
   1  -3  -4   62.27    3.07
  -1  -3   3  445.96   13.50
   1  -3  -3  438.67   12.17
   1  -3  -2    2.15    0.69
   1  -3  -2    3.36    0.93
  -1  -3   2    2.77    0.80
   1  -3  -1  510.30   12.62
  -1  -3   1  513.49   13.14
   1  -3   0   41.44    2.44
   1  -3   0   45.12    2.42
  -1  -3  -1  366.33   10.97
   1  -3   1  392.20   23.67
  -1  -3  -1  367.99   12.59
  -1  -3  -2  233.82    8.67
   1  -3   2  242.58    7.48
   1  -3   2  249.40   16.33
   1  -3   3  119.82    6.13
   1  -3   4  333.92   12.26
   1  -3   5   11.52    2.04
   1  -3   6  176.26    8.37
   1  -3   7   14.53    2.51
   1  -3   8   64.49    5.01
   1  -3   9   33.67    3.67
  -1  -3  -9   26.79    5.96
   1  -3  10   13.47    2.29
  -1  -2  10    5.06    2.76
  -1  -2   9   57.54    6.30
  -1  -2   8    7.49    2.50
   1  -2  -8   10.06    2.70
   1  -2  -7  154.66    8.69
  -1  -2   7  153.21    9.06
   1  -2  -6  116.67    6.65
  -1  -2   6   98.36    6.79
  -1  -2   5  184.25    8.70
   1  -2  -4  443.22   10.44
  -1  -2   4  413.45   14.05
  -1  -2   3   82.83    4.53
   1  -2  -3   81.60    3.12
   1  -2  -2  823.70   19.92
  -1  -2   2  792.07   20.06
   1  -2  -1   18.48    1.39
  -1  -2   1   21.57    1.66
   1  -2   0  624.57   15.80
   1  -2   0  632.13   15.78
  -1  -2  -1  373.13   10.96
   1  -2   1  378.43   20.46
   1  -2   2  383.19   11.88
   1  -2   3  377.28   12.68
   1  -2   4   53.34    4.24
   1  -2   5  376.42   14.21
   1  -2   6    6.50    1.46
   1  -2   7  196.43    8.24
   1  -2   8   31.61    3.12
  -1  -2  -8   30.32    6.01
   1  -2   9   35.35    3.28
  -1  -2  -9   33.76    6.70
  -1  -2 -10   31.63    7.02
   1  -2  10   27.69    2.68
  -1  -1  10   47.16    6.03
  -1  -1   9    1.19    1.96
  -1  -1   8  133.27    8.93
   1  -1  -8  142.82    8.79
   1  -1  -7   22.60    3.22
  -1  -1   7   23.73    3.59
   1  -1  -6  246.34   10.37
  -1  -1   6  216.92   10.53
  -1  -1   5  195.57    8.96
  -1  -1   4   99.46    5.49
  -1  -1   3  340.85   10.92
  -1  -1   2    0.09    0.59
   1  -1  -2   -0.09    0.60
   1  -1  -1 1362.30   30.87
  -1  -1   1 1380.38   31.00
   1  -1   0  183.04    6.12
   1  -1   0  181.08    6.01
  -1  -1  -1 1047.15   25.04
  -1  -1  -2  472.70   13.35
   1  -1   3  168.13    7.35
  -1  -1  -3  166.10    8.20
   1  -1   3  184.03   12.01
   1  -1   4  526.86   17.06
  -1  -1  -4  559.68   19.78
  -1  -1  -5    9.75    3.09
   1  -1   5   13.52    2.34
  -1  -1  -6  310.64   16.78
  -1  -1  -7   24.80    5.46
   1  -1   7   25.62    2.39
   1  -1   8   84.33    4.41
  -1  -1  -8   83.08    9.79
   1  -1   9   33.94    2.56
  -1  -1  -9   23.06    6.15
  -1  -1 -10   12.18    5.25
   1   0  -8   10.33    2.61
   1   0  -7  168.15    8.92
   1   0  -6  132.94    7.29
   1   0  -4  397.06    9.42
  -1   0   3   30.27    2.67
  -1   0   2  610.38   15.93
   1   0  -2  646.79   16.18
   1   0  -1   26.32    1.72
  -1   0   1   26.94    1.74
   1   0   0  450.89   11.79
   1   0   0  442.42   11.86
  -1   0  -1  351.03   10.03
  -1   0  -2  255.39   11.40
   1   0   2  276.36   11.36
   1   0   3  152.02    6.76
  -1   0  -3  146.63    8.74
   1   0   4   47.13    3.92
  -1   0  -4   50.93    5.74
   1   0   5  380.59   13.84
  -1   0  -5  383.36   18.51
  -1   0  -6    6.73    3.36
  -1   0  -7  213.60   15.30
   1   0   8   27.52    2.00
  -1   0  -8   19.63    5.26
  -1   0  -9   36.09    7.29
  -1   0 -10   22.84    6.84
  -1   1  10   53.27    6.32
  -1   1   9   -0.38    1.94
  -1   1   8  144.63    9.16
  -1   1   7   24.66    3.51
  -1   1   6  205.09    9.84
   1   1  -4   99.49    3.92
   1   1  -3  386.77   10.37
  -1   1  -2  514.64   21.04
  -1   1  -3  192.68   11.66
  -1   1  -4  554.36   23.00
  -1   1  -5   11.41    3.75
  -1   1  -6  294.21   18.04
  -1   1  -7   17.76    5.19
   1   1   8   82.30    2.77
  -1   1  -8   81.59   10.71
  -1   1  -9   22.64    6.45
  -1   2  10    4.21    2.53
  -1   2   9   66.37    6.33
   1   2  -8    7.26    2.27
  -1   2   8    5.86    2.21
  -1   2   7  168.96    9.11
   1   2  -7  143.10    8.35
  -1   2   6  115.04    6.88
   1   2  -6  111.04    6.60
  -1   2   5  199.79    8.73
  -1   2   4  455.74   13.93
   1   2  -4  439.08   12.47
   1   2  -3   84.94    4.12
  -1   2   3   88.91    4.46
   1   2  -2  819.41   20.47
  -1   2   2  829.90   19.91
   1   2  -2  819.63   20.68
   1   2  -1   23.48    1.69
  -1   2   1   25.75    1.66
   1   2   0  658.57   15.55
   1   2   0  695.40   19.33
  -1   2  -1  388.90   10.73
  -1   2  -2  388.62   19.93
   1   2   3  418.54   12.87
  -1   2  -3  396.31   20.43
  -1   2  -4   33.08    6.10
   1   2   4   49.71    3.87
   1   2   5  342.02   13.11
  -1   2  -5  320.09   19.19
  -1   2  -6    3.59    3.33
  -1   2  -7  165.27   14.80
   1   2   7  167.09    5.46
  -1   2  -8   26.34    6.76
  -1   2  -9   30.15    7.58
  -1   3  10   47.02    5.82
  -1   3   9   -0.37    1.70
   1   3  -8   95.46    7.27
  -1   3   8  108.55    7.63
   1   3  -8  118.80   14.89
  -1   3   7   25.25    3.49
   1   3  -7   25.73    7.52
   1   3  -7   28.74    3.64
   1   3  -6  104.19    6.39
  -1   3   6  106.67    6.55
  -1   3   5  181.98    8.17
  -1   3   4   67.89    4.18
   1   3  -4   59.87    3.75
   1   3  -3  456.44   13.78
  -1   3   3  478.63   13.20
   1   3  -2    3.54    1.10
   1   3  -2    3.00    0.89
  -1   3   2    4.13    0.77
   1   3  -2    2.47    2.51
   1   3  -1  474.35   14.01
   1   3  -1  459.33   12.13
  -1   3   1  474.16   11.90
   1   3  -1  462.13   19.10
   1   3   0   28.44    4.02
   1   3   0   27.72    1.74
   1   3   0   28.93    1.93
  -1   3  -1  328.50    9.48
  -1   3  -2  257.77   17.38
   1   3   2  250.22    8.24
   1   3   3  140.34    6.19
  -1   3  -3  128.90   12.86
   1   3   4  357.98   11.07
  -1   3  -4  347.44   21.46
   1   3   4  354.11   12.12
  -1   3  -5   14.18    4.91
   1   3   5    9.40    1.49
   1   3   6  172.39    6.34
  -1   3  -6  172.45   15.52
   1   3   7    7.75    1.14
  -1   3  -7    8.26    4.80
  -1   3  -8   88.75   12.33
  -1   4  10    0.40    1.95
  -1   4   9   66.38    6.32
   1   4  -8    2.57    1.54
  -1   4   8    4.34    2.00
  -1   4   7  108.80    7.11
   1   4  -7  108.20    7.18
   1   4  -7  128.46   15.33
   1   4  -6   55.43    4.59
  -1   4   6   60.07    4.76
   1   4  -6   65.31   10.74
  -1   4   5  143.38    6.96
   1   4  -5  136.93    6.97
  -1   4   4  321.70   10.48
   1   4  -4  299.47   10.89
  -1   4   3   61.88    3.36
   1   4  -3   61.37    8.42
   1   4  -3   62.49    4.24
   1   4  -2  528.00   24.28
  -1   4   2  549.15   13.88
   1   4  -2  553.48   16.39
   1   4  -1   17.38    4.22
   1   4  -1   16.36    1.45
   1   4  -1   14.92    2.11
   1   4   0  444.68   10.69
   1   4   0  402.37   11.00
   1   4   0  418.89   19.93
  -1   4  -1  211.15    6.81
   1   4   1  210.12    8.44
   1   4   1  206.78    6.71
   1   4   2  337.79   11.50
   1   4   2  332.42    9.83
   1   4   3  409.64   13.16
   1   4   3  417.58   12.50
  -1   4  -3  406.88   25.27
   1   4   4   37.47    3.19
  -1   4  -4   41.60    8.79
   1   4   4   42.76    3.48
   1   4   5  229.45    8.43
  -1   4  -5  195.46   18.22
  -1   4  -6    5.14    4.44
   1   4   6    3.35    1.08
   1   4   7   99.85    4.41
  -1   4  -7   97.58   13.60
   1   4  10   26.66    4.83
  -1   5  10   33.69    4.86
  -1   5   9   -0.68    1.82
  -1   5   8   67.50    5.91
  -1   5   7   24.74    3.41
   1   5  -7   24.71    3.54
   1   5  -7   23.00    7.57
   1   5  -6   80.51    5.75
  -1   5   6   88.52    5.62
  -1   5   5  156.47    6.89
   1   5  -5  121.74    6.74
   1   5  -4   65.89    4.24
   1   5  -4   69.36    4.82
   1   5  -4   70.19   10.26
  -1   5   4   69.10    3.94
   1   5  -3  433.42   14.55
   1   5  -3  410.08   23.82
  -1   5   3  446.18   12.11
   1   5  -2    2.79    3.45
   1   5  -2    3.53    1.24
  -1   5   2    3.71    0.78
   1   5  -1  354.30   12.66
   1   5  -1  385.83   21.67
   1   5   0   31.49    6.15
   1   5   0   38.16    1.89
  -1   5  -1  222.69    6.98
   1   5   1  228.79    6.49
   1   5   1  217.46    9.23
   1   5   1  209.76    6.36
   1   5   2  226.66    7.14
  -1   5  -2  226.64    7.79
   1   5   2  216.86    9.18
   1   5   3   74.52    4.93
   1   5   3   77.92    4.05
  -1   5  -4  269.98   22.08
   1   5   4  249.61    9.76
   1   5   5    2.27    1.23
  -1   5  -5    1.21    5.23
   1   5   6  140.21    6.34
  -1   5  -6  135.05   17.16
  -1   5  -7    9.24    5.92
   1   5   7    8.66    1.51
   1   5   9   27.71    4.43
   1   5  10    7.89    2.91
  -1   6  10    2.10    1.92
  -1   6   9   47.30    5.16
  -1   6   8    2.19    1.64
  -1   6   7   75.09    5.48
   1   6  -7   74.83    5.91
  -1   6   6   43.28    3.74
   1   6  -6   37.30    3.98
   1   6  -5   64.25   11.12
  -1   6   5   62.75    4.10
   1   6  -5   65.35    4.73
   1   6  -4  131.23    7.27
   1   6  -4  135.15    6.37
   1   6  -4  129.76   14.74
  -1   6   4  129.64    5.51
   1   6  -3    8.22    2.02
  -1   6   3   10.34    1.25
   1   6  -3    6.68    1.30
   1   6  -2  241.95   10.31
   1   6  -2  231.49    7.41
   1   6  -1   13.89    5.42
   1   6  -1   17.80    1.44
   1   6  -1   16.91    2.65
   1   6   1   95.12    3.05
   1   6   1   80.57    5.63
  -1   6  -2  172.63    6.42
   1   6   2  175.11    8.43
   1   6   2  179.42    5.99
   1   6   3  182.11    8.55
   1   6   4   24.95    2.98
   1   6   5  129.31    6.73
  -1   6  -5  131.58   17.39
   1   6   6    0.34    1.02
  -1   6  -6   -1.44    6.23
   1   6   8   17.55    3.33
   1   6   9   21.87    3.92
   1   6  10   15.07    3.66
  -1   7  10   17.39    3.42
  -1   7   9    0.29    1.49
  -1   7   8   44.52    4.45
   1   7  -7   10.83    2.51
  -1   7   7   16.23    2.65
   1   7  -6   64.57    5.14
  -1   7   6   71.32    4.67
   1   7  -5   83.20   13.39
   1   7  -5   76.91    5.19
  -1   7   5   83.42    4.53
   1   7  -4   49.06   10.84
   1   7  -4   47.01    3.60
  -1   7   4   42.00    2.80
   1   7  -3  231.19   21.49
   1   7  -3  229.82    8.33
  -1   7   3  250.74    7.21
   1   7  -3  224.07   10.54
   1   7  -2    0.42    0.59
   1   7  -2    0.75    1.23
   1   7  -2    1.11    4.82
   1   7  -1  215.00   19.26
   1   7  -1  248.12    6.26
   1   7   0   47.76    4.45
   1   7   1  153.10    8.22
   1   7   2  123.51    3.52
   1   7   2  120.34    3.42
   1   7   3   33.97    3.75
  -1   7  -3   40.76    3.06
   1   7   4  139.31    7.52
   1   7   5    0.85    1.16
   1   7   6  105.56    6.09
   1   7   6  115.04    6.59
   1   7   7   11.37    2.45
   1   7   8   37.39    4.52
   1   7   9   13.46    3.06
   1   7  10    2.61    2.04
  -1   8   8    1.15    1.44
  -1   8   7   46.87    3.98
   1   8  -7   45.30    4.73
  -1   8   6   29.96    2.95
   1   8  -6   30.48    3.62
  -1   8   5   40.94    2.96
   1   8  -5   30.34    3.27
  -1   8   4   75.60    3.44
   1   8  -4   75.40   14.43
   1   8  -4   73.41    4.57
   1   8  -3    5.22    1.18
   1   8  -3    5.42    6.07
   1   8  -2  137.09    8.30
   1   8  -2  154.30    4.74
   1   8   0  190.60    9.79
   1   8   1   58.54    5.11
   1   8   2   85.06    6.23
   1   8   3  105.50    6.92
  -1   8  -3  110.22    5.02
   1   8   4   12.44    2.54
  -1   8  -4   13.29    2.06
   1   8   4   12.02    1.50
   1   8   5   88.60    6.05
   1   8   5   98.38    4.99
   1   8   6    1.30    1.24
   1   8   7   43.88    4.31
   1   8   8    9.63    2.47
  -1   9   6   31.62    2.73
  -1   9   5   39.12    2.42
   1   9  -3   91.36   15.61
   1   9   2   51.98    5.11
   1   9   3   20.07    3.41
  -1   9  -4   71.34    4.27
  -1   9  -5    1.14    1.16
   1   9   5    0.45    0.68
   1   9   6   59.55    3.94
   2 -11  -4    1.97    2.58
   2 -11  -4  -17.11   20.50
   2 -11  -3   59.17   27.36
   2 -11  -3   40.74    6.29
   2 -11  -2   -4.82   17.33
   2 -11  -2    1.72    3.22
   2 -11  -1   26.00   20.13
   2 -11  -1   33.18    6.46
   2 -11   0   27.86   18.48
   2 -11   0   22.94    5.52
   2 -11   1   11.11   14.03
   2 -11   2   70.57   23.59
   2 -10  -6    4.90   18.57
   2 -10  -5   -4.96   16.80
   2 -10  -4   46.95    6.26
   2 -10  -4   34.26   24.20
   2 -10  -3    2.86    2.62
   2 -10  -3   -9.69   17.42
   2 -10  -2   78.47   28.23
   2 -10  -2   59.27    7.33
   2 -10  -1    8.08   14.53
   2 -10  -1   12.57    4.10
   2 -10   0   36.63    6.55
   2 -10   0   46.27   20.47
   2 -10   1   28.89   15.90
   2 -10   1   53.22    7.56
   2 -10   2    6.04   12.01
   2 -10   2    6.56    3.52
   2 -10   3   40.87   16.80
   2 -10   4    1.46    3.50
   2 -10   4    5.69   10.79
   2  -9  -5   54.14    5.78
  -2  -9   5   53.96    5.00
  -2  -9   4    1.46    1.27
   2  -9  -4    1.94    1.92
   2  -9  -3   63.33    6.89
   2  -9  -2    8.96    3.23
   2  -9  -2   11.79   13.32
   2  -9  -1   79.31   25.66
   2  -9  -1   81.25    8.07
   2  -9   0   47.56    6.50
   2  -9   0   64.25   20.76
   2  -9   1   33.34    5.61
   2  -9   1   53.62   17.91
   2  -9   2  103.34   22.39
   2  -9   2   81.11    3.41
   2  -9   2   87.27    9.04
   2  -9   2   82.46    3.52
   2  -9   3    2.49    8.96
   2  -9   3    2.88    1.27
   2  -9   4   85.96   20.03
   2  -9   4   81.50    9.46
   2  -9   4   74.87    5.59
   2  -9   5    2.42    8.70
   2  -9   5    2.64    2.85
   2  -9   5    3.78    2.00
   2  -9   6   28.53    6.32
  -2  -8   9   14.40    3.67
  -2  -8   8    9.60    2.87
  -2  -8   7   15.86    3.21
  -2  -8   6   35.45    4.38
  -2  -8   5    9.64    2.30
   2  -8  -5    9.11    2.07
   2  -8  -5    3.06    2.01
   2  -8  -4   97.74    5.37
  -2  -8   4  104.21    6.39
   2  -8  -4   97.89    7.44
   2  -8  -3    1.04    0.78
   2  -8  -3    2.83    1.19
  -2  -8   3    1.08    1.19
   2  -8  -3    0.72    1.62
   2  -8  -2  141.94    9.54
   2  -8  -2  127.19   27.52
   2  -8  -1   50.22    5.87
   2  -8  -1   63.06   20.38
   2  -8   0   85.76   21.64
   2  -8   0   92.31    8.23
   2  -8   1  125.21   23.74
   2  -8   1  108.83    4.12
   2  -8   1  110.03    9.27
   2  -8   2   11.23    9.33
   2  -8   2   13.14    2.26
   2  -8   2   13.30    3.88
   2  -8   3  112.76   21.00
   2  -8   4    2.12    8.02
   2  -8   4    1.10    2.55
  -2  -8  -4    1.44    2.02
   2  -8   5   83.40    9.05
   2  -8   5   99.54   19.53
   2  -8   6   26.88    5.66
   2  -8   7   37.16    6.81
   2  -8   8   16.44    4.75
   2  -8   8   20.22    5.63
  -2  -7   9    7.82    2.92
  -2  -7   8   27.69    4.27
  -2  -7   7   42.93    4.86
   2  -7  -7   30.95    4.20
   2  -7  -6   24.25    3.42
  -2  -7   6   23.47    3.48
   2  -7  -6   18.03    2.80
   2  -7  -5   80.27    5.43
   2  -7  -5   91.59    6.37
  -2  -7   5   84.97    6.03
  -2  -7   4    3.22    1.50
   2  -7  -4    1.43    0.92
   2  -7  -4    1.70    1.63
   2  -7  -3  122.68    7.95
   2  -7  -3  117.09    5.78
  -2  -7   3  129.44    6.74
   2  -7  -2   28.73    2.78
  -2  -7   2   23.46    2.91
   2  -7  -2   22.63    3.65
   2  -7  -1  124.59    8.52
   2  -7  -1  122.89    4.38
   2  -7  -1  149.11   26.17
   2  -7   0   85.82    3.65
   2  -7   0   84.06   19.63
   2  -7   0   85.89    7.22
   2  -7   0   90.87    4.47
   2  -7   1   74.78    4.36
   2  -7   1   75.11    6.98
   2  -7   1   71.28    4.17
   2  -7   2  167.89   10.98
   2  -7   2  166.89    7.53
   2  -7   2  185.11   24.85
  -2  -7  -3    4.87    1.95
   2  -7   3    9.04    8.11
   2  -7   4  142.23   10.51
   2  -7   4  172.06   22.69
   2  -7   5    4.48    2.80
  -2  -7  -5    5.90    2.58
   2  -7   6   67.87    7.92
  -2  -7  -6   80.08    7.59
   2  -7   7   26.89    5.16
  -2  -7  -7   27.05    4.56
   2  -7   8   19.49    4.83
   2  -7   9   26.78    5.35
  -2  -6   9   38.67    5.37
   2  -6  -8   18.72    3.61
  -2  -6   8   19.03    3.69
   2  -6  -7   33.58    4.23
  -2  -6   7   38.40    4.77
  -2  -6   6   98.51    6.74
   2  -6  -6   87.87    5.28
   2  -6  -6   82.38    6.02
   2  -6  -5   13.07    2.32
  -2  -6   5   17.68    2.76
  -2  -6   4  275.49   10.90
   2  -6  -4  247.79   10.89
  -2  -6   3    4.26    1.46
   2  -6  -3    5.74    1.96
   2  -6  -2  330.14   10.30
  -2  -6   2  341.52   11.95
   2  -6  -2  336.51   13.64
   2  -6  -2  347.78   11.47
   2  -6  -1   92.14    6.63
   2  -6  -1   97.62    5.43
   2  -6  -1   97.20    4.24
   2  -6   0  183.54    6.80
   2  -6   0  195.82   10.34
   2  -6   1  233.92    9.62
   2  -6   1  249.90   12.32
   2  -6   2   48.44    4.09
   2  -6   2   46.17   12.16
   2  -6   3  281.26   11.66
   2  -6   3  305.52   27.67
  -2  -6  -3  243.92   12.22
   2  -6   4    3.82    1.73
  -2  -6  -4    4.84    2.19
   2  -6   4    2.77    2.07
   2  -6   5  143.46   10.16
  -2  -6  -5  170.76   10.32
  -2  -6  -6   40.41    5.03
   2  -6   6   27.17    4.78
   2  -6   7   48.65    6.39
  -2  -6  -7   64.17    6.63
   2  -6   8   42.89    6.02
   2  -6   9    3.28    2.51
   2  -6  10   27.86    5.11
  -2  -5  10   24.89    4.66
  -2  -5   9    6.10    2.63
   2  -5  -8   47.04    5.28
  -2  -5   8   51.56    5.64
   2  -5  -7   44.82    4.81
  -2  -5   7   42.90    4.77
  -2  -5   6   43.32    4.48
   2  -5  -6   38.85    3.02
   2  -5  -5  159.74    7.15
  -2  -5   5  153.58    8.08
  -2  -5   4    4.57    1.55
   2  -5  -4    3.85    1.39
  -2  -5   3  338.64   11.86
   2  -5  -3  342.17   11.35
   2  -5  -3  328.94   12.31
   2  -5  -2   43.02    3.98
  -2  -5   2   47.68    3.60
   2  -5  -2   44.44    3.07
   2  -5  -1  254.32    9.40
   2  -5  -1  242.57    8.13
   2  -5   0  168.85    7.89
   2  -5   0  173.79    6.92
   2  -5   1  142.89   20.17
  -2  -5  -2  334.91   13.77
   2  -5   2  380.91   13.86
   2  -5   3    9.66    2.21
  -2  -5  -3    7.99    2.33
  -2  -5  -4  334.28   14.03
   2  -5   4  300.05   13.41
   2  -5   5   10.49    2.60
   2  -5   5   17.86    9.46
  -2  -5  -5   13.19    2.85
   2  -5   5   13.07    3.12
   2  -5   6   85.29    7.37
   2  -5   7   33.51    5.00
   2  -5   8   27.74    4.66
   2  -5   9   39.55    5.40
   2  -5  10    0.39    2.04
  -2  -4  10    1.34    2.14
  -2  -4   9   57.65    6.28
   2  -4  -8   31.00    4.28
  -2  -4   8   35.19    4.68
   2  -4  -7   39.91    4.74
  -2  -4   7   48.40    4.98
  -2  -4   6  141.67    8.25
   2  -4  -6  149.53    5.52
  -2  -4   5   17.98    2.67
   2  -4  -5   14.91    1.79
   2  -4  -4  386.21   12.14
  -2  -4   4  393.21   13.44
   2  -4  -3    8.60    1.63
  -2  -4   3   10.98    1.87
   2  -4  -2  445.64   13.17
  -2  -4   2  441.97   13.71
   2  -4  -1  121.94    5.29
  -2  -4   1  117.79    5.95
   2  -4  -1  117.68    5.82
   2  -4   0  282.47    9.85
   2  -4   0  274.78   10.27
   2  -4   1  368.50   29.10
  -2  -4  -2   85.53    5.97
  -2  -4  -3  556.87   18.14
   2  -4   3  483.52   17.55
   2  -4   4   -1.09    4.54
  -2  -4  -4    0.26    1.00
   2  -4   4   -0.30    1.24
   2  -4   5  202.71   10.93
   2  -4   5  186.11   19.39
   2  -4   6   29.60    4.18
  -2  -4  -6   22.56    2.82
   2  -4   7   60.23    5.78
  -2  -4  -7   59.87    5.39
   2  -4   8   65.78    6.10
  -2  -4  -8   43.00    5.54
   2  -4   9    9.11    2.75
   2  -4  10   34.96    4.66
  -2  -3  10   33.48    5.22
  -2  -3   9    5.55    2.47
   2  -3  -8   77.90    6.37
  -2  -3   8   69.67    6.37
  -2  -3   7   69.44    5.99
   2  -3  -6   64.70    2.55
  -2  -3   6   63.87    5.31
  -2  -3   5  274.23   11.18
   2  -3  -5  262.44    8.04
   2  -3  -4    6.07    1.58
  -2  -3   4    6.64    1.58
   2  -3  -3  666.41   18.70
  -2  -3   3  651.96   18.63
   2  -3  -2   64.62    3.87
  -2  -3   2   69.59    4.15
  -2  -3   1  572.81   16.69
   2  -3  -1  595.22   16.13
   2  -3   0  373.73   12.54
   2  -3   0  407.64   12.84
  -2  -3  -1  196.17    8.64
  -2  -3  -2  577.37   18.31
   2  -3   3    8.02    4.54
   2  -3   3   10.01    2.23
  -2  -3  -3    8.10    1.93
   2  -3   4  398.92   14.97
   2  -3   4  406.18   24.85
   2  -3   5   26.96    7.59
  -2  -3  -5   29.64    3.48
   2  -3   5   32.70    4.29
   2  -3   6  161.29   10.01
  -2  -3  -6  160.61    9.14
  -2  -3  -7   52.95    5.87
  -2  -3  -8   25.94    4.97
   2  -3   8   29.56    3.82
   2  -3   9   48.96    4.97
   2  -3  10   -0.53    1.83
  -2  -2  10    1.74    2.08
  -2  -2   9   56.99    6.14
   2  -2  -8   23.83    3.68
  -2  -2   8   31.25    4.28
  -2  -2   7   72.72    6.22
  -2  -2   6  180.14    9.27
  -2  -2   5   28.38    3.30
   2  -2  -4  326.14   11.58
  -2  -2   4  295.85   11.27
  -2  -2   3    2.89    1.05
   2  -2  -3    3.67    1.23
   2  -2  -2  341.16   10.87
  -2  -2   2  337.68   10.98
  -2  -2   1  192.51    7.48
   2  -2  -1  181.92    7.07
   2  -2   0  401.01   12.84
   2  -2   0  399.80   12.97
  -2  -2  -1  416.05   14.20
   2  -2   1  431.47   13.92
   2  -2   2   69.08   10.19
  -2  -2  -2   62.80    4.71
  -2  -2  -3  583.75   17.97
   2  -2   3  494.11   25.78
   2  -2   4   -0.75    3.71
   2  -2   4    0.28    1.20
   2  -2   5  282.83   13.12
  -2  -2  -5  259.52   12.98
   2  -2   6   54.58    5.60
  -2  -2  -6   42.86    5.52
   2  -2   7   70.44    6.60
  -2  -2  -7   56.05    6.95
  -2  -2  -8   53.08    7.33
  -2  -2  -9   12.48    4.39
   2  -2   9   14.58    2.58
   2  -2  10   36.15    3.73
  -2  -1  10   37.14    5.32
  -2  -1   9   12.69    3.10
   2  -1  -8   57.43    5.63
  -2  -1   8   61.60    5.97
  -2  -1   7   86.50    6.54
  -2  -1   6   48.16    4.56
  -2  -1   5  246.08   10.34
   2  -1  -4    0.76    1.06
  -2  -1   4    0.72    0.89
   2  -1  -3  424.88   13.75
  -2  -1   3  433.97   13.31
  -2  -1   2   62.03    3.79
   2  -1  -2   62.72    3.80
   2  -1  -1  627.20   17.18
  -2  -1   1  638.60   17.44
   2  -1   0  474.56   14.51
   2  -1   0  456.17   14.06
  -2  -1  -1  219.73    9.07
   2  -1   1  215.26    8.67
  -2  -1  -2  267.95   10.39
   2  -1   2  289.96   17.96
   2  -1   3    9.01    3.49
  -2  -1  -3   14.80    2.39
  -2  -1  -4  254.64   13.60
   2  -1   4  271.74   16.99
   2  -1   4  255.58   11.56
   2  -1   5   38.33    4.43
  -2  -1  -5   35.18    5.42
   2  -1   6  229.45   12.00
  -2  -1  -6  232.65   14.53
   2  -1   7   64.19    6.23
  -2  -1  -7   62.65    8.01
  -2  -1  -8   31.78    6.48
  -2  -1  -9   41.66    7.77
   2  -1   9   48.65    3.88
   2  -1  10    1.43    1.26
   2   0  -8   20.60    3.60
   2   0  -6  198.91    5.82
   2   0  -4  258.45   10.29
   2   0  -3   -0.16    0.85
  -2   0   3    0.43    0.75
   2   0  -2  329.47   10.56
  -2   0   2  314.01   10.29
   2   0  -1  208.96    7.79
  -2   0   1  212.40    7.78
   2   0   0  368.55   12.19
   2   0   0  381.19   12.08
  -2   0  -1  559.38   16.91
   2   0   1  570.02   16.61
  -2   0  -2   45.65    3.68
   2   0   2   49.26    6.41
   2   0   3  519.48   20.51
   2   0   4    1.83    1.26
  -2   0  -4    3.21    2.72
   2   0   5  309.27   13.37
  -2   0  -5  318.15   18.28
  -2   0  -6   74.08    8.89
  -2   0  -7   64.15    9.12
  -2   0  -8   72.28   10.06
  -2   0  -9   10.57    4.95
  -2   0 -10   37.87    8.80
   2   0  10   33.78    2.63
  -2   1  10   36.04    5.11
  -2   1   9   16.24    3.38
  -2   1   8   69.96    6.23
  -2   1   7   93.83    6.67
   2   1  -6   49.23    2.85
  -2   1   6   49.64    4.48
   2   1  -5  241.76    8.06
   2   1   2  256.36   11.13
  -2   1  -4  231.99   16.27
  -2   1  -5   57.46    8.66
  -2   1  -6  235.40   17.71
   2   1   7   71.69    6.41
  -2   1  -7   72.46   10.26
  -2   1  -8   35.65    7.78
  -2   1  -9   49.49    9.36
  -2   2  10   -0.40    1.91
  -2   2   9   64.20    6.20
  -2   2   8   23.81    3.63
   2   2  -8   27.89    4.03
  -2   2   7   64.26    5.44
  -2   2   6  170.07    8.47
   2   2  -6  157.35    6.45
   2   2  -5   30.81    2.71
  -2   2   5   29.02    3.08
   2   2  -4  298.90   11.27
  -2   2   4  293.76   10.65
   2   2  -4  302.50   10.32
  -2   2   3    1.68    0.80
   2   2  -3    1.98    1.10
  -2   2   2  301.90    9.83
   2   2  -2  295.00   10.06
   2   2  -1  148.72    6.24
  -2   2   1  146.43    6.28
   2   2   0  308.34   10.36
   2   2   0  309.47   10.48
  -2   2  -1  377.18   12.48
   2   2   1  381.41   12.26
  -2   2  -2   65.24    4.33
  -2   2  -3  595.26   18.62
   2   2   4    1.70    1.49
  -2   2  -4    2.38    3.43
   2   2   5  246.96   11.36
  -2   2  -5  252.54   19.36
  -2   2  -6   46.07    9.10
   2   2   6   42.65    4.75
   2   2   7   71.69    6.37
  -2   2  -7   85.01   12.11
  -2   2  -8   48.85    9.87
  -2   2  -9    9.34    5.94
  -2   3  10   48.36    5.62
  -2   3   9    8.34    2.64
  -2   3   8   71.89    6.04
  -2   3   7   65.86    5.43
   2   3  -6   64.70    4.23
  -2   3   6   68.76    5.16
  -2   3   5  267.74   10.44
   2   3  -5  261.89    9.85
   2   3  -4    7.13    1.80
  -2   3   4    9.24    1.71
   2   3  -4    8.52    1.80
   2   3  -3  655.78   18.69
  -2   3   3  649.71   17.96
   2   3  -3  646.73   19.03
   2   3  -2   75.60    4.30
  -2   3   2   70.87    4.02
   2   3  -1  556.82   15.52
  -2   3   1  563.98   16.08
   2   3   0  362.21   11.35
   2   3   0  352.47   11.45
   2   3   1  221.01    8.25
  -2   3  -1  217.43    8.49
  -2   3  -2  582.89   17.17
  -2   3  -3   15.83    2.32
  -2   3  -4  367.48   24.08
   2   3   4  388.26   14.17
   2   3   5   31.81    3.75
  -2   3  -5   27.93    7.59
   2   3   6  139.45    8.46
  -2   3  -6  134.70   15.83
   2   3   7   57.79    5.64
  -2   3  -7   63.66   11.72
  -2   3  -8   30.45    9.15
   2   3   9   49.52    3.02
  -2   4  10    1.88    1.85
  -2   4   9   57.24    5.73
  -2   4   8   22.94    3.46
   2   4  -7   37.73    9.61
  -2   4   7   44.25    4.39
  -2   4   6  137.98    7.37
   2   4  -6  128.35    6.67
   2   4  -5   15.73    2.37
  -2   4   5   10.94    1.93
   2   4  -4  389.51   13.70
  -2   4   4  395.90   12.69
   2   4  -3    7.35    1.61
  -2   4   3    9.43    1.53
   2   4  -3   10.17    2.01
   2   4  -2  435.14   13.46
  -2   4   2  439.29   13.17
   2   4  -2  443.26   15.12
   2   4  -2  479.32   23.30
   2   4  -1  107.39    4.98
   2   4  -1  103.68    6.30
   2   4  -1  111.49    9.75
   2   4   0  273.04    9.48
   2   4   0  278.21    9.27
   2   4   0  271.81   13.61
   2   4   1  300.23   10.68
   2   4   1  318.36   13.94
  -2   4  -1  306.23   10.89
  -2   4  -2   80.53    4.87
  -2   4  -3  468.34   15.13
   2   4   4    0.22    1.07
  -2   4  -4    1.05    3.99
   2   4   5  189.13    9.47
  -2   4  -5  195.59   19.29
   2   4   6   21.30    3.24
  -2   4  -6   26.43    8.28
   2   4   7   62.27    4.40
  -2   4  -7   58.98   11.57
   2   4   8   50.55    3.69
   2   4   9   10.69    1.55
  -2   5  10   27.84    4.39
  -2   5   9   10.03    2.86
  -2   5   8   47.30    4.83
  -2   5   7   49.60    4.58
   2   5  -7   49.48    4.84
  -2   5   6   40.51    3.74
   2   5  -6   37.45    3.76
  -2   5   5  167.03    7.55
   2   5  -5  158.07    8.13
   2   5  -5  179.15   17.66
  -2   5   4    5.21    1.34
   2   5  -4    8.44    5.03
   2   5  -4    4.49    1.62
   2   5  -3  309.79   12.51
   2   5  -3  318.95   11.27
  -2   5   3  330.91   10.66
   2   5  -3  324.36   21.33
   2   5  -2   50.17    3.51
   2   5  -2   49.41    4.50
  -2   5   2   53.07    3.53
   2   5  -2   54.41    7.98
   2   5  -1  252.98    8.48
   2   5  -1  240.05   10.77
   2   5  -1  243.89    8.73
   2   5  -1  242.22   15.44
   2   5   0  184.05    6.77
   2   5   0  170.24    6.82
   2   5   0  165.00   12.11
  -2   5  -1  139.22    6.22
   2   5   1  140.15    6.07
   2   5   1  140.54    7.80
  -2   5  -2  395.07   12.87
   2   5   2  375.67   14.25
  -2   5  -3   12.92    2.11
   2   5   3   11.91    2.00
   2   5   3   11.40    2.46
   2   5   4  280.50   11.06
  -2   5  -4  287.21   11.51
   2   5   4  271.74   11.45
   2   5   5   12.42    2.36
   2   5   5    9.02    2.10
   2   5   6   93.01    6.55
   2   5   6   94.98    6.01
  -2   5  -6   87.82   14.40
   2   5   7   37.96    3.61
   2   5   8   23.91    2.71
  -2   6  10    0.69    1.79
  -2   6   9   33.10    4.26
  -2   6   8   15.97    2.85
   2   6  -7   35.41    4.30
  -2   6   7   38.65    3.92
   2   6  -6   86.17    6.05
   2   6  -6   74.40    5.83
  -2   6   6   85.98    5.48
   2   6  -6   84.25   13.52
   2   6  -5    7.73    5.46
   2   6  -5   13.91    2.58
  -2   6   5   16.24    2.32
  -2   6   4  285.51    9.97
   2   6  -4  266.88   21.31
   2   6  -4  260.95   11.72
   2   6  -3    6.97    5.01
  -2   6   3    4.50    1.27
   2   6  -3    3.34    1.69
   2   6  -2  354.45   13.92
   2   6  -2  347.88   11.22
   2   6  -2  339.37   21.52
   2   6  -1  109.69    4.97
   2   6  -1  109.85    7.13
   2   6  -1   97.97   11.13
   2   6  -1  115.10    5.33
   2   6   0  199.31    6.97
   2   6   0  209.27    7.36
   2   6   1  268.69    8.78
   2   6   1  260.51   11.74
   2   6   2   40.31    4.26
   2   6   2   44.12    3.25
  -2   6  -2   44.10    3.54
   2   6   3  266.48    9.89
   2   6   3  276.23   12.08
  -2   6  -3  291.97   10.80
  -2   6  -4    3.38    1.39
   2   6   4    4.17    1.51
   2   6   4    3.86    1.93
   2   6   5  159.76    7.83
  -2   6  -5  158.76    8.55
   2   6   5  135.71    7.88
   2   6   6   32.05    3.72
   2   6   7   46.28    4.15
   2   6   8   34.65    3.37
  -2   7  10   15.55    3.24
  -2   7   9    3.20    1.82
  -2   7   8   23.25    3.35
   2   7  -7   35.08    4.31
  -2   7   7   38.12    3.94
   2   7  -6   21.05    3.07
  -2   7   6   23.34    2.84
   2   7  -5   84.62    6.34
  -2   7   5   90.80    5.27
   2   7  -5   80.51    5.41
   2   7  -5   92.38   13.91
   2   7  -4    1.10    3.96
   2   7  -4    2.24    1.64
  -2   7   4    0.76    0.91
   2   7  -3  101.91    7.05
   2   7  -3   99.19   13.20
   2   7  -2   30.94    8.21
   2   7  -2   23.26    3.51
   2   7  -1  119.57    7.76
   2   7  -1  121.56    5.11
   2   7  -1  117.94   13.83
   2   7  -1  129.63    5.37
   2   7   0   97.49    4.19
   2   7   0   72.37   10.08
   2   7   1   78.68    3.60
   2   7   1   66.57    5.78
   2   7   2  167.68    6.42
   2   7   2  161.36    9.17
  -2   7  -2  167.39    7.01
   2   7   2  156.98    6.18
  -2   7  -3    6.49    1.68
   2   7   3    8.54    1.59
   2   7   3    4.85    1.38
   2   7   3    8.34    2.49
   2   7   4  135.87    8.24
  -2   7  -4  146.20    7.44
   2   7   4  135.68    6.62
  -2   7  -5    1.67    1.25
   2   7   5    4.74    1.97
  -2   7  -6   71.47    5.90
   2   7   6   56.06    4.91
   2   7   7   21.17    3.05
   2   7  10    2.42    2.27
  -2   8   8    8.80    2.22
   2   8  -7   22.24    3.54
  -2   8   7   19.47    2.93
   2   8  -6   45.75    4.59
  -2   8   6   47.86    3.96
   2   8  -5    6.72    1.80
  -2   8   5    8.79    1.84
   2   8  -4  105.94    5.70
   2   8  -4  106.29   15.92
   2   8  -3    3.86    5.35
   2   8  -3    1.19    0.96
   2   8  -2  162.02   18.04
   2   8  -2  143.28    8.88
   2   8  -2  142.86    5.87
   2   8  -1   61.16    3.08
   2   8  -1   53.95   10.03
   2   8   0   85.56    6.75
   2   8   1  118.12    4.00
   2   8   1  120.42    4.05
   2   8   1  112.67    7.82
   2   8   2   13.79    1.43
   2   8   2   14.80    2.99
   2   8   3   93.59    6.99
   2   8   3   99.07    4.65
  -2   8  -3  104.60    5.60
  -2   8  -4    2.06    1.38
   2   8   4    1.19    1.60
   2   8   5   73.83    6.08
  -2   8  -5   77.14    5.59
   2   8   6   17.80    3.13
  -2   8  -6   21.24    3.32
   2   8   7   22.69    3.27
  -2   8  -7   31.71    4.22
   2   8   8   21.90    3.73
   2   9  -5   57.81    4.47
   2   9  -4    2.15    1.25
   2   9  -3   65.64    3.87
   2   9  -3   75.75    4.07
   2   9  -3   80.30   14.45
   2   9  -2    9.65    1.24
   2   9  -2   10.21    1.20
   2   9   3    2.26    0.57
   2   9   3    1.56    0.53
   2   9   4   79.38    3.89
  -2   9  -4   78.99    5.15
   2   9   4   73.74    3.73
  -2   9  -5    8.15    2.05
   2   9   5    4.47    1.43
   3 -11  -4    3.35    3.06
   3 -11  -3   25.69    5.56
   3 -11  -2   49.55   32.87
   3 -10  -5    1.36    2.48
   3 -10  -4   46.09    6.59
   3 -10  -4   41.67   29.43
   3 -10  -3   12.59    4.00
   3 -10  -3   17.64   19.93
   3 -10  -2   34.55    6.32
   3 -10  -2   63.92   27.87
   3 -10  -1   38.75   27.37
   3 -10  -1   46.25    7.25
   3 -10   0   38.78   22.50
   3 -10   0    6.04    3.69
   3 -10   1   71.41   25.71
   3 -10   1   71.49    9.54
   3 -10   2    3.80   13.67
   3 -10   2   -0.77    3.32
   3 -10   3  109.40   27.18
   3  -9  -5   42.58    5.60
  -3  -9   4    4.97    2.35
   3  -9  -4    4.43    2.86
   3  -9  -3   47.99    6.34
   3  -9  -3  110.83   31.81
   3  -9  -2   30.89    5.53
   3  -9  -1   38.22    6.32
   3  -9  -1   67.57   25.90
   3  -9   0   67.42    3.81
   3  -9   0   78.57    8.89
   3  -9   1   11.09   14.01
   3  -9   1    2.40    1.18
   3  -9   1    4.45    3.14
   3  -9   2  104.23   24.74
   3  -9   2   69.61    9.08
   3  -9   3    5.97   12.90
   3  -9   4   20.04   13.74
   3  -9   4   34.60    6.99
   3  -9   5   12.88    4.83
  -3  -8   8   19.49    3.81
  -3  -8   7    1.80    1.83
  -3  -8   6   62.32    6.00
   3  -8  -6   51.66    5.37
  -3  -8   5    1.23    1.52
   3  -8  -5    0.35    1.57
  -3  -8   4   77.12    6.21
   3  -8  -4   71.21    6.76
   3  -8  -4   62.43    5.03
   3  -8  -3   18.68    2.99
   3  -8  -3   17.78    3.86
   3  -8  -2   49.23    6.10
   3  -8  -2   53.24    4.98
   3  -8  -1   73.84    7.62
   3  -8  -1   70.49    4.11
   3  -8   0   17.80    2.18
   3  -8   0   20.22    4.51
   3  -8   0   32.28   17.73
   3  -8   1  105.24    5.97
   3  -8   1   98.41    9.42
   3  -8   1   90.99    6.49
   3  -8   2    2.87    9.73
   3  -8   2    1.22    1.55
   3  -8   2    0.58    2.40
   3  -8   2    1.17    1.44
   3  -8   3  112.84   22.66
   3  -8   3   86.78    6.97
   3  -8   4   10.98    3.05
   3  -8   4    7.16    3.75
   3  -8   4    4.87   10.53
   3  -8   5   42.53    7.31
   3  -8   6   26.09   12.40
   3  -8   6   26.64    6.19
   3  -8   7   16.41    5.37
  -3  -7   9   10.33    3.27
  -3  -7   8   12.93    3.52
   3  -7  -7   34.48    4.44
  -3  -7   7   34.29    4.70
  -3  -7   6    3.47    1.77
   3  -7  -6    2.09    1.53
  -3  -7   5   81.08    6.27
   3  -7  -5   79.50    6.21
   3  -7  -4    4.85    2.13
  -3  -7   4    4.90    1.90
   3  -7  -3  122.35    6.54
  -3  -7   3  125.88    7.71
   3  -7  -3  108.46    8.13
   3  -7  -3  113.05    6.74
   3  -7  -2   74.77    4.68
   3  -7  -2   70.95    6.75
   3  -7  -2   76.58    5.59
   3  -7  -1   72.43    7.09
   3  -7  -1   80.82    4.75
   3  -7  -1   92.69    6.56
   3  -7   0  168.22    7.66
   3  -7   0  227.46   32.79
   3  -7   1   12.28    2.48
   3  -7   1    8.75   11.60
   3  -7   2  146.69    9.60
   3  -7   2  127.51    8.87
   3  -7   3    4.39    8.31
   3  -7   3    7.83    2.57
   3  -7   4   75.88    7.17
   3  -7   4   78.75    8.55
   3  -7   5   32.41    4.94
  -3  -7  -5   33.85    5.88
   3  -7   5   44.75    6.81
   3  -7   6   18.66    9.64
  -3  -7  -6   36.53    5.93
   3  -7   6   28.84    6.01
   3  -7   7   38.67    6.80
   3  -7   8    3.28    3.52
   3  -7   9   25.50    5.89
  -3  -6   9   13.23    3.48
  -3  -6   8   37.65    5.13
  -3  -6   7    5.16    2.15
   3  -6  -7    5.76    1.66
  -3  -6   6   85.39    6.70
   3  -6  -6   81.86    5.57
  -3  -6   5    0.28    1.55
   3  -6  -5   -0.24    1.35
   3  -6  -4  123.00    7.62
  -3  -6   4  142.17    8.01
  -3  -6   3   36.34    3.91
   3  -6  -3   32.34    3.34
   3  -6  -2   89.01    5.27
  -3  -6   2   89.23    6.37
   3  -6  -2   89.98    5.95
   3  -6  -1  116.32    7.05
   3  -6  -1  102.99    5.68
   3  -6   0   22.95    3.88
   3  -6   0   32.63    3.36
   3  -6   0   26.07   12.40
   3  -6   1  162.72    9.13
   3  -6   1  261.92   31.97
   3  -6   2    2.27    8.59
  -3  -6  -3  153.01   10.37
   3  -6   3  153.18   10.05
   3  -6   4   20.44    3.96
  -3  -6  -4   21.51    4.31
   3  -6   5   65.77    7.08
  -3  -6  -5   70.21    7.42
   3  -6   5   78.30   15.88
   3  -6   6   34.61    5.36
  -3  -6  -6   54.17    6.62
   3  -6   6   38.96    6.05
  -3  -6  -7   15.15    3.98
   3  -6   7   11.98    3.87
   3  -6   8   37.18    6.43
   3  -6   9    0.56    3.03
   3  -6  10   18.30    4.84
  -3  -5   9   14.83    3.58
  -3  -5   8   16.66    3.54
  -3  -5   7   54.97    5.57
   3  -5  -7   58.88    3.67
   3  -5  -6    3.28    1.28
  -3  -5   6    5.40    2.01
   3  -5  -5  174.92    8.07
  -3  -5   5  158.47    8.83
   3  -5  -4   19.34    2.88
  -3  -5   4   19.17    2.94
   3  -5  -3  218.78    9.74
  -3  -5   3  228.85   10.13
   3  -5  -2  128.73    6.61
  -3  -5   2  131.22    7.46
   3  -5  -2  127.04    6.95
   3  -5  -1  125.31    7.18
   3  -5  -1  118.70    6.44
   3  -5   0  242.40   10.59
   3  -5   0  274.78   11.75
   3  -5   1   28.45    3.94
   3  -5   1   41.17   12.88
  -3  -5  -3   14.47    3.33
   3  -5   4  226.82   23.97
   3  -5   4  174.05   11.21
  -3  -5  -4  206.06   11.89
   3  -5   5   59.59    6.71
   3  -5   5   53.28   12.44
  -3  -5  -5   64.05    6.61
   3  -5   6   51.98   12.85
   3  -5   6   43.67    6.19
  -3  -5  -6   56.87    6.32
   3  -5   7   63.13    7.38
  -3  -5  -7   83.92    7.66
   3  -5   8    2.85    2.67
   3  -5   9   38.03    6.00
   3  -5  10    0.47    2.76
  -3  -4   9   31.83    4.79
  -3  -4   8   33.96    4.53
   3  -4  -7   13.94    1.53
  -3  -4   7   12.68    2.81
   3  -4  -6  121.12    5.63
  -3  -4   6  124.34    7.80
   3  -4  -5    0.27    1.19
  -3  -4   5    0.53    1.14
   3  -4  -4  277.78   11.32
  -3  -4   4  251.92   11.01
   3  -4  -3   88.13    5.61
  -3  -4   3   76.43    5.43
   3  -4  -2  249.42    9.97
  -3  -4   2  255.94   10.67
   3  -4  -1  215.24    9.30
   3  -4  -1  229.57    9.89
   3  -4   0   56.72    4.73
   3  -4   0   46.78    4.34
   3  -4   1  430.27   16.67
  -3  -4  -2    4.01    2.08
  -3  -4  -3  332.94   15.17
   3  -4   3  370.14   29.87
   3  -4   4   88.13   14.13
  -3  -4  -4   85.83    7.04
   3  -4   4   71.51    6.87
   3  -4   5  113.04    9.08
  -3  -4  -5  150.89    9.49
   3  -4   5  123.66   16.59
   3  -4   6   71.93    7.65
  -3  -4  -6   91.14    7.46
   3  -4   6  106.11   15.82
   3  -4   7   16.17    4.00
  -3  -4  -7   20.18    3.94
   3  -4   8   58.91    7.37
   3  -4   9    0.41    2.23
   3  -4  10   29.82    4.73
  -3  -3  10   20.50    4.17
  -3  -3   9   26.12    4.35
  -3  -3   8   14.54    3.28
  -3  -3   7   99.23    7.24
   3  -3  -7   95.08    3.52
  -3  -3   6    3.06    1.56
   3  -3  -5  224.96   10.61
  -3  -3   5  220.54   10.37
  -3  -3   4   22.12    3.02
   3  -3  -4   30.34    3.45
   3  -3  -3  231.19    9.65
  -3  -3   3  209.95    9.48
   3  -3  -2  177.69    8.05
  -3  -3   2  181.50    8.50
   3  -3  -1  119.69    6.60
  -3  -3   1  124.02    7.16
   3  -3  -1  120.13    6.80
   3  -3   0  309.05   12.27
   3  -3   0  311.04   12.53
   3  -3   1   21.19    3.08
   3  -3   2  516.65   33.88
  -3  -3  -2  438.35   17.25
   3  -3   3   17.22    7.07
  -3  -3  -3   12.02    2.72
  -3  -3  -4  317.33   13.94
   3  -3   4  291.60   22.82
   3  -3   5   71.55   11.86
  -3  -3  -5   63.23    5.98
   3  -3   5   52.71    5.97
  -3  -3  -6   62.44    5.99
   3  -3   6   62.69    6.96
   3  -3   6   58.94   11.33
  -3  -3  -7  104.47    8.23
   3  -3   7   85.82    8.41
   3  -3   8    7.02    3.18
   3  -3  10   -0.34    1.84
  -3  -2  10    8.63    2.84
  -3  -2   9   32.88    4.79
  -3  -2   8   67.38    6.28
  -3  -2   7   14.55    2.89
  -3  -2   6  148.32    8.50
   3  -2  -5    1.84    1.48
  -3  -2   5    5.40    1.72
   3  -2  -4  315.93   12.43
  -3  -2   4  293.71   11.93
   3  -2  -3   92.22    5.74
  -3  -2   3   97.91    5.93
   3  -2  -2  377.13   13.10
  -3  -2   2  381.04   13.29
   3  -2  -1  370.67   13.36
  -3  -2   1  400.08   14.03
   3  -2  -1  378.72   13.50
   3  -2   0  118.03    6.82
   3  -2   0  119.33    7.10
  -3  -2  -1  537.88   18.49
   3  -2   1  514.16   17.63
   3  -2   2    2.16    4.29
  -3  -2  -2    0.88    1.53
  -3  -2  -3  369.56   14.91
   3  -2   3  359.96   25.26
  -3  -2  -4   91.75    6.73
   3  -2   4   92.63   11.53
   3  -2   5  182.40   16.76
  -3  -2  -5  202.61   10.57
   3  -2   5  169.83   10.92
   3  -2   6  110.77    9.00
  -3  -2  -6  127.46    8.56
   3  -2   7   38.66    5.57
  -3  -2  -7   22.19    4.13
   3  -2   8   73.72    7.88
   3  -2  10   39.67    4.55
  -3  -1  10   17.87    3.77
  -3  -1   9   20.82    3.94
  -3  -1   8   21.43    3.75
  -3  -1   7  162.08    9.23
   3  -1  -7  153.08    5.08
  -3  -1   6   10.17    2.32
   3  -1  -5  323.69   13.21
  -3  -1   5  304.49   12.37
   3  -1  -4    8.09    1.94
  -3  -1   4   12.52    2.23
   3  -1  -3  238.57    9.91
  -3  -1   3  233.87    9.76
   3  -1  -2  230.54    9.39
  -3  -1   2  212.36    9.17
   3  -1  -1  151.79    7.61
  -3  -1   1  166.97    8.05
   3  -1  -1  155.79    7.68
   3  -1   0  511.21   16.78
   3  -1   0  499.22   17.04
   3  -1   1    4.92    1.62
  -3  -1  -1    3.41    1.60
  -3  -1  -2  454.85   16.76
   3  -1   2  477.89   26.66
   3  -1   3   11.99    5.26
  -3  -1  -3   17.32    2.87
  -3  -1  -4  274.77   12.31
   3  -1   4  275.91   18.14
  -3  -1  -5  115.47    7.77
   3  -1   5  122.51   12.42
   3  -1   5  122.30    8.86
   3  -1   6   47.25    5.82
  -3  -1  -6   56.67    6.19
   3  -1   7  138.40   10.37
   3  -1   8    0.94    2.18
  -3  -1  -8    0.77    3.45
   3   0  -7   20.14    1.90
   3   0  -5    9.54    2.39
   3   0  -4  201.51    9.49
   3   0  -3   75.47    5.14
   3   0  -2  287.73   10.76
  -3   0   2  261.82   10.47
   3   0  -1  351.34   12.73
  -3   0   1  361.06   13.09
   3   0   0  121.75    7.02
   3   0   0  133.53    7.18
   3   0   1  395.45   14.63
  -3   0  -1  446.02   15.70
  -3   0  -2    4.94    1.71
  -3   0  -3  209.67   10.23
   3   0   3  234.52   15.26
  -3   0  -4   59.05    5.10
   3   0   4   48.46    6.88
  -3   0  -5  200.45   10.30
   3   0   5  170.07   10.55
  -3   0  -6   92.79    7.31
  -3   0  -7   42.16    8.10
  -3   0  -8   52.70    9.43
  -3   0  -9    1.97    4.25
  -3   1  10   23.30    4.33
  -3   1   9   25.91    4.17
   3   1  -8   23.12    1.93
  -3   1   8   30.16    4.22
  -3   1   7  154.45    8.91
   3   1  -7  151.28    6.34
  -3   1   6   16.42    2.78
   3   1  -6    9.48    1.75
  -3   1   5  292.27   11.74
   3   1   3   15.30    3.56
   3   1   7  122.03    9.41
  -3   1  -7  105.09   12.98
   3   1   8    3.97    2.42
  -3   1  -8    4.12    4.94
   3   1   9   34.01    5.65
  -3   1  -9   38.81    9.24
  -3   2  10   11.15    3.55
  -3   2   9   34.61    4.73
   3   2  -8   54.53    3.50
  -3   2   8   55.76    5.47
   3   2  -7   18.36    2.30
  -3   2   7   17.35    2.98
  -3   2   6  147.03    8.11
   3   2  -6  146.32    7.07
  -3   2   5    4.82    1.74
   3   2  -5    4.26    1.75
   3   2  -5    2.11    1.26
   3   2  -4  304.40   12.48
  -3   2   4  312.87   11.78
   3   2  -3  106.69    6.23
  -3   2   3   95.38    5.67
   3   2  -2  351.83   12.79
  -3   2   2  392.02   13.12
   3   2  -1  371.26   12.97
   3   2   0  115.45    6.56
   3   2   0  114.05    6.53
   3   2   1  539.69   17.63
  -3   2  -1  550.34   18.06
  -3   2  -2    1.96    1.41
  -3   2  -3  367.14   13.81
   3   2   3  332.45   11.63
  -3   2  -4   81.56    6.02
  -3   2  -5  183.53    9.72
   3   2   5  175.10   10.29
   3   2   6   94.70    7.72
  -3   2  -6   97.47    8.17
   3   2   7   32.46    4.77
  -3   2  -7   36.54    8.86
   3   2   8   72.82    7.10
  -3   2  -8   58.93   11.43
  -3   2  -9   -1.23    5.10
  -3   3  10   25.38    4.33
  -3   3   9   25.09    4.00
  -3   3   8   17.77    3.32
   3   3  -8   15.33    2.21
   3   3  -7   99.20    5.75
  -3   3   7   94.79    6.71
  -3   3   6    3.00    1.53
   3   3  -6    2.07    1.40
   3   3  -5  209.95   10.25
  -3   3   5  212.15    9.66
   3   3  -5  230.33    9.96
   3   3  -4   32.95    3.62
  -3   3   4   25.29    2.96
   3   3  -4   30.22    3.50
   3   3  -3  238.41   10.04
  -3   3   3  228.26    9.46
   3   3  -2  162.47    7.73
  -3   3   2  164.52    7.79
   3   3  -1  110.50    6.15
   3   3  -1  110.39    6.31
   3   3   0  292.45   11.46
   3   3   0  288.22   11.15
   3   3   1   22.65    2.91
   3   3   1   20.48    2.79
  -3   3  -1   19.12    2.76
  -3   3  -2  422.70   15.36
  -3   3  -3   12.96    2.40
  -3   3  -4  248.76   11.27
   3   3   5   55.45    5.53
  -3   3  -5   62.30    5.42
   3   3   6   62.35    6.10
  -3   3  -6   65.95    6.13
   3   3   7   78.87    7.15
   3   3   8    9.68    2.95
  -3   3  -8    8.87    6.45
  -3   4  10    6.31    2.85
  -3   4   9   20.81    3.67
   3   4  -8   43.65    3.89
  -3   4   8   38.12    4.45
  -3   4   7   15.99    2.86
   3   4  -7   12.54    2.35
   3   4  -6  115.46    6.90
  -3   4   6  119.95    7.28
   3   4  -5   -0.27    1.30
  -3   4   5    1.11    1.13
   3   4  -5    0.25    1.26
   3   4  -4  303.23   12.22
  -3   4   4  276.38   11.04
   3   4  -4  290.97   12.29
   3   4  -3   93.05    5.93
  -3   4   3   94.41    5.61
   3   4  -3   82.94    6.18
   3   4  -2  234.50    9.75
  -3   4   2  254.09   10.24
   3   4  -1  240.74    9.54
   3   4  -1  220.78    9.65
   3   4   0   61.71    4.58
   3   4   0   59.76    4.39
   3   4   1  372.98   13.47
  -3   4  -1  390.24   13.82
   3   4   1  389.02   13.60
   3   4   1  367.15   14.36
  -3   4  -2    4.81    1.71
  -3   4  -3  384.24   14.48
  -3   4  -4   64.35    5.28
  -3   4  -5  125.19    7.73
   3   4   5  112.56    7.79
  -3   4  -6   73.29    6.25
   3   4   6   66.33    6.37
   3   4   7   22.57    4.02
   3   4   8   62.84    6.50
  -3   5  10   19.02    3.82
  -3   5   9   16.69    3.37
  -3   5   8   20.97    3.46
   3   5  -7   54.93    4.80
  -3   5   7   55.41    5.06
  -3   5   6    2.46    1.47
   3   5  -6    1.29    1.51
  -3   5   5  155.22    7.89
   3   5  -5  144.46    8.45
   3   5  -4   22.03    3.15
  -3   5   4   20.96    2.72
   3   5  -4   19.89    3.28
   3   5  -3  248.94   10.41
  -3   5   3  238.39    9.87
   3   5  -3  231.62   11.44
   3   5  -2  140.28    7.05
   3   5  -2  133.23    8.42
   3   5  -2  140.95   13.37
   3   5  -1  128.88    6.54
   3   5  -1  143.31    8.68
   3   5  -1  132.26    7.04
   3   5  -1  130.80   11.59
   3   5   0  258.02   10.21
   3   5   0  267.28   10.15
   3   5   1   24.81    4.16
   3   5   1   29.06    3.11
   3   5   1   28.57    3.13
   3   5   2  286.98   11.80
  -3   5  -2  355.37   13.15
  -3   5  -3   15.32    2.74
  -3   5  -4  172.78    9.06
   3   5   4  172.48    9.19
   3   5   5   56.58    5.27
  -3   5  -5   63.40    5.55
   3   5   6   56.98    5.64
  -3   5  -6   62.15    5.69
   3   5   7   61.61    6.05
   3   5   7   61.57    5.29
   3   5   8    4.13    1.75
  -3   6  10    9.40    2.78
  -3   6   9   15.56    3.38
  -3   6   8   32.13    4.20
   3   6  -7    6.19    2.19
  -3   6   7    4.00    1.81
   3   6  -6   87.18    6.52
  -3   6   6   87.43    6.03
   3   6  -5   -1.21    4.79
  -3   6   5    0.66    1.09
   3   6  -5    0.29    1.36
   3   6  -4  123.24    7.26
   3   6  -4  113.27    7.86
  -3   6   4  132.03    6.93
   3   6  -4  128.23   15.27
   3   6  -3   42.41    3.96
   3   6  -3   31.56    7.83
   3   6  -3   38.85    4.65
  -3   6   3   37.05    3.70
   3   6  -2   84.97    5.36
   3   6  -2   87.32    6.91
   3   6  -2   82.62    5.30
   3   6  -2   69.48    9.74
   3   6  -1  112.96    6.15
   3   6  -1  102.13    5.70
   3   6  -1  100.33    7.58
   3   6  -1   90.99   10.26
   3   6   0   27.34    5.37
   3   6   0   30.67    3.01
   3   6   0   34.46    3.23
   3   6   1  179.81   10.25
   3   6   1  169.66   11.50
   3   6   1  183.17    8.04
  -3   6  -2    0.45    1.14
   3   6   2    0.59    1.03
   3   6   2    0.33    1.62
  -3   6  -3  184.26    9.17
   3   6   3  169.33    9.91
  -3   6  -4   30.34    3.64
   3   6   4   23.73    3.84
   3   6   4   20.49    3.10
   3   6   5   66.14    5.68
  -3   6  -5   66.35    5.65
   3   6   5   70.75    6.13
   3   6   6   36.37    4.42
   3   6   6   34.07    4.40
  -3   6  -6   46.48    4.97
   3   6   7    9.50    2.62
   3   6   7   16.59    3.12
  -3   7   9   11.71    3.04
  -3   7   8   14.54    2.95
  -3   7   7   36.41    4.13
  -3   7   6    2.38    1.56
  -3   7   5   85.00    5.66
   3   7  -4    3.30    4.57
   3   7  -4    7.20    2.36
  -3   7   4    8.68    2.20
   3   7  -3  118.41    6.72
   3   7  -3  127.12    8.59
   3   7  -3  124.50   14.50
   3   7  -2   50.78    9.10
   3   7  -2   76.25    4.95
   3   7  -2   56.96    5.92
   3   7  -2   67.27    4.75
   3   7  -1   95.16    5.41
   3   7  -1   87.34    5.13
   3   7  -1   87.21    7.21
   3   7  -1   76.06   10.46
   3   7   0  197.56    8.06
   3   7   0  177.76   15.05
   3   7   0  198.77    8.21
   3   7   1   17.13    2.22
   3   7   1   11.69    2.96
   3   7   2  157.16    7.39
   3   7   2  159.10    9.99
   3   7   3    9.25    2.08
  -3   7  -3    7.87    2.07
   3   7   3    3.94    1.61
   3   7   3    8.02    2.71
   3   7   4   69.22    5.24
  -3   7  -4   83.38    6.16
   3   7   4   77.75    6.81
   3   7   5   34.13    3.93
  -3   7  -5   37.75    4.38
   3   7   5   35.54    4.65
   3   7   6   42.19    4.47
  -3   7  -6   32.10    4.36
   3   7   6   29.54    4.23
   3   7   7   41.75    4.84
  -3   8   8   19.70    3.32
  -3   8   7    5.07    1.97
   3   8  -6   51.43    5.15
  -3   8   6   68.12    5.23
  -3   8   5    0.22    1.23
   3   8  -4   66.60   12.22
   3   8  -3   16.81    6.99
   3   8  -3   16.99    2.46
   3   8  -2   39.58    9.30
   3   8  -2   48.34    3.84
   3   8  -2   50.11    3.90
   3   8  -1   74.19    4.57
   3   8  -1   86.76    4.85
   3   8   0   17.26    2.15
   3   8   1  106.58    5.27
   3   8   2    0.51    0.95
   3   8   2   -0.15    0.96
   3   8   3   85.01    5.23
   3   8   3   85.97    5.23
  -3   8  -3   90.97    5.84
   3   8   4    9.34    1.99
   3   8   4   10.54    2.09
  -3   8  -4   14.04    2.74
  -3   8  -5   46.06    4.82
   3   8   5   36.07    3.77
  -3   8  -6   35.99    4.57
   3   9  -3   46.46   11.73
   3   9  -3   45.60    3.63
   3   9  -2   26.46    2.63
   3   9  -2   19.49    7.46
   3   9  -1   18.81    6.87
   3   9   0   73.50    3.92
   3   9   1    2.97    1.09
   3   9   1    3.84    1.13
   3   9   2   66.10    3.85
   3   9   2   65.80    3.70
   3   9   3    2.39    1.10
   3   9   3    1.51    1.03
  -3   9  -4   43.46    4.17
   3  10  -2   30.43    9.14
   4 -10  -4   21.55    5.20
   4 -10  -3   15.22    4.99
   4 -10  -2    6.98    3.93
   4 -10  -1   48.78    8.77
   4  -9  -5   33.76    5.53
   4  -9  -4   18.44    4.49
   4  -9  -3   20.98    5.06
   4  -9  -2   62.98    8.33
   4  -9  -2  119.90   31.78
   4  -9  -1    3.27    3.13
   4  -9  -1   -4.59   17.38
   4  -9   0   63.46    9.06
   4  -9   0  156.96   37.55
   4  -9   1    4.21   13.36
   4  -9   1    2.27    3.39
   4  -9   2  111.16   28.45
   4  -9   2   45.19    8.22
   4  -9   3   19.95   15.95
  -4  -8   8   18.25    4.08
  -4  -8   7    0.41    1.89
  -4  -8   6   28.87    4.51
   4  -8  -5    6.87    2.12
   4  -8  -5   12.70    3.44
  -4  -8   5    6.79    2.60
  -4  -8   4   31.59    4.75
   4  -8  -4   28.55    5.08
   4  -8  -4   32.14    4.10
   4  -8  -3   43.98    4.78
   4  -8  -3   41.79    6.06
   4  -8  -2   22.57    3.82
   4  -8  -2   16.56    2.87
   4  -8  -2   16.30    4.24
   4  -8  -1   77.67    8.90
   4  -8  -1   92.10    6.05
   4  -8   0    1.72    1.35
   4  -8   0    3.69   11.70
   4  -8   1   99.18    7.18
   4  -8   1  112.38   27.75
   4  -8   2    5.04    2.84
   4  -8   2    8.45    3.06
   4  -8   3   16.59    4.20
   4  -8   3   36.18    5.75
   4  -8   4   21.04    4.99
   4  -8   4   35.81    7.31
   4  -8   5   15.52   11.18
   4  -8   5    7.54    3.34
   4  -8   5    6.51    4.02
   4  -8   6   16.51    4.71
  -4  -7   8    0.42    2.09
  -4  -7   7   33.69    4.91
  -4  -7   6    3.31    2.02
   4  -7  -6    6.23    2.36
   4  -7  -5   66.94    6.34
  -4  -7   5   55.76    5.73
   4  -7  -4   33.03    4.18
  -4  -7   4   32.45    4.47
   4  -7  -4   29.26    4.47
   4  -7  -4   26.83    3.61
   4  -7  -3   33.66    4.00
   4  -7  -3   37.15    4.33
   4  -7  -2   88.02    6.14
   4  -7  -2   89.28    6.72
   4  -7  -1    6.13    1.96
   4  -7  -1    7.55    2.76
   4  -7   0  108.29    7.31
   4  -7   0  182.17   30.32
   4  -7   1    4.44    2.32
   4  -7   1    3.05   10.33
   4  -7   2   69.62    7.23
   4  -7   3   19.27    4.69
   4  -7   4   48.31   15.61
   4  -7   4   30.39    5.50
   4  -7   5   28.75    5.67
  -4  -7  -5   36.09    6.74
   4  -7   6    4.46    8.03
   4  -7   6    4.31    3.13
   4  -7   6    2.88    3.56
   4  -7   7   25.14    6.02
   4  -7   7   44.61    8.10
  -4  -6   8   26.02    4.44
  -4  -6   7    2.65    2.18
   4  -6  -6   45.41    4.62
  -4  -6   6   46.95    5.34
   4  -6  -5   14.16    2.97
   4  -6  -5   12.61    2.80
  -4  -6   5   11.67    2.89
   4  -6  -4   63.65    5.70
  -4  -6   4   65.61    5.99
   4  -6  -3   82.55    6.21
  -4  -6   3   71.35    6.36
   4  -6  -3   66.84    5.59
   4  -6  -2   27.99    3.72
   4  -6  -2   31.33    3.69
   4  -6  -1  140.43    8.06
   4  -6  -1  133.60    8.52
   4  -6   0    1.79    1.92
   4  -6   0    1.22    1.55
   4  -6   1  152.69    9.82
   4  -6   2   16.76    4.15
   4  -6   3  114.54   22.32
  -4  -6  -4   41.87    6.28
   4  -6   4   52.77    7.05
   4  -6   5   28.90   11.78
   4  -6   5   16.58    4.24
  -4  -6  -5   22.57    4.94
   4  -6   6   49.87    7.40
   4  -6   6   58.35   14.96
   4  -6   7    0.63    2.62
   4  -6   8   38.24    6.91
  -4  -5   8    2.01    2.05
   4  -5  -7   49.32    4.00
  -4  -5   7   60.07    6.16
  -4  -5   6    4.77    2.16
   4  -5  -5  103.68    7.56
  -4  -5   5   88.12    6.98
   4  -5  -4   64.49    5.69
  -4  -5   4   54.00    5.26
   4  -5  -3   69.49    5.65
  -4  -5   3   71.53    6.11
   4  -5  -3   69.85    5.56
   4  -5  -2  126.74    7.58
   4  -5  -2  110.43    7.37
   4  -5  -1   11.89    2.61
   4  -5  -1   11.53    2.51
   4  -5   0  152.76    9.31
   4  -5   0  155.19    9.49
   4  -5   1   10.53    3.07
   4  -5   2  178.01   25.84
   4  -5   3   62.95   15.82
  -4  -5  -3   59.47    6.98
   4  -5   4   62.04   14.21
  -4  -5  -4   55.18    7.03
  -4  -5  -5   76.77    8.11
   4  -5   5   87.86   16.33
   4  -5   5   60.65    7.65
   4  -5   6    8.43    7.00
   4  -5   6    3.59    2.59
   4  -5   7   38.54    6.59
   4  -5   8    0.63    2.61
   4  -5   9   27.87    5.66
  -4  -4   9    3.88    2.37
  -4  -4   8   40.52    5.30
  -4  -4   7   -0.36    1.63
   4  -4  -6   68.21    6.47
  -4  -4   6   64.08    5.96
  -4  -4   5   24.13    3.70
   4  -4  -5   20.28    3.57
   4  -4  -4   87.85    6.78
  -4  -4   4   98.42    6.97
   4  -4  -3  124.38    7.69
  -4  -4   3  118.38    7.75
   4  -4  -2   38.02    4.01
  -4  -4   2   38.10    4.41
   4  -4  -2   32.46    3.85
   4  -4  -1  160.19    9.11
   4  -4  -1  167.37    9.17
   4  -4   0    0.32    1.45
   4  -4   0    1.51    1.40
   4  -4   1  203.35   11.25
   4  -4   1  198.65   11.83
   4  -4   2   43.32   12.83
   4  -4   3  192.88   24.30
  -4  -4  -3  148.78   10.72
  -4  -4  -4   77.61    7.74
   4  -4   4   67.00   13.68
   4  -4   5   38.34   10.66
  -4  -4  -5   47.55    6.05
   4  -4   5   38.33    5.98
   4  -4   6   71.16    8.11
   4  -4   6   78.97   14.67
  -4  -4  -6  104.88    8.88
   4  -4   7    2.44    2.74
   4  -4   8   49.44    7.44
  -4  -3   9   33.71    5.00
  -4  -3   8    3.11    2.09
  -4  -3   7   90.34    7.34
   4  -3  -6    3.83    2.29
  -4  -3   6    7.09    2.22
   4  -3  -5  140.18    8.80
  -4  -3   5  130.88    8.33
   4  -3  -4   82.82    6.45
  -4  -3   4   81.00    6.26
   4  -3  -3  121.14    7.59
  -4  -3   3  121.09    7.69
   4  -3  -2  192.71    9.84
  -4  -3   2  201.31   10.39
   4  -3  -2  207.91   10.13
   4  -3  -1   16.51    3.00
   4  -3  -1   23.05    3.29
   4  -3   0  319.63   13.69
   4  -3   0  315.38   14.08
   4  -3   1   17.29    3.57
   4  -3   1   11.77    2.66
  -4  -3  -2  256.40   13.62
   4  -3   2  330.10   28.54
   4  -3   3  142.01   19.41
  -4  -3  -3  114.15    8.94
  -4  -3  -4  105.17    8.60
   4  -3   4  110.45   15.70
  -4  -3  -5  145.06    9.98
   4  -3   5  107.24   15.10
   4  -3   5  114.52    9.88
   4  -3   6    5.04    6.41
   4  -3   6    5.32    2.92
  -4  -3  -6    7.08    2.69
   4  -3   7   78.60    8.88
   4  -3   8    3.60    2.69
  -4  -2   9    5.77    2.47
  -4  -2   8   65.07    6.38
  -4  -2   7    2.45    1.88
   4  -2  -6  131.54    9.17
  -4  -2   6  135.59    8.65
   4  -2  -5   27.87    3.97
  -4  -2   5   22.40    3.47
   4  -2  -4  138.29    8.36
  -4  -2   4  134.01    8.11
   4  -2  -3  172.31    9.23
  -4  -2   3  174.51    9.22
   4  -2  -2   59.71    5.17
  -4  -2   2   55.03    5.12
   4  -2  -1  319.12   13.60
   4  -2  -1  328.46   13.67
   4  -2   0    1.99    1.32
   4  -2   0    1.92    1.53
   4  -2   1  304.57   14.56
   4  -2   1  270.85   12.77
  -4  -2  -2   46.78    5.48
  -4  -2  -3  175.78   10.93
   4  -2   3  208.90   21.14
  -4  -2  -4  142.15    9.56
   4  -2   4  128.73   15.08
   4  -2   5   37.32    8.52
  -4  -2  -5   52.50    5.75
  -4  -2  -6  141.29    9.59
   4  -2   6  139.87   15.92
   4  -2   6  124.66   10.34
   4  -2   7   -0.55    2.18
   4  -2   8   51.46    7.26
   4  -2   9    0.59    2.64
  -4  -1   9   40.02    5.22
  -4  -1   8    3.36    2.05
  -4  -1   7   96.34    7.42
   4  -1  -6    8.32    2.67
  -4  -1   6   13.43    2.73
   4  -1  -5  111.92    7.94
  -4  -1   5  110.85    7.34
   4  -1  -4   80.97    6.25
  -4  -1   4   75.29    5.86
   4  -1  -3  107.78    7.03
  -4  -1   3  103.18    6.77
   4  -1  -2  217.88   10.48
  -4  -1   2  216.94   10.52
   4  -1  -1   30.04    3.75
   4  -1  -1   38.18    4.21
   4  -1   0  463.95   17.16
   4  -1   0  454.59   17.45
   4  -1   1    6.52    2.10
   4  -1   1    2.89    1.89
   4  -1   2  297.91   14.17
  -4  -1  -2  318.05   14.67
  -4  -1  -3   75.14    6.76
   4  -1   3   78.78   12.11
  -4  -1  -4  126.38    8.74
   4  -1   4  125.85   13.34
  -4  -1  -5  161.82   10.11
   4  -1   5  144.92   14.32
  -4  -1  -6   19.28    3.67
   4  -1   6   11.90    3.63
   4  -1   7   91.34    8.89
   4  -1   8    0.57    2.15
   4  -1   9   38.78    6.54
   4   0  -8   80.00    4.34
   4   0  -6  226.11   12.00
   4   0  -5   26.58    3.80
   4   0  -4  211.77   10.57
   4   0  -3  216.86   10.43
   4   0  -2  106.21    7.00
  -4   0   2  106.76    7.04
   4   0  -1  540.13   18.92
   4   0  -1  575.19   19.45
   4   0   0    1.13    1.31
   4   0   0    1.19    1.24
   4   0   1  386.43   16.26
   4   0   1  380.80   15.26
   4   0   2   63.40    5.81
  -4   0  -2   68.38    6.21
  -4   0  -3  220.61   11.83
   4   0   3  266.20   19.14
  -4   0  -4  168.77   10.03
   4   0   4  157.77   13.19
   4   0   5   39.19    7.18
  -4   0  -5   46.84    5.26
  -4   0  -6  196.91   11.20
   4   0   6  180.23   12.16
  -4   1   9   36.05    5.03
  -4   1   8    8.31    2.71
   4   1  -8    5.05    1.48
  -4   1   7   95.20    7.29
   4   1  -7   93.78    5.81
  -4   1   6    9.89    2.47
  -4   1   5  134.55    8.04
  -4   1   4   75.30    5.76
   4   1   3   75.77    9.05
   4   1   4  127.74    9.97
   4   1   7   73.05    7.73
   4   1   8   -1.06    2.29
   4   1   9   32.00    5.68
  -4   2   9    5.04    2.42
  -4   2   8   56.29    5.91
   4   2  -8   66.49    4.61
  -4   2   7    1.30    1.65
   4   2  -7   -0.22    1.45
   4   2  -6  133.58    9.13
  -4   2   6  150.42    8.69
   4   2  -5   30.66    4.11
  -4   2   5   37.32    4.16
   4   2  -4  164.49    9.31
  -4   2   4  135.48    7.91
   4   2  -3  179.35    9.35
  -4   2   3  181.35    9.20
   4   2  -2   63.86    5.23
  -4   2   2   58.18    5.17
   4   2  -1  326.18   13.34
   4   2  -1  349.82   14.08
   4   2   0    1.95    1.50
   4   2   0    3.55    1.50
   4   2   1  280.74   12.79
   4   2   1  299.53   12.85
   4   2   2   50.71    5.07
  -4   2  -2   41.63    4.77
  -4   2  -3  203.38   10.88
   4   2   3  188.69   10.84
  -4   2  -4  116.28    8.12
  -4   2  -5   39.70    4.82
  -4   2  -6  133.31    8.96
   4   2   6  127.85    9.78
   4   2   7   -0.46    1.92
   4   2   8   57.36    7.17
   4   2   9    4.60    3.00
  -4   3   9   31.03    4.75
  -4   3   8    9.09    2.55
   4   3  -8    2.99    1.58
  -4   3   7   81.50    6.60
   4   3  -7   73.17    5.68
   4   3  -6    2.77    2.08
  -4   3   6    3.77    1.88
   4   3  -6    4.61    1.87
   4   3  -5  142.89    8.89
  -4   3   5  139.63    8.17
   4   3  -4   71.89    6.07
  -4   3   4   84.82    6.03
   4   3  -3  137.36    8.01
  -4   3   3  130.73    7.73
   4   3  -2  209.25    9.89
   4   3  -1   24.81    3.33
   4   3  -1   25.70    3.52
   4   3   0  306.45   13.08
   4   3   0  321.97   13.11
   4   3   1   20.39    3.17
   4   3   1   15.66    2.87
   4   3   2  324.63   14.20
  -4   3  -2  294.27   13.49
  -4   3  -3  129.90    8.53
  -4   3  -4  102.56    7.57
  -4   3  -5  116.07    8.21
  -4   3  -6   10.65    2.73
   4   3   6   10.61    3.06
   4   3   7   62.50    7.03
   4   3   8    0.48    2.01
   4   3   9   31.11    5.28
  -4   4   9    6.34    2.69
  -4   4   8   42.52    5.09
  -4   4   7    1.24    1.75
   4   4  -7    0.27    1.57
   4   4  -6   65.68    6.45
  -4   4   6   75.32    6.01
   4   4  -6   67.85    5.85
  -4   4   5   19.56    3.14
   4   4  -5   22.49    3.64
   4   4  -5   24.96    3.86
   4   4  -4  108.46    7.47
  -4   4   4   99.31    6.67
   4   4  -3  119.57    7.47
  -4   4   3  122.72    7.55
   4   4  -2   37.63    4.03
   4   4  -1  182.20    9.26
   4   4  -1  189.53    9.70
   4   4   0    4.77    1.71
   4   4   0    2.54    1.33
   4   4   1  203.57    9.99
   4   4   1  207.07   10.09
   4   4   2   18.78    3.16
   4   4   2   25.48    2.22
  -4   4  -3  160.95    9.60
  -4   4  -4   83.99    6.81
  -4   4  -5   31.08    4.34
   4   4   6   69.72    7.02
   4   4   7    4.89    2.61
   4   4   8   54.09    6.57
   4   4   9    3.76    2.52
  -4   5   9   20.53    3.84
  -4   5   8    0.67    1.69
  -4   5   7   52.35    5.33
   4   5  -7   56.04    5.31
  -4   5   6    3.45    1.73
   4   5  -6    5.16    2.29
   4   5  -5  100.11    7.43
  -4   5   5   93.52    6.63
   4   5  -5   95.40    7.42
   4   5  -4   57.10    5.47
  -4   5   4   55.01    4.97
   4   5  -4   51.05    5.60
   4   5  -3   78.96    6.06
   4   5  -3   73.01    6.68
   4   5  -2  134.04    7.70
   4   5  -2  135.03    7.92
   4   5  -1   10.37    2.23
   4   5  -1    8.97    2.13
   4   5   0  143.32    8.14
   4   5   0  142.85    7.91
   4   5   0  158.88   11.62
   4   5   1    6.54    2.51
   4   5   1   10.44    2.28
   4   5   1    6.28    1.86
   4   5   2  120.05    7.54
  -4   5  -2  153.11    8.74
  -4   5  -3   73.99    6.25
  -4   5  -4   59.57    5.76
  -4   5  -5   61.10    6.04
   4   5   5   65.04    6.30
   4   5   6    5.76    2.30
   4   5   7   48.05    6.01
   4   5   8    0.43    2.06
  -4   6   9    5.34    2.38
  -4   6   8   28.35    4.26
  -4   6   7    1.53    1.80
  -4   6   6   50.49    4.90
   4   6  -5   12.86    3.04
  -4   6   5   10.63    2.50
   4   6  -5    8.72    2.80
   4   6  -4   69.91    5.94
   4   6  -4   60.18   11.47
  -4   6   4   66.84    5.66
   4   6  -4   67.28    6.59
   4   6  -3   75.05    5.97
   4   6  -3   78.70    7.21
   4   6  -3   88.55   12.36
   4   6  -2   31.71    7.51
   4   6  -2   28.52    3.49
   4   6  -2   26.74    3.51
   4   6  -2   29.66    4.64
   4   6  -1  152.63    8.24
   4   6  -1  164.85    8.30
   4   6  -1  131.53    9.59
   4   6  -1  128.43   12.26
   4   6   0    2.92    1.51
   4   6   0    0.50    2.89
   4   6   0    4.78    1.83
   4   6   1  185.43    9.54
   4   6   1  161.56    8.57
   4   6   1  181.97   11.33
   4   6   2   13.26    2.56
   4   6   3   62.39    5.34
  -4   6  -3   88.98    6.78
  -4   6  -4   66.93    6.16
  -4   6  -5   22.91    3.91
   4   6   5   21.12    3.67
   4   6   6   57.10    6.17
   4   6   6   41.61    5.26
   4   6   7   -0.39    1.82
   4   6   7    4.83    2.41
   4   6   8   24.85    4.41
  -4   7   9   15.57    3.33
  -4   7   8    0.32    1.69
  -4   7   7   43.00    4.79
  -4   7   6    3.22    1.75
  -4   7   5   59.34    5.45
   4   7  -4   25.40    3.68
   4   7  -4   25.13    7.88
   4   7  -3   33.44    8.19
   4   7  -3   40.28    4.28
   4   7  -3   28.15    3.52
   4   7  -2   87.15    6.06
   4   7  -2   71.84   10.43
   4   7  -2   71.69    5.49
   4   7  -1    5.61    3.86
   4   7  -1    7.12    2.03
   4   7  -1    6.75    2.02
   4   7   0   97.72    6.15
   4   7   0   94.74   10.30
   4   7   0  100.55    6.29
   4   7   1    4.98    1.78
   4   7   2   76.36    5.51
  -4   7  -3   19.96    3.32
   4   7   3   17.34    2.73
   4   7   4   23.01    3.33
  -4   7  -4   36.26    4.53
   4   7   4   34.79    4.31
  -4   7  -5   44.79    5.19
   4   7   5   40.89    4.74
   4   7   6    3.49    1.97
   4   7   7   36.88    4.91
  -4   8   7    0.92    1.90
  -4   8   6   33.11    4.27
   4   8  -3   30.90    8.22
   4   8  -3   31.95    3.85
   4   8  -3   33.35    3.76
   4   8  -2   16.84    6.25
   4   8  -2   15.50    2.58
   4   8  -2   17.60    2.76
   4   8  -1   90.09    5.98
   4   8  -1   99.09    6.05
   4   8   0    1.25    1.17
   4   8   0    2.14    3.83
   4   8   1   99.00    6.02
   4   8   2   11.27    2.30
   4   8   3   32.61    3.52
   4   8   3   36.48    4.02
   4   8   4   24.22    3.22
  -4   8  -4   30.59    4.11
   4   8   4   30.38    3.88
   4   8   5   12.32    2.68
  -4   8  -5   12.96    3.17
   4   8   5    6.13    1.88
   4   8   6   34.74    4.52
   4   9  -4   10.77    2.34
   4   9  -3   24.15    3.02
   4   9  -2   61.33    4.84
   4   9  -2   53.99    4.32
   4   9  -2   51.31   10.74
   4   9  -1    4.04    1.62
   4   9  -1    6.08    1.81
   4   9  -1    9.51    5.10
   4   9   0   88.20    5.52
   4   9   1    3.11    1.41
   4   9   3   17.70    2.66
   4   9   4   21.35    3.10
   5  -9  -4   18.99    5.26
   5  -9  -3    3.35    3.31
   5  -9  -2   38.45    7.27
   5  -9  -1    1.56    3.97
  -5  -8   6   21.20    4.58
   5  -8  -5   17.07    4.65
  -5  -8   5   11.19    3.59
   5  -8  -4   12.88    4.37
   5  -8  -3   49.19    5.56
   5  -8  -2    1.55    2.02
   5  -8  -1   87.59   24.19
   5  -8   0   25.03   14.85
   5  -8   1   79.90   23.90
   5  -8   3   14.94   11.88
   5  -8   3    7.49    3.65
   5  -8   4   25.17    5.65
  -5  -7   7   24.81    4.66
  -5  -7   6   11.64    3.28
   5  -7  -5   14.18    3.10
   5  -7  -5   20.13    4.22
  -5  -7   5   18.09    4.05
   5  -7  -4   42.38    5.35
   5  -7  -4   40.52    4.85
   5  -7  -3    7.07    2.28
   5  -7  -3    2.14    1.81
   5  -7  -2   77.62    6.77
   5  -7  -2   69.84    6.53
   5  -7  -1    1.35    1.99
   5  -7  -1    3.89    2.29
   5  -7   0   73.18    7.08
   5  -7   0  122.00   25.52
   5  -7   1   18.41    3.98
   5  -7   2   64.60   19.87
   5  -7   2   33.64    5.80
   5  -7   3   73.09   19.76
   5  -7   3   44.01    7.31
   5  -7   4    2.40    8.13
   5  -7   4    7.52    3.85
   5  -7   5   64.46   17.03
   5  -7   5   35.96    6.91
   5  -7   6   -0.76    3.03
  -5  -6   7    7.70    2.81
  -5  -6   6   34.52    5.07
   5  -6  -5   39.39    5.36
  -5  -6   5   26.23    4.43
   5  -6  -4   16.62    3.18
   5  -6  -4   18.08    3.74
  -5  -6   4   20.00    3.93
   5  -6  -3   90.28    7.29
   5  -6  -3   84.04    6.95
   5  -6  -2    1.01    1.66
   5  -6  -2    0.34    1.80
   5  -6  -1   99.74    7.97
   5  -6  -1   99.57    7.76
   5  -6   0    5.57    2.34
   5  -6   0    7.67    2.87
   5  -6   1   75.85    7.70
   5  -6   1   87.51   20.75
   5  -6   2   47.50    6.91
   5  -6   2   63.01   18.10
   5  -6   3   26.80   12.05
   5  -6   3   22.80    5.37
   5  -6   4   89.93   18.95
   5  -6   5    4.02    7.99
   5  -6   5    0.68    2.43
   5  -6   6   64.41   16.02
   5  -6   6   29.21    6.31
   5  -6   7    1.50    3.10
  -5  -5   7   30.77    4.92
  -5  -5   6   20.52    3.89
   5  -5  -5   36.49    5.18
  -5  -5   5   31.83    4.63
   5  -5  -4   72.30    6.77
  -5  -5   4   55.79    6.10
   5  -5  -4   58.82    5.69
   5  -5  -3    8.06    2.49
   5  -5  -3    7.05    2.32
   5  -5  -2  100.74    7.55
   5  -5  -2  105.13    7.87
   5  -5  -1    2.24    1.95
   5  -5  -1    2.06    1.84
   5  -5   0   92.59    8.09
   5  -5   0   92.57    7.59
   5  -5   1   48.98    6.28
   5  -5   1   35.60    5.54
   5  -5   2   61.33    7.79
   5  -5   2   66.79   17.13
   5  -5   3  120.61   22.38
   5  -5   4    1.91    7.23
  -5  -5  -4   14.40    4.09
   5  -5   5   70.08   15.77
   5  -5   5   63.64    8.51
   5  -5   6   -1.76    6.33
   5  -5   6    0.66    2.51
   5  -5   7   44.33   12.41
   5  -5   7   29.96    6.41
  -5  -4   8   36.74    5.34
  -5  -4   7    7.30    2.92
  -5  -4   6   46.94    5.60
   5  -4  -5   60.30    6.41
  -5  -4   5   51.17    5.65
  -5  -4   4   27.50    4.23
   5  -4  -4   26.74    4.36
   5  -4  -3  134.91    8.97
  -5  -4   3  126.00    8.99
   5  -4  -3  130.38    8.57
   5  -4  -2    2.09    1.86
   5  -4  -2    1.00    1.54
   5  -4  -1  145.36    9.25
   5  -4  -1  132.03    9.23
   5  -4   0   14.18    3.11
   5  -4   0   15.18    3.49
   5  -4   1  133.38    9.39
   5  -4   1  125.06    9.90
   5  -4   2  100.13    9.58
   5  -4   2   99.54   18.47
   5  -4   3   31.75   12.37
   5  -4   4  107.19   17.75
  -5  -4  -4  106.00    9.85
   5  -4   5   -4.56    6.58
   5  -4   6   65.93   14.16
   5  -4   6   50.63    7.53
   5  -4   7    7.79    7.70
   5  -4   7   10.14    4.13
  -5  -3   8    2.54    2.15
  -5  -3   7   32.57    4.76
  -5  -3   6   25.47    4.12
   5  -3  -5   34.98    4.95
  -5  -3   5   35.28    4.74
   5  -3  -4   85.57    7.20
  -5  -3   4   83.48    7.02
   5  -3  -3   16.99    3.36
   5  -3  -3   13.85    3.09
  -5  -3   3   14.45    3.20
   5  -3  -2  145.85    9.49
   5  -3  -2  150.31    9.41
   5  -3  -1    1.35    1.51
   5  -3  -1    4.41    2.37
   5  -3   0  107.21    8.00
   5  -3   0  111.72    8.75
   5  -3   1   56.72    6.67
   5  -3   1   46.89    5.44
   5  -3   2   80.93    8.52
   5  -3   2   78.16   15.33
  -5  -3  -3  102.31    9.27
   5  -3   3  127.88   19.15
   5  -3   4   22.07    9.67
  -5  -3  -4   18.73    4.18
   5  -3   5   87.54   14.64
   5  -3   6   -1.32    5.94
   5  -3   6    3.07    2.95
   5  -3   7   53.92    7.76
  -5  -2   8   47.68    5.86
  -5  -2   7    6.24    2.48
  -5  -2   6   66.29    6.38
   5  -2  -5   62.06    6.37
  -5  -2   5   54.44    5.65
   5  -2  -4   33.85    4.55
  -5  -2   4   34.45    4.46
   5  -2  -3  130.44    8.71
  -5  -2   3  121.95    8.64
   5  -2  -2    0.34    1.35
   5  -2  -2    0.35    1.46
   5  -2  -1  215.43   11.43
   5  -2  -1  199.23   11.42
   5  -2   0   24.42    3.92
   5  -2   0   24.85    4.13
   5  -2   1  173.91   11.47
   5  -2   1  173.44   10.50
   5  -2   2   97.34    8.45
   5  -2   2   93.96    8.90
  -5  -2  -3   47.53    6.16
   5  -2   3   61.18   12.80
   5  -2   4  127.85   16.65
  -5  -2  -4  138.01   10.41
   5  -2   5    1.10    4.39
   5  -2   6   82.09   13.04
   5  -2   6   79.51    8.88
   5  -2   7    7.30    3.50
   5  -2   8   22.61    5.43
  -5  -1   8    0.41    1.69
  -5  -1   7   66.73    6.57
  -5  -1   6   29.83    4.31
   5  -1  -5   80.24    7.17
  -5  -1   5   65.31    6.11
   5  -1  -4  129.53    8.83
  -5  -1   4  130.95    8.64
   5  -1  -3   32.01    4.36
  -5  -1   3   31.44    4.31
   5  -1  -2  260.75   13.04
   5  -1  -2  282.54   13.40
   5  -1  -1    4.28    2.30
   5  -1  -1    3.08    1.93
   5  -1   0  227.65   11.92
   5  -1   0  224.66   12.41
   5  -1   1   79.99    7.51
   5  -1   1   77.37    6.78
   5  -1   2  101.06    8.24
   5  -1   2  117.44    9.63
   5  -1   3  150.52   17.52
  -5  -1  -3  148.02   10.55
   5  -1   4   35.41    8.76
  -5  -1  -4   28.22    4.78
   5  -1   5  135.73   14.55
   5  -1   6   -0.94    4.21
   5  -1   6   -1.13    2.34
   5  -1   7   54.77    7.36
   5  -1   8    8.85    3.87
   5   0  -5   65.59    6.45
   5   0  -4   21.45    3.72
   5   0  -3  109.04    7.82
   5   0  -2    0.35    1.31
   5   0  -2    1.02    1.41
   5   0  -1  204.46   11.61
   5   0  -1  248.14   12.40
   5   0   0   31.16    4.32
   5   0   0   25.22    4.03
   5   0   1  176.38   10.94
   5   0   1  169.83   10.26
   5   0   2   66.45    6.50
   5   0   2   70.27    7.11
  -5   0  -2   69.94    6.82
   5   0   3   75.37   11.33
  -5   0  -3   57.91    6.47
   5   0   4  137.72   13.74
  -5   0  -4  161.52   10.77
   5   0   5    4.35    4.35
  -5   1   8   -0.39    1.64
  -5   1   7   61.64    6.22
  -5   1   6   24.39    3.97
  -5   1   5   67.59    6.12
  -5   1   4  130.61    8.52
   5   1   3  160.84   14.46
   5   1   4   12.52    4.27
   5   1   5  126.04   10.67
   5   1   7   58.71    7.40
   5   1   8    7.59    3.57
  -5   2   8   36.41    5.02
  -5   2   7    6.95    2.48
   5   2  -7    6.74    2.23
  -5   2   6   57.66    5.78
   5   2  -5   63.38    6.36
  -5   2   5   59.20    5.72
   5   2  -4   38.10    4.82
  -5   2   4   35.09    4.44
   5   2  -3  127.46    8.53
  -5   2   3  136.01    8.87
   5   2  -2    0.69    1.61
   5   2  -2    1.30    1.61
   5   2  -1  203.55   11.02
   5   2  -1  231.44   11.95
   5   2   0   29.99    4.08
   5   2   0   29.23    4.15
   5   2   1  158.33    9.91
   5   2   1  194.76   10.78
   5   2   2   98.03    7.80
   5   2   2   84.44    7.32
  -5   2  -2   91.89    7.56
   5   2   3   60.37    7.85
  -5   2  -3   57.46    6.32
   5   2   4  125.77    8.73
  -5   2  -4  134.65    9.70
   5   2   6   72.03    7.88
   5   2   7    5.81    2.97
   5   2   8   35.70    6.12
  -5   3   8    1.16    1.96
  -5   3   7   36.83    4.84
   5   3  -7   33.98    4.51
  -5   3   6   22.58    3.72
  -5   3   5   32.83    4.39
   5   3  -4   98.41    7.63
  -5   3   4   99.50    7.44
   5   3  -3   16.51    3.28
  -5   3   3   16.26    3.44
   5   3  -2  153.52    9.25
   5   3  -2  164.52    9.91
   5   3  -1    0.32    1.49
   5   3  -1    2.04    1.68
   5   3   0  126.49    8.43
   5   3   0  108.61    7.80
   5   3   1   35.42    4.56
   5   3   1   41.43    4.86
   5   3   2   75.75    6.94
   5   3   2   66.37    6.17
  -5   3  -3  114.95    8.75
   5   3   3   97.55    6.64
  -5   3  -4   22.23    4.11
   5   3   6   -0.49    2.03
   5   3   7   42.96    6.36
   5   3   8   12.15    4.03
  -5   4   8   33.78    4.89
  -5   4   7    3.23    2.28
   5   4  -7    9.24    2.90
  -5   4   6   49.49    5.36
   5   4  -6   49.80    5.73
  -5   4   5   45.57    5.09
   5   4  -4   34.18    4.75
  -5   4   4   27.85    4.08
   5   4  -3  131.88    8.67
   5   4  -2    0.34    1.47
   5   4  -2    2.78    1.66
   5   4  -1  146.90    9.22
   5   4  -1  145.55    8.92
   5   4   0   20.02    3.42
   5   4   0   16.52    3.15
   5   4   1  104.83    7.47
   5   4   1  112.11    7.87
   5   4   2   68.92    6.15
   5   4   3   33.41    4.47
  -5   4  -3   33.57    4.77
  -5   4  -4  100.55    8.25
   5   4   6   52.40    6.62
   5   4   7    5.80    2.78
  -5   5   8    0.75    1.75
  -5   5   7   26.63    4.21
  -5   5   6   12.76    3.13
  -5   5   5   31.90    4.48
   5   5  -4   73.46    6.76
   5   5  -3    5.24    2.19
   5   5  -3    9.83    2.67
   5   5  -2  105.62    7.58
   5   5  -2  108.57    7.73
   5   5  -1    0.96    1.58
   5   5  -1    2.73    2.02
   5   5   0  107.63    7.44
   5   5   0   96.44    7.28
   5   5   1   33.13    4.82
   5   5   1   29.24    3.91
   5   5   1   28.70    4.09
   5   5   2   49.00    5.01
   5   5   3   58.44    5.58
  -5   5  -3   71.41    6.78
  -5   5  -4   12.43    3.23
   5   5   6   -0.45    2.09
   5   5   7   30.09    5.17
  -5   6   8   17.84    3.64
  -5   6   7    9.32    2.82
  -5   6   6   23.93    4.10
  -5   6   5   33.03    4.62
   5   6  -4   19.92    3.72
   5   6  -3   89.84    7.17
   5   6  -3   73.16    6.37
   5   6  -2    3.36    4.38
   5   6  -2    0.92    1.69
   5   6  -2    1.56    1.67
   5   6  -1  109.33    7.54
   5   6  -1  106.43    7.35
   5   6  -1  109.90   11.58
   5   6   0    9.71    3.83
   5   6   0    9.86    2.48
   5   6   0    4.74    2.07
   5   6   1   79.27    6.53
   5   6   1   62.23    5.60
   5   6   1   63.90    6.15
   5   6   2   32.92    4.22
   5   6   3   16.32    2.96
   5   6   4   41.68    4.75
   5   6   5    1.23    1.90
   5   6   6   34.62    5.14
   5   6   7    1.39    2.42
  -5   7   8    0.75    2.05
  -5   7   7   23.32    4.26
  -5   7   6   10.53    3.38
   5   7  -4   39.18    4.69
   5   7  -3    4.94    4.59
   5   7  -3    4.00    2.11
   5   7  -3    3.34    1.93
   5   7  -2   65.76    5.65
   5   7  -2   61.84    9.69
   5   7  -2   73.81    6.23
   5   7  -1    3.32    4.21
   5   7  -1    3.77    1.90
   5   7  -1    1.71    1.57
   5   7   0   78.03    6.12
   5   7   0   83.98    6.30
   5   7   1   24.26    3.65
   5   7   1   24.58    4.28
   5   7   2   32.02    3.97
   5   7   3   38.59    4.25
   5   7   4    2.76    1.78
   5   7   5   40.71    5.26
   5   7   6    1.21    1.99
   5   7   7   20.31    4.11
   5   8  -5   12.43    2.74
   5   8  -4    9.94    2.48
   5   8  -3   46.81    4.75
   5   8  -3   35.70    8.71
   5   8  -3   51.93    5.51
   5   8  -2    0.80    1.50
   5   8  -2   -0.61    1.72
   5   8  -1   78.75    6.17
   5   8  -1   80.37    5.96
   5   8   0    6.42    2.25
   5   8   0    5.37    2.17
   5   8   1   42.24    4.50
   5   8   2   27.82    3.73
   5   8   3    8.29    2.35
   5   8   4   29.55    4.30
   5   8   5    1.04    1.56
   5   8   6   28.30    4.49
   5   9  -4   15.26    2.77
   5   9  -3    4.49    1.77
   5   9  -2   36.55    4.01
   5   9  -1    0.97    1.62
   6  -7  -5    3.09    1.85
   6  -7  -4   25.37    4.24
   6  -7  -3    0.38    1.63
   6  -7  -2   45.88    5.62
   6  -7  -1    8.55    2.95
   6  -7   1   40.66   16.71
   6  -7   2   27.06   15.72
   6  -7   4   -0.74    3.19
   6  -7   5   27.64    6.53
   6  -6  -6   11.16    3.33
  -6  -6   6   18.53    4.38
  -6  -6   5   34.79    5.52
   6  -6  -5   30.75    4.64
   6  -6  -4   -0.38    1.66
   6  -6  -3   46.25    5.44
   6  -6  -2    4.60    2.43
   6  -6  -1   44.72    5.75
   6  -6   0   33.15    5.11
   6  -6   1   27.95   13.97
   6  -6   2   80.17   19.91
   6  -6   3    2.49    8.96
   6  -6   4   54.53   15.94
   6  -6   5    6.60    3.73
  -6  -5   6   27.02    4.99
   6  -5  -5    6.52    2.59
  -6  -5   5    9.78    3.26
   6  -5  -4   67.67    6.80
   6  -5  -3    0.38    1.66
   6  -5  -2   72.20    6.82
   6  -5  -1   16.83    3.56
   6  -5  -1   12.71    3.80
   6  -5   0   47.77    5.97
   6  -5   1   89.37   18.93
   6  -5   2   29.36   12.71
   6  -5   3  100.69   20.99
   6  -5   4    3.96    9.79
   6  -5   5   61.39   15.20
   6  -5   6   10.65    8.78
  -6  -4   6   15.34    3.87
  -6  -4   5   51.02    6.21
   6  -4  -4    1.22    1.75
  -6  -4   4    0.46    1.97
   6  -4  -3   92.42    7.80
   6  -4  -2    5.42    2.50
   6  -4  -1   68.32    6.69
   6  -4  -1   53.94    6.79
   6  -4   0   37.79    5.95
   6  -4   0   34.86    5.06
   6  -4   1   37.38    5.44
   6  -4   2  102.96   19.25
   6  -4   3   12.29   10.13
   6  -4   4   72.77   16.55
   6  -4   5    1.60    6.89
   6  -4   6   23.44    9.38
   6  -4   6   29.97    6.33
   6  -4   7    4.75    8.28
  -6  -3   7   21.12    4.36
  -6  -3   6   35.38    5.36
  -6  -3   5    9.54    3.12
  -6  -3   4   94.57    8.27
   6  -3  -4   89.41    7.89
   6  -3  -3    0.82    1.63
   6  -3  -2  106.48    8.44
   6  -3  -2  103.57    8.72
   6  -3  -1   24.45    4.17
   6  -3  -1   26.73    4.73
   6  -3   0   78.70    8.10
   6  -3   0   66.52    6.68
   6  -3   1   80.92    8.51
   6  -3   1   74.52    7.32
   6  -3   2   24.16   10.15
   6  -3   3   90.39   17.36
   6  -3   4    1.59    6.31
   6  -3   5   58.27   12.50
   6  -3   6   19.12    8.19
   6  -3   6    4.00    2.99
   6  -3   7   21.91    8.54
  -6  -2   7   20.21    4.20
  -6  -2   6   10.28    3.09
  -6  -2   5   52.32    6.19
  -6  -2   4    1.71    2.04
   6  -2  -3  102.45    8.50
   6  -2  -2    5.17    2.64
   6  -2  -2    4.03    2.32
   6  -2  -1   87.91    7.67
   6  -2  -1   90.93    8.19
   6  -2   0   53.59    6.58
   6  -2   0   49.28    5.84
   6  -2   1   39.51    6.00
   6  -2   1   34.39    4.95
   6  -2   3    7.68    6.38
   6  -2   4   84.76   14.91
   6  -2   5    2.37    5.67
   6  -2   6   31.55    8.88
  -6  -1   7   19.07    4.04
  -6  -1   6   34.10    5.07
  -6  -1   5    7.45    2.81
  -6  -1   4   75.93    7.25
   6  -1  -3    2.11    1.89
   6  -1  -2   87.65    7.94
   6  -1  -2  106.07    8.56
   6  -1  -1   43.45    5.45
   6  -1  -1   36.38    5.32
   6  -1   0   77.38    7.23
   6  -1   0   77.66    7.63
   6  -1   1   60.62    7.00
   6  -1   1   53.95    6.10
   6  -1   2   12.52    3.65
   6  -1   3   80.62   13.91
   6  -1   4    1.16    4.40
   6  -1   5   67.55   10.97
   6  -1   6   12.63    6.17
   6   0  -3  135.67    9.96
   6   0  -2    3.72    2.05
   6   0  -2    4.57    2.23
   6   0  -1  126.92    9.28
   6   0  -1  120.93    9.22
   6   0   0   70.19    6.89
   6   0   0   81.19    7.65
   6   0   1   43.52    5.88
   6   0   1   50.01    5.81
   6   0   2  127.34    9.80
   6   0   3    7.79    5.97
   6   0   4  105.89   13.24
   6   0   5    1.56    3.63
   6   0   6   40.81    8.09
  -6   1   7   20.22    4.06
  -6   1   6   35.18    5.00
  -6   1   5   11.35    3.19
  -6   1   4   72.52    7.04
   6   1   3   94.82   12.18
   6   1   4    0.68    3.46
   6   1   5   62.88    8.23
  -6   2   7   22.24    4.14
  -6   2   6    8.15    2.85
  -6   2   5   49.42    5.94
  -6   2   4   -0.83    2.04
   6   2  -3  108.17    8.73
   6   2  -2    4.58    2.44
   6   2  -1   83.31    7.52
   6   2  -1   82.86    7.37
   6   2   0   47.21    5.65
   6   2   0   48.59    5.77
   6   2   1   36.77    5.07
   6   2   1   31.35    4.84
   6   2   2  118.84    9.34
   6   2   3    1.40    3.57
   6   2   4   65.30    7.08
  -6   3   7   17.50    3.75
  -6   3   6   34.69    5.09
  -6   3   5    7.33    2.77
   6   3  -3    0.42    1.81
   6   3  -2  108.12    8.66
   6   3  -1   25.80    4.34
   6   3  -1   24.48    4.13
   6   3   0   56.93    6.10
   6   3   0   83.58    7.39
   6   3   1   72.31    6.97
   6   3   2   19.10    4.07
   6   3   3   86.01    8.03
  -6   4   7    9.59    3.09
  -6   4   6   11.10    3.24
  -6   4   5   53.05    6.32
   6   4  -4    4.93    2.26
   6   4  -3   81.71    7.43
   6   4  -2    6.35    2.52
   6   4  -1   68.65    6.67
   6   4   0   34.85    4.98
   6   4   1   29.88    4.59
   6   4   6   27.98    5.36
  -6   5   7    7.56    2.94
  -6   5   6   21.30    4.27
   6   5  -4   71.58    7.03
   6   5  -3    1.58    1.95
   6   5  -2   80.33    7.12
   6   5  -1   16.85    3.53
   6   5   0   53.09    5.79
   6   5   1   57.82    6.06
   6   5   6    3.04    2.64
  -6   6   7   11.05    3.35
   6   6  -5   33.64    4.76
   6   6  -4    1.51    1.69
   6   6  -3   57.09    6.09
   6   6  -2    8.25    2.76
   6   6  -1   47.10    7.72
   6   6  -1   51.89    5.63
   6   6   0   36.76    6.11
   6   6   0   39.12    4.78
   6   6   1   18.14    3.61
   6   6   1   32.03    4.71
   6   7  -5    3.57    2.18
   6   7  -4   28.71    4.39
   6   7  -3   -0.68    1.69
   6   7  -2   37.94    7.81
   6   7  -2   48.64    5.24
   6   7  -1    6.21    2.32
   6   7   0   27.18    4.09
   6   7   5   23.98    4.52
   6   8  -5   16.12    3.48
   6   8  -4    0.32    1.60
   6   8  -3   25.08    3.79
   6   8  -2    6.15    2.15
   6   8  -1   25.84    3.82
   6   8   0   13.47    3.92
   7  -7  -2   16.27    3.78
   7  -7  -1   21.40    4.38
   7  -6  -4    2.13    2.22
   7  -6  -3   14.95    3.67
   7  -6  -2    6.29    2.71
   7  -6  -1   10.94    3.24
   7  -6   0   18.34    4.46
   7  -5  -4   28.87    4.83
   7  -5  -3    4.29    2.30
   7  -5  -2   23.82    4.29
   7  -5  -1   30.74    4.88
   7  -5   0    9.58    3.38
   7  -5   1   44.14   14.27
   7  -5   2   -2.25    8.10
   7  -5   3   38.24   14.29
   7  -4  -5   34.34    5.62
   7  -4  -4    3.69    2.35
   7  -4  -3   34.23    5.27
   7  -4  -2   23.65    4.46
   7  -4  -1   17.32    3.83
   7  -4   0   39.36    5.55
   7  -4   1    7.23    3.61
   7  -4   2   81.22   17.29
   7  -4   3    2.09    7.50
   7  -4   4   50.35   14.01
   7  -4   5    3.21    6.66
   7  -4   6    7.80    6.75
   7  -3  -5   -1.01    2.27
   7  -3  -4   41.16    6.15
   7  -3  -3    6.91    2.98
   7  -3  -2   36.99    5.45
   7  -3  -1   29.54    4.94
   7  -3   0    9.42    3.32
   7  -3   1   54.60    6.68
   7  -3   2   -1.81    6.87
   7  -3   3   38.79   12.74
   7  -3   4   14.73    9.00
   7  -3   5   31.11   10.05
   7  -3   6    9.60    7.16
   7  -2  -5   39.64    6.14
  -7  -2   5   36.70    5.85
   7  -2  -4    4.56    2.97
   7  -2  -3   43.71    5.96
   7  -2  -2   27.93    4.88
   7  -2  -1   25.47    4.73
   7  -2   0   49.80    6.20
   7  -2   1    3.26    2.30
   7  -2   2   67.19   14.29
   7  -2   3    6.49    6.45
   7  -2   4   45.80   12.04
   7  -2   5   13.41    6.70
   7  -2   6   14.17    6.94
   7  -1  -5   -1.06    2.30
  -7  -1   5    1.00    2.24
   7  -1  -4   37.91    5.91
   7  -1  -3   10.71    3.41
   7  -1  -2   40.78    5.82
   7  -1  -1   50.37    6.24
   7  -1   0   12.61    3.59
   7  -1   1   78.27    7.73
   7  -1   3   66.66   13.67
   7  -1   4    3.71    5.34
   7  -1   5   23.49    7.66
   7   0  -5   43.06    6.38
   7   0  -4    4.16    2.78
   7   0  -3   54.56    6.92
   7   0  -2   38.93    5.69
   7   0  -1   20.09    4.19
   7   0   0   55.45    6.55
   7   0   1    4.15    2.21
   7   0   2   56.75    7.49
   7   0   3    3.67    5.68
   7   0   4   44.64    9.33
   7   0   5   15.44    6.40
   7   1   3   46.73    9.86
   7   1   4   13.30    5.10
   7   2  -5   48.44    6.69
   7   2  -4    0.51    2.13
   7   2  -3   70.89    7.61
   7   2  -2   33.13    5.21
   7   2  -1   27.73    4.91
   7   2   0   56.98    6.69
   7   2   1    3.63    2.44
   7   2   3    2.41    4.09
   7   3  -4   40.97    6.02
   7   3  -3    8.17    3.05
   7   3  -2   28.33    4.86
   7   3  -1   34.49    5.31
   7   3   0   10.57    3.17
   7   3   1   50.63    6.31
   7   4  -4    0.97    2.25
   7   4  -3   39.72    5.81
   7   4  -2   20.98    4.37
   7   4  -1   20.81    4.21
   7   4   0   40.89    5.53
   7   4   1    2.64    2.58
   7   5  -4   37.01    5.67
   7   5  -3    5.69    2.78
   7   5  -2   31.55    4.93
   7   5  -1   26.16    4.57
   7   5   0    9.10    3.18
   7   5   1   44.92    5.95
   7   6  -3   16.74    3.87
   7   6  -2    7.92    2.77
   7   6  -1   15.56    3.59
   7   6   0   25.56    4.35
   7   7  -2   18.83    3.67
   7   7  -1   17.63    3.67
   7   7   0    9.50    2.92
   7   8  -1    5.10    2.27
   8  -3   2   13.01    9.71
   8  -3   3   26.51   11.13
   8  -3   4   11.12    7.38
   8  -2   2   25.43    9.97
   8  -2   3    5.10    7.06
   8  -2   4    8.45    7.36
   8  -1   2   -1.52    6.32
   8  -1   3   30.08   10.68
   8   0   2   27.01    9.31
   8   0   3   11.72    6.98
   8   1   2   -1.18    5.08
   0   0   0    0.00    0.00
;
_shelx_hkl_checksum              83234
loop_
_space_group_symop_operation_xyz
'x, y, z'
'-x, y+1/2, -z'
loop_
_atom_site_label
_atom_site_type_symbol
_atom_site_fract_x
_atom_site_fract_y
_atom_site_fract_z
_atom_site_U_iso_or_equiv
_atom_site_adp_type
_atom_site_occupancy
_atom_site_site_symmetry_order
_atom_site_calc_flag
_atom_site_refinement_flags_posn
_atom_site_refinement_flags_adp
_atom_site_refinement_flags_occupancy
_atom_site_disorder_assembly
_atom_site_disorder_group
O3 O 0.4487(11) 0.6403(6) 0.8690(7) 0.0560(18) Uani 1 1 d . . . . .
O4 O 0.2260(12) 0.8763(6) 0.7301(9) 0.083(2) Uani 1 1 d . . . . .
O2 O 0.6707(12) 0.8573(6) 0.7099(9) 0.075(2) Uani 1 1 d . . . . .
O1 O 0.4057(11) 0.6568(6) 0.5514(7) 0.0592(19) Uani 1 1 d . . . . .
Re1 Re 0.43932(3) 0.76122(9) 0.71549(2) 0.03220(5) Uani 1 1 d . . . . .
N1 N 1.0720(10) 0.6205(6) 0.3201(6) 0.0334(16) Uani 1 1 d . . . . .
H1A H 1.0249 0.5289 0.3014 0.040 Uiso 1 1 calc R U . . .
H1B H 1.1822 0.6145 0.3871 0.040 Uiso 1 1 calc R U . . .
C1 C 1.0560(14) 0.9350(9) 0.2878(10) 0.052(3) Uani 1 1 d . . . . .
H1C H 1.0261 1.0237 0.2281 0.062 Uiso 1 1 calc R U . . .
H1D H 1.1065 0.9649 0.3894 0.062 Uiso 1 1 calc R U . . .
C5 C 0.8551(13) 0.8427(7) 0.2976(10) 0.041(2) Uani 1 1 d . . . . .
H5 H 0.7438 0.9010 0.3448 0.050 Uiso 1 1 calc R U . . .
C7 C 0.9000(13) 0.7090(6) 0.3873(10) 0.044(2) Uani 1 1 d . . . . .
H7A H 0.7718 0.6493 0.3907 0.053 Uiso 1 1 calc R U . . .
H7B H 0.9427 0.7365 0.4913 0.053 Uiso 1 1 calc R U . . .
C4 C 0.9555(14) 0.7053(8) 0.0636(9) 0.048(2) Uani 1 1 d . . . . .
H4A H 0.8983 0.6079 0.0386 0.058 Uiso 1 1 calc R U . . .
H4B H 0.9981 0.7515 -0.0303 0.058 Uiso 1 1 calc R U . . .
C2 C 1.2236(14) 0.8443(8) 0.2138(11) 0.048(2) Uani 1 1 d . . . . .
H2A H 1.3476 0.8365 0.2832 0.058 Uiso 1 1 calc R U . . .
H2B H 1.2669 0.8947 0.1223 0.058 Uiso 1 1 calc R U . . .
C6 C 0.7829(13) 0.7998(8) 0.1355(9) 0.053(3) Uani 1 1 d . . . . .
H6A H 0.7571 0.8885 0.0749 0.064 Uiso 1 1 calc R U . . .
H6B H 0.6509 0.7441 0.1373 0.064 Uiso 1 1 calc R U . . .
C3 C 1.1460(13) 0.6894(7) 0.1715(10) 0.044(2) Uani 1 1 d . . . . .
H3 H 1.2584 0.6302 0.1267 0.053 Uiso 1 1 calc R U . . .
loop_
_atom_site_aniso_label
_atom_site_aniso_U_11
_atom_site_aniso_U_22
_atom_site_aniso_U_33
_atom_site_aniso_U_23
_atom_site_aniso_U_13
_atom_site_aniso_U_12
O3 0.067(4) 0.046(3) 0.055(3) 0.012(2) 0.005(3) -0.007(3)
O4 0.080(5) 0.068(3) 0.100(5) 0.014(3) -0.002(4) 0.046(3)
O2 0.069(4) 0.074(3) 0.083(5) -0.010(3) -0.003(4) -0.047(3)
O1 0.068(4) 0.070(3) 0.039(3) -0.010(3) -0.006(3) -0.022(3)
Re1 0.03099(11) 0.02888(9) 0.03658(10) 0.0008(4) -0.00030(9) -0.0014(4)
N1 0.038(4) 0.029(3) 0.033(3) -0.002(2) -0.007(3) 0.004(2)
C1 0.064(6) 0.032(4) 0.061(5) -0.011(3) 0.011(5) -0.005(3)
C5 0.033(4) 0.033(3) 0.059(5) 0.001(3) 0.013(4) 0.010(3)
C7 0.047(5) 0.034(4) 0.051(5) -0.010(3) 0.005(4) -0.001(3)
C4 0.049(5) 0.062(5) 0.032(4) -0.004(3) -0.005(4) -0.001(3)
C2 0.031(4) 0.052(4) 0.063(5) 0.015(4) 0.004(4) -0.004(3)
C6 0.041(5) 0.065(7) 0.053(4) -0.016(3) -0.020(4) 0.018(3)
C3 0.038(4) 0.044(3) 0.052(5) -0.002(3) 0.015(4) 0.001(3)
loop_
_atom_type_symbol
_atom_type_description
_atom_type_scat_dispersion_real
_atom_type_scat_dispersion_imag
_atom_type_scat_source
C C 0.0033 0.0016 'International Tables Vol C Tables 4.2.6.8 and 6.1.1.4'
H H 0.0000 0.0000 'International Tables Vol C Tables 4.2.6.8 and 6.1.1.4'
N N 0.0061 0.0033 'International Tables Vol C Tables 4.2.6.8 and 6.1.1.4'
O O 0.0106 0.0060 'International Tables Vol C Tables 4.2.6.8 and 6.1.1.4'
Re Re -1.0185 7.2310 'International Tables Vol C Tables 4.2.6.8 and 6.1.1.4'
loop_
_geom_angle_atom_site_label_1
_geom_angle_atom_site_label_2
_geom_angle_atom_site_label_3
_geom_angle
_geom_angle_site_symmetry_1
_geom_angle_site_symmetry_3
_geom_angle_publ_flag
O2 Re1 O4 111.6(3) . . ?
O2 Re1 O1 109.2(3) . . ?
O4 Re1 O1 109.1(4) . . ?
O2 Re1 O3 110.1(3) . . ?
O4 Re1 O3 109.1(3) . . ?
O1 Re1 O3 107.6(3) . . ?
C7 N1 C3 111.8(5) . . ?
C2 C1 C5 109.0(6) . . ?
C7 C5 C1 110.0(7) . . ?
C7 C5 C6 109.6(6) . . ?
C1 C5 C6 107.6(7) . . ?
C5 C7 N1 110.9(7) . . ?
C3 C4 C6 110.7(6) . . ?
C1 C2 C3 112.5(7) . . ?
C5 C6 C4 109.6(6) . . ?
C4 C3 C2 107.8(6) . . ?
C4 C3 N1 108.1(6) . . ?
C2 C3 N1 105.7(7) . . ?
loop_
_geom_bond_atom_site_label_1
_geom_bond_atom_site_label_2
_geom_bond_distance
_geom_bond_site_symmetry_2
_geom_bond_publ_flag
O3 Re1 1.730(6) . ?
O4 Re1 1.704(7) . ?
O2 Re1 1.694(7) . ?
O1 Re1 1.723(6) . ?
N1 C7 1.484(9) . ?
N1 C3 1.532(10) . ?
C1 C2 1.502(12) . ?
C1 C5 1.517(11) . ?
C5 C7 1.460(9) . ?
C5 C6 1.522(11) . ?
C4 C3 1.499(12) . ?
C4 C6 1.535(11) . ?
C2 C3 1.520(9) . ?
