#------------------------------------------------------------------------------
#$Date: 2019-11-22 22:28:34 +0200 (Fri, 22 Nov 2019) $
#$Revision: 231431 $
#$URL: file:///home/coder/svn-repositories/cod/cif/4/00/32/4003210.cif $
#------------------------------------------------------------------------------
#
# This file is available in the Crystallography Open Database (COD),
# http://www.crystallography.net/
#
# All data on this site have been placed in the public domain by the
# contributors.
#
data_4003210
loop_
_publ_author_name
'Boal, Ben W.'
'Schmidt, Joel E.'
'Deimund, Mark A.'
'Deem, Michael W.'
'Henling, Lawrence M.'
'Brand, Stephen K.'
'Zones, Stacey I.'
'Davis, Mark E.'
_publ_section_title
;
 Facile Synthesis and Catalysis of Pure-Silica and Heteroatom LTA
;
_journal_issue                   22
_journal_name_full               'Chemistry of Materials'
_journal_page_first              7774
_journal_paper_doi               10.1021/acs.chemmater.5b03579
_journal_volume                  27
_journal_year                    2015
_chemical_formula_moiety         '0.08(O24 Si12)'
_chemical_formula_sum            'O2 Si'
_chemical_formula_weight         60.09
_space_group_crystal_system      cubic
_space_group_IT_number           221
_space_group_name_Hall           '-P 4 2 3'
_space_group_name_H-M_alt        'P m -3 m'
_atom_sites_solution_primary     direct
_atom_sites_solution_secondary   difmap
_audit_creation_date             2015-07-18
_audit_creation_method
;
Olex2 1.2
(compiled 2015.01.26 svn.r3150 for OlexSys, GUI svn.r4998),
 SHELXL-2014,
 and manual edit
;
_cell_angle_alpha                90
_cell_angle_beta                 90
_cell_angle_gamma                90
_cell_formula_units_Z            24
_cell_length_a                   11.857(4)
_cell_length_b                   11.857(4)
_cell_length_c                   11.857(4)
_cell_measurement_reflns_used    9976
_cell_measurement_temperature    100
_cell_measurement_theta_max      57.17
_cell_measurement_theta_min      2.43
_cell_volume                     1667.0(10)
_computing_cell_refinement       'SAINT V8.34A (Bruker-AXS, 2007)'
_computing_data_collection       'APEX2 2014.11-0 (Bruker-AXS, 2007)'
_computing_data_reduction        'SAINT V8.34A (Bruker-AXS, 2007)'
_computing_molecular_graphics    'DIAMOND 3 (Crystal Impact, 1999)'
_computing_publication_material  'Olex2 (Dolomanov et al., 2009)'
_computing_structure_refinement  'SHELXL-2014/7 (Sheldrick, 2014)'
_computing_structure_solution    'XT-2014/4 (Sheldrick, 2012)'
_diffrn_ambient_temperature      100
_diffrn_detector                 'CMOS Area Detector'
_diffrn_detector_area_resol_mean 10.24
_diffrn_detector_type            'Bruker PHOTON 100 CMOS'
_diffrn_measured_fraction_theta_full 0.997
_diffrn_measured_fraction_theta_max 0.978
_diffrn_measurement_device       '\k-geometry diffractometer'
_diffrn_measurement_device_type  'Bruker D8 VENTURE Kappa Duo PHOTON 100 CMOS'
_diffrn_measurement_method       '\f and \w scans'
_diffrn_radiation_monochromator  'multilayer mirrors'
_diffrn_radiation_type           MoK\a
_diffrn_radiation_wavelength     0.71073
_diffrn_reflns_av_R_equivalents  0.0861
_diffrn_reflns_av_unetI/netI     0.0439
_diffrn_reflns_Laue_measured_fraction_full 0.997
_diffrn_reflns_Laue_measured_fraction_max 0.978
_diffrn_reflns_limit_h_max       27
_diffrn_reflns_limit_h_min       -14
_diffrn_reflns_limit_k_max       22
_diffrn_reflns_limit_k_min       -23
_diffrn_reflns_limit_l_max       23
_diffrn_reflns_limit_l_min       -27
_diffrn_reflns_number            48084
_diffrn_reflns_point_group_measured_fraction_full 0.997
_diffrn_reflns_point_group_measured_fraction_max 0.978
_diffrn_reflns_theta_full        25.000
_diffrn_reflns_theta_max         60.181
_diffrn_reflns_theta_min         2.429
_diffrn_source                   'I\mS HB micro-focus sealed tube'
_diffrn_source_current           1
_diffrn_source_power             0.05
_diffrn_source_type              'Incoatech I\mS HB'
_diffrn_source_voltage           50
_diffrn_standards_number         0
_exptl_absorpt_coefficient_mu    0.540
_exptl_absorpt_correction_T_max  1.0000
_exptl_absorpt_correction_T_min  0.8962
_exptl_absorpt_correction_type   multi-scan
_exptl_absorpt_process_details   'SADABS-2014/5 (Sheldrick, 2014)'
_exptl_crystal_colour            black
_exptl_crystal_colour_primary    black
_exptl_crystal_density_diffrn    1.437
_exptl_crystal_density_method    'not measured'
_exptl_crystal_description       cube
_exptl_crystal_F_000             720
_exptl_crystal_size_max          0.10
_exptl_crystal_size_mid          0.10
_exptl_crystal_size_min          0.10
_refine_diff_density_max         1.530
_refine_diff_density_min         -0.750
_refine_diff_density_rms         0.117
_refine_ls_extinction_method     none
_refine_ls_goodness_of_fit_ref   1.152
_refine_ls_hydrogen_treatment    undef
_refine_ls_matrix_type           full
_refine_ls_number_parameters     21
_refine_ls_number_reflns         2479
_refine_ls_number_restraints     0
_refine_ls_restrained_S_all      1.152
_refine_ls_R_factor_all          0.0850
_refine_ls_R_factor_gt           0.0449
_refine_ls_shift/su_max          0.001
_refine_ls_shift/su_mean         0.000
_refine_ls_structure_factor_coef Fsqd
_refine_ls_weighting_details
'w=1/[\s^2^(Fo^2^)+(0.0368P)^2^+0.2991P] where P=(Fo^2^+2Fc^2^)/3'
_refine_ls_weighting_scheme      calc
_refine_ls_wR_factor_gt          0.0833
_refine_ls_wR_factor_ref         0.0933
_reflns_Friedel_coverage         0.000
_reflns_number_gt                1731
_reflns_number_total             2479
_reflns_threshold_expression     'I > 2\s(I)'
_iucr_refine_instructions_details
;

    p15229.res created by SHELXL-2014/7

TITL p15229 in Pm-3m
CELL 0.71073 11.857 11.857 11.857 90 90 90
ZERR 24 0.004 0.004 0.004 0 0 0
LATT 1
SYMM -X,-Y,+Z
SYMM -X,+Y,-Z
SYMM +X,-Y,-Z
SYMM +Z,+X,+Y
SYMM +Z,-X,-Y
SYMM -Z,-X,+Y
SYMM -Z,+X,-Y
SYMM +Y,+Z,+X
SYMM -Y,+Z,-X
SYMM +Y,-Z,-X
SYMM -Y,-Z,+X
SYMM +Y,+X,-Z
SYMM -Y,-X,-Z
SYMM +Y,-X,+Z
SYMM -Y,+X,+Z
SYMM +X,+Z,-Y
SYMM -X,+Z,+Y
SYMM -X,-Z,-Y
SYMM +X,-Z,+Y
SYMM +Z,+Y,-X
SYMM +Z,-Y,+X
SYMM -Z,+Y,+X
SYMM -Z,-Y,-X
SFAC O Si
UNIT 48 24
 
L.S. 25
PLAN  20
SIZE 0.1 0.1 0.1
TEMP -173.15
BOND $H
MORE -1
CONF
wpdb -2
fmap -2
acta 50
REM <olex2.extras>
REM <HklSrc "%.\\p15229.hkl">
REM </olex2.extras>
 
WGHT    0.036800    0.299100
FVAR       0.16152
SI1   2    0.500000    0.869177    0.316549    10.50000    0.00481    0.00308 =
         0.00345   -0.00070    0.00000    0.00000
O1    1    0.500000    0.796127    0.203873    10.25000    0.00979    0.00525 =
         0.00525   -0.00277    0.00000    0.00000
O2    1    0.610643    0.840356    0.389357    10.50000    0.01158    0.01765 =
         0.01158   -0.00562   -0.00760    0.00562
O3    1    0.500000    1.000000    0.282985    10.25000    0.02895    0.00244 =
         0.01028    0.00000    0.00000    0.00000
HKLF 4
 
REM  p15229 in Pm-3m
REM R1 =  0.0449 for    1731 Fo > 4sig(Fo)  and  0.0850 for all    2479 data
REM     21 parameters refined using      0 restraints
 
END  
     
WGHT      0.0368      0.2991 

REM Highest difference peak  1.530,  deepest hole -0.750,  1-sigma level  0.117
Q1    1   0.5000  0.5000  0.5000  10.02083  0.05    1.53
Q2    1   0.5000  0.7014  0.5000  10.12500  0.05   -0.75
Q3    1   0.6134  0.8741  0.3866  10.50000  0.05    0.67
Q4    1   0.5000  1.0000  0.2426  10.25000  0.05    0.66
Q5    1   0.5000  0.8008  0.2445  10.50000  0.05    0.65
Q6    1   0.5236  0.7819  0.2181  10.50000  0.05    0.65
Q7    1   0.5000  0.5497  0.5000  10.12500  0.05    0.64
Q8    1   0.4198  1.0000  0.0000  10.12500  0.05    0.63
Q9    1   0.5000  0.9650  0.2801  10.50000  0.05    0.63
Q10   1   0.5000  1.0000  0.0868  10.25000  0.05   -0.60
Q11   1   0.5000  0.9111  0.2799  10.50000  0.05    0.59
Q12   1   0.5000  0.5591  0.4694  10.50000  0.05    0.59
Q13   1   0.5236  1.0000  0.2783  10.50000  0.05    0.57
Q14   1   0.5847  0.8394  0.4153  10.50000  0.05    0.56
Q15   1   0.6220  0.8584  0.4327  11.00000  0.05    0.55
Q16   1   0.5000  0.8295  0.2762  10.50000  0.05    0.54
Q17   1   0.2270  1.0000  0.0000  10.12500  0.05    0.54
Q18   1   0.5000  0.6407  0.5000  10.12500  0.05   -0.54
Q19   1   0.5000  0.8149  0.1851  10.25000  0.05    0.52
Q20   1   0.5000  0.6105  0.5000  10.12500  0.05    0.50

REM The information below was added by Olex2.
REM
REM R1 = 0.0449 for 1731 Fo > 4sig(Fo) and 0.0850 for all 48084 data
REM n/a parameters refined using n/a restraints
REM Highest difference peak 1.53, deepest hole -0.75
REM Mean Shift 0, Max Shift 0.001.

REM +++ Tabular Listing of Refinement Information +++
REM R1_all = 0.0850
REM R1_gt = 0.0449
REM wR_ref = 0.0933
REM GOOF = 1.152
REM Shift_max = 0.001
REM Shift_mean = 0
REM Reflections_all = 48084
REM Reflections_gt = 1731
REM Parameters = n/a
REM Hole = -0.75
REM Peak = 1.53
REM Flack = n/a

;
_cod_data_source_file            cm5b03579_si_004.cif
_cod_data_source_block           p15229
_cod_original_cell_volume        1667.0(17)
_cod_database_code               4003210
_shelx_space_group_comment
;
The symmetry employed for this shelxl refinement is uniquely defined
by the following loop, which should always be used as a source of
symmetry information in preference to the above space-group names.
They are only intended as comments.
;
_shelx_estimated_absorpt_t_max   0.948
_shelx_estimated_absorpt_t_min   0.948
_exptl_absorpt_special_details
;
SADABS-2014/5 (Bruker,2014/5) was used for absorption correction.
wR2(int) was 0.0668 before and 0.0588 after correction.
The Ratio of minimum to maximum transmission is 0.8962.
The \l/2 correction factor is 0.00150.
;
_olex2_refinement_description
;
;
_shelx_shelxl_version_number     2014/7
_olex2_submission_special_instructions 'No special instructions were received'
loop_
_space_group_symop_operation_xyz
'x, y, z'
'-x, -y, z'
'-x, y, -z'
'x, -y, -z'
'z, x, y'
'z, -x, -y'
'-z, -x, y'
'-z, x, -y'
'y, z, x'
'-y, z, -x'
'y, -z, -x'
'-y, -z, x'
'y, x, -z'
'-y, -x, -z'
'y, -x, z'
'-y, x, z'
'x, z, -y'
'-x, z, y'
'-x, -z, -y'
'x, -z, y'
'z, y, -x'
'z, -y, x'
'-z, y, x'
'-z, -y, -x'
'-x, -y, -z'
'x, y, -z'
'x, -y, z'
'-x, y, z'
'-z, -x, -y'
'-z, x, y'
'z, x, -y'
'z, -x, y'
'-y, -z, -x'
'y, -z, x'
'-y, z, x'
'y, z, -x'
'-y, -x, z'
'y, x, z'
'-y, x, -z'
'y, -x, -z'
'-x, -z, y'
'x, -z, -y'
'x, z, y'
'-x, z, -y'
'-z, -y, x'
'-z, y, -x'
'z, -y, -x'
'z, y, x'
loop_
_atom_site_label
_atom_site_type_symbol
_atom_site_fract_x
_atom_site_fract_y
_atom_site_fract_z
_atom_site_U_iso_or_equiv
_atom_site_adp_type
_atom_site_occupancy
_atom_site_site_symmetry_order
_atom_site_calc_flag
_atom_site_refinement_flags_posn
_atom_site_refinement_flags_adp
_atom_site_refinement_flags_occupancy
Si1 Si 0.5000 0.86918(2) 0.31655(2) 0.00378(4) Uani 1 2 d S T P
O1 O 0.5000 0.79613(4) 0.20387(4) 0.00676(10) Uani 1 4 d S T P
O2 O 0.61064(4) 0.84036(6) 0.38936(4) 0.01360(11) Uani 1 2 d S T P
O3 O 0.5000 1.0000 0.28299(7) 0.01389(15) Uani 1 4 d S T P
loop_
_atom_site_aniso_label
_atom_site_aniso_U_11
_atom_site_aniso_U_22
_atom_site_aniso_U_33
_atom_site_aniso_U_23
_atom_site_aniso_U_13
_atom_site_aniso_U_12
Si1 0.00481(7) 0.00308(7) 0.00345(7) -0.00070(5) 0.000 0.000
O1 0.0098(3) 0.00525(14) 0.00525(14) -0.00277(18) 0.000 0.000
O2 0.01158(14) 0.0176(3) 0.01158(14) -0.00562(15) -0.00760(17) 0.00562(15)
O3 0.0289(5) 0.0024(2) 0.0103(3) 0.000 0.000 0.000
loop_
_atom_type_symbol
_atom_type_description
_atom_type_scat_dispersion_real
_atom_type_scat_dispersion_imag
_atom_type_scat_source
O O 0.0106 0.0060 'International Tables Vol C Tables 4.2.6.8 and 6.1.1.4'
Si Si 0.0817 0.0704 'International Tables Vol C Tables 4.2.6.8 and 6.1.1.4'
loop_
_exptl_crystal_face_index_h
_exptl_crystal_face_index_k
_exptl_crystal_face_index_l
_exptl_crystal_face_perp_dist
0.00 0.00 -1.00 0.0270
0.00 0.00 1.00 0.0490
0.00 1.00 0.00 0.0260
0.00 -1.00 0.00 0.0490
1.00 0.00 0.00 0.0490
-1.00 0.00 0.00 0.0330
loop_
_geom_angle_atom_site_label_1
_geom_angle_atom_site_label_2
_geom_angle_atom_site_label_3
_geom_angle
_geom_angle_site_symmetry_1
_geom_angle_site_symmetry_3
O1 Si1 O2 109.57(3) . .
O1 Si1 O2 109.57(3) . 28_655
O1 Si1 O3 108.57(4) . .
O2 Si1 O2 109.43(5) 28_655 .
O3 Si1 O2 109.84(3) . 28_655
O3 Si1 O2 109.84(3) . .
Si1 O1 Si1 155.91(5) . 42_566
Si1 O2 Si1 146.27(4) 46_656 .
Si1 O3 Si1 151.22(6) . 2_675
loop_
_geom_bond_atom_site_label_1
_geom_bond_atom_site_label_2
_geom_bond_distance
_geom_bond_site_symmetry_2
Si1 O1 1.5922(6) .
Si1 O2 1.6072(6) 28_655
Si1 O2 1.6072(6) .
Si1 O3 1.6014(6) .
O1 Si1 1.5922(6) 42_566
O2 Si1 1.6072(6) 46_656
O3 Si1 1.6014(6) 2_675
loop_
_geom_torsion_atom_site_label_1
_geom_torsion_atom_site_label_2
_geom_torsion_atom_site_label_3
_geom_torsion_atom_site_label_4
_geom_torsion
_geom_torsion_site_symmetry_1
_geom_torsion_site_symmetry_4
O1 Si1 O2 Si1 176.06(8) . 46_656
O1 Si1 O3 Si1 180.000(0) . 2_675
O2 Si1 O1 Si1 60.03(3) . 42_566
O2 Si1 O1 Si1 -60.04(3) 28_655 42_566
O2 Si1 O2 Si1 -63.78(11) 28_655 46_656
O2 Si1 O3 Si1 60.20(3) 28_655 2_675
O2 Si1 O3 Si1 -60.20(3) . 2_675
O3 Si1 O1 Si1 180.000(0) . 42_566
O3 Si1 O2 Si1 56.88(10) . 46_656
loop_
_refln_index_h
_refln_index_k
_refln_index_l
_refln_F_squared_meas
_refln_F_squared_sigma
-1 -1 0 351.74 9.69
-1 0 1 313.54 9.69
0 -1 -1 362.22 9.8
0 -1 1 359.11 9.79
1 -1 0 330.95 9.73
1 0 -1 373.83 9.72
1 0 1 322.68 9.64
1 -1 1 615.73 16.86
1 1 -1 608.41 16.78
-1 1 1 591.75 16.81
-1 1 1 625.37 16.86
1 -1 -1 589.14 16.8
1 -1 -1 605.88 16.86
-1 -1 1 582.75 16.7
-1 1 -1 580.09 16.74
0 -2 0 34.89 1.06
0 0 -2 35.46 1.06
0 0 2 34.51 1.06
0 2 0 35.07 1.06
2 -1 0 105.49 3.02
0 2 -1 111.92 3.09
0 2 1 110.37 3.08
1 0 -2 109.42 3.08
1 0 2 105.28 3.07
0 -2 1 106.44 3.08
-1 0 2 105.56 3.08
0 -2 -1 110.01 3.09
-2 1 0 107.38 3.03
-1 0 -2 109.29 3.07
-2 -1 0 103.98 3.01
2 0 -1 108.01 3.02
1 2 0 109.38 3.07
0 1 2 104.66 3.08
1 -2 0 105.64 3.08
0 1 -2 113.62 3.09
-1 -2 0 104.34 3.07
-1 2 0 109.53 3.08
0 -1 -2 112.42 3.09
0 -1 2 108.93 3.09
-2 0 -1 107.78 3.01
-2 0 1 102.05 3.03
2 1 -1 34.58 1.03
-2 1 1 35.21 1.05
-2 1 1 35.22 1.05
-1 -2 -1 35.55 1.07
1 1 -2 35.86 1.08
-1 -1 -2 35.28 1.07
1 2 -1 35.95 1.08
-1 2 1 34.41 1.08
-1 1 2 33.29 1.08
2 -1 1 35.4 1.03
1 -2 1 34.69 1.08
1 -1 2 34.47 1.07
-1 1 -2 35.46 1.08
1 -1 -2 34.14 1.08
1 -2 -1 35.37 1.08
-1 -2 1 34.22 1.07
1 1 2 33.78 1.06
-1 -1 2 34.74 1.08
1 2 1 35.86 1.07
2 -1 -1 34.57 1.04
2 -1 -1 34.29 1.04
-1 2 -1 36.7 1.09
-2 1 -1 35.68 1.04
-2 -2 0 361.28 10.35
-2 0 -2 360.26 10.35
-2 0 2 377.54 10.38
-2 2 0 360.61 10.37
0 -2 -2 378.41 10.4
0 -2 -2 374.93 10.41
0 -2 2 361.46 10.4
0 2 -2 384.84 10.41
2 -2 0 361.38 10.36
2 0 -2 385.26 10.37
2 0 2 383.13 10.44
2 2 0 368.41 10.34
-2 -2 -1 148.44 4.32
2 2 -1 150.94 4.32
-2 -1 -2 149.85 4.32
1 2 -2 161.17 4.37
2 -2 1 148.44 4.33
-2 1 2 147.29 4.34
2 1 -2 158.86 4.33
-2 2 1 155.59 4.34
-1 -2 -2 152.41 4.36
2 -1 2 144.95 4.32
1 -2 2 147.86 4.36
-1 2 2 164.71 4.38
1 -2 -2 155.53 4.36
1 -2 -2 148.09 4.36
-2 1 -2 157.66 4.33
-2 -1 2 148.47 4.34
2 -2 -1 154.96 4.34
2 -2 -1 147.86 4.34
-1 2 -2 165.74 4.38
2 -1 -2 152.46 4.33
2 -1 -2 145.7 4.33
-1 -2 2 152.05 4.37
-2 2 -1 157.53 4.34
-2 -2 1 152.77 4.33
2 -2 2 0.78 0.17
2 2 -2 0.86 0.16
-2 2 2 0.74 0.19
-2 2 2 0.86 0.18
2 -2 2 0.74 0.19
2 -2 -2 0.82 0.18
2 -2 -2 0.69 0.16
2 -2 -2 0.89 0.18
-2 -2 2 0.85 0.17
-2 2 -2 1.1 0.19
0 -3 0 418.15 12.14
0 0 -3 451.1 12.15
0 0 3 418.29 12.15
0 3 0 445.05 12.15
0 3 -1 47.22 1.42
0 3 1 44.24 1.4
1 0 -3 47.56 1.41
1 0 3 43.39 1.4
-1 0 3 45 1.41
0 -3 -1 43.56 1.41
0 -3 1 44.04 1.41
-1 0 -3 46.65 1.41
-3 1 0 47.34 1.32
2 0 -3 160.36 4.53
3 -2 0 150.35 4.46
0 3 -2 171.09 4.56
0 3 2 169.47 4.56
-3 2 0 160.16 4.48
-2 0 -3 162.33 4.52
-2 0 3 150.84 4.53
0 -3 -2 155.31 4.55
3 -2 0 160.02 4.52
0 -3 2 151.27 4.54
2 0 3 152.84 4.5
-3 0 1 45.72 1.33
-1 -3 0 45.26 1.41
-1 3 0 46.04 1.42
-3 0 -1 46.12 1.29
0 1 -3 47.95 1.43
0 1 3 44.92 1.42
0 -1 -3 47.13 1.43
0 -1 3 43.83 1.42
1 3 0 47.16 1.41
1 -3 0 44.83 1.42
1 1 -3 336.26 9.1
3 -1 1 322.82 8.99
-1 3 1 335.49 9.09
1 -3 1 310.02 9.09
-3 1 1 320.39 9.02
-1 -3 -1 313.61 9.08
-1 1 3 307.04 9.09
-1 -1 -3 330.41 9.09
1 3 -1 341.32 9.09
1 -1 3 313.46 9.09
1 -3 1 364.55 9.12
-1 -1 3 310.89 9.09
1 3 1 328.87 9.08
3 -1 -1 327.59 9.07
3 -1 -1 306.7 9
-3 1 -1 323.87 9
-3 -1 1 317.78 9
1 -1 -3 334.15 9.1
1 1 3 306.35 9.08
1 -3 -1 312.37 9.09
-1 3 -1 336.38 9.1
-1 1 -3 333.14 9.09
-1 -3 1 308.79 9.08
-3 2 1 115.72 3.28
-1 -3 -2 113.33 3.33
-2 -1 -3 118.22 3.31
-1 3 2 119.05 3.35
3 -2 1 111.49 3.3
3 -2 1 109.8 3.26
1 3 -2 122.35 3.34
3 2 -1 109.57 3.23
-2 1 3 108.24 3.32
1 -3 2 111.67 3.34
2 -1 3 111.02 3.3
2 1 -3 123.73 3.33
2 -1 -3 115.9 3.3
2 -1 -3 114.25 3.32
3 -2 -1 115.59 3.27
3 -2 -1 108.09 3.26
-3 -2 1 110.79 3.26
1 -3 -2 110.04 3.34
-3 2 -1 118.6 3.28
3 -2 -1 112.13 3.3
1 3 2 122.67 3.34
-2 -1 3 112.59 3.32
-2 1 -3 121.87 3.32
2 1 3 106.38 3.29
-1 3 -2 119.99 3.35
-1 -3 2 113.18 3.34
-3 0 -2 158.77 4.46
-3 0 2 159.3 4.49
-2 -3 0 155.69 4.52
-2 3 0 163.96 4.54
2 -3 0 153.06 4.53
3 0 -2 163.23 4.52
0 -2 -3 166.57 4.56
3 0 -2 161.35 4.48
3 0 -2 152.88 4.47
0 2 -3 171.18 4.57
0 2 3 148.26 4.54
2 -3 0 158.94 4.52
0 -2 3 152.7 4.56
2 3 0 157.01 4.51
3 1 -2 118.64 3.24
-1 2 3 109.57 3.32
-3 1 2 112.02 3.27
3 -1 2 107.62 3.26
3 -1 2 109.26 3.22
3 1 -2 116.37 3.28
1 -2 3 109.92 3.31
-3 -1 -2 115.07 3.23
-1 -2 -3 117.09 3.32
2 -3 1 116.53 3.29
2 -3 1 109.48 3.29
2 3 -1 113.73 3.28
-2 -3 -1 113.91 3.28
-2 3 1 115.33 3.3
1 2 -3 124.83 3.34
3 -1 -2 115.95 3.29
2 3 1 116.12 3.28
-2 -3 1 109.02 3.28
-2 3 -1 117.66 3.31
-3 -1 2 113.68 3.26
2 -3 -1 108.81 3.29
-1 -2 3 111.38 3.32
-1 2 -3 119.85 3.33
3 -1 -2 117.01 3.25
1 -2 -3 116.17 3.32
1 -2 -3 112.86 3.33
-3 1 -2 114.71 3.25
3 -1 -2 109.05 3.25
2 -3 -1 108.24 3.26
3 2 -2 89.6 2.49
3 2 -2 85.87 2.53
-3 2 2 80.22 2.51
-3 2 2 86.71 2.52
-2 -3 -2 85.98 2.53
3 -2 2 82.6 2.51
-2 -2 -3 83.01 2.52
2 -3 2 88.51 2.53
2 -2 3 84.59 2.54
-2 2 3 83.19 2.55
2 3 -2 90.32 2.54
-2 3 2 83.04 2.54
3 -2 2 81.83 2.48
2 2 -3 90.42 2.54
2 -3 2 82.27 2.53
-2 -2 3 87.57 2.55
2 -3 -2 83.35 2.54
2 -2 -3 87.82 2.51
2 -2 -3 86.83 2.54
2 -2 -3 84.1 2.54
-2 2 -3 86.69 2.55
2 -3 -2 84.87 2.54
-2 3 -2 86.44 2.55
2 3 2 82.65 2.52
3 -2 -2 88.98 2.53
3 -2 -2 85.32 2.5
3 -2 -2 83.48 2.5
-2 -3 2 83.36 2.53
2 -3 -2 84.2 2.5
-3 -2 2 86.76 2.5
-3 2 -2 92.32 2.52
-3 -3 0 155.01 4.48
-3 0 -3 160.57 4.48
-3 0 3 153.83 4.51
-3 3 0 156.7 4.5
0 -3 -3 153.18 4.55
0 -3 -3 157.9 4.56
0 -3 3 153.99 4.55
0 3 -3 166.73 4.57
3 -3 0 155.09 4.5
3 -3 0 152.69 4.49
3 0 -3 170.27 4.52
3 0 -3 161.21 4.5
3 0 3 153.08 4.46
3 3 0 157.31 4.45
3 3 0 152.26 4.52
-3 -3 -1 -0.02 0.13
3 -1 3 0 0.13
-3 -1 -3 -0.01 0.15
3 1 -3 0.1 0.15
3 3 -1 0.13 0.13
-3 1 3 -0.04 0.14
3 -3 1 0.18 0.14
-3 3 1 0.28 0.17
-1 -3 -3 -0.32 0.18
-1 -3 -3 0.04 0.17
1 3 -3 -0.07 0.19
3 3 -1 0.03 0.17
1 -3 3 0 0.17
3 -3 1 0.3 0.17
1 -3 -3 0.01 0.17
-3 3 -1 0.17 0.18
-1 -3 3 0.1 0.18
3 -3 -1 0.22 0.17
3 -3 -1 0.17 0.15
1 -3 -3 0.13 0.19
-3 -3 1 -0.02 0.13
3 -1 -3 0.21 0.17
3 -1 -3 -0.04 0.15
3 -1 -3 0.09 0.15
1 -3 -3 0.08 0.15
-3 -1 3 0.07 0.14
-3 1 -3 0.25 0.16
-1 3 -3 -0.26 0.2
3 3 1 -0.28 0.17
-3 -3 -2 250.74 7.26
3 3 -2 262.71 7.29
-3 -2 -3 258.05 7.27
3 -2 3 246.05 7.26
3 2 -3 266.84 7.28
-3 2 3 249.18 7.3
3 3 -2 260.17 7.26
-2 -3 -3 251.55 7.3
3 -2 3 257.59 7.28
3 -3 2 240.88 7.27
2 3 -3 256.26 7.26
3 2 -3 270.29 7.3
2 -3 3 246.71 7.31
2 3 -3 278.76 7.32
3 -3 2 253.66 7.28
2 -3 -3 270.39 7.33
3 -3 -2 262.29 7.28
-3 3 -2 267.9 7.31
3 -3 -2 240.65 7.28
2 3 3 256.98 7.29
2 -3 -3 260.83 7.26
3 -2 -3 272.88 7.3
3 -2 -3 266.74 7.29
3 -2 -3 245.31 7.28
-2 -3 3 250.05 7.32
-3 -2 3 254.12 7.29
-3 2 -3 264.11 7.29
2 -3 -3 242.25 7.31
3 2 3 259.7 7.28
3 -3 -2 264.38 7.29
-3 -3 2 254.51 7.28
3 3 2 256.15 7.29
3 3 -3 78.82 2.37
3 3 -3 79.83 2.37
3 -3 3 77.13 2.37
3 -3 3 79.06 2.38
3 -3 -3 77.03 2.39
3 -3 -3 78.03 2.38
-3 -3 3 82.02 2.4
3 -3 -3 79.85 2.37
3 3 3 77.28 2.37
0 -4 0 10.72 0.52
0 0 -4 11.9 0.55
0 0 4 10.29 0.52
0 4 0 11.59 0.53
4 0 0 11.4 0.48
4 -1 0 257.84 7.15
0 4 1 259.15 7.19
1 0 -4 264.26 7.2
-4 1 0 250.99 7.06
-1 0 -4 254.16 7.19
-1 0 4 245.66 7.2
0 -4 -1 245.87 7.2
0 -4 1 242.03 7.19
0 4 -1 260.8 7.2
1 0 4 252.42 7.19
4 -2 0 42.2 1.35
2 0 -4 44.47 1.39
2 0 4 42.01 1.36
0 4 -2 44.29 1.41
0 4 2 44.72 1.41
4 -2 0 42.29 1.26
4 2 0 41.87 1.35
0 -4 -2 42.72 1.4
0 -4 2 42.05 1.4
-4 -2 0 41.78 1.25
-4 2 0 43.69 1.3
-2 0 -4 41.62 1.37
-2 0 4 42.42 1.39
4 -3 0 -0.07 0.12
0 -4 -3 0.15 0.2
3 0 -4 -0.02 0.18
3 0 -4 -0.15 0.19
-4 -3 0 0.02 0.12
4 3 0 0.01 0.2
-4 3 0 -0.15 0.17
-3 0 4 0.16 0.17
3 0 4 0 0.15
4 -3 0 -0.02 0.18
0 -4 3 0.17 0.2
1 -4 0 236.1 7.12
-4 0 1 239.77 7
-4 0 1 252.63 7
-1 -4 0 240.63 7.12
-1 4 0 257.36 7.14
0 -1 -4 251.76 7.13
1 4 0 265.1 7.13
1 -4 0 252.32 7.07
0 1 4 246.62 7.14
4 0 1 252.51 7.07
0 -1 4 246.05 7.14
0 1 -4 261.19 7.15
4 0 -1 263.46 7.09
1 1 -4 66.01 1.98
1 -1 4 64.53 1.98
1 -4 1 65.8 1.93
-4 1 1 64.4 1.86
-1 1 4 62.97 1.98
1 -4 1 61.61 1.97
-1 -4 -1 63.09 1.97
-1 -1 -4 61.22 1.96
4 1 -1 64.58 1.93
-4 1 1 55.34 1.88
4 -1 1 64.34 1.92
1 4 -1 66.4 1.97
-1 4 1 64.43 1.98
4 1 -1 66.61 1.92
-4 1 -1 66.39 1.84
1 -4 -1 63.13 1.9
-1 -1 4 64.46 1.99
-1 -4 1 62.65 1.97
1 -4 -1 61.62 1.97
-4 -1 1 64.19 1.84
1 -1 -4 66.11 1.98
4 -1 -1 67.82 1.95
1 1 4 61.87 1.96
-1 1 -4 65.85 1.98
1 4 1 66.45 1.96
-1 4 -1 64.6 1.98
4 -1 -1 66.86 1.81
4 -1 -1 64.52 1.8
-1 -4 -2 50.18 1.62
2 1 -4 53.49 1.62
-4 -2 -1 50.06 1.48
1 4 -2 51.68 1.61
1 -4 2 49.98 1.62
-2 1 4 48.36 1.6
4 2 -1 49.7 1.53
4 2 -1 53.33 1.45
4 -2 1 48.19 1.56
4 -2 1 50.05 1.48
-4 2 1 51.58 1.53
-2 -1 -4 56.08 1.68
4 2 -1 51.25 1.58
2 -1 4 48.69 1.59
1 4 2 50.57 1.57
1 4 2 51.57 1.61
2 -1 -4 53.22 1.57
2 -1 -4 52.06 1.61
4 -2 -1 52.33 1.59
-4 2 -1 52.71 1.52
2 1 4 46.63 1.57
1 -4 -2 47.2 1.51
-1 -4 2 47.68 1.6
4 -2 -1 48.6 1.49
-2 -1 4 50.58 1.61
4 2 1 49.49 1.56
1 -4 -2 49.56 1.62
4 -2 -1 52.21 1.5
3 -1 4 2.05 0.26
-4 -3 -1 2.14 0.22
-3 1 4 2.17 0.28
-1 -4 -3 2.16 0.31
4 3 -1 2.17 0.27
-4 3 1 1.82 0.38
4 -3 1 2.06 0.23
4 -3 1 2.12 0.28
3 1 -4 2.97 0.3
4 3 -1 2.14 0.23
4 3 -1 2.09 0.19
1 -4 3 2.34 0.3
1 4 -3 1.86 0.34
1 -4 -3 2.21 0.24
1 -4 -3 2.2 0.31
4 -3 -1 2.27 0.24
-3 -1 4 1.59 0.25
3 -1 -4 2.38 0.29
3 -1 -4 2.3 0.29
-4 3 -1 2.43 0.3
4 -3 -1 1.68 0.23
3 1 4 1.9 0.24
-4 -3 1 2.04 0.23
4 3 1 2.22 0.3
4 -3 -1 2.07 0.28
-1 -4 3 1.95 0.28
0 -2 -4 41.69 1.39
0 -2 4 42.64 1.4
0 2 4 39.91 1.38
2 -4 0 42.24 1.32
2 -4 0 39.29 1.35
2 4 0 43.6 1.34
-2 -4 0 41.31 1.35
-2 4 0 45.63 1.45
-4 0 2 42.95 1.28
0 2 -4 42.76 1.39
4 0 2 40.19 1.29
-4 0 -2 43.14 1.25
4 0 -2 45.79 1.35
2 4 0 41.92 1.33
4 0 -2 41.41 1.24
1 -2 4 48.79 1.61
4 1 -2 51.56 1.57
-2 -4 -1 49.66 1.58
-1 2 4 49.65 1.62
4 1 -2 52.89 1.56
-4 1 2 53.61 1.53
-4 1 2 48.75 1.52
1 2 -4 52.91 1.62
2 4 -1 47.57 1.54
2 -4 1 52 1.56
2 4 -1 51.46 1.57
4 -1 2 49.96 1.54
4 -1 2 48.29 1.43
2 -4 1 48.91 1.59
2 4 1 52.54 1.57
4 -1 -2 52.73 1.58
-4 -1 2 50.23 1.51
2 4 1 48.23 1.55
4 -1 -2 51.92 1.49
1 2 4 48.76 1.59
2 -4 -1 50.03 1.54
2 -4 -1 48.2 1.59
1 -2 -4 49.24 1.61
4 -1 -2 47.61 1.48
1 -2 -4 51.83 1.53
-2 -4 1 49.18 1.58
-1 -2 4 49.02 1.61
-4 1 -2 51.32 1.49
2 -4 2 31.61 1.12
2 -4 2 31.16 1.09
4 2 -2 34.03 1.1
2 4 -2 32.85 1.11
4 -2 2 31.22 1.07
4 -2 2 31.27 1
4 2 -2 34.39 1.07
-4 2 2 31.74 1.06
-4 2 2 31.63 1.06
-2 -4 -2 31.85 1.1
2 2 -4 34.72 1.15
2 -2 4 31 1.1
-2 2 4 30.12 1.12
4 2 -2 32.98 1
2 4 -2 32.48 1.06
-4 2 -2 33.51 1.06
-2 -4 2 30.97 1.1
-2 -2 4 32.01 1.12
-4 -2 2 32.92 1.05
4 -2 -2 31.09 1.03
2 -2 -4 33.05 1.14
2 4 2 32.78 1.1
2 4 2 33.15 1.09
4 -2 -2 32.73 1.1
4 -2 -2 33.03 1.03
2 -4 -2 31.04 1.12
2 -4 -2 31.98 1.05
4 2 2 32.48 1.08
2 -2 -4 31.69 1.12
2 -2 -4 34.49 1.08
4 -3 2 -0.02 0.13
2 -4 3 -0.15 0.18
2 4 -3 0.01 0.16
2 4 -3 0.1 0.24
-4 -3 -2 0.01 0.14
4 -3 2 0.29 0.21
4 3 -2 0.36 0.2
3 -2 4 -0.03 0.16
3 2 -4 -0.25 0.21
-2 -4 -3 0.08 0.2
-3 2 4 -0.11 0.19
4 3 -2 0.09 0.13
4 -3 -2 0 0.14
3 -2 -4 -0.08 0.19
4 -3 -2 0.23 0.2
4 -3 -2 0 0.17
4 3 2 -0.05 0.19
2 -4 -3 0.14 0.18
-4 -3 2 0.14 0.15
-3 -2 4 0 0.17
3 -2 -4 0.04 0.17
3 2 4 0.13 0.2
-2 -4 3 -0.09 0.16
2 -4 -3 0.11 0.18
2 4 3 0.06 0.21
3 -2 -4 -0.13 0.21
-4 0 -3 0.01 0.15
0 -3 -4 -0.05 0.19
-4 0 3 0.25 0.15
4 0 -3 0.14 0.13
-3 -4 0 -0.27 0.15
3 -4 0 0.05 0.19
4 0 -3 -0.14 0.12
4 0 3 0.15 0.17
3 4 0 0.07 0.16
3 4 0 0.1 0.2
4 0 -3 0.12 0.2
3 -4 0 0.08 0.17
0 -3 4 0.41 0.2
3 4 -1 2.48 0.28
4 -1 3 2.07 0.2
4 1 -3 2.46 0.31
3 -4 1 2.12 0.27
3 -4 1 1.75 0.25
-4 -1 -3 2.08 0.26
4 -1 3 2.11 0.25
3 4 -1 2.75 0.28
-4 1 3 2.11 0.25
4 1 -3 2.36 0.24
1 -3 4 1.95 0.28
-3 -4 -1 2.22 0.27
4 -1 -3 1.84 0.24
3 -4 -1 2.2 0.29
-4 -1 3 2.27 0.27
-4 1 -3 2.61 0.26
3 -4 -1 2.1 0.27
3 4 1 2.34 0.26
-3 -4 1 2.02 0.25
-1 -3 4 2.12 0.3
1 -3 -4 2 0.26
1 -3 -4 2.22 0.31
4 1 3 2.18 0.26
4 -1 -3 2.38 0.29
4 -1 -3 2.19 0.26
3 4 1 2.12 0.28
4 -2 3 0.01 0.13
4 2 -3 -0.09 0.15
4 2 -3 0.25 0.19
3 -4 2 -0.09 0.17
4 2 -3 0.01 0.18
-4 2 3 0.34 0.17
4 -2 3 0.24 0.19
-4 -2 -3 0.12 0.17
3 4 -2 0.16 0.18
-2 3 4 0.04 0.2
-3 -4 -2 -0.1 0.14
3 4 -2 0.03 0.18
2 -3 4 0.12 0.18
2 3 -4 0.27 0.22
2 3 -4 0.05 0.17
3 -4 2 0.27 0.2
3 -4 -2 -0.24 0.22
3 -4 -2 0.06 0.16
2 -3 -4 -0.02 0.19
4 2 3 -0.17 0.19
4 -2 -3 -0.04 0.16
3 -4 -2 -0.03 0.17
3 4 2 0.03 0.19
4 -2 -3 -0.1 0.18
-4 -2 3 0.1 0.15
4 -2 -3 -0.03 0.14
2 -3 -4 0.13 0.19
-3 -4 2 -0.08 0.17
-2 -3 4 -0.03 0.17
3 -4 3 62.26 1.97
-3 -4 -3 63.77 1.97
4 -3 3 61.2 1.91
4 3 -3 65.77 1.92
-3 3 4 61.31 1.99
3 4 -3 66.87 1.98
3 4 -3 63.57 1.94
4 -3 3 61.74 1.95
3 3 -4 65.35 1.99
3 -4 3 60.78 2.02
4 3 -3 63.32 1.95
3 3 -4 65.16 1.95
3 -3 4 59.56 1.96
3 -3 -4 60.02 1.98
-4 -3 3 61.49 1.95
3 -3 -4 61.53 1.99
3 3 4 63.05 1.95
3 -4 -3 62.6 1.93
3 -4 -3 61.47 1.99
3 4 3 64.31 1.97
4 -3 -3 61.03 1.95
4 -3 -3 63.92 1.95
4 -3 -3 61.44 1.94
3 -4 -3 61.16 1.98
-3 -4 3 63.05 1.98
-3 -3 4 63.1 1.99
3 -3 -4 63.33 1.95
4 3 3 62.53 1.95
-4 -4 0 179.59 5.21
-4 0 4 179.35 5.25
0 -4 -4 206.16 5.21
0 -4 -4 174.73 5.3
0 -4 4 176.22 5.31
4 -4 0 175.74 5.24
4 -4 0 172.19 5.21
4 0 -4 184.56 5.25
4 0 -4 190.31 5.23
4 0 4 175.15 5.17
4 4 0 188.81 5.17
4 4 0 183.2 5.25
-4 -4 -1 0.73 0.2
4 -1 4 0.88 0.19
4 1 -4 0.49 0.22
-4 1 4 0.84 0.24
-1 -4 -4 0.96 0.26
4 4 -1 0.89 0.19
4 4 -1 1.23 0.25
4 1 -4 1 0.22
1 -4 4 0.69 0.25
1 4 -4 0.76 0.2
4 -4 1 0.61 0.19
4 -4 1 1.05 0.26
4 -4 -1 0.41 0.21
4 -4 -1 0.55 0.24
4 -1 -4 1.14 0.25
4 -1 -4 0.83 0.21
4 -1 -4 0.79 0.22
-4 -4 1 0.86 0.21
-4 -1 4 0.95 0.24
1 -4 -4 0.52 0.24
4 1 4 0.96 0.23
-1 -4 4 0.56 0.25
1 -4 -4 1.02 0.21
4 4 1 0.59 0.24
-4 -4 -2 58.82 1.81
4 4 -2 61.47 1.86
4 -2 4 55.59 1.8
-4 2 4 56.92 1.86
-2 -4 -4 56.95 1.87
4 -4 2 57.35 1.84
4 4 -2 58.53 1.79
4 2 -4 61.2 1.83
2 -4 4 57.14 1.89
2 4 -4 61.03 1.81
4 -4 2 55.99 1.82
4 2 -4 61.76 1.86
4 -4 -2 59.65 1.84
-2 -4 4 57.13 1.89
4 -4 -2 57.27 1.84
4 -2 -4 57.24 1.84
4 -2 -4 59.45 1.84
4 -2 -4 57.31 1.84
-4 -2 4 58.8 1.85
2 -4 -4 56.12 1.9
4 -4 -2 58.35 1.84
4 2 4 59.45 1.83
2 -4 -4 60.67 1.81
-4 -4 2 58.52 1.83
4 4 2 60.69 1.86
-4 -4 -3 161.73 4.74
3 4 -4 165.78 4.78
4 4 -3 171.77 4.73
-4 3 4 159.68 4.78
-3 -4 -4 161.32 4.77
4 3 -4 177.59 4.75
4 3 -4 172.74 4.77
4 -4 3 159.61 4.75
3 -4 4 154.55 4.76
4 4 -3 169.21 4.76
3 4 -4 171.35 4.74
4 -4 3 157.79 4.73
4 -3 4 157.12 4.72
3 4 4 160.17 4.75
4 -4 -3 153.56 4.75
3 -4 -4 161.53 4.8
-4 -4 3 162.89 4.76
4 -3 -4 169.65 4.76
4 -3 -4 165.53 4.76
4 -3 -4 158.58 4.76
4 -4 -3 162.82 4.75
-3 -4 4 160.97 4.8
3 -4 -4 164.63 4.73
4 3 4 164.49 4.74
-4 -3 4 164.6 4.77
4 -4 -3 162.9 4.76
4 4 3 157.82 4.75
-4 -4 -4 0.33 0.23
4 4 -4 -0.2 0.29
4 4 -4 0.16 0.25
4 -4 4 0.71 0.25
4 -4 -4 0.7 0.28
-4 -4 4 0.4 0.28
4 -4 -4 0.06 0.25
4 4 4 0.55 0.28
0 -5 0 165.29 4.73
0 -5 0 160.96 4.83
0 0 5 164.13 4.84
5 0 0 172.86 4.76
5 0 0 164.52 4.75
5 1 0 31.6 1.04
1 0 5 31.28 1.1
5 -1 0 32.08 1.05
-5 1 0 31.15 0.93
-1 0 5 30.33 1.1
0 -5 -1 29.62 0.99
0 -5 -1 30.84 1.11
0 -5 1 31.07 1.11
0 5 1 30.97 1.03
5 1 0 31.92 1.02
0 -5 -2 3.69 0.36
5 2 0 3.47 0.32
5 2 0 3.34 0.29
0 -5 2 3.98 0.37
2 0 -5 3.86 0.45
2 0 5 3.71 0.37
5 -2 0 3.57 0.36
-2 0 5 3.61 0.36
-5 2 0 4.03 0.27
-5 -2 0 3.65 0.2
5 -3 0 0.38 0.23
0 -5 -3 0.38 0.24
3 0 -5 1.02 0.29
3 0 -5 0.78 0.22
5 3 0 0.71 0.26
3 0 5 0.69 0.21
-5 -3 0 0.44 0.15
-3 0 5 0.46 0.25
0 -5 3 0.26 0.22
5 -3 0 0.47 0.13
5 3 0 0.66 0.19
5 -3 0 0.72 0.15
4 0 5 39.57 1.29
5 -4 0 39.68 1.33
5 -4 0 38.15 1.25
-5 -4 0 39.52 1.26
5 4 0 39.17 1.33
5 4 0 39.37 1.22
0 -5 -4 37.33 1.39
0 -5 4 37.01 1.38
4 0 -5 40.34 1.33
-4 0 5 39.1 1.35
0 -5 -4 38.31 1.21
4 0 -5 41.06 1.35
1 5 0 29.74 1.08
1 -5 0 29.3 1.08
0 1 5 31.49 1.1
5 0 -1 32.4 1.04
5 0 -1 30.49 1.02
1 -5 0 31.56 1.01
5 0 1 30.31 1
0 -1 5 30.07 1.11
-1 -5 0 29.85 1.08
1 5 0 30.33 1.01
-5 0 1 30.05 0.91
-5 0 1 31.68 0.91
1 -5 1 28.33 0.98
-1 1 5 29.22 1.06
1 -5 1 27.81 1.04
-5 1 1 29.11 0.9
1 5 -1 28.36 1.06
1 5 -1 28.87 0.96
5 1 -1 30.93 0.98
1 -1 5 28.03 1.04
-1 -5 -1 29.35 1.05
-5 1 1 28.38 0.9
5 1 -1 30.95 1
5 -1 1 28.81 0.98
-1 -1 5 29.3 1.06
5 -1 -1 30.4 0.98
5 1 1 28.73 0.94
5 -1 -1 30.02 1.01
1 -5 -1 28.63 0.96
1 -5 -1 29.19 1.06
-5 1 -1 29.32 0.88
1 5 1 27.35 1.03
1 1 5 27.81 1.04
1 5 1 29.29 0.99
-1 -5 1 27.49 1.03
5 1 1 30.04 0.99
-5 -1 1 29.24 0.87
1 5 -2 72.64 2.01
2 -1 5 62.66 2.02
2 1 -5 73.03 2.15
-5 2 1 62.5 1.91
-1 -5 -2 65.82 2.05
-2 1 5 62.59 2.03
5 -2 1 61.11 1.96
5 2 -1 67.75 1.95
5 2 -1 67.54 2
1 -5 2 61.24 2.18
1 5 2 64.8 1.98
5 2 1 63.64 1.97
1 -5 -2 63.19 2.04
-5 2 -1 66.22 1.9
2 1 5 61.17 2
-2 -1 5 63.76 2.04
5 -2 -1 63.85 1.99
5 -2 -1 63.28 1.84
-1 -5 2 62.35 2.03
1 -5 -2 60.48 1.91
-5 -2 1 62.77 1.87
2 -1 -5 63.86 1.97
5 -3 1 25.08 0.95
5 3 -1 27.14 0.89
-1 -5 -3 25.3 1
-3 1 5 26.45 1
5 -3 1 26.18 0.84
-5 -3 -1 26.48 0.85
5 3 -1 27.34 0.96
1 5 -3 26.62 0.89
1 -5 3 26.54 1.02
3 -1 5 25.69 0.95
3 1 -5 27.15 1.01
-1 -5 3 25.35 1
-5 -3 1 25.95 0.87
5 -3 -1 27.36 0.87
3 -1 -5 26.32 0.95
5 -3 -1 25.1 0.95
3 1 5 25.66 0.94
5 -3 -1 25.76 0.86
1 -5 -3 25.81 0.88
5 3 1 25.98 0.95
3 -1 -5 26.9 1.02
1 -5 -3 23.91 0.99
-3 -1 5 25.54 0.98
1 5 -4 112.6 3.19
-5 -4 -1 110.44 3.19
4 1 -5 113.44 3.26
-4 1 5 106.05 3.28
5 -4 1 106.89 3.26
5 -4 1 108.36 3.19
5 4 -1 112.53 3.27
4 1 -5 106.68 3.25
5 4 -1 109.24 3.12
4 -1 5 107.09 3.22
-1 -5 -4 108.52 3.32
1 -5 4 107.08 3.33
5 4 -1 110.54 3.17
5 -4 -1 113.26 3.2
4 1 5 104.79 3.19
4 -1 -5 110.57 3.26
1 -5 -4 109.37 3.34
5 -4 -1 105.84 3.26
-5 -4 1 111.7 3.2
1 -5 -4 109.81 3.17
-4 -1 5 108.18 3.28
5 4 1 110.73 3.27
-1 -5 4 105.7 3.33
4 -1 -5 112.05 3.27
5 -4 -1 103.72 3.19
2 5 0 3.93 0.36
2 5 0 3.98 0.31
2 -5 0 3.59 0.34
-5 0 -2 3.93 0.22
2 -5 0 3.78 0.31
0 2 5 4.05 0.38
-5 0 2 4.01 0.25
5 0 -2 3.54 0.32
5 0 2 3.73 0.32
-2 -5 0 3.77 0.34
0 -2 5 3.59 0.37
5 0 -2 3.84 0.35
2 5 -1 64.67 1.95
-1 2 5 63.32 2.04
1 -2 5 61.67 2.02
-5 1 2 63.26 1.9
-5 1 2 65.62 1.91
-2 -5 -1 62.5 2
5 -1 2 63.83 1.94
5 1 -2 66.87 1.96
2 -5 1 65.19 1.97
2 5 -1 66.17 2
5 1 -2 65.19 1.97
2 -5 1 61.67 2.01
2 5 1 64.73 1.97
-5 -1 2 65.31 1.89
5 -1 -2 65.56 1.99
5 -1 -2 61.56 1.83
2 5 1 65.55 1.99
2 -5 -1 59.84 2
1 2 5 60.53 2.01
2 -5 -1 64.9 1.95
-1 -2 5 60.3 2.02
-5 1 -2 70.15 1.88
5 1 2 60.79 1.89
5 1 2 63.64 1.94
1 -2 -5 66.54 1.94
-2 -5 1 61.34 2
2 5 -2 51.3 1.83
5 2 -2 59.17 1.72
5 2 -2 59.25 1.76
-2 -5 -2 56.38 1.78
5 -2 2 54.82 1.59
2 -2 5 54.27 1.78
2 5 -2 53.86 1.77
-5 2 2 55.14 1.69
-2 2 5 52.8 1.79
5 -2 2 53.66 1.72
2 -5 2 54.77 1.74
2 -5 2 52.71 1.78
2 -2 -5 57.33 1.73
2 5 2 56.32 1.77
5 -2 -2 55.7 1.75
5 -2 -2 52.24 1.63
2 -5 -2 54.19 1.79
-2 -2 5 54.43 1.8
-5 -2 2 56.6 1.67
2 -5 -2 54.95 1.7
-5 2 -2 55.77 1.67
2 2 5 51.93 1.75
2 5 2 55.36 1.74
-2 -5 2 55.23 1.78
5 -2 -2 56.82 1.64
5 2 2 56.74 1.73
5 3 -2 28.07 1.01
5 -3 2 27.6 0.9
5 3 -2 28.03 0.95
-3 2 5 26.22 1.03
-5 -3 -2 27.67 0.91
2 5 -3 29.35 0.96
-2 -5 -3 27.37 1.04
3 -2 5 26.05 1
3 2 -5 28.39 1.04
5 3 -2 27.27 0.86
5 -3 2 27.27 0.99
2 -5 3 27.29 1.04
3 -2 -5 26.9 1.02
2 -5 -3 27.35 1.05
5 -3 -2 28.42 0.93
2 5 3 27.64 1.01
2 -5 -3 26.49 0.94
-5 -3 2 28.1 0.94
-3 -2 5 25.97 1.02
5 -3 -2 26.1 0.91
5 -3 -2 27.24 1.01
-2 -5 3 26.76 1.04
5 3 2 28.22 1
3 -2 -5 27.38 0.98
-2 -5 -4 5.36 0.44
5 4 -2 5.83 0.43
4 2 -5 5.39 0.44
5 4 -2 4.93 0.34
2 -5 4 4.82 0.44
2 5 -4 5.27 0.38
5 -4 2 5.17 0.44
5 -4 2 4.87 0.35
-5 -4 -2 4.79 0.35
4 -2 5 5.04 0.38
5 4 -2 5.1 0.37
-4 2 5 6.4 0.48
4 -2 -5 4.24 0.41
-2 -5 4 4.97 0.44
-4 -2 5 4.05 0.4
-5 -4 2 4.16 0.35
5 4 2 5.87 0.43
2 -5 -4 4.54 0.44
2 -5 -4 5.03 0.35
5 -4 -2 4.84 0.42
5 -4 -2 4.86 0.41
5 -4 -2 4.82 0.36
4 -2 -5 4.85 0.45
4 -2 -5 4.88 0.49
3 5 0 0.5 0.22
-5 0 3 0.55 0.17
3 -5 0 0.32 0.22
-3 -5 0 0.71 0.23
0 -3 -5 0.61 0.2
0 -3 5 0.74 0.26
0 3 5 0.41 0.25
5 0 -3 0.63 0.24
5 0 -3 0.6 0.15
5 0 -3 0.46 0.13
5 0 3 0.34 0.2
5 0 3 0.54 0.24
-5 0 -3 0.75 0.18
3 5 0 0.72 0.22
3 -5 0 0.38 0.21
3 5 -1 27.78 0.97
5 1 -3 27.5 0.96
3 5 -1 27.05 0.95
-5 -1 -3 27.2 0.88
5 1 -3 27.71 0.97
3 -5 1 25.63 0.96
5 -1 3 25.78 0.79
5 -1 3 26.68 0.93
5 1 -3 27.2 0.85
1 -3 5 24.65 1
-5 1 3 26.25 0.91
-3 -5 -1 27.04 0.98
-1 3 5 24.96 1.01
3 -5 1 25.13 0.96
-1 -3 5 26.62 1.02
5 1 3 26.22 0.88
-5 -1 3 27.61 0.91
-3 -5 1 25.26 0.96
3 -5 -1 25.46 0.93
3 -5 -1 24.97 0.97
5 -1 -3 26.68 0.97
5 1 3 25.43 0.91
1 -3 -5 27.15 0.91
5 -1 -3 24.85 0.86
1 -3 -5 25.04 1.02
5 -1 -3 27.29 0.87
3 5 1 27.83 0.95
-5 1 -3 26.25 0.89
3 5 1 27.29 0.96
5 -2 3 27.57 0.99
-5 2 3 28.3 0.98
-3 -5 -2 27.99 1.02
3 5 -2 28.97 1.03
-2 3 5 26.6 1.07
5 -2 3 26.08 0.87
-5 -2 -3 27.87 0.93
3 -5 2 26.35 1.01
2 -3 5 26.56 1.03
3 5 -2 27.88 0.98
5 2 -3 27.88 0.99
5 2 -3 28.81 0.9
5 2 -3 29.05 1.01
3 -5 2 28.01 1.01
5 -2 -3 25.61 0.92
3 5 2 29.44 1.01
3 5 2 27.12 1
5 -2 -3 28.44 0.94
-3 -5 2 27.38 1.02
5 2 3 26.88 0.97
2 -3 -5 26.85 1.05
2 -3 -5 28.74 0.98
3 -5 -2 25.6 1.01
5 -2 -3 27.4 1.02
-2 -3 5 28.35 1.06
3 -5 -2 26.66 0.97
-5 -2 3 28.3 0.96
3 5 -3 15.05 0.65
-5 3 3 14.42 0.64
-3 -5 -3 14.23 0.69
-3 3 5 12.76 0.69
5 -3 3 14.52 0.59
3 5 -3 14.54 0.72
5 3 -3 16.05 0.59
5 3 -3 16.16 0.68
3 -5 3 14.67 0.68
3 -3 5 14.15 0.67
3 3 -5 15.56 0.65
5 3 -3 14.52 0.63
5 -3 3 14.75 0.67
3 5 3 15.57 0.69
-3 -3 5 15.05 0.73
3 -3 -5 15.41 0.66
-5 -3 3 15.28 0.64
-3 -5 3 15.9 0.73
5 3 3 15.13 0.68
5 -3 -3 15.49 0.65
3 -5 -3 14.68 0.65
3 -5 -3 14.2 0.69
5 -3 -3 15.53 0.71
5 -3 -3 14.65 0.62
3 -3 -5 14.43 0.7
4 -3 5 1.31 0.26
4 3 -5 1.88 0.36
5 4 -3 1.84 0.31
3 -5 4 1.14 0.28
3 5 -4 2.28 0.31
4 3 -5 1.2 0.28
-5 -4 -3 1.32 0.25
5 -4 3 1.09 0.29
5 -4 3 1.29 0.24
-4 3 5 1.21 0.29
-3 -5 -4 1.3 0.3
5 4 -3 1.42 0.25
3 -5 -4 1.5 0.27
3 -5 -4 1.37 0.31
4 -3 -5 0.91 0.28
4 -3 -5 1.49 0.3
-4 -3 5 1.12 0.3
5 -4 -3 0.78 0.29
5 -4 -3 1.09 0.25
-5 -4 3 1.31 0.25
5 4 3 1.71 0.32
-3 -5 4 1.4 0.31
3 5 4 1.19 0.31
5 -4 -3 1.06 0.29
5 0 -4 37.87 1.26
-4 -5 0 38.96 1.31
0 -4 -5 39.35 1.23
0 -4 -5 36.41 1.38
0 -4 5 37.73 1.39
5 0 4 40.98 1.28
5 0 4 40.88 1.27
4 -5 0 38.78 1.32
-5 0 4 38.32 1.3
5 0 -4 42.11 1.28
4 5 0 39.46 1.28
4 5 0 38.38 1.33
4 -5 0 39.44 1.34
5 0 -4 40.1 1.34
5 1 -4 116.59 3.21
1 4 -5 114.76 3.22
-4 -5 -1 111.81 3.26
5 -1 4 107.67 3.15
-1 -4 -5 106.88 3.33
5 1 -4 109.01 3.27
1 -4 5 104.12 3.33
5 -1 4 108.98 3.23
-5 1 4 108.59 3.26
4 5 -1 111.09 3.27
4 -5 1 109.04 3.27
4 -5 1 105.09 3.26
4 5 -1 113.32 3.23
4 -5 -1 101.94 3.26
4 5 1 114.39 3.23
4 5 1 112.21 3.29
5 -1 -4 112.79 3.29
5 -1 -4 116.43 3.22
5 -1 -4 104.79 3.21
5 1 4 111.08 3.23
-4 -5 1 106.41 3.26
1 -4 -5 105.15 3.34
1 -4 -5 112.97 3.21
-5 -1 4 109.94 3.25
-1 -4 5 106.35 3.34
4 -5 -1 107.96 3.26
5 2 -4 5.14 0.4
5 2 -4 5.22 0.41
4 -5 2 4.8 0.37
5 -2 4 4.98 0.4
5 2 -4 5.68 0.37
4 -5 2 5.02 0.43
5 -2 4 5.07 0.33
-2 -4 -5 5.09 0.43
4 5 -2 4.27 0.4
-5 2 4 4.4 0.4
-4 -5 -2 4.69 0.41
4 5 -2 4.44 0.4
2 -4 5 3.94 0.45
2 4 -5 5.51 0.39
4 -5 -2 5.18 0.41
4 -5 -2 4.43 0.44
4 -5 -2 4.46 0.38
-2 -4 5 4.19 0.45
5 2 4 4.71 0.4
2 -4 -5 5.04 0.45
5 -2 -4 5.45 0.37
4 5 2 4.78 0.43
5 -2 -4 4.75 0.42
5 -2 -4 5.89 0.41
-5 -2 4 4.53 0.38
-4 -5 2 4.59 0.41
2 -4 -5 4.48 0.39
-5 3 4 1.25 0.29
5 3 -4 1.81 0.29
4 -5 3 1.28 0.29
-4 -5 -3 1.71 0.3
4 5 -3 1.77 0.31
-3 -4 -5 1.68 0.31
5 -3 4 1.19 0.24
4 5 -3 1.95 0.33
5 3 -4 1.74 0.28
3 -4 5 1.77 0.3
3 4 -5 1.72 0.28
5 -3 4 1.67 0.32
5 3 -4 1.7 0.3
4 -5 3 1.46 0.32
4 -5 -3 1.38 0.28
4 -5 -3 1.53 0.3
-4 -5 3 1.1 0.28
4 5 3 1.62 0.31
5 -3 -4 1.46 0.32
5 -3 -4 1.52 0.31
5 -3 -4 0.89 0.24
3 -4 -5 1.54 0.29
-3 -4 5 1.57 0.33
-5 -3 4 1.55 0.29
3 -4 -5 1.38 0.31
5 3 4 1.66 0.31
-5 -4 -4 202.3 5.97
4 5 -4 213.05 6.01
-4 -5 -4 208.96 6.03
5 -4 4 199.12 5.96
5 4 -4 219.14 5.97
5 4 -4 217.62 6.04
5 -4 4 201.8 6.01
4 -5 4 208.08 6.03
4 4 -5 214.18 6.01
4 -4 5 204.2 6.02
4 -4 -5 199.92 6.05
4 -4 -5 205.11 6
4 4 5 210.04 6.03
-5 -4 4 202.94 6.01
4 5 4 207.32 6.02
5 -4 -4 207.97 6.02
5 -4 -4 207.47 6.01
5 -4 -4 204.76 6
4 -5 -4 201.27 6.04
-4 -5 4 207.56 6.06
-4 -4 5 211.3 6.07
4 -5 -4 204.31 5.99
5 4 4 208.81 6.01
-5 -5 0 486.57 13.95
-5 0 5 489.27 13.99
0 -5 -5 501.8 13.87
0 -5 -5 497.61 14.08
0 -5 5 501.57 14.09
0 5 -5 499.9 13.88
5 -5 0 488.91 13.99
5 -5 0 474.2 13.94
5 0 -5 502.49 14
5 0 -5 540.45 13.97
5 0 5 472.15 13.88
5 5 0 479.62 13.84
5 5 0 511.13 13.88
5 5 0 508.08 14.01
-5 -5 -1 -0.07 0.19
5 5 -1 -0.27 0.17
5 5 -1 -0.1 0.25
-5 1 5 0.02 0.21
-1 -5 -5 0.19 0.24
5 -5 1 -0.04 0.25
5 5 -1 0.28 0.19
5 1 -5 0.03 0.22
1 -5 5 -0.07 0.24
1 5 -5 -0.13 0.19
5 -1 5 -0.04 0.17
5 -5 1 -0.16 0.18
5 1 -5 0.27 0.25
-1 -5 5 -0.14 0.24
5 -5 -1 -0.41 0.25
5 -1 -5 0.29 0.25
5 -1 -5 0.22 0.26
5 -1 -5 0.09 0.19
5 -5 -1 0.03 0.25
1 -5 -5 -0.01 0.26
5 -5 -1 0.25 0.2
5 1 5 0.14 0.24
1 -5 -5 0.12 0.22
-5 -5 1 0.16 0.2
-5 -1 5 0.03 0.22
5 5 1 0.27 0.25
-5 -5 -2 68.85 2.13
5 5 -2 69.83 2.08
5 5 -2 68.07 2.17
-5 2 5 67.24 2.18
-2 -5 -5 68.26 2.23
5 2 -5 70.11 2.18
5 -2 5 70.33 2.1
5 2 -5 68.4 2.16
2 -5 5 64.71 2.21
2 5 -5 69.73 2.1
5 -5 2 65.36 2.12
5 -5 2 66.29 2.16
5 2 -5 72.63 2.14
5 -5 -2 69.29 2.15
5 -5 -2 63.61 2.14
5 -2 -5 67.66 2.17
5 -2 -5 72 2.16
5 -2 -5 66.06 2.14
2 -5 -5 66.79 2.09
2 -5 -5 65.83 2.23
5 -5 -2 66.97 2.14
-2 -5 5 69.8 2.25
5 2 5 67.61 2.12
-5 -5 2 69.3 2.14
-5 -2 5 65.95 2.16
5 5 2 67.05 2.17
-5 -5 -3 31.35 1.13
5 5 -3 32.61 1.18
5 -3 5 29.88 1.11
-5 3 5 30.19 1.2
-3 -5 -5 32.46 1.22
5 -5 3 30.5 1.16
5 5 -3 32.29 1.11
5 3 -5 33.21 1.16
3 -5 5 29.18 1.18
3 5 -5 31.47 1.12
5 -5 3 31.17 1.13
5 3 -5 32.16 1.17
5 -5 -3 32.78 1.29
-3 -5 5 30.9 1.22
5 -5 -3 30.52 1.16
5 -3 -5 31.67 1.17
5 -3 -5 28.63 1.15
5 -3 -5 30.54 1.15
-5 -3 5 32.15 1.18
3 -5 -5 30.61 1.23
5 -5 -3 29.65 1.14
5 3 5 31.08 1.14
3 -5 -5 30.95 1.12
-5 -5 3 31.37 1.16
5 5 3 30.76 1.17
-5 -5 -4 93.48 2.87
5 4 -5 95.11 2.88
5 4 -5 93.28 2.89
-4 -5 -5 91.78 2.92
5 5 -4 99.34 2.87
5 5 -4 94.43 2.9
5 -5 4 92.98 2.91
4 -5 5 90.6 2.91
4 5 -5 94.96 2.88
5 -5 4 91.2 2.87
5 -4 5 93.3 2.87
5 -5 -4 91.81 2.91
4 -5 -5 90.98 2.95
4 5 5 92.54 2.91
5 -4 -5 93.94 2.9
5 -4 -5 88.53 2.89
5 -5 -4 92.38 2.89
-5 -5 4 98.25 2.94
-5 -4 5 97.83 2.94
5 4 5 92.82 2.89
-4 -5 5 95.59 2.97
4 -5 -5 92.22 2.87
5 5 4 91.76 2.9
-5 -5 -5 145.64 4.4
5 5 -5 153.84 4.42
5 -5 5 143.75 4.38
5 -5 -5 146.69 4.43
5 -5 -5 147.23 4.4
-5 -5 5 146.4 4.44
5 5 5 148.05 4.42
0 -6 0 892.84 26.84
0 0 6 946.11 26.87
0 6 0 982.58 26.74
6 0 0 985.28 26.76
6 0 0 1000 26.76
6 1 0 31.16 1.03
6 1 0 31.27 1.05
-6 1 0 29.85 0.9
-1 0 6 28.9 1.14
0 -6 -1 29.85 0.98
0 -6 -1 28.94 1.12
0 -6 1 30.52 1.13
0 6 -1 28.82 0.99
0 6 1 29.9 1.03
1 0 6 28.33 1.11
6 -1 0 30.16 1.05
6 -1 0 30.13 1.01
6 -2 0 1.29 0.28
6 -2 0 1.05 0.22
6 2 0 1 0.27
-6 -2 0 0.88 0.12
-6 2 0 0.89 0.2
-2 0 6 0.63 0.27
0 -6 -2 1.06 0.2
0 -6 -2 0.57 0.27
0 -6 2 0.92 0.26
2 0 6 0.84 0.27
6 2 0 0.9 0.24
6 -3 0 20.37 0.63
0 -6 -3 20.71 0.89
0 -6 3 19.32 0.87
6 3 0 20.08 0.74
-3 0 6 19.54 0.86
0 -6 -3 19.56 0.73
6 -3 0 20.2 0.82
6 3 0 20.26 0.82
3 0 -6 19.52 0.8
3 0 6 18.72 0.8
0 -6 -4 -0.2 0.25
0 -6 4 0.18 0.26
-6 -4 0 -0.06 0.16
6 4 0 0.31 0.19
0 -6 -4 -0.07 0.18
-4 0 6 0.21 0.26
6 4 0 -0.34 0.23
0 6 -4 -0.01 0.19
4 0 -6 -0.17 0.23
4 0 6 0.08 0.21
6 -4 0 0.21 0.23
6 -4 0 0.25 0.17
6 -4 0 -0.05 0.15
6 5 0 202.35 5.99
5 0 -6 209.32 6
0 -6 -5 209 6.09
0 6 -5 212.87 5.86
6 5 0 210.09 5.83
0 -6 -5 203.43 5.83
5 0 6 198.89 5.9
0 -6 5 200.75 6.08
-5 0 6 210.34 6.22
6 -5 0 217.78 5.9
6 -5 0 198.32 5.89
-6 -5 0 199.68 5.9
6 -5 0 201.94 5.99
1 -6 0 29.92 1.02
0 -1 6 30.32 1.14
-6 0 1 28.65 0.9
6 0 1 29.9 1.02
-6 0 1 30.84 0.91
6 0 1 30.07 1.02
6 0 -1 31.66 1.05
6 0 -1 29.46 1.05
1 6 0 31.01 1.03
-1 -6 0 28.38 1.11
1 -6 0 28.76 1.11
0 1 6 29.95 1.14
1 -1 6 1.96 0.34
6 -1 1 1.97 0.29
6 1 -1 2.14 0.3
-6 1 1 2.04 0.21
6 1 -1 2.55 0.31
-6 1 1 1.66 0.23
1 6 -1 2.35 0.26
-1 -6 -1 2.14 0.31
1 -6 1 1.94 0.32
-1 1 6 1.91 0.33
6 -1 1 2.26 0.29
-6 1 -1 2.02 0.19
1 -6 -1 2.15 0.3
1 -6 -1 2.09 0.33
-1 -6 1 1.62 0.3
-1 -1 6 2.06 0.33
6 -1 -1 2.31 0.29
1 6 1 2.06 0.29
6 1 1 2.39 0.3
6 -1 -1 1.92 0.29
6 1 1 2.52 0.31
-6 -1 1 2.01 0.17
1 1 6 2.27 0.33
6 -2 1 2.84 0.34
-2 1 6 2.41 0.36
2 -1 6 1.9 0.31
-1 -6 -2 2.64 0.36
1 6 -2 2.57 0.3
-6 2 1 2.92 0.35
6 2 -1 2.52 0.33
6 2 -1 2.9 0.31
1 -6 2 2.29 0.34
1 6 2 2.78 0.33
6 2 1 2.33 0.29
6 2 1 2.66 0.36
6 -2 -1 2.86 0.3
-2 -1 6 2.01 0.34
-6 2 -1 2.11 0.24
6 -2 -1 2.75 0.34
2 -1 -6 2.58 0.32
-6 -2 1 2.09 0.21
-1 -6 2 2.21 0.36
1 -6 -2 2.87 0.29
1 -6 -2 2.25 0.34
2 1 6 1.72 0.3
6 -3 1 0.38 0.24
1 -6 3 0.45 0.29
6 -3 1 0.29 0.1
-3 1 6 0.42 0.29
3 -1 6 0.65 0.23
1 6 -3 0.68 0.21
-1 -6 -3 0.26 0.25
6 3 -1 0.5 0.23
6 3 -1 0.45 0.23
1 -6 -3 0.38 0.26
1 -6 -3 0.37 0.2
-1 -6 3 0.52 0.27
-3 -1 6 0.51 0.24
3 -1 -6 0.38 0.25
6 3 1 0.68 0.19
6 3 1 0.02 0.24
-6 -3 1 0.51 0.16
6 -3 -1 0.52 0.13
6 -3 -1 0.3 0.24
3 1 6 0.27 0.22
-6 -4 -1 133.09 3.8
6 4 -1 133.91 3.81
4 1 -6 129.78 3.9
4 -1 6 128.69 3.89
6 -4 1 130.85 3.78
6 -4 1 132.79 3.92
1 -6 4 126.41 3.99
6 4 -1 136.72 3.93
1 6 -4 134.76 3.82
-4 1 6 128.49 3.95
-1 -6 -4 133.7 4
6 -4 -1 129.74 3.91
1 -6 -4 127.49 3.99
4 1 6 127.63 3.87
6 4 1 132.64 3.76
4 -1 -6 136.55 3.92
6 -4 -1 128.55 3.79
-1 -6 4 130.05 3.99
6 4 1 132.03 3.91
-6 -4 1 129.03 3.81
-4 -1 6 126.32 3.94
6 -4 -1 137.46 3.8
1 -6 -4 132.83 3.81
6 -5 1 11.69 0.57
-1 -6 -5 12.9 0.74
5 1 -6 11.37 0.7
1 -6 5 12.66 0.73
1 6 -5 14.06 0.58
6 5 -1 13.01 0.57
6 5 -1 12.87 0.5
6 5 -1 11.81 0.66
5 1 -6 12.02 0.67
5 -1 6 12.65 0.6
-6 -5 -1 12.18 0.59
-5 1 6 12.14 0.67
6 -5 1 11.97 0.7
5 -1 -6 13.62 0.69
1 -6 -5 11.68 0.72
5 -1 -6 12.38 0.66
6 -5 -1 11.91 0.7
6 -5 -1 11.93 0.62
6 -5 -1 11.75 0.57
-1 -6 5 12.13 0.73
1 -6 -5 12.42 0.57
-5 -1 6 13.56 0.92
6 5 1 12.05 0.66
-6 -5 1 12.07 0.6
2 -6 0 0.62 0.25
0 2 6 0.59 0.26
6 0 -2 0.7 0.24
6 0 2 0.98 0.24
6 0 2 1.04 0.23
6 0 -2 0.85 0.26
2 -6 0 1.08 0.25
-2 -6 0 0.62 0.25
2 6 0 0.5 0.23
-6 0 -2 0.88 0.13
-6 0 2 0.92 0.18
0 -2 6 0.81 0.28
-1 2 6 2.23 0.34
2 -6 1 2.66 0.34
2 -6 1 2.1 0.33
-6 1 2 2.07 0.25
-6 1 2 3.02 0.36
2 6 -1 2.3 0.29
6 -1 2 2.14 0.3
6 1 -2 2.64 0.33
6 1 -2 2.72 0.32
-2 -6 -1 2.51 0.35
1 -2 6 1.99 0.33
1 2 6 1.91 0.34
2 -6 -1 2.51 0.33
1 -2 -6 3.28 0.33
-6 1 -2 2.31 0.25
6 1 2 2.88 0.31
6 1 2 2.5 0.3
2 -6 -1 2.5 0.36
6 -1 -2 2.39 0.34
2 6 1 2.69 0.32
-2 -6 1 2.18 0.33
-1 -2 6 2.42 0.35
-6 -1 2 2.18 0.26
6 -1 -2 2.69 0.36
-6 2 2 29.6 1
2 -6 2 28.4 1.12
2 6 -2 30.1 1.03
2 -2 6 28.61 1.11
6 -2 2 30.07 1.06
-2 2 6 28.04 1.14
6 2 -2 29.36 1.07
-2 -6 -2 29.39 1.12
6 2 -2 30.13 1.04
6 -2 -2 30.64 1.09
-2 -6 2 28.36 1.11
-6 -2 2 29.38 0.97
6 -2 -2 29.13 0.89
-2 -2 6 29.74 1.16
2 -6 -2 28.62 1.02
2 -6 -2 29.53 1.14
6 2 2 30.74 1.06
6 2 2 30.08 0.97
2 -2 -6 30.51 1.05
2 6 2 30.2 1.07
2 2 6 29.17 1.12
2 -6 3 35.92 1.36
2 6 -3 39.19 1.26
6 3 -2 37.39 1.26
-2 -6 -3 36.99 1.36
6 3 -2 38.41 1.32
3 -2 6 37.28 1.33
-3 2 6 36.35 1.37
-6 -3 -2 38.81 1.19
6 -3 2 37.69 1.14
6 -3 2 37.82 1.31
2 6 3 37.25 1.31
6 -3 -2 38.56 1.35
6 -3 -2 38.92 1.19
3 2 6 37.69 1.32
2 -6 -3 37.45 1.25
6 3 2 39.34 1.32
-3 -2 6 37.99 1.37
3 -2 -6 37.79 1.3
2 -6 -3 36.83 1.37
6 -3 -2 36.73 1.18
-2 -6 3 36.42 1.36
-6 -3 2 37.58 1.22
6 4 -2 31.58 1.09
2 6 -4 34.3 1.11
-4 2 6 31.06 1.23
4 -2 6 31.18 1.15
2 -6 4 29.82 1.21
6 4 -2 31.35 1.17
-6 -4 -2 30.3 1.06
6 -4 2 31.79 1.04
6 -4 2 31.36 1.17
-2 -6 -4 31.2 1.22
2 -6 -4 30.2 1.23
-6 -4 2 32.55 1.1
-4 -2 6 29.77 1.19
2 -6 -4 31 1.09
6 4 2 34.19 1.19
4 -2 -6 33.06 1.18
4 -2 -6 30.63 1.2
6 -4 -2 31.02 1.18
6 -4 -2 31.51 1.08
6 -4 -2 29.68 1.06
-2 -6 4 31.63 1.23
-6 -5 -2 2.45 0.31
5 2 -6 2.98 0.4
5 2 -6 2.93 0.44
-5 2 6 2.61 0.44
5 -2 6 2.7 0.37
6 -5 2 2.01 0.29
-2 -6 -5 2.16 0.39
2 -6 5 2.35 0.4
6 5 -2 2 0.37
6 5 -2 2.75 0.34
6 5 -2 2.55 0.3
6 -5 2 2.79 0.41
2 6 -5 2.84 0.37
6 -5 -2 3.09 0.43
2 -6 -5 2.32 0.4
-5 -2 6 2.48 0.41
2 -6 -5 2.82 0.38
-2 -6 5 2.86 0.43
6 -5 -2 3.19 0.39
6 -5 -2 2.96 0.37
6 5 2 2.73 0.4
5 -2 -6 2.47 0.37
-6 -5 2 2.29 0.33
5 -2 -6 2.49 0.41
6 0 3 20.1 0.76
0 -3 6 20.34 0.91
6 0 -3 20.33 0.8
3 -6 0 18.71 0.78
3 -6 0 18.64 0.83
0 -3 -6 20.86 0.74
-3 -6 0 20.04 0.83
6 0 3 20.66 0.75
3 6 0 20.75 0.81
-6 0 -3 19.26 0.69
-6 0 3 20.09 0.73
0 3 6 18.09 0.86
6 0 -3 20.53 0.82
3 6 0 20.15 0.84
6 0 -3 18.98 0.62
6 1 -3 0.56 0.23
-6 -1 -3 0.54 0.19
3 6 -1 0.23 0.3
6 -1 3 0.43 0.22
3 6 -1 0.66 0.25
6 1 -3 0.49 0.09
-1 -3 -6 0.46 0.18
3 -6 1 0.52 0.25
3 -6 1 0.2 0.25
-1 3 6 0.56 0.27
-3 -6 -1 0.52 0.23
1 -3 6 0.77 0.28
-6 1 3 0.56 0.19
6 1 -3 0.41 0.23
-6 -1 3 0.31 0.17
3 6 1 0.43 0.29
6 -1 -3 0.31 0.12
3 6 1 0.79 0.25
-1 -3 6 -0.05 0.27
1 3 6 0.64 0.26
3 -6 -1 0.46 0.25
3 -6 -1 0.14 0.23
6 -1 -3 0.2 0.24
1 -3 -6 0.35 0.21
6 1 3 0.72 0.25
6 1 3 0.54 0.19
6 2 -3 36.91 1.27
6 -2 3 37.48 1.29
-2 3 6 35.45 1.37
6 -2 3 37.37 1.07
3 -6 2 36.2 1.33
-6 2 3 37.73 1.25
2 -3 6 37.42 1.36
6 2 -3 37.99 1.3
-3 -6 -2 38.1 1.34
3 -6 2 35.87 1.3
6 2 -3 37.26 1.11
3 6 -2 37.31 1.27
3 6 2 38.3 1.31
3 6 2 36.49 1.31
3 -6 -2 36.55 1.34
6 -2 -3 38.33 1.32
6 -2 -3 39.05 1.18
6 2 3 37.19 1.27
2 -3 -6 36.85 1.36
6 -2 -3 36.33 1.17
6 2 3 37.12 1.17
-2 -3 6 36.71 1.37
-6 -2 3 37.9 1.23
-3 -6 2 36.87 1.34
2 -3 -6 38.11 1.27
3 -6 -2 37.74 1.27
-3 3 6 8.59 0.58
6 -3 3 8.41 0.55
6 3 -3 8.01 0.51
3 -3 6 8.74 0.58
-3 -6 -3 8.03 0.53
6 3 -3 7.55 0.36
3 -6 3 7.48 0.53
3 6 -3 8.51 0.5
6 3 -3 8.33 0.52
6 -3 3 8.27 0.38
6 -3 -3 8.23 0.45
6 3 3 8.12 0.51
-6 -3 3 8.04 0.47
3 -3 -6 6.96 0.57
6 -3 -3 8.26 0.55
3 -6 -3 8.64 0.52
6 -3 -3 8.26 0.43
3 -3 -6 8.73 0.51
-3 -6 3 8.46 0.55
-3 -3 6 9.15 0.59
3 -6 -3 8.7 0.59
3 6 3 8.56 0.53
-3 -6 -4 32.26 1.21
6 -4 3 30.42 1.17
-4 3 6 31.62 1.25
4 -3 6 31.56 1.18
4 3 -6 33.72 1.18
6 4 -3 33.02 1.03
6 -4 3 29.86 1.05
3 -6 4 30.02 1.22
3 6 -4 32.16 1.14
6 4 -3 30.54 1.17
6 4 -3 31.33 1.12
-6 -4 -3 31.19 1.09
6 4 3 29.61 1.15
6 -4 -3 30.67 1.09
3 6 4 30.8 1.17
6 -4 -3 33.51 1.13
-6 -4 3 30.94 1.12
6 -4 -3 29.6 1.18
-4 -3 6 30.71 1.21
4 -3 -6 31.42 1.22
3 -6 -4 29.89 1.22
-3 -6 4 31.53 1.23
3 -6 -4 31.05 1.13
4 -3 -6 31.46 1.16
6 5 -3 67.02 2.1
6 5 -3 69.6 2.21
-3 -6 -5 68.26 2.25
5 3 -6 69.41 2.19
-5 3 6 68.58 2.25
5 -3 6 68.65 2.15
6 -5 3 58.11 2.27
-6 -5 -3 65.59 2.11
6 5 -3 72.47 2.07
3 -6 5 65.9 2.24
6 -5 3 67.14 2.1
3 6 -5 67.27 2.13
6 -5 -3 68.3 2.15
-6 -5 3 68.54 2.16
5 -3 -6 66.53 2.18
-3 -6 5 66.42 2.27
3 -6 -5 68.57 2.13
3 -6 -5 66.53 2.26
-5 -3 6 68.08 2.23
6 5 3 64.83 2.18
6 -5 -3 66.54 2.13
6 -5 -3 65.93 2.21
5 -3 -6 63.88 2.18
6 0 -4 0 0.25
6 0 -4 -0.06 0.14
-6 0 4 0.13 0.2
4 6 0 0.25 0.23
4 -6 0 -0.19 0.22
4 -6 0 0.14 0.23
-4 -6 0 0.1 0.2
0 -4 -6 -0.2 0.18
0 -4 -6 0.27 0.27
4 6 0 0.08 0.24
6 0 4 0.02 0.22
0 -4 6 -0.18 0.28
6 0 4 0.26 0.23
6 0 -4 -0.14 0.16
6 -1 4 132.52 3.89
6 1 -4 130.36 3.94
4 6 -1 136.26 3.91
6 1 -4 130.2 3.81
-6 1 4 130.43 3.9
-4 -6 -1 131.9 3.95
4 6 -1 132.39 3.94
1 -4 6 129.14 4.02
-1 -4 -6 136.49 3.81
-1 -4 -6 132.46 4.02
4 -6 1 128.99 3.93
6 1 -4 138.94 3.81
6 1 -4 139.28 3.97
6 -1 4 120.66 3.83
4 -6 1 128.58 3.95
6 -1 -4 130.89 3.95
-1 -4 6 133.4 4.04
4 6 1 130.23 3.94
6 1 4 135.68 3.84
1 -4 -6 127.46 4.02
-6 -1 4 134.64 3.9
4 -6 -1 131.78 3.93
4 -6 -1 131.74 3.96
6 -1 -4 137.8 3.84
6 -1 -4 130.01 3.83
-4 -6 1 131.11 3.95
1 -4 -6 134.78 3.87
4 6 1 140.79 3.91
6 1 4 136 3.89
6 -2 4 31.23 0.99
4 -6 2 30.28 1.16
2 4 -6 32.85 1.11
-6 2 4 31.76 1.14
-4 -6 -2 31.2 1.17
4 -6 2 29.49 1.14
6 2 -4 31.56 1.16
6 -2 4 30.87 1.14
4 6 -2 32.54 1.16
6 2 -4 32.62 1.15
2 -4 6 30.3 1.2
6 2 -4 32.41 1.03
4 6 -2 32.21 1.16
4 -6 -2 29.76 1.18
4 6 2 30.83 1.16
6 -2 -4 29.54 1.16
6 -2 -4 31.7 1.08
2 -4 -6 31.11 1.24
6 -2 -4 30.08 1.06
-4 -6 2 29.95 1.17
-2 -4 6 30.95 1.25
6 2 4 31.96 1.13
-6 -2 4 31.06 1.11
4 -6 -2 30.01 1.13
6 2 4 31.55 1.02
2 -4 -6 33.37 1.12
4 6 -3 30.42 1.13
6 3 -4 32.81 1.05
-6 3 4 30.64 1.15
6 3 -4 31.26 1.14
4 -6 3 30.1 1.18
3 4 -6 32.5 1.13
-4 -6 -3 31.24 1.17
6 3 -4 31.21 1.16
6 -3 4 29.56 1.14
-3 4 6 30.6 1.25
4 -6 3 28.48 1.14
6 -3 4 29.49 1.02
3 -4 6 29.03 1.18
3 -4 -6 30.97 1.12
-3 -4 6 30.52 1.23
4 6 3 30.81 1.16
6 -3 -4 30.14 1.08
6 -3 -4 32.77 1.11
-4 -6 3 31.92 1.2
6 3 4 31.5 1.14
3 -4 -6 29.24 1.2
6 -3 -4 31.41 1.18
-6 -3 4 31.4 1.13
4 -6 -3 29.99 1.12
4 -6 -3 30.17 1.2
6 4 -4 11.43 0.57
6 4 -4 11.41 0.61
6 -4 4 11.03 0.7
6 -4 4 11.89 0.56
4 6 -4 11.76 0.62
-6 -4 -4 11.22 0.59
6 4 -4 11.44 0.65
4 -4 6 10.89 0.67
4 4 -6 12.38 0.63
4 -6 4 10.3 0.64
-4 4 6 11.17 0.73
-4 -6 -4 11.03 0.65
6 4 4 11.06 0.64
-4 -6 4 10.57 0.67
6 -4 -4 11.47 0.59
4 -4 -6 11.81 0.72
4 -6 -4 11.46 0.68
-4 -4 6 12.04 0.71
-6 -4 4 12.01 0.65
4 -6 -4 11 0.61
6 -4 -4 11.31 0.67
6 -4 -4 10.94 0.65
4 6 4 11.58 0.68
4 -4 -6 11.12 0.63
-6 -5 -4 10.07 0.6
6 -5 4 9.41 0.67
4 -6 5 10.43 0.69
4 6 -5 11.3 0.61
6 5 -4 10.66 0.61
6 -5 4 10.02 0.56
6 5 -4 9.25 0.65
-4 -6 -5 10.22 0.65
5 4 -6 10.15 0.61
-5 4 6 8.99 0.66
5 -4 6 9.71 0.63
5 -4 -6 9.31 0.72
6 -5 -4 9.58 0.75
6 -5 -4 9.38 0.62
-4 -6 5 8.82 0.71
5 -4 -6 10.53 0.69
4 -6 -5 8.63 0.66
-5 -4 6 10.91 0.67
6 5 4 10.61 0.65
4 6 5 9.62 0.67
-6 -5 4 10.3 0.65
4 -6 -5 10.08 0.61
0 5 -6 215.58 5.85
6 0 -5 200.21 5.88
6 0 5 212.22 5.87
6 0 -5 217.18 5.89
5 6 0 203.82 5.97
0 -5 6 194.17 6.05
5 6 0 200.66 5.79
6 0 -5 198.85 5.96
-6 0 5 200.21 5.94
-5 -6 0 202.29 5.94
5 6 0 214.35 5.88
5 -6 0 199.02 5.96
5 -6 0 201.31 5.95
0 -5 -6 212.69 6.09
0 -5 -6 203.54 5.83
-1 -5 -6 11.82 0.72
-6 1 5 12.69 0.66
5 -6 1 10.92 0.65
6 -1 5 12.22 0.51
6 1 -5 12.2 0.67
6 1 -5 13.7 0.61
5 6 -1 11.78 0.65
-1 -5 -6 12.91 0.52
1 -5 6 11.95 0.72
5 -6 1 12.03 0.64
5 6 -1 11.61 0.59
1 5 -6 13.85 0.59
-5 -6 -1 12.93 0.65
6 -1 -5 13 0.69
6 1 5 12.45 0.62
5 -6 -1 11.43 0.64
5 6 1 12.24 0.68
-1 -5 6 12.05 0.73
1 -5 -6 13.38 0.59
1 -5 -6 11.48 0.72
6 -1 -5 12.13 0.59
-5 -6 1 11.46 0.64
5 -6 -1 11.72 0.65
-6 -1 5 11.64 0.64
6 -1 -5 13.57 0.63
-2 -5 -6 2.2 0.41
5 6 -2 2.81 0.39
5 -6 2 2.49 0.35
-6 2 5 2.45 0.38
-5 -6 -2 2.08 0.32
6 2 -5 2.31 0.36
2 5 -6 2.58 0.36
6 2 -5 2.24 0.36
6 2 -5 2.42 0.33
6 -2 5 2.54 0.3
2 -5 6 2.17 0.39
5 -6 2 2.39 0.4
5 6 -2 2.38 0.36
5 -6 -2 3.26 0.41
6 2 5 2.81 0.39
-2 -5 6 2.51 0.42
2 -5 -6 2.77 0.35
-5 -6 2 2.42 0.37
5 6 2 2.3 0.39
6 -2 -5 2.3 0.39
5 -6 -2 2.59 0.37
6 -2 -5 2.6 0.32
2 -5 -6 2.63 0.44
-6 -2 5 2.43 0.35
6 -2 -5 2.14 0.37
3 5 -6 70.33 2.15
6 -3 5 67.49 2.08
6 3 -5 68.01 2.18
6 3 -5 72.42 2.12
6 3 -5 65.19 2.19
-5 -6 -3 66.82 2.17
5 -6 3 68.12 2.19
3 -5 6 66.95 2.25
-3 -5 -6 67.46 2.24
-6 3 5 66.96 2.2
5 6 -3 67.99 2.19
5 6 -3 66.87 2.15
6 -3 -5 57.99 2.27
5 6 3 68.05 2.21
-6 -3 5 68.13 2.18
5 -6 -3 65.83 2.19
6 3 5 69.02 2.17
-5 -6 3 68.29 2.21
5 -6 -3 65.23 2.17
3 -5 -6 64.65 2.26
6 -3 -5 71.66 2.17
6 -3 -5 65.13 2.13
3 -5 -6 67.69 2.14
-3 -5 6 68.27 2.28
-5 -6 -4 8.96 0.6
6 4 -5 9.81 0.63
6 4 -5 11.46 0.65
-4 -5 -6 10.38 0.65
6 -4 5 9.34 0.56
6 4 -5 10.25 0.61
4 -5 6 9.1 0.67
5 6 -4 10.31 0.62
5 -6 4 10.37 0.64
4 5 -6 9.51 0.57
6 4 5 9.9 0.67
-4 -5 6 9.85 0.69
4 -5 -6 9.35 0.63
4 -5 -6 9.89 0.67
6 -4 -5 9.62 0.61
-5 -6 4 9.51 0.64
5 -6 -4 9.1 0.62
5 -6 -4 9.55 0.66
6 -4 -5 10.02 0.67
-6 -4 5 10.58 0.62
5 6 4 8.86 0.66
-6 -5 -5 197.68 5.72
6 -5 5 192 5.68
-5 -6 -5 198.24 5.77
6 5 -5 192.72 5.75
-5 -5 -6 202.23 5.78
5 6 -5 195.53 5.74
6 5 -5 200.98 5.68
5 -5 6 198.42 5.75
5 -6 5 196.99 5.76
5 5 -6 196.81 5.74
5 -5 -6 190.04 5.79
5 -6 -5 190.61 5.79
5 -5 -6 203.28 5.75
-5 -5 6 198.46 5.82
5 6 5 175.92 5.87
6 -5 -5 202.49 5.78
6 -5 -5 192.82 5.74
-6 -5 5 199.55 5.78
5 -6 -5 186.91 5.85
-5 -6 5 197.65 5.81
6 5 5 184.18 5.73
-6 -6 0 104.39 3.19
-6 0 6 102.64 3.24
0 -6 -6 105.51 3.09
0 -6 -6 106.94 3.36
0 -6 6 102.7 3.35
0 6 -6 108.02 3.1
6 -6 0 103.63 3.19
6 0 -6 97.07 3.36
6 0 -6 111.49 3.21
6 0 -6 107.32 3.2
6 6 0 107.55 3.07
6 6 0 107 3.26
-6 -6 -1 38.06 1.35
6 6 -1 37.24 1.41
6 -1 6 38.08 1.27
-6 1 6 37.67 1.41
-1 -6 -6 36.73 1.2
-1 -6 -6 37.45 1.48
6 6 -1 39.39 1.26
6 1 -6 35.26 1.49
6 1 -6 40.78 1.37
1 -6 6 36.99 1.48
1 6 -6 40.37 1.3
6 6 -1 38.25 1.25
6 -6 1 38.11 1.34
6 -6 1 37.08 1.42
6 -6 -1 36.46 1.34
6 -6 -1 38.44 1.4
6 -1 -6 40.7 1.39
6 -1 -6 40.13 1.37
-6 -1 6 39.43 1.4
1 -6 -6 38.82 1.28
1 -6 -6 37.11 1.51
6 -1 -6 37.53 1.42
-1 -6 6 37.88 1.49
-6 -6 1 38.97 1.36
6 6 1 36.63 1.4
-6 -6 -2 24.03 0.99
6 6 -2 25.21 0.91
6 6 -2 24.21 1.03
-6 2 6 23.69 1.05
-2 -6 -6 22.42 1.07
6 2 -6 24.76 1.02
6 6 -2 24.82 0.91
6 2 -6 25.89 1.04
2 -6 6 24.56 1.12
2 6 -6 25.51 1.01
6 -2 6 24.72 0.93
6 -6 2 24.7 0.97
6 2 -6 26.1 1.01
6 -6 2 23.83 1.04
6 -6 -2 25.46 1.05
6 -2 -6 24.78 1.05
6 -2 -6 22.46 1.03
6 -2 -6 23.59 1
6 -6 -2 23.59 1.04
2 -6 -6 23.03 1.1
6 -6 -2 23.69 0.98
-2 -6 6 23.93 1.11
2 -6 -6 23.87 0.93
-6 -6 2 23.26 0.99
-6 -2 6 24.23 1.04
6 6 2 23.49 1.02
-6 -6 -3 64.19 2.03
6 3 -6 62.01 2.04
6 3 -6 63.27 2.03
-6 3 6 62.02 2.09
-3 -6 -6 60.71 2.11
6 6 -3 63.39 1.96
6 6 -3 59.91 2.06
6 3 -6 59.62 2.05
3 -6 6 61.54 2.12
3 6 -6 62.7 2.01
6 -3 6 62.46 1.97
6 -6 3 59.57 1.99
6 -6 3 61.35 2.06
6 -6 -3 60.38 2.02
6 -3 -6 62.13 2.07
6 -3 -6 62.02 2.03
6 -6 -3 61.01 2.06
-6 -6 3 62.62 2.04
-6 -3 6 60.74 2.07
3 -6 -6 60.45 2.14
6 3 6 61.44 2.03
-3 -6 6 60.01 2.14
3 -6 -6 60.8 1.99
6 6 3 58.31 2.05
-6 -6 -4 10.05 0.63
6 4 -6 10.39 0.72
6 4 -6 7.89 0.7
-6 4 6 9.38 0.71
-4 -6 -6 9.14 0.66
6 6 -4 7.65 0.62
6 -6 4 9.55 0.68
6 -6 4 8.51 0.59
4 -6 6 8.26 0.65
4 6 -6 8.03 0.56
6 -4 6 9.12 0.57
6 6 -4 8.26 0.63
4 -6 -6 8.89 0.63
4 -6 -6 8.22 0.68
6 -6 -4 9.15 0.63
6 -4 -6 8.22 0.63
6 -6 -4 8.29 0.64
-6 -6 4 8.57 0.66
-6 -4 6 9.9 0.66
6 4 6 8.45 0.68
6 -4 -6 10.13 0.67
-4 -6 6 8.46 0.7
-6 -6 -5 115.29 3.51
6 -6 5 114.68 3.49
-6 -5 -6 115.72 3.52
6 -5 6 115.33 3.48
-5 -6 -6 114.55 3.55
6 5 -6 111.54 3.52
6 6 -5 109.07 3.53
5 6 -6 111.73 3.51
5 -6 6 113.36 3.54
5 -6 -6 115.5 3.59
6 -6 -5 112.28 3.51
6 -6 -5 112.68 3.53
-6 -6 5 115.71 3.56
6 -5 -6 116.12 3.54
6 -5 -6 114.91 3.54
-6 -5 6 112.04 3.55
-5 -6 6 116.24 3.6
6 5 6 107.29 3.53
5 -6 -6 112.85 3.49
6 6 5 107.49 3.52
-6 -6 -6 35.62 1.39
6 6 -6 33.37 1.35
6 -6 6 34.21 1.34
6 -6 -6 35.71 1.41
6 -6 -6 35.73 1.39
-6 -6 6 33.08 1.4
6 6 6 32.73 1.37
-7 0 0 1.57 0.1
-7 0 0 1.87 0.11
0 -7 0 1.71 0.33
0 0 7 1.86 0.39
0 7 0 2.18 0.3
7 0 0 1.79 0.29
7 0 0 1.8 0.3
7 1 0 164.63 4.7
7 1 0 169.52 4.73
7 -1 0 160.15 4.72
7 -1 0 168.76 4.69
0 7 1 167.15 4.71
1 0 7 159.76 4.82
0 -7 1 151.36 4.81
0 7 -1 166.66 4.67
0 -7 -1 162.07 4.66
0 -7 -1 157.25 4.82
-7 1 0 161.69 4.56
-1 0 7 154.16 4.83
0 -7 -2 136.14 3.9
-7 -2 0 131.42 3.8
7 2 0 136.25 3.94
7 2 0 138.25 4.01
7 -2 0 133.4 4.01
7 -2 0 137.26 3.93
0 7 -2 137.33 3.91
2 0 7 133.77 4.08
-2 0 7 135.55 4.12
0 -7 -2 133.75 4.1
0 -7 2 134.75 4.11
0 -7 -3 6.06 0.56
0 -7 3 6.42 0.56
0 7 -3 7.06 0.4
7 3 0 7.45 0.46
-7 -3 0 6.44 0.33
-3 0 7 5.99 0.54
0 -7 -3 6.68 0.4
7 -3 0 6.29 0.52
7 3 0 7.54 0.51
3 0 7 5.74 0.53
7 -3 0 7.22 0.43
7 4 0 33.87 1.28
7 -4 0 35.16 1.3
7 -4 0 35.27 1.08
7 -4 0 35.79 1.16
7 4 0 37.22 1.18
-7 -4 0 34.26 1.14
0 7 -4 35.23 1.15
4 0 -7 35.34 1.3
0 -7 -4 34.3 1.38
0 -7 4 33.38 1.36
4 0 7 34.66 1.28
0 -7 -4 33.95 1.14
-4 0 7 34.9 1.35
5 0 7 18.28 0.81
0 7 -5 19.77 0.73
5 0 -7 18.41 0.88
7 -5 0 18.59 0.72
0 -7 5 18.07 0.95
7 -5 0 18.51 0.89
7 -5 0 19.24 0.75
7 5 0 19.1 0.89
-5 0 7 19.01 0.94
0 -7 -5 17.46 0.71
0 -7 -5 16.75 0.93
-7 -5 0 18.54 0.76
7 5 0 19.55 0.74
0 -7 6 2.29 0.46
7 -6 0 2.19 0.31
6 0 -7 2.54 0.44
6 0 7 1.97 0.32
7 -6 0 1.83 0.43
7 6 0 2.05 0.65
0 -7 -6 2.39 0.48
0 -7 -6 2.71 0.36
-6 0 7 2.71 0.46
0 7 -6 2.77 0.32
7 -6 0 2.57 0.39
7 6 0 2.96 0.34
-7 -6 0 2.85 0.37
1 7 0 161.93 4.65
7 0 1 165.22 4.65
7 0 -1 163.95 4.67
7 0 1 163.86 4.64
-1 -7 0 157.12 4.76
0 -1 7 157.21 4.78
0 1 7 157.35 4.78
1 -7 0 159.43 4.64
1 -7 0 150.73 4.75
-7 0 1 153.99 4.5
-7 0 1 164.29 4.5
7 0 -1 165.57 4.68
1 7 -1 57.05 1.77
-1 1 7 54.76 1.92
-1 -7 -1 54.35 1.89
7 -1 1 59.33 1.77
7 1 -1 56.63 1.8
1 -7 1 53.61 1.9
1 -1 7 53.4 1.89
-7 1 1 54.71 1.67
7 1 -1 59.74 1.83
7 -1 1 56.49 1.81
-7 1 1 58.02 1.68
7 -1 -1 56.94 1.83
-7 1 -1 59.49 1.65
7 1 1 55.75 1.76
1 7 1 59.07 1.81
-7 -1 1 56.62 1.64
7 1 1 57.4 1.81
1 -7 -1 53.13 1.89
1 1 7 55.28 1.92
-1 7 -1 55 1.73
-1 -7 1 54.11 1.9
7 -1 -1 59.85 1.8
1 -7 -1 57.28 1.77
-1 -1 7 53.64 1.91
-1 -7 -2 13.72 0.74
-2 1 7 12.9 0.75
7 2 -1 14.28 0.65
7 2 -1 13.59 0.67
-7 -2 -1 13.62 0.46
1 -7 2 13.6 0.74
2 -1 7 13.41 0.71
7 -2 1 14.35 0.59
7 -2 1 13.64 0.67
1 7 -2 13.43 0.6
-1 -7 2 13.5 0.74
7 2 1 14.63 0.61
7 -2 -1 14.9 0.72
1 -7 -2 12.92 0.76
-7 -2 1 14.31 0.51
-2 -1 7 14.27 0.78
2 1 7 13.37 0.73
7 2 1 13.64 0.66
1 7 2 14.4 0.67
7 -2 -1 14.1 0.63
1 -7 -2 13.68 0.61
-7 -3 -1 168.23 4.72
-1 -7 -3 164.02 4.98
-3 1 7 163.58 4.98
7 -3 1 160.82 4.89
7 -3 1 169.03 4.77
7 3 -1 172.79 4.92
7 3 -1 170.45 4.82
3 -1 7 169.45 4.95
-1 -7 -3 165.62 4.73
1 7 -3 169.12 4.81
1 -7 3 160.1 4.98
7 -3 -1 175.48 4.82
1 -7 -3 163.26 5
-3 -1 7 167.28 4.99
-1 -7 3 163.05 4.98
7 3 1 170.82 4.9
7 3 1 173.45 4.78
3 -1 -7 164.88 4.88
-7 -3 1 165.46 4.75
3 1 7 162.82 4.93
1 -7 -3 165.43 4.79
7 -3 -1 161.41 4.9
-1 -7 -4 0.27 0.31
-7 -4 -1 0.04 0.18
4 -1 7 -0.05 0.26
7 4 -1 -0.19 0.25
1 -7 4 0.49 0.31
1 7 -4 0.3 0.22
7 4 -1 0.07 0.3
7 -4 1 0.09 0.13
-4 1 7 0.01 0.32
-1 -7 -4 -0.13 0.19
7 -4 1 0.23 0.31
4 -1 -7 -0.07 0.27
-1 -7 4 0.23 0.3
7 -4 -1 0.12 0.15
4 1 7 0.51 0.26
-4 -1 7 0.61 0.36
7 4 1 -0.08 0.21
7 4 1 -0.35 0.28
1 -7 -4 -0.04 0.22
-7 -4 1 0.18 0.2
7 -4 -1 0.12 0.17
7 -4 -1 0.04 0.29
1 -7 -4 0.31 0.31
7 -5 1 41.52 1.34
7 5 -1 43.32 1.38
7 5 -1 40.46 1.5
5 1 -7 42.52 1.51
-1 -7 -5 39.11 1.28
-5 1 7 40.96 1.56
1 7 -5 41.22 1.38
7 -5 1 42.56 1.35
-7 -5 -1 41.26 1.38
-1 -7 -5 40.44 1.58
7 -5 1 40.24 1.51
1 -7 5 40.45 1.58
5 -1 7 42.8 1.46
5 -1 -7 42.07 1.51
5 -1 -7 39.98 1.5
7 5 1 42.75 1.32
7 5 1 39.61 1.49
7 -5 -1 41.7 1.52
-5 -1 7 42.19 1.55
-7 -5 1 42 1.4
-1 -7 5 39.04 1.57
1 -7 -5 41.29 1.36
1 -7 -5 43.32 1.63
7 -5 -1 43.23 1.36
7 -5 -1 43.54 1.38
6 -1 7 24.35 0.95
7 -6 1 23.13 1.06
1 -7 6 24.65 1.15
1 7 -6 25.34 0.93
-1 -7 -6 24.34 0.84
-1 -7 -6 23.13 1.13
-7 -6 -1 25.55 0.98
-6 1 7 23.38 1.1
6 1 -7 23.56 1.06
7 6 -1 24.27 0.92
7 -6 1 24.54 0.94
7 -6 -1 25.92 1.01
7 -6 -1 25.75 1.08
-6 -1 7 23.55 1.07
7 6 1 23.94 0.85
-7 -6 1 23.51 0.97
7 -6 -1 24.03 0.95
6 -1 -7 24.56 1.06
6 -1 -7 24.6 1.03
-1 7 -6 23.51 0.86
1 -7 -6 24.5 0.92
1 -7 -6 25.17 1.17
-1 -7 6 24.13 1.17
7 0 -2 136.86 3.98
2 -7 0 130.12 4.05
2 -7 0 130.32 3.93
7 0 2 140.18 3.92
7 0 2 138.11 3.92
0 -2 7 130.7 4.07
2 7 0 135.42 3.95
7 0 -2 136.22 3.96
0 2 7 130.74 4.07
-7 0 -2 132.34 3.77
-2 -7 0 132.03 4.04
7 1 -2 13.96 0.66
-7 1 2 13.2 0.55
7 -1 2 13.19 0.66
7 -1 2 14.46 0.6
-7 -1 -2 13.75 0.48
2 7 -1 13.89 0.62
-1 2 7 12.7 0.74
2 -7 1 12.76 0.71
1 -2 7 13.6 0.74
7 1 -2 14.33 0.66
-2 -7 -1 13.89 0.75
2 -7 1 13.69 0.66
7 1 2 14.76 0.66
2 -7 -1 13.25 0.72
2 -7 -1 13.58 0.62
7 1 2 13.8 0.61
-1 -2 7 13.33 0.76
2 7 1 13.93 0.65
7 -1 -2 14.65 0.72
-7 1 -2 13.7 0.53
-2 -7 1 12.86 0.7
1 2 7 12.62 0.72
7 -1 -2 13.57 0.63
1 -2 -7 13.63 0.61
2 7 -2 4.66 0.38
7 -2 2 5.3 0.38
7 2 -2 5.25 0.44
-7 2 2 4.61 0.37
-2 -7 -2 5.03 0.49
7 -2 2 4.54 0.47
2 -7 2 4.51 0.48
2 -2 7 5.08 0.48
7 2 -2 5.29 0.42
-2 2 7 4.82 0.52
-2 -2 7 5.38 0.53
2 2 7 5.4 0.48
7 -2 -2 5.37 0.4
-2 -7 2 5.03 0.53
2 7 2 4.71 0.44
2 -2 -7 5.43 0.46
7 -2 -2 5.21 0.47
2 -7 -2 4.79 0.39
-7 -2 2 4.99 0.34
7 2 2 5.07 0.4
7 2 2 5.17 0.47
2 -7 -2 4.63 0.5
-3 2 7 23.27 1.04
-2 -7 -3 23.47 1.02
2 -7 3 22.26 1.01
7 3 -2 24.15 0.92
7 3 -2 23.9 0.97
7 -3 2 23.28 0.97
3 -2 7 22.34 0.99
2 7 -3 23.68 0.9
-7 -3 2 23.45 0.84
2 -7 -3 23.27 1.03
2 7 3 23.19 0.96
3 -2 -7 23.44 0.94
2 -7 -3 22.11 0.87
3 2 7 23.45 0.99
7 -3 -2 24.44 1
7 3 2 23.71 0.84
-2 -7 3 22.98 1.03
7 3 2 24.45 0.97
-3 -2 7 23.51 1.06
7 -3 -2 22.83 0.74
7 4 -2 19.84 0.9
2 7 -4 20.27 1.02
4 -2 7 20.61 0.91
7 4 -2 22.11 0.84
-7 -4 -2 21.11 0.77
7 -4 2 20.71 0.69
-4 2 7 21.06 1
-2 -7 -4 19.35 0.96
2 -7 4 19.61 0.97
7 -4 2 20.02 0.91
7 -4 -2 20.67 0.75
-4 -2 7 20.41 0.99
-2 -7 4 20.4 0.97
7 4 2 20.59 0.91
4 -2 -7 21.23 0.9
4 -2 -7 18.42 0.91
7 4 2 20.2 0.74
7 -4 -2 17.83 0.99
2 -7 -4 20.63 0.83
2 -7 -4 21.3 1
-7 -4 2 21.02 0.81
7 -4 -2 19.43 0.74
5 -2 7 8.41 0.57
5 2 -7 7.5 0.58
7 -5 2 8.34 0.45
-2 -7 -5 8.09 0.65
7 5 -2 8.02 0.53
7 5 -2 8.97 0.61
-7 -5 -2 8.29 0.51
7 -5 2 8.69 0.61
2 -7 5 7.57 0.69
2 7 -5 7.94 0.5
-5 2 7 7.6 0.67
7 -5 -2 7.92 0.56
7 5 2 6.6 0.57
-2 -7 5 7.62 0.7
2 -7 -5 7.5 0.51
7 -5 -2 7.9 0.48
5 -2 -7 7.87 0.6
5 -2 -7 7.42 0.61
-7 -5 2 8.68 0.55
7 -5 -2 7.56 0.6
-5 -2 7 7.58 0.61
2 -7 -5 8.1 0.67
7 -6 2 18.13 0.92
7 -6 2 18.52 0.8
6 2 -7 18.99 0.92
2 -7 6 17.28 0.97
7 6 -2 18.41 0.8
-6 2 7 18.06 0.93
-2 -7 -6 17.24 0.97
6 -2 7 19.23 0.82
-7 -6 -2 18.44 0.84
2 7 -6 18.85 0.8
7 6 -2 19.62 0.71
7 6 -2 16.36 0.98
-2 -7 6 18.71 0.99
2 -7 -6 18.98 0.8
-7 -6 2 19.17 0.85
7 6 2 16.59 0.99
6 -2 -7 18.08 0.92
-6 -2 7 18.57 0.93
7 -6 -2 18.07 0.92
2 -7 -6 17.89 1.03
7 -6 -2 18.41 0.82
6 -2 -7 18.53 0.9
7 -6 -2 20.22 0.92
7 0 3 7.18 0.46
7 0 3 6.49 0.46
0 -3 7 6.5 0.57
3 -7 0 6.65 0.56
-3 -7 0 6.98 0.52
0 -3 -7 6.64 0.44
-7 0 3 6.62 0.4
7 0 -3 5.96 0.49
0 3 7 5.71 0.55
3 -7 0 7.02 0.48
7 0 -3 6.13 0.52
3 7 0 5.91 0.46
3 7 -1 170.06 4.87
7 1 -3 168.44 4.89
1 -3 7 164.69 4.98
7 -1 3 175.41 4.79
3 -7 1 159.39 4.86
7 -1 3 165.02 4.83
-3 -7 -1 167.91 4.95
7 1 -3 167.93 4.87
3 -7 1 167.9 4.96
-7 1 3 162.63 4.79
-1 3 7 157.7 4.97
-3 -7 1 164.35 4.94
1 3 7 161.79 4.96
7 -1 -3 172.97 4.88
-1 -3 7 163.74 4.99
3 -7 -1 162.13 4.84
1 -3 -7 171.5 4.82
3 -7 -1 160.47 4.94
7 -1 -3 172.08 4.91
7 1 3 174.63 4.85
-7 -1 3 162.75 4.77
7 1 3 167.3 4.78
3 7 1 163.17 4.87
-3 -7 -2 22.68 0.98
7 2 -3 23.32 0.95
2 -3 7 22.4 1
3 7 -2 24.35 0.92
7 2 -3 23.19 0.93
3 -7 2 22.29 0.98
-7 2 3 24.09 0.88
-2 3 7 23.34 1.04
7 -2 3 22.13 0.9
3 -7 2 22.94 0.94
-3 -7 2 21.89 0.98
7 2 3 23.7 0.93
7 -2 -3 22.65 0.97
7 -2 -3 22.74 0.73
7 2 3 23.72 0.83
3 -7 -2 21.98 0.92
3 -7 -2 21.76 0.99
-2 -3 7 21.63 1.02
-7 -2 3 23.24 0.84
3 7 2 22.74 0.94
2 -3 -7 23.16 0.9
2 -3 -7 21.8 1
-3 3 7 41.16 1.59
7 3 -3 43.27 1.52
7 3 -3 43.13 1.46
3 -7 3 41.76 1.56
7 -3 3 41.71 1.48
-3 -7 -3 42.86 1.55
3 -3 7 43.75 1.56
3 7 -3 43.15 1.45
-7 -3 3 42.96 1.42
3 -7 -3 43.96 1.58
-3 -7 3 42.75 1.58
3 -3 -7 40.9 1.56
7 -3 -3 41.68 1.33
7 3 3 43.48 1.34
3 -7 -3 41.31 1.45
7 -3 -3 43.78 1.34
7 -3 -3 43.4 1.53
3 -3 -7 42.38 1.46
3 7 3 42.84 1.52
-3 -3 7 43.56 1.59
7 3 3 42.42 1.48
4 -3 7 72.87 2.4
7 -4 3 75.45 2.18
7 4 -3 73.21 2.32
7 4 -3 73.58 2.4
-7 -4 -3 74.77 2.26
-3 -7 -4 73.86 2.44
3 7 -4 75.25 2.32
-4 3 7 71.65 2.46
3 -7 4 76.03 2.47
3 -7 -4 70.62 2.3
-3 -7 4 74.43 2.46
3 -7 -4 74 2.47
3 7 4 71.48 2.39
4 -3 -7 73.99 2.37
4 -3 -7 75.12 2.45
-4 -3 7 73.96 2.46
7 -4 -3 73.63 2.4
7 -4 -3 77.23 2.26
-7 -4 3 73.38 2.31
7 4 3 72.23 2.37
7 -4 -3 73.52 2.24
7 5 -3 5.8 0.55
7 5 -3 6.63 0.48
-5 3 7 6.62 0.62
5 -3 7 6.71 0.57
7 -5 3 6.34 0.63
-7 -5 -3 6.13 0.5
5 3 -7 7.41 0.55
-3 -7 -5 5.62 0.61
3 7 -5 7.07 0.53
3 -7 5 5.89 0.59
7 -5 3 6.62 0.44
7 5 -3 6.81 0.38
7 5 3 6.21 0.6
5 -3 -7 6.18 0.61
3 -7 -5 5.62 0.62
5 -3 -7 6.85 0.61
-7 -5 3 6.95 0.55
7 -5 -3 6.61 0.59
7 -5 -3 8 0.57
7 -5 -3 6.85 0.47
-3 -7 5 6.34 0.63
3 -7 -5 6.82 0.53
-5 -3 7 6.4 0.6
-7 -6 -3 7.53 0.56
7 6 -3 7.77 0.5
3 7 -6 6.84 0.51
7 6 -3 7.15 0.62
6 3 -7 7.89 0.6
-3 -7 -6 7.66 0.68
6 -3 7 8.23 0.6
3 -7 6 6.47 0.64
7 -6 3 8.5 0.67
7 -6 3 7.63 0.52
7 6 -3 6.54 0.54
-6 3 7 8.29 0.72
6 3 -7 7.29 0.61
7 -6 -3 5.67 0.73
7 -6 -3 7.98 0.56
7 6 3 7.02 0.63
7 -6 -3 6.47 0.61
-3 -7 6 6.55 0.67
-6 -3 7 6.79 0.62
-7 -6 3 7.83 0.59
3 -7 -6 6.47 0.68
3 -7 -6 6.15 0.55
6 -3 -7 6.51 0.66
6 -3 -7 6.83 0.57
7 0 -4 33.92 1.29
4 7 0 38.44 1.42
4 7 0 35.52 1.29
7 0 -4 36.1 1.29
7 0 4 36.09 1.22
-4 -7 0 34.97 1.3
4 -7 0 34.07 1.31
0 -4 -7 34.3 1.39
0 -4 7 34 1.38
4 -7 0 33.09 1.25
7 0 4 35.73 1.2
-7 0 4 34.77 1.21
0 -4 -7 35.19 1.18
7 0 -4 34.22 1.07
-7 1 4 -0.04 0.22
4 7 -1 0.04 0.28
7 1 -4 0.37 0.27
1 -4 7 -0.03 0.3
7 -1 4 0.08 0.28
7 -1 4 0.23 0.25
-4 -7 -1 -0.21 0.26
7 1 -4 0.16 0.12
-1 -4 -7 -0.36 0.2
4 -7 1 0.09 0.29
7 1 -4 0.15 0.28
4 -7 1 0.33 0.27
1 -4 -7 -0.07 0.29
4 -7 -1 -0.19 0.27
4 -7 -1 -0.12 0.25
-1 -4 7 0.03 0.3
4 7 1 0.44 0.38
4 7 1 0.28 0.27
7 -1 -4 -0.33 0.28
7 -1 -4 0.24 0.17
7 -1 -4 0.21 0.14
7 1 4 0.53 0.25
1 -4 -7 0.36 0.24
-4 -7 1 0.34 0.28
-7 -1 4 0.03 0.21
7 1 4 0.03 0.26
2 -4 7 20.04 0.96
-2 4 7 21.29 1
-2 -4 -7 21.19 0.74
4 -7 2 18.94 0.9
-4 -7 -2 19.59 0.93
4 7 -2 20.52 0.88
4 -7 2 20.63 0.91
7 2 -4 21.48 0.91
7 2 -4 20.06 0.67
-7 2 4 20.84 0.87
7 -2 4 20.51 0.87
7 2 -4 20.25 0.89
7 -2 -4 22.6 0.76
7 2 4 19.92 0.85
4 7 2 20.44 0.9
7 -2 -4 19.37 1.02
7 2 4 21.42 0.78
-2 -4 7 20.28 0.99
4 -7 -2 19.31 0.87
-4 -7 2 19.56 0.91
-7 -2 4 20.28 0.84
7 -2 -4 19.5 0.73
2 -4 -7 20.52 0.85
2 -4 -7 19.72 0.96
4 -7 -2 19.14 0.94
3 4 -7 78 2.35
4 7 -3 73.73 2.34
-3 -4 -7 74.66 2.16
3 -4 7 74.96 2.45
7 3 -4 72.02 2.33
-7 3 4 74.96 2.34
7 -3 4 69.74 2.33
7 -3 4 75.13 2.14
-3 4 7 72.35 2.47
4 -7 3 66.08 2.46
7 3 -4 71.57 2.37
4 -7 3 72.59 2.41
-4 -7 -3 76.61 2.42
7 -3 -4 73.6 2.4
4 -7 -3 71.02 2.41
4 7 3 74.28 2.39
-7 -3 4 73.31 2.3
7 -3 -4 77.93 2.25
7 -3 -4 72.3 2.23
-3 -4 7 74.76 2.48
4 -7 -3 70.64 2.33
3 -4 -7 71.82 2.45
7 3 4 75.62 2.18
-4 -7 3 74.85 2.44
7 3 4 75.89 2.36
3 -4 -7 71.97 2.32
7 -4 4 4.09 0.35
-4 4 7 3.92 0.55
7 4 -4 5.02 0.5
-7 -4 -4 3.56 0.43
4 4 -7 4.53 0.46
4 7 -4 4.02 0.47
-4 -7 -4 5.25 0.54
7 -4 4 4.26 0.56
7 4 -4 4.19 0.51
4 -4 7 4.63 0.51
7 4 -4 4.33 0.37
4 -7 4 4.4 0.56
4 -7 -4 3.9 0.53
4 -4 -7 3.85 0.51
-4 -4 7 4.32 0.55
-4 -7 4 4.59 0.58
4 -7 -4 5.07 0.47
4 -4 -7 3.64 0.53
7 4 4 3.62 0.5
7 -4 -4 4.77 0.54
7 -4 -4 4.42 0.41
-7 -4 4 4.31 0.47
7 -4 -4 3.97 0.49
4 7 4 5.3 0.54
5 4 -7 126.4 3.86
7 5 -4 111 3.99
-4 -7 -5 127.19 3.93
4 -7 5 128.41 3.95
7 5 -4 132.92 3.71
4 7 -5 129.57 3.84
-7 -5 -4 130.33 3.8
5 -4 7 126.41 3.87
7 5 -4 127.67 3.81
7 -5 4 120.57 3.87
-5 4 7 127.2 3.96
7 -5 4 129.94 3.75
5 -4 -7 131.32 3.94
4 -7 -5 124.42 3.81
-5 -4 7 127.79 3.95
5 -4 -7 133.27 3.89
-4 -7 5 128.04 3.97
7 -5 -4 124.98 3.79
4 7 5 122.71 3.92
7 -5 -4 127.77 3.8
4 -7 -5 130.22 3.98
7 5 4 114.69 3.98
7 -5 -4 128.71 3.9
-7 -5 4 127.84 3.85
7 6 -4 49.76 1.78
7 -6 4 52.34 1.74
-6 4 7 52.77 1.94
4 7 -6 51.44 1.79
7 -6 4 50.21 1.87
4 -7 6 52.06 1.91
-4 -7 -6 53.52 1.91
7 6 -4 54.07 1.72
7 6 -4 51.98 1.86
6 -4 7 52.8 1.81
6 4 -7 52.39 1.85
-7 -6 -4 52.12 1.79
7 6 4 50.21 1.85
7 -6 -4 52.31 1.79
7 -6 -4 50.4 1.85
4 -7 -6 51.19 1.91
-7 -6 4 56.32 1.87
6 -4 -7 51.58 1.86
4 -7 -6 53.28 1.95
-4 -7 6 53.73 1.97
6 -4 -7 50.97 1.85
-6 -4 7 52.16 1.89
0 -5 7 17.73 0.94
0 -5 -7 19.29 0.75
7 0 -5 16.4 0.96
7 0 5 18.98 0.78
7 0 -5 17.68 0.71
5 7 0 18.18 0.82
0 -5 -7 17.97 0.94
-7 0 5 17.58 0.81
-5 -7 0 18.74 0.87
5 7 0 17.5 0.85
0 5 -7 19.77 0.74
5 -7 0 18.27 0.87
7 0 -5 19.89 0.74
1 -5 7 41.22 1.61
7 -1 5 41.77 1.36
7 1 -5 40.93 1.49
7 1 -5 42.16 1.33
7 -1 5 43.35 1.44
-1 -5 -7 41.69 1.33
7 1 -5 43.75 1.34
-5 -7 -1 42.42 1.5
5 -7 1 40.8 1.49
5 7 -1 40.72 1.45
5 7 -1 40.18 1.48
5 -7 1 37.97 1.59
-1 -5 -7 39.81 1.59
-7 1 5 41.73 1.46
1 5 -7 42.54 1.39
7 -1 -5 41.36 1.35
1 -5 -7 41.72 1.39
7 -1 -5 43.2 1.37
5 -7 -1 41.42 1.51
-5 -7 1 41.2 1.5
7 -1 -5 42.55 1.52
7 1 5 41.83 1.42
5 -7 -1 35.56 1.58
5 7 1 42.48 1.51
1 -5 -7 40.78 1.59
-7 -1 5 41.19 1.44
-1 5 -7 43.75 1.34
5 7 1 41.16 1.45
-1 -5 7 40.55 1.59
7 2 -5 6.9 0.75
2 -5 7 7.89 0.64
2 5 -7 8.68 0.5
5 7 -2 6.82 0.65
-5 -7 -2 8.09 0.6
5 -7 2 7.85 0.61
7 -2 5 8.02 0.35
7 -2 5 7.86 0.55
-2 -5 -7 7.24 0.67
-7 2 5 7.27 0.57
5 7 -2 7.63 0.56
7 2 -5 7.36 0.57
5 -7 2 8.33 0.6
-2 -5 -7 6.98 0.42
2 -5 -7 8.33 0.55
5 7 2 7.89 0.58
7 -2 -5 7.98 0.47
2 -5 -7 6.75 0.68
7 -2 -5 8.31 0.55
5 -7 -2 7.17 0.64
7 -2 -5 8.99 0.63
-2 -5 7 7.04 0.65
-7 -2 5 7.88 0.55
7 2 5 8.45 0.55
-5 -7 2 7.65 0.57
5 -7 -2 7.3 0.55
7 3 -5 5.49 0.53
5 -7 3 6.47 0.58
7 -3 5 5.23 0.62
-3 -5 -7 6.02 0.59
5 -7 3 6.24 0.58
7 3 -5 6.59 0.55
-5 -7 -3 6.18 0.59
5 7 -3 6.37 0.53
3 5 -7 6.74 0.49
-7 3 5 6.46 0.57
7 3 -5 6.72 0.47
3 -5 7 6.22 0.64
7 -3 5 6.59 0.47
5 7 3 6.45 0.56
3 -5 -7 6.13 0.68
7 -3 -5 6.34 0.6
7 3 5 6.47 0.54
5 -7 -3 6.19 0.55
7 -3 -5 6.77 0.48
7 -3 -5 7.98 0.57
-7 -3 5 6.6 0.53
-5 -7 3 6.3 0.61
-3 -5 7 5.63 0.62
3 -5 -7 6.87 0.52
7 4 -5 114.27 4
7 4 -5 124.24 3.85
7 4 -5 135.77 3.76
-5 -7 -4 129.68 3.92
4 -5 7 124.54 3.94
4 5 -7 126.78 3.85
7 -4 5 128.73 3.74
5 7 -4 126.31 3.87
7 -4 5 123.36 3.88
-4 -5 -7 128.67 3.94
5 -7 4 128.88 3.92
7 4 5 125.47 3.87
5 7 4 124.72 3.91
5 -7 -4 124.81 3.93
-7 -4 5 125.21 3.86
7 -4 -5 129.44 3.82
7 -4 -5 129.36 3.83
4 -5 -7 124.43 3.96
-5 -7 4 128.79 3.94
7 -4 -5 129.71 3.93
5 -7 -4 130.88 3.87
-4 -5 7 135.52 4.02
-5 -7 -5 62.62 2.12
7 5 -5 61.4 2.11
-7 -5 -5 59.7 2.03
7 5 -5 61.64 2.03
5 -7 5 58.66 2.1
7 -5 5 62.21 1.97
-5 -5 -7 60.48 2.12
7 5 -5 64.17 1.98
5 7 -5 58.2 2.07
5 -5 7 62.26 2.11
7 5 5 59.18 2.09
-7 -5 5 64.34 2.1
5 -7 -5 61.54 2.05
-5 -7 5 61.37 2.15
5 -5 -7 61.19 2.14
5 7 5 58.45 2.09
7 -5 -5 60.98 2.03
5 -7 -5 60.42 2.15
7 -5 -5 60.93 2.12
5 -5 -7 59.07 2.06
-5 -5 7 61.33 2.16
7 6 -5 41.74 1.5
-5 -7 -6 41.74 1.58
6 -5 7 41.46 1.53
6 5 -7 39.46 1.53
-7 -6 -5 42.29 1.53
7 6 -5 42.09 1.58
5 -7 6 39.99 1.58
5 7 -6 40.87 1.53
7 6 -5 41.61 1.48
7 -6 5 39.97 1.45
-6 -5 -7 41.3 1.57
6 -5 -7 42.06 1.58
5 -7 -6 41.12 1.65
7 -6 -5 41.01 1.58
7 6 5 38.29 1.55
6 -5 -7 39.65 1.56
-7 -6 5 41.29 1.58
-5 -7 6 41.03 1.63
-6 -5 7 40.61 1.6
5 -7 -6 41.28 1.53
7 -6 -5 38.13 1.5
6 -7 0 2.91 0.43
-6 -7 0 2.63 0.39
0 -6 7 2.2 0.46
0 6 -7 2.69 0.36
7 0 -6 2.69 0.37
6 -7 0 2.28 0.38
6 7 0 2.83 0.31
6 7 0 2.39 0.37
6 7 0 1.76 0.43
0 -6 -7 2.33 0.32
0 -6 -7 1.93 0.44
-7 0 6 2.59 0.43
7 0 -6 2.5 0.38
7 0 -6 2.88 0.43
-1 -6 -7 24.51 1.18
-7 1 6 24.4 1.05
-6 -7 -1 24.15 1.02
1 -6 7 22.76 1.13
-1 -6 -7 23.03 0.86
7 1 -6 25.59 0.97
7 1 -6 24.59 0.93
6 -7 1 25.08 1.07
6 -7 1 24.48 1.02
1 6 -7 24.5 0.94
6 7 -1 24.2 0.89
6 7 -1 25.39 0.97
6 7 -1 22.79 1.08
7 1 -6 22.6 1.04
7 -1 -6 26.56 0.99
7 -1 -6 24.82 0.95
7 -1 -6 23.93 1.07
-7 -1 6 23.02 1.03
6 -7 -1 23.89 1.06
-6 -7 1 24.24 1.04
-1 6 -7 25.39 0.88
1 -6 -7 23.94 1.19
1 -6 -7 24.1 0.93
6 -7 -1 23.84 1.03
-1 -6 7 23.36 1.14
7 1 6 25.38 1
6 -7 2 18.08 0.88
-6 -7 -2 17.88 0.88
-7 2 6 18.45 0.92
2 -6 7 19.94 1
2 6 -7 20.11 0.82
7 2 -6 16.64 0.96
7 -2 6 18.81 0.72
6 -7 2 19.11 0.92
7 2 -6 20.01 0.84
6 7 -2 19.28 0.85
6 7 -2 16.61 0.98
7 2 -6 18.58 0.91
-2 -6 -7 17.98 0.98
-2 -6 -7 17.18 0.67
-6 -7 2 18.72 0.91
2 -6 -7 18.34 0.82
6 -7 -2 17.23 0.85
7 -2 -6 19.28 0.88
2 -6 -7 18.48 1
6 7 2 17.76 0.91
7 2 6 18.73 0.87
6 -7 -2 19.93 0.91
-2 -6 7 18.76 1
-7 -2 6 17.97 0.89
7 -2 -6 20.31 0.96
7 -2 -6 18.83 0.82
7 3 -6 8.81 0.62
7 3 -6 7.27 0.6
7 -3 6 6.92 0.47
7 3 -6 7.07 0.59
6 7 -3 8.38 0.67
-3 -6 -7 7.33 0.74
3 -6 7 7.05 0.67
3 6 -7 6.96 0.53
-6 -7 -3 8.22 0.63
6 7 -3 7.18 0.97
6 -7 3 7.14 0.66
-7 3 6 6.94 0.61
6 -7 3 6.91 0.58
6 -7 -3 6.86 0.6
6 7 3 8.15 0.65
7 -3 -6 6.79 0.67
7 -3 -6 8.14 0.67
7 -3 -6 7.19 0.56
-6 -7 3 7.62 0.64
3 -6 -7 8.33 0.71
3 -6 -7 7.55 0.55
-7 -3 6 7.47 0.63
7 3 6 7.49 0.63
-3 -6 7 6.48 0.72
6 -7 -3 6.45 0.62
-6 -7 -4 54.83 1.87
7 -4 6 52.11 1.72
-4 -6 -7 53.06 1.94
7 4 -6 54.64 1.79
7 4 -6 53.3 1.88
-7 4 6 53.11 1.9
4 -6 7 50.43 1.91
4 6 -7 51.76 1.81
6 -7 4 50.91 1.82
6 -7 4 52.6 1.88
6 7 -4 51.98 1.85
7 4 -6 52.33 1.84
6 -7 -4 51.82 1.84
-6 -7 4 53.49 1.9
4 -6 -7 53.79 1.98
7 -4 -6 52.46 1.89
6 -7 -4 53.57 1.88
-7 -4 6 53.74 1.87
-4 -6 7 50.92 1.96
4 -6 -7 52 1.82
6 7 4 51.3 1.88
7 -4 -6 51.92 1.8
6 7 -5 41.22 1.55
6 -7 5 39.51 1.52
-6 -7 -5 41.59 1.57
-5 -6 -7 41.17 1.6
7 -5 6 41.45 1.44
7 5 -6 38.16 1.49
7 5 -6 40.83 1.5
7 5 -6 39.9 1.55
5 -6 7 42.82 1.59
5 6 -7 40.67 1.53
-7 -5 -6 40.87 1.51
7 5 6 37.77 1.52
6 7 5 37.69 1.56
6 -7 -5 41.67 1.54
7 -5 -6 40.89 1.51
5 -6 -7 41.08 1.51
5 -6 -7 39.09 1.59
-7 -5 6 40.27 1.57
7 -5 -6 41.25 1.58
-6 -7 5 39.89 1.57
6 -7 -5 40.5 1.58
-5 -6 7 42.63 1.63
-7 -6 -6 35.35 1.39
7 -6 6 34.35 1.34
-6 -7 -6 33.99 1.43
7 6 -6 33.15 1.4
-6 -6 -7 35.53 1.45
6 7 -6 34.29 1.38
7 6 -6 33.6 1.35
6 -6 7 35.75 1.41
6 -7 6 35.01 1.41
6 6 -7 32.44 1.37
6 -6 -7 36.26 1.48
6 -7 -6 35.69 1.47
6 -6 -7 32.66 1.38
-6 -6 7 37.29 1.52
6 7 6 34.04 1.42
7 -6 -6 36.71 1.45
7 -6 -6 36.01 1.41
-7 -6 6 36.63 1.47
6 -7 -6 33.5 1.38
-6 -7 6 35.7 1.48
7 6 6 32.81 1.39
-7 -7 0 29.47 1.15
-7 0 7 28.6 1.2
0 -7 -7 27.51 1.02
0 -7 -7 26.06 1.28
0 -7 7 28.54 1.31
0 7 -7 28.32 1.02
7 -7 0 28.36 1.21
7 -7 0 28.52 1.21
7 -7 0 28.19 1.11
7 0 -7 29.07 1.21
7 0 -7 28.32 1.2
7 0 -7 29.66 1.12
7 7 0 28.53 0.99
7 7 0 27.28 1.19
-7 -7 -1 4.15 0.51
7 7 -1 4.93 0.47
7 7 -1 4.79 0.44
-7 1 7 4.79 0.61
-1 -7 -7 4.77 0.4
-1 -7 -7 5.89 0.68
7 1 -7 5.48 0.63
7 -7 1 5.49 0.59
7 -1 7 4.88 0.41
7 7 -1 4.15 0.57
1 -7 7 3.94 0.59
1 7 -7 5.15 0.46
7 -7 1 4.31 0.48
7 1 -7 5.31 0.58
7 -7 -1 4.44 0.52
-1 7 -7 4.84 0.41
7 -7 -1 4.68 0.61
7 -1 -7 4.45 0.58
7 -1 -7 5.33 0.69
7 -1 -7 4.81 0.51
1 -7 -7 5.68 0.47
7 -7 -1 5.54 0.96
-1 -7 7 5.05 0.66
-7 -7 1 4.83 0.53
-7 -1 7 4.89 0.6
1 -7 -7 5.37 0.65
7 7 1 5.47 0.41
7 7 1 4.5 0.56
-7 -7 -2 46.4 1.63
7 2 -7 45.43 1.68
7 2 -7 46.25 1.63
-7 2 7 45.31 1.71
-2 -7 -7 46.83 1.79
7 7 -2 46.78 1.51
7 7 -2 43.49 1.68
7 2 -7 45.6 1.69
2 -7 7 44.65 1.78
2 7 -7 47.36 1.57
7 -2 7 46.98 1.52
7 7 -2 44.42 1.53
7 -7 2 44.01 1.68
7 -7 2 45.45 1.6
7 -7 -2 46.41 1.63
7 -2 -7 45.24 1.62
7 -7 -2 43.88 1.67
-7 -7 2 45.34 1.64
-7 -2 7 47.35 1.69
2 -7 -7 47.63 1.81
7 -2 -7 46.95 1.71
-2 -7 7 46.14 1.81
2 -7 -7 45.42 1.56
7 7 2 43.63 1.69
-7 -7 -3 229.32 6.65
7 3 -7 216.32 6.65
7 3 -7 228.81 6.6
-7 3 7 234.2 6.74
-3 -7 -7 226.5 6.77
7 7 -3 225.35 6.51
7 7 -3 225.05 6.69
7 3 -7 218.62 6.67
3 -7 7 222.76 6.77
3 7 -7 230.17 6.6
7 -3 7 230.35 6.54
7 7 -3 222.09 6.54
7 -7 3 219.04 6.68
7 -7 3 226.28 6.59
7 -7 -3 225.91 6.62
7 -3 -7 231.87 6.63
7 -7 -3 229.26 6.7
-7 -7 3 232.58 6.67
-7 -3 7 230.28 6.71
3 -7 -7 224.12 6.8
7 -3 -7 230.81 6.71
-3 -7 7 226.55 6.81
3 -7 -7 226.29 6.58
-7 -7 -4 39.71 1.48
7 4 -7 38.59 1.5
7 4 -7 37.96 1.49
-7 4 7 39.02 1.57
-4 -7 -7 39.34 1.6
7 7 -4 39.96 1.53
7 -7 4 37.67 1.51
7 7 -4 38.22 1.41
4 -7 7 39.35 1.59
4 7 -7 34.35 1.5
7 -4 7 39.7 1.4
7 7 -4 36.93 1.41
7 -7 4 38.33 1.44
4 -7 -7 38.12 1.45
7 -7 -4 39.16 1.47
7 -4 -7 39.42 1.47
7 -7 -4 38.07 1.49
-7 -7 4 39.93 1.52
-7 -4 7 36.87 1.53
4 -7 -7 40 1.63
7 -4 -7 38.68 1.52
-4 -7 7 39.05 1.61
7 7 4 35.33 1.7
-7 -7 -5 23.41 1.09
7 7 -5 22.25 1.12
-7 -5 -7 22.36 1.07
7 5 -7 22.51 1.06
-5 -7 -7 22.92 1.18
7 5 -7 22.82 1.07
7 7 -5 22.9 1.07
5 -7 7 24.24 1.13
5 7 -7 23.49 1.07
7 -7 5 23.01 1.03
7 -5 7 23.8 1.02
7 -7 -5 23.65 1.09
7 -5 -7 22.92 1.11
7 -5 -7 24.56 1.12
7 -7 -5 22.9 1.08
-7 -5 7 21.76 1.09
-5 -7 7 24.41 1.24
-7 -7 5 23.08 1.1
5 -7 -7 22.82 1.07
7 7 5 23.04 1.1
-7 -7 -6 3.53 0.55
7 7 -6 4.55 0.57
-7 -6 -7 4 0.58
7 -6 7 4.26 0.58
-6 -7 -7 4.3 0.61
7 6 -7 2.89 0.49
7 -7 6 3.5 0.53
6 7 -7 4.29 0.55
6 -7 7 3.44 0.56
6 -7 -7 3.77 0.63
7 -7 -6 4.34 0.56
7 -7 -6 3.61 0.58
6 -7 -7 4.02 0.58
7 -6 -7 4.31 0.59
7 -6 -7 3.81 0.59
-7 -6 7 3.2 0.56
-6 -7 7 3.84 0.63
-7 -7 6 3.81 0.59
-7 -7 -7 99.48 3.23
7 7 -7 94.78 3.19
7 -7 7 100.62 3.19
7 -7 -7 97.74 3.24
7 -7 -7 97.69 3.2
-7 -7 7 97.36 3.26
-8 0 0 335.54 9.6
-8 0 0 343.8 9.6
0 -8 0 337.5 9.96
0 0 8 339.68 9.97
0 8 0 354.89 9.8
8 0 0 348.49 9.83
8 0 0 359.26 9.83
8 1 0 8.62 0.57
8 -1 0 8.47 0.55
-8 -1 0 8.69 0.27
-8 1 0 8.4 0.39
-1 0 8 8.12 0.66
0 -8 -1 7.87 0.63
0 -8 1 7.85 0.64
0 8 -1 9.06 0.5
1 0 8 8.46 0.64
8 1 0 9.64 0.54
8 -1 0 8.21 0.5
0 -8 2 87.92 2.96
8 2 0 92.8 2.86
2 0 8 89.58 2.94
8 -2 0 92.13 2.87
8 -2 0 95.5 2.79
8 2 0 96.67 2.81
0 -8 -2 92.56 2.75
0 8 -2 95.6 2.77
-8 -2 0 90.66 2.62
-2 0 8 92.11 2.99
0 -8 -2 90.42 2.98
0 -8 3 87.92 2.89
8 -3 0 91.89 2.68
0 8 -3 91.89 2.67
-8 -3 0 88.03 2.58
-3 0 8 91.2 2.92
0 -8 -3 88.06 2.64
0 -8 -3 88.4 2.9
8 -3 0 80.38 2.91
8 3 0 89.96 2.8
8 3 0 89.72 2.69
3 0 8 89.69 2.86
8 -4 0 11.23 0.56
8 4 0 11.91 0.59
8 -4 0 10.19 0.69
0 8 -4 11.22 0.55
4 0 -8 12.21 0.69
-4 0 8 9.32 0.72
0 -8 -4 10.87 0.54
0 -8 -4 10.65 0.77
0 -8 4 10.06 0.74
8 4 0 11.08 0.67
4 0 8 10.42 0.68
-8 -4 0 10.77 0.51
8 -5 0 22.94 0.88
0 -8 -5 22.69 0.88
8 -5 0 23.17 0.79
8 5 0 23.01 0.9
-5 0 8 23.99 1.15
5 0 -8 24.16 1.06
-8 -5 0 24.02 0.9
8 -5 0 23.14 1.06
5 0 8 23.18 1.01
0 -8 5 23.63 1.14
0 8 -5 23.65 0.88
0 -8 -5 22.63 1.14
-8 -6 0 65.46 2.07
8 -6 0 65.26 2.01
-6 0 8 63.72 2.23
8 -6 0 66.31 2
8 -6 0 67.21 1.99
0 -8 6 60.45 2.29
0 -8 -6 62.88 1.97
0 -8 -6 63.07 2.31
6 0 8 64.53 2.09
0 8 -6 65.1 2
8 6 0 65.77 2
8 6 0 62.34 2.2
8 -6 0 63.35 2.21
6 0 -8 62.39 2.19
-7 0 8 24.23 1.17
7 0 -8 24.47 1.08
8 -7 0 23.98 1.15
-8 -7 0 23.25 1.04
8 -7 0 23.62 0.97
0 8 -7 22.92 0.92
7 0 -8 24.47 1.12
8 -7 0 26.47 1.08
0 -8 -7 24.52 0.91
0 -8 -7 23.39 1.26
0 -8 7 23.32 1.22
8 7 0 24.77 0.92
-8 0 -1 8.33 0.28
8 0 -1 8.47 0.57
0 -1 8 7.6 0.65
0 1 8 6.75 0.62
-1 -8 0 8.19 0.63
8 0 1 8.85 0.55
1 -8 0 8.63 0.63
-8 0 1 8.56 0.36
8 0 -1 8.59 0.55
1 -8 0 8.48 0.53
1 8 0 8.7 0.51
8 0 1 9 0.55
1 8 -1 36.59 1.26
8 1 -1 37.36 1.31
8 -1 1 38.09 1.27
-8 1 1 35.92 1.14
-1 -8 -1 34.46 1.4
1 -1 8 35.3 1.43
8 -1 1 38.07 1.32
1 -8 1 34.02 1.4
-1 1 8 35.56 1.43
8 1 -1 37.36 1.32
1 -8 -1 35.88 1.42
-8 1 -1 37.05 1.11
1 1 8 35.2 1.41
-1 -1 8 35.87 1.43
-8 -1 1 35.95 1.1
8 -1 -1 36.19 1.33
-1 -8 1 35.67 1.41
8 1 1 37.65 1.28
1 8 1 35.74 1.28
-1 8 -1 38.31 1.22
8 1 1 38.81 1.31
8 -1 -1 36.8 1.28
1 -8 -1 35.83 1.24
-1 -8 -2 29.76 1.25
8 2 -1 30.75 1.12
8 -2 1 29.64 1.16
8 2 -1 30.93 1.17
-8 -2 -1 30.54 0.9
1 -8 2 27.6 1.25
1 8 -2 30.39 1.08
-2 1 8 28.32 1.25
8 -2 1 32.46 1.08
2 -1 8 31.19 1.25
8 -2 -1 32.19 1.1
-1 8 -2 29.44 1.03
-8 -2 1 29.89 0.95
1 8 2 29.38 1.13
-2 -1 8 29.52 1.29
8 2 1 29.81 1.07
8 -2 -1 31.46 1.2
1 -8 -2 29.81 1.07
1 -8 -2 29.82 1.26
2 1 8 29.11 1.22
8 2 1 30.36 1.14
-1 -8 2 29.74 1.24
-8 -3 -1 13.61 0.52
8 3 -1 12.97 0.72
8 -3 1 14.45 0.63
1 -8 3 11.86 0.83
-1 -8 -3 13.82 0.81
8 -3 1 13.72 0.75
-1 -8 -3 13.29 0.58
3 -1 8 12.65 0.75
-3 1 8 14.68 0.84
1 8 -3 13.91 0.64
8 3 -1 14.72 0.69
8 -3 -1 14.74 0.66
8 3 1 13.44 0.72
1 -8 -3 13.23 0.64
1 -8 -3 13.44 0.82
8 3 1 13.28 0.64
-1 -8 3 12.02 0.79
-3 -1 8 12.8 0.81
-1 8 -3 13.98 0.59
3 1 8 12.79 0.78
3 -1 -8 15.26 0.73
8 -3 -1 10.45 1.06
-8 -4 -1 63.34 1.91
8 -4 1 63.99 1.91
4 -1 8 61.27 2.09
1 8 -4 64.95 1.97
-1 -8 -4 62.17 1.87
-4 1 8 59.91 2.16
8 -4 1 63.37 2.1
8 4 -1 60.04 2.08
-1 -8 -4 60.39 2.18
1 -8 4 59.73 2.17
8 4 -1 63.66 1.98
8 -4 -1 61.55 2.11
8 -4 -1 63.24 2.04
4 -1 -8 62.03 2.07
-4 -1 8 61.66 2.18
-8 -4 1 62.14 1.92
8 4 1 65.17 1.93
1 -8 -4 64.48 2.21
1 -8 -4 62.61 1.95
-1 -8 4 61.85 2.19
-1 8 -4 63.39 1.9
4 1 8 60.79 2.09
8 4 1 62.52 2.1
8 -5 1 63.94 1.95
1 8 -5 64.22 2.01
-8 -5 -1 64.11 2
-1 -8 -5 63.32 2.26
8 5 -1 60.72 2.18
5 1 -8 64.36 2.16
-5 1 8 62.93 2.23
8 5 -1 65.5 2.02
8 -5 1 65.8 1.9
8 -5 1 64.46 2.18
5 -1 8 62.23 2.12
-1 -8 -5 62.46 1.91
1 -8 5 61.07 2.25
8 -5 -1 64.42 1.93
8 -5 -1 64.9 2.18
-1 -8 5 61.11 2.25
-1 8 -5 63.59 1.94
1 -8 -5 64.87 2
1 -8 -5 64.56 2.28
-5 -1 8 63.81 2.23
5 1 8 65.37 2.12
5 -1 -8 65.02 2.16
-8 -5 1 63.97 2.02
8 -5 -1 65.93 1.93
8 5 1 65.74 1.96
1 -8 6 64.01 2.26
-6 1 8 62.4 2.19
-8 -6 -1 61.95 2.02
6 -1 8 62.66 2.06
6 1 -8 62.54 2.14
8 -6 1 57.42 2.13
-1 -8 -6 61.67 2.27
-1 -8 -6 61.01 1.88
8 -6 1 64.99 1.96
8 6 -1 59.18 2.13
1 8 -6 63.73 1.99
8 -6 1 63.75 1.94
8 6 -1 64.6 1.98
-1 8 -6 62.62 1.91
1 -8 -6 61.5 2.26
-8 -6 1 61.5 2.03
1 -8 -6 63.97 1.98
8 -6 -1 62.87 2.16
6 -1 -8 61.56 2.13
6 -1 -8 66.41 2.17
-1 -8 6 60.01 2.24
8 6 1 62.59 2.17
-6 -1 8 60.17 2.18
8 -6 -1 61.61 1.95
8 -6 -1 64.91 1.99
8 6 1 62.84 1.91
-1 -8 -7 13.85 0.93
-8 -7 -1 14.16 0.77
1 8 -7 14.19 0.7
8 -7 1 13.72 0.88
8 -7 1 14.49 0.7
-7 1 8 12.7 0.85
-1 -8 -7 14.42 0.62
8 -7 1 14.58 0.82
7 1 -8 14.36 0.88
7 -1 8 14.13 0.7
8 7 -1 13.74 0.69
1 -8 7 14.12 0.93
8 -7 -1 14.21 0.87
-7 -1 8 14.36 0.85
-1 8 -7 14.84 0.65
8 7 1 14.64 0.64
7 -1 -8 13.47 0.84
-1 -8 7 14.31 0.95
7 -1 -8 14.07 0.81
-8 -7 1 14.07 0.8
1 -8 -7 14.78 0.96
8 -7 -1 14.26 0.86
8 -7 -1 14.28 0.72
1 -8 -7 14.99 0.69
8 0 -2 89.2 2.8
8 0 2 94.46 2.75
0 2 8 91.5 2.95
2 -8 0 89.63 2.77
-8 0 -2 91.47 2.57
8 0 2 91.09 2.75
0 -2 8 89.52 2.93
2 8 0 91.4 2.78
-2 -8 0 87.27 2.88
8 0 -2 91.07 2.79
2 -8 0 85.98 2.89
8 1 -2 30.19 1.15
2 -8 1 28.81 1.11
-1 2 8 27.97 1.24
-8 1 2 29.58 1
-2 -8 -1 29.81 1.25
8 -1 2 29.55 1.11
2 -8 1 26.91 1.2
2 8 -1 30.36 1.11
8 -1 2 31.43 1.07
1 -2 8 27.79 1.22
-8 -1 -2 31.65 0.91
8 1 -2 30.8 1.15
-2 -8 1 30.64 1.24
2 -8 -1 28.83 1.22
1 -2 -8 30.75 1.1
8 -1 -2 28.75 1.15
8 1 2 30.86 1.11
-8 -1 2 25.03 0.99
2 -8 -1 29.89 1.1
8 -1 -2 29.72 1.1
2 8 1 29.72 1.13
8 1 2 31.96 1.08
-1 -2 8 28.63 1.26
1 2 8 29.32 1.27
8 -2 2 28.31 1.01
-2 -8 -2 27.47 1.2
-8 2 2 29.73 1.01
8 2 -2 29.45 1.11
8 2 -2 27.66 1.12
2 8 -2 28.86 1.08
-2 2 8 28.56 1.25
2 -2 8 27.36 1.2
2 -8 2 29.02 1.21
8 -2 2 28.39 1.13
2 -8 -2 27.82 1.21
-2 -8 2 27.56 1.2
8 2 2 27.89 1.09
2 8 2 29.33 1.12
8 2 2 28.89 1.03
2 -8 -2 28.25 1.06
2 2 8 29.08 1.2
-8 -2 2 29.8 1
2 -2 -8 28.51 1.1
8 -2 -2 28.85 1.08
8 -2 -2 25.83 1.24
-2 -2 8 28.75 1.24
-8 -3 -2 202.38 5.55
8 -3 2 201.81 5.58
8 3 -2 196.34 5.68
-2 -8 -3 198.52 5.86
2 8 -3 199.56 5.67
3 -2 8 191.72 5.8
8 -3 2 174.11 5.84
8 3 -2 196.38 5.77
2 -8 3 186.7 5.83
-3 2 8 195.03 5.87
2 8 3 191.93 5.75
3 2 8 189.1 5.79
-3 -2 8 197.7 5.88
8 -3 -2 201.78 5.79
2 -8 -3 190.08 5.65
-8 -3 2 203.82 5.6
-2 -8 3 188.64 5.84
8 3 2 196.76 5.74
3 -2 -8 195.6 5.72
8 -3 -2 208.73 5.69
8 3 2 207 5.6
2 -8 -3 191.81 5.85
2 -8 4 20.75 1.08
-8 -4 -2 22 0.8
-4 2 8 20.18 1.04
8 4 -2 21.1 0.9
-2 -8 -4 20.33 1.07
8 -4 2 21.58 0.99
2 8 -4 21.14 0.87
4 -2 8 22.43 1.02
8 4 -2 21.11 0.99
-2 -8 4 20.1 1.03
4 -2 -8 20.96 1.02
8 -4 -2 22.74 1.01
2 -8 -4 21.21 0.88
8 4 2 21.24 1
2 -8 -4 21.56 1.07
8 4 2 22.2 0.82
-4 -2 8 22.1 1.09
-8 -4 2 21.39 0.84
4 -2 -8 22.44 0.96
8 -4 -2 21.41 0.7
5 -2 8 6.19 0.6
8 5 -2 6.84 0.62
8 -5 2 7.25 0.37
-5 2 8 5.09 0.65
-8 -5 -2 7.28 0.49
8 5 -2 7.14 0.53
8 -5 2 7.42 0.68
5 2 -8 5.92 0.59
-2 -8 -5 6.69 0.67
2 -8 5 7.09 0.75
2 8 -5 6.92 0.51
-5 -2 8 6.66 0.66
-2 -8 5 7.09 0.7
8 -5 -2 7.21 0.43
8 5 2 7.02 0.65
8 5 2 6.99 0.46
8 -5 -2 7.94 0.48
-8 -5 2 7.85 0.55
5 -2 -8 6.82 0.67
8 -5 -2 6.86 0.65
2 -8 -5 6.06 0.75
2 -8 -5 7.28 0.52
5 -2 -8 8.22 0.65
8 6 -2 2.02 0.37
6 -2 8 2.17 0.39
6 2 -8 1.81 0.42
-6 2 8 2.12 0.51
-2 -8 -6 1.49 0.45
8 6 -2 1.12 0.42
2 8 -6 1.66 0.32
-8 -6 -2 1.66 0.35
8 -6 2 1.72 0.29
2 -8 6 1.41 0.46
8 -6 2 1.56 0.46
8 -6 -2 1.53 0.3
-8 -6 2 2.04 0.37
-6 -2 8 2.02 0.44
6 -2 -8 1.72 0.42
6 -2 -8 1.86 0.43
8 -6 -2 1.77 0.47
8 -6 -2 1.62 0.38
-2 -8 6 1.61 0.48
2 -8 -6 1.49 0.33
2 -8 -6 2.14 0.53
8 6 2 2.25 0.45
7 -2 8 0.02 0.26
8 7 -2 -0.1 0.29
8 7 -2 -0.34 0.27
8 -7 2 0.19 0.26
-8 -7 -2 0.07 0.32
7 2 -8 -0.13 0.26
7 2 -8 0.16 0.37
2 8 -7 -0.36 0.27
-7 2 8 0.23 0.41
-2 -8 -7 0.51 0.43
8 -7 2 0.07 0.34
-2 -8 7 0.73 0.47
7 -2 -8 0.07 0.34
8 -7 -2 0.41 0.29
7 -2 -8 -0.36 0.31
-8 -7 2 0.22 0.35
-7 -2 8 -0.28 0.36
8 -7 -2 0.3 0.37
8 -7 -2 0.31 0.46
2 -8 -7 0.23 0.31
3 -8 0 87.99 2.87
8 0 -3 89.23 2.79
8 0 3 86.59 2.7
-3 -8 0 88.07 2.84
0 -3 -8 91.12 2.69
3 -8 0 84.83 2.74
0 -3 8 90.7 2.92
0 3 8 87.47 2.89
8 0 -3 91.25 2.78
8 0 3 93.08 2.71
-8 0 3 86 2.64
3 8 0 86.83 2.75
8 -1 3 13.35 0.69
-1 3 8 13.11 0.81
3 -8 1 12.5 0.7
3 -8 1 12.61 0.81
1 -3 8 13.69 0.81
3 8 -1 12.93 0.69
8 1 -3 12.1 0.69
8 1 -3 13.2 0.71
-3 -8 -1 12.97 0.76
8 -1 3 13.49 0.64
-8 1 3 13.08 0.61
3 -8 -1 14.03 0.7
8 1 3 13.94 0.65
3 -8 -1 13.21 0.77
8 1 3 13.86 0.67
-3 -8 1 13.03 0.79
3 8 1 13.06 0.7
-1 -3 8 13.13 0.82
8 -1 -3 12.36 0.67
-8 -1 3 13.01 0.58
1 3 8 13.04 0.78
1 -3 -8 13.26 0.64
8 -2 3 188.42 5.72
-2 3 8 200.54 5.91
8 -2 3 208.25 5.62
3 -8 2 198.41 5.86
8 2 -3 194.81 5.78
-3 -8 -2 197.05 5.84
8 2 -3 192.64 5.73
-8 2 3 198.63 5.67
3 8 -2 193.68 5.72
2 -3 8 189.93 5.85
8 2 3 200.11 5.63
8 -2 -3 203.97 5.74
-8 -2 3 197.3 5.63
8 -2 -3 198.8 5.8
3 -8 -2 190.2 5.85
-3 -8 2 190.85 5.83
8 2 3 206.71 5.75
3 -8 -2 189.22 5.7
2 3 8 197.64 5.85
2 -3 -8 194.06 5.71
-2 -3 8 197.54 5.9
3 8 2 193.14 5.76
3 -3 8 661.43 18.36
-3 -8 -3 664.53 18.37
8 3 -3 642.55 18.29
3 -8 3 639.82 18.36
3 8 -3 644.13 18.22
8 3 -3 640.86 18.22
-3 3 8 647.82 18.41
-8 -3 3 667.9 18.16
3 -8 -3 642.43 18.2
3 -8 -3 643.55 18.38
3 8 3 631 18.27
-3 -3 8 650.49 18.4
8 3 3 643.81 18.25
-3 -8 3 643.45 18.36
8 3 3 667.71 18.09
8 -3 -3 658.36 18.31
3 -3 -8 645.95 18.38
3 -3 -8 650.78 18.24
8 -3 -3 636.57 17.99
-4 3 8 9.28 0.75
8 4 -3 9.51 0.75
-8 -4 -3 9.37 0.52
8 -4 3 9.79 0.71
8 4 -3 9.92 0.62
-3 -8 -4 9.75 0.77
3 8 -4 8.88 0.59
3 -8 4 9.2 0.76
4 -3 8 8.48 0.66
3 -8 -4 9.43 0.59
-8 -4 3 9.57 0.59
8 4 3 9.17 0.69
3 -8 -4 9.46 0.74
8 -4 -3 9.66 0.49
4 -3 -8 8.72 0.72
8 -4 -3 9.27 0.46
8 -4 -3 9.59 0.7
-4 -3 8 8.88 0.73
8 4 3 9.44 0.5
-3 -8 4 8.2 0.7
4 -3 -8 9.54 0.64
3 8 -5 68.63 2.25
5 -3 8 71.26 2.34
-5 3 8 71.93 2.46
8 -5 3 70.29 2.34
-8 -5 -3 71.09 2.2
8 5 -3 67.68 2.23
8 5 -3 69.11 2.35
3 -8 5 71.94 2.45
8 -5 3 70.65 2.08
-3 -8 -5 69.28 2.42
-8 -5 3 71.07 2.25
-3 -8 5 69.1 2.43
8 -5 -3 68.33 2.15
5 -3 -8 70.74 2.33
3 -8 -5 69.86 2.45
3 -8 -5 67.07 2.23
8 -5 -3 72.43 2.18
-5 -3 8 70.3 2.44
5 -3 -8 69.48 2.38
8 -5 -3 68.64 2.35
8 5 3 68.76 2.33
3 -8 6 44.21 1.76
6 3 -8 43.99 1.66
6 -3 8 45.78 1.63
-6 3 8 44.73 1.74
-3 -8 -6 47.94 1.78
3 8 -6 44.81 1.57
8 -6 3 44.98 1.69
-8 -6 -3 44.68 1.57
8 6 -3 44.11 1.55
6 3 -8 44.39 1.67
8 6 -3 44.59 1.68
8 -6 3 44.61 1.47
8 -6 -3 48.09 1.6
6 -3 -8 44.63 1.66
-8 -6 3 45.75 1.61
-6 -3 8 45.3 1.75
8 -6 -3 44.77 1.69
6 -3 -8 45.4 1.68
8 -6 -3 44.14 1.53
8 6 3 43.15 1.65
3 -8 -6 43.56 1.77
-3 -8 6 43.89 1.79
3 -8 -6 44.59 1.57
8 -7 3 1.18 0.32
7 3 -8 1.25 0.38
8 7 -3 1.25 0.31
8 7 -3 1.27 0.39
7 3 -8 1.03 0.41
8 -7 3 1.33 0.44
-7 3 8 0.51 0.4
-3 -8 -7 1.15 0.45
3 8 -7 0.72 0.33
7 -3 8 1.67 0.35
8 7 -3 0.85 0.36
3 -8 7 0.73 0.54
-8 -7 -3 1.08 0.37
-3 -8 7 1.27 0.45
7 -3 -8 0.66 0.39
3 -8 -7 0.82 0.43
-8 -7 3 1.13 0.39
7 -3 -8 1.15 0.44
8 -7 -3 0.82 0.42
8 -7 -3 0.12 0.62
8 -7 -3 0.87 0.34
-7 -3 8 0.88 0.41
3 -8 -7 0.37 0.49
8 0 -4 10.25 0.69
-8 0 4 10.43 0.58
4 -8 0 9.61 1.02
4 -8 0 12.44 0.76
4 8 0 9.24 0.65
-4 -8 0 10.83 0.69
0 -4 -8 11.07 0.76
8 0 4 10.78 0.63
8 0 4 11.47 0.6
0 -4 -8 10.91 0.57
8 0 -4 10.79 0.65
0 -4 8 11.42 0.77
-1 -4 -8 64.08 1.94
8 -1 4 61.1 2.02
1 -4 8 59.94 2.18
8 -1 4 65.09 1.96
4 -8 1 63.33 2.09
-4 -8 -1 62.5 2.14
4 8 -1 63.27 2.07
-1 4 8 61.1 2.18
-8 1 4 61.4 1.98
4 -8 1 60.96 2.13
8 1 -4 60.35 2.08
8 1 -4 63.67 2.09
8 -1 -4 63.07 2.1
-8 -1 4 62.11 1.98
1 -4 -8 60.74 2.18
4 8 1 61.47 2.08
8 1 4 64.02 1.98
8 1 4 64.09 2
-1 -4 8 60.84 2.19
4 -8 -1 60.34 2.05
4 -8 -1 62.18 2.13
1 -4 -8 64.06 1.99
-4 -8 1 64.03 2.15
8 -1 -4 61.93 2.06
4 -8 2 21.35 1.03
-2 -4 -8 22.32 0.81
4 -8 2 21.19 0.97
8 -2 4 21.69 0.82
2 -4 8 21.88 1.05
-8 2 4 21.73 0.9
-4 -8 -2 20.46 0.98
4 8 -2 20.39 0.91
8 2 -4 21.16 0.96
8 -2 4 20.75 0.95
-2 4 8 20.55 1.07
2 -4 -8 21.63 0.91
8 2 4 21.23 0.93
8 2 4 22.39 0.85
4 -8 -2 21.49 0.99
-2 -4 8 20.57 1.06
2 -4 -8 20.88 1.05
-8 -2 4 20.57 0.87
8 -2 -4 21.34 0.69
4 -8 -2 21.37 1.03
8 -2 -4 21.8 0.99
-4 -8 2 20.77 1
4 8 2 21.14 0.97
4 -8 3 9.48 0.69
8 -3 4 9.2 0.66
3 -4 8 9.71 0.72
4 8 -3 9.81 0.63
8 3 -4 8.56 0.73
-4 -8 -3 10.08 0.69
-3 4 8 9.57 0.76
-3 -4 -8 10.26 0.48
-8 3 4 10.01 0.65
4 -8 -3 8.8 0.62
3 -4 -8 8.45 0.71
8 3 4 8.78 0.65
3 -4 -8 8.6 0.62
-3 -4 8 8.98 0.74
4 -8 -3 9.24 0.75
8 -3 -4 9.78 0.49
8 -3 -4 10.02 0.71
-8 -3 4 9.61 0.58
-4 -8 3 10.97 0.78
8 3 4 9.98 0.53
8 -3 -4 9.5 0.45
4 -8 4 153.17 4.81
4 -4 8 157.6 4.8
8 4 -4 155.1 4.4
4 4 -8 163.46 4.75
8 4 -4 158.53 4.78
4 8 -4 157.01 4.7
-4 4 8 154.92 4.86
-8 -4 -4 162.63 4.62
8 -4 4 158.26 4.74
8 -4 4 161.76 4.44
8 4 -4 139.59 4.77
-4 -8 -4 159.29 4.82
4 -4 -8 157.69 4.84
-8 -4 4 166.64 4.69
8 -4 -4 157.35 4.56
4 -4 -8 159.35 4.72
4 8 4 149.47 4.75
8 4 4 151.93 4.74
-4 -8 4 157.13 4.83
8 -4 -4 162.98 4.8
8 -4 -4 166.05 4.59
-4 -4 8 158.99 4.86
4 -8 -4 158.44 4.84
5 -4 8 14.46 0.84
4 8 -5 13.29 0.76
8 5 -4 12.38 0.78
-8 -5 -4 14.44 0.73
-5 4 8 14.35 0.91
8 5 -4 14.31 0.79
4 -8 5 13.14 0.85
8 -5 4 14.83 0.6
5 4 -8 13.99 0.8
8 -5 4 13.34 0.81
-4 -8 -5 14.91 0.93
4 -8 -5 14.49 0.81
-5 -4 8 14.97 0.9
8 -5 -4 13.37 0.84
5 -4 -8 13.66 0.85
-8 -5 4 14.24 0.77
4 -8 -5 14.66 0.94
8 -5 -4 14.96 0.69
8 -5 -4 14.44 0.78
5 -4 -8 14.24 0.79
-4 -8 5 13.82 0.89
8 5 4 13.43 0.8
8 6 -4 0.58 0.25
-4 -8 -6 1.03 0.42
6 4 -8 1 0.37
4 -8 6 0.85 0.38
4 8 -6 0.9 0.4
6 -4 8 0.14 0.33
8 -6 4 0.47 0.41
8 6 -4 0.57 0.34
8 6 -4 0.92 0.34
-8 -6 -4 1.04 0.36
8 -6 4 0.55 0.29
-6 4 8 0.85 0.44
8 -6 -4 0.25 0.3
8 -6 -4 0.48 0.37
-8 -6 4 0.93 0.38
-4 -8 6 1.16 0.46
4 -8 -6 1.09 0.35
8 -6 -4 0.89 0.48
6 -4 -8 1.12 0.4
6 -4 -8 0.5 0.4
4 -8 -6 0.93 0.48
-6 -4 8 0.72 0.41
8 6 4 0.72 0.39
8 -7 4 37.2 1.37
8 7 -4 36.15 1.3
-7 4 8 37.48 1.57
4 8 -7 38.11 1.44
8 -7 4 35.18 1.53
8 7 -4 38.29 1.53
7 4 -8 36.38 1.5
7 -4 8 39.5 1.44
7 4 -8 38.56 1.52
4 -8 7 37.57 1.59
-4 -8 -7 37.88 1.59
-8 -7 -4 37.82 1.44
8 7 -4 34.65 1.38
8 -7 -4 37.94 1.55
-4 -8 7 39.13 1.64
-7 -4 8 37.47 1.57
7 -4 -8 39.24 1.54
4 -8 -7 36.27 1.42
4 -8 -7 37.32 1.62
8 -7 -4 37.58 1.43
7 -4 -8 39.02 1.54
-8 -7 4 38.25 1.5
5 -8 0 21.58 1
8 0 5 23.92 0.97
0 -5 -8 21.35 1.14
8 0 -5 23.56 1.05
5 -8 0 22.97 1.07
5 8 0 22.57 1.05
0 -5 -8 24.48 0.91
0 5 -8 25 0.91
8 0 -5 22.73 0.77
0 -5 8 23.08 1.14
-8 0 5 23.05 0.98
-5 -8 0 24.85 1.07
8 0 5 23.24 0.94
8 -1 5 65.81 1.98
8 1 -5 62.89 2.12
-1 -5 -8 64.59 1.95
5 -8 1 60.84 2.14
5 8 -1 60.64 2.11
5 -8 1 61.07 2.1
8 1 -5 61.75 1.84
-8 1 5 63.43 2.06
8 -1 5 63.13 2.05
-1 -5 -8 59.19 2.2
-5 -8 -1 64.8 2.15
8 1 -5 55.26 2.21
1 5 -8 66.52 2.03
1 -5 8 61.44 2.22
5 -8 -1 63.56 2.16
1 -5 -8 63.74 2.24
8 1 5 65.58 2.04
-5 -8 1 64.55 2.17
-8 -1 5 63.02 2.04
8 -1 -5 63.58 1.89
1 -5 -8 61.92 1.99
8 -1 -5 62.55 2.14
8 1 5 65.35 2
-1 -5 8 62.16 2.23
5 -8 -1 62.68 2.1
8 -2 5 6.3 0.67
5 -8 2 6.74 0.61
-8 2 5 7.65 0.59
8 2 -5 6.9 0.59
5 -8 2 6.92 0.59
-2 -5 -8 6.67 0.44
8 2 -5 6.98 0.35
-2 -5 -8 6.84 0.66
-5 -8 -2 7.36 0.66
8 -2 5 6.95 0.48
8 2 -5 6.76 0.59
2 -5 8 7.46 0.74
5 8 -2 7.67 0.6
2 5 -8 6.6 0.52
8 2 5 7.87 0.57
8 -2 -5 6.94 0.42
8 -2 -5 6.92 0.46
-8 -2 5 6.86 0.57
2 -5 -8 6.65 0.68
2 -5 -8 7.23 0.55
-2 -5 8 6.5 0.74
-5 -8 2 6.81 0.61
5 -8 -2 6.33 0.63
5 8 2 6.63 0.61
8 -2 -5 7.59 0.65
5 -8 -2 6.42 0.6
-8 3 5 74.18 2.32
-3 -5 -8 68.14 2.06
8 3 -5 69.85 2.06
3 5 -8 73.45 2.28
3 -5 8 69.55 2.42
5 8 -3 62.28 2.38
-3 -5 -8 67.11 2.39
8 3 -5 71.21 2.35
8 3 -5 70.39 2.3
8 -3 5 69.92 2.29
5 -8 3 67.5 2.32
5 -8 3 70.81 2.37
-5 -8 -3 72.39 2.37
5 8 3 66.07 2.32
8 -3 -5 72.51 2.37
5 -8 -3 70.26 2.29
8 -3 -5 69.06 2.14
5 -8 -3 71.03 2.39
3 -5 -8 62.65 2.35
-5 -8 3 70.39 2.38
8 -3 -5 73.75 2.17
3 -5 -8 69.04 2.43
8 3 5 67.68 2.27
-8 -3 5 70.42 2.26
-3 -5 8 67.68 2.43
-4 -5 -8 13.61 0.85
8 4 -5 13.33 0.8
4 5 -8 14.03 0.76
5 8 -4 12.04 0.86
4 -5 8 14.63 0.9
8 4 -5 14.77 0.79
8 4 -5 11.97 0.64
-5 -8 -4 13.65 0.87
5 -8 4 14.03 0.86
8 -4 5 13.71 0.81
8 -4 5 14.38 0.57
-8 -4 -5 14.44 0.72
-4 -5 8 14.92 0.91
5 -8 -4 13.84 0.78
8 4 5 13.54 0.79
8 -4 -5 14.64 0.78
8 -4 -5 15.15 0.87
5 8 4 13.72 0.84
4 -5 -8 14.5 0.77
-8 -4 5 13.98 0.78
8 -4 -5 13.54 0.67
-5 -8 4 14.17 0.85
4 -5 -8 15.07 0.95
5 -8 -4 14.84 0.86
8 5 -5 107.97 3.58
8 5 -5 109.7 3.5
5 8 -5 115.01 3.54
8 5 -5 115.58 3.34
-8 -5 -5 112.95 3.47
5 -5 8 114.4 3.6
-5 -8 -5 113.52 3.63
5 5 -8 113.17 3.55
-5 -5 -8 113.83 3.62
5 -8 5 113.67 3.62
8 -5 5 108.88 3.55
8 -5 5 113.64 3.36
5 -8 -5 114.44 3.52
5 -5 -8 113.8 3.65
-5 -8 5 115.48 3.67
5 -8 -5 114.71 3.65
8 -5 -5 112.22 3.45
-8 -5 5 117.99 3.56
8 -5 -5 118.77 3.63
5 -5 -8 116.09 3.55
8 -5 -5 112.44 3.48
8 5 5 107.56 3.55
-5 -5 8 117.26 3.69
8 6 -5 30.3 1.27
8 -6 5 32.35 1.19
5 -8 6 32.1 1.42
8 -6 5 31.73 1.38
6 -5 8 34.16 1.35
5 8 -6 31.1 1.29
8 6 -5 29.95 1.33
-8 -6 -5 32.14 1.29
-6 -5 -8 33.2 1.38
-5 -8 -6 34.41 1.45
6 5 -8 30.69 1.3
8 6 -5 32.09 1.19
6 -5 -8 32.63 1.41
5 -8 -6 31.17 1.29
8 -6 -5 30.61 1.26
-5 -8 6 31.37 1.53
6 -5 -8 32.45 1.35
8 -6 -5 31.63 1.36
8 6 5 32.02 1.35
-6 -5 8 32.35 1.45
-8 -6 5 34.18 1.36
8 7 -5 -0.1 0.37
5 8 -7 -0.54 0.32
-5 -8 -7 0.16 0.43
5 -8 7 0.08 0.47
7 5 -8 -0.13 0.33
-8 -7 -5 -0.25 0.37
-7 -5 -8 0.11 0.39
7 5 -8 -0.34 0.35
7 -5 8 0.16 0.35
8 -7 5 -0.09 0.33
8 7 -5 -0.78 0.36
8 7 -5 0.41 0.42
-5 -8 7 0.4 0.43
8 -7 -5 -0.21 0.38
5 -8 -7 -0.48 0.35
5 -8 -7 -0.16 0.44
-8 -7 5 -0.69 0.39
7 -5 -8 0.2 0.37
-7 -5 8 -0.74 0.38
8 -7 -5 0.56 0.42
0 -6 -8 62.53 2.28
0 -6 8 61.74 2.29
6 8 0 60.55 2.18
8 0 -6 65.76 2.21
0 -6 -8 65.6 2
6 8 0 63.28 2.08
6 -8 0 62.04 2.15
6 8 0 63.13 1.93
0 6 -8 66.07 2.01
6 -8 0 62.19 2.16
-8 0 6 63.4 2.13
-6 -8 0 64.07 2.17
8 0 -6 65.31 1.99
8 0 -6 63.68 1.97
8 0 6 66.06 2.04
-1 -6 -8 60.76 2.25
6 8 -1 62.94 2.06
1 -6 8 62.2 2.25
6 -8 1 60.68 2.13
6 -8 1 58.79 2.1
-8 1 6 62.08 2.11
-6 -8 -1 63.37 2.14
8 1 -6 63.03 1.93
8 1 -6 59.73 2.13
1 6 -8 63.99 2
6 8 -1 61.59 2.13
-1 -6 -8 63.33 1.93
8 1 -6 62.39 2.14
8 1 -6 62.98 1.94
8 -1 -6 65.59 1.98
8 -1 -6 63.06 1.95
6 -8 -1 61.57 2.11
-1 -6 8 62.07 2.28
-1 6 -8 64.19 1.94
1 -6 -8 63.58 2.28
-6 -8 1 63.92 2.15
6 -8 -1 60.57 2.12
8 1 6 64.03 2.03
8 -1 -6 63.15 2.18
-8 -1 6 61.38 2.09
1 -6 -8 61.31 1.99
6 8 1 61.4 2.14
6 -8 2 1.31 0.43
2 6 -8 1.96 0.34
-6 -8 -2 1.63 0.42
-2 -6 -8 2.24 0.5
8 2 -6 2.05 0.29
8 2 -6 1.73 0.52
8 2 -6 1.38 0.32
-8 2 6 2.64 0.45
2 -6 8 1.69 0.47
6 8 -2 1.91 0.46
6 8 -2 2.44 0.48
6 -8 2 1.52 0.4
-2 -6 -8 1.86 0.28
8 2 -6 1.81 0.42
8 2 6 2.37 0.43
6 8 2 2.03 0.46
-8 -2 6 1.76 0.41
8 -2 -6 1.82 0.37
-2 6 -8 1.9 0.29
8 -2 -6 1.76 0.32
-2 -6 8 1.54 0.46
-6 -8 2 1.5 0.44
2 -6 -8 1.6 0.36
2 -6 -8 1.77 0.51
8 -2 -6 1.48 0.44
6 -8 -2 1.56 0.43
6 -8 -2 1.61 0.42
6 -8 3 45.5 1.69
8 3 -6 42.97 1.63
-8 3 6 46.61 1.68
-6 -8 -3 45.41 1.66
8 3 -6 46.22 1.48
-3 -6 -8 44.13 1.74
3 6 -8 45.91 1.59
6 -8 3 43.65 1.65
6 8 -3 44.11 1.64
3 -6 8 43.86 1.73
8 3 6 42.29 1.62
6 -8 -3 45.26 1.65
-3 -6 8 44.66 1.78
3 -6 -8 43.84 1.76
-8 -3 6 46.14 1.64
8 -3 -6 42.8 1.68
-6 -8 3 44.65 1.7
8 -3 -6 46.09 1.58
8 -3 -6 45.49 1.52
6 -8 -3 43.88 1.67
8 4 -6 0.73 0.35
-4 -6 -8 0.91 0.4
8 -4 6 0.7 0.25
-6 -8 -4 1.5 0.39
8 4 -6 1.14 0.37
4 -6 8 0.88 0.44
6 8 -4 0.9 0.37
6 -8 4 0.21 0.35
8 4 -6 -0.04 0.27
4 6 -8 0.72 0.38
6 -8 -4 1 0.41
-6 -8 4 0.96 0.4
4 -6 -8 0.69 0.33
8 -4 -6 1.02 0.32
4 -6 -8 0.69 0.45
-4 -6 8 0.93 0.43
8 -4 -6 0.85 0.48
8 4 6 0.64 0.41
8 -4 -6 1.05 0.4
-8 -4 6 1.31 0.39
6 -8 -4 0.62 0.4
8 5 -6 31.26 1.34
5 6 -8 32.36 1.31
-6 -8 -5 31.96 1.35
-8 -5 -6 32.04 1.29
6 -8 5 33.67 1.37
6 8 -5 31.04 1.32
8 -5 6 32.06 1.18
8 5 -6 30.9 1.3
-5 -6 -8 34.63 1.42
8 5 -6 32.69 1.22
5 -6 8 33.01 1.39
6 -8 -5 33.21 1.39
8 -5 -6 31.41 1.25
-8 -5 6 32.31 1.36
6 -8 -5 32.52 1.33
5 -6 -8 32.14 1.31
-6 -8 5 33.57 1.45
8 5 6 31.38 1.32
-5 -6 8 31.55 1.43
8 -5 -6 31.64 1.37
8 6 -6 7.15 0.64
6 6 -8 7.72 0.62
6 8 -6 7.22 0.67
-6 -6 -8 8.49 0.72
8 6 -6 6.87 0.7
8 -6 6 7.55 0.61
-6 -8 -6 8.2 0.71
6 -6 8 7.8 0.75
6 -8 6 6.28 0.75
8 6 -6 8.07 0.7
-8 -6 -6 6.87 0.65
6 -6 -8 6.3 0.64
8 -6 -6 7.61 0.71
-6 -8 6 6.09 0.73
-8 -6 6 6.8 0.67
6 -6 -8 6.99 0.8
8 -6 -6 6.99 0.66
6 -8 -6 7.28 0.81
-6 -6 8 7.33 0.75
6 -8 -6 7.45 0.7
7 -6 8 0.47 0.44
8 7 -6 -0.37 0.33
6 8 -7 0.06 0.35
-7 -6 -8 0.88 0.45
-6 -8 -7 0.64 0.41
8 7 -6 0.26 0.4
7 6 -8 0.04 0.33
-8 -7 -6 0.58 0.39
6 -8 7 0.49 0.5
8 -7 6 0.05 0.37
-6 -8 7 -0.16 0.5
-7 -6 8 0.52 0.53
8 -7 -6 1.05 0.45
6 -8 -7 0.82 0.43
-8 -7 6 1.12 0.44
6 -8 -7 0.58 0.55
7 -6 -8 0.76 0.41
8 -7 -6 0.15 0.42
8 7 6 0.63 0.44
7 -6 -8 -0.21 0.45
8 0 -7 22.09 1.11
8 0 -7 24.1 0.96
0 -7 -8 23.48 1.22
7 -8 0 24.01 1.14
7 -8 0 23.7 1.05
0 -7 -8 24.81 0.93
7 8 0 22.25 1.08
8 0 -7 25.21 1.06
0 7 -8 24.08 0.92
-7 -8 0 23.92 1.08
7 8 0 24.22 0.88
0 -7 8 24.05 1.22
-8 0 7 23.44 1.1
-1 -7 -8 15.42 0.64
8 1 -7 14 0.69
8 1 -7 13.91 0.78
1 7 -8 13.39 0.7
-8 1 7 13.73 0.86
-1 -7 -8 15.28 0.96
7 8 -1 13.42 0.81
1 -7 8 14.46 0.99
7 -8 1 15.03 0.87
-7 -8 -1 13.49 0.81
7 8 -1 14.06 0.68
8 1 -7 13.98 0.87
7 -8 1 14.15 0.78
7 8 -1 14.52 0.76
8 -1 -7 13.46 0.7
8 -1 -7 14 0.83
7 -8 -1 14.31 0.8
7 -8 -1 14.74 0.85
-1 -7 8 14.09 0.98
-1 7 -8 14.3 0.65
1 -7 -8 14.09 0.69
1 -7 -8 12.71 0.92
-8 -1 7 13.61 0.84
-7 -8 1 14.63 0.83
8 -1 -7 14.15 0.84
-2 -7 -8 0.06 0.22
-8 2 7 0.04 0.34
7 -8 2 -0.14 0.32
7 8 -2 -0.48 0.32
8 2 -7 0.23 0.27
7 8 -2 0.39 0.3
7 8 -2 0.18 0.37
2 7 -8 -0.09 0.28
8 2 -7 0.64 0.37
-2 -7 -8 0.54 0.46
7 -8 2 0.14 0.35
8 2 -7 -0.23 0.39
-7 -8 -2 -0.04 0.33
-8 -2 7 0.24 0.33
7 -8 -2 0.11 0.31
-2 7 -8 0 0.26
7 -8 -2 0.24 0.35
-2 -7 8 0.23 0.43
8 -2 -7 -0.06 0.36
-7 -8 2 0.02 0.31
2 -7 -8 -0.1 0.28
8 -2 -7 -0.37 0.44
8 -2 -7 0.19 0.3
7 -8 3 0.43 0.34
-7 -8 -3 0.92 0.38
8 3 -7 0.7 0.38
8 3 -7 1.17 0.44
8 -3 7 1.07 0.26
7 8 -3 1.47 0.36
3 7 -8 1.38 0.35
7 8 -3 1.22 0.38
7 -8 3 1.03 0.43
-8 3 7 0.7 0.38
7 8 -3 2.02 0.42
-3 -7 -8 0.94 0.44
3 -7 -8 0.8 0.34
8 -3 -7 1.78 0.57
-3 -7 8 1.84 0.49
-7 -8 3 1.12 0.44
-8 -3 7 1.07 0.4
3 -7 -8 0.83 0.47
8 -3 -7 1.34 0.34
8 -3 -7 1.25 0.42
7 -8 -3 1.06 0.4
7 -8 -3 0.85 0.39
-4 -7 -8 39.21 1.69
4 7 -8 38.35 1.44
7 -8 4 37.26 1.53
-7 -8 -4 39.01 1.51
7 -8 4 37.7 1.47
7 8 -4 36.47 1.48
7 8 -4 36.22 1.48
-8 4 7 37.72 1.56
4 -7 8 37.22 1.6
8 -4 7 38.54 1.33
8 4 -7 38.08 1.5
8 4 -7 40.08 1.45
8 4 7 35.38 1.45
4 -7 -8 36.96 1.44
7 -8 -4 36.94 1.49
8 -4 -7 37.01 1.43
-4 -7 8 37.67 1.67
8 -4 -7 34.99 1.51
4 -7 -8 36.69 1.61
-7 -8 4 39.82 1.56
-8 -4 7 37.19 1.49
7 -8 -4 37.79 1.52
8 5 -7 -0.28 0.37
8 5 -7 0.84 0.51
7 8 -5 0.12 0.38
8 -5 7 0.8 0.35
5 -7 8 0.13 0.4
5 7 -8 -0.4 0.33
-8 -5 -7 0 0.35
7 -8 5 0.32 0.4
-5 -7 -8 0.07 0.44
-7 -8 -5 -0.08 0.39
-5 -7 8 0.33 0.42
8 -5 -7 0.19 0.4
7 -8 -5 0.79 0.39
-8 -5 7 -0.01 0.37
8 -5 -7 0.26 0.4
-7 -8 5 -0.59 0.38
8 5 7 0.19 0.41
5 -7 -8 -0.81 0.41
5 -7 -8 0.65 0.36
8 6 -7 0.12 0.39
-8 -6 -7 1.13 0.43
6 -7 8 0.11 0.48
6 7 -8 0.73 0.41
8 -6 7 -0.51 0.35
8 6 -7 0.38 0.45
7 8 -6 0.49 0.39
-6 -7 -8 0.22 0.45
-7 -8 -6 0.5 0.38
-8 -6 7 0.39 0.41
-7 -8 6 0.47 0.41
7 8 6 0.24 0.39
-6 -7 8 0.4 0.46
6 -7 -8 0.34 0.39
6 -7 -8 0.6 0.55
8 -6 -7 1 0.45
8 -6 -7 -0.22 0.41
7 -8 -6 0.77 0.41
7 -8 -6 -0.1 0.47
-8 -7 -7 23 1.16
8 7 -7 20.14 1.12
-7 -8 -7 22.47 1.16
7 -7 8 21.23 1.15
-7 -7 -8 22.74 1.22
8 -7 7 21.89 1.1
8 7 -7 20.38 1.13
7 8 -7 21.39 1.09
7 -8 7 23.03 1.18
7 7 -8 21.37 1.09
7 -7 -8 22.16 1.25
-7 -8 7 21.52 1.26
7 -7 -8 22.74 1.16
7 -8 -7 22.42 1.26
8 -7 -7 21.44 1.19
8 -7 -7 22.96 1.18
-7 -7 8 21.43 1.25
-8 -7 7 23.42 1.19
7 -8 -7 22.13 1.13
-8 -8 0 44.06 1.63
-8 0 8 46.2 1.71
0 -8 -8 42.62 1.43
0 -8 -8 37.91 1.76
0 -8 8 41.94 1.81
0 8 -8 44.38 1.45
8 -8 0 41.98 1.69
8 -8 0 42.86 1.56
8 0 -8 41.83 1.67
8 0 -8 40.19 1.64
8 0 -8 45.17 1.56
8 8 0 43.98 1.42
-8 -8 -1 1.74 0.43
8 1 -8 2 0.47
8 1 -8 1.08 0.52
-8 1 8 1.22 0.47
-1 -8 -8 1.31 0.3
8 -8 1 1.63 0.39
8 1 -8 1.91 0.39
8 8 -1 2.11 0.37
1 -8 8 2.12 0.53
1 8 -8 1.74 0.36
8 -8 1 1.6 0.43
8 -8 -1 1.16 0.39
8 -8 -1 1.25 0.44
-1 8 -8 1.99 0.32
8 -1 -8 0.91 0.45
8 -1 -8 1.61 0.42
-8 -8 1 0.91 0.39
-8 -1 8 1.02 0.44
1 -8 -8 2 0.36
1 -8 -8 1.51 0.54
-1 -8 8 1.67 0.48
8 8 1 1.89 0.3
-8 -8 -2 132.93 4.06
8 2 -8 129.98 4.12
8 2 -8 125.9 4.01
-8 2 8 130.82 4.14
-2 -8 -8 126.4 3.78
-2 -8 -8 128.47 4.27
8 -8 2 128.18 4.13
8 8 -2 132.46 3.92
8 8 -2 131.21 3.84
2 8 -8 138.51 3.99
8 8 -2 131.17 4.15
8 -8 2 134.92 4
8 -2 8 135.07 3.87
8 -8 -2 131.63 4.02
8 -2 -8 136.8 4.17
8 -2 -8 133.27 4.02
-2 -8 8 125.28 4.26
-8 -8 2 137.14 4.09
-8 -2 8 135.4 4.15
2 -8 -8 129.79 3.95
2 -8 -8 130.43 4.26
8 -8 -2 130.38 4.13
-8 -8 -3 400.57 11.18
8 3 -8 416.54 11.23
-8 3 8 388.9 11.28
-3 -8 -8 393.97 11.36
8 3 -8 390.36 11.24
8 -8 3 390.46 11.1
8 8 -3 386.35 10.98
3 -8 8 378.85 11.34
8 8 -3 375.55 11.24
8 -3 8 400.44 11.02
8 -8 3 368.37 11.23
8 -8 -3 395.13 11.16
8 -3 -8 397.38 11.28
8 -3 -8 392.39 11.15
3 -8 -8 390.78 11.1
-3 -8 8 344.4 11.53
-8 -8 3 401.01 11.22
-8 -3 8 400.44 11.28
3 -8 -8 379.48 11.38
8 -8 -3 387.07 11.25
-8 -8 -4 0.07 0.38
8 4 -8 0.29 0.36
8 8 -4 -0.02 0.39
-8 4 8 0.19 0.49
-4 -8 -8 1.2 0.47
8 4 -8 0.34 0.46
8 -8 4 0.36 0.4
4 -8 8 0.32 0.47
4 8 -8 0.98 0.36
8 8 -4 0.16 0.4
8 -8 4 0.84 0.47
8 -4 8 0.87 0.36
8 -8 -4 0.74 0.45
8 -4 -8 0.61 0.44
4 -8 -8 0.76 0.62
4 -8 -8 1.09 0.38
-8 -8 4 0.31 0.45
-8 -4 8 0.03 0.44
8 -4 -8 0.01 0.4
8 -8 -4 0.3 0.43
-8 -8 -5 3.15 0.56
8 5 -8 3.2 0.59
-8 -5 -8 3.17 0.55
8 8 -5 2.86 0.52
-5 -8 -8 2.75 0.63
8 8 -5 2.96 0.56
8 5 -8 2.23 0.49
5 -8 8 3.09 0.65
5 8 -8 3.12 0.49
8 -5 8 2.27 0.46
8 -8 5 3.2 0.53
8 -5 -8 3.05 0.56
8 -8 -5 3.71 0.6
-8 -8 5 3.37 0.61
5 -8 -8 3.24 0.64
-8 -5 8 3.32 0.56
5 -8 -8 2.9 0.49
8 8 5 2.5 0.56
-8 -8 -6 2.39 0.54
8 6 -8 1.98 0.49
-8 -6 -8 2.11 0.52
8 8 -6 2.26 0.49
-6 -8 -8 2.12 0.54
8 6 -8 1.86 0.59
8 8 -6 2.28 0.53
8 -6 8 1.83 0.5
6 -8 8 1.61 0.58
6 8 -8 2.17 0.48
8 -8 6 2.23 0.62
8 -8 -6 2.68 0.58
8 -8 -6 0.97 0.46
8 -6 -8 3.07 0.58
8 -6 -8 2.19 0.58
6 -8 -8 1.7 0.65
-6 -8 8 0.91 0.59
-8 -8 6 1.83 0.55
6 -8 -8 2.3 0.5
-8 -6 8 2.3 0.57
8 8 6 2.66 0.54
-8 -8 -7 22.94 1.22
8 7 -8 20.96 1.12
-8 -7 -8 22.55 1.21
8 8 -7 22.96 1.15
-7 -8 -8 23.91 1.29
8 7 -8 18.96 1.22
8 8 -7 20.66 1.13
8 -7 8 21.78 1.13
7 -8 8 21.4 1.21
7 8 -8 21.46 1.12
8 -8 7 21.32 1.12
8 -8 -7 22.91 1.25
8 -8 -7 22.85 1.2
8 -7 -8 21.4 1.21
8 -7 -8 21.52 1.23
7 -8 -8 22.5 1.32
-7 -8 8 19.03 1.33
-8 -8 7 24.19 1.3
7 -8 -8 20.84 1.13
-8 -7 8 22.62 1.23
-8 -8 -8 283.33 8.52
8 8 -8 277.69 8.48
8 8 -8 288.88 8.57
8 -8 8 293.57 8.45
8 -8 -8 288.78 8.56
-8 -8 8 289.42 8.68
8 -8 -8 290.38 8.56
-9 0 0 133.06 3.67
-9 0 0 128.22 3.67
0 -9 0 127.64 4.07
0 0 9 128.4 4.09
0 9 0 132.31 3.88
9 0 0 127.22 3.91
9 0 0 137.82 3.93
1 0 9 21.46 1.09
9 -1 0 22.45 0.99
9 -1 0 24.07 0.96
9 1 0 23.45 0.97
9 1 0 23.78 0.97
0 -9 -1 23.09 1.11
0 -9 1 22.11 1.1
0 9 -1 22.72 0.9
-1 0 9 23.05 1.12
-9 -1 0 23.27 0.68
2 0 9 43.28 1.7
0 9 -2 45.76 1.5
0 -9 2 44.82 1.72
-2 0 9 44.13 1.74
0 -9 -2 44.55 1.48
0 -9 -2 44.61 1.76
9 -2 0 48.33 1.54
9 2 0 45.1 1.54
9 2 0 43.53 1.59
9 -2 0 45.84 1.63
-9 -2 0 45.75 1.33
0 -9 -3 49.3 1.89
0 -9 3 49.76 1.89
0 9 -3 51.73 1.63
9 -3 0 47.9 1.77
-9 -3 0 47.79 1.51
-3 0 9 50.82 1.91
3 0 9 51.03 1.84
9 3 0 51.41 1.67
9 3 0 47.72 1.75
0 -9 -3 51.8 1.61
9 -3 0 52.35 1.65
9 4 0 186.15 5.19
4 0 -9 178.35 5.32
0 -9 4 169.22 5.44
4 0 9 179.82 5.37
0 9 -4 179.52 5.15
9 4 0 175.4 5.33
0 -9 -4 181.1 5.48
9 -4 0 182.73 5.17
-4 0 9 178.81 5.45
0 -9 -4 180.49 5.14
-9 -4 0 177.63 5.11
9 -4 0 172.16 5.33
9 5 0 118.93 3.43
0 9 -5 117.33 3.4
0 -9 5 112.57 3.73
5 0 -9 109.64 3.57
9 -5 0 118.59 3.4
9 -5 0 115.8 3.61
-5 0 9 115.41 3.69
0 -9 -5 110.34 3.71
5 0 9 117.47 3.58
9 5 0 110.59 3.59
-9 -5 0 112.24 3.39
0 -9 -5 114.41 3.37
0 -9 -6 2.9 0.55
0 -9 6 1.36 0.55
-6 0 9 2.46 0.48
0 9 -6 3.07 0.42
6 0 -9 2.58 0.47
6 0 9 2.3 0.41
9 -6 0 2.36 0.53
9 -6 0 2.33 0.28
9 -6 0 2.54 0.36
9 6 0 2.48 0.39
-9 -6 0 2.28 0.37
0 -9 -6 2.32 0.34
0 -9 -7 65.42 2.48
9 -7 0 66.78 2.37
0 -9 -7 68.33 2.09
9 -7 0 66.78 2.1
9 -7 0 70.35 2.1
9 7 0 67.93 2.11
-7 0 9 66.93 2.39
9 -7 0 68.21 2.13
-9 -7 0 65.49 2.21
7 0 -9 65.06 2.35
7 0 -9 69.26 2.34
0 -9 7 68.25 2.52
0 9 -7 68.26 2.11
-9 -8 0 3.08 0.48
0 -9 -8 1.66 0.53
0 -9 8 2.37 0.6
0 9 -8 2.3 0.38
8 0 -9 1.84 0.5
0 -9 -8 2.52 0.38
9 -8 0 2.11 0.41
9 -8 0 3.33 0.59
-8 0 9 2.24 0.57
8 0 -9 1.97 0.54
9 -8 0 2.09 0.52
9 -8 0 2.38 0.39
9 8 0 2.44 0.42
9 0 1 23.04 0.95
-9 0 1 22.28 0.75
9 0 -1 23.78 1
1 9 0 23.36 0.96
1 -9 0 22 1.09
0 1 9 23.38 1.15
0 -1 9 22.56 1.11
9 0 -1 24.44 0.97
9 0 1 23.97 1
-1 -9 0 21.64 1.11
-9 0 -1 22.61 0.69
9 1 -1 10.71 0.66
-1 1 9 10.82 0.84
1 -9 1 10.49 0.76
-9 1 1 11.82 0.49
-1 -9 -1 10.83 0.77
9 1 -1 11.31 0.64
9 -1 1 12.05 0.62
9 -1 1 11.13 0.68
1 9 -1 11.52 0.62
1 -1 9 10.88 0.82
1 -9 -1 11.45 0.62
9 1 1 10.59 0.66
-9 -1 1 11.44 0.43
1 9 1 11.65 0.64
9 -1 -1 11.83 0.66
1 -9 -1 11.21 0.77
9 1 1 11.02 0.67
-1 -9 1 9.98 0.75
-1 -1 9 11.34 0.81
1 1 9 10.83 0.78
9 2 -1 43.24 1.51
1 -9 2 42.94 1.66
1 9 -2 43.44 1.46
-9 -2 -1 43.54 1.26
2 -1 9 44.09 1.68
-2 1 9 42.28 1.68
-1 -9 -2 41.25 1.66
9 -2 1 44.01 1.46
9 -2 1 40.89 1.55
9 2 -1 43.3 1.56
1 -9 -2 43.3 1.45
9 2 1 41.78 1.53
-9 -2 1 43.56 1.32
-1 -9 2 40.96 1.66
-1 9 -2 43.86 1.42
9 -2 -1 43.26 1.56
9 -2 -1 43.52 1.49
1 -9 -2 43.57 1.68
9 2 1 44.59 1.47
-2 -1 9 40.66 1.67
2 1 9 44.37 1.69
9 -3 1 32.92 1.29
3 -1 9 32.38 1.36
9 -3 1 31.69 1.13
-9 -3 -1 30.42 0.99
1 9 -3 31.01 1.13
-3 1 9 30.07 1.37
-1 -9 -3 30.26 1.35
9 3 -1 31.13 1.18
1 -9 3 28.83 1.34
1 -9 -3 30.9 1.37
3 -1 -9 30.92 1.23
9 -3 -1 30.75 1.27
9 -3 -1 32.54 1.16
-1 -9 3 31.45 1.39
9 3 1 30.31 1.25
3 1 9 30.68 1.33
-1 9 -3 32.18 1.09
-3 -1 9 31.48 1.38
9 3 1 32.24 1.13
-9 -3 1 31.96 1.04
1 -9 -3 30.77 1.13
9 -4 1 0.69 0.39
1 -9 4 1.1 0.43
4 -1 9 1.11 0.39
-4 1 9 1.52 0.45
1 9 -4 1.5 0.33
-9 -4 -1 1.24 0.27
-1 -9 -4 1.26 0.27
-1 -9 -4 1.22 0.44
9 4 -1 1.4 0.36
9 -4 1 1.59 0.33
9 4 -1 0.76 0.39
-9 -4 1 1.25 0.27
-1 9 -4 1.21 0.3
-1 -9 4 0.91 0.47
9 -4 -1 0.87 0.4
4 1 9 1.27 0.42
9 4 1 1.02 0.33
9 -4 -1 1.58 0.34
1 -9 -4 0.97 0.41
-4 -1 9 1.34 0.46
9 4 1 1.68 0.44
4 -1 -9 1.13 0.39
1 -9 -4 1.34 0.32
-9 -5 -1 39.46 1.31
-5 1 9 37.09 1.57
9 -5 1 39.57 1.28
9 5 -1 38.8 1.36
1 -9 5 35.7 1.58
5 -1 9 38.56 1.49
5 1 -9 37.05 1.48
9 5 -1 37 1.49
9 -5 1 36.57 1.5
-1 -9 -5 37.88 1.6
-1 -9 -5 37.79 1.24
1 9 -5 38.42 1.34
-1 9 -5 39.26 1.27
9 -5 -1 39.11 1.53
-1 -9 5 37.39 1.59
5 -1 -9 39.94 1.5
9 5 1 39.88 1.31
-5 -1 9 39.52 1.61
9 -5 -1 38.55 1.34
5 1 9 37.86 1.46
1 -9 -5 39.73 1.62
9 5 1 36.83 1.47
-9 -5 1 38.83 1.33
1 -9 -5 37.19 1.32
9 -6 1 0.68 0.42
9 -6 1 0.58 0.31
1 9 -6 0.74 0.3
6 -1 9 0.25 0.33
6 1 -9 0.17 0.37
-1 -9 -6 0.29 0.42
9 -6 1 0.44 0.18
-9 -6 -1 0.2 0.29
-1 -9 -6 0.7 0.26
-6 1 9 0.29 0.45
9 6 -1 -0.64 0.32
9 -6 -1 0.43 0.39
6 -1 -9 0.61 0.37
1 -9 -6 0.62 0.71
-9 -6 1 0.38 0.31
9 -6 -1 0.62 0.21
9 6 1 0.35 0.35
9 -6 -1 0.9 0.31
-1 9 -6 0.6 0.27
-1 -9 6 -0.1 0.43
1 -9 -6 0.83 0.31
6 -1 -9 0.26 0.35
9 6 1 0.78 0.3
-6 -1 9 0.32 0.42
9 7 -1 0.13 0.33
7 -1 9 -0.11 0.32
9 -7 1 0.36 0.35
1 -9 7 -0.38 0.42
9 -7 1 -0.46 0.36
1 9 -7 -0.05 0.29
-1 -9 -7 -0.02 0.26
7 1 -9 0.16 0.36
-9 -7 -1 -0.22 0.3
9 -7 1 -0.31 0.47
9 -7 1 0.21 0.24
-7 1 9 -0.51 0.42
-9 -7 1 -0.41 0.31
9 -7 -1 -0.56 0.37
-1 -9 7 -0.33 0.38
9 -7 -1 -0.42 0.38
9 7 1 0.02 0.31
7 -1 -9 -0.14 0.36
9 -7 -1 0.13 0.26
-1 9 -7 0.01 0.29
1 -9 -7 -0.29 0.29
1 -9 -7 -0.14 0.46
-7 -1 9 -0.1 0.42
7 -1 -9 0.13 0.41
-9 -8 -1 27.32 1.15
9 8 -1 25.49 1.06
8 1 -9 26.9 1.3
9 -8 1 23.62 1.25
9 -8 1 27.57 1.07
9 -8 1 26.07 1.19
8 1 -9 28.4 1.19
1 9 -8 25.55 1.05
-1 -9 -8 24.63 0.95
1 -9 8 23.28 1.41
-8 1 9 26.12 1.27
-1 -9 -8 25.55 1.34
8 -1 -9 26.93 1.3
8 -1 -9 27.89 1.21
-1 -9 8 23.76 1.34
-1 9 -8 26.23 0.98
9 -8 -1 26.58 1.1
1 -9 -8 27.53 1.41
-8 -1 9 28.01 1.28
9 -8 -1 24.95 1.27
1 -9 -8 26.12 1.05
-9 -8 1 24.74 1.18
9 0 2 44.15 1.54
2 -9 0 44.92 1.55
9 0 2 46.69 1.54
-9 0 2 39.49 1.42
9 0 -2 40.56 1.67
2 9 0 45.26 1.54
-2 -9 0 45.14 1.69
0 -2 9 45.02 1.74
0 2 9 44.14 1.72
-9 0 -2 43.23 1.31
2 -9 0 45.26 1.7
9 0 -2 45.07 1.56
-1 2 9 41.7 1.67
-9 1 2 43.97 1.37
-9 -1 -2 42.83 1.26
9 -1 2 42.14 1.51
1 -2 9 41.76 1.65
2 9 -1 42.52 1.49
9 -1 2 46.15 1.46
9 1 -2 41.43 1.54
9 1 -2 42.26 1.53
-2 -9 -1 41.88 1.64
2 -9 1 40.16 1.63
-1 -2 9 42.03 1.68
-2 -9 1 42.32 1.64
1 -2 -9 42.43 1.49
9 -1 -2 43.79 1.58
1 2 9 41.65 1.67
-9 -1 2 43.16 1.33
9 1 2 43.83 1.5
2 9 1 42.16 1.53
9 -1 -2 42.22 1.49
2 -9 -1 41.09 1.46
2 -9 -1 42.33 1.65
9 1 2 42.64 1.46
2 -9 2 58.54 2.17
9 -2 2 57.23 2.19
-2 2 9 60.23 2.21
9 2 -2 61.67 2.04
9 -2 2 65.75 1.96
2 -2 9 62.31 2.18
-2 -9 -2 62.75 2.2
9 2 -2 64.35 2.1
2 9 -2 62.07 2.01
-2 -2 9 61.56 2.21
-2 -9 2 60.36 2.18
9 2 2 65.91 1.98
9 2 2 62.98 2.06
9 -2 -2 64.37 2.03
9 -2 -2 62.22 2.1
2 -9 -2 59.06 1.99
2 -9 -2 60.1 2.18
2 9 2 59.68 2.05
2 2 9 60.64 2.17
2 9 -3 0.19 0.27
-2 -9 -3 0.93 0.4
-9 -3 -2 0.83 0.21
9 3 -2 0.35 0.34
-3 2 9 0.29 0.39
9 -3 2 0.35 0.29
2 -9 3 0.29 0.37
9 -3 2 0.77 0.37
9 3 -2 0.52 0.35
3 -2 9 0.15 0.37
3 2 9 0.35 0.36
-2 -9 3 0.41 0.38
2 -9 -3 0.39 0.3
2 -9 -3 0.53 0.44
-3 -2 9 0.72 0.42
9 3 2 0.65 0.31
9 3 2 0.9 0.37
3 -2 -9 1.07 0.35
-9 -3 2 0.58 0.24
9 -3 -2 0.56 0.32
9 -3 -2 1.06 0.38
9 4 -2 73.72 2.4
4 -2 9 75.17 2.55
9 -4 2 75.63 2.5
2 -9 4 73.37 2.6
9 4 -2 70.08 2.49
-2 -9 -4 79.84 2.66
9 -4 2 77.5 2.3
-4 2 9 71.98 2.6
-9 -4 -2 76.13 2.29
2 9 -4 77.68 2.4
9 -4 -2 78.47 2.41
9 4 2 79.81 2.33
9 -4 -2 76.7 2.55
-9 -4 2 76.69 2.34
-4 -2 9 78.94 2.64
4 2 9 77.6 2.53
2 -9 -4 76.36 2.39
-2 -9 4 71.03 2.59
9 4 2 74.85 2.51
2 -9 -4 75.33 2.63
4 -2 -9 77.57 2.5
-5 2 9 1.23 0.44
9 -5 2 0.57 0.39
5 -2 9 1.08 0.41
2 9 -5 1.44 0.33
2 -9 5 0.62 0.44
9 5 -2 1.64 0.36
-2 -9 -5 0.12 0.39
-9 -5 -2 0.91 0.28
5 2 -9 0.89 0.38
9 -5 -2 0.83 0.16
-2 -9 5 0.88 0.46
9 5 2 0.88 0.31
-5 -2 9 0.61 0.4
5 -2 -9 0.8 0.38
9 5 2 0.55 0.36
2 -9 -5 0.82 0.32
-9 -5 2 1.06 0.31
9 -5 -2 0.41 0.42
2 -9 -5 0.54 0.41
5 -2 -9 0.51 0.36
6 2 -9 0.92 0.42
9 -6 2 1.5 0.2
2 -9 6 1.42 0.57
-6 2 9 1.25 0.47
-9 -6 -2 1.45 0.34
-2 -9 -6 0.93 0.49
6 -2 9 1.7 0.4
9 6 -2 1.4 0.39
9 -6 2 1.83 0.45
2 9 -6 1.44 0.34
9 -6 -2 1.92 0.27
9 6 2 1.58 0.3
9 6 2 1.44 0.4
9 -6 -2 1.06 0.29
6 -2 -9 1.33 0.46
-2 -9 6 1.46 0.5
6 -2 -9 1.05 0.41
2 -9 -6 1.73 0.57
-9 -6 2 1.42 0.37
-6 -2 9 1.54 0.46
9 -6 -2 1.31 0.43
2 -9 -6 1.15 0.34
2 9 -7 30.63 1.18
-7 2 9 33.06 1.45
9 -7 2 29.31 1.13
-9 -7 -2 31.39 1.23
7 2 -9 31.24 1.37
9 7 -2 30.29 1.19
9 -7 2 31.4 1.1
9 -7 2 28.72 1.36
-2 -9 -7 26.42 1.62
2 -9 7 30.57 1.46
7 -2 9 32.07 1.25
2 -9 -7 29.91 1.2
-9 -7 2 30.28 1.26
9 -7 -2 30.34 1.36
2 -9 -7 30.49 1.47
-2 -9 7 29.29 1.44
9 -7 -2 30.53 1.14
9 -7 -2 32.83 1.23
7 -2 -9 31.84 1.37
-7 -2 9 30.89 1.42
7 -2 -9 32.17 1.37
-9 -8 -2 0.62 0.4
9 -8 2 1.05 0.37
9 8 -2 0.15 0.31
8 2 -9 0.76 0.5
2 -9 8 -0.23 0.57
2 9 -8 1.07 0.38
9 -8 2 0.39 0.5
8 -2 9 0.86 0.36
-8 2 9 -0.05 0.49
-2 -9 -8 0.22 0.5
9 8 -2 1.07 0.4
9 -8 -2 0.89 0.47
8 -2 -9 0.62 0.48
-9 -8 2 0.87 0.44
8 -2 -9 0.5 0.47
-8 -2 9 0.55 0.45
-2 -9 8 1.07 0.5
9 -8 -2 0.74 0.37
2 -9 -8 0.93 0.54
0 -3 9 49.23 1.89
0 3 9 48.13 1.85
3 -9 0 48.32 1.82
-3 -9 0 48.98 1.82
9 0 -3 44.77 1.68
-9 0 3 49.48 1.57
3 9 0 48.58 1.69
9 0 3 47.83 1.65
9 0 3 51.63 1.66
9 0 -3 50.29 1.74
0 -3 -9 50.29 1.64
1 -3 9 29.87 1.32
9 -1 3 29.78 1.18
-3 -9 -1 30.67 1.3
-1 3 9 29.26 1.34
9 -1 3 31.01 1.12
3 9 -1 29.51 1.17
9 1 -3 28.41 1.21
3 -9 1 29.16 1.29
-9 1 3 29.64 1.07
3 -9 1 30.44 1.21
9 1 -3 31.73 1.24
-3 -9 1 30.73 1.3
9 1 3 30.53 1.16
1 3 9 28.96 1.32
9 -1 -3 31 1.24
9 -1 -3 30.25 1.18
-9 -1 3 28.87 1.04
3 -9 -1 29.94 1.18
3 -9 -1 29.36 1.29
-1 -3 9 30.94 1.36
3 9 1 29.4 1.18
1 -3 -9 29.03 1.14
9 1 3 30.64 1.13
3 9 -2 0.88 0.31
9 2 -3 0.42 0.36
-2 3 9 0.95 0.41
-9 2 3 0.2 0.28
3 -9 2 0.27 0.38
-3 -9 -2 0.61 0.41
9 -2 3 0.16 0.37
9 -2 3 0.69 0.3
2 -3 9 0.86 0.42
9 2 -3 0.51 0.35
9 2 3 0.9 0.32
3 9 2 0.82 0.43
2 3 9 0.89 0.4
-9 -2 3 0.76 0.25
2 -3 -9 0.66 0.38
3 -9 -2 0.82 0.44
9 2 3 0.97 0.35
3 -9 -2 0.7 0.33
-2 -3 9 0.98 0.43
9 -2 -3 0.48 0.35
9 -2 -3 0.88 0.35
-3 -9 2 0.11 0.38
-3 3 9 85.44 2.9
3 -9 3 85.05 2.85
9 -3 3 82.46 2.72
3 -3 9 84.44 2.84
9 3 -3 85.15 2.77
3 9 -3 82.51 2.68
9 3 -3 79.15 2.81
-3 -9 -3 85.21 2.86
9 -3 3 90.27 2.57
9 3 3 86.96 2.58
3 9 3 82.97 2.76
9 -3 -3 85.16 2.79
3 -3 -9 85.39 2.86
-3 -3 9 85.98 2.9
3 -3 -9 89.15 2.73
-9 -3 3 88.09 2.61
-3 -9 3 85.53 2.86
9 -3 -3 88.02 2.7
3 -9 -3 83.78 2.89
9 3 3 87.27 2.75
3 -9 -3 83.75 2.67
-9 -4 -3 17.75 0.72
-4 3 9 16.24 0.99
9 -4 3 15.96 0.91
9 4 -3 17.09 0.91
3 9 -4 16.96 0.82
9 4 -3 13.53 1.11
4 -3 9 16.07 0.9
3 -9 4 15.33 0.95
-3 -9 -4 16.8 0.96
9 4 3 18.1 0.93
-9 -4 3 16.88 0.77
9 4 3 16.87 0.72
-3 -9 4 15.56 1
4 -3 -9 16.55 0.96
-4 -3 9 16.02 0.98
9 -4 -3 17.6 0.93
4 -3 -9 16.77 0.88
3 -9 -4 16.62 0.84
3 -9 -4 17.12 0.99
3 9 -5 40.3 1.44
-9 -5 -3 39.92 1.38
5 -3 9 41.35 1.57
3 -9 5 37.12 1.62
9 -5 3 39.75 1.55
-5 3 9 39.47 1.65
9 5 -3 36.15 1.55
-3 -9 -5 41.76 1.65
5 -3 -9 42.9 1.57
9 5 3 39.59 1.53
3 -9 -5 34.18 1.78
9 -5 -3 40.82 1.27
5 -3 -9 41.46 1.64
9 -5 -3 42.23 1.59
-9 -5 3 43.31 1.46
-5 -3 9 41.55 1.65
-3 -9 5 38.93 1.64
9 5 3 38.32 1.27
3 -9 -5 36.16 1.52
3 9 -6 5.05 0.52
6 3 -9 6.19 0.63
9 -6 3 4.82 0.64
9 -6 3 5.39 0.35
6 3 -9 5 0.55
-6 3 9 6.19 0.7
3 -9 6 4.48 0.65
6 -3 9 6 0.68
-9 -6 -3 5.73 0.54
-3 -9 -6 4.95 0.7
9 6 -3 5.49 0.59
6 -3 -9 5.35 0.61
-9 -6 3 5.97 0.59
6 -3 -9 6.68 0.71
9 -6 -3 5.18 0.65
9 -6 -3 5.56 0.44
9 -6 -3 5.53 0.55
9 6 3 4.94 0.6
3 -9 -6 6.28 0.58
-3 -9 6 5.3 0.72
3 -9 -6 6.17 0.74
-6 -3 9 6.07 0.76
-3 -9 -7 38.72 1.65
-9 -7 -3 38.08 1.43
-7 3 9 38.04 1.62
9 -7 3 38.08 1.61
7 3 -9 35.14 1.55
9 7 -3 35.76 1.39
7 -3 9 40.54 1.48
3 -9 7 35.74 1.64
7 3 -9 36.44 1.51
9 -7 3 38 1.3
-7 -3 9 40.7 1.62
-3 -9 7 34.48 1.64
3 -9 -7 37.36 1.68
7 -3 -9 35.07 1.69
9 -7 -3 39 1.37
9 -7 -3 37.13 1.46
-9 -7 3 39.77 1.48
9 -7 -3 36.27 1.57
3 -9 -7 37.1 1.41
7 -3 -9 38.51 1.56
8 3 -9 34.85 1.51
3 -9 8 33.98 1.66
3 9 -8 35.58 1.38
9 8 -3 36.28 1.54
8 -3 9 38.53 1.37
9 8 -3 35.08 1.38
-3 -9 -8 37.98 1.69
-9 -8 -3 36.92 1.46
9 -8 3 36.62 1.6
8 3 -9 35.48 1.61
-8 3 9 38.77 1.61
9 -8 3 38.12 1.36
3 -9 -8 34.87 1.39
9 -8 -3 36.67 1.41
-9 -8 3 37.48 1.5
9 -8 -3 37.06 1.58
-3 -9 8 35.22 1.65
8 -3 -9 36.09 1.58
9 8 3 34.25 1.57
3 -9 -8 35.88 1.75
-8 -3 9 36.86 1.63
9 0 4 174.46 5.08
-9 0 4 175.42 5.06
-4 -9 0 177.63 5.27
4 -9 0 175.73 5.28
9 0 -4 173.8 5.19
9 0 -4 150.63 5.25
0 -4 9 178.32 5.35
9 0 4 177.34 5.07
0 -4 -9 181.24 5.07
0 4 9 172.76 5.31
4 -9 0 169.85 5.15
-1 4 9 1.04 0.44
-1 -4 -9 0.98 0.31
4 -9 1 0.61 0.37
4 -9 1 0.78 0.41
4 9 -1 1.92 0.37
9 -1 4 1.61 0.35
9 -1 4 1.42 0.4
-4 -9 -1 1.05 0.42
-9 1 4 0.88 0.3
1 -4 9 1.28 0.44
9 1 -4 1.58 0.41
9 1 -4 1.24 0.39
-4 -9 1 1.45 0.46
9 1 4 1.58 0.37
4 -9 -1 1.63 0.43
1 -4 -9 1.6 0.36
4 -9 -1 0.64 0.37
-9 -1 4 1.61 0.32
9 -1 -4 1.13 0.42
4 9 1 0.83 0.37
1 -4 -9 1.1 0.4
-1 -4 9 1.25 0.46
9 1 4 0.92 0.35
-9 2 4 76.14 2.37
4 -9 2 72.6 2.53
9 2 -4 70.96 2.44
4 -9 2 71.96 2.43
9 -2 4 73.36 2.4
-2 -4 -9 77.31 2.28
-2 4 9 74.5 2.59
4 9 -2 71.75 2.41
-4 -9 -2 75.74 2.53
9 2 -4 71.97 2.42
9 -2 4 79.21 2.28
2 -4 9 72.45 2.55
9 -2 -4 72.74 2.43
9 -2 -4 78.06 2.5
4 9 2 71.37 2.44
4 -9 -2 71.9 2.52
9 2 4 75.14 2.39
2 -4 -9 72.49 2.56
2 -4 -9 74.57 2.4
4 -9 -2 74.29 2.41
-9 -2 4 73.84 2.31
9 2 4 76.75 2.3
-2 -4 9 74.87 2.6
-4 -9 2 72.8 2.52
-4 -9 -3 16.35 0.99
-3 4 9 16.61 1.01
9 3 -4 16.51 0.86
4 -9 3 15.6 0.96
4 9 -3 15.81 0.82
9 3 -4 17.14 0.88
9 -3 4 16.79 0.91
3 -4 9 16.01 0.94
-3 -4 -9 17.99 0.71
9 -3 4 17.39 0.71
9 3 4 16.75 0.76
-4 -9 3 16.89 1
-9 -3 4 16.95 0.78
9 -3 -4 16.35 0.91
9 3 4 15.54 0.92
-3 -4 9 16.55 1
4 -9 -3 16.16 0.86
4 -9 -3 15.82 0.95
3 -4 -9 17.2 0.85
3 -4 -9 16.52 0.97
4 9 3 15.78 0.88
-4 -9 -4 152.05 4.63
9 -4 4 144.64 4.51
9 4 -4 141.34 4.45
4 -4 9 148.42 4.59
4 4 -9 157.04 4.53
-4 4 9 149.24 4.69
4 -9 4 147.23 4.62
-9 -4 -4 148.85 4.35
4 -4 -9 147.15 4.5
-4 -9 4 152.73 4.65
9 -4 -4 147.14 4.24
-9 -4 4 155.8 4.44
4 -9 -4 146.04 4.45
4 -9 -4 146.59 4.64
9 4 4 156.14 4.28
4 9 4 136 4.51
9 -4 -4 146.47 4.57
-4 -4 9 151.91 4.68
4 -4 -9 152.99 4.67
9 4 4 144.14 4.5
-9 -5 -4 1.33 0.32
9 -5 4 0.93 0.44
9 5 -4 0.98 0.36
5 -4 9 0.79 0.43
-4 -9 -5 0.44 0.39
4 9 -5 0.62 0.33
-5 4 9 0.52 0.44
5 4 -9 0.46 0.31
4 -9 -5 0.32 0.34
9 -5 -4 0.75 0.25
5 -4 -9 0.51 0.39
9 -5 -4 0.77 0.32
4 -9 -5 0.94 0.5
-9 -5 4 0.87 0.37
5 -4 -9 0.77 0.48
9 5 4 0.67 0.37
-4 -9 5 0.76 0.41
-5 -4 9 0.73 0.43
9 -5 -4 0.31 0.4
-4 -9 -6 5.5 0.69
4 9 -6 3.83 0.53
6 -4 9 5.88 0.68
9 6 -4 4.12 0.54
9 -6 4 3.78 0.58
6 4 -9 5.34 0.59
4 -9 6 4.75 0.69
-9 -6 -4 4.17 0.54
-6 4 9 3.96 0.66
9 -6 4 4.15 0.37
-9 -6 4 4.89 0.59
-4 -9 6 3.42 0.63
4 -9 -6 4.13 0.52
4 -9 -6 3.92 0.65
9 -6 -4 4.35 0.49
-6 -4 9 4.68 0.68
6 -4 -9 3.36 0.71
9 -6 -4 4.63 0.62
9 -6 -4 5.27 0.65
6 -4 -9 4.67 0.6
4 9 -7 29.97 1.29
4 -9 7 30.38 1.46
9 7 -4 30.95 1.26
7 4 -9 30.22 1.39
9 7 -4 30.45 0.98
7 4 -9 32.78 1.37
-7 4 9 31.77 1.51
9 -7 4 28.95 1.45
-9 -7 -4 32.4 1.3
7 -4 9 33.23 1.35
9 -7 4 31.64 1.16
-4 -9 -7 30.68 1.45
-9 -7 4 34.29 1.37
-4 -9 7 26.79 1.67
9 -7 -4 31.71 1.24
7 -4 -9 32.82 1.44
4 -9 -7 30.2 1.25
4 -9 -7 29.44 1.51
9 -7 -4 31.42 1.43
7 -4 -9 31.85 1.42
-7 -4 9 33.86 1.47
8 4 -9 12.87 0.85
9 -8 4 12.07 1
8 -4 9 12.23 0.82
8 4 -9 13.68 1.01
-4 -9 -8 12.98 0.95
9 -8 4 13.7 0.77
-9 -8 -4 12.75 0.86
-8 4 9 12.8 1.02
9 8 -4 11.87 0.87
9 8 -4 13.39 0.85
4 -9 8 12.15 1.02
4 9 -8 11.94 0.77
8 -4 -9 12.48 0.93
8 -4 -9 12.52 0.94
-9 -8 4 13.37 0.91
9 -8 -4 12.35 0.99
9 -8 -4 12.44 0.87
-4 -9 8 11.26 0.98
4 -9 -8 13.26 0.81
9 8 4 11.42 0.86
-8 -4 9 13.07 1.02
4 -9 -8 14 1.19
5 -9 0 110.77 3.46
0 -5 -9 112.72 3.33
9 0 -5 105.95 3.45
9 0 5 116.99 3.36
-5 -9 0 111.98 3.53
-9 0 5 113.92 3.39
0 -5 -9 106.11 3.59
0 -5 9 112.14 3.63
9 0 -5 108.87 3.48
9 0 5 113.81 3.38
5 -9 0 110.69 3.53
5 9 0 105.91 3.46
9 1 -5 38.54 1.47
9 -1 5 39.47 1.33
-1 -5 -9 37.66 1.29
-1 -5 -9 36.21 1.56
5 -9 1 35.91 1.48
5 9 -1 37.49 1.45
9 1 -5 37.71 1.45
-5 -9 -1 37.54 1.5
-9 1 5 36.62 1.38
1 5 -9 40.01 1.36
5 -9 1 37.59 1.46
9 -1 5 34.92 1.51
1 -5 9 37.59 1.58
-1 -5 9 39.17 1.61
9 1 5 40.03 1.39
-9 -1 5 37.57 1.37
9 -1 -5 37.4 1.44
9 1 5 38.76 1.36
-5 -9 1 38.7 1.51
5 -9 -1 37.61 1.43
1 -5 -9 37.84 1.36
5 -9 -1 36.43 1.49
5 9 1 34.88 1.44
9 -1 -5 37.26 1.48
1 -5 -9 36.91 1.6
5 -9 2 0.46 0.38
-9 2 5 1.27 0.35
-2 -5 -9 1.12 0.28
-5 -9 -2 0.65 0.38
-2 -5 -9 0.92 0.4
9 -2 5 0.77 0.38
5 9 -2 0.9 0.36
2 5 -9 1.42 0.32
9 -2 5 0.93 0.33
5 -9 2 1.11 0.4
9 2 -5 0.42 0.35
9 2 -5 0.85 0.39
2 -5 9 1.52 0.43
2 -5 -9 1.45 0.49
9 2 5 1.34 0.35
5 9 2 0.44 0.35
-9 -2 5 0.72 0.33
5 -9 -2 1.16 0.44
9 -2 -5 0.8 0.42
2 -5 -9 1.46 0.4
9 2 5 0.65 0.38
-5 -9 2 0.68 0.42
9 -2 -5 0.9 0.16
9 -2 -5 0.76 0.25
5 -9 -2 0.59 0.35
-2 -5 9 1.16 0.49
5 -9 3 40.15 1.61
-5 -9 -3 41.04 1.61
9 -3 5 40.09 1.31
-3 -5 -9 41.18 1.66
9 3 -5 37.72 1.5
3 5 -9 39.82 1.49
-3 -5 -9 41.92 1.32
-9 3 5 42.1 1.52
9 -3 5 41.29 1.55
5 9 -3 39.21 1.5
3 -5 9 41.16 1.65
3 -5 -9 40.51 1.48
3 -5 -9 36.48 1.78
5 9 3 40.61 1.57
-5 -9 3 41.16 1.62
5 -9 -3 43.3 1.66
-3 -5 9 40.81 1.69
-9 -3 5 41.4 1.47
9 3 5 34.69 1.58
9 -3 -5 40.03 1.27
5 -9 -3 40.98 1.53
9 -3 -5 40.17 1.58
9 -4 5 1.18 0.41
-5 -9 -4 0.75 0.44
-4 -5 -9 0.41 0.25
4 -5 9 1.08 0.48
-9 -4 -5 0.98 0.3
9 4 -5 1.05 0.39
4 5 -9 1.07 0.35
5 -9 4 0.84 0.38
5 9 -4 0.61 0.35
-4 -5 -9 0.4 0.39
5 9 4 0.49 0.32
9 -4 -5 0.5 0.39
5 -9 -4 0.97 0.38
9 4 5 1.37 0.39
-5 -9 4 0.57 0.4
9 -4 -5 0.84 0.24
4 -5 -9 1.01 0.52
-9 -4 5 0.89 0.37
4 -5 -9 0.39 0.34
9 -4 -5 0.14 0.32
-4 -5 9 0.06 0.4
9 -5 5 1.28 0.48
-5 -5 -9 1.08 0.25
9 -5 5 1.69 0.2
5 5 -9 1.41 0.38
-5 -9 -5 2.04 0.49
9 5 -5 1.6 0.44
5 9 -5 2.45 0.43
5 -9 5 0.9 0.55
-9 -5 -5 1.54 0.37
9 5 -5 1.55 0.15
5 -5 9 1.96 0.54
9 5 -5 1.36 0.14
5 -5 -9 1.22 0.43
5 -9 -5 1.42 0.47
9 5 5 1.28 0.44
-5 -5 9 2.24 0.58
5 -5 -9 1.35 0.51
5 -9 -5 1.29 0.42
9 -5 -5 2.13 0.43
9 -5 -5 1.17 0.47
-5 -9 5 1.38 0.48
9 -5 -5 1.11 0.31
-9 -5 5 1.65 0.42
6 5 -9 4.37 0.54
5 -9 6 3.74 0.63
5 9 -6 3.07 0.48
9 -6 5 3.99 0.41
9 -6 5 3.75 0.62
-9 -6 -5 4.36 0.57
-5 -9 -6 4.79 0.68
6 -5 9 3.42 0.66
9 6 -5 4.22 0.56
6 -5 -9 4.46 0.7
9 -6 -5 3.21 0.62
9 -6 -5 4.11 0.49
5 -9 -6 3.36 0.53
-5 -9 6 3.88 0.63
9 -6 -5 3.98 0.62
5 -9 -6 3.99 0.65
-9 -6 5 5.32 0.64
-6 -5 9 4.46 0.68
6 -5 -9 4.34 0.58
9 7 -5 17.3 0.93
7 -5 9 18.4 1.01
7 5 -9 16.59 0.97
-5 -9 -7 16.5 1.12
5 9 -7 16.29 0.91
9 7 -5 15.9 1
7 5 -9 16.46 1.02
5 -9 7 16.32 1.14
-7 -5 -9 17.17 1.01
9 -7 5 16.45 1.14
-9 -7 -5 16.63 0.97
9 -7 5 16.94 0.82
9 -7 -5 17.16 1.04
5 -9 -7 17.33 0.95
9 7 5 16.37 0.99
7 -5 -9 18.53 1.06
7 -5 -9 16.11 0.98
-5 -9 7 15.8 1.21
5 -9 -7 17.56 1.14
-9 -7 5 17.61 1
-7 -5 9 18.21 1.14
9 -7 -5 17.03 0.94
-9 -8 -5 2.54 0.5
8 -5 9 2.25 0.53
8 5 -9 0.84 0.45
-8 -5 -9 2.57 0.52
-5 -9 -8 1.25 0.59
5 -9 8 2.45 0.68
8 5 -9 1.07 0.58
9 8 -5 1.33 0.48
9 8 -5 0.77 0.46
9 -8 5 1.79 0.45
8 -5 -9 1.34 0.57
8 -5 -9 1.38 0.57
9 8 5 1.33 0.5
-5 -9 8 0.52 0.56
5 -9 -8 1.67 0.65
5 -9 -8 1.32 0.43
-9 -8 5 0.83 0.51
9 -8 -5 1.31 0.56
-8 -5 9 2.87 0.67
9 0 -6 2.82 0.26
9 0 -6 2.21 0.43
9 0 6 2.44 0.41
0 -6 -9 1.24 0.49
-6 -9 0 2.98 0.49
6 -9 0 2.17 0.45
6 9 0 3.04 0.34
6 9 0 2.36 0.46
0 -6 -9 2.32 0.37
0 6 -9 2.63 0.36
-9 0 6 2.2 0.45
6 -9 0 2.09 0.46
9 0 -6 2.42 0.47
9 1 -6 0.56 0.34
-6 -9 -1 0.44 0.34
6 -9 1 0.55 0.39
6 9 -1 0.38 0.35
-1 -6 -9 0.27 0.43
9 1 -6 0.55 0.16
9 -1 6 0.46 0.32
9 1 -6 0.69 0.39
-1 -6 -9 0.45 0.29
6 -9 1 0.41 0.37
1 6 -9 0.85 0.3
-9 1 6 0.29 0.36
9 -1 -6 0.24 0.37
9 1 6 0.51 0.34
9 -1 -6 0.52 0.19
-6 -9 1 1.06 0.38
6 9 1 0.26 0.34
6 -9 -1 0.79 0.36
6 -9 -1 0.37 0.34
-1 6 -9 0.61 0.28
-1 -6 9 0.29 0.43
1 -6 -9 0.87 0.5
-9 -1 6 0.63 0.36
1 -6 -9 0.6 0.31
9 2 -6 1.27 0.41
6 9 -2 1.4 0.4
-2 -6 -9 0.85 0.45
-2 -6 -9 1.36 0.3
9 2 -6 1.3 0.18
2 6 -9 1.27 0.32
-6 -9 -2 0.97 0.38
6 -9 2 0.83 0.42
-9 2 6 2.21 0.44
2 -6 9 0.97 0.51
6 -9 2 1.68 0.44
2 -6 -9 1.32 0.54
-2 6 -9 1.84 0.32
-9 -2 6 1.57 0.4
-6 -9 2 1.61 0.46
-2 -6 9 1.08 0.46
6 -9 -2 1.51 0.41
9 -2 -6 2.06 0.31
9 2 6 0.77 0.37
6 9 2 1.4 0.39
9 -2 -6 0.74 0.4
9 -2 -6 1.44 0.31
6 -9 -2 1.63 0.46
-3 -6 -9 4.37 0.41
-9 3 6 5.48 0.65
6 -9 3 6.41 0.7
3 -6 9 6.29 0.7
6 9 -3 5.01 0.62
9 3 -6 6.01 0.4
-6 -9 -3 6.2 0.69
6 -9 3 6.82 0.65
9 3 -6 4.86 0.59
-3 -6 -9 5.02 0.66
-3 6 -9 5.36 0.42
6 -9 -3 5.52 0.67
9 -3 -6 5.31 0.7
9 -3 -6 5.68 0.56
-6 -9 3 4.54 0.6
3 -6 -9 5.03 0.55
3 -6 -9 5.07 0.7
-3 -6 9 5.29 0.73
9 -3 -6 5.43 0.44
9 3 6 5.2 0.62
6 -9 -3 5.5 0.62
-9 -3 6 5.47 0.6
-6 -9 -4 3.66 0.56
4 6 -9 3.57 0.47
6 -9 4 3.45 0.66
6 9 -4 3.92 0.51
-4 -6 -9 3.27 0.6
9 4 -6 4.38 0.61
9 4 -6 4.14 0.34
4 -6 9 3.26 0.6
-9 -4 6 4.82 0.57
4 -6 -9 5.58 0.76
9 -4 -6 3.91 0.58
-4 -6 9 5.32 0.73
9 -4 -6 4.98 0.48
4 -6 -9 3.31 0.5
6 -9 -4 3.45 0.69
9 -4 -6 4.47 0.52
-6 -9 4 4.75 0.61
6 -9 -4 4.6 0.58
9 4 6 4.76 0.62
9 5 -6 3.56 0.55
9 -5 6 4.19 0.38
-9 -5 -6 4.92 0.6
-6 -9 -5 6.06 0.74
6 -9 5 3.39 0.61
5 6 -9 4.12 0.52
-5 -6 -9 3.91 0.61
5 -6 9 4.19 0.67
6 9 -5 3.5 0.55
-6 -9 5 4.07 0.62
-9 -5 6 3.86 0.56
-5 -6 9 4.03 0.66
5 -6 -9 4.2 0.55
9 -5 -6 4.47 0.63
6 -9 -5 4.25 0.58
6 -9 -5 5.16 0.71
9 -5 -6 4.13 0.49
9 -5 -6 4.82 0.63
5 -6 -9 4.13 0.7
9 6 -6 7.71 0.71
9 -6 6 9.31 0.57
9 6 -6 7.59 0.73
6 6 -9 7.49 0.65
-9 -6 -6 7.07 0.72
6 -9 6 7.6 0.87
-6 -9 -6 8.16 0.84
6 9 -6 5.88 0.66
-6 -6 -9 8.48 0.84
9 6 -6 6.81 0.58
6 -6 9 8.58 0.86
6 -9 -6 7.68 0.71
-6 -9 6 8.26 0.82
9 -6 -6 8.31 0.7
6 -6 -9 7.19 0.84
6 -9 -6 6.47 0.9
-6 -6 9 7.99 0.85
-9 -6 6 9.01 0.78
9 -6 -6 7.96 0.8
6 -6 -9 8.22 0.78
-9 -7 -6 1.47 0.49
6 9 -7 2.06 0.45
9 7 -6 0.85 0.49
9 7 -6 0.94 0.42
-6 -9 -7 1.64 0.54
-7 -6 -9 1.64 0.52
9 -7 6 1.29 0.4
6 -9 7 0.81 0.56
7 6 -9 1.52 0.45
7 -6 9 1.61 0.55
6 -9 -7 1.03 0.57
7 -6 -9 1.56 0.6
7 -6 -9 1.81 0.5
9 -7 -6 1.75 0.53
9 -7 -6 1.2 0.56
9 7 6 2 0.53
-9 -7 6 1.32 0.53
-6 -9 7 0.99 0.58
6 -9 -7 1.93 0.5
-7 -6 9 0.53 0.52
6 9 -8 4.74 0.64
8 6 -9 2.59 0.55
9 -8 6 4.14 0.58
9 8 -6 3.25 0.59
8 -6 9 3.6 0.61
-8 -6 -9 3.58 0.61
-9 -8 -6 3.57 0.63
8 6 -9 4.27 0.7
9 8 -6 2.91 0.59
6 -9 8 4.37 0.77
9 -8 -6 4.03 0.62
6 -9 -8 2.83 0.75
-8 -6 9 4.41 0.78
9 8 6 4.64 0.67
-6 -9 8 3.28 0.66
-9 -8 6 5.84 0.73
6 -9 -8 4.31 0.61
8 -6 -9 4.06 0.68
9 -8 -6 4.18 0.7
8 -6 -9 4.6 0.71
7 -9 0 66.4 2.33
9 0 -7 69.46 2.1
9 0 -7 65.24 2.33
0 -7 -9 66.01 2.47
0 -7 9 65.36 2.46
7 9 0 65.57 2.18
7 9 0 66.31 2.04
0 7 -9 67.87 2.12
-9 0 7 67.69 2.29
9 0 -7 67.41 2.07
0 -7 -9 66.34 2.11
7 -9 0 68.84 2.31
7 9 0 65.52 2.32
-7 -9 0 66.84 2.3
9 1 -7 -0.32 0.22
1 7 -9 0.18 0.31
-7 -9 -1 -0.12 0.38
7 9 -1 0.44 0.46
1 -7 9 0.45 0.44
7 -9 1 0.2 0.39
7 -9 1 0.15 0.39
-9 1 7 0.23 0.36
7 9 -1 -0.61 0.3
9 1 -7 -0.33 0.39
9 1 -7 -0.76 0.3
-1 -7 -9 -0.03 0.27
7 9 -1 -0.72 0.31
9 -1 -7 0.27 0.42
7 -9 -1 0.28 0.41
-7 -9 1 0.19 0.39
-9 -1 7 -0.35 0.36
7 9 1 -0.19 0.28
9 -1 -7 -0.33 0.24
9 -1 -7 -0.02 0.34
-1 7 -9 0.52 0.3
1 -7 -9 -0.03 0.41
-1 -7 9 0.05 0.39
1 -7 -9 -0.02 0.29
7 -9 -1 -0.05 0.36
-9 2 7 31.42 1.34
7 9 -2 30.64 1.14
7 9 -2 30.49 1.29
9 2 -7 30.42 1.1
-2 -7 -9 29.98 1.04
2 7 -9 29.36 1.18
7 9 -2 29.67 1.31
-2 -7 -9 28.06 1.58
-7 -9 -2 30.05 1.32
7 -9 2 31.01 1.36
7 -9 2 31.19 1.32
9 2 -7 29.57 1.32
2 -7 9 30.68 1.44
9 2 -7 31.25 1.07
-2 7 -9 31.38 1.06
9 -2 -7 29.09 1.35
9 -2 -7 28.87 1.2
2 -7 -9 31.64 1.51
-7 -9 2 31.02 1.34
7 -9 -2 30.96 1.33
9 -2 -7 29.61 1.12
9 2 7 28.68 1.32
2 -7 -9 28.68 1.19
-9 -2 7 31.78 1.31
7 -9 -2 29.72 1.32
-2 -7 9 29.98 1.45
-7 -9 -3 38.83 1.54
-9 3 7 38.19 1.56
7 9 -3 35.74 1.52
7 -9 3 37.9 1.56
9 3 -7 36.27 1.53
3 -7 9 38.82 1.7
3 7 -9 37.6 1.44
9 3 -7 37.78 1.3
7 -9 3 36.93 1.57
-3 -7 -9 37.36 1.64
9 3 -7 38.53 1.29
7 -9 -3 37.9 1.56
3 -7 -9 38.41 1.72
-9 -3 7 38.01 1.53
-3 -7 9 41.88 1.76
-7 -9 3 38.23 1.58
3 -7 -9 37.78 1.44
9 3 7 37.2 1.48
9 -3 -7 36.94 1.61
9 -3 -7 38.5 1.45
9 -3 -7 38.89 1.38
9 -4 7 33.51 1.04
-4 -7 -9 33.25 1.51
4 7 -9 28.37 1.27
4 -7 9 33.21 1.56
9 4 -7 30.63 1.38
-7 -9 -4 32.99 1.43
9 4 -7 30.22 1.17
7 9 -4 30.41 1.37
9 -4 -7 31.41 1.25
-9 -4 7 32.7 1.39
-4 -7 9 31.59 1.5
4 -7 -9 31.51 1.29
-7 -9 4 32.31 1.41
4 -7 -9 32.1 1.55
9 4 7 29.78 1.3
9 -4 -7 32.21 1.45
7 -9 -4 31.72 1.36
7 -9 -4 30.85 1.38
7 9 -5 17.56 1
5 -7 9 17.14 1.14
-5 -7 -9 16.72 1.12
-9 -5 -7 16.16 0.94
5 7 -9 16.93 0.9
7 -9 5 17.18 1.03
-7 -9 -5 17.74 1.06
9 5 -7 17.57 0.89
9 5 -7 16.98 0.97
9 -5 7 17.96 0.76
9 5 -7 16.62 1.01
7 -9 -5 15.88 1.08
-9 -5 7 15.08 1.01
-7 -9 5 18.88 1.13
9 -5 -7 16.75 1.04
5 -7 -9 17.69 1.15
-5 -7 9 17.86 1.1
9 -5 -7 17.59 0.94
7 -9 -5 16.46 0.98
5 -7 -9 16.82 0.96
6 7 -9 1.1 0.45
-7 -9 -6 1.49 0.54
6 -7 9 0.58 0.5
9 6 -7 1.34 0.54
-9 -6 -7 1.97 0.49
9 6 -7 1.62 0.48
7 -9 6 1.16 0.53
-6 -7 -9 1.08 0.5
7 9 -6 1.62 0.47
9 -6 7 1.64 0.39
6 -7 -9 0.94 0.62
7 -9 -6 1.38 0.6
6 -7 -9 1.59 0.47
7 9 6 0.62 0.47
-6 -7 9 0.84 0.5
9 6 7 2.11 0.51
9 -6 -7 2.15 0.57
-7 -9 6 1.78 0.58
9 -6 -7 1.19 0.52
-9 -6 7 1.88 0.56
7 -9 -6 1.68 0.51
9 -7 7 31.37 1.29
7 -9 7 30.71 1.48
7 -7 9 32.03 1.47
9 7 -7 29.61 1.42
7 7 -9 29.93 1.38
-9 -7 -7 31.74 1.43
7 9 -7 31.79 1.41
-7 -7 -9 33.24 1.56
-7 -9 -7 32.21 1.55
9 7 -7 29.95 1.44
-7 -9 7 26.58 1.7
-7 -7 9 32.26 1.57
7 -7 -9 32.07 1.46
-9 -7 7 32.93 1.5
9 -7 -7 30.74 1.53
7 -9 -7 32.63 1.44
7 -7 -9 33.84 1.6
9 -7 -7 30.94 1.4
7 -9 -7 31.04 1.56
9 7 7 29.93 1.42
9 8 -7 5.04 0.69
8 7 -9 6.32 0.69
-8 -7 -9 5.64 0.74
8 7 -9 5.12 0.78
8 -7 9 4.65 0.68
9 -8 7 4.36 0.91
7 9 -8 5.38 0.66
7 -9 8 4.81 0.75
-9 -8 -7 4.17 0.68
9 8 -7 4.31 0.71
-7 -9 8 3.85 0.77
9 8 7 4.89 0.73
-8 -7 9 6.2 0.87
7 -9 -8 5.04 0.71
-9 -8 7 5.83 0.77
9 -8 -7 4.91 0.77
7 -9 -8 4.61 0.81
9 -8 -7 4.64 0.71
8 -7 -9 5.37 0.79
8 -7 -9 4.57 0.78
9 0 -8 2.17 0.4
9 0 -8 2.48 0.49
0 -8 9 2.6 0.6
8 -9 0 1.61 0.5
-9 0 8 1.68 0.51
-8 -9 0 2.29 0.51
0 -8 -9 2.42 0.38
9 0 -8 1.68 0.55
0 -8 -9 1.76 0.54
0 8 -9 2.35 0.38
8 -9 0 2.32 0.48
8 9 0 2.52 0.39
8 -9 1 26.32 1.18
9 1 -8 25.4 1.13
8 9 -1 26.44 1.03
-9 1 8 26.95 1.26
8 9 -1 25.75 1.23
8 -9 1 26.28 1.29
-1 -8 -9 24.94 1.33
9 1 -8 26.92 1.06
-1 -8 -9 26.27 0.98
9 1 -8 25.98 1.28
1 8 -9 27.01 1.06
1 -8 9 24.15 1.37
-8 -9 -1 26.7 1.22
1 -8 -9 25.04 1.05
8 -9 -1 25.27 1.27
8 -9 -1 25.81 1.18
-1 8 -9 25.57 0.98
9 -1 -8 24.56 1.27
-9 -1 8 27.35 1.27
-1 -8 9 26.04 1.43
9 -1 -8 27.1 1.07
1 -8 -9 25.97 1.39
-8 -9 1 25.44 1.22
2 8 -9 0.7 0.36
-9 2 8 1.81 0.5
8 9 -2 1.78 0.43
8 9 -2 0.79 0.4
-8 -9 -2 0.99 0.48
-2 -8 -9 0.76 0.38
-2 -8 -9 1.02 0.49
2 -8 9 0.68 0.53
9 2 -8 0.82 0.35
9 2 -8 0.9 0.49
9 2 -8 0.87 0.49
8 -9 2 1.17 0.51
8 -9 2 0.8 0.45
8 9 -2 1.27 0.37
8 -9 -2 0.08 0.43
9 -2 -8 0.45 0.5
2 -8 -9 0.49 0.51
9 -2 -8 1.17 0.38
8 -9 -2 0.41 0.43
2 -8 -9 1.08 0.39
-2 -8 9 1.38 0.51
-2 8 -9 0.04 0.31
-8 -9 2 1.21 0.49
-9 -2 8 0.61 0.45
-8 -9 -3 35.9 1.5
3 -8 9 36.05 1.66
8 9 -3 33.41 1.36
8 9 -3 34.04 1.51
3 8 -9 36.73 1.39
-9 3 8 37.74 1.59
-3 -8 -9 35.76 1.63
8 -9 3 36.33 1.48
8 -9 3 36.62 1.59
9 3 -8 35.65 1.55
9 3 -8 36.94 1.34
9 -3 -8 35.34 1.39
-8 -9 3 36.73 1.52
-9 -3 8 35.56 1.54
3 -8 -9 35.78 1.69
9 -3 -8 36.02 1.58
-3 -8 9 37.27 1.73
8 -9 -3 34.91 1.52
3 -8 -9 34.38 1.39
9 4 -8 12.31 0.98
9 4 -8 12.72 0.86
-9 4 8 12.92 0.92
4 -8 9 12.51 1.03
-4 -8 -9 11.68 1
8 9 -4 12.35 0.83
8 9 -4 12.79 0.9
4 8 -9 12.92 0.76
8 -9 4 13.32 1.04
9 -4 8 14.4 0.66
-8 -9 -4 11.68 0.89
9 -4 -8 13.84 0.87
-4 -8 9 12.39 1.08
8 -9 -4 12.58 0.91
-8 -9 4 12.77 0.9
9 -4 -8 12.08 0.97
8 -9 -4 12.44 0.89
4 -8 -9 13.56 1.17
-9 -4 8 12.83 0.96
4 -8 -9 11.72 0.81
9 5 -8 1.8 0.48
5 8 -9 2.06 0.46
9 5 -8 1.92 0.57
8 9 -5 1.77 0.51
5 -8 9 2.24 0.67
-8 -9 -5 2.01 0.54
9 -5 8 1.7 0.39
-9 -5 -8 2.27 0.48
-5 -8 -9 1.71 0.63
8 9 -5 2.49 0.51
8 -9 5 1.73 0.52
8 -9 -5 1.41 0.54
-9 -5 8 3.16 0.61
-8 -9 5 1.98 0.59
8 -9 -5 1.59 0.5
-5 -8 9 2.17 0.62
5 -8 -9 1.73 0.47
5 -8 -9 1.23 0.65
8 9 5 1.53 0.53
9 -5 -8 2.12 0.64
8 -9 6 3.51 0.64
9 -6 8 3.63 0.51
9 6 -8 4.09 0.73
9 6 -8 4.23 0.65
6 8 -9 3.99 0.58
8 9 -6 4.11 0.62
8 9 -6 3.89 0.61
-9 -6 -8 4.23 0.66
6 -8 9 3.22 0.74
-8 -9 -6 4.06 0.64
9 -6 -8 3.43 0.62
-8 -9 6 4.64 0.84
-6 -8 9 3.67 0.7
8 -9 -6 4.1 0.69
8 9 6 4.03 0.64
9 -6 -8 3.73 0.7
6 -8 -9 3.81 0.79
6 -8 -9 3.94 0.62
-9 -6 8 3.78 0.72
8 -9 -6 4.16 0.7
-9 -7 -8 5.39 0.74
8 -9 7 4.53 0.72
8 9 -7 6.82 0.85
8 9 -7 5.23 0.69
7 8 -9 4.73 0.63
7 -8 9 3.94 0.73
9 7 -8 4.32 0.75
9 7 -8 5.33 0.68
-8 -9 -7 3.48 0.63
9 -7 -8 5.39 0.73
9 -7 -8 3.55 0.72
8 -9 -7 4.68 0.76
7 -8 -9 4.57 0.78
-9 -7 8 5.12 0.8
8 -9 -7 4.46 0.76
-8 -9 7 4.87 0.79
-7 -8 9 4.7 0.75
7 -8 -9 4.73 0.71
-9 -8 -8 17.22 1.15
9 8 -8 14.47 1.12
9 8 -8 13.45 0.97
8 8 -9 14.46 0.97
9 -8 8 15.47 0.98
8 9 -8 14.27 0.96
8 -9 8 15.06 1.06
8 8 -9 19.27 1.22
8 9 -8 15.26 1.14
8 -8 9 15.62 1.1
8 -8 -9 14.15 1.11
-8 -8 9 15.54 1.26
8 -8 -9 15.05 1.2
8 -9 -8 14.84 1.19
9 -8 -8 16.39 1.16
9 -8 -8 15.12 1.09
8 -9 -8 13.93 1.1
-9 -8 8 16.15 1.13
-8 -9 8 14.25 1.19
-9 -9 0 2.35 0.53
-9 0 9 2.36 0.59
0 -9 -9 3.15 0.42
0 -9 -9 2.26 0.62
0 -9 9 2.86 0.7
0 9 -9 3.21 0.43
9 -9 0 2.99 0.61
9 -9 0 2.84 0.52
9 0 -9 2.53 0.63
9 0 -9 3.07 0.51
9 9 0 2.77 0.44
9 9 0 2.33 0.48
-9 -9 -1 12.45 0.86
9 9 -1 12.44 0.76
9 1 -9 11.42 1.02
-9 1 9 11.66 0.89
-1 -9 -9 11.52 0.64
-1 -9 -9 12.18 1.04
9 9 -1 11.05 0.9
9 1 -9 11.95 0.82
9 1 -9 10.16 0.81
9 -9 1 11.08 0.78
1 -9 9 11.73 1.16
1 9 -9 12.3 0.7
9 -9 1 11.94 0.98
9 -9 -1 11.2 0.81
9 -9 -1 10.75 0.93
-9 -9 1 10.58 0.86
9 -1 -9 11.93 1
9 -1 -9 11.99 0.83
-9 -1 9 11.51 0.95
-1 9 -9 12.72 0.65
1 -9 -9 10.94 0.71
1 -9 -9 12.22 1.08
-1 -9 9 11.55 1.05
-9 -9 -2 34.37 1.46
9 2 -9 37.26 1.38
9 2 -9 31.75 1.47
-9 2 9 38.55 1.63
-2 -9 -9 33.89 1.65
9 2 -9 31.8 1.55
9 -9 2 32.65 1.57
9 9 -2 34.58 1.32
2 -9 9 34.02 1.72
2 9 -9 32.45 1.45
9 9 -2 33.63 1.51
9 -9 2 35.28 1.4
2 -9 -9 34.85 1.34
9 -9 -2 36.2 1.43
9 -9 -2 35.41 1.74
9 -2 -9 34.82 1.41
-2 -9 9 34.26 1.69
-9 -9 2 35.94 1.51
-9 -2 9 34.24 1.56
2 -9 -9 33.52 1.7
9 -2 -9 35.2 1.61
9 9 2 34.3 1.53
-9 -9 -3 -0.43 0.43
9 9 -3 -0.57 0.4
9 9 -3 -0.93 0.36
-9 3 9 -0.21 0.49
-3 -9 -9 -0.13 0.47
9 3 -9 -0.25 0.35
9 3 -9 0.5 0.53
9 3 -9 -0.18 0.41
3 -9 9 0.55 0.59
3 9 -9 -0.7 0.33
9 -9 3 -0.2 0.4
9 -9 3 -0.16 0.53
9 -9 -3 -0.36 0.47
9 -3 -9 -0.18 0.5
3 -9 -9 -0.04 0.35
3 -9 -9 -0.4 0.65
-3 -9 9 0.63 0.56
-9 -9 3 -0.16 0.45
-9 -3 9 -0.88 0.46
9 9 3 -0.17 0.41
-9 -9 -4 -0.13 0.45
9 4 -9 0.18 0.54
9 4 -9 -0.03 0.37
-9 4 9 0.59 0.49
-4 -9 -9 1.07 0.52
9 -4 9 0.39 0.35
9 -9 4 0.45 0.56
9 9 -4 0.29 0.46
4 -9 9 1.11 0.68
4 9 -9 0.1 0.37
9 9 -4 0.63 0.44
9 -9 4 0.66 0.45
4 -9 -9 -0.23 0.37
9 -9 -4 -0.52 0.44
9 -9 -4 -0.2 0.47
9 -4 -9 -0.16 0.46
-4 -9 9 0.36 0.57
-9 -9 4 -0.57 0.45
-9 -4 9 -0.07 0.5
4 -9 -9 0.25 0.67
9 -4 -9 0.3 0.54
9 9 4 -0.14 0.44
-9 -9 -5 63.18 2.28
9 9 -5 59.88 2.17
-9 -5 -9 64.46 2.3
9 5 -9 61.46 2.34
-5 -9 -9 61.73 2.43
9 5 -9 60.31 2.3
9 9 -5 61.32 2.32
9 -5 9 65.14 2.09
5 -9 9 60.41 2.4
5 9 -9 62.93 2.23
5 -9 -9 59.98 2.46
9 -9 -5 61.54 2.24
9 -5 -9 60.2 2.39
9 -5 -9 64.27 2.26
9 -9 -5 63.91 2.37
-9 -5 9 65.74 2.42
-5 -9 9 61.81 2.51
-9 -9 5 61.2 2.33
5 -9 -9 63.06 2.21
9 9 5 60.29 2.32
-9 -9 -6 2.12 0.6
9 9 -6 1.19 0.57
-9 -6 -9 1.46 0.59
-6 -9 -9 1.71 0.6
9 6 -9 1.3 0.5
9 -9 6 2.06 0.54
9 9 -6 2.37 0.58
6 -9 9 1.81 0.67
6 9 -9 1.37 0.43
9 6 -9 0.4 0.57
9 -6 9 1.15 0.57
6 -9 -9 1.02 0.53
9 -6 -9 1.75 0.66
9 -6 -9 1.37 0.6
9 -9 -6 1.77 0.6
9 -9 -6 0.8 0.64
-6 -9 9 1.28 0.6
-9 -9 6 1.9 0.59
6 -9 -9 1.33 0.66
9 9 6 0.97 0.52
-9 -9 -7 8.17 0.95
9 7 -9 7.16 0.82
-9 -7 -9 9.16 0.99
9 9 -7 8.04 0.81
-7 -9 -9 9.01 1.05
9 7 -9 7.34 0.95
9 9 -7 7.51 0.87
9 -7 9 7.19 0.83
7 -9 9 7.74 1
7 9 -9 6.7 0.78
9 -9 7 6.61 0.87
9 -9 -7 7.91 0.92
9 -9 -7 9.53 1.1
9 -7 -9 7.62 0.95
9 -7 -9 7.93 0.91
7 -9 -9 7.49 1
-7 -9 9 8.27 1.11
-9 -9 7 8.12 1.01
7 -9 -9 8.84 0.96
-9 -7 9 9.77 0.96
9 8 -9 12.5 0.95
9 9 -8 11.26 1.16
-8 -9 -9 12.53 1.08
9 8 -9 11.71 1.2
9 9 -8 11.61 0.95
9 -9 8 12.08 1.03
8 -9 9 13.89 1.06
8 9 -9 12.86 1.16
8 9 -9 12.2 0.99
9 -8 9 12.87 1
9 -9 -8 13.56 1.14
8 -9 -9 11.06 1.17
9 -8 -9 12.39 1.18
9 -8 -9 11.69 1.09
8 -9 -9 11.45 1.12
-8 -9 9 10.33 1.09
-9 -9 8 13.16 1.24
-9 -8 9 12.53 1.2
9 -9 -8 13.52 1.17
-9 -9 -9 46.43 2.09
9 9 -9 47.72 2.11
9 9 -9 48.65 2.01
9 -9 9 49.17 1.96
9 -9 -9 47.2 2.07
-9 -9 9 49.33 2.19
9 -9 -9 48.82 2.09
-10 0 0 420.64 12.16
0 -10 0 441.58 12.64
0 0 10 437.56 12.65
0 10 0 451.68 12.41
10 0 0 438.6 12.45
10 0 0 437.37 12.43
10 1 0 6.86 0.63
10 1 0 7.43 0.59
0 10 -1 7.53 0.54
1 0 10 7.64 0.75
10 -1 0 7.75 0.69
10 -1 0 7.14 0.55
0 -10 1 8.46 0.77
-1 0 10 6.26 0.73
0 -10 -1 7.5 0.73
-10 -1 0 7.13 0.28
-2 0 10 6.68 0.73
0 -10 2 7.95 0.75
0 10 -2 7.92 0.56
2 0 10 8.51 0.74
0 -10 -2 7.42 0.74
10 2 0 7.76 1.02
-10 -2 0 8.28 0.36
10 2 0 8.69 0.64
10 -2 0 7.54 0.59
10 -2 0 8.69 0.67
0 -10 -3 71.37 2.64
0 -10 -3 76.86 2.34
3 0 -10 78.36 2.52
3 0 10 78.92 2.64
10 -3 0 76.75 2.54
10 3 0 76.45 2.41
0 -10 3 73.11 2.64
0 10 -3 77.5 2.37
-10 -3 0 75.24 2.23
-3 0 10 75.51 2.67
10 -3 0 77.5 2.39
10 3 0 73.7 2.51
0 -10 4 1.56 0.48
10 4 0 2.25 0.46
0 10 -4 2.36 0.34
4 0 -10 1.64 0.43
0 -10 -4 1.72 0.51
10 -4 0 1.62 0.43
10 -4 0 2.26 0.38
-4 0 10 2.07 0.55
10 4 0 1.25 0.37
0 -10 -4 2.89 0.4
4 0 10 1.22 0.46
0 -10 5 27.11 1.35
5 0 -10 26.42 1.2
10 5 0 27.26 1.07
10 5 0 24.07 1.18
10 -5 0 28.72 1.26
0 10 -5 26.56 1.02
10 -5 0 28.12 1.05
5 0 10 27.77 1.24
0 -10 -5 26.2 1.01
-10 -5 0 26.87 1.01
-5 0 10 27.33 1.32
-6 0 10 71.23 2.54
6 0 10 71.44 2.39
10 -6 0 68.76 2.47
10 -6 0 71.62 2.21
-10 -6 0 72.65 2.26
0 -10 -6 67.98 2.58
0 -10 -6 69.46 2.17
0 10 -6 70.01 2.2
10 6 0 71.71 2.23
6 0 -10 69.98 2.44
0 -10 6 68.16 2.57
7 0 -10 15.07 1
0 -10 -7 13.19 1.04
10 -7 0 15.19 0.55
0 -10 7 12.16 1.04
0 10 -7 14.52 0.72
10 -7 0 14.08 1.04
7 0 -10 14.94 0.99
10 -7 0 15.45 0.74
10 7 0 14.04 0.78
-7 0 10 15.87 1.09
0 -10 -7 14.41 0.72
10 -7 0 13.3 0.55
-10 -7 0 14.39 0.81
10 -8 0 14.42 0.7
0 10 -8 13.04 0.72
8 0 -10 13.2 1.01
-8 0 10 13.99 1.01
0 -10 -8 14.69 1.12
10 8 0 15.04 0.8
10 -8 0 12.46 0.91
10 8 0 13.57 0.92
8 0 -10 15.48 0.97
10 -8 0 12.11 1.14
0 -10 -8 11.88 0.73
10 -8 0 15.32 0.74
0 -10 8 12.92 1.12
-10 -8 0 14.5 0.89
10 -9 0 0.69 0.61
0 -10 9 0.56 0.63
-10 -9 0 1.36 0.5
0 10 -9 0.83 0.38
0 -10 -9 0.11 0.36
9 0 -10 0.81 0.59
10 -9 0 0.99 0.4
10 9 0 -0.51 0.4
0 -10 -9 0.86 0.61
-9 0 10 0.1 0.54
9 0 -10 -0.21 0.45
0 1 10 6.92 0.75
1 10 0 7.59 0.57
10 0 -1 7.61 0.68
10 0 -1 7.7 0.62
-10 0 1 7.54 0.39
10 0 1 6.88 0.58
-1 -10 0 7 0.71
-10 0 -1 6.99 0.31
0 -1 10 7.62 0.75
1 -10 0 6.96 0.72
1 -10 1 130.06 4.17
-1 1 10 131.28 4.2
10 1 -1 114.97 4.11
-1 -10 -1 133.11 4.17
10 -1 1 132.32 4.01
10 -1 1 137.69 3.95
10 1 -1 134.67 4
1 -1 10 132.39 4.19
1 10 -1 131.94 3.95
-1 -10 1 132.32 4.19
1 -10 -1 128.15 4.17
1 1 10 133.14 4.18
10 -1 -1 132.71 3.97
1 10 1 130.32 3.97
-10 -1 1 129.73 3.73
10 1 1 131.46 3.98
10 -1 -1 132.86 4.03
-1 -1 10 135.77 4.22
10 1 1 133.14 3.97
-2 1 10 3.79 0.59
10 -2 1 4.44 0.48
-10 -2 -1 3.88 0.24
2 -1 10 4.5 0.64
10 2 -1 4.89 0.58
1 10 -2 4.77 0.48
10 -2 1 3.76 0.5
-1 -10 -2 4.76 0.66
1 -10 2 3.82 0.58
-2 -1 10 4.37 0.65
2 -1 -10 4.16 0.54
1 -10 -2 3.59 0.58
-1 -10 2 3.39 0.58
-10 -2 1 3.94 0.33
10 -2 -1 4.57 0.57
10 2 1 4.5 0.54
10 2 1 4.41 0.61
10 -2 -1 3.85 0.46
1 -10 -2 3.8 0.45
-1 10 -2 3.94 0.45
2 1 10 5.3 0.71
-10 -3 -1 58.52 1.78
3 -1 10 60.71 2.18
1 -10 3 59.37 2.21
10 3 -1 58.87 2.09
-1 -10 -3 61.49 2.26
1 10 -3 59.71 1.95
10 -3 1 59.2 2.08
10 -3 1 61.52 1.94
10 3 -1 59.15 1.99
-3 1 10 57.93 2.22
10 -3 -1 59.99 2.11
10 3 1 58.33 2.07
1 -10 -3 60.36 1.94
1 -10 -3 60.6 2.23
-1 -10 3 59.48 2.21
-1 10 -3 61.79 1.9
-10 -3 1 61.4 1.83
10 -3 -1 60.24 1.97
3 -1 -10 61.34 2.08
3 1 10 60.49 2.17
10 3 1 61.51 1.96
-3 -1 10 59.43 2.23
10 -4 1 10.68 0.61
-4 1 10 10.62 0.85
4 -1 10 10.39 0.77
-1 -10 -4 10.69 0.85
10 -4 1 9.76 0.75
10 4 -1 11.37 0.78
1 10 -4 10.65 0.62
10 4 -1 10.81 0.7
4 1 -10 10.03 0.72
-10 -4 -1 10.7 0.53
-1 10 -4 11.46 0.58
10 4 1 11.55 0.66
-4 -1 10 11.19 0.92
1 -10 -4 9.61 0.63
4 1 10 11.8 0.83
-1 -10 4 9.23 0.82
10 4 1 9.88 0.72
1 -10 -4 7.7 0.91
10 -4 -1 10.31 0.79
4 -1 -10 9.28 0.7
10 -4 -1 10.12 0.62
-10 -4 1 11.18 0.57
5 1 -10 12.49 0.8
-5 1 10 10.66 0.87
10 5 -1 11.41 0.86
1 -10 5 10.35 0.86
-1 -10 -5 10.21 0.98
1 10 -5 12.19 0.65
10 -5 1 11.24 0.64
10 5 -1 11.83 0.72
-1 -10 -5 11.62 0.58
-10 -5 -1 10.47 0.61
10 -5 1 12.14 0.85
5 -1 10 11.73 0.83
-10 -5 1 11.98 0.65
5 -1 -10 10.57 0.76
-1 10 -5 10.76 0.6
-5 -1 10 11.73 0.88
10 5 1 11.36 0.76
10 -5 -1 12.83 0.86
10 5 1 11.73 0.68
1 -10 -5 11.55 0.66
5 1 10 11.32 0.81
10 -5 -1 11.86 0.67
1 -10 -5 11.07 0.89
-6 1 10 3.2 0.59
-10 -6 -1 3.19 0.43
10 -6 1 3.38 0.62
10 -6 1 3.68 0.42
10 6 -1 3.12 0.48
1 10 -6 3.32 0.44
-1 -10 -6 2.61 0.59
6 -1 10 2.61 0.51
1 -10 6 2.7 0.58
-1 -10 -6 3.72 0.4
6 1 -10 2.34 0.48
-1 -10 6 2.89 0.58
6 -1 -10 3.16 0.56
1 -10 -6 4.29 0.5
1 -10 -6 2.59 0.58
6 -1 -10 3.22 0.55
10 -6 -1 2.93 0.6
10 -6 -1 2.88 0.43
10 6 1 4.24 0.46
-6 -1 10 3.15 0.62
-1 10 -6 3.85 0.44
-10 -6 1 3.24 0.45
10 7 -1 29.18 1.17
-1 -10 -7 28.55 1.02
10 -7 1 27.81 0.89
7 1 -10 29.07 1.37
-10 -7 -1 30.46 1.2
1 10 -7 27.28 1.12
-1 -10 -7 28.87 1.5
10 -7 1 28.48 1.38
7 -1 10 28.82 1.25
1 -10 7 29.66 1.5
10 -7 1 28.94 0.89
-7 1 10 29.12 1.41
-7 -1 10 28.5 1.45
-1 -10 7 29.29 1.46
10 -7 -1 30.25 0.98
-1 10 -7 28.96 1.05
-10 -7 1 29.79 1.21
10 -7 -1 29.39 1.12
10 -7 -1 28.39 1.4
1 -10 -7 28.79 1.49
1 -10 -7 27.67 1.14
10 7 1 28.73 1.36
7 -1 -10 27.99 1.35
7 -1 -10 30.39 1.39
10 7 1 29.58 1.09
10 8 -1 5.35 0.68
1 -10 8 5.3 0.86
10 -8 1 5.9 0.5
-1 -10 -8 6.43 0.87
10 -8 1 6.24 0.83
10 8 -1 5.28 0.65
-8 1 10 7.78 0.88
8 1 -10 4.05 0.69
8 1 -10 5.81 0.74
-10 -8 -1 5.82 0.7
1 10 -8 5.69 0.54
8 -1 -10 5.18 0.68
-1 -10 8 4.67 0.8
8 -1 -10 5.01 0.76
1 -10 -8 6.32 0.86
1 -10 -8 4.68 0.8
10 -8 -1 5.23 0.52
-8 -1 10 4.77 0.71
-10 -8 1 5.37 0.7
-1 10 -8 4.37 0.52
10 -8 -1 4.98 0.56
10 8 1 5.35 0.71
10 -8 -1 4.55 0.75
10 -9 1 8.81 0.67
10 -9 1 7.22 0.95
9 1 -10 7.78 0.79
9 1 -10 7.4 0.73
-10 -9 -1 7.31 0.84
1 -10 9 7.16 1.01
-1 -10 -9 9.35 1.03
9 1 -10 8.46 0.96
-9 1 10 10.18 0.99
1 10 -9 7.2 0.64
10 9 -1 7.18 0.75
10 9 -1 7.17 0.8
-10 -9 1 8.06 0.8
1 -10 -9 8.54 1.07
-9 -1 10 8.66 0.87
-1 -10 9 7.61 1.01
10 9 1 8.92 0.82
10 -9 -1 8.76 0.96
10 -9 -1 8.23 0.66
9 -1 -10 8.48 0.92
1 -10 -9 8.5 0.68
10 -9 -1 8.4 0.69
9 -1 -10 8.73 0.82
2 -10 0 8.42 0.74
10 0 2 8.43 0.61
10 0 -2 8.71 0.65
2 10 0 7.21 0.56
10 0 2 6.97 0.72
0 -2 10 6.98 0.82
0 2 10 7.24 0.75
10 0 -2 6.53 0.66
-2 -10 0 7.68 0.71
-10 0 2 7.68 0.44
10 1 -2 3.95 0.53
-10 1 2 4.49 0.44
-10 -1 -2 3.61 0.28
-2 -10 -1 4.22 0.58
10 -1 2 3.94 0.5
-1 2 10 4.21 0.63
10 1 -2 3.81 0.5
1 -2 10 3.89 0.63
2 -10 1 3.18 0.53
2 10 -1 4.66 0.47
10 -1 2 4.59 0.55
10 1 2 4.68 0.55
2 10 1 4.15 0.5
1 2 10 3.73 0.58
2 -10 -1 3.62 0.49
1 -2 -10 4.5 0.52
10 -1 -2 3.82 0.48
10 1 2 3.72 0.53
-1 -2 10 3.67 0.6
2 -10 -1 4.15 0.61
-10 -1 2 4.02 0.35
-2 -10 1 3.62 0.6
10 -1 -2 3.64 0.52
2 -10 2 2.93 0.57
10 -2 2 3.5 0.48
-10 -2 -2 2.71 0.25
10 2 -2 3.12 0.48
2 -2 10 2.04 0.5
10 -2 2 2.95 0.49
-2 2 10 2.49 0.55
-2 -10 -2 2.51 0.52
2 10 -2 2.69 0.4
10 2 -2 2.72 0.48
10 2 2 3.11 0.42
2 2 10 2.53 0.51
-10 -2 2 3.21 0.33
10 -2 -2 3.45 0.45
2 -10 -2 2.42 0.52
10 -2 -2 2.66 0.46
-2 -2 10 2.39 0.5
2 -10 -2 3.85 0.49
-2 -10 2 2.71 0.53
2 10 2 3.24 0.47
10 2 2 2.95 0.47
2 -2 -10 2.62 0.44
3 -2 10 0.92 0.48
-10 -3 -2 1.53 0.23
-2 -10 -3 1.03 0.47
2 10 -3 0.79 0.32
2 -10 3 1.04 0.42
10 -3 2 1.37 0.42
10 -3 2 1.64 0.34
-3 2 10 1.12 0.5
10 3 -2 1.46 0.41
10 3 -2 0.85 0.37
-2 -10 3 1.2 0.46
10 3 2 0.81 0.4
2 -10 -3 1.57 0.51
-10 -3 2 1.63 0.3
10 -3 -2 1.17 0.41
3 -2 -10 0.89 0.35
10 -3 -2 1.84 0.37
2 -10 -3 0.89 0.35
-3 -2 10 1.24 0.49
3 2 10 1.26 0.43
10 3 2 1.85 0.38
10 -4 2 3.65 0.41
2 -10 4 3.33 0.66
10 4 -2 4.21 0.56
-4 2 10 2.76 0.55
10 -4 2 3.47 0.52
-2 -10 -4 3.33 0.59
10 4 -2 3.14 0.5
2 10 -4 3.84 0.45
4 -2 10 3.53 0.57
-10 -4 2 4.34 0.46
10 -4 -2 3.99 0.49
10 -4 -2 3.5 0.56
10 4 2 4.34 0.51
-4 -2 10 3.18 0.61
-2 -10 4 3.83 0.58
10 4 2 3.81 0.55
2 -10 -4 3.63 0.51
4 2 10 3.8 0.57
4 -2 -10 3.83 0.52
2 -10 -4 3.16 0.64
-5 2 10 -0.09 0.4
2 10 -5 0.29 0.3
5 2 -10 0.18 0.37
10 -5 2 0.15 0.37
10 5 -2 0.05 0.42
5 -2 10 0.95 0.46
10 -5 2 -0.07 0.31
-2 -10 -5 -0.35 0.38
-10 -5 -2 0.41 0.28
2 -10 5 -0.17 0.41
-5 -2 10 -0.48 0.39
10 -5 -2 0 0.39
10 -5 -2 0.35 0.32
-10 -5 2 0.6 0.32
5 -2 -10 0.51 0.39
10 5 2 0.31 0.33
2 -10 -5 -0.19 0.3
2 -10 -5 0.32 0.48
10 5 2 -0.03 0.35
5 -2 -10 0.29 0.42
-6 2 10 2.84 0.6
2 -10 6 1.97 0.57
6 -2 10 1.95 0.49
-2 -10 -6 1.67 0.53
-10 -6 -2 2.12 0.4
10 -6 2 3.18 0.6
6 2 -10 2.95 0.57
2 10 -6 2.27 0.42
2 -10 -6 2.25 0.59
6 -2 -10 2.19 0.51
10 -6 -2 2.38 0.42
-10 -6 2 3.26 0.46
10 -6 -2 2.83 0.6
-6 -2 10 1.89 0.56
10 6 2 2.93 0.39
6 -2 -10 2.4 0.58
-2 -10 6 1.86 0.53
2 -10 -6 2.42 0.42
-10 -7 -2 0.51 0.38
7 -2 10 0.78 0.43
10 -7 2 0.31 0.15
-7 2 10 0.79 0.47
7 2 -10 0.79 0.53
2 10 -7 0.85 0.36
-2 -10 -7 1.26 0.56
10 -7 2 -0.19 0.5
2 -10 7 0.1 0.51
10 -7 2 0.44 0.16
10 7 2 0.27 0.41
-10 -7 2 1.48 0.43
-7 -2 10 0.66 0.49
2 -10 -7 0.38 0.54
7 -2 -10 0.23 0.49
10 -7 -2 0.37 0.51
7 -2 -10 0.33 0.44
10 -7 -2 0.11 0.34
-2 -10 7 -0.24 0.44
10 -7 -2 0.79 0.28
2 -10 8 0.25 0.56
-10 -8 -2 0.74 0.46
8 2 -10 0.01 0.38
8 -2 10 0.63 0.41
10 8 -2 0.14 0.4
10 -8 2 0.2 0.54
8 2 -10 1.11 0.58
-8 2 10 1.08 0.59
-2 -10 -8 1.03 0.52
10 -8 2 -0.27 0.28
-8 -2 10 0.05 0.5
-10 -8 2 1.42 0.46
8 -2 -10 0.25 0.51
10 -8 -2 0.83 0.35
2 -10 -8 0.61 0.61
10 -8 -2 0.61 0.56
8 -2 -10 0.62 0.51
-2 -10 8 0.5 0.57
10 8 2 0 0.43
2 -10 -8 0.66 0.37
10 -9 2 2.09 0.69
9 2 -10 1.82 0.53
10 -9 2 1.08 0.39
10 9 -2 1.28 0.57
9 2 -10 0.81 0.59
-2 -10 -9 1.36 0.63
2 10 -9 1.77 0.42
-10 -9 -2 1.73 0.53
10 9 -2 1.43 0.49
9 2 -10 0.63 0.41
2 -10 9 0.69 0.64
10 9 2 0.36 0.47
10 -9 -2 1.29 0.45
-10 -9 2 1.05 0.52
-9 -2 10 0.44 0.65
9 -2 -10 1.13 0.54
9 -2 -10 0.66 0.6
2 -10 -9 0.21 0.4
-2 -10 9 0.3 0.61
10 -9 -2 0.47 0.61
2 -10 -9 0.6 0.67
0 -3 10 75.18 2.64
0 3 10 76.26 2.64
10 0 -3 74.08 2.48
-3 -10 0 75.62 2.61
3 -10 0 75.97 2.45
-10 0 3 73.48 2.28
10 0 -3 72.4 2.44
10 0 3 71.62 2.4
10 0 3 75.99 2.39
0 -3 -10 76.84 2.39
3 -10 0 74.59 2.61
3 10 -1 52.3 2.08
-1 3 10 59.06 2.22
10 -1 3 59.3 2.01
10 1 -3 59.85 2.07
1 -3 10 59.21 2.19
-3 -10 -1 62.61 2.19
10 1 -3 58.26 2.04
-10 1 3 62.02 1.9
10 -1 3 62.66 1.95
-1 -3 -10 59.04 1.93
3 -10 1 58.44 2.16
3 -10 -1 59.81 2.19
-1 -3 10 61.36 2.26
10 1 3 59.59 1.99
3 -10 -1 58.54 2
1 -3 -10 59.66 1.97
1 3 10 59.23 2.19
10 1 3 60.22 1.95
10 -1 -3 61.1 2.08
-3 -10 1 58.86 2.16
-10 -1 3 58.4 1.86
3 10 1 56.75 2.02
10 -1 -3 57.36 2.01
10 -2 3 1.23 0.34
-3 -10 -2 0.61 0.41
10 2 -3 0.79 0.36
3 -10 2 1.21 0.44
10 2 -3 1.33 0.4
-10 2 3 1.54 0.33
3 10 -2 1.48 0.39
-2 3 10 0.3 0.42
10 -2 3 1.17 0.38
2 -3 10 1.4 0.49
10 2 3 0.97 0.36
-10 -2 3 1.54 0.29
3 -10 -2 1.4 0.36
3 -10 -2 0.52 0.44
2 -3 -10 0.99 0.35
2 3 10 1.18 0.45
3 10 2 1.95 0.43
-3 -10 2 1.3 0.45
-2 -3 10 0.75 0.49
10 -2 -3 1.51 0.44
10 2 3 1.01 0.42
10 -3 3 0.47 0.31
10 3 -3 -0.4 0.3
3 -3 10 0.36 0.39
3 10 -3 -0.34 0.27
10 -3 3 -0.05 0.32
-3 -10 -3 0.16 0.35
-3 3 10 0.47 0.42
10 3 -3 -0.46 0.33
-10 -3 -3 -0.07 0.24
-10 -3 3 0.05 0.27
10 3 3 -0.16 0.33
3 -10 -3 0.35 0.32
10 3 3 -0.05 0.32
3 -3 -10 0.07 0.31
-3 -3 10 0.4 0.44
-3 -10 3 -0.24 0.41
3 10 3 0.26 0.33
10 -3 -3 -0.43 0.32
10 -3 -3 0.49 0.4
-4 3 10 13.85 0.96
-3 -10 -4 12.74 0.92
3 -10 4 12.86 0.95
-10 -4 -3 14.15 0.67
10 -4 3 14.16 0.68
4 -3 10 13.02 1.06
10 -4 3 13.06 0.84
10 4 -3 13.72 1.25
10 4 -3 14 0.82
3 10 -4 12.86 0.75
10 -4 -3 13.94 0.76
10 4 3 15.25 0.84
10 4 3 15.26 0.72
-3 -10 4 14.47 0.94
-10 -4 3 14.01 0.73
4 -3 -10 14.14 0.85
-4 -3 10 12.93 0.96
3 -10 -4 13.9 0.78
10 -4 -3 15.09 0.89
3 -10 -4 14.15 1
4 -3 -10 15.38 0.99
-3 -10 -5 1.89 0.5
-5 3 10 1.47 0.5
10 5 -3 0.19 0.39
-10 -5 -3 0.79 0.33
5 -3 10 0.75 0.54
10 -5 3 1.1 0.46
3 -10 5 1.43 0.56
-10 -5 3 1.07 0.37
3 -10 -5 1.24 0.48
5 -3 -10 0.49 0.47
-5 -3 10 1.19 0.5
10 5 3 1.28 0.35
5 -3 -10 1.3 0.44
10 -5 -3 0.84 0.36
-3 -10 5 0.98 0.57
3 -10 -5 1.13 0.41
10 -5 -3 1.43 0.49
10 5 3 0.56 0.47
10 6 -3 4.64 0.55
-6 3 10 3.97 0.71
6 3 -10 3.37 0.57
3 -10 6 2.71 0.67
3 10 -6 3.96 0.5
-10 -6 -3 4.55 0.51
10 -6 3 4.21 0.68
6 -3 10 2.78 0.68
10 -6 -3 3.58 0.63
-10 -6 3 4.49 0.57
6 -3 -10 3.76 0.59
3 -10 -6 4.11 0.51
10 -6 -3 3.52 0.33
-3 -10 6 3.38 0.6
-6 -3 10 3.08 0.63
3 -10 -6 3.81 0.7
6 -3 -10 4.57 0.7
7 -3 10 44.29 1.67
10 -7 3 41.39 1.78
-7 3 10 37.59 2.36
-10 -7 -3 44.13 1.6
10 -7 3 42.46 1.27
7 3 -10 41.4 1.76
7 3 -10 41.91 1.7
3 -10 7 42.4 1.92
-3 -10 -7 44.21 1.85
10 7 -3 42.05 1.59
10 -7 3 43.5 1.27
3 10 -7 42.55 1.56
10 -7 -3 42.59 1.47
-10 -7 3 43.29 1.64
7 -3 -10 45.26 1.81
10 -7 -3 41.75 1.42
-3 -10 7 42.2 1.85
10 -7 -3 40.73 1.76
-7 -3 10 45.55 1.84
3 -10 -7 41.46 1.55
3 -10 -7 41.76 1.9
10 7 3 42.47 1.71
7 -3 -10 42.5 1.73
8 -3 10 0 0.42
3 -10 8 0.94 0.68
10 -8 3 0.69 0.6
-10 -8 -3 0.69 0.44
3 10 -8 0.65 0.36
-3 -10 -8 -0.27 0.5
10 -8 3 0.61 0.31
10 8 -3 0.29 0.45
8 3 -10 -0.29 0.54
8 3 -10 1.11 0.38
10 8 -3 -0.24 0.39
10 -8 -3 -0.26 0.35
3 -10 -8 0.11 0.69
-8 -3 10 -0.5 0.45
3 -10 -8 -0.13 0.37
8 -3 -10 0.44 0.51
8 -3 -10 0.84 0.53
-10 -8 3 0.57 0.46
10 8 3 0.92 0.47
-3 -10 8 0.88 0.59
10 -8 -3 0.48 0.58
3 -10 9 10.75 1.2
10 -9 3 11.99 1.06
10 9 -3 10.11 0.88
9 3 -10 11.9 1.05
10 -9 3 11.37 0.75
-3 -10 -9 9.42 1.06
9 -3 10 10.56 0.72
9 3 -10 10.19 0.83
3 10 -9 11.35 0.75
10 9 -3 11.82 0.85
-9 3 10 13.21 0.99
-10 -9 -3 11.56 0.91
3 -10 -9 10.47 0.81
10 -9 -3 9.07 0.86
9 -3 -10 10.32 1.02
10 9 3 11.84 0.9
3 -10 -9 13.33 1.2
-3 -10 9 9.09 1.07
10 -9 -3 9.63 1.03
-10 -9 3 13.93 1.01
9 -3 -10 11.45 0.96
-9 -3 10 11.16 1.21
4 10 0 1.66 0.4
10 0 4 1.3 0.37
10 0 4 1.99 0.43
10 0 -4 1.61 0.44
-4 -10 0 1.98 0.51
4 -10 0 2.63 0.44
4 -10 0 1.85 0.47
0 -4 -10 1.73 0.36
0 -4 10 0.66 0.52
10 0 -4 2.03 0.44
-10 0 4 2.23 0.35
10 1 -4 10.25 0.75
4 -10 1 10.8 0.72
-10 1 4 10.55 0.62
4 10 -1 10.03 0.69
4 -10 1 10.36 0.8
10 -1 4 9.7 0.63
10 -1 4 11.39 0.74
-1 -4 -10 11.5 0.64
10 1 -4 10.1 0.7
-4 -10 -1 11.18 0.81
10 1 4 10.8 0.69
-1 -4 10 10.01 0.86
10 1 4 10.24 0.69
1 -4 -10 7.68 0.87
10 -1 -4 10.49 0.8
10 -1 -4 9.22 0.66
-10 -1 4 10.37 0.6
4 -10 -1 10.47 0.72
4 -10 -1 10.09 0.9
-4 -10 1 11.51 0.82
4 10 1 10.08 0.68
1 -4 -10 9.62 0.74
10 -2 4 5.11 0.49
10 2 -4 3.67 0.53
-10 2 4 3.95 0.52
-4 -10 -2 3.19 0.56
10 2 -4 3.67 0.54
10 -2 4 3.37 0.51
-2 -4 -10 3.74 0.46
4 10 -2 3.69 0.48
10 -2 -4 3.34 0.47
2 -4 -10 3.25 0.63
-10 -2 4 3.2 0.41
10 2 4 3.78 0.53
4 10 2 3.21 0.51
10 -2 -4 3.88 0.54
4 -10 -2 3.76 0.5
-4 -10 2 3.64 0.57
-2 -4 10 3.46 0.61
2 -4 -10 3.42 0.45
-4 -10 -3 14.84 1.01
4 -10 3 13.64 0.96
10 3 -4 14.53 0.82
3 -4 10 12.61 1.1
10 3 -4 13.36 0.92
4 10 -3 12.83 0.77
10 -3 4 14.59 0.9
10 -3 4 14.56 0.7
-3 -4 -10 15.49 0.69
10 3 4 13.9 0.79
10 -3 -4 13.37 0.77
4 10 3 13.13 0.81
10 -3 -4 14.09 0.91
3 -4 -10 15.27 0.96
4 -10 -3 15.21 1.01
-10 -3 4 14.35 0.74
-3 -4 10 14.17 1.03
10 3 4 14.9 0.75
-4 -10 3 14.37 0.99
3 -4 -10 14.75 0.83
4 -10 -3 13.84 0.81
10 -4 4 1.18 0.46
-10 -4 -4 1.71 0.34
10 4 -4 1.57 0.44
4 10 -4 1.22 0.38
4 -10 4 0.55 0.46
-4 -10 -4 1.55 0.48
10 -4 4 1.77 0.35
4 -4 10 1.05 0.47
4 -10 -4 1.45 0.42
10 4 4 2.47 0.37
4 -4 -10 1.07 0.41
10 -4 -4 1.43 0.46
10 4 4 1.05 0.43
4 -4 -10 1.44 0.52
-10 -4 4 1.62 0.38
4 -10 -4 1 0.49
-4 -4 10 1.35 0.5
-4 -10 4 0.98 0.47
4 10 4 1.05 0.42
-4 -10 -5 28.38 1.41
10 5 -4 26.71 1.24
5 4 -10 29.06 1.24
10 -5 4 27.23 1.33
4 -10 5 29.58 1.44
5 -4 10 29.37 1.38
4 10 -5 29.36 1.2
-10 -5 -4 28.48 1.13
5 -4 -10 30.33 1.3
10 -5 -4 27.31 1.33
10 -5 -4 28.07 0.9
4 -10 -5 28.62 1.49
10 -5 -4 29.63 0.91
-5 -4 10 29 1.42
-10 -5 4 28.21 1.21
5 -4 -10 28.27 1.43
4 -10 -5 28.29 1.21
-4 -10 5 29.73 1.4
4 10 -6 27.67 1.18
4 -10 6 27.12 1.41
6 4 -10 28.51 1.27
-6 4 10 27.27 1.57
-4 -10 -6 27.31 1.55
-10 -6 -4 29.09 1.17
10 6 -4 28.76 1.24
6 -4 10 28.34 1.34
10 -6 4 27.85 1.37
-6 -4 10 26.92 1.46
6 -4 -10 28.08 1.28
6 -4 -10 28.84 1.45
-4 -10 6 28.28 1.41
10 -6 -4 29.48 1.42
4 -10 -6 27.78 1.18
4 -10 -6 29.52 1.49
10 -6 -4 29.98 1.02
-10 -6 4 29.66 1.27
10 -7 4 0.56 0.21
10 7 -4 0.17 0.43
7 4 -10 -0.3 0.48
-10 -7 -4 -0.26 0.38
10 7 -4 -0.06 0.35
7 -4 10 0.61 0.54
-7 4 10 0.23 0.46
-4 -10 -7 0.24 0.53
4 10 -7 0.16 0.36
7 4 -10 0.78 0.38
10 -7 4 -0.72 0.54
10 -7 4 0.34 0.21
4 -10 7 1.66 0.67
-4 -10 7 -0.38 0.45
10 -7 -4 0.81 0.57
7 -4 -10 0.06 0.46
7 -4 -10 0.97 0.56
-7 -4 10 -0.24 0.53
4 -10 -7 -0.09 0.56
-10 -7 4 -0.65 0.4
10 7 4 0.14 0.39
4 -10 -7 0.19 0.38
10 -7 -4 0.01 0.32
-10 -8 -4 29.3 1.32
8 4 -10 29.08 1.36
4 -10 8 28.96 1.59
4 10 -8 27.55 1.23
10 -8 4 30.16 1.09
10 8 -4 29.3 1.38
-8 4 10 28.01 1.47
10 -8 4 26.47 1.47
-4 -10 -8 29.24 1.48
8 4 -10 28.52 1.43
10 8 -4 28.31 1.26
-4 -10 8 29.45 1.58
4 -10 -8 28.08 1.26
-10 -8 4 31.34 1.37
8 -4 -10 27.42 1.44
10 8 4 27.52 1.35
8 -4 -10 27.47 1.43
10 -8 -4 28.93 1.22
10 -8 -4 28.44 1.5
4 -10 -8 30.12 1.69
10 -9 4 -0.36 0.4
9 4 -10 -0.2 0.59
-9 4 10 -0.07 0.54
9 4 -10 -0.01 0.4
10 9 -4 -0.81 0.45
4 10 -9 0.02 0.38
9 -4 10 0.65 0.42
-4 -10 -9 -0.56 0.62
-10 -9 -4 -0.02 0.5
4 -10 9 -0.44 0.56
10 9 -4 -0.46 0.46
10 -9 4 0.11 0.61
10 -9 -4 0.29 0.45
-10 -9 4 0.08 0.53
4 -10 -9 0.12 0.73
4 -10 -9 0.35 0.43
9 -4 -10 -0.1 0.56
9 -4 -10 0.85 0.56
-4 -10 9 -0.44 0.62
10 9 4 0.21 0.48
10 -9 -4 0.27 0.59
-9 -4 10 0.2 0.63
0 -5 -10 25.91 1.06
5 10 0 24.68 1.14
-10 0 5 27 1.09
-5 -10 0 27.54 1.26
10 0 5 27.63 1.09
0 -5 10 25.84 1.32
10 0 -5 25.29 1.18
10 0 -5 28.25 1.23
5 -10 0 26.07 1.16
1 -5 10 10.64 0.91
10 -1 5 11.26 0.79
5 10 -1 11.85 0.76
5 -10 1 11.1 0.81
-5 -10 -1 12.35 0.89
-1 -5 -10 9.75 0.94
10 1 -5 10.88 0.81
10 -1 5 11.37 0.68
-1 -5 -10 11.95 0.65
-10 1 5 11.72 0.72
10 1 -5 11.13 0.75
10 1 5 11.08 0.75
-10 -1 5 10.95 0.69
10 -1 -5 12.53 0.87
5 -10 -1 11.65 0.8
1 -5 -10 11.74 0.88
10 1 5 11.51 0.73
10 -1 -5 10.03 0.71
5 10 1 11.54 0.78
-5 -10 1 11.96 0.88
-1 -5 10 12.26 0.91
10 -2 5 0.02 0.41
5 -10 2 -0.05 0.36
5 10 -2 -0.44 0.31
5 -10 2 0.81 0.45
2 -5 10 0.29 0.42
10 -2 5 0.54 0.35
-2 -5 -10 0.41 0.29
-2 -5 -10 0.2 0.4
-10 2 5 -0.1 0.35
10 2 -5 0.2 0.39
-5 -10 -2 0.48 0.46
10 -2 -5 0.47 0.34
5 -10 -2 0.34 0.42
10 2 5 0.48 0.37
5 10 2 0.53 0.37
2 -5 -10 -0.02 0.33
2 -5 -10 -0.44 0.38
10 -2 -5 0.57 0.42
-2 -5 10 0.22 0.43
-5 -10 2 -0.18 0.44
-10 -2 5 -0.44 0.28
5 -10 -2 0.36 0.37
10 2 5 0.23 0.4
3 5 -10 0.71 0.34
3 -5 10 0.87 0.49
5 10 -3 1.2 0.37
10 -3 5 1.11 0.36
10 -3 5 1.02 0.44
-5 -10 -3 1.07 0.45
-3 -5 -10 0.23 0.43
-3 -5 -10 1.55 0.32
5 -10 3 1.19 0.49
10 3 -5 1.19 0.41
-10 3 5 1.36 0.39
3 -5 -10 0.98 0.53
5 10 3 0.74 0.4
-10 -3 5 1.63 0.37
10 3 5 1.61 0.42
5 -10 -3 1.02 0.41
-5 -10 3 0.79 0.44
10 -3 -5 0.94 0.44
3 -5 -10 1.42 0.41
-3 -5 10 0.37 0.59
5 -10 -3 1.36 0.52
5 10 -4 27.49 1.22
-5 -10 -4 28.83 1.35
10 4 -5 26.33 1.25
-4 -5 -10 26.73 1
5 -10 4 28.56 1.41
-10 -4 -5 30.07 1.13
4 5 -10 28.6 1.2
4 -5 10 26.25 1.39
10 -4 5 26.3 1.28
5 -10 -4 27.86 1.25
-4 -5 10 25.3 1.59
-10 -4 5 28.89 1.2
4 -5 -10 28.1 1.41
10 -4 -5 28.84 0.89
5 -10 -4 28.98 1.44
10 4 5 27.95 1.23
5 10 4 28.14 1.29
10 -4 -5 29.31 1.36
-5 -10 4 28.83 1.39
10 -4 -5 29.64 0.9
4 -5 -10 29.06 1.21
5 10 -5 3.82 0.52
5 5 -10 2.55 0.49
5 -5 10 2.29 0.62
10 -5 5 2.72 0.58
-5 -5 -10 2.62 0.33
10 5 -5 2.9 0.54
-10 -5 -5 2.77 0.45
5 -10 5 1.86 0.55
-5 -10 -5 2.99 0.58
5 -5 -10 2.5 0.5
5 -5 -10 2.88 0.67
-10 -5 5 2.92 0.51
10 -5 -5 2.78 0.38
10 -5 -5 2.32 0.57
-5 -10 5 3.11 0.58
5 -10 -5 3.1 0.63
-5 -5 10 3.23 0.73
5 -10 -5 2.9 0.47
5 -10 6 0.46 0.59
6 -5 10 1.18 0.54
10 6 -5 0.41 0.45
-5 -10 -6 0.05 0.47
5 10 -6 0.85 0.41
10 6 -5 -0.4 0.3
-10 -6 -5 0.72 0.41
10 -6 5 0.49 0.52
6 5 -10 0.85 0.36
5 -10 -6 1.11 0.41
10 -6 -5 0.62 0.34
10 -6 -5 0.34 0.49
6 -5 -10 0.44 0.45
10 6 5 0.76 0.46
-5 -10 6 0.82 0.47
-10 -6 5 -0.15 0.44
-6 -5 10 0.15 0.49
5 -10 -6 1.07 0.65
6 -5 -10 0.3 0.52
-5 -10 -7 20.98 1.27
5 -10 7 20.34 1.27
5 10 -7 21.42 1.03
7 5 -10 18.94 1.05
10 7 -5 20.86 1.14
7 -5 10 20.14 1.14
7 5 -10 20.11 1.19
10 -7 5 22.61 0.78
10 7 -5 18.51 1.06
-10 -7 -5 20.18 1.07
10 -7 5 21.61 1.27
5 -10 -7 20.82 1.4
10 7 5 18.74 1.13
5 -10 -7 19.85 1.04
10 -7 -5 20.06 1.25
-7 -5 10 20.32 1.2
7 -5 -10 19.53 1.26
10 -7 -5 19.66 0.97
7 -5 -10 19.61 1.18
-10 -7 5 21.59 1.13
-5 -10 7 19.06 1.21
10 8 -5 19.33 1.13
8 -5 10 21.94 1.11
10 -8 5 20.12 0.88
-8 -5 -10 20.54 1.19
5 10 -8 18.95 1
8 5 -10 19.84 1.12
10 8 -5 19.04 1.09
10 -8 5 18.57 1.27
5 -10 8 17.79 1.32
-5 -10 -8 19.58 1.21
-10 -8 -5 15.82 1.08
8 5 -10 18.26 1.2
5 -10 -8 18.27 1.31
8 -5 -10 19.29 1.19
-8 -5 10 17.55 1.25
-10 -8 5 21.55 1.18
10 8 5 19.3 1.14
8 -5 -10 18.65 1.21
10 -8 -5 17.16 1.28
10 -8 -5 18.96 1.23
5 -10 -8 18.38 1.04
-5 -10 8 19.19 1.36
10 9 -5 15.5 1.02
10 -9 5 17 0.93
5 10 -9 14.53 0.92
-5 -10 -9 16.6 1.28
9 5 -10 15.17 1.02
9 5 -10 15.65 1.18
5 -10 9 15.41 1.32
10 9 -5 15.78 1.04
-10 -9 -5 16.4 1.08
-9 -5 -10 17.8 1.16
5 -10 -9 15.78 1.3
-5 -10 9 15.12 1.35
5 -10 -9 16.55 1.03
10 -9 -5 15.26 0.99
-9 -5 10 16.27 1.23
9 -5 -10 14.9 1.17
10 -9 -5 17.39 1.27
9 -5 -10 16.57 1.15
-10 -9 5 16.5 1.15
10 9 5 14.7 1.04
0 6 -10 73.31 2.25
6 -10 0 69.83 2.42
-6 -10 0 71.96 2.47
0 -6 10 70.5 2.62
6 -10 0 67.84 2.48
6 10 0 66.85 2.4
10 0 -6 68.72 2.44
10 0 6 70.81 2.27
0 -6 -10 69.75 2.59
-10 0 6 71.27 2.33
0 -6 -10 69.3 2.23
6 -10 1 3.22 0.49
6 10 -1 3.68 0.56
-1 -6 -10 4.09 0.48
10 -1 6 3.77 0.53
-10 1 6 2.99 0.48
6 -10 1 2.75 0.59
-6 -10 -1 3.65 0.59
1 6 -10 3.88 0.48
10 1 -6 2.87 0.52
-1 -6 -10 2.68 0.58
1 -6 10 2.75 0.62
-6 -10 1 3.05 0.58
-1 -6 10 3.17 0.61
6 -10 -1 2.88 0.54
10 -1 -6 3.06 0.56
6 10 1 2.21 0.5
10 1 6 2.78 0.49
1 -6 -10 3.3 0.61
6 -10 -1 3.14 0.51
-10 -1 6 2.5 0.47
-1 6 -10 3.3 0.4
6 -10 2 2.14 0.54
6 -10 2 2.12 0.52
-10 2 6 2.87 0.49
-2 -6 -10 1.61 0.5
10 2 -6 2.88 0.57
6 10 -2 2.61 0.5
2 -6 10 1.84 0.63
-6 -10 -2 2.81 0.56
-2 -6 -10 2.19 0.36
6 -10 -2 2.73 0.58
-2 6 -10 2.38 0.37
-10 -2 6 2.71 0.46
6 -10 -2 1.82 0.47
6 10 2 1.99 0.48
-2 -6 10 2.42 0.61
10 -2 -6 2.55 0.56
-6 -10 2 2.68 0.57
2 -6 -10 2.83 0.45
10 2 6 2.78 0.49
2 -6 -10 2.74 0.64
3 6 -10 4.28 0.56
3 -6 10 3.63 0.66
-6 -10 -3 4 0.64
-10 3 6 3.32 0.55
-3 -6 -10 4.29 0.46
6 10 -3 3.79 0.56
6 -10 3 3.51 0.63
10 3 -6 3.74 0.6
-6 -10 3 3.65 0.61
3 -6 -10 3.76 0.73
10 -3 -6 3.87 0.61
6 10 3 3.31 0.59
10 3 6 4.38 0.57
-3 -6 10 3.46 0.61
-3 6 -10 4.93 0.45
-10 -3 6 4.37 0.54
10 -3 -6 4.18 0.33
3 -6 -10 4.12 0.56
6 -10 -3 3.56 0.61
6 -10 -3 4.28 0.6
-10 -4 -6 29.87 1.2
-6 -10 -4 29.59 1.41
4 -6 10 30.38 1.5
4 6 -10 29.55 1.24
10 4 -6 27.07 1.29
6 10 -4 27.8 1.28
6 -10 4 28.72 1.41
-4 -6 -10 26.54 1.53
-6 -10 4 30.03 1.43
-4 -6 10 30.37 1.47
4 -6 -10 27.95 1.24
10 -4 -6 29.15 1.39
10 -4 -6 29.42 1.02
6 -10 -4 28.87 1.28
6 -10 -4 27.14 1.37
-10 -4 6 28.79 1.25
4 -6 -10 27.4 1.45
-10 -5 -6 0.15 0.4
5 6 -10 0.43 0.38
5 -6 10 0.74 0.58
6 10 -5 -0.11 0.38
10 5 -6 0.33 0.35
-5 -6 -10 0.04 0.47
10 5 -6 0.72 0.45
6 -10 5 0.76 0.57
-6 -10 -5 0.99 0.53
6 -10 -5 0.8 0.42
-6 -10 5 0.82 0.49
5 -6 -10 0.26 0.55
6 10 5 0.23 0.35
10 -5 -6 0.1 0.5
10 -5 -6 0.32 0.31
-10 -5 6 1.08 0.45
-5 -6 10 1.34 0.62
6 -10 -5 1 0.6
5 -6 -10 0.6 0.44
10 5 6 0.29 0.34
6 -6 10 4.17 0.7
6 6 -10 4.15 0.57
6 10 -6 4.61 0.62
6 -10 6 3.41 0.71
10 6 -6 3.72 0.65
-6 -6 -10 3.81 0.65
10 6 -6 4.19 0.62
-6 -10 -6 4.64 0.68
-10 -6 -6 4.17 0.59
-6 -10 6 3.96 0.69
-10 -6 6 4.89 0.64
10 -6 -6 4.56 0.58
6 -6 -10 4.7 0.82
-6 -6 10 4.03 0.71
10 -6 -6 4.31 0.74
6 -6 -10 5.23 0.67
6 -10 -6 4.47 0.81
10 6 6 4 0.65
6 -10 -6 4.54 0.64
10 7 -6 10.41 0.92
10 -7 6 11.21 0.61
6 10 -7 9.55 0.79
6 -10 7 10.45 1.03
-10 -7 -6 11.63 0.87
7 6 -10 9.59 0.8
7 -6 10 10.19 0.94
-6 -10 -7 9.93 0.9
7 6 -10 9.84 0.95
-7 -6 -10 11.16 1.15
10 7 -6 9.88 0.85
-6 -10 7 7.81 0.9
10 7 6 10.05 0.9
7 -6 -10 10.02 0.9
7 -6 -10 12.14 1.1
-7 -6 10 9.32 1.04
6 -10 -7 7.87 1.09
-10 -7 6 10.41 0.89
10 -7 -6 9.02 0.97
10 -7 -6 10.83 0.82
6 -10 -7 9.45 0.86
6 10 -8 23.38 1.18
-6 -10 -8 23.02 1.39
-8 -6 -10 23.58 1.33
10 -8 6 23.08 1.03
10 8 -6 24.42 1.3
8 6 -10 24.46 1.27
-10 -8 -6 21.43 1.23
8 -6 10 24.31 1.24
10 8 -6 22.34 1.23
8 6 -10 23.57 1.42
6 -10 8 24.1 1.44
10 -8 -6 24.32 1.18
-6 -10 8 23.32 1.48
6 -10 -8 22.59 1.23
-10 -8 6 24.09 1.34
-8 -6 10 21.02 1.33
10 8 6 20.82 1.24
6 -10 -8 23.49 1.49
8 -6 -10 23.77 1.37
8 -6 -10 24.73 1.37
10 -8 -6 22.94 1.39
10 9 -6 -0.49 0.54
10 9 -6 -0.83 0.41
-9 -6 -10 1.29 0.63
6 -10 9 0.54 0.68
-6 -10 -9 0.47 0.6
9 -6 10 -0.27 0.5
9 6 -10 -0.13 0.46
6 10 -9 0.71 0.44
9 6 -10 0.66 0.62
-10 -9 -6 -0.72 0.58
6 -10 -9 -0.48 0.5
-10 -9 6 0.25 0.6
-6 -10 9 0.76 0.66
-9 -6 10 0.55 0.62
10 -9 -6 0.04 0.52
10 -9 -6 1.77 0.74
9 -6 -10 0.81 0.64
9 -6 -10 0.08 0.58
10 9 6 0.75 0.51
6 -10 -9 -0.52 0.71
7 10 0 14.54 0.9
0 -7 -10 13.98 0.74
7 -10 0 13.17 0.93
-7 -10 0 14.84 0.98
10 0 -7 14.69 1
0 7 -10 13.97 0.73
-10 0 7 15.12 0.92
7 10 0 14.61 0.69
10 0 -7 13.62 0.83
10 0 -7 13.89 0.49
7 -10 0 13.15 0.96
10 0 -7 13.71 0.49
0 -7 -10 12.47 1.01
0 -7 10 13.61 1.06
-1 -7 -10 28.82 1.07
10 1 -7 26.06 1.36
7 -10 1 29.24 1.34
10 1 -7 28.87 1.28
7 -10 1 27.48 1.32
7 10 -1 27.9 1.28
-10 1 7 26.55 1.27
-7 -10 -1 28.95 1.3
-1 -7 -10 28.63 1.42
1 7 -10 27.81 1.13
1 -7 10 28.46 1.48
7 10 -1 26.68 1.08
-7 -10 1 31.2 1.37
7 10 1 27.43 1.29
1 -7 -10 26.74 1.44
10 -1 -7 27.33 1.25
-1 -7 10 28.14 1.52
10 -1 -7 28.99 1.37
7 -10 -1 29.43 1.3
10 -1 -7 28.79 0.93
7 -10 -1 27.78 1.33
-1 7 -10 29.91 1.08
-10 -1 7 28.76 1.28
7 -10 2 0.16 0.46
-7 -10 -2 0.76 0.49
2 7 -10 0.54 0.36
10 2 -7 -0.03 0.48
7 10 -2 0.67 0.37
7 10 -2 -0.44 0.35
-10 2 7 0.12 0.41
-2 -7 -10 0.13 0.31
-2 -7 -10 0 0.44
7 -10 2 1.09 0.5
2 -7 10 0.56 0.59
-10 -2 7 0.94 0.44
7 10 2 0.54 0.44
2 -7 -10 0.34 0.57
10 -2 -7 0.8 0.25
-7 -10 2 0.75 0.44
7 -10 -2 -0.06 0.4
7 -10 -2 0.69 0.5
2 -7 -10 0.35 0.35
10 -2 -7 0.18 0.54
-2 -7 10 1.35 0.56
-2 7 -10 -0.08 0.32
10 2 7 1.05 0.42
3 -7 10 43.14 1.87
7 -10 3 40.46 1.73
-10 3 7 42.38 1.72
-7 -10 -3 45.82 1.76
7 -10 3 41.81 1.72
10 3 -7 41.43 1.73
3 7 -10 43.31 1.6
7 10 -3 41.39 1.68
-3 -7 -10 41.51 1.82
3 -7 -10 42.1 1.6
10 -3 -7 43.79 1.43
3 -7 -10 44.59 1.96
7 -10 -3 42.88 1.74
7 -10 -3 44.92 1.8
10 3 7 40.42 1.63
10 -3 -7 43.25 1.49
-7 -10 3 43.2 1.78
-3 -7 10 44.57 1.9
10 -3 -7 42.7 1.8
-10 -3 7 41.92 1.67
-7 -10 -4 1.22 0.46
4 -7 10 0.98 0.55
10 4 -7 -0.01 0.12
7 10 -4 0.18 0.37
7 -10 4 0.4 0.51
4 7 -10 -0.24 0.35
-4 -7 -10 -0.64 0.43
10 4 -7 -0.02 0.37
10 4 -7 0.12 0.47
10 4 -7 0.15 0.1
-7 -10 4 0.4 0.44
10 -4 -7 0.53 0.52
10 -4 -7 -0.67 0.31
-4 -7 10 0.99 0.53
7 10 4 0.21 0.41
4 -7 -10 -0.27 0.55
4 -7 -10 0.39 0.39
-10 -4 7 0.27 0.44
7 -10 -4 0.23 0.47
7 -10 -4 -0.03 0.49
10 5 -7 19.28 1.13
10 5 -7 19.92 0.71
-5 -7 -10 19.32 1.19
5 7 -10 20.52 1.03
5 -7 10 21.23 1.32
10 5 -7 21.15 0.72
7 -10 5 20.71 1.2
7 10 -5 21.12 1.08
-7 -10 -5 19.26 1.22
-10 -5 -7 23.07 1.1
10 5 -7 19.55 1.1
10 -5 -7 19.78 0.95
7 -10 -5 20.25 1.14
7 -10 -5 19.57 1.24
-7 -10 5 21.94 1.28
5 -7 -10 20.17 1.39
-5 -7 10 19.66 1.26
10 -5 -7 21.6 1.26
-10 -5 7 22.03 1.14
7 10 5 22.63 1.16
10 5 7 18.84 1.08
5 -7 -10 21.09 1.09
10 6 -7 10.96 0.86
7 -10 6 10.06 0.98
7 10 -6 10.31 0.82
-10 -6 -7 11.6 0.85
10 6 -7 10.42 0.97
6 -7 10 11.01 1.03
6 7 -10 10.79 0.83
10 -6 7 11.94 0.52
-7 -10 -6 11.37 1.37
-6 -7 -10 8.1 0.9
7 -10 -6 11 1.07
6 -7 -10 10.67 1.13
6 -7 -10 9.82 0.84
7 -10 -6 9.78 0.86
10 -6 -7 10.09 1.06
-6 -7 10 10.13 1.06
10 6 7 10.48 0.87
-7 -10 6 11.32 0.94
-10 -6 7 12.23 0.95
10 -6 -7 10.61 0.81
10 -7 7 0.65 0.37
-7 -7 -10 -0.33 0.53
-10 -7 -7 0.12 0.51
7 -10 7 1.15 0.62
-7 -10 -7 0.19 0.53
7 10 -7 0.31 0.44
7 -7 10 0.7 0.59
7 7 -10 1.02 0.41
10 7 -7 -0.18 0.42
10 7 -7 1.18 0.59
7 -10 -7 0.13 0.64
-10 -7 7 0.11 0.54
10 -7 -7 0.22 0.61
-7 -10 7 -0.18 0.58
10 -7 -7 0.22 0.47
7 -7 -10 -0.45 0.63
10 7 7 0.78 0.49
7 -10 -7 1.47 0.57
7 -7 -10 0.03 0.52
-7 -7 10 1.16 0.61
10 8 -7 2.31 0.64
10 8 -7 1.64 0.56
-7 -10 -8 1.67 0.68
8 -7 10 2.23 0.6
-10 -8 -7 1.92 0.61
8 7 -10 0.74 0.64
7 -10 8 1.8 0.68
7 10 -8 1.5 0.51
10 -8 7 1.58 0.47
-8 -7 -10 1.32 0.67
8 7 -10 2.09 0.51
10 -8 -7 1.38 0.69
-7 -10 8 0.48 0.67
10 -8 -7 1.42 0.55
10 8 7 1.81 0.61
7 -10 -8 1.1 0.6
-8 -7 10 1.38 0.71
8 -7 -10 0.65 0.68
8 -7 -10 1.14 0.63
-10 -8 7 2.01 0.68
7 -10 -8 0.95 0.66
9 7 -10 1.21 0.68
10 -9 7 1.41 0.51
7 10 -9 0.54 0.49
9 -7 10 1.01 0.59
-10 -9 -7 1.51 0.67
7 -10 9 0.33 0.69
-9 -7 -10 0.69 0.64
10 9 -7 -0.32 0.5
10 9 -7 1.22 0.61
-7 -10 -9 0.56 0.65
9 7 -10 -0.08 0.46
10 -9 -7 0 0.56
9 -7 -10 0.49 0.68
10 -9 -7 1.18 0.72
-7 -10 9 2.12 0.81
10 9 7 0.83 0.6
-10 -9 7 0.27 0.57
9 -7 -10 0.75 0.66
7 -10 -9 0.47 0.64
-9 -7 10 -0.23 0.69
7 -10 -9 0.96 0.78
10 0 -8 12.53 0.86
10 0 -8 12.77 1.02
0 8 -10 14.96 0.75
-8 -10 0 16.11 1.02
0 -8 -10 12.26 1.07
8 -10 0 13.89 1
-10 0 8 14.4 0.96
0 -8 10 15.08 1.25
10 0 -8 13.72 0.67
0 -8 -10 14.12 0.76
8 10 0 13.79 0.93
8 -10 0 14.51 0.95
8 -10 1 6.04 0.74
8 10 -1 5.24 0.6
10 1 -8 5.4 0.79
-1 -8 -10 5.49 0.55
1 -8 10 5.03 0.81
10 1 -8 5.4 0.64
-8 -10 -1 5.3 0.76
8 10 -1 3.62 0.6
1 8 -10 5.16 0.56
-1 -8 -10 4.81 0.76
8 -10 1 4.75 0.71
-10 1 8 5.79 0.76
10 1 -8 5.1 0.47
10 -1 -8 5.21 0.5
8 -10 -1 5.73 0.73
-1 -8 10 5.23 0.82
1 -8 -10 5.59 0.83
10 -1 -8 4.56 0.61
10 -1 -8 5.47 0.76
8 -10 -1 5.43 0.74
-8 -10 1 5.04 0.69
-10 -1 8 5.67 0.73
-1 8 -10 5.35 0.52
8 10 1 4.78 0.68
-10 2 8 0.97 0.51
8 -10 2 1.16 0.51
10 2 -8 -0.1 0.27
8 10 -2 -0.27 0.4
10 2 -8 0.73 0.55
2 -8 10 0.22 0.58
10 2 -8 -0.02 0.36
8 10 -2 -0.11 0.41
8 -10 2 0.32 0.49
2 8 -10 0.58 0.37
-2 -8 -10 0.06 0.49
-8 -10 -2 0.86 0.52
-10 -2 8 0.33 0.46
8 -10 -2 0.65 0.47
2 -8 -10 0.18 0.6
-2 -8 10 0.81 0.63
8 -10 -2 0.11 0.47
-8 -10 2 0.72 0.47
10 -2 -8 0.49 0.52
10 -2 -8 0.23 0.31
2 -8 -10 0.82 0.38
8 10 2 0.13 0.42
10 3 -8 0.6 0.29
10 3 -8 -0.18 0.36
-3 -8 -10 -0.05 0.47
10 3 -8 -0.37 0.49
3 -8 10 -0.05 0.63
8 10 -3 0.03 0.44
-10 3 8 -0.39 0.49
-8 -10 -3 0.79 0.48
8 -10 3 0.37 0.54
3 8 -10 -0.42 0.39
8 -10 3 -0.86 0.46
8 10 -3 -0.06 0.4
8 -10 -3 -0.04 0.48
-8 -10 3 -0.65 0.49
10 -3 -8 0.34 0.56
-10 -3 8 0.29 0.47
8 10 3 0.75 0.42
8 -10 -3 1.03 0.52
3 -8 -10 0.63 0.64
10 -3 -8 0.4 0.37
-3 -8 10 0.27 0.59
3 -8 -10 1.03 0.4
8 10 -4 27.03 1.37
4 8 -10 29.02 1.26
8 10 -4 30.28 1.27
10 4 -8 31.04 1.07
8 -10 4 29.06 1.36
10 4 -8 30.21 1.37
-4 -8 -10 28.94 1.53
4 -8 10 28.95 1.53
10 4 -8 26.81 1.38
-8 -10 -4 29.91 1.41
-4 -8 10 29 1.56
-10 -4 8 29.43 1.41
4 -8 -10 28.23 1.27
8 -10 -4 28.43 1.41
4 -8 -10 26.3 1.55
10 -4 -8 30.58 1.21
10 -4 -8 26.55 1.46
-8 -10 4 29.18 1.42
8 10 4 29.15 1.41
8 -10 -4 27.99 1.41
5 -8 10 18.77 1.34
8 -10 5 19.45 1.19
8 10 -5 19.82 1.07
10 5 -8 19.77 1.24
-10 -5 -8 19.37 1.1
-5 -8 -10 19.81 1.27
5 8 -10 18.27 1.03
10 5 -8 20.48 0.86
10 5 -8 18.58 1.09
8 10 -5 19.35 1.09
-8 -10 -5 19.79 1.17
8 -10 -5 18.71 1.19
10 -5 -8 18.31 1.28
10 -5 -8 19.06 1.12
-10 -5 8 19.57 1.19
8 10 5 17.97 1.11
5 -8 -10 19.32 1.04
5 -8 -10 18.36 1.39
-5 -8 10 19.35 1.37
8 -10 -5 18.89 1.2
-8 -10 5 19.28 1.2
8 10 -6 23.18 1.23
10 6 -8 21.81 1.34
10 6 -8 21.32 1.24
8 -10 6 23.41 1.27
6 8 -10 22.94 1.18
10 -6 8 24.69 0.92
-6 -8 -10 23.47 1.4
-10 -6 -8 24.07 1.29
-8 -10 -6 24.86 1.34
8 10 -6 21.94 1.2
6 -8 10 23.14 1.4
10 -6 -8 22.91 1.39
-6 -8 10 24.12 1.51
6 -8 -10 22.55 1.26
-8 -10 6 24.06 1.34
8 -10 -6 22.81 1.3
6 -8 -10 23.19 1.49
10 -6 -8 22.72 1.18
8 10 6 23.19 1.28
8 -10 -6 21.84 1.32
-10 -6 8 24.79 1.34
-10 -7 -8 1.84 0.63
7 8 -10 1.69 0.51
8 -10 7 1.23 0.63
8 10 -7 1.29 0.52
-7 -8 -10 2.53 0.75
10 -7 8 1.66 0.44
10 7 -8 2.21 0.68
10 7 -8 1.1 0.5
7 -8 10 1.31 0.66
-8 -10 -7 1.75 0.73
-7 -8 10 2.06 0.78
8 -10 -7 1.98 0.71
8 -10 -7 1.73 0.65
-10 -7 8 1.71 0.65
7 -8 -10 2.18 0.67
10 -7 -8 1.05 0.66
10 -7 -8 2.68 0.59
7 -8 -10 2.03 0.76
-8 -10 7 1.41 0.67
8 8 -10 6.55 0.79
-10 -8 -8 5.39 0.79
8 -10 8 5.23 0.84
8 -8 10 5.7 0.77
-8 -10 -8 6.61 0.9
8 10 -8 4.36 0.71
-8 -8 -10 5.52 0.88
8 8 -10 5.63 0.84
10 8 -8 5.15 0.8
10 8 -8 4.79 0.79
8 -10 -8 4.64 0.85
-8 -8 10 4.64 0.86
10 -8 -8 4.84 0.74
-8 -10 8 7.67 1
8 -8 -10 5.59 0.83
8 -10 -8 5.23 0.87
10 -8 -8 8.05 1.11
8 -8 -10 5.19 0.88
-10 -8 8 4.13 0.84
8 -10 9 1.23 0.74
10 9 -8 1.61 0.61
9 -8 10 1.26 0.62
9 8 -10 1.81 0.8
-8 -10 -9 2.32 0.73
8 10 -9 1.66 0.58
9 8 -10 1.13 0.54
10 -9 8 1.53 0.57
-9 -8 -10 0.92 0.68
10 9 -8 1.29 0.71
-10 -9 8 2.15 0.77
9 -8 -10 1.75 0.73
9 -8 -10 1.78 0.78
10 -9 -8 2.58 0.8
8 -10 -9 2.37 0.83
-8 -10 9 1.45 0.77
10 -9 -8 1.81 0.65
-9 -8 10 2.75 0.78
8 -10 -9 1.76 0.75
10 0 -9 0.28 0.39
10 0 -9 -0.03 0.36
-9 -10 0 0.38 0.49
0 -9 -10 0.31 0.57
-10 0 9 0.45 0.5
9 -10 0 0.33 0.46
0 -9 10 -0.34 0.63
10 0 -9 -0.17 0.59
9 10 0 0.67 0.43
0 -9 -10 0.55 0.37
9 -10 0 0.36 0.58
0 9 -10 0.75 0.37
1 -9 10 7.31 1.02
-1 -9 -10 8.08 1.01
9 -10 1 9.09 0.81
9 -10 1 7.12 0.93
1 9 -10 8.47 0.66
-1 -9 -10 7.84 0.6
9 10 -1 7.85 0.83
10 1 -9 7.53 0.95
10 1 -9 7.28 0.74
10 1 -9 8.08 0.64
-10 1 9 8.45 0.89
-9 -10 -1 8.07 0.84
9 10 -1 8.37 0.72
1 -9 -10 8.27 0.67
10 -1 -9 8.12 1.04
9 -10 -1 8.09 0.81
9 -10 -1 7.22 0.89
-1 9 -10 7.45 0.59
-1 -9 10 8.15 1.04
10 -1 -9 7.4 0.67
-9 -10 1 8.41 0.86
-10 -1 9 7.11 0.82
1 -9 -10 6.23 0.96
9 10 1 7.85 0.81
10 2 -9 0.78 0.6
9 10 -2 0.18 0.41
10 2 -9 0.79 0.38
-2 -9 -10 1.02 0.62
9 10 -2 1.14 0.53
2 -9 10 1.77 0.72
9 -10 2 1.17 0.57
9 -10 2 0.28 0.45
-9 -10 -2 0.98 0.51
10 2 -9 0.77 0.44
2 9 -10 0.64 0.4
-10 2 9 1.13 0.56
9 -10 -2 1.43 0.51
-9 -10 2 1.54 0.56
10 -2 -9 1.48 0.46
2 -9 -10 1.21 0.7
9 10 2 0.84 0.53
-2 -9 10 1.15 0.64
2 -9 -10 1.41 0.42
9 -10 -2 1.13 0.61
10 -2 -9 0.57 0.62
-10 -2 9 0.34 0.48
9 -10 3 12.25 0.88
9 -10 3 11.98 1.08
10 3 -9 10.41 0.9
9 10 -3 11.45 0.85
10 3 -9 11.4 1.03
10 3 -9 13.17 0.75
-9 -10 -3 10.99 0.97
3 -9 10 12.5 1.24
3 9 -10 10.97 0.78
-10 3 9 10.96 0.93
-3 -9 -10 12.79 1.12
9 10 -3 11.16 0.89
9 -10 -3 11.41 0.89
9 -10 -3 12 1.02
10 -3 -9 9.83 1.03
10 -3 -9 12.25 0.83
-9 -10 3 11.98 0.97
9 10 3 11.94 0.91
3 -9 -10 11.37 0.8
3 -9 -10 10.63 1.14
-3 -9 10 9.24 1.19
-10 -3 9 11.16 0.99
10 4 -9 0.41 0.4
4 9 -10 -0.11 0.39
10 4 -9 -0.29 0.37
-9 -10 -4 -0.23 0.52
9 10 -4 0.16 0.47
4 -9 10 -0.02 0.61
9 -10 4 -0.22 0.47
9 10 -4 0.44 0.47
10 4 -9 0.46 0.59
-4 -9 -10 0.73 0.63
-10 4 9 0.6 0.58
-4 -9 10 -0.66 0.58
9 -10 -4 0.76 0.57
-10 -4 9 0.02 0.52
10 -4 -9 -0.17 0.62
10 -4 -9 -0.54 0.47
-9 -10 4 0.96 0.58
9 10 4 -0.36 0.43
4 -9 -10 0.26 0.66
4 -9 -10 0.23 0.42
9 -10 -4 0.42 0.6
10 5 -9 16.54 1.08
-10 -5 -9 15.82 1.07
9 -10 5 16 1.04
-5 -9 -10 17.25 1.22
-9 -10 -5 16.01 1.15
10 -5 9 15.97 0.71
5 -9 10 14.53 1.29
5 9 -10 14.82 0.95
10 5 -9 14.23 1.13
10 5 -9 18.25 0.9
9 10 -5 14.73 1.01
9 10 -5 14.34 0.98
-9 -10 5 17.7 1.2
5 -9 -10 15.82 1.39
-5 -9 10 14.81 1.27
10 -5 -9 16.82 1.02
5 -9 -10 14.97 1
9 10 5 15.86 1.08
-10 -5 9 15.23 1.17
9 -10 -5 15.94 1.13
9 -10 -5 16.36 1.22
10 -5 -9 15.15 1.26
10 6 -9 0.03 0.44
9 10 -6 -0.78 0.58
9 -10 6 0.62 0.56
6 -9 10 0.19 0.7
9 10 -6 0.76 0.51
-6 -9 -10 1.35 0.64
10 6 -9 0.95 0.67
6 9 -10 0.57 0.42
-9 -10 -6 0.01 0.57
10 -6 9 1.16 0.4
-10 -6 -9 -0.41 0.57
6 -9 -10 -0.2 0.54
-9 -10 6 -0.06 0.54
9 -10 -6 0.95 0.66
9 10 6 0.84 0.55
-6 -9 10 0.33 0.67
6 -9 -10 0.35 0.75
10 -6 -9 0.07 0.52
9 -10 -6 0.48 0.59
10 -6 -9 -0.3 0.62
9 10 -7 0.59 0.54
9 -10 7 0.56 0.6
9 10 -7 -0.16 0.64
10 7 -9 0.38 0.64
-9 -10 -7 1.27 0.71
-7 -9 -10 1.15 0.71
7 9 -10 0.36 0.5
10 7 -9 1.04 0.49
-10 -7 -9 0.94 0.66
7 -9 10 1.04 0.72
10 -7 -9 1.08 0.59
-7 -9 10 0.05 0.69
10 -7 -9 0.38 0.69
-9 -10 7 0 0.71
-10 -7 9 1.8 0.74
9 -10 -7 0.92 0.69
9 -10 -7 0.46 0.66
7 -9 -10 -0.27 0.65
7 -9 -10 0.84 0.77
8 9 -10 0.98 0.7
8 9 -10 1.53 0.57
10 -8 9 2.47 0.54
10 8 -9 1.27 0.76
10 8 -9 1.12 0.61
8 -9 10 2.34 0.71
9 10 -8 2.41 0.6
-9 -10 -8 0.61 0.72
-8 -9 -10 1.98 0.76
9 10 -8 1.43 0.73
9 -10 8 2.4 0.69
9 -10 -8 2.37 0.77
10 -8 -9 1.44 0.77
8 -9 -10 1.87 0.82
-10 -8 9 3.22 0.81
10 -8 -9 1.2 0.65
-9 -10 8 1.19 0.76
9 -10 -8 1.15 0.72
-8 -9 10 3.08 0.9
8 -9 -10 1.99 0.72
-10 -9 -9 2.29 0.78
9 9 -10 0.72 0.59
-9 -10 -9 2.2 0.82
10 9 -9 2.34 0.78
-9 -9 -10 1.38 0.82
9 -9 10 1.96 0.72
10 -9 9 1.13 0.6
9 10 -9 1.08 0.58
9 -10 9 2.07 0.72
10 9 -9 1.74 0.64
9 10 -9 1.07 0.77
9 9 -10 1.53 0.84
-9 -9 10 2.57 0.91
-10 -9 9 1.28 0.84
9 -9 -10 2.13 0.83
9 -10 -9 2.51 0.83
10 -9 -9 1.38 0.8
10 -9 -9 0.57 0.71
9 -10 -9 1.79 0.77
-9 -10 9 1.73 0.87
9 -9 -10 1.85 0.73
-10 -10 0 17.94 1.1
-10 0 10 16.49 1.12
0 -10 -10 16.11 0.83
0 -10 -10 14.75 1.27
0 -10 10 14.51 1.41
0 10 -10 15.97 0.82
10 -10 0 15.52 1.21
10 0 -10 14.73 1.18
10 0 -10 14.51 0.99
10 10 0 16.87 1.06
-10 -10 -1 32.79 1.47
10 1 -10 28.48 1.57
10 1 -10 30.56 1.44
-1 -10 -10 30.12 1.68
10 10 -1 30.04 1.51
10 10 -1 28.33 1.32
10 -10 1 30.68 1.65
1 -10 10 28.37 1.7
10 -10 -1 30.06 1.57
1 -10 -10 30.19 1.26
1 -10 -10 30.14 1.71
10 -1 -10 29.98 1.56
10 -1 -10 30.16 1.71
-10 -10 1 32.52 1.5
-10 -1 10 32.65 1.57
10 -10 -1 29.51 1.33
-1 -10 10 30.78 1.79
10 10 1 30.56 1.48
-10 -10 -2 1.71 0.58
10 10 -2 1.76 0.55
10 10 -2 1.46 0.53
-10 2 10 0.09 0.69
-2 -10 -10 1.56 0.73
10 2 -10 1.94 0.55
10 -10 2 1.98 0.7
10 2 -10 1.09 0.7
2 -10 10 1.69 0.77
2 10 -10 0.98 0.41
10 -10 -2 1.62 0.67
10 -10 -2 1.17 0.52
2 -10 -10 1.38 0.46
10 -2 -10 1.91 0.7
10 -2 -10 2.57 0.56
2 -10 -10 1.84 0.75
-2 -10 10 1.59 0.74
-10 -10 2 2.15 0.62
-10 -2 10 1.67 0.65
10 10 2 1.47 0.56
-10 -10 -3 60.48 2.29
10 10 -3 59.51 2.08
-10 3 10 62.15 2.36
-3 -10 -10 56.15 2.46
10 3 -10 59.86 2.29
10 -10 3 56.39 2.38
10 10 -3 61.17 2.35
3 -10 10 57.82 2.48
3 10 -10 59.58 2.1
10 3 -10 58.08 2.36
10 -10 3 58.56 2.21
3 -10 -10 61.81 2.1
10 -10 -3 60.51 2.15
10 -3 -10 58.68 2.39
10 -3 -10 62.83 2.16
10 -10 -3 59.71 2.39
-3 -10 10 57.97 2.56
-10 -10 3 63.43 2.32
3 -10 -10 61.29 2.62
10 10 3 60.61 2.36
10 4 -10 -0.11 0.42
10 10 -4 -0.03 0.51
-4 -10 -10 -0.03 0.68
10 4 -10 0.44 0.61
10 -10 4 0.82 0.7
10 -10 4 0.46 0.48
4 -10 10 -0.16 0.75
4 10 -10 0.55 0.42
10 4 -10 0.59 0.68
10 10 -4 0.33 0.5
4 -10 -10 -0.1 0.44
4 -10 -10 0.3 0.71
10 -10 -4 0.7 0.51
10 -4 -10 0.23 0.5
10 -10 -4 1.1 0.72
-4 -10 10 -0.04 0.79
-10 -10 4 0.97 0.65
-10 -4 10 -0.54 0.59
10 -4 -10 -0.42 0.62
10 10 4 0.03 0.55
-10 -10 -5 0.47 0.59
10 5 -10 0.18 0.48
-10 -5 -10 -0.91 0.56
10 10 -5 -0.4 0.43
-5 -10 -10 0.41 0.72
10 5 -10 -0.79 0.6
10 10 -5 -0.03 0.54
10 -5 10 0.47 0.39
5 -10 10 -0.34 0.74
5 10 -10 0.71 0.41
10 -10 5 -0.04 0.5
10 -10 -5 0.51 0.58
10 -10 -5 -0.96 0.6
10 -5 -10 1.35 0.7
10 -5 -10 -0.75 0.54
5 -10 -10 -0.93 0.75
-5 -10 10 -0.21 0.71
-10 -10 5 -0.58 0.85
5 -10 -10 -0.07 0.47
-10 -5 10 0.81 0.68
10 10 5 -0.07 0.57
-10 -10 -6 3.3 0.75
10 6 -10 2.66 0.69
-10 -6 -10 2.41 0.73
10 10 -6 3.89 0.73
-6 -10 -10 3.02 0.77
10 6 -10 3.87 0.83
10 10 -6 3.59 0.76
10 -6 10 3.56 0.8
6 -10 10 3.74 0.9
6 10 -10 3.46 0.54
10 -10 6 3.33 0.62
10 -10 -6 3.08 0.69
10 -10 -6 2.8 0.76
10 -6 -10 3.25 0.86
10 -6 -10 3.38 0.7
6 -10 -10 2.17 0.84
-6 -10 10 3.36 0.9
-10 -10 6 2.78 0.76
6 -10 -10 3.04 0.68
-10 -6 10 3.87 0.87
10 10 6 2.95 0.78
-10 -10 -7 4.45 0.98
10 7 -10 3.4 0.7
-10 -7 -10 4.28 0.87
10 10 -7 3.43 0.72
-7 -10 -10 4.95 0.94
10 7 -10 4.71 0.93
10 10 -7 4.07 0.81
10 -7 10 4.44 0.61
7 -10 10 4.48 0.87
7 10 -10 4.94 0.72
10 -10 7 3.44 0.65
10 -10 -7 4.43 0.77
10 -10 -7 3.6 0.88
10 -7 -10 3.35 0.83
10 -7 -10 4.26 0.78
7 -10 -10 5.63 1.01
-7 -10 10 3.09 0.89
-10 -10 7 4.02 0.87
7 -10 -10 3.35 0.77
-10 -7 10 4.34 0.96
-10 -10 -8 6.1 0.91
10 8 -10 4.57 0.89
-10 -8 -10 8.9 1.17
10 10 -8 5.5 0.86
-8 -10 -10 5.61 0.99
10 -8 10 5.5 0.71
10 8 -10 6.01 0.88
10 -10 8 5.45 0.74
8 -10 10 5.17 0.88
8 10 -10 4.8 0.88
8 10 -10 5.55 0.79
10 10 -8 4.92 0.81
10 -10 -8 4.94 0.98
8 -10 -10 5.28 1
10 -8 -10 4.21 0.9
10 -8 -10 5.35 0.88
-8 -10 10 5.36 1.05
-10 -10 8 5.56 1.03
8 -10 -10 6.65 0.93
-10 -8 10 4.06 0.99
10 -10 -8 5.9 0.88
-10 -10 -9 0.72 0.84
10 9 -10 0.38 0.73
-10 -9 -10 0.08 0.81
10 10 -9 0.71 0.8
-9 -10 -10 1.4 0.91
10 -9 10 0.32 0.6
10 9 -10 2.33 0.7
10 -10 9 1.2 0.65
9 -10 10 1.53 0.78
9 10 -10 0.51 0.77
9 10 -10 0.47 0.62
10 10 -9 0.43 0.62
10 -10 -9 1.77 0.87
9 -10 -10 0.77 0.86
10 -9 -10 1.75 0.85
10 -9 -10 1.54 0.77
-9 -10 10 1.03 0.83
-10 -10 9 0.67 0.82
9 -10 -10 0.9 0.81
-10 -9 10 0.8 0.86
10 -10 -9 0.22 0.7
-10 -10 -10 2.33 0.91
10 10 -10 1.59 0.88
10 10 -10 1.88 0.76
10 -10 10 0.54 0.69
10 -10 -10 1.48 0.88
-10 -10 10 2.39 1.03
10 -10 -10 1.11 0.87
0 0 11 537.74 16.23
11 0 0 575.72 15.8
0 11 -1 14.06 0.75
1 0 11 13.85 0.97
11 -1 0 14.89 0.9
11 -1 0 15.63 0.81
11 1 0 16.65 0.84
11 1 0 15.21 0.85
-1 0 11 11.93 1.07
-11 -1 0 15.03 0.49
11 2 0 0.51 0.37
11 -2 0 0.09 0.35
11 2 0 0.18 0.36
0 -11 2 -0.14 0.5
0 11 -2 -0.05 0.3
2 0 11 -0.08 0.41
11 -2 0 0.03 0.39
-2 0 11 0.6 0.5
-11 -2 0 0.1 0.17
-11 -3 0 43.6 1.37
3 0 11 43.62 1.78
0 -11 -3 45.29 1.84
0 -11 3 44.46 1.82
0 11 -3 44.24 1.52
3 0 -11 43 1.66
11 -3 0 45.26 1.57
11 -3 0 43.31 1.7
11 3 0 43.1 1.67
11 -4 0 4.79 0.64
4 0 -11 5.7 0.69
4 0 11 4.76 0.66
11 -4 0 4.78 0.53
-11 -4 0 5.24 0.47
11 4 0 5.65 0.64
0 -11 -4 5.91 0.52
0 -11 -4 4.67 0.71
0 -11 4 4.33 0.68
0 11 -4 5.85 0.52
-4 0 11 4.16 0.77
0 11 -5 209.46 6.07
11 5 0 212.13 6.11
5 0 11 214.73 6.34
11 -5 0 215.02 6.36
11 -5 0 214.64 6.09
5 0 -11 203.74 6.3
0 -11 -5 209.54 6.49
0 -11 5 202.2 6.46
-5 0 11 199.38 6.48
0 -11 -5 218.49 6.06
-11 -5 0 209.51 6.04
6 0 -11 180.59 5.56
0 -11 6 174.05 5.71
0 11 -6 182.72 5.28
6 0 11 180.32 5.54
11 6 0 181.83 5.58
11 6 0 186.12 5.31
11 -6 0 179.23 5.6
-11 -6 0 180.24 5.31
-6 0 11 185.56 5.7
0 -11 -6 177.4 5.72
11 -6 0 185.84 5.29
0 -11 -6 180.58 5.25
7 0 -11 0.12 0.51
0 -11 -7 -0.25 0.34
0 -11 -7 -0.51 0.54
0 -11 7 -0.14 0.63
0 11 -7 -0.11 0.33
11 7 0 0.54 0.45
-11 -7 0 0.38 0.41
-7 0 11 1.33 0.53
11 7 0 0.3 0.45
7 0 -11 0.06 0.54
11 -7 0 0.67 0.57
11 -7 0 0.76 0.42
11 8 0 21.33 1.21
0 11 -8 20.55 0.93
8 0 -11 24.07 1.37
8 0 -11 22.78 1.24
11 -8 0 22.31 1.35
-8 0 11 23.98 1.3
0 -11 8 21.32 1.53
11 8 0 21.84 1.02
-11 -8 0 20.87 1.1
0 -11 -8 22.84 1.44
0 -11 -8 21.4 0.94
0 -11 -9 1.24 0.77
11 -9 0 0.51 0.62
11 9 0 0.29 0.44
-11 -9 0 0.43 0.54
-9 0 11 0.57 0.59
9 0 -11 0.09 0.64
9 0 -11 1.37 0.59
0 -11 9 0.92 0.7
0 -11 -9 1.48 0.51
11 -9 0 0.83 0.33
10 0 -11 47.45 1.74
11 -10 0 44.03 1.53
-10 0 11 41.97 1.92
11 10 0 42.47 1.88
11 -10 0 41.46 1.99
0 -11 -10 42.44 2.19
-11 -10 0 42.75 1.84
0 11 -10 41.32 1.53
10 0 -11 42.19 1.96
10 0 -11 40.2 1.83
0 -11 10 41.32 2.09
11 0 1 14.92 0.83
0 -1 11 14.31 1.04
11 0 -1 14.04 0.83
-11 0 1 14.71 0.59
1 -11 0 12.91 1.11
11 0 1 14.92 0.86
-1 -11 0 14.15 1
11 0 -1 15.47 0.82
0 1 11 13.79 0.97
1 11 0 13.74 0.76
1 11 -1 17.85 0.86
11 1 -1 18.67 0.95
11 1 -1 19.39 0.95
1 -1 11 17.46 1.11
11 -1 1 18.39 0.87
-1 -11 -1 18.83 1.08
1 -11 1 16.22 1.04
11 -1 1 18.25 0.93
-1 1 11 17.71 1.09
11 -1 -1 18.34 0.95
1 1 11 18.02 1.07
-1 -11 1 17.54 1.07
-11 -1 1 17.03 0.65
1 -11 -1 17.91 1.07
11 1 1 18.15 0.9
-1 -1 11 17.97 1.1
11 1 1 18.79 0.93
1 -11 2 0.88 0.44
1 11 -2 1.52 0.36
-2 1 11 1.53 0.49
11 2 -1 0.84 0.41
11 -2 1 2.13 0.48
2 -1 11 1.67 0.53
-11 -2 -1 1.66 0.21
11 -2 1 1.24 0.38
11 2 -1 1.53 0.44
2 1 11 1.45 0.49
11 -2 -1 0.75 0.43
-2 -1 11 0.97 0.52
-11 -2 1 1.6 0.24
11 2 1 1.89 0.46
1 -11 -2 0.97 0.45
11 -2 -1 1.35 0.4
2 -1 -11 0.95 0.39
-11 -3 -1 12.87 0.53
11 -3 1 12.95 0.85
-1 -11 -3 12.46 1.09
1 -11 3 11.71 0.92
11 -3 1 13.5 0.73
1 11 -3 12.58 0.71
11 3 -1 12.77 0.85
3 -1 11 13.3 0.99
-3 1 11 12.28 0.95
11 3 -1 13.36 0.78
-3 -1 11 10.6 1.03
-11 -3 1 12.54 0.59
1 -11 -3 14.21 0.99
11 3 1 13.81 0.81
3 -1 -11 12.51 0.8
-1 -11 3 11.92 0.92
3 1 11 12.56 0.98
11 -3 -1 13.12 0.89
1 -11 -3 12.61 0.72
11 3 1 12.11 0.8
-1 11 -3 13.73 0.68
11 -3 -1 13.02 0.74
11 4 -1 54.58 1.92
11 -4 1 58.63 1.86
4 -1 11 57.27 2.16
4 1 -11 54.67 2.03
1 -11 4 53.65 2.16
-1 -11 -4 59.01 2.24
-11 -4 -1 57.73 1.74
1 11 -4 57.04 1.87
-4 1 11 55.59 2.22
11 -4 1 56.43 2.08
-11 -4 1 55.69 1.86
-1 -11 4 52.99 2.16
1 -11 -4 55.67 1.85
11 4 1 56.59 1.89
-4 -1 11 52 2.36
-1 11 -4 58.45 1.82
4 -1 -11 55.3 2.03
1 -11 -4 55.78 2.2
11 -4 -1 55.72 2.1
11 -4 -1 55.37 1.89
4 1 11 59.6 2.15
-11 -5 -1 9.43 0.6
5 1 -11 9.15 0.81
11 5 -1 8.08 0.68
11 -5 1 8.92 0.85
5 -1 11 9.64 0.89
-5 1 11 8.4 0.89
1 -11 5 8.16 0.9
1 11 -5 9.92 0.61
11 -5 1 9.56 0.66
11 5 -1 9.64 0.76
-1 -11 -5 9.25 0.89
5 -1 -11 9.02 0.78
-1 11 -5 9.83 0.6
-11 -5 1 9.4 0.62
-5 -1 11 9.15 0.89
5 1 11 9.51 0.88
11 5 1 10.1 0.71
11 -5 -1 8.92 0.65
-1 -11 5 7.51 0.84
11 -5 -1 8.91 0.85
1 -11 -5 8.63 0.92
1 -11 -5 9.37 0.63
6 1 -11 3.01 0.62
-1 -11 -6 3.31 0.71
1 11 -6 3.58 0.47
1 -11 6 2.96 0.69
6 -1 11 3.2 0.62
11 6 -1 3.52 0.6
-6 1 11 3.18 0.63
11 -6 1 2.73 0.64
11 -6 1 4.12 0.48
-11 -6 -1 2.71 0.44
11 6 1 3.06 0.56
6 -1 -11 3.56 0.61
-6 -1 11 3.5 0.67
11 -6 -1 3.2 0.68
11 -6 -1 3.6 0.49
6 -1 -11 2.9 0.65
-11 -6 1 3.19 0.47
-1 11 -6 3.71 0.43
11 6 1 4.41 0.51
-1 -11 6 2.63 0.65
1 -11 -6 3.86 0.46
1 -11 -6 3.49 0.71
7 1 -11 14.23 1.06
1 11 -7 13.48 0.77
11 -7 1 15.72 1.12
11 7 -1 16.01 0.95
-11 -7 -1 15.61 0.88
7 -1 11 13.67 1.07
-7 1 11 15.4 1.06
1 -11 7 15.35 1.2
11 7 -1 13.29 0.97
-1 -11 -7 14.45 1.15
11 7 1 13.12 0.92
1 -11 -7 14.22 0.79
-1 11 -7 13.95 0.71
-7 -1 11 15.58 1.14
11 -7 -1 16.51 1.15
11 7 1 15.19 0.84
1 -11 -7 13.89 1.2
7 -1 -11 15.43 1.09
-1 -11 7 15.53 1.26
7 -1 -11 15.89 1.13
11 -7 -1 15.6 0.82
-11 -7 1 14.84 0.91
8 1 -11 7.84 0.94
-11 -8 -1 5.95 0.76
1 11 -8 6.53 0.61
11 8 -1 6.81 0.8
1 -11 8 6.31 0.93
11 8 -1 7.3 0.8
11 -8 1 6.74 0.96
-1 -11 -8 9.18 1.05
-8 1 11 7.46 0.89
8 1 -11 7.5 0.93
11 -8 -1 8.05 0.98
11 8 1 7.45 0.78
1 -11 -8 7.46 0.69
11 -8 -1 8.58 0.69
-11 -8 1 7.13 0.79
1 -11 -8 7.99 1.05
8 -1 -11 6.81 0.95
8 -1 -11 6.87 0.89
-1 -11 8 8.39 1.16
-8 -1 11 7.02 0.83
11 9 -1 11.55 0.94
-1 -11 -9 10.97 1.17
-11 -9 -1 12.93 0.98
1 -11 9 11.08 1.32
11 9 -1 13.41 0.93
11 -9 1 11.77 1.14
9 1 -11 10.1 0.88
11 -9 1 12.44 0.61
9 1 -11 12.37 1.09
1 11 -9 10.22 0.8
9 1 -11 11.67 0.98
-9 1 11 12.68 1.04
11 9 1 12.08 0.97
9 -1 -11 10.8 1.15
11 -9 -1 12.06 0.67
11 -9 -1 12.16 1.07
-1 -11 9 11.05 1.21
-11 -9 1 12.81 0.97
1 -11 -9 10.28 1.19
-9 -1 11 12.15 1.1
9 -1 -11 12.58 0.98
11 -9 -1 12.35 1.13
11 10 -1 9.06 1
1 -11 10 9.96 1.24
11 -10 1 11.21 0.75
-11 -10 -1 12.04 1.06
11 -10 1 10.42 1.16
10 1 -11 9.96 1.16
1 11 -10 11.13 0.78
10 1 -11 9.91 0.87
10 1 -11 12.32 0.96
-1 -11 -10 11.54 1.26
-10 1 11 10.44 1.04
-10 -1 11 12.65 1.11
-11 -10 1 12.33 1.1
10 -1 -11 11.93 1.26
11 -10 -1 11.41 1.19
11 -10 -1 12.43 0.8
11 10 1 10.42 0.97
-1 -11 10 12.41 1.28
1 -11 -10 8.72 1.17
10 -1 -11 10.66 0.96
1 -11 -10 10.49 0.82
0 -2 11 -0.15 0.42
-11 0 2 0.23 0.25
2 -11 0 -0.47 0.35
2 11 0 0.46 0.32
-2 -11 0 0.5 0.39
11 0 -2 0.03 0.34
0 2 11 0.38 0.42
11 0 -2 0.41 0.4
11 0 2 0.83 0.37
11 0 2 0.05 0.38
11 1 -2 1.3 0.42
11 -1 2 0.67 0.44
11 1 -2 0.82 0.42
-11 1 2 1.21 0.3
11 -1 2 1.83 0.42
2 -11 1 1.46 0.47
-1 2 11 0.81 0.48
-2 -11 -1 0.64 0.44
1 -2 11 1.21 0.49
1 -2 -11 1.55 0.4
-11 -1 2 1.33 0.28
11 1 2 1.4 0.42
2 11 1 0.8 0.35
11 -1 -2 1.39 0.44
11 -1 -2 1.73 0.41
2 -11 -1 1.06 0.47
-2 -11 1 1.19 0.5
1 2 11 1.37 0.5
2 -11 -1 1.19 0.36
-1 -2 11 0.95 0.5
11 1 2 1.6 0.49
11 -2 2 23.13 1.12
11 2 -2 23.96 1.08
11 2 -2 22.26 1.1
-2 2 11 22.25 1.25
-2 -11 -2 22.88 1.23
2 -11 2 23.32 1.24
2 11 -2 21.35 1.01
2 -2 11 23.83 1.3
-11 -2 -2 23.37 0.76
11 -2 2 24.58 1.01
11 2 2 26.82 1.2
2 -11 -2 23.37 1.04
11 -2 -2 22.68 1.13
2 11 2 22.05 1.06
-2 -2 11 24.79 1.26
11 -2 -2 23.33 1.05
2 2 11 24.55 1.25
2 -2 -11 24.18 1.1
11 2 2 23.48 1.06
-11 -2 2 23 0.86
2 -11 -2 22.78 1.24
-2 -11 2 20.98 1.34
11 3 -2 16.95 0.93
3 -2 11 19.37 1.16
-3 2 11 18.43 1.12
11 -3 2 19.15 0.85
2 11 -3 16.98 0.85
-11 -3 -2 17.81 0.68
11 -3 2 17.49 1
2 -11 3 16.8 1.09
11 -3 -2 18.53 1.07
11 3 2 18.54 0.9
2 -11 -3 18.97 1.14
-3 -2 11 19.28 1.14
3 2 11 18.6 1.16
3 -2 -11 18.58 0.96
2 -11 -3 18.76 0.89
11 3 2 19.18 0.96
-11 -3 2 17.69 0.83
2 -11 4 25.87 1.4
11 -4 2 28.98 1.1
-11 -4 -2 28.01 1.01
2 11 -4 27.11 1.14
-4 2 11 32.8 1.49
-2 -11 -4 28.04 1.44
4 -2 11 29.08 1.44
11 4 -2 28.18 1.21
11 -4 2 28.85 1.34
4 2 11 28.24 1.39
-4 -2 11 29.82 1.44
11 -4 -2 28.99 1.36
2 -11 -4 27.3 1.44
11 -4 -2 27.69 1.26
2 -11 -4 25.65 1.25
4 -2 -11 29.44 1.27
-2 -11 4 27.93 1.39
11 4 2 30.05 1.14
-11 -4 2 28.75 1.08
2 11 -5 9.25 0.66
-11 -5 -2 10.14 0.62
11 -5 2 9.85 0.66
5 2 -11 10.07 0.82
-2 -11 -5 9.98 0.91
11 5 -2 8.95 0.76
11 5 -2 10.25 0.78
5 -2 11 9.57 0.85
2 -11 5 7.78 0.91
11 -5 2 9.75 0.88
-5 2 11 10.57 0.93
2 -11 -5 8.61 0.94
-5 -2 11 10.26 0.94
2 -11 -5 9.99 0.69
11 -5 -2 9.71 0.69
11 -5 -2 9.63 0.92
5 -2 -11 9.34 0.97
-2 -11 5 9.96 0.89
-11 -5 2 11.12 0.69
5 -2 -11 9.62 0.78
11 5 2 10.83 0.7
2 11 -6 0.06 0.38
6 2 -11 -0.57 0.46
11 6 -2 -0.22 0.43
11 6 -2 0.48 0.42
6 -2 11 -0.09 0.48
11 -6 2 1.22 0.57
-11 -6 -2 0.3 0.36
2 -11 6 0.32 0.58
-2 -11 -6 0.2 0.55
-6 2 11 -0.41 0.42
2 -11 -6 -0.22 0.55
11 -6 -2 -0.31 0.37
-2 -11 6 -0.8 0.49
-11 -6 2 -0.12 0.38
11 6 2 -0.52 0.4
11 6 2 0.26 0.41
11 -6 -2 0.03 0.51
2 -11 -6 -0.03 0.38
-6 -2 11 0.61 0.48
6 -2 -11 0.01 0.42
6 -2 -11 0.43 0.58
7 -2 11 13.37 0.99
7 2 -11 12.98 1.03
-11 -7 -2 12.19 0.84
11 7 -2 12.8 0.92
11 7 -2 14.37 0.87
11 -7 2 12.75 1.19
-2 -11 -7 12.94 1.1
-7 2 11 12.06 1.09
2 11 -7 13.1 0.78
2 -11 7 12.62 1.12
2 -11 -7 12.37 1.13
2 -11 -7 13.52 0.79
7 -2 -11 12.15 1.07
-2 -11 7 12.1 1.1
11 -7 -2 12.09 1.1
-11 -7 2 13.6 0.86
7 -2 -11 12.6 1.01
11 -7 -2 13 0.78
11 7 2 12.05 0.9
-7 -2 11 14.04 1.04
11 -8 2 15.18 1.18
-2 -11 -8 16.85 1.24
8 2 -11 14.77 1.18
11 8 -2 15.37 0.97
-8 2 11 13.54 1.13
-11 -8 -2 15.39 0.97
2 -11 8 16.82 1.26
8 2 -11 13.74 0.94
11 8 -2 15.36 1.03
2 11 -8 16.02 0.85
11 8 2 14.84 1.02
-11 -8 2 15.16 0.99
2 -11 -8 14.87 1.27
11 -8 -2 16 0.62
11 -8 -2 16.03 1.26
-8 -2 11 15.55 1.1
8 -2 -11 15.25 1.13
8 -2 -11 17.44 1.14
-2 -11 8 16.24 1.27
11 -8 -2 16.61 0.87
2 -11 -8 15.75 0.89
11 9 -2 9.29 0.84
9 2 -11 10.11 1.08
11 -9 2 9.02 1.09
2 11 -9 9.97 0.72
9 2 -11 9.76 0.94
11 9 -2 9 0.88
9 2 -11 9.79 0.87
-11 -9 -2 10.53 0.88
2 -11 9 10.1 1.27
-9 2 11 10.1 1.09
-2 -11 -9 10.08 1.17
11 -9 2 10.84 0.54
11 -9 -2 11.03 0.78
11 -9 -2 8.36 1.06
11 -9 -2 9.79 0.68
-11 -9 2 9.09 0.95
9 -2 -11 9.98 1.15
9 -2 -11 12.73 0.97
2 -11 -9 9.41 1.17
2 -11 -9 11.72 0.88
-9 -2 11 9.69 0.97
11 9 2 9.32 0.94
-2 -11 9 8.77 1.12
2 11 -10 8.33 0.72
11 10 -2 7.25 0.93
11 -10 2 8.07 1.03
2 -11 10 7.95 1.11
-10 2 11 7.81 0.99
-11 -10 -2 8.22 1.01
10 2 -11 7.48 0.81
11 -10 2 9.64 0.71
10 2 -11 9.49 1.21
11 10 -2 6.57 0.87
-2 -11 -10 9.03 1.2
10 2 -11 8.85 0.89
2 -11 -10 10.6 1.26
10 -2 -11 9.44 1.13
11 10 2 7.87 0.97
2 -11 -10 8.03 0.75
11 -10 -2 7.93 1.09
-10 -2 11 7.78 1.11
10 -2 -11 9.64 0.93
-2 -11 10 8.86 1.2
-11 -10 2 8.65 0.98
11 -10 -2 7.83 0.8
11 0 3 43.67 1.59
11 0 -3 43.06 1.66
-11 0 3 42.55 1.44
0 -3 -11 45.24 1.57
3 -11 0 41.71 1.78
3 11 0 41 1.58
0 3 11 41.68 1.81
11 0 -3 43.07 1.64
11 0 3 43.99 1.57
3 -11 0 42.42 1.61
-3 -11 0 44.63 1.79
0 -3 11 44.84 1.84
11 -1 3 12 0.8
-11 1 3 13.78 0.69
-1 3 11 12.05 0.95
3 11 -1 12.92 0.74
-1 -3 -11 12.79 0.73
3 -11 1 11.54 0.9
-3 -11 -1 13.57 0.99
1 -3 11 11.86 0.94
11 -1 3 12.21 0.72
11 1 -3 12.01 0.84
11 1 -3 12.2 0.78
11 -1 -3 12.35 0.86
1 3 11 14.56 0.99
3 -11 -1 11.46 0.79
3 11 1 12.34 0.75
11 1 3 13.13 0.9
-11 -1 3 11.81 0.64
1 -3 -11 13.44 0.78
-1 -3 11 11.66 0.95
-3 -11 1 13.8 0.95
3 -11 -1 10.98 0.91
11 -1 -3 12.75 0.78
-2 3 11 18.91 1.19
2 -3 11 19.09 1.2
11 2 -3 16.91 0.99
11 -2 3 20.63 0.88
3 -11 2 17.8 1.1
3 11 -2 18.62 0.91
11 -2 3 18.26 1
-3 -11 -2 17.1 1.09
3 -11 -2 18.3 0.91
2 -3 -11 19.28 0.96
-3 -11 2 19.31 1.11
11 -2 -3 17.78 0.89
11 2 3 18.67 0.96
3 11 2 18.3 0.94
2 3 11 17.84 1.1
-11 -2 3 18.36 0.79
11 2 3 18.9 0.9
11 -2 -3 18.01 1.02
-2 -3 11 18.83 1.13
3 -11 -2 19.29 1.16
11 -3 3 14.76 0.74
-3 3 11 13.92 1.07
-3 -11 -3 13.36 0.98
11 -3 3 14.16 0.88
3 -11 3 13.91 1.05
3 -3 11 13.12 1.06
3 11 -3 12.79 0.76
-11 -3 -3 13.16 0.62
11 3 -3 13.48 0.86
3 -3 -11 13.77 0.84
-11 -3 3 14.02 0.7
3 -11 -3 13.32 1
3 11 3 13.88 0.85
-3 -3 11 12.66 0.98
11 -3 -3 13.56 1
11 3 3 13.88 0.78
3 -3 -11 13.15 1.04
11 -3 -3 13.19 0.79
11 3 3 13.4 0.9
3 -11 -3 13.57 0.78
-4 3 11 3.86 0.69
11 4 -3 4.17 0.56
11 -4 3 4.41 0.63
11 4 -3 3.46 0.54
4 -3 11 3.23 0.62
3 11 -4 3.84 0.51
3 -11 4 3.18 0.63
11 -4 3 4.06 0.54
3 -11 -4 3.91 0.5
3 -11 -4 3.99 0.74
11 -4 -3 3.75 0.65
11 -4 -3 4 0.55
-3 -11 4 4.16 0.63
4 -3 -11 3.93 0.54
4 -3 -11 3.52 0.66
-4 -3 11 4.26 0.67
-11 -4 3 4.13 0.51
11 4 3 3.58 0.47
3 11 -5 17.84 0.89
-3 -11 -5 18.78 1.15
11 5 -3 16.5 1.02
5 -3 11 18.2 1.16
3 -11 5 17.7 1.24
-5 3 11 18.55 1.17
11 5 -3 18.24 1
11 -5 3 16.44 1.08
-11 -5 -3 16.8 0.82
5 -3 -11 17.7 1.21
-11 -5 3 19.82 0.9
-5 -3 11 18.76 1.22
3 -11 -5 19.05 1.3
5 -3 -11 18.41 1.03
11 -5 -3 18.31 1.2
11 5 3 18.64 0.85
-3 -11 5 18.56 1.16
3 -11 -5 19.31 0.94
11 -5 -3 16.97 0.9
-11 -6 -3 17.32 0.88
3 11 -6 16.57 0.87
3 -11 6 17.45 1.2
6 -3 11 18.42 1.11
11 -6 3 17.47 1.14
11 6 -3 17.9 1.06
6 3 -11 18.29 1.17
11 6 -3 17.84 0.99
-6 3 11 16.65 1.14
-3 -11 -6 16.95 1.15
11 6 3 17.69 1.05
11 -6 -3 17.4 0.9
11 -6 -3 17.7 1.22
-6 -3 11 18.61 1.17
6 -3 -11 18.21 1.23
-3 -11 6 15.52 1.13
-11 -6 3 17.22 0.94
6 -3 -11 17.09 1.08
3 -11 -6 18.03 0.93
3 -11 -6 17.17 1.23
7 3 -11 -0.03 0.56
-11 -7 -3 0.95 0.44
7 -3 11 0.52 0.52
-3 -11 -7 0.75 0.54
11 -7 3 0.78 0.64
3 11 -7 0.83 0.42
11 7 -3 0.27 0.45
-7 3 11 -0.19 0.5
7 3 -11 0.34 0.39
11 7 -3 0.42 0.46
3 -11 7 2.12 0.71
11 -7 -3 0.95 0.63
7 -3 -11 1.37 0.53
11 -7 -3 0.63 0.39
3 -11 -7 1.17 0.42
7 -3 -11 -0.05 0.6
-7 -3 11 1.16 0.53
-11 -7 3 1.14 0.46
3 -11 -7 0.43 0.72
11 7 3 0.8 0.44
-3 -11 7 0.79 0.66
-3 -11 -8 33.7 1.73
11 8 -3 34.29 1.44
8 -3 11 34.22 1.46
11 -8 3 34.88 1.69
8 3 -11 32.52 1.53
3 11 -8 34.46 1.37
3 -11 8 32.51 1.73
-8 3 11 34 1.65
-11 -8 -3 35.33 1.46
8 3 -11 32.76 1.63
11 8 -3 32.75 1.56
11 -8 -3 32.91 1.35
-3 -11 8 33.05 1.81
8 -3 -11 37.06 1.65
-8 -3 11 35.13 1.7
8 -3 -11 33.71 1.66
11 -8 -3 34.86 1.18
11 -8 -3 34.06 1.72
3 -11 -8 34.49 1.39
3 -11 -8 33.78 1.8
11 8 3 34.93 1.57
-11 -8 3 36.48 1.53
9 -3 11 11.56 0.94
9 3 -11 10.43 0.89
11 -9 3 10.96 1.19
-9 3 11 11.86 1.15
11 -9 3 12.99 0.57
-11 -9 -3 10.18 0.95
-3 -11 -9 12.06 1.31
9 3 -11 9.18 1.08
11 9 -3 12.28 0.94
11 9 -3 11.03 0.95
3 11 -9 12.46 0.78
3 -11 9 12.35 1.33
3 -11 -9 10.92 1.36
9 -3 -11 11.75 1.01
9 -3 -11 10.59 1.07
3 -11 -9 11.49 0.83
-9 -3 11 11.57 1.18
-3 -11 9 11.51 1.3
11 -9 -3 12.41 1.26
11 -9 -3 11.99 0.77
-11 -9 3 13.8 1.07
11 9 3 11.68 1.02
10 3 -11 7.98 1.12
-11 -10 -3 8.07 0.97
10 3 -11 7.07 0.89
11 10 -3 8.44 0.94
11 10 -3 6.62 0.85
3 11 -10 7.76 0.74
11 -10 3 8.06 0.66
10 3 -11 5.67 0.75
-3 -11 -10 7.9 1.11
3 -11 10 7.23 1.06
11 -10 3 6.34 0.99
-10 3 11 6.98 0.99
11 -10 -3 6.79 1.03
-3 -11 10 6.9 1.1
10 -3 -11 9.28 0.95
11 -10 -3 6.19 0.76
11 10 3 6.48 0.89
10 -3 -11 5.61 0.91
-11 -10 3 8.55 1
3 -11 -10 7.34 1.12
3 -11 -10 6.95 0.76
-10 -3 11 8.22 1.14
-4 -11 0 4.85 0.67
0 4 11 4.32 0.73
4 -11 0 5.1 0.72
0 -4 11 4.62 0.69
0 -4 -11 3.92 0.54
4 11 0 4.24 0.54
4 -11 0 5.26 0.65
-11 0 4 5.39 0.56
11 0 4 5.25 0.59
11 0 -4 5.41 0.72
11 0 -4 5.84 0.68
11 0 4 5.56 0.64
11 1 -4 51.61 1.99
4 11 -1 51.48 1.94
-11 1 4 55.5 1.85
-4 -11 -1 58.35 2.17
1 -4 11 54.93 2.18
4 -11 1 53.12 2.11
11 -1 4 58.31 1.87
-1 4 11 57.71 2.2
11 -1 4 55.99 1.96
-1 -4 -11 52.43 1.96
-4 -11 1 56.97 2.14
1 -4 -11 57.18 2.2
11 -1 -4 56.63 2.07
1 -4 -11 56.23 1.91
-1 -4 11 56.17 2.22
4 -11 -1 57.56 2.16
11 -1 -4 53.25 1.95
4 11 1 54.73 1.98
-11 -1 4 53.86 1.83
4 -11 -1 55.32 1.96
4 -11 2 29.57 1.45
11 -2 4 29.58 1.12
-4 -11 -2 28.79 1.39
11 -2 4 27.48 1.25
-11 2 4 28.19 1.16
2 -4 11 29.55 1.46
-2 4 11 27.82 1.43
-2 -4 -11 28.6 1.12
4 11 -2 26.32 1.17
11 2 -4 27.54 1.3
11 2 4 29.03 1.17
2 -4 -11 27.5 1.41
2 -4 -11 28.72 1.2
11 -2 -4 28.4 1.21
4 -11 -2 28.78 1.24
-2 -4 11 28.92 1.44
11 2 4 28.17 1.2
4 11 2 28.16 1.25
-11 -2 4 28.57 1.12
11 -2 -4 29.2 1.35
-4 -11 2 29.61 1.4
4 -11 -2 29.08 1.43
3 -4 11 3.75 0.67
-3 -4 -11 4.4 0.5
-3 4 11 4.33 0.7
-4 -11 -3 3.4 0.62
4 -11 3 3.4 0.67
4 11 -3 3.75 0.52
11 3 -4 3.45 0.6
-11 -3 -4 4.01 0.54
11 -3 4 4.42 0.55
11 3 -4 3.55 0.5
11 -3 4 3.79 0.59
3 -4 -11 3.25 0.7
11 -3 -4 3.6 0.64
-3 -4 11 3.88 0.63
11 3 4 3.38 0.53
11 3 4 4.89 0.55
4 -11 -3 3.03 0.66
3 -4 -11 3.76 0.52
11 -3 -4 3.59 0.51
-11 -3 4 3.63 0.46
4 11 3 4.25 0.59
-4 -11 3 4.66 0.8
4 -11 -3 4.03 0.54
4 11 -4 59.39 2.11
4 -11 4 63.14 2.36
4 -4 11 61.94 2.35
11 -4 4 61.14 2.25
11 4 -4 60.08 2.17
11 4 -4 59.58 2.22
-11 -4 -4 60.39 1.96
-4 -4 -11 63.49 1.96
-4 4 11 62.54 2.4
-4 -11 4 60.7 2.32
-4 -4 11 60.11 2.36
4 -4 -11 61.76 2.37
11 -4 -4 62.41 2.3
11 4 4 64.63 1.99
4 -11 -4 61.2 2.11
4 -11 -4 62.3 2.43
-11 -4 4 59.88 2.04
11 -4 -4 58.29 2.1
4 -4 -11 61.92 2.19
4 11 -5 7.55 0.66
11 5 -4 9.27 0.81
-4 -11 -5 8.4 0.85
11 5 -4 7.45 0.77
4 -11 5 9.28 1.02
-11 -5 -4 9.67 0.66
5 -4 11 8.35 0.96
-5 4 11 8.05 0.97
11 -5 4 8.26 0.87
5 4 -11 7.82 0.72
5 -4 -11 9.13 0.81
4 -11 -5 8.53 0.72
4 -11 -5 9.98 1.1
11 5 4 8.29 0.76
-5 -4 11 8.54 0.91
-11 -5 4 9.17 0.72
5 -4 -11 9.85 1.05
-4 -11 5 8.13 0.88
11 -5 -4 7.84 0.68
11 -5 -4 9.05 0.9
6 4 -11 17.83 1.17
4 11 -6 17.74 0.94
11 6 -4 17.8 1.06
11 6 -4 16.72 1.03
-11 -6 -4 19.36 0.94
11 -6 4 16.61 1.12
-6 4 11 17.86 1.2
6 4 -11 16.79 0.99
-4 -11 -6 15.72 1.17
4 -11 6 18.3 1.32
6 -4 11 17.76 1.14
11 -6 -4 16.98 0.91
11 -6 -4 17.53 1.24
11 6 4 18.85 1.09
-4 -11 6 17.97 1.23
-11 -6 4 17.09 1.39
4 -11 -6 17.42 0.98
-6 -4 11 15.46 1.14
6 -4 -11 16.7 1.18
6 -4 -11 17.98 1.06
4 -11 -6 16.59 1.24
11 7 -4 32.76 1.56
-11 -7 -4 36.55 1.44
4 -11 7 35.65 1.78
11 7 -4 36.25 1.49
7 -4 11 35.05 1.58
4 11 -7 33.61 1.41
7 4 -11 36.11 1.56
7 4 -11 34.49 1.68
11 -7 4 33.58 1.63
-4 -11 -7 33.84 1.67
-7 4 11 36.42 1.75
11 -7 -4 34.95 1.35
11 -7 -4 35.82 1.75
7 -4 -11 36.64 1.65
11 7 4 36.58 1.58
-4 -11 7 36.79 1.77
4 -11 -7 35.06 1.44
4 -11 -7 36.36 1.86
11 -7 -4 36.72 1.14
7 -4 -11 33.15 1.59
-7 -4 11 35.44 1.68
-11 -7 4 34.59 1.51
8 -4 11 2.4 0.6
4 11 -8 1.29 0.46
8 4 -11 1.15 0.51
4 -11 8 1.16 0.75
-4 -11 -8 1.3 0.64
11 8 -4 1.76 0.54
8 4 -11 1.91 0.71
11 -8 4 1.53 0.72
11 8 -4 1.09 0.55
-11 -8 -4 2.41 0.58
-8 4 11 0.76 0.65
11 -8 -4 2.09 0.4
4 -11 -8 0.92 0.75
-4 -11 8 0.15 0.63
-8 -4 11 2.19 0.7
11 -8 -4 0.9 0.67
-11 -8 4 1.52 0.57
8 -4 -11 0.91 0.61
8 -4 -11 2.09 0.68
11 8 4 1.77 0.6
4 -11 -8 1.78 0.48
11 -9 4 33.36 1.77
-9 4 11 31.42 1.65
-11 -9 -4 32.64 1.52
11 9 -4 29.92 1.55
-4 -11 -9 33.5 1.75
11 -9 4 32.17 1.08
4 -11 9 29.46 1.72
9 4 -11 32.66 1.53
11 9 -4 30.62 1.45
4 11 -9 32.87 1.37
9 4 -11 31.32 1.72
9 -4 11 34.03 1.38
9 -4 -11 31.18 1.64
9 -4 -11 32.65 1.56
-11 -9 4 32.08 1.55
4 -11 -9 33.36 1.9
-9 -4 11 32.97 1.73
11 -9 -4 31.17 1.31
11 -9 -4 29.38 1.66
4 -11 -9 31.82 1.41
11 9 4 34.57 1.62
-4 -11 9 32.09 1.86
-4 -11 -10 19.46 1.44
4 -11 10 21.95 1.62
11 -10 4 21.33 1.46
11 10 -4 18.4 1.2
-11 -10 -4 20.25 1.35
10 4 -11 19.29 1.24
10 4 -11 18.75 1.14
-10 4 11 21.58 1.48
10 4 -11 18.6 1.46
11 10 -4 19.15 1.24
11 -10 4 20.31 0.95
4 11 -10 18.58 1.04
-11 -10 4 20.83 1.31
-4 -11 10 20.06 1.55
4 -11 -10 18.39 1.14
10 -4 -11 20.81 1.25
4 -11 -10 19.62 1.55
11 -10 -4 19.67 1.07
10 -4 -11 20 1.47
11 10 4 17.27 1.25
11 -10 -4 21.15 1.46
-10 -4 11 20.21 1.48
-11 0 5 207.17 6.05
11 0 -5 206.11 6.23
5 -11 0 203.54 6.17
5 -11 0 200.53 6.29
0 -5 11 204.04 6.4
11 0 5 209.41 6.07
5 11 0 204.34 6.19
11 0 5 209.61 6.09
0 -5 -11 209.94 6.04
-5 -11 0 216.27 6.34
0 -5 -11 203.27 6.37
1 -5 11 9.31 0.93
-11 1 5 9.22 0.7
-5 -11 -1 9.56 0.84
5 -11 1 8.46 0.73
-1 -5 -11 9.95 0.65
11 -1 5 8.89 0.65
-1 -5 -11 7.98 0.89
5 -11 1 7.4 0.94
11 1 -5 7.97 0.79
11 -1 5 9.13 0.78
5 11 -1 8.18 0.67
11 1 5 8.55 1.12
5 11 1 8.13 0.71
1 -5 -11 8.87 0.9
-5 -11 1 9.78 0.91
5 -11 -1 8.09 0.75
5 -11 -1 8.69 0.94
-11 -1 5 8.71 0.66
1 -5 -11 8.17 0.68
11 -1 -5 8.52 0.89
-1 -5 11 9 0.93
11 1 5 8.41 0.7
2 -5 11 9.35 0.95
5 11 -2 9.21 0.74
11 2 -5 9.51 0.82
-2 -5 -11 9.36 0.87
11 -2 5 10.5 0.68
2 5 -11 10.16 0.69
-11 2 5 8.81 0.73
11 2 -5 7.66 0.69
11 -2 5 10.45 0.82
5 -11 2 11.14 0.92
-2 -5 -11 11.27 0.65
-5 -11 -2 10.03 0.96
-5 -11 2 10.37 0.94
-2 -5 11 9.68 0.95
2 -5 -11 10.02 0.72
5 11 2 8.19 0.74
11 2 5 9.26 0.75
11 2 5 8.62 0.71
2 -5 -11 7.18 0.98
5 -11 -2 8.99 0.79
11 -2 -5 10.46 0.89
-11 -2 5 9.72 0.73
5 -11 -2 10.68 0.91
11 -3 5 19.36 0.86
11 3 -5 17.92 1.01
11 -3 5 18.68 1.12
5 11 -3 18.5 0.97
-3 -5 -11 18.21 1.14
5 -11 3 18.65 1.14
-3 -5 -11 18.05 0.83
3 5 -11 18.25 0.95
11 3 -5 18.39 1.1
3 -5 11 18.86 1.26
-5 -11 -3 18.78 1.19
-5 -11 3 16.96 1.24
5 -11 -3 19.91 1.24
-3 -5 11 18.35 1.26
-11 -3 5 18.91 0.94
3 -5 -11 18.63 1.29
11 3 5 19.44 1.03
3 -5 -11 19.59 0.97
5 11 3 16.83 1.01
11 -3 -5 19.84 1.16
5 -11 -3 18.52 0.99
11 3 5 17.82 0.91
5 11 -4 8.37 0.71
-4 -5 -11 7.87 0.58
11 4 -5 8.53 0.86
11 -4 5 8.64 0.96
-11 -4 -5 9.04 0.67
5 -11 4 8.3 0.99
-5 -11 -4 7.49 0.96
11 4 -5 8.85 0.76
4 -5 11 9.69 0.95
4 5 -11 7.93 0.65
-11 -4 5 8.36 0.74
-4 -5 11 9.43 1.03
11 -4 -5 9.93 0.99
4 -5 -11 8.65 0.97
5 -11 -4 9.06 0.79
5 11 4 8.05 0.74
4 -5 -11 8.54 0.72
5 -11 -4 9.17 0.94
-5 -11 4 8.48 0.88
-11 -5 -5 184.08 5.39
11 -5 5 184.76 5.65
5 11 -5 182.88 5.54
-5 -11 -5 187.6 5.74
11 5 -5 180.69 5.66
-5 -5 -11 174.48 5.24
5 5 -11 184.76 5.58
5 -11 5 183.25 5.73
5 -5 11 180.7 5.68
11 5 -5 173.28 5.51
5 -5 -11 185.12 5.58
5 -11 -5 186.62 5.77
11 -5 -5 181.34 5.69
5 -11 -5 183.32 5.52
11 5 5 179.61 5.58
-11 -5 5 187.47 5.48
-5 -5 11 187.72 5.81
-5 -11 5 184.37 5.75
5 -5 -11 184.2 5.76
5 11 -6 89.24 2.96
11 6 -5 92.56 3.11
6 5 -11 87.76 3.01
11 -6 5 86.19 3.08
-5 -11 -6 87.42 3.14
6 -5 11 89.53 3.09
-11 -6 -5 90.88 2.86
5 -11 6 86.12 3.15
11 6 -5 85.13 2.95
5 -11 -6 90.97 3.26
6 -5 -11 90.05 3.19
11 -6 -5 90.54 2.56
11 -6 -5 86.89 3.12
-5 -11 6 87.93 3.17
5 -11 -6 89.56 2.95
11 -6 -5 88.31 2.55
6 -5 -11 90.03 3.06
-6 -5 11 90.26 3.23
-11 -6 5 94.61 2.96
11 6 5 86.19 3.03
-5 -11 -7 2.7 0.65
7 5 -11 2.85 0.57
7 5 -11 3.02 0.72
5 11 -7 2.08 0.47
11 -7 5 3.35 0.76
7 -5 11 2.59 0.67
-11 -7 -5 3.8 0.59
11 7 -5 2.25 0.58
5 -11 7 2.44 0.69
11 7 -5 3.07 0.64
-5 -11 7 2.91 0.74
-7 -5 11 2.77 0.73
7 -5 -11 2.89 0.64
11 -7 -5 2.99 0.4
5 -11 -7 2.13 0.54
5 -11 -7 2.82 0.83
-11 -7 5 2.7 0.63
11 -7 -5 2.58 0.74
7 -5 -11 1.14 0.69
11 7 5 2.91 0.62
8 5 -11 32.92 1.71
5 -11 8 35.18 1.83
-8 -5 -11 32.15 1.9
-11 -8 -5 35.02 1.56
8 5 -11 35.47 1.58
11 8 -5 33.9 1.62
8 -5 11 35.7 1.58
5 11 -8 36.45 1.5
11 -8 5 37.07 1.83
11 8 -5 34.6 1.54
-5 -11 -8 35.21 1.75
8 -5 -11 35.46 1.7
-8 -5 11 36.52 1.76
-5 -11 8 35.7 1.85
11 -8 -5 37.85 1.36
5 -11 -8 34.25 1.51
11 -8 -5 37.62 1.84
-11 -8 5 40.12 1.68
5 -11 -8 35.25 1.91
8 -5 -11 35.8 1.73
11 8 5 36.81 1.68
-11 -9 -5 3.34 0.71
11 -9 5 3.83 0.48
9 5 -11 2.49 0.64
5 -11 9 3.11 0.88
-9 -5 -11 2.02 0.85
5 11 -9 2.85 0.57
11 9 -5 2.79 0.65
9 -5 11 3.54 0.61
9 5 -11 2.89 0.78
11 9 -5 3.78 0.7
-5 -11 -9 2.67 0.85
9 -5 -11 3.16 0.76
-5 -11 9 3.52 0.84
9 -5 -11 3.42 0.8
-9 -5 11 4.13 0.8
11 -9 -5 2.84 0.54
5 -11 -9 3.94 0.99
11 9 5 3.09 0.73
-11 -9 5 4.58 0.76
11 -9 -5 4.3 0.84
5 -11 -9 3.22 0.62
10 5 -11 6.92 0.98
-5 -11 -10 8.9 1.16
10 5 -11 7.11 0.9
5 11 -10 8.3 0.79
11 10 -5 8.08 0.96
-10 -5 -11 6.57 1.08
11 10 -5 8.2 1.01
-11 -10 -5 8.54 1.12
5 -11 10 7.85 1.13
11 -10 5 7.32 0.98
5 -11 -10 7.72 1.12
11 10 5 8.85 1.09
10 -5 -11 7.36 1.02
-5 -11 10 6.97 1.14
11 -10 -5 8.83 0.91
5 -11 -10 7.6 0.96
11 -10 -5 8.08 1.12
10 -5 -11 8.72 1.02
-10 -5 11 8 1.02
0 6 -11 182.11 5.27
0 -6 -11 177.21 5.39
-11 0 6 179.02 5.34
11 0 -6 177.95 5.51
11 0 6 180.3 5.29
6 -11 0 180.16 5.46
6 11 0 175.01 5.46
6 -11 0 179.17 5.52
11 0 -6 171.83 5.44
-6 -11 0 190.44 5.58
0 -6 -11 174.38 5.62
0 -6 11 175.36 5.66
11 1 -6 3.08 0.56
1 -6 11 2.28 0.69
-6 -11 -1 3.18 0.62
6 11 -1 3.47 0.53
6 -11 1 3.08 0.56
6 -11 1 2.65 0.64
11 1 -6 2.85 0.62
-1 -6 -11 3.93 0.53
-1 -6 -11 2.32 0.59
-11 1 6 2.76 0.51
1 6 -11 4.54 0.61
11 -1 6 2.83 0.48
6 -11 -1 2.89 0.67
11 1 6 2.95 0.5
6 11 1 3.94 0.6
11 -1 -6 2.88 0.53
11 -1 -6 3.36 0.67
6 -11 -1 2.96 0.56
-1 6 -11 3.98 0.47
-11 -1 6 3.28 0.53
1 -6 -11 3.31 0.7
1 -6 -11 4.26 0.55
-1 -6 11 2.13 0.74
-6 -11 1 3.88 0.66
2 -6 11 -0.52 0.62
6 -11 2 0.65 0.55
11 2 -6 0.09 0.37
-11 2 6 0.04 0.42
2 6 -11 0.56 0.36
6 11 -2 -0.09 0.36
6 -11 2 0.12 0.45
-2 -6 -11 0.09 0.33
-2 -6 -11 -0.22 0.52
11 2 -6 0.4 0.54
-6 -11 -2 -0.12 0.48
11 -2 6 0.29 0.39
11 -2 6 -0.36 0.47
11 -2 -6 -0.02 0.38
6 11 2 0.23 0.4
-11 -2 6 -0.54 0.39
2 -6 -11 0.13 0.38
6 -11 -2 -0.21 0.54
6 -11 -2 -0.17 0.39
-6 -11 2 -0.94 0.44
-2 6 -11 0.62 0.34
-2 -6 11 -0.95 0.46
11 2 6 -0.31 0.4
2 -6 -11 0.29 0.6
11 -2 -6 0.17 0.52
-6 -11 -3 15.74 1.13
6 11 -3 17 0.95
6 -11 3 16.94 1.12
11 -3 6 18.64 1.12
-11 3 6 17.73 1
3 6 -11 18.3 0.92
11 3 -6 16.66 1.11
11 3 -6 16.12 1
-3 -6 -11 17.71 1.2
-3 -6 -11 16.48 0.78
3 -6 11 18.97 1.22
6 -11 -3 17.62 0.99
6 11 3 14.67 0.98
6 -11 -3 17.83 1.21
-3 6 -11 17.73 0.79
11 -3 -6 17.68 1.15
11 -3 -6 16.16 0.92
3 -6 -11 17.07 1.21
3 -6 -11 17.5 0.94
-11 -3 6 16.68 0.98
-6 -11 3 18.47 1.18
-3 -6 11 17.36 1.21
6 11 -4 18.69 0.98
-4 -6 -11 18.17 1.15
6 -11 4 18.47 1.22
11 4 -6 17.88 1.13
4 6 -11 18.83 0.94
4 -6 11 18.31 1.2
11 -4 6 17.16 1.12
11 4 -6 16.06 1.01
-6 -11 -4 16.61 1.16
-11 -4 -6 17.5 0.94
-11 -4 6 16.76 1.03
11 -4 -6 17.28 1.17
4 -6 -11 15.62 1.31
4 -6 -11 16.93 0.97
6 -11 -4 19.25 1.06
6 11 4 15.6 1.02
-6 -11 4 17.79 1.18
-4 -6 11 17.55 1.22
6 -11 -4 19.16 1.2
-11 -5 -6 87.21 2.83
-6 -11 -5 84.7 3.26
6 11 -5 85.83 2.94
5 -6 11 89.42 3.14
-5 -6 -11 89.18 3.15
6 -11 5 90.19 3.13
11 5 -6 84.51 2.96
5 6 -11 85.95 2.93
11 5 -6 87.08 3.05
11 -5 -6 92.48 3.15
6 -11 -5 87.61 2.96
11 5 6 89.08 2.99
6 -11 -5 86.81 3.13
-5 -6 11 91.42 3.25
-11 -5 6 89.1 2.95
11 -5 -6 88.2 2.52
11 -5 -6 89.28 2.52
5 -6 -11 88.12 2.95
5 -6 -11 88.05 3.2
6 11 5 87.22 3.05
-6 -11 5 87.55 3.13
6 -11 6 31.67 1.62
11 6 -6 32.66 1.54
-11 -6 -6 30.27 1.38
-6 -11 -6 32.01 1.63
-6 -6 -11 31.12 1.62
6 -6 11 33.01 1.6
6 6 -11 32.53 1.43
6 11 -6 33.39 1.45
11 6 -6 32.22 1.47
-6 -11 6 31.85 1.6
11 -6 -6 33.09 1.15
6 -6 -11 32.9 1.54
6 -11 -6 33.46 1.47
6 -11 -6 33.24 1.72
-11 -6 6 35.36 1.53
11 6 6 35.41 1.53
-6 -6 11 30.18 1.7
6 -6 -11 30 1.7
11 -6 -6 32.66 1.64
-7 -6 -11 5.13 0.77
7 6 -11 4.73 0.66
11 7 -6 4.83 0.69
6 11 -7 4.72 0.63
-6 -11 -7 5.27 0.83
-11 -7 -6 4.46 0.68
11 7 -6 5.39 0.73
7 -6 11 4.28 0.78
6 -11 7 4.25 0.84
7 6 -11 3.79 0.75
6 -11 -7 5.07 0.93
11 -7 -6 4.83 0.62
11 7 6 4.46 0.69
11 -7 -6 3.43 0.8
-7 -6 11 3.65 0.84
7 -6 -11 4.55 0.86
7 -6 -11 4.94 0.75
-6 -11 7 4.18 0.78
6 -11 -7 4.52 0.65
-11 -7 6 5.01 0.72
-8 -6 -11 16.33 1.2
8 6 -11 14.98 1.08
-6 -11 -8 20.28 1.4
8 6 -11 15.93 1.27
6 11 -8 16.92 1.02
11 8 -6 16.43 1.12
8 -6 11 20.56 1.21
-11 -8 -6 20.84 1.19
11 8 -6 18.22 1.18
6 -11 8 17.91 1.38
-8 -6 11 16.46 1.32
8 -6 -11 16.42 1.23
8 -6 -11 16.35 1.31
-6 -11 8 18.21 1.38
11 -8 -6 18.03 1.42
-11 -8 6 19.29 1.22
6 -11 -8 16.7 1.33
11 8 6 17.41 1.15
6 -11 -8 17.74 1.12
9 -6 11 1.71 0.59
11 9 -6 1.26 0.63
-6 -11 -9 2.41 0.77
-11 -9 -6 1.61 0.66
-9 -6 -11 1.98 0.71
11 9 -6 2.24 0.69
6 11 -9 0.59 0.53
9 6 -11 1.38 0.73
11 -9 6 2.26 0.41
9 6 -11 1.67 0.55
6 -11 9 1.01 0.78
11 9 6 1.52 0.65
-9 -6 11 2.4 0.81
9 -6 -11 2.38 0.74
-11 -9 6 1.84 0.77
9 -6 -11 2.15 0.74
11 -9 -6 1.52 0.55
6 -11 -9 1.88 0.83
-6 -11 9 0.95 0.84
6 -11 -9 1.37 0.64
11 -9 -6 1.49 0.75
10 -6 11 6.64 0.8
10 6 -11 5.42 0.97
-11 -10 -6 8.74 1.23
11 10 -6 6.59 0.92
11 10 -6 6.33 0.88
10 6 -11 5.43 0.81
-6 -11 -10 7.14 1.1
6 -11 10 9.63 1.25
6 11 -10 6.41 0.79
-10 -6 -11 6.06 0.95
6 -11 -10 7.54 1.18
11 -10 -6 6.49 0.78
-6 -11 10 7.36 1.1
-11 -10 6 5.94 0.99
10 -6 -11 6.23 0.97
6 -11 -10 7.4 0.92
-10 -6 11 9.26 1.16
11 -10 -6 6 0.95
11 10 6 7.13 0.91
10 -6 -11 7.55 0.92
0 -7 -11 0.09 0.58
7 11 0 0.49 0.39
11 0 -7 0.75 0.57
7 -11 0 0.13 0.53
0 -7 11 0.38 0.63
0 7 -11 0.46 0.34
7 -11 0 0.02 0.48
-11 0 7 0.27 0.45
-7 -11 0 0.83 0.5
11 0 -7 0.36 0.38
7 -11 1 13.88 0.98
-1 -7 -11 15.32 0.79
7 11 -1 13.5 0.79
11 1 -7 13.68 1.05
-11 1 7 15.17 0.95
-1 -7 -11 12.91 1.1
1 -7 11 13.39 1.29
11 1 -7 13.52 0.89
-7 -11 -1 14.94 1
7 11 -1 14.77 0.93
7 -11 1 15.17 1.08
1 7 -11 14.83 0.79
-1 7 -11 15.4 0.75
-11 -1 7 15.29 0.97
1 -7 -11 12.84 1.14
-7 -11 1 14.98 1.03
7 11 1 13.74 0.98
11 -1 -7 13.93 1.13
11 -1 -7 15.06 0.94
1 -7 -11 15.31 0.83
11 1 7 15.34 0.88
7 -11 -1 14.47 1.09
-1 -7 11 14.84 1.21
7 -11 -1 16.64 1.01
7 11 -2 11.37 0.85
11 2 -7 13.17 1.02
2 -7 11 12.46 1.22
-11 2 7 12.34 0.9
-2 -7 -11 12.04 1.07
7 -11 2 12.27 1.02
11 2 -7 10.74 0.85
-7 -11 -2 13.51 1.04
7 -11 2 11.27 0.97
-2 -7 -11 13.54 0.71
2 7 -11 12.1 0.75
-11 -2 7 12.63 0.93
2 -7 -11 11.84 1.12
11 -2 -7 11.88 1.03
11 -2 -7 13.02 0.86
7 -11 -2 12.75 0.94
11 2 7 12.86 0.84
7 -11 -2 13.96 0.99
-2 -7 11 13.42 1.16
7 11 2 12.77 0.89
-2 7 -11 12.41 0.69
-7 -11 2 14.34 0.98
2 -7 -11 12.88 0.81
-3 -7 -11 0.48 0.55
3 7 -11 0.16 0.36
-11 3 7 0.85 0.49
3 -7 11 1.61 0.66
7 -11 3 1.27 0.59
11 3 -7 0.5 0.45
11 3 -7 0.41 0.54
-7 -11 -3 -0.49 0.54
7 11 -3 -0.24 0.37
-11 -3 7 -0.14 0.48
7 11 3 0.53 0.45
7 -11 -3 0.84 0.61
11 -3 -7 1.09 0.57
3 -7 -11 0.23 0.62
11 -3 -7 -0.05 0.4
3 -7 -11 0.46 0.41
-7 -11 3 1.16 0.54
-3 -7 11 0.42 0.59
7 -11 -3 0.92 0.52
-7 -11 -4 37.54 1.64
7 11 -4 34.05 1.5
11 4 -7 35.18 1.56
4 -7 11 36.91 1.73
11 4 -7 34.57 1.64
4 7 -11 34.71 1.43
-4 -7 -11 35.75 1.7
7 -11 4 33.83 1.62
-11 -4 -7 37.66 1.46
4 -7 -11 35.43 1.76
11 -4 -7 36.74 1.16
-11 -4 7 37.24 1.58
7 -11 -4 36.61 1.61
7 11 4 33.43 1.56
11 -4 -7 33.95 1.7
11 4 7 33.73 1.49
7 -11 -4 35.2 1.69
4 -7 -11 35.26 1.45
-4 -7 11 36.65 1.79
11 -4 -7 35.9 1.13
-7 -11 4 34.27 1.64
5 7 -11 3.28 0.56
-11 -5 -7 3.54 0.62
7 -11 5 2.61 0.68
11 5 -7 3.34 0.62
7 11 -5 2.61 0.56
5 -7 11 3.39 0.79
-7 -11 -5 1.16 0.96
11 5 -7 2.8 0.66
-5 -7 -11 3.03 0.68
-11 -5 7 3 0.63
7 -11 -5 3.42 0.75
5 -7 -11 2.81 0.59
11 5 7 2.24 0.54
11 -5 -7 3.4 0.4
11 -5 -7 2.78 0.73
-5 -7 11 3.32 0.8
-7 -11 5 3.06 0.69
5 -7 -11 1.29 0.78
7 -11 -5 2.98 0.64
7 11 5 2.99 0.62
-7 -11 -6 4.67 0.79
6 -7 11 6.11 0.87
11 6 -7 4.78 0.72
11 6 -7 4.04 0.74
-6 -7 -11 3.78 0.74
7 11 -6 4.26 0.65
-11 -6 -7 5.45 0.7
6 7 -11 4.26 0.64
7 -11 6 4.13 0.79
-11 -6 7 3.84 0.73
7 -11 -6 3.82 0.83
-6 -7 11 4.83 0.86
7 -11 -6 5.11 0.76
-7 -11 6 4.77 0.76
6 -7 -11 5.45 0.93
11 -6 -7 4.04 0.81
11 -6 -7 4.32 0.59
6 -7 -11 4.51 0.7
11 6 7 6.2 0.79
7 -7 11 3.94 0.77
7 11 -7 4.48 0.62
-7 -7 -11 2.55 0.77
-11 -7 -7 3.64 0.67
7 7 -11 4.67 0.66
7 -11 7 3.08 0.78
11 7 -7 3.58 0.64
-7 -11 -7 3.38 0.78
11 7 -7 2.76 0.68
11 7 7 4.21 0.7
7 -7 -11 4.18 0.77
7 -7 -11 3.23 0.85
11 -7 -7 3.47 0.8
7 -11 -7 3.71 0.71
7 -11 -7 3.43 0.84
-11 -7 7 4.11 0.74
-7 -7 11 3.4 0.82
-7 -11 7 2.67 0.79
7 -11 8 1.87 0.79
8 7 -11 0.61 0.52
8 7 -11 1.64 0.76
11 8 -7 1.12 0.67
-7 -11 -8 2.09 0.76
11 8 -7 1.55 0.6
-11 -8 -7 0.52 0.63
7 11 -8 2.63 0.55
-8 -7 -11 1.94 0.78
8 -7 11 0.86 0.62
8 -7 -11 3.52 0.79
8 -7 -11 1.28 0.76
11 -8 -7 1.92 0.55
11 8 7 1.26 0.65
11 -8 -7 2.75 0.79
-11 -8 7 1.15 0.71
-8 -7 11 1.99 0.84
-7 -11 8 3.3 0.83
7 -11 -8 1.74 0.67
7 -11 -8 1.83 0.75
9 -7 11 15.32 1.16
11 9 -7 14.61 1.17
9 7 -11 14.67 1.36
7 -11 9 15.57 1.32
11 9 -7 13.53 1.22
-7 -11 -9 16.83 1.43
-11 -9 -7 16.18 1.23
9 7 -11 17.81 1.14
11 -9 7 15.04 0.82
-9 -7 -11 14.68 1.31
7 11 -9 17.22 1.06
9 -7 -11 13.13 1.32
-7 -11 9 13.17 1.32
11 -9 -7 15.64 1.07
11 9 7 14.14 1.17
7 -11 -9 13.05 1.18
11 -9 -7 13.38 1.31
9 -7 -11 14.82 1.35
-11 -9 7 13.88 1.25
7 -11 -9 16.6 1.36
-9 -7 11 14.98 1.33
10 7 -11 8.95 1.12
11 10 -7 9.36 1.11
7 -11 10 8.16 1.09
11 -10 7 7.95 0.83
-7 -11 -10 8.58 1.16
10 7 -11 8.43 0.98
7 11 -10 9.65 0.93
-11 -10 -7 6.78 1.1
10 -7 11 8.95 0.89
-10 -7 -11 9.03 1.24
11 10 -7 8.91 1.11
10 -7 -11 9.67 1.18
-10 -7 11 8.15 1.2
11 -10 -7 10.29 1.06
-7 -11 10 8.96 1.27
11 10 7 11.19 1.1
11 -10 -7 9.14 1.26
10 -7 -11 10.17 1.16
7 -11 -10 8.68 1.14
7 -11 -10 8.08 1.17
-11 -10 7 8.11 1.07
8 -11 0 20.41 1.2
11 0 -8 20.99 1.12
-8 -11 0 22.86 1.27
0 8 -11 21.65 0.96
-11 0 8 23.39 1.21
8 11 0 20.83 1.19
8 -11 0 21.02 1.26
0 -8 11 23.37 1.47
0 -8 -11 19.94 1.06
11 0 -8 21.24 1.3
0 -8 -11 21.67 1.48
1 -8 11 8.36 1.08
8 -11 1 6.69 0.85
11 1 -8 7.11 0.91
8 -11 1 7.56 0.91
11 1 -8 6.95 0.72
1 8 -11 7.37 0.63
8 11 -1 7.2 0.69
-8 -11 -1 6.85 0.87
-1 -8 -11 6.86 0.94
-11 1 8 7.99 0.85
8 11 -1 6.73 0.73
-1 -8 -11 6.86 0.65
-11 -1 8 6.98 0.82
1 -8 -11 8.5 1.18
-1 8 -11 7.45 0.6
8 -11 -1 8.19 0.88
8 11 1 7.75 0.79
8 -11 -1 8.22 0.91
-1 -8 11 6.15 0.95
11 -1 -8 5.76 0.73
-8 -11 1 6.81 0.88
11 -1 -8 6.95 0.92
1 -8 -11 7.39 0.67
8 -11 2 15.96 1.15
-11 2 8 16.57 1.07
8 11 -2 15.85 0.93
8 11 -2 14.18 0.99
11 2 -8 15.35 1.14
-8 -11 -2 16.14 1.11
2 8 -11 16.53 0.86
2 -8 11 17.77 1.29
-2 -8 -11 17.07 1.24
8 -11 2 17.25 1.1
11 2 -8 16.11 1.04
8 -11 -2 15.06 1.09
-8 -11 2 15.28 1.06
-2 -8 11 14.66 1.25
11 -2 -8 15.58 0.58
11 -2 -8 14 1.15
-11 -2 8 15.16 1.05
8 11 2 15.45 1.06
8 -11 -2 16.62 1.13
11 -2 -8 15.84 0.57
11 -2 -8 16.99 0.99
2 -8 -11 15.84 1.26
2 -8 -11 15.75 0.9
11 3 -8 31.33 1.51
8 -11 3 32.71 1.63
-3 -8 -11 33.38 1.72
3 8 -11 34.4 1.39
8 11 -3 32.26 1.5
-8 -11 -3 34.33 1.59
11 3 -8 31.43 1.61
3 -8 11 31.46 1.78
-11 3 8 36.09 1.58
8 -11 3 34.04 1.58
8 11 -3 33.26 1.39
11 -3 -8 34.56 1.15
3 -8 -11 34.93 1.87
-8 -11 3 35.5 1.63
8 -11 -3 36.16 1.62
8 11 3 34.65 1.57
-3 -8 11 35.99 1.86
3 -8 -11 34.01 1.41
11 -3 -8 32.34 1.66
8 -11 -3 34.09 1.61
-11 -3 8 36.07 1.58
-4 -8 -11 1.91 0.74
8 -11 4 2.42 0.64
11 4 -8 1.21 0.67
8 11 -4 1.95 0.54
8 11 -4 1.31 0.47
4 8 -11 0.99 0.41
11 4 -8 0.73 0.45
-8 -11 -4 1.38 0.62
4 -8 11 1.06 0.73
-11 -4 8 1.25 0.59
4 -8 -11 0.06 0.78
8 11 4 1.48 0.56
11 -4 -8 1.95 0.73
4 -8 -11 1.52 0.51
8 -11 -4 1.22 0.64
-8 -11 4 1.94 0.64
8 -11 -4 1.78 0.64
-4 -8 11 1.24 0.77
11 -4 -8 1.76 0.37
11 5 -8 36.73 1.65
-11 -5 -8 40.05 1.62
5 8 -11 35.95 1.51
5 -8 11 34.96 1.84
8 11 -5 36.67 1.62
-5 -8 -11 35.91 1.83
8 11 -5 37.62 1.54
8 -11 5 35.97 1.66
11 5 -8 40.65 1.73
11 -5 -8 36.61 1.35
11 -5 -8 36.96 1.78
8 11 5 34.62 1.65
5 -8 -11 35.27 1.84
8 -11 -5 35.53 1.73
8 -11 -5 35.87 1.72
5 -8 -11 36.4 1.58
-8 -11 5 36.43 1.79
-11 -5 8 38.16 1.69
-5 -8 11 34.48 1.86
-6 -8 -11 18.92 1.4
-11 -6 -8 18.68 1.18
6 -8 11 16.06 1.3
6 8 -11 18.16 1.03
11 6 -8 17.96 1.14
8 -11 6 18.38 1.22
11 6 -8 16.86 1.2
-8 -11 -6 16.19 1.26
8 11 -6 17.59 1.06
11 -6 -8 16.58 1.37
8 -11 -6 18.89 1.26
-6 -8 11 17.21 1.36
-8 -11 6 19.18 1.33
6 -8 -11 18.71 1.48
6 -8 -11 16.95 1.18
-11 -6 8 18.88 1.25
8 -11 -6 17.28 1.29
11 7 -8 1.53 0.57
11 7 -8 1.93 0.75
7 8 -11 2.03 0.59
-11 -7 -8 0.85 0.66
8 11 -7 1.55 0.56
-7 -8 -11 1.66 0.71
7 -8 11 2.61 0.75
-8 -11 -7 0.82 0.63
8 -11 7 0.23 0.64
8 -11 -7 2.16 0.72
-8 -11 7 1.74 0.68
11 -7 -8 1.66 0.78
-7 -8 11 1.05 0.74
7 -8 -11 1.38 0.65
7 -8 -11 2.82 0.8
-11 -7 8 2.22 1.13
8 -11 -7 0.99 0.76
11 -7 -8 1.11 0.53
11 8 -8 21.16 1.35
-8 -8 -11 24.01 1.59
11 8 -8 23.66 1.42
8 -8 11 23.96 1.44
8 8 -11 22.51 1.46
-8 -11 -8 28.63 1.63
8 11 -8 23.65 1.32
8 -11 8 23.06 1.51
8 8 -11 21.72 1.26
-11 -8 -8 23.68 1.46
11 -8 -8 24.14 1.59
11 -8 -8 23.6 1.26
8 -11 -8 26.74 1.61
-8 -11 8 20.38 1.6
8 -8 -11 23.5 1.48
-11 -8 8 25.37 1.5
-8 -8 11 23.61 1.6
8 -11 -8 23.14 1.41
8 -8 -11 22.82 1.57
11 9 -8 5.69 0.92
8 -11 9 4.72 0.91
8 11 -9 6.02 0.86
-8 -11 -9 5.11 0.98
9 -8 11 7.06 0.88
11 9 -8 8.36 1.02
9 8 -11 5.74 0.95
-9 -8 -11 6.04 1.03
9 8 -11 6.49 0.89
8 -11 -9 6.64 0.93
9 -8 -11 6.93 1
8 -11 -9 7.69 1.1
11 -9 -8 5.87 1.02
11 -9 -8 5.89 0.8
-9 -8 11 8.01 1.08
9 -8 -11 6.53 1
-11 -9 8 6.36 1.01
-8 -11 9 5.03 1.07
10 -8 11 0.83 0.62
-10 -8 -11 2.97 0.96
-8 -11 -10 0.32 0.94
8 11 -10 0.9 0.65
11 -10 8 2.42 0.56
11 10 -8 1.75 0.73
10 8 -11 1.75 0.74
-11 -10 -8 1.44 0.88
10 8 -11 0.76 0.82
8 -11 10 -0.09 0.72
11 10 -8 2.19 0.82
10 -8 -11 0.12 0.83
-11 -10 8 3.38 0.91
11 -10 -8 1.06 0.87
-8 -11 10 0.99 0.95
11 -10 -8 2 0.72
8 -11 -10 1.13 0.73
10 -8 -11 1.63 0.79
8 -11 -10 0.72 0.91
-10 -8 11 0.86 0.83
9 11 0 1.06 0.48
9 -11 0 0.97 0.55
0 -9 -11 1.11 0.44
0 -9 -11 1.9 0.74
11 0 -9 1.43 0.53
-9 -11 0 2.22 0.59
9 -11 0 1.89 0.69
-11 0 9 0.73 0.59
11 0 -9 1.29 0.7
11 0 -9 1.42 0.29
0 9 -11 0.41 0.42
0 -9 11 -0.05 0.7
-11 1 9 12.76 1.04
11 1 -9 11.44 0.9
9 -11 1 12.71 0.99
9 -11 1 11.67 1.15
-1 -9 -11 10.32 1.15
-9 -11 -1 12.02 1.02
1 9 -11 12.06 0.78
9 11 -1 11.24 0.94
11 1 -9 12.67 0.52
1 -9 11 12.03 1.36
11 1 -9 10.36 1.1
1 -9 -11 11.31 0.8
-11 -1 9 12.28 1.09
9 11 1 10.88 0.93
-9 -11 1 12.75 1.03
11 -1 -9 9.91 0.85
9 -11 -1 12.21 0.98
-1 -9 11 12.69 1.25
11 -1 -9 11.76 0.63
9 -11 -1 11.3 1.06
11 -1 -9 10.67 1.17
-1 9 -11 12.08 0.74
1 -9 -11 11.14 1.21
-2 -9 -11 9.57 1.26
-11 2 9 9.19 0.98
2 -9 11 8.58 1.12
11 2 -9 9.93 1.05
2 9 -11 9.99 0.75
9 -11 2 8.4 1.08
11 2 -9 8.52 0.82
9 11 -2 8.83 0.9
11 2 -9 10.31 0.41
9 -11 2 9.02 0.92
-9 -11 -2 12.79 1.02
-2 -9 11 10.32 1.19
9 -11 -2 8.51 0.92
11 -2 -9 10.28 0.64
-9 -11 2 9.92 1.01
9 -11 -2 9.66 0.99
9 11 2 10.05 0.95
-11 -2 9 12.47 1.02
11 -2 -9 10.2 1.07
11 -2 -9 8.78 0.82
2 -9 -11 10.3 1.16
2 -9 -11 9.22 0.78
9 -11 3 12.65 0.99
-11 3 9 11.74 1.07
3 9 -11 10.78 0.79
-9 -11 -3 11.36 1.08
9 -11 3 11.19 1.18
11 3 -9 10.57 1.1
9 11 -3 11.38 0.9
11 3 -9 10.33 0.91
3 -9 11 12.24 1.33
9 11 -3 10.3 0.94
-3 -9 -11 13.76 1.23
-3 -9 11 12.12 1.27
9 -11 -3 11.55 0.99
11 -3 -9 12.99 1.17
3 -9 -11 11.97 0.86
9 11 3 9.96 0.91
-9 -11 3 10.51 1.17
9 -11 -3 12.48 1.15
11 -3 -9 12.95 0.75
3 -9 -11 11.81 1.38
-11 -3 9 9.86 1.04
4 9 -11 32.33 1.4
11 4 -9 31.36 1.67
-9 -11 -4 32.72 1.62
9 11 -4 30.67 1.38
9 -11 4 33.28 1.5
11 4 -9 32.24 1.54
4 -9 11 32.16 1.8
-4 -9 -11 32.18 1.81
9 11 -4 30.43 1.49
9 11 4 30.13 1.54
-4 -9 11 31.52 1.81
-11 -4 9 33.82 1.63
11 -4 -9 33.67 1.3
-9 -11 4 32.39 1.59
4 -9 -11 31.65 1.43
9 -11 -4 30.92 1.62
9 -11 -4 33.8 1.59
4 -9 -11 34.07 1.89
11 -4 -9 29.43 1.65
9 -11 5 2.81 0.67
5 9 -11 2.55 0.57
-5 -9 -11 5.47 0.94
11 5 -9 3.43 0.81
5 -9 11 1.73 0.86
-11 -5 -9 3.22 0.7
11 5 -9 4.22 0.71
9 11 -5 2.59 0.65
9 11 -5 2.04 0.61
11 5 -9 2.97 0.31
11 -5 -9 4.22 0.83
11 -5 -9 4.14 0.58
-9 -11 5 3.62 0.78
9 11 5 2.97 0.71
9 -11 -5 2.65 0.71
5 -9 -11 3.07 0.96
-11 -5 9 2.83 0.75
-5 -9 11 2.8 0.91
5 -9 -11 3.81 0.7
9 -11 -5 3.99 0.86
-9 -11 -6 1.63 0.7
9 -11 6 2.5 0.7
9 11 -6 0.22 0.65
11 6 -9 1.21 0.71
11 6 -9 1.84 0.3
-6 -9 -11 2.75 0.83
9 11 -6 0.74 0.5
-11 -6 -9 1.67 0.67
11 6 -9 1.32 0.59
6 -9 11 2.17 0.8
6 9 -11 0.83 0.48
-11 -6 9 1.17 0.71
6 -9 -11 1.84 0.91
9 11 6 1.25 0.63
11 -6 -9 1.76 0.79
-9 -11 6 1.36 0.74
-6 -9 11 2.6 0.85
9 -11 -6 2.21 0.74
11 -6 -9 1.8 0.56
6 -9 -11 1.83 0.65
9 -11 -6 0.89 0.72
9 11 -7 14.27 1.11
-11 -7 -9 16.58 1.32
11 7 -9 14.8 1.36
7 -9 11 15.04 1.27
7 9 -11 14.63 1.04
-7 -9 -11 16.74 1.47
11 7 -9 16.73 0.7
-9 -11 -7 14.65 1.34
11 7 -9 14.83 1.14
9 11 -7 13.76 1.2
9 -11 7 15.36 1.2
-11 -7 9 16.07 1.38
9 -11 -7 14.29 1.31
11 -7 -9 15.86 1.07
11 -7 -9 14.58 1.31
9 -11 -7 15.24 1.28
7 -9 -11 15.66 1.47
-9 -11 7 15.13 1.29
7 -9 -11 15.29 1.15
-7 -9 11 16.01 1.37
9 11 -8 8.94 0.94
8 9 -11 5.36 0.82
-9 -11 -8 7.31 1.02
-8 -9 -11 7.13 1.06
8 -9 11 6.77 0.93
8 9 -11 7.02 1
9 -11 8 5.43 0.88
9 11 -8 5.83 0.9
11 8 -9 6.15 0.91
11 8 -9 6.23 0.91
8 -9 -11 6.51 1.03
9 -11 -8 5.99 0.97
-8 -9 11 6.7 1.19
-11 -8 9 7.21 0.97
8 -9 -11 5.28 0.89
11 -8 -9 7.62 1.07
-9 -11 8 6.4 1.09
9 -11 -8 5.47 0.96
11 -8 -9 5.63 0.79
-9 -9 -11 14.48 1.46
9 -9 11 13.63 1.2
9 -11 9 11.78 1.22
11 9 -9 11.23 1.17
9 9 -11 9.42 1.1
9 11 -9 12.48 1.27
11 9 -9 13.2 1.32
9 11 -9 12.29 1.09
9 9 -11 12.05 1.31
-11 -9 -9 15.05 1.35
-9 -11 -9 15.14 1.45
11 -9 -9 13.47 1.3
9 -11 -9 15.48 1.37
9 -9 -11 13.24 1.35
11 -9 -9 13.06 1.15
-9 -11 9 10.62 1.34
9 -9 -11 13.33 1.34
-9 -9 11 12.04 1.52
9 -11 -9 14.26 1.36
-11 -9 9 14.83 1.44
10 -9 11 9.78 1.09
11 -10 9 8.07 0.9
11 10 -9 8.07 1.07
11 10 -9 7.67 1.1
-11 -10 -9 6.8 1.06
10 9 -11 8.11 1.05
10 9 -11 7.06 1.12
-9 -11 -10 4.62 1.05
9 11 -10 7.36 1.08
9 -11 10 6.23 0.96
-10 -9 -11 8.44 1.14
9 11 -10 8.28 1.11
11 -10 -9 5.8 1.17
-11 -10 9 7.92 1.15
10 -9 -11 8.37 1.13
11 -10 -9 7.96 1.14
-10 -9 11 8.04 1.26
10 -9 -11 9.92 1.32
-9 -11 10 7.97 1.29
9 -11 -10 8.51 1.14
9 -11 -10 8.56 1.18
10 -11 0 45.4 1.72
10 11 0 41.61 1.85
11 0 -10 44.26 1.51
0 -10 -11 41.23 1.57
11 0 -10 43.59 1.86
0 -10 11 39.93 2.1
10 -11 0 43.76 1.97
0 -10 -11 41.84 2.17
0 10 -11 41.07 1.53
-10 -11 0 43.23 1.9
11 0 -10 43.36 1.99
11 1 -10 11.34 0.73
11 1 -10 11.75 1.25
10 -11 1 11.81 0.95
1 -10 11 11.26 1.26
1 10 -11 12.37 0.78
11 1 -10 10.25 0.93
10 11 -1 10.22 0.96
-10 -11 -1 10.3 1.09
-1 -10 -11 9.81 1.19
-11 1 10 8.31 1.13
10 -11 1 11.79 1.16
10 -11 -1 10.25 0.93
11 -1 -10 12.2 0.77
10 11 1 10.72 0.98
11 -1 -10 10.62 1.13
1 -10 -11 11.79 1.29
1 -10 -11 11.15 0.84
-1 -10 11 13.11 1.34
11 -1 -10 11.2 0.92
-10 -11 1 11.94 1.08
10 -11 -1 9.11 1.11
11 2 -10 9.67 0.91
11 2 -10 9.28 1.14
2 -10 11 9.59 1.22
11 2 -10 9.2 0.67
10 11 -2 9.49 1.28
-11 2 10 8.18 1.03
-10 -11 -2 8.54 1.01
2 10 -11 8.51 0.74
-2 -10 -11 7.7 1.07
10 -11 2 8.9 1.16
10 -11 2 8.43 0.89
10 11 -2 7.77 0.89
10 -11 -2 8.46 1.08
11 -2 -10 6.96 1
11 -2 -10 9.65 1.08
-10 -11 2 11.01 1.06
10 -11 -2 7.06 0.9
2 -10 -11 8.61 1.2
2 -10 -11 8.74 0.78
-2 -10 11 9.48 1.24
10 11 2 10.16 0.94
3 10 -11 8.16 0.73
11 3 -10 5.79 0.93
-3 -10 -11 6.62 1.08
-11 3 10 8.89 1.09
-10 -11 -3 7.62 1.08
3 -10 11 6.63 1.04
10 11 -3 8.31 0.91
11 3 -10 7.25 0.65
10 11 -3 5.97 0.84
11 3 -10 7.09 0.91
10 -11 3 6.82 1
10 -11 3 7.71 0.85
3 -10 -11 7.94 0.8
3 -10 -11 7.31 1.13
-10 -11 3 7.65 1.44
10 -11 -3 8.45 0.94
10 -11 -3 7.5 1.05
-3 -10 11 6.1 1.05
-11 -3 10 8.14 1.01
10 11 3 8.01 0.93
11 -3 -10 6.71 0.95
11 -3 -10 6.17 0.83
11 4 -10 20.8 0.91
10 11 -4 18.3 1.15
10 11 -4 19.42 1.26
4 -10 11 19.89 1.58
11 4 -10 20.3 1.48
-10 -11 -4 20.34 1.35
10 -11 4 20.85 1.17
11 4 -10 16.76 1.22
4 10 -11 20.32 1.08
-4 -10 -11 16.44 1.39
-4 -10 11 18.99 1.52
4 -10 -11 18.63 1.62
-11 -4 10 19.24 1.38
10 -11 -4 22.25 1.25
-10 -11 4 18.46 1.37
11 -4 -10 20.32 1.05
11 -4 -10 18.28 1.47
4 -10 -11 18.05 1.12
10 -11 -4 19.73 1.38
10 11 4 18.45 1.28
10 11 -5 6.52 0.9
11 5 -10 7.81 1
5 -10 11 7.49 1.11
10 11 -5 8.45 0.91
11 5 -10 8.28 0.69
10 -11 5 6.35 0.92
5 10 -11 10.05 0.82
-11 -5 -10 7.32 1.04
-5 -10 -11 6.85 1.01
11 5 -10 8.03 1.06
11 -5 -10 6.07 1
-10 -11 5 9.72 1.16
-11 -5 10 8.05 1
-5 -10 11 6.44 1.05
11 -5 -10 6.66 0.73
5 -10 -11 8.54 1.22
5 -10 -11 7.43 0.93
10 11 5 7.57 1
10 -11 -5 6.03 0.83
10 -11 -5 9.11 1.14
-11 -6 -10 7.25 0.96
10 11 -6 7.54 1.01
6 -10 11 9.09 1.25
10 -11 6 6.13 0.78
11 6 -10 6.65 0.93
11 6 -10 7.06 1.07
10 11 -6 7.83 1.04
-6 -10 -11 5.27 1.03
6 10 -11 8.09 0.86
11 6 -10 6.59 0.92
-10 -11 -6 6.31 0.94
-10 -11 6 6.93 1.02
10 11 6 6.45 0.96
-11 -6 10 7.39 1
6 -10 -11 5.73 1.04
11 -6 -10 8.21 0.95
-6 -10 11 7.5 1.16
10 -11 -6 6.7 0.97
11 -6 -10 5.67 1.01
10 -11 -6 5.59 0.87
6 -10 -11 6.54 0.89
7 10 -11 10.59 0.9
-11 -7 -10 9.86 1.29
10 11 -7 8.42 1.07
10 -11 7 8.75 1.03
10 11 -7 7.15 0.95
-10 -11 -7 9.72 1.1
11 7 -10 8.62 1.17
-7 -10 -11 6.14 1.02
11 7 -10 8.65 1.04
7 -10 11 10.09 1.24
7 -10 -11 8.35 1.16
7 -10 -11 9.12 1.03
11 -7 -10 8.36 1.14
10 -11 -7 9.05 1.15
10 -11 -7 10.61 1.09
-11 -7 10 8.95 1.15
-10 -11 7 9.71 1.34
11 -7 -10 9.29 1.05
-7 -10 11 9.74 1.33
10 -11 8 1.22 0.66
-8 -10 -11 -0.29 0.84
8 10 -11 1.98 0.62
11 8 -10 0.66 0.82
-11 -8 -10 2.33 0.85
11 8 -10 -0.87 0.65
-10 -11 -8 -0.2 0.81
10 11 -8 1.14 0.75
10 11 -8 1.61 0.73
8 10 -11 0.63 0.75
8 -10 11 0.92 0.79
8 -10 -11 1.33 0.74
8 -10 -11 2.06 0.97
11 -8 -10 2.1 0.85
-8 -10 11 1.94 0.97
10 -11 -8 2.01 0.85
10 -11 -8 1.22 0.74
11 -8 -10 0.28 0.67
-11 -8 10 1.55 0.88
-11 -9 -10 7.41 1.15
11 9 -10 6.99 1.07
9 -10 11 7.8 1.02
9 10 -11 7.39 1.13
9 10 -11 7.36 1.02
10 11 -9 8.24 1.07
-10 -11 -9 11.57 1.4
10 -11 9 7.69 1.1
10 11 -9 8.09 1.03
11 -9 10 9.07 1.16
11 9 -10 8.28 1.14
-9 -10 -11 7.99 1.22
10 -11 -9 8.02 1.12
11 -9 -10 7.58 0.95
11 -9 -10 7.21 1.14
-9 -10 11 6.56 1.17
9 -10 -11 8.15 1.16
-11 -9 10 6.69 1.12
10 -11 -9 8.3 1.09
-10 -11 9 6.14 1.12
9 -10 -11 7.63 1.05
-11 -10 -10 0.03 0.97
10 10 -11 0.06 0.71
-10 -11 -10 0.67 0.9
11 10 -10 0.8 0.85
-10 -10 -11 0.08 1
10 -10 11 0.53 0.74
11 -10 10 1.42 0.65
10 11 -10 0.91 0.75
10 -11 10 0.96 0.78
11 10 -10 1.18 0.75
10 11 -10 0.3 0.78
10 10 -11 0.83 0.97
-10 -10 11 1.57 1.04
-11 -10 10 0.53 0.99
10 -10 -11 1.3 0.89
10 -11 -10 -1.15 0.84
11 -10 -10 2.16 1.05
11 -10 -10 -0.5 0.79
10 -11 -10 -0.42 0.91
-10 -11 10 0.22 1.03
10 -10 -11 0.31 0.88
-11 -11 0 245.21 7.11
-11 0 11 236.77 7.21
0 -11 -11 226.39 7.38
0 -11 11 227.29 7.39
11 -11 0 231.81 7.25
11 -11 0 232.81 6.8
11 0 -11 224.27 7.21
11 0 -11 237.24 6.78
11 0 -11 231.16 7.18
11 11 0 233.52 7.22
-11 -11 -1 15.27 1.25
11 1 -11 14.83 1.34
11 1 -11 17.08 1
-11 1 11 13.39 1.31
-1 -11 -11 14.82 1.54
11 -11 1 14.94 0.94
11 -11 1 14.76 1.43
11 1 -11 14.78 1.11
1 -11 11 16.47 1.62
1 11 -11 17.63 0.93
11 11 -1 17.45 1.21
11 -11 -1 16.32 1.01
1 -11 -11 15.73 0.95
-1 -11 11 17.31 1.5
11 -11 -1 15.54 1.36
11 -1 -11 15.55 0.97
11 -1 -11 14.77 1.16
-11 -11 1 18.23 1.3
-11 -1 11 16.41 1.36
1 -11 -11 16.46 1.49
11 -1 -11 16.51 1.44
11 11 1 15.65 1.21
-11 -11 -2 4.45 0.84
11 2 -11 4.2 0.87
11 2 -11 4.42 0.72
-11 2 11 4.34 0.9
-2 -11 -11 3.92 1.01
11 2 -11 3.32 0.93
11 -11 2 4.09 0.94
11 11 -2 3.74 0.84
2 -11 11 4.42 0.98
2 11 -11 4.31 0.6
11 -11 2 4.57 0.6
11 -11 -2 4.24 0.64
2 -11 -11 4.56 0.65
11 -11 -2 4.65 0.93
11 -2 -11 4.16 0.89
11 -2 -11 4.49 0.63
-2 -11 11 4.11 1.12
-11 -11 2 5.11 0.87
-11 -2 11 4.51 0.89
2 -11 -11 4.65 0.99
11 11 2 3.11 0.79
-11 -11 -3 49.26 1.99
11 3 -11 42.22 1.97
-11 3 11 45.32 2.12
-3 -11 -11 43.7 2.2
11 3 -11 45.79 1.91
11 -11 3 41.59 2.09
11 11 -3 44.4 1.76
3 -11 11 44.03 2.19
3 11 -11 43.89 1.71
11 3 -11 41.95 2.13
11 11 -3 43.82 1.99
11 -11 3 41.84 1.63
3 -11 -11 44.26 1.76
11 -11 -3 45.34 1.74
11 -3 -11 47.21 1.76
11 -11 -3 43.19 2.12
-3 -11 11 43.65 2.25
-11 -3 11 43.3 2.07
3 -11 -11 43.58 2.33
11 -3 -11 42.85 2.15
11 11 3 44.52 2.06
-11 -11 -4 0.61 0.75
11 11 -4 0.81 0.66
11 11 -4 0.73 0.63
-4 -11 -11 1.47 0.87
11 4 -11 -0.06 0.55
11 -11 4 -0.55 0.49
11 4 -11 1.03 0.79
4 -11 11 0.04 0.89
4 11 -11 0.24 0.48
11 4 -11 -0.15 0.5
11 -11 -4 0.15 0.55
4 -11 -11 -0.19 0.57
11 -4 -11 -0.9 0.76
11 -4 -11 0.18 0.58
4 -11 -11 -0.43 0.81
11 -11 -4 0.47 0.81
-4 -11 11 0.72 0.84
-11 -11 4 0.7 0.73
-11 -4 11 2.27 0.86
11 11 4 -0.38 0.68
11 5 -11 160.56 5.41
-11 -5 -11 148.4 5.55
11 11 -5 164.71 5.42
-5 -11 -11 164.13 5.57
11 5 -11 171.53 4.94
11 11 -5 166.6 5.12
11 5 -11 166.1 5.4
5 -11 11 164.9 5.53
5 11 -11 168.54 5.19
11 -11 5 167.35 4.96
11 -11 -5 168.1 5.11
11 -11 -5 173.34 5.5
11 -5 -11 163.84 5.47
11 -5 -11 169.13 5.11
5 -11 -11 169.15 5.62
-5 -11 11 168.47 5.67
-11 -11 5 166.21 5.38
5 -11 -11 170.05 5.2
-11 -5 11 164.98 5.44
11 11 5 167.01 5.47
-11 -11 -6 111.71 3.89
11 6 -11 111.05 3.95
-11 -6 -11 109.06 3.87
11 11 -6 115.89 3.98
-6 -11 -11 113.63 4.08
11 6 -11 116.75 3.48
11 11 -6 110.06 3.7
11 6 -11 108.03 3.92
6 -11 11 112.39 4.04
6 11 -11 116.05 3.77
11 -11 6 111.74 3.5
11 -11 -6 107.11 3.66
11 -11 -6 113.82 4.01
11 -6 -11 108.42 3.97
11 -6 -11 115.19 3.7
6 -11 -11 111.77 4.16
-6 -11 11 113.9 4.21
-11 -11 6 112.78 3.99
6 -11 -11 116.59 3.81
-11 -6 11 118.01 4.06
11 11 6 106.8 3.93
-11 -11 -7 -0.61 0.83
11 7 -11 0.1 0.71
-11 -7 -11 0.7 0.85
11 11 -7 0.96 0.69
-7 -11 -11 1.65 0.93
11 7 -11 1.55 0.58
11 11 -7 0.38 0.73
11 7 -11 -0.01 0.82
7 -11 11 0.53 0.85
7 11 -11 0.45 0.54
11 -11 7 0.89 0.59
11 -11 -7 1.44 0.73
11 -11 -7 0.71 0.85
11 -7 -11 0.78 0.84
11 -7 -11 1.68 0.73
7 -11 -11 2.38 0.99
-7 -11 11 1.97 1.03
-11 -11 7 1.79 0.87
7 -11 -11 -0.11 0.68
-11 -7 11 0.2 0.9
-11 -11 -8 17.65 1.69
11 8 -11 22.29 1.58
-11 -8 -11 25.16 1.81
11 11 -8 21.23 1.53
-8 -11 -11 20.83 1.76
11 8 -11 21.01 1.68
11 11 -8 20.49 1.5
11 -11 8 19.57 1.2
8 -11 11 19.01 1.53
8 11 -11 20 1.6
8 11 -11 19.06 1.35
11 -11 -8 21.37 1.58
11 -11 -8 20.21 1.4
8 -11 -11 22.07 1.78
11 -8 -11 20.75 1.74
11 -8 -11 21.27 1.46
-8 -11 11 23.05 1.95
-11 -11 8 20.38 1.7
8 -11 -11 21.7 1.55
-11 -8 11 18.58 1.77
-11 -11 -9 0.71 0.96
11 9 -11 -0.34 0.69
-11 -9 -11 -0.85 0.95
11 11 -9 1.31 0.77
-9 -11 -11 -0.12 0.95
11 9 -11 -0.05 0.94
11 11 -9 -0.49 0.79
11 -11 9 -0.07 0.65
9 -11 11 0.18 0.86
9 11 -11 0.06 0.9
9 11 -11 0.58 0.7
11 -11 -9 -0.65 0.96
11 -11 -9 0.51 0.8
9 -11 -11 0.37 0.95
11 -9 -11 0.89 1.09
11 -9 -11 -0.47 0.78
-9 -11 11 -0.2 1.04
-11 -11 9 -0.21 1.04
9 -11 -11 0.17 0.9
-11 -9 11 0.89 0.98
-11 -11 -10 12.25 1.68
10 -11 11 11.79 1.32
-11 -10 -11 11.35 1.64
11 11 -10 13.61 1.57
-10 -11 -11 10.64 1.36
11 11 -10 13.39 1.48
11 10 -11 12.47 1.47
11 -11 10 12.99 1.33
10 11 -11 12.56 1.28
11 -11 -10 11.76 1.42
11 -11 -10 14.55 1.42
-11 -11 10 18.66 1.86
11 -10 -11 12.21 1.47
11 -10 -11 12.05 1.43
10 -11 -11 12.98 1.61
-11 -10 11 13.45 1.53
-10 -11 11 13.18 1.78
11 11 -11 151.87 5.11
11 -11 -11 157.05 5.19
11 -11 -11 154.14 5.01
-11 -11 11 145.47 5.38
0 -12 0 4.86 0.72
0 0 12 6.9 0.96
12 0 0 5.93 0.8
12 0 0 4.94 0.6
12 1 0 24.81 1.13
12 -1 0 26.67 1.13
12 1 0 25.94 1.2
1 0 12 24.44 1.43
-1 0 12 24.77 1.36
0 -12 -1 25.13 1.34
0 -12 1 22.45 1.3
12 -1 0 24.63 1.21
0 -12 2 17 1.14
-2 0 12 15.85 1.14
0 -12 -2 16.55 1.17
-12 -2 0 17.14 0.58
2 0 12 16.93 1.14
12 -2 0 17.62 1.03
12 -2 0 16.35 0.99
12 2 0 17.64 0.94
0 12 -2 17.2 0.83
3 0 -12 3.1 0.52
12 -3 0 2.86 0.59
12 -3 0 3.16 0.49
12 3 0 3.31 0.52
0 12 -3 2.53 0.43
3 0 12 2.47 0.64
0 -12 -3 2.5 0.65
0 -12 3 2.45 0.66
-12 -3 0 2.51 0.3
-3 0 12 2.64 0.66
-4 0 12 47.9 2.02
12 4 0 48.7 1.86
12 -4 0 46.75 1.66
12 4 0 46.6 1.69
4 0 12 45.33 1.91
12 -4 0 47.78 1.93
0 -12 4 42.74 2.03
-12 -4 0 46.74 1.51
0 12 -4 46.44 1.62
4 0 -12 46.39 1.85
0 -12 -4 46.58 2.03
0 -12 5 0.07 0.56
0 -12 -5 -0.19 0.58
-12 -5 0 -0.17 0.36
12 5 0 -0.75 0.44
-5 0 12 -0.21 0.56
0 12 -5 0.34 0.35
12 5 0 0.02 0.46
5 0 12 -0.7 0.54
12 -5 0 -0.39 0.56
12 -5 0 -0.4 0.38
5 0 -12 -1.14 0.44
12 -6 0 13.19 1.17
-6 0 12 14.43 1.2
12 -6 0 13.59 0.8
12 6 0 12.99 0.98
0 -12 6 13.64 1.2
0 12 -6 14.76 0.76
6 0 12 15.69 1.05
6 0 -12 13.11 1.03
0 -12 -6 11.73 0.75
0 -12 -6 14.06 1.19
-12 -6 0 12.87 0.82
12 -7 0 50.52 1.68
12 -7 0 49.65 2.07
7 0 -12 46.48 2.03
0 -12 -7 45.94 2.16
-7 0 12 48.26 2.09
7 0 -12 49.41 2.05
-12 -7 0 47.54 1.75
0 -12 7 47.41 2.15
12 7 0 48.16 1.97
12 7 0 49.19 1.75
0 -12 -7 47.73 1.62
0 12 -7 46.37 1.64
12 -8 0 0.42 0.71
8 0 -12 0.11 0.65
8 0 -12 -0.1 0.62
12 8 0 0.29 0.48
12 8 0 0.81 0.65
0 12 -8 1.68 0.41
0 -12 8 0.72 0.78
-8 0 12 0.34 0.69
0 -12 -8 1.36 0.76
-12 -8 0 1.06 0.57
12 9 0 10.97 1.03
9 0 -12 10.56 1.25
12 -9 0 11.28 1.2
-12 -9 0 14.96 1.06
0 -12 9 10.9 1.27
0 -12 -9 11.15 1.39
9 0 -12 12.04 1.11
-9 0 12 12.8 1.17
12 10 0 4.77 0.84
-10 0 12 4.38 0.88
0 -12 -10 4.96 1.12
10 0 -12 2.85 0.89
12 -10 0 2.93 0.94
10 0 -12 4.34 0.75
0 -12 10 3.8 1.09
-12 -10 0 4.83 0.8
10 0 -12 3.26 0.71
11 0 -12 1.54 0.61
0 -12 -11 0.95 0.87
11 0 -12 0.36 0.82
11 0 -12 0.6 0.64
12 11 0 0.71 0.63
12 -11 0 0.04 0.82
-12 -11 0 1.47 0.76
0 -12 11 0.43 0.85
-11 0 12 1.46 0.81
12 0 1 26.58 1.2
12 0 -1 23.67 1.19
12 0 1 24.52 1.12
0 1 12 25.99 1.39
12 0 -1 24.27 1.18
-1 -12 0 25.48 1.34
0 -1 12 27.41 1.48
1 12 0 24.75 1.11
1 -12 0 24.13 1.34
-1 -12 -1 7.07 0.81
-1 1 12 6.51 0.84
1 12 -1 5.77 0.56
1 -12 1 6.18 0.81
12 1 -1 5.27 0.63
12 1 -1 5.54 0.67
12 -1 1 6.65 0.71
1 -1 12 5.7 0.83
12 -1 1 6.07 0.63
1 1 12 5.24 0.8
12 -1 -1 4.9 0.61
-1 -1 12 6.04 0.84
-12 -1 1 5.49 0.41
12 -1 -1 6.47 0.75
12 1 1 5.65 0.64
1 -12 -1 5.97 0.81
12 1 1 6.12 0.7
-1 -12 1 7.21 0.82
2 -1 12 15.91 1.12
-1 -12 -2 16.17 1.08
1 12 -2 13.83 0.89
1 -12 2 15.68 1.1
12 -2 1 15.75 0.96
12 -2 1 15.54 0.86
-12 -2 -1 13.02 0.5
12 2 -1 17.75 0.95
-2 1 12 14.59 1.12
-1 -12 2 14.93 1.04
1 -12 -2 14.94 1.11
-12 -2 1 14.73 0.62
2 -1 -12 16.33 0.9
2 1 12 16.59 1.2
12 2 1 15.2 0.88
-2 -1 12 16.77 1.13
12 2 1 16.29 0.93
12 -2 -1 14.4 1.02
12 -2 -1 15.09 0.85
-3 1 12 13.55 1.07
1 -12 3 12.08 1.12
12 -3 1 14.41 1.04
12 -3 1 14.29 0.79
3 -1 12 13.5 1.05
12 3 -1 13.77 0.89
-1 -12 -3 13.12 1.05
-12 -3 -1 12.72 0.56
1 12 -3 14.8 0.78
12 -3 -1 13.08 0.98
12 -3 -1 12.74 0.79
-12 -3 1 14.52 0.86
12 3 1 14.76 0.87
3 1 12 11.79 1.11
3 -1 -12 11.99 0.86
1 -12 -3 12.51 1.08
-1 -12 3 12.4 1.03
-3 -1 12 12.26 1.03
1 12 -4 24.44 1.07
12 -4 1 23.72 1.3
4 -1 12 28.34 1.44
-12 -4 -1 24.21 0.93
12 4 -1 25.16 1.17
12 -4 1 27.34 1.09
-1 -12 -4 24.37 1.4
12 4 -1 23.76 1.2
1 -12 4 23.64 1.4
4 1 -12 25.45 1.25
-4 1 12 24.8 1.42
-1 12 -4 26.26 1.03
-1 -12 4 25.35 1.45
4 -1 -12 26.27 1.24
-4 -1 12 25.21 1.4
12 -4 -1 26.44 1.34
1 -12 -4 26.95 1.48
12 4 1 24.77 1.22
4 1 12 28.09 1.43
1 -12 -4 22.43 1.16
-12 -4 1 24.87 0.99
12 -5 1 16.71 1.14
1 12 -5 16.46 0.84
5 1 -12 17.46 1.1
-5 1 12 17.22 1.23
12 5 -1 16.81 0.97
1 -12 5 17.69 1.26
12 5 -1 17.31 1.02
12 -5 1 18.44 0.88
5 -1 12 16.95 1.18
-1 -12 -5 18.02 1.31
-1 12 -5 18.81 0.83
12 -5 -1 17.74 0.92
-5 -1 12 15.28 1.17
12 5 1 17.72 1.04
5 1 12 17.16 1.16
12 -5 -1 16.75 1.2
1 -12 -5 17.43 1.27
-1 -12 5 17.94 1.23
1 -12 -5 18.14 0.88
5 -1 -12 18.65 1.11
12 5 1 17.44 0.99
-12 -5 1 16.57 0.86
1 -12 6 46.57 2.1
-1 -12 -6 47.92 2.15
6 -1 12 47.02 1.93
-12 -6 -1 46.33 1.63
6 1 -12 46.19 1.94
12 -6 1 48.78 1.63
12 6 -1 45.55 1.72
12 6 -1 46.46 1.91
12 -6 1 47.37 2
1 12 -6 47.05 1.65
-6 1 12 49.36 2.07
12 6 1 48.22 1.69
-12 -6 1 46.7 1.68
6 -1 -12 48.34 2.04
1 -12 -6 47.77 1.65
-1 -12 6 46.04 2.08
6 -1 -12 47.32 1.96
12 6 1 45.36 1.91
12 -6 -1 45.57 1.98
-6 -1 12 45.41 2.06
1 -12 -6 47.6 2.12
12 -6 -1 46.94 1.68
-1 12 -6 45.65 1.57
7 1 -12 5 0.81
7 -1 12 4.75 0.7
12 7 -1 4.83 0.62
1 -12 7 4.85 0.89
1 12 -7 4.73 0.59
12 -7 1 5.17 0.86
12 7 -1 4.98 0.74
-12 -7 -1 5.07 0.72
-7 1 12 5.06 0.84
-1 -12 -7 3.52 0.84
12 7 1 6.54 0.89
7 -1 -12 4.58 0.8
12 7 1 5.58 0.75
12 -7 -1 3.73 0.8
12 -7 -1 5.21 0.64
-12 -7 1 5.7 0.65
1 -12 -7 5.31 0.69
1 -12 -7 3.78 0.85
-7 -1 12 5.65 0.86
7 -1 -12 4.8 0.79
-1 -12 7 3.83 0.85
12 8 -1 53.85 2.18
8 1 -12 51.53 2.23
-1 -12 -8 52.71 2.38
8 1 -12 57.9 2.24
1 -12 8 53.22 2.39
12 8 -1 55.22 1.94
12 -8 1 52.26 2.29
-8 1 12 53.47 2.28
-12 -8 -1 54.54 2.02
8 -1 -12 54.47 2.28
1 -12 -8 54.39 2.41
8 -1 -12 55.01 2.22
-12 -8 1 56.87 2.04
12 -8 -1 55.17 2.34
12 -8 -1 56.64 1.89
12 8 1 55.66 2.18
-8 -1 12 54.19 2.28
-1 -12 8 55.95 2.49
9 1 -12 9.55 1.12
1 12 -9 6.8 0.7
9 1 -12 6.65 0.8
1 -12 9 7.53 1.15
-1 -12 -9 11.18 1.24
12 9 -1 8.53 0.96
12 -9 1 9.59 1.25
-12 -9 -1 8.79 0.99
-9 1 12 9.12 1.18
9 1 -12 7.92 0.89
-9 -1 12 9.18 1.22
12 -9 -1 7.51 1.04
-12 -9 1 9.56 1.01
1 -12 -9 7.27 1.12
-1 -12 9 9.07 1.21
12 9 1 6.79 0.9
9 -1 -12 7.82 1.01
9 -1 -12 8.92 1.07
1 -12 -9 7.8 0.87
1 -12 10 15.29 1.43
-10 1 12 12.6 1.35
-1 -12 -10 13.97 1.4
12 10 -1 12.22 1.13
1 12 -10 14.54 0.88
10 1 -12 12.26 1.04
10 1 -12 15.11 1.11
10 1 -12 11.61 1.39
-12 -10 -1 16.46 1.23
12 -10 1 13.78 1.45
1 -12 -10 13.52 1.44
-10 -1 12 14.34 1.42
-1 -12 10 13.99 1.56
10 -1 -12 13.85 1.32
12 -10 -1 13.26 1.41
-12 -10 1 15.07 1.23
12 10 1 14.45 1.16
10 -1 -12 15.34 1.15
11 1 -12 8.02 0.93
1 12 -11 11.04 1.19
-12 -11 -1 8.85 1.21
11 1 -12 9.1 1.16
11 1 -12 10.09 1.03
12 -11 1 9.99 1.39
12 11 -1 10.18 1.14
1 -12 11 8.45 1.22
-11 1 12 10 1.31
-1 -12 -11 10.48 1.38
12 11 1 8.41 1.05
11 -1 -12 7.94 1.15
11 -1 -12 9.19 0.96
-11 -1 12 10.47 1.35
1 -12 -11 11.61 1.44
12 -11 -1 7.92 1.14
12 -11 -1 10.15 0.68
-1 -12 11 7.09 1.21
-12 -11 1 10.47 1.21
11 -1 -12 8.85 1.03
2 12 0 16.56 0.91
-12 0 2 18.89 0.77
12 0 -2 16.37 1.03
12 0 2 18.53 1.02
12 0 2 18.63 0.96
0 -2 12 18.09 1.2
0 2 12 18.86 1.21
2 -12 0 16.76 1.15
0 -2 -12 18.29 0.92
-2 -12 0 17.72 1.13
12 0 -2 17.09 0.96
2 12 -1 13.91 0.79
12 -1 2 15.36 0.97
12 -1 2 13.8 0.92
12 1 -2 13.71 0.95
-1 2 12 15.48 1.2
1 -2 12 14.93 1.18
-2 -12 -1 14.53 1.03
2 -12 1 14.04 1.08
2 -12 -1 14.22 1.09
-12 -1 2 15.69 0.68
1 -2 -12 14.99 0.87
-2 -12 1 15.31 1.13
2 12 1 14.46 0.86
12 -1 -2 14.22 0.86
-1 -2 12 16.13 1.15
12 1 2 14.87 0.93
12 1 2 15.03 0.88
1 2 12 14.3 1.08
12 -1 -2 15.66 1.03
2 -12 2 20.23 1.28
2 12 -2 21.77 1.02
12 -2 2 23.66 1.17
12 2 -2 23.22 1.16
12 -2 2 23.05 1.02
-2 2 12 22.45 1.35
-2 -12 -2 22.45 1.26
-12 -2 -2 20.09 0.91
2 -2 12 22.67 1.33
-2 -2 12 20.5 1.29
12 2 2 22.46 1.08
2 -2 -12 23.55 1.13
12 -2 -2 21.04 1.04
12 -2 -2 23.66 1.24
12 2 2 23.15 1.09
-2 -12 2 22.32 1.27
-12 -2 2 22.01 0.86
2 2 12 23.43 1.31
2 -12 -2 21.73 1.3
2 -12 -2 22.51 1.04
-2 -12 -3 7.32 0.86
12 -3 2 7.49 0.65
2 -12 3 5.67 0.87
2 12 -3 5.93 0.59
12 3 -2 6.55 0.73
3 -2 12 6.37 0.89
-3 2 12 5.99 0.86
12 3 -2 8.06 0.76
12 -3 2 7.42 0.81
-12 -3 -2 6.71 0.44
-3 -2 12 6.01 0.8
2 -12 -3 6.18 0.64
2 -12 -3 5.59 0.8
-2 -12 3 7.5 0.87
-12 -3 2 6.3 0.52
3 -2 -12 6.7 0.73
12 -3 -2 7.1 0.84
12 3 2 6.69 0.81
3 2 12 6.31 0.88
12 -3 -2 5.4 0.62
2 -12 4 3.99 0.76
12 -4 2 4.54 0.71
2 12 -4 3.81 0.53
4 -2 12 4.02 0.74
-2 -12 -4 3.79 0.71
-12 -4 -2 3.87 0.48
12 -4 2 4.85 0.6
-4 2 12 3.75 0.76
12 4 -2 4.58 0.63
12 4 -2 3.75 0.6
12 -4 -2 4.18 0.57
12 4 2 5.26 0.7
2 -12 -4 4.55 0.79
4 2 12 3.17 0.67
4 -2 -12 4.57 0.64
-12 -4 2 4.24 0.47
12 4 2 4.7 0.63
-2 -12 4 4.65 0.75
2 -12 -4 4.85 0.55
12 -4 -2 4.32 0.72
-4 -2 12 4.11 0.77
-5 2 12 1.62 0.65
-12 -5 -2 1.48 0.41
12 -5 2 2.44 0.68
2 -12 5 1.37 0.68
5 -2 12 1.56 0.63
-2 -12 -5 2.56 0.69
12 5 -2 1.81 0.54
5 2 -12 1.77 0.61
12 -5 2 2.35 0.46
12 5 -2 2.41 0.54
2 12 -5 1.91 0.42
5 -2 -12 1.44 0.69
-2 -12 5 2.38 0.66
2 -12 -5 2.02 0.68
12 -5 -2 1.93 0.46
12 -5 -2 1.54 0.64
2 -12 -5 2.1 0.43
12 5 2 2.09 0.51
-12 -5 2 2.13 0.45
5 -2 -12 1.84 0.52
-5 -2 12 1.6 0.68
12 5 2 2.13 0.56
12 6 -2 5.86 0.73
-6 2 12 6.11 0.85
2 -12 6 7.53 1
12 6 -2 5.95 0.78
-2 -12 -6 5.93 0.97
6 -2 12 6.33 0.82
2 12 -6 6.32 0.58
12 -6 2 6.26 0.83
6 2 -12 6.03 0.83
-12 -6 -2 5.55 0.68
12 -6 -2 8.38 0.66
12 6 2 6.02 0.63
2 -12 -6 6.44 0.67
6 -2 -12 7.27 0.86
6 -2 -12 5.93 0.87
-6 -2 12 5.97 0.84
12 -6 -2 7.52 0.96
-12 -6 2 7.18 0.74
12 6 2 6.05 0.74
2 -12 -6 6.1 0.92
-2 -12 6 5.62 0.84
-7 2 12 2.48 0.68
2 -12 7 3.08 0.83
2 12 -7 3.58 0.5
7 2 -12 3.11 0.72
-2 -12 -7 3.27 0.81
7 -2 12 3.78 0.68
12 -7 2 3.07 0.8
12 7 -2 2.59 0.61
12 7 -2 3 0.63
12 -7 -2 3.46 0.53
2 -12 -7 3.65 0.84
-2 -12 7 3.18 0.81
12 -7 -2 3.46 0.75
-12 -7 2 3.57 0.6
12 7 2 3.17 0.65
7 -2 -12 2.99 0.72
7 -2 -12 3.78 0.81
-7 -2 12 3.92 0.75
2 -12 -7 4.03 0.51
2 12 -8 21.02 0.99
2 -12 8 21.2 1.57
8 2 -12 21.21 1.17
8 2 -12 22.01 1.38
12 8 -2 20.27 1.24
-12 -8 -2 22.47 1.19
12 -8 2 21.37 1.41
8 -2 12 21.47 1.19
-2 -12 -8 17.89 1.41
12 8 -2 21.82 1.16
-8 2 12 21 1.39
12 -8 -2 21.55 1.06
8 -2 -12 21.42 1.35
12 -8 -2 20.73 1.48
-2 -12 8 19.36 1.46
2 -12 -8 20.71 1.05
-12 -8 2 20.8 1.22
-8 -2 12 21.14 1.45
8 -2 -12 21.86 1.42
2 -12 -8 21.05 1.52
12 8 2 22.4 1.25
9 2 -12 42.52 1.9
-2 -12 -9 44.4 2.27
2 -12 9 44.67 2.19
12 9 -2 47.19 2.01
9 2 -12 43.73 2.05
9 2 -12 46.71 1.93
-12 -9 -2 48.73 1.88
12 9 -2 46.1 1.76
12 -9 2 45.28 2.12
-9 2 12 45.05 2.15
2 12 -9 45.35 1.68
-9 -2 12 44.04 2.06
12 -9 -2 44.51 2.11
2 -12 -9 46.09 1.7
2 -12 -9 45.03 2.23
9 -2 -12 43.01 2.03
12 -9 -2 44.42 1.69
-12 -9 2 48.12 1.92
12 9 2 45.28 1.97
-2 -12 9 45.48 2.28
9 -2 -12 47.24 2
10 2 -12 -0.19 0.62
12 -10 2 0.86 0.82
-10 2 12 -0.54 0.77
2 12 -10 0.62 0.48
10 2 -12 0.14 0.55
10 2 -12 0.06 0.79
12 10 -2 0.45 0.66
-2 -12 -10 0.34 0.85
12 10 -2 1.43 0.67
-12 -10 -2 0.87 0.71
2 -12 10 0.14 0.88
-2 -12 10 -0.34 0.82
-12 -10 2 0.81 0.68
12 -10 -2 0.4 0.78
2 -12 -10 0.12 0.81
10 -2 -12 0.26 0.76
10 -2 -12 -0.02 0.62
12 10 2 1.24 0.67
-10 -2 12 0.68 0.74
2 -12 -10 0.11 0.54
12 -11 2 2.55 0.96
12 11 -2 1.39 0.78
-11 2 12 2.62 0.97
11 2 -12 2.48 0.64
-2 -12 -11 1.24 0.98
2 -12 11 3.41 1.11
2 12 -11 1.82 0.54
-12 -11 -2 2.27 0.86
11 2 -12 3.53 0.64
11 2 -12 3.24 0.94
-11 -2 12 3.28 0.99
11 -2 -12 2.31 0.87
-12 -11 2 3.27 0.84
-2 -12 11 1.52 0.93
11 -2 -12 3.68 0.68
12 -11 -2 1.71 0.91
2 -12 -11 1.21 0.89
2 -12 -11 3.42 0.66
12 11 2 1.79 0.82
3 -12 0 3.22 0.66
3 12 0 3.12 0.47
-3 -12 0 1.97 0.57
12 0 3 3.09 0.51
0 3 12 2.09 0.72
-12 0 3 2.99 0.4
12 0 3 2.29 0.53
12 0 -3 1.98 0.57
0 -3 12 2.69 0.67
0 -3 -12 3.63 0.5
3 12 -1 13.55 0.82
1 -3 12 12.4 1.06
-1 3 12 13.68 1.08
-1 -3 -12 13.33 0.8
-12 1 3 12.9 0.75
12 -1 3 12.62 0.8
3 -12 1 12.46 1.02
-3 -12 -1 11.93 0.96
12 -1 3 13.15 0.92
12 1 -3 12.55 0.89
3 12 1 12.31 0.84
-3 -12 1 12.13 1
1 3 12 13.71 1.07
3 -12 -1 13.59 0.84
1 -3 -12 13.44 0.84
12 1 3 13.01 0.87
12 -1 -3 13.45 1
-12 -1 3 13.02 0.7
12 1 3 12.33 0.82
-1 -3 12 12.65 1.1
3 -12 -1 14.58 1.07
-12 -2 -3 6.39 0.46
12 -2 3 6.37 0.73
-3 -12 -2 6.48 0.8
12 2 -3 6.35 0.74
3 -12 2 5.82 0.85
12 -2 3 5.4 0.62
3 12 -2 6.33 0.61
-2 3 12 7.57 1.05
2 -3 12 6.06 0.83
12 2 -3 6.53 0.67
-12 -2 3 6.04 0.56
12 -2 -3 5.83 0.8
-2 -3 12 6.96 0.91
12 2 3 6.62 0.73
12 2 3 6.47 0.7
3 -12 -2 6.28 0.87
3 -12 -2 5.64 0.65
-3 -12 2 7.21 0.9
3 12 2 6.69 0.67
2 -3 -12 5.47 0.63
12 -2 -3 5.31 0.64
2 3 12 7.57 0.99
3 12 -3 13 0.79
12 3 -3 13.74 0.97
3 -12 3 15.96 1.14
-12 -3 -3 13.39 0.66
-3 3 12 14.16 1.12
-3 -12 -3 13.29 1.11
3 -3 12 15.24 1.12
12 3 -3 13.97 0.91
12 -3 3 16.75 1.06
12 -3 3 15.1 0.82
12 -3 -3 14.51 1.03
12 3 3 14.08 0.88
3 -12 -3 13.6 1.12
-3 -3 12 16.52 1.14
-12 -3 3 13.84 0.76
3 -3 -12 13.41 0.91
12 -3 -3 15.07 0.84
3 -12 -3 14.96 0.84
3 -3 -12 13.59 1.17
-3 -12 3 14.47 1.06
12 4 -3 34.38 1.53
12 -4 3 34.55 1.57
-3 -12 -4 37.23 1.73
3 12 -4 31.47 1.34
3 -12 4 32.31 1.65
4 -3 12 36.64 1.71
-4 3 12 33.25 1.68
12 4 -3 35.04 1.46
12 -4 3 35.71 1.29
-12 -4 -3 32.36 1.19
4 -3 -12 34.13 1.67
3 -12 -4 33.65 1.7
12 -4 -3 34.94 1.75
12 -4 -3 32.41 1.35
12 4 3 34.3 1.33
12 4 3 34.12 1.47
3 -12 -4 33.19 1.37
4 -3 -12 33.97 1.45
-12 -4 3 33.81 1.29
-3 -12 4 31.59 1.66
-4 -3 12 33.83 1.67
5 -3 12 14.39 1.16
-12 -5 -3 15.61 0.8
3 -12 5 12.12 1.12
3 12 -5 13.76 0.81
12 -5 3 14.73 1.14
12 5 -3 14.27 0.97
-3 -12 -5 14.1 1.12
-5 3 12 11.22 1.09
5 3 -12 15.18 1.07
12 5 -3 13.1 0.93
3 -12 -5 14.56 0.86
-3 -12 5 12.6 1.1
12 -5 -3 13.85 0.82
-5 -3 12 15.08 1.26
-12 -5 3 13.82 0.86
12 5 3 13.73 0.82
5 -3 -12 14.69 1.02
3 -12 -5 14.77 1.21
12 -5 -3 13.45 1.2
5 -3 -12 13.91 1.12
12 5 3 14.16 0.96
12 6 -3 6.17 0.74
-6 3 12 6.06 0.92
12 6 -3 5.79 0.82
3 12 -6 4.69 0.6
-3 -12 -6 6.64 0.91
6 3 -12 5.45 0.83
12 -6 3 5.91 0.86
-12 -6 -3 5.11 0.7
3 -12 6 6.41 0.91
6 -3 12 6.05 0.83
-6 -3 12 6.91 0.94
12 6 3 6.47 0.79
6 -3 -12 6.09 0.85
12 -6 -3 7.54 1.01
12 -6 -3 6.4 0.65
6 -3 -12 5.9 0.92
3 -12 -6 7.22 0.68
3 -12 -6 5.67 0.95
-12 -6 3 8.83 0.76
-3 -12 6 5.95 0.86
-3 -12 -7 15.4 1.36
7 -3 12 12.61 1.07
-12 -7 -3 13.74 0.92
-7 3 12 13.45 1.16
3 -12 7 14.07 1.25
3 12 -7 12.92 0.82
12 7 -3 13.15 1.03
12 -7 3 13.25 1.24
7 3 -12 14.7 1.14
7 3 -12 11.88 0.9
12 7 -3 13.61 0.99
-12 -7 3 14.41 0.98
-3 -12 7 12.44 1.23
12 7 3 14.25 1
3 -12 -7 12.79 1.25
3 -12 -7 13.84 0.87
12 -7 -3 13.14 0.84
7 -3 -12 14.3 1.16
-7 -3 12 14.2 1.2
7 -3 -12 13.51 1.2
12 -7 -3 14.74 1.19
8 3 -12 0.18 0.67
3 -12 8 0.41 0.76
-8 3 12 -0.16 0.62
8 -3 12 0.08 0.53
12 8 -3 0.41 0.55
12 8 -3 -0.12 0.5
12 -8 3 0.33 0.69
8 3 -12 -0.34 0.42
-12 -8 -3 -0.74 0.85
-3 -12 -8 -0.87 0.75
3 12 -8 0.3 0.42
-12 -8 3 0.12 0.57
3 -12 -8 0.32 0.75
12 -8 -3 0.46 0.69
-3 -12 8 0.17 0.64
8 -3 -12 0.1 0.63
8 -3 -12 -0.37 0.58
-8 -3 12 0.54 0.68
12 8 3 1.02 0.52
3 -12 -8 0.19 0.47
12 -8 -3 -0.35 0.44
-12 -9 -3 11.61 1.09
3 -12 9 11.8 1.28
-9 3 12 11.27 1.29
-3 -12 -9 12.12 1.29
12 -9 3 12.19 1.32
9 3 -12 12.25 1.05
9 3 -12 11.2 1.19
9 3 -12 11.44 0.93
12 9 -3 11.1 1.03
12 9 -3 11.3 1.03
3 12 -9 12.11 0.84
-12 -9 3 13.31 1.13
12 9 3 10.95 1.07
12 -9 -3 11.26 0.86
3 -12 -9 12.05 1.33
-3 -12 9 10.39 1.28
12 -9 -3 11.07 1.36
3 -12 -9 9.75 0.91
9 -3 -12 10.87 1.18
9 -3 -12 11.5 1.18
-9 -3 12 11.86 1.17
3 -12 10 0.76 0.92
-12 -10 -3 1.93 0.75
10 3 -12 0.27 0.63
12 10 -3 0.51 0.65
-10 3 12 -0.02 0.78
12 -10 3 0.07 0.81
12 10 -3 0.56 0.66
-3 -12 -10 0.54 0.78
10 3 -12 0.97 0.78
10 3 -12 -0.04 0.6
3 12 -10 -0.11 0.47
12 -10 -3 1.22 0.55
10 -3 -12 2.31 0.71
-12 -10 3 1.37 0.78
3 -12 -10 0.26 0.83
3 -12 -10 -0.03 0.55
10 -3 -12 0.61 0.75
12 10 3 0.52 0.68
12 -10 -3 1.28 0.82
12 -10 -3 1.2 0.4
-3 -12 10 0.7 0.86
-10 -3 12 0.97 0.75
11 3 -12 0.9 0.85
12 -11 3 1.51 0.9
-12 -11 -3 1.3 0.84
11 3 -12 1.08 0.6
-3 -12 -11 0.62 0.86
3 -12 11 1.33 0.96
-11 3 12 0.84 0.83
12 11 -3 0.88 0.73
11 3 -12 0.88 0.65
3 12 -11 -0.16 0.5
12 11 -3 0.28 0.7
12 11 3 1.05 0.79
-11 -3 12 -0.04 0.84
3 -12 -11 0.73 0.93
12 -11 -3 1.09 0.59
12 -11 -3 -0.46 0.76
-3 -12 11 -1.03 0.86
3 -12 -11 0.07 0.6
11 -3 -12 -0.14 0.78
11 -3 -12 0.16 0.62
12 0 4 44.19 1.67
12 0 -4 45.87 1.83
0 4 12 50.13 2.04
12 0 4 45.67 1.72
4 -12 0 46.27 1.76
4 -12 0 44.6 1.95
0 -4 12 46.45 2.03
-12 0 4 43.7 1.61
4 12 0 43.41 1.73
0 -4 -12 46.22 1.67
-4 -12 0 47.47 1.93
4 -12 1 24.83 1.39
1 -4 12 24.34 1.43
-4 -12 -1 25.77 1.34
-12 1 4 25.1 1.1
12 1 -4 23.7 1.29
-1 -4 -12 26.85 1.1
12 -1 4 26.1 1.12
12 -1 4 25.83 1.25
12 1 -4 26.02 1.23
4 12 -1 25.22 1.19
-1 4 12 24.73 1.43
-12 -1 4 27.06 1.06
4 -12 -1 24.39 1.16
1 -4 -12 25.79 1.43
12 -1 -4 24.05 1.29
12 1 4 25.23 1.15
1 -4 -12 25.97 1.14
-4 -12 1 25.98 1.36
4 -12 -1 23.53 1.38
4 12 1 23.48 1.16
12 1 4 25.99 1.17
-1 -4 12 25.1 1.46
-4 -12 -2 4.14 0.7
4 -12 2 3.91 0.79
12 -2 4 4.32 0.59
12 2 -4 4.26 0.69
12 -2 4 3.95 0.65
2 -4 12 3.83 0.76
-2 4 12 3.81 0.77
12 2 -4 5.07 0.65
-2 -4 -12 4.69 0.59
4 12 -2 5.26 0.54
-4 -12 2 4.41 0.66
2 -4 -12 3.49 0.71
12 2 4 4.29 0.6
-2 -4 12 3.97 0.76
4 12 2 5.23 0.67
4 -12 -2 5.35 0.63
2 -4 -12 4.72 0.58
12 2 4 5.73 0.62
4 -12 -2 3.22 0.79
-12 -2 4 4.43 0.59
12 -2 -4 4.87 0.75
12 3 -4 34.36 1.5
3 -4 12 33.74 1.67
12 -3 4 32.96 1.55
4 12 -3 34.02 1.4
-3 4 12 33.87 1.71
-4 -12 -3 34.37 1.67
4 -12 3 35.07 1.73
12 3 -4 32.77 1.52
-12 -3 -4 32.52 1.2
12 -3 4 36.84 1.31
-4 -12 3 35.46 1.66
3 -4 -12 33.97 1.42
-3 -4 12 35.05 1.78
12 -3 -4 34.76 1.61
12 3 4 36.19 1.38
3 -4 -12 33.67 1.74
4 12 3 33.11 1.48
-12 -3 4 34.63 1.31
4 -12 -3 33.89 1.68
4 -12 -3 35.16 1.42
-4 -4 -12 0.8 0.38
4 12 -4 1.21 0.41
-4 4 12 0.36 0.57
-4 -12 -4 2.16 0.65
4 -12 4 0.58 0.59
12 -4 4 0.18 0.58
4 -4 12 0.08 0.6
12 4 -4 1.41 0.54
-12 -4 -4 1.65 0.4
12 4 -4 0.5 0.46
-12 -4 4 1.47 0.44
-4 -4 12 0.23 0.65
12 -4 -4 1.84 0.63
4 -12 -4 0.43 0.43
4 -12 -4 0.85 0.65
12 4 4 0.51 0.43
12 4 4 1.14 0.48
4 -4 -12 0.84 0.47
4 -4 -12 0.81 0.63
-4 -12 4 1.21 0.65
12 -5 4 14.91 1.1
-4 -12 -5 17.37 1.18
-5 4 12 15.51 1.23
12 5 -4 15.77 1
12 5 -4 14.63 1.02
4 -12 5 15.33 1.19
5 -4 12 14.91 1.11
4 12 -5 13.78 0.88
-12 -5 -4 15.93 0.88
5 4 -12 13.93 0.89
12 5 4 15.05 0.96
-4 -12 5 15.59 1.19
-12 -5 4 15.34 0.9
-5 -4 12 15.42 1.22
5 -4 -12 15.5 1.28
12 -5 -4 14.68 1.25
4 -12 -5 16.97 1.36
5 -4 -12 15.78 1.02
4 -12 -5 16.18 0.91
6 -4 12 26.24 1.42
4 -12 6 23.03 1.46
-6 4 12 27.03 1.61
6 4 -12 22.33 1.18
12 6 -4 22.83 1.24
-4 -12 -6 25.63 1.47
12 -6 4 22.01 1.37
6 4 -12 23.06 1.41
-12 -6 -4 25.87 1.14
12 6 -4 22.85 1.27
4 12 -6 23.18 1.12
-6 -4 12 25.66 1.47
4 -12 -6 23.53 1.61
12 6 4 25.37 1.32
-4 -12 6 22.62 1.45
6 -4 -12 25.57 1.46
12 -6 -4 23.46 1.5
4 -12 -6 23.53 1.17
-12 -6 4 24.61 1.19
6 -4 -12 24.84 1.35
7 -4 12 3.9 0.74
12 -7 4 3.82 0.8
-12 -7 -4 5.56 0.69
12 7 -4 3.72 0.7
7 4 -12 5.09 0.86
4 -12 7 4.22 0.92
-7 4 12 4.78 0.85
-4 -12 -7 4.55 0.82
12 7 -4 3.99 0.7
7 4 -12 4.73 0.66
4 12 -7 4.71 0.63
-7 -4 12 3.92 0.84
12 7 4 5.81 0.78
7 -4 -12 5.51 0.82
12 -7 -4 4.01 0.83
4 -12 -7 4.79 0.64
4 -12 -7 3.92 0.89
-12 -7 4 5.27 0.71
7 -4 -12 4.74 0.85
-4 -12 7 4.78 0.83
-8 4 12 25 1.54
12 -8 4 25.2 1.56
4 12 -8 24.25 1.18
8 -4 12 24.43 1.34
-12 -8 -4 24.92 1.3
12 8 -4 24.72 1.31
8 4 -12 23.19 1.48
12 8 -4 24.72 1.37
-4 -12 -8 23.97 1.52
4 -12 8 22.43 1.52
8 4 -12 27.09 1.34
-12 -8 4 26.62 1.38
12 8 4 22.91 1.35
12 -8 -4 24.91 1.52
-4 -12 8 22.71 1.58
-8 -4 12 23.6 1.62
4 -12 -8 23.8 1.23
4 -12 -8 26.31 1.74
8 -4 -12 25.05 1.52
8 -4 -12 26.17 1.52
12 -9 4 7.66 1.09
9 -4 12 10.77 0.95
-9 4 12 8.17 1.12
12 9 -4 7.7 0.93
4 12 -9 9.73 0.81
-12 -9 -4 10.62 1.1
9 4 -12 9.17 0.89
-4 -12 -9 8.77 1.15
9 4 -12 8.86 1.17
12 9 -4 7.15 0.99
4 -12 9 9.99 1.36
12 -9 -4 10.04 1.19
-12 -9 4 9.46 1
4 -12 -9 9.23 0.91
4 -12 -9 9.48 1.19
-9 -4 12 9.5 1.25
12 9 4 7.91 0.92
9 -4 -12 8.99 1.21
9 -4 -12 9.33 1.11
-4 -12 9 10.59 1.45
-4 -12 -10 26.3 1.82
4 -12 10 29.73 1.81
10 4 -12 28.47 1.79
-10 4 12 27.19 1.69
4 12 -10 28.74 1.31
10 4 -12 29.88 1.48
12 -10 4 27.9 1.78
10 4 -12 26.76 1.53
-12 -10 -4 26.6 1.61
12 10 -4 26.77 1.62
12 10 -4 28.18 1.45
4 -12 -10 25.75 1.93
4 -12 -10 29.33 1.4
-12 -10 4 27.65 1.65
12 -10 -4 28.71 1.74
-10 -4 12 30.29 1.79
10 -4 -12 27.19 1.74
12 -10 -4 26.34 1.32
10 -4 -12 27.21 1.52
-4 -12 10 26.4 1.81
12 10 4 29.28 1.64
12 11 -4 32.7 1.6
11 4 -12 32.06 1.85
4 12 -11 30.59 1.42
-12 -11 -4 34.6 1.86
-4 -12 -11 28.09 1.86
12 11 -4 31.47 1.81
11 4 -12 33.12 1.46
4 -12 11 30.82 1.9
11 4 -12 30.6 1.76
11 -4 -12 30.82 1.83
12 -11 -4 33.51 1.36
12 11 4 32.62 1.79
4 -12 -11 29.19 2.07
4 -12 -11 32.66 1.54
12 -11 -4 32.68 1.88
-12 -11 4 35.14 1.8
12 -11 -4 30.98 1.45
-11 -4 12 33.23 1.91
11 -4 -12 32.14 1.58
-4 -12 11 30.87 2.01
-12 0 5 -0.13 0.4
12 0 -5 -0.06 0.51
0 -5 12 -0.9 0.52
0 -5 -12 -0.2 0.58
5 12 0 -0.03 0.37
12 0 5 1.38 0.49
0 -5 -12 -0.07 0.37
12 0 5 0.04 0.41
12 0 -5 0.2 0.38
-5 -12 0 -0.36 0.43
5 -12 0 -1.08 0.54
5 -12 0 0.64 0.45
-1 -5 -12 17.88 0.87
12 1 -5 17.45 1.15
12 1 -5 16.85 1.01
-12 1 5 18.12 0.98
12 -1 5 17.21 1.06
-5 -12 -1 17.54 1.11
12 -1 5 15.02 0.9
-1 -5 -12 16.05 1.17
5 12 -1 17.32 1
1 -5 12 15.76 1.23
5 -12 1 16.78 1.23
1 -5 -12 16.77 1.31
12 -1 -5 17.13 0.97
-5 -12 1 16.52 1.16
12 1 5 16.62 0.91
5 12 1 16.3 1
5 -12 -1 16.98 0.95
5 -12 -1 18.23 1.27
12 -1 -5 16.24 1.12
1 -5 -12 16.2 0.92
-12 -1 5 17.4 0.92
12 1 5 16.53 1.03
-1 -5 12 16.49 1.34
12 -2 5 2.14 0.48
-12 2 5 1.5 0.49
-5 -12 -2 1.11 0.5
-2 -5 -12 1.45 0.58
2 -5 12 2.24 0.77
12 2 -5 1.26 0.59
2 5 -12 1.83 0.39
12 2 -5 2.16 0.51
5 12 -2 2.17 0.46
5 -12 2 2.17 0.7
12 -2 5 2.51 0.58
12 2 5 2.26 0.49
2 -5 -12 1.85 0.46
5 -12 -2 1.71 0.53
-12 -2 5 1.85 0.48
12 -2 -5 2.43 0.66
-2 -5 12 2.86 0.75
-5 -12 2 1.87 0.56
5 12 2 1.64 0.51
2 -5 -12 1.35 0.63
12 -2 -5 1.99 0.48
12 2 5 1.58 0.66
5 -12 -2 2.34 0.71
12 3 -5 13.01 0.89
5 -12 3 13.59 1.08
12 3 -5 14.03 1
3 -5 12 11.49 1.13
5 12 -3 14.53 0.86
-12 -3 -5 14.09 0.79
-3 -5 -12 14.71 0.78
-3 -5 -12 11.69 1.06
-5 -12 -3 15.04 1.06
12 -3 5 15.71 0.81
3 5 -12 12.94 0.83
12 -3 5 15.04 1.09
-5 -12 3 12.2 1.1
12 3 5 14.8 0.92
3 -5 -12 14.09 0.9
3 -5 -12 13.85 1.19
5 -12 -3 13.98 0.92
5 -12 -3 14.28 1.22
12 -3 -5 13.52 0.91
12 -3 -5 14.47 1.18
-12 -3 5 13.91 0.85
-3 -5 12 15.07 1.2
5 12 3 12.41 0.91
12 -4 5 15.25 1.12
12 4 -5 14.46 0.98
4 5 -12 16.99 0.93
-12 -4 -5 14.67 0.86
-5 -12 -4 15.92 1.17
12 4 -5 14.93 1.08
5 12 -4 14.88 0.87
5 -12 4 15.42 1.15
-4 -5 -12 14.08 0.81
4 -5 12 15.21 1.17
12 -4 -5 14.95 0.92
5 -12 -4 15.95 0.95
4 -5 -12 14.01 1.28
5 12 4 14.71 0.99
12 4 5 15.63 0.95
-4 -5 12 14.94 1.23
-5 -12 4 16.12 1.12
4 -5 -12 15.36 1
5 -12 -4 14.53 1.24
12 -4 -5 15.9 1.17
-12 -4 5 15.23 0.96
12 5 -5 17.87 1.12
5 12 -5 17.44 0.98
12 5 -5 18.7 1.11
-12 -5 -5 18.3 0.97
5 -5 12 18.4 1.3
-5 -5 -12 15.67 1.02
5 -12 5 16.56 1.24
-5 -12 -5 20.19 1.23
5 5 -12 18.13 0.98
12 -5 5 18.98 1.29
12 -5 -5 17.74 1.24
-5 -5 12 17.55 1.31
12 5 5 17.44 1.05
-12 -5 5 18.71 1.06
5 -5 -12 18.21 1.1
-5 -12 5 16.68 1.3
5 -5 -12 16.54 1.28
5 -12 -5 17.92 1.39
12 -5 -5 18.26 0.96
5 -12 -5 18.95 1.06
6 5 -12 0.95 0.5
6 -5 12 0.41 0.59
5 -12 6 0.77 0.66
5 12 -6 0.15 0.42
-12 -6 -5 0.37 0.51
12 6 -5 0.9 0.56
12 -6 5 0.59 0.63
12 6 -5 0.36 0.47
-5 -12 -6 1.3 0.62
12 -6 -5 0.3 0.44
6 -5 -12 -0.39 0.55
-5 -12 6 -0.63 0.65
12 -6 -5 0.02 0.63
12 6 5 0.2 0.44
-12 -6 5 0.81 0.53
5 -12 -6 -0.39 0.73
5 -12 -6 0.9 0.48
-6 -5 12 0.04 0.62
6 -5 -12 0.57 0.72
7 -5 12 30.73 1.53
12 -7 5 28.28 1.64
7 5 -12 29.05 1.59
12 7 -5 30.01 1.48
-5 -12 -7 29.87 1.71
5 -12 7 30.04 1.7
-12 -7 -5 26.54 1.41
5 12 -7 28.42 1.32
12 7 -5 28.99 1.44
7 5 -12 27.74 1.37
5 -12 -7 30.22 1.4
-5 -12 7 28.24 1.75
-7 -5 12 28.28 1.65
12 -7 -5 27.13 1.62
-12 -7 5 30.79 1.45
7 -5 -12 29.55 1.65
12 -7 -5 28.3 1.3
5 -12 -7 30.4 1.72
12 7 5 28.9 1.45
7 -5 -12 28.71 1.57
5 -12 8 19.54 1.5
8 -5 12 18.35 1.25
12 8 -5 19.11 1.23
12 -8 5 18.74 1.4
8 5 -12 18.89 1.39
-5 -12 -8 19.37 1.49
5 12 -8 18.41 1.08
8 5 -12 19.66 1.19
-8 -5 -12 18.71 1.41
-12 -8 -5 22.48 1.3
12 8 -5 21.72 1.27
-12 -8 5 20.18 1.25
12 8 5 18.51 1.28
-8 -5 12 17.48 1.5
8 -5 -12 19.45 1.42
8 -5 -12 19.57 1.32
-5 -12 8 19.07 1.46
12 -8 -5 19.77 1.44
5 -12 -8 18.88 1.59
5 -12 -8 18.85 1.19
-5 -12 -9 -0.25 0.65
-9 -5 -12 0.56 0.75
9 5 -12 -0.39 0.76
12 9 -5 -0.05 0.56
5 12 -9 0.29 0.47
-12 -9 -5 0.26 0.72
12 9 -5 0.27 0.59
9 5 -12 -0.39 0.47
5 -12 9 0.64 0.84
9 -5 12 0.13 0.6
9 -5 -12 1.3 0.75
9 -5 -12 0.3 0.69
5 -12 -9 -0.95 0.75
5 -12 -9 0.2 0.57
-9 -5 12 0.07 0.72
-12 -9 5 -0.2 0.72
-5 -12 9 0.2 0.8
12 -9 -5 1.14 0.76
12 9 5 -0.78 0.53
12 -9 -5 0.38 0.41
10 5 -12 23.24 1.42
5 -12 10 25.39 1.74
12 10 -5 25.16 1.56
-12 -10 -5 27.02 1.61
12 10 -5 22.78 1.37
-5 -12 -10 22.09 1.72
5 12 -10 23.37 1.24
10 5 -12 23.22 1.66
-10 -5 -12 25.45 1.59
10 -5 12 25.86 1.18
10 -5 -12 27.42 1.54
5 -12 -10 24.59 1.37
12 -10 -5 25.16 1.65
-5 -12 10 21.9 1.69
12 10 5 25.07 1.46
12 -10 -5 23.06 1.2
10 -5 -12 22.29 1.57
-10 -5 12 25.91 1.65
5 -12 -10 26.33 1.89
11 5 -12 0.78 0.75
12 11 -5 2.54 0.83
11 5 -12 2.3 0.66
12 11 -5 1.2 0.76
5 12 -11 2.61 0.61
-12 -11 -5 2.83 1.04
5 -12 11 2.85 0.95
11 5 -12 1.68 0.92
-5 -12 -11 -0.16 0.82
-11 -5 -12 3.49 0.91
-12 -11 5 1.75 0.88
12 11 5 2.06 0.7
11 -5 -12 1.43 0.75
-11 -5 12 3.01 1.03
12 -11 -5 1.32 0.97
12 -11 -5 2 0.61
11 -5 -12 2.31 0.91
5 -12 -11 1.34 1.06
-5 -12 11 3.17 1.07
5 -12 -11 1.05 0.66
-12 0 6 13.42 0.89
0 -6 -12 11.71 1.1
6 12 0 12.26 0.89
0 -6 -12 13.45 0.79
0 6 -12 13.04 0.78
-6 -12 0 11.23 0.95
12 0 -6 12.9 1.04
6 -12 0 13.69 1.07
6 -12 0 13.21 1.01
12 0 6 12.44 0.83
12 0 -6 11.03 0.84
0 -6 12 14.42 1.32
-1 -6 -12 46.76 1.65
-6 -12 -1 49.35 1.97
1 -6 12 46.53 2.1
1 6 -12 45.89 1.7
12 -1 6 48.42 1.83
6 -12 1 47.44 2.01
6 12 -1 45.02 1.82
-1 -6 -12 44.48 2.03
-12 1 6 49.14 1.79
12 -1 6 49.64 1.7
12 1 -6 46.41 1.95
6 -12 1 45.43 1.87
12 1 -6 45.95 1.86
12 1 6 51.47 2.16
-1 -6 12 48.85 2.2
12 -1 -6 44.98 1.94
6 -12 -1 44.72 2
6 -12 -1 47.32 1.87
-12 -1 6 46.74 1.75
-1 6 -12 48.69 1.66
1 -6 -12 44.48 2.13
-6 -12 1 48.86 2
1 -6 -12 47.88 1.72
6 12 1 44.98 1.84
12 -1 -6 43.43 1.81
-2 -6 -12 5.91 0.64
12 -2 6 7.09 0.88
6 12 -2 5.5 0.63
12 2 -6 6.69 0.86
12 -2 6 7.18 0.69
-2 -6 -12 6.16 0.87
2 6 -12 7.46 0.63
6 -12 2 7.34 1
2 -6 12 5.21 0.87
-6 -12 -2 5.95 0.79
-12 2 6 5.54 0.79
12 2 -6 4.82 0.7
-6 -12 2 5.12 0.74
6 -12 -2 6.68 0.76
6 -12 -2 7.84 1.06
-2 -6 12 6.46 0.97
6 12 2 5.95 0.78
-2 6 -12 6.51 0.59
2 -6 -12 5.22 0.86
2 -6 -12 7.08 0.7
12 -2 -6 6.23 0.87
12 -2 -6 5.75 0.69
-12 -2 6 6.38 0.75
6 -12 3 6.02 0.88
6 12 -3 4.29 0.6
-3 -6 -12 6.98 0.96
12 3 -6 4.99 0.69
12 -3 6 6.12 0.77
3 -6 12 6.06 0.95
-6 -12 -3 7.24 0.95
12 3 -6 6.01 0.8
3 6 -12 7.86 0.66
-3 -6 12 6.24 0.92
12 -3 -6 5.82 0.83
3 -6 -12 5.54 0.7
3 -6 -12 5.49 0.92
12 -3 -6 5.04 0.66
-6 -12 3 6.96 0.92
6 12 3 5.41 0.72
12 3 6 5.54 0.69
-12 -3 6 5.41 0.66
-3 6 -12 5.82 0.59
6 -12 -3 6.21 0.86
6 -12 -3 6.52 0.76
4 -6 12 24.28 1.53
6 12 -4 23.69 1.17
-6 -12 -4 26.84 1.45
12 4 -6 24.25 1.31
12 4 -6 25.02 1.27
-12 -4 -6 22.08 1.13
12 -4 6 24.86 1.4
-4 -6 -12 24.31 1.43
6 -12 4 23.87 1.43
4 6 -12 23.2 1.15
6 -12 -4 22.64 1.41
6 -12 -4 23.61 1.22
-12 -4 6 24.18 1.21
4 -6 -12 23.34 1.18
-4 -6 12 23.04 1.51
4 -6 -12 23.46 1.5
12 -4 -6 25.78 1.45
12 -4 -6 24.35 1.21
12 4 6 23.37 1.23
6 12 4 24.48 1.29
-6 -12 4 24.84 1.39
-12 -5 -6 1.23 0.53
6 -12 5 0.07 0.66
12 5 -6 0.22 0.45
12 5 -6 0.96 0.6
6 12 -5 0.54 0.46
-6 -12 -5 0.56 0.6
5 -6 12 0.86 0.7
5 6 -12 0.98 0.42
-5 -6 -12 1.28 0.65
6 -12 -5 1.51 0.77
12 -5 -6 1.2 0.68
12 5 6 -0.01 0.48
-6 -12 5 -0.19 0.54
12 -5 -6 0.2 0.42
6 -12 -5 0.94 0.56
5 -6 -12 1.47 0.54
-12 -5 6 1.29 0.57
-5 -6 12 -0.26 0.69
5 -6 -12 1 0.74
6 6 -12 9.62 0.82
12 6 -6 11.27 0.98
-12 -6 -6 12.2 0.98
6 -6 12 11.39 1.15
-6 -6 -12 9.91 1.18
12 6 -6 14.72 1.08
-6 -12 -6 11.91 1.21
6 -12 6 12.97 1.22
6 12 -6 12.33 0.87
6 -12 -6 10.47 1.15
12 -6 -6 10.85 1.16
-12 -6 6 13.84 1.06
-6 -6 12 13.97 1.25
12 6 6 11.42 0.94
-6 -12 6 11.1 1.24
6 -6 -12 9.9 1.26
6 -12 -6 13.03 1.01
6 -6 -12 8.93 1.05
-6 -12 -7 39.32 1.91
6 -12 7 39.29 1.95
7 -6 12 41.69 1.85
6 12 -7 38.39 1.66
12 7 -6 38.21 1.79
7 6 -12 36.94 1.86
7 6 -12 38.86 1.72
12 7 -6 38.29 1.75
-12 -7 -6 39.56 1.7
-7 -6 -12 40.91 1.91
-6 -12 7 40.19 2.03
-12 -7 6 42.49 1.81
12 -7 -6 39.95 1.95
7 -6 -12 40.76 1.99
6 -12 -7 41.29 2.06
6 -12 -7 42.27 1.76
7 -6 -12 38.93 1.79
-7 -6 12 40.34 2.01
12 7 6 41.5 1.81
6 12 -8 1.75 0.53
8 6 -12 2.07 0.58
12 8 -6 2.5 0.71
-6 -12 -8 1.79 0.76
8 6 -12 1.59 0.81
-12 -8 -6 0.85 0.69
-8 -6 -12 3.02 0.79
8 -6 12 2.88 0.74
6 -12 8 2.33 0.88
12 8 -6 1.44 0.63
12 -8 -6 2.7 0.39
12 -8 -6 2.18 0.85
6 -12 -8 1.48 0.81
-6 -12 8 1.08 0.8
6 -12 -8 2 0.67
8 -6 -12 1.36 0.8
-12 -8 6 1.46 0.72
-8 -6 12 1.91 0.89
8 -6 -12 1.96 0.77
12 8 6 0.55 0.63
-6 -12 -9 5.15 0.97
9 -6 12 5.8 0.78
9 6 -12 3.89 0.92
12 9 -6 5.08 0.83
6 12 -9 4.62 0.67
12 9 -6 4.24 0.83
6 -12 9 5.17 1.03
-12 -9 -6 5.4 0.87
-9 -6 -12 3.61 0.85
9 6 -12 3.88 0.75
9 -6 -12 5.39 0.93
-6 -12 9 3.27 0.99
12 -9 -6 3.27 0.9
9 -6 -12 4.17 0.89
6 -12 -9 3.77 0.77
6 -12 -9 3.27 1.02
12 9 6 4.21 0.8
-9 -6 12 5.28 1
-12 -9 6 4.84 0.97
-6 -12 -10 36.05 1.96
10 6 -12 32.05 1.93
-12 -10 -6 34.85 1.83
6 12 -10 32.85 1.57
-10 -6 -12 32.51 1.93
10 -6 12 32.45 1.46
12 10 -6 33.74 1.8
12 10 -6 33.12 1.69
10 6 -12 33.62 1.8
6 -12 10 34.23 1.98
-10 -6 12 32.43 2.02
10 -6 -12 36.7 1.8
12 -10 -6 33.72 1.98
6 -12 -10 34.91 1.68
10 -6 -12 33.99 1.89
-12 -10 6 35 1.83
6 -12 -10 35.62 2.09
12 10 6 35.22 1.75
12 -10 -6 34.04 1.4
-6 -12 10 33.34 2
6 12 -11 2.89 0.66
12 11 -6 2.08 0.84
11 6 -12 1.77 0.93
-11 -6 -12 2.45 0.97
6 -12 11 2.79 1.02
-12 -11 -6 2.21 0.92
-6 -12 -11 2.73 1.04
11 6 -12 1.08 0.65
12 11 -6 1.81 0.84
11 6 -12 1.82 0.8
-6 -12 11 0.22 0.89
12 -11 -6 2.68 0.99
12 -11 -6 2.3 0.63
6 -12 -11 1.55 0.73
11 -6 -12 1.06 0.75
12 11 6 3.12 0.79
-12 -11 6 1.3 0.91
6 -12 -11 2.29 1.12
11 -6 -12 2.43 0.88
-11 -6 12 0.28 0.99
12 0 -7 44.92 1.86
0 -7 -12 47.12 2.13
-7 -12 0 47.8 2.02
0 -7 -12 46.57 1.68
12 0 7 51.49 1.77
0 -7 12 45.78 2.16
0 7 -12 47.67 1.71
7 -12 0 47.98 1.95
7 -12 0 48.67 2.03
12 0 -7 47.78 2.01
-12 0 7 48.13 1.86
7 12 0 46.15 1.91
1 -7 12 5.1 0.97
12 1 -7 4.8 0.66
1 7 -12 4.98 0.69
7 12 -1 4.76 0.66
-1 -7 -12 4.45 0.9
12 1 -7 4.23 0.75
-12 1 7 5.34 0.68
7 -12 1 3.99 0.72
7 12 -1 4.89 0.69
-7 -12 -1 4.82 0.75
7 -12 1 4.1 0.77
1 -7 -12 4.98 0.88
1 -7 -12 4.34 0.55
12 -1 -7 4.87 0.86
-1 7 -12 5.35 0.58
12 1 7 4.82 0.6
-1 -7 12 4.7 0.9
7 -12 -1 4.93 0.77
7 -12 -1 4.65 0.8
-7 -12 1 4.09 0.69
12 -1 -7 3.25 0.59
-12 -1 7 4.72 0.65
7 12 1 3.89 0.65
-2 -7 -12 3.4 0.82
-7 -12 -2 2.87 0.68
7 12 -2 2.8 0.58
12 2 -7 2.94 0.72
2 7 -12 3.28 0.52
2 -7 12 3.71 0.9
12 2 -7 3.51 0.64
-12 2 7 3.36 0.67
7 -12 2 3.57 0.75
-2 -7 -12 4.36 0.5
7 -12 2 2.31 0.68
-2 -7 12 3.86 0.84
-12 -2 7 2.61 0.6
2 -7 -12 2.88 0.78
7 -12 -2 4.23 0.72
7 -12 -2 3.45 0.75
12 -2 -7 3.83 0.6
12 -2 -7 3.07 0.74
-2 7 -12 4.36 0.56
2 -7 -12 3.68 0.56
-7 -12 2 3.72 0.75
7 12 2 3.31 0.65
7 12 -3 14.91 0.99
3 7 -12 13.27 0.83
3 -7 12 13.03 1.21
7 -12 3 13.62 1.14
-3 -7 -12 14.87 1.35
12 3 -7 12.02 1.09
-7 -12 -3 14.25 1.15
12 3 -7 14.11 0.98
7 -12 -3 12.03 1.16
3 -7 -12 12.04 1.21
7 -12 -3 13.46 1.08
12 3 7 13.6 0.92
-7 -12 3 11.7 1.06
7 12 3 13.25 0.97
3 -7 -12 12.45 0.89
-3 -7 12 11.49 1.21
-12 -3 7 12.66 1.01
12 -3 -7 12.53 0.87
12 -3 -7 14.26 1.23
7 -12 4 4.34 0.78
-4 -7 -12 5.33 0.87
12 4 -7 3.8 0.69
-12 -4 -7 5.93 0.8
4 -7 12 3.53 0.87
-7 -12 -4 5 0.85
4 7 -12 3.88 0.56
12 4 -7 4.79 0.8
7 12 -4 3.56 0.6
12 -4 -7 4.59 0.65
12 -4 -7 3.74 0.83
-12 -4 7 4.91 0.72
4 -7 -12 4.26 0.62
12 4 7 4.63 0.69
4 -7 -12 5.37 0.92
7 -12 -4 4.52 0.74
-4 -7 12 5 0.91
7 -12 -4 4.69 0.83
7 12 4 5.18 0.77
-7 -12 4 4.8 0.84
5 7 -12 29.86 1.38
7 -12 5 28.11 1.57
-5 -7 -12 29.89 1.72
-12 -5 -7 27.67 1.48
5 -7 12 28.07 1.59
12 5 -7 30.95 1.56
-7 -12 -5 27.63 1.6
12 5 -7 27.83 1.46
7 12 -5 31.14 1.42
12 5 7 29.32 1.45
7 -12 -5 30.46 1.51
5 -7 -12 31.95 1.82
-12 -5 7 28.59 1.48
-5 -7 12 28.89 1.74
-7 -12 5 29.59 1.69
12 -5 -7 31.61 1.68
7 -12 -5 30.41 1.66
5 -7 -12 28.64 1.46
7 12 5 29.52 1.49
12 6 -7 39.28 1.81
7 -12 6 38.42 1.87
7 12 -6 38.91 1.71
-12 -6 -7 37.64 1.69
6 -7 12 41.66 1.92
-7 -12 -6 39.68 1.96
-6 -7 -12 39.78 1.94
6 7 -12 40.8 1.69
12 6 -7 40.4 1.85
7 -12 -6 42.01 1.82
12 -6 -7 40.06 1.96
7 -12 -6 41.06 1.99
-12 -6 7 41.43 1.79
-6 -7 12 40.6 2.11
12 6 7 39.21 1.73
6 -7 -12 41.61 1.84
6 -7 -12 39.27 2.04
-7 -12 6 39.04 1.99
7 7 -12 -0.02 0.72
7 7 -12 0.99 0.48
7 -12 7 1.13 0.87
7 -7 12 0.56 0.75
7 12 -7 -0.12 0.48
-7 -12 -7 0.32 0.63
-7 -7 -12 0.33 0.75
-12 -7 -7 -0.6 0.65
12 7 -7 -0.36 0.65
12 7 -7 0.83 0.59
12 -7 -7 0.76 0.33
-7 -7 12 0.44 0.83
-7 -12 7 -0.32 0.75
12 7 7 1.08 0.55
7 -12 -7 1.02 0.66
7 -7 -12 0.31 0.63
12 -7 -7 0.56 0.79
7 -12 -7 0.65 0.8
7 -7 -12 0.7 0.83
-12 -7 7 -0.28 0.69
12 8 -7 16.15 1.22
8 7 -12 14.28 1.32
8 7 -12 15.42 1.14
7 12 -8 12.88 0.97
-8 -7 -12 12.79 1.38
8 -7 12 17.08 1.28
-7 -12 -8 15.78 1.47
7 -12 8 17.3 1.42
-12 -8 -7 16.24 1.29
12 8 -7 15.53 1.31
-12 -8 7 16.46 1.51
-7 -12 8 15.16 1.41
7 -12 -8 14.53 1.36
8 -7 -12 17.11 1.34
8 -7 -12 17.35 1.46
12 8 7 16.92 1.16
7 -12 -8 16.52 1.24
-8 -7 12 15.58 1.42
12 -8 -7 14.35 1.47
7 -12 9 7.1 1.07
12 9 -7 7.16 0.99
-9 -7 -12 8.91 1.13
9 7 -12 5.82 1
12 9 -7 6.05 1.02
9 7 -12 7.91 1
9 -7 12 7.25 0.89
-7 -12 -9 6.53 1.01
7 12 -9 8.1 0.82
-12 -9 -7 7.32 1
9 -7 -12 7.61 1.07
7 -12 -9 7.14 0.96
-7 -12 9 5.89 1.12
12 -9 -7 6.38 0.8
12 9 7 7.31 0.98
9 -7 -12 9.85 1.26
-12 -9 7 7.51 1.05
7 -12 -9 7.69 1.13
12 -9 -7 6.91 1.1
-9 -7 12 8.89 1.21
12 10 -7 9.69 1.23
-10 -7 -12 13.37 1.41
7 12 -10 13.37 1.05
12 10 -7 10.57 1.3
10 -7 12 9.97 1.02
10 7 -12 11.65 1.36
10 7 -12 11.4 1.15
7 -12 10 9.55 1.21
-12 -10 -7 9.72 1.38
-7 -12 -10 11.43 1.47
-10 -7 12 12.03 1.54
10 -7 -12 11.54 1.31
-12 -10 7 10.9 1.37
7 -12 -10 9.94 1.15
12 -10 -7 11.27 0.99
12 -10 -7 11.99 1.36
7 -12 -10 12.34 1.53
-7 -12 10 11.72 1.44
12 10 7 9.5 1.16
10 -7 -12 10.68 1.22
12 11 -7 21.57 1.52
-11 -7 -12 17.55 1.7
11 7 -12 24.19 1.28
7 -12 11 21.07 1.67
-12 -11 -7 19.94 1.75
7 12 -11 22.15 1.35
-7 -12 -11 17.66 1.63
11 7 -12 21.03 1.68
12 11 -7 20.53 1.54
11 7 -12 21.63 1.5
-11 -7 12 21.71 1.87
12 -11 -7 21.34 1.28
11 -7 -12 19.67 1.47
7 -12 -11 23.95 1.49
7 -12 -11 19.67 1.84
-7 -12 11 20.34 1.76
11 -7 -12 21.25 1.68
-12 -11 7 17.27 1.68
12 -11 -7 20.91 1.79
0 8 -12 0.44 0.49
8 -12 0 0.54 0.63
0 -8 12 -0.2 0.67
8 -12 0 0.82 0.6
-12 0 8 -0.25 0.54
0 -8 -12 -0.15 0.42
-8 -12 0 -0.03 0.59
0 -8 -12 0.61 0.68
8 12 0 -0.17 0.43
12 0 -8 0.77 0.48
12 0 -8 1 0.67
12 1 -8 52.7 2.11
8 12 -1 54.16 2.12
8 -12 1 52.38 2.19
-1 -8 -12 52.92 1.83
8 -12 1 54.95 2.16
1 -8 12 53.68 2.38
1 8 -12 54.7 1.9
-12 1 8 57.22 2.12
-8 -12 -1 56.84 2.26
-1 -8 -12 51.31 2.33
12 1 -8 51.03 2.2
1 -8 -12 52.35 2.41
-8 -12 1 54.99 2.24
8 -12 -1 53.51 2.17
1 -8 -12 53.85 1.89
8 -12 -1 52.86 2.15
-12 -1 8 55.94 2.09
12 -1 -8 51.93 2.23
-1 -8 12 55.45 2.42
12 -1 -8 50.56 2.07
-1 8 -12 54.29 1.82
8 12 1 55.52 2.18
-8 -12 -2 20.65 1.34
12 2 -8 20.7 1.36
8 -12 2 24.58 1.4
8 -12 2 21.44 1.39
8 12 -2 19.65 1.19
2 8 -12 19.8 1.03
-12 2 8 20.94 1.31
-2 -8 -12 22.54 1.48
2 -8 12 21.59 1.5
12 2 -8 21.76 1.2
-12 -2 8 21.1 1.25
12 -2 -8 19.08 1.36
8 -12 -2 21.37 1.31
8 -12 -2 21.24 1.32
-2 -8 12 21.99 1.54
2 -8 -12 22.05 1.07
8 12 2 20.22 1.19
12 -2 -8 19.52 1.15
-8 -12 2 23.09 1.32
2 -8 -12 21.17 1.49
3 -8 12 0.02 0.79
-12 3 8 -0.76 0.58
-8 -12 -3 -0.27 0.62
8 -12 3 0.1 0.62
3 8 -12 0.5 0.43
-3 -8 -12 0.51 0.7
8 12 -3 -0.37 0.45
12 3 -8 -0.43 0.61
12 3 -8 0.29 0.52
8 12 -3 -0.37 0.52
-8 -12 3 -0.69 0.62
8 12 3 0.17 0.54
8 -12 -3 0.95 0.64
3 -8 -12 -0.41 0.42
12 -3 -8 0.51 0.7
-12 -3 8 0.11 0.58
8 -12 -3 -0.2 0.65
3 -8 -12 0.05 0.71
-3 -8 12 -0.06 0.7
12 -3 -8 0.36 0.45
-8 -12 -4 25.59 1.45
12 4 -8 24.65 1.43
-4 -8 -12 23.85 1.53
8 12 -4 24.81 1.31
12 4 -8 23.98 1.35
4 8 -12 25.66 1.22
8 12 -4 24.13 1.25
8 -12 4 26.42 1.49
-12 -4 -8 25.23 1.32
4 -8 12 26.03 1.64
8 12 4 24.21 1.39
12 -4 -8 23.15 1.29
-4 -8 12 23.86 1.62
4 -8 -12 24.37 1.6
8 -12 -4 25.48 1.42
-12 -4 8 23.98 1.38
4 -8 -12 24.44 1.29
8 -12 -4 25.57 1.49
12 -4 -8 24.42 1.54
-8 -12 4 25.4 1.46
5 -8 12 20.2 1.48
12 5 -8 18.44 1.39
5 8 -12 20.12 1.09
8 12 -5 20.4 1.17
-5 -8 -12 20.34 1.55
-12 -5 -8 19.55 1.28
8 -12 5 18.15 1.34
12 5 -8 17.2 1.17
-8 -12 -5 19.58 1.41
8 12 -5 19.09 1.14
8 -12 -5 19.74 1.4
5 -8 -12 20.34 1.22
8 12 5 20.62 1.25
8 -12 -5 19.58 1.35
5 -8 -12 19.06 1.58
12 -5 -8 17.01 1.39
-5 -8 12 18.89 1.51
-12 -5 8 17.92 1.27
-8 -12 5 21.32 1.4
-6 -8 -12 2.84 0.83
12 6 -8 1.29 0.75
-12 -6 -8 3.24 0.73
6 8 -12 1.77 0.51
6 -8 12 1.89 0.84
-8 -12 -6 2.06 0.74
8 -12 6 2.25 0.76
8 12 -6 2.39 0.61
12 6 -8 1.86 0.61
12 -6 -8 1.93 0.83
8 -12 -6 2.26 0.76
6 -8 -12 1.09 0.79
6 -8 -12 3.77 0.74
-6 -8 12 2.07 0.86
-12 -6 8 2.39 0.76
12 -6 -8 2 0.37
8 -12 -6 1.53 0.76
-8 -12 6 1.67 0.79
7 -8 12 19.22 1.45
8 -12 7 18.13 1.33
-12 -7 -8 15.89 1.28
8 12 -7 15.41 1.12
12 7 -8 15.84 1.34
-7 -8 -12 14.99 1.49
12 7 -8 13.58 1.17
-8 -12 -7 18.56 1.44
7 8 -12 17.44 1.12
12 -7 -8 15.28 1.11
7 -8 -12 16.21 1.22
-8 -12 7 15.35 1.38
-7 -8 12 13.7 1.5
7 -8 -12 14.8 1.5
8 -12 -7 15.47 1.24
8 -12 -7 16.28 1.49
12 -7 -8 14.25 1.32
8 -8 12 8.26 1.07
8 8 -12 6.32 0.85
12 8 -8 7.72 0.98
-12 -8 -8 7.81 1.02
-8 -12 -8 6.32 1.04
12 8 -8 6.62 0.99
8 12 -8 6.2 0.84
8 -12 8 7.67 1.05
8 8 -12 6.49 1.08
-8 -8 -12 5.72 1.1
-12 -8 8 7.17 1.01
-8 -12 8 6.89 1.19
12 -8 -8 8 0.8
8 -8 -12 7.69 1.12
-8 -8 12 7.33 1.12
8 -8 -12 8.43 1.04
8 -12 -8 9.33 1.19
8 -12 -8 8.9 1.16
12 -8 -8 6.15 1.04
-8 -12 -9 29.7 1.89
9 -8 12 31.27 1.66
12 9 -8 30.76 1.82
12 9 -8 31.12 1.69
-9 -8 -12 29.58 1.9
9 8 -12 32.92 1.7
8 12 -9 32.29 1.59
9 8 -12 29.26 1.83
8 -12 9 31.35 1.8
8 -12 -9 30.92 1.93
8 -12 -9 31.61 1.73
-12 -9 8 32.82 1.88
12 -9 -8 26.77 1.91
-9 -8 12 30.6 2.02
-8 -12 9 28.29 1.87
9 -8 -12 34.47 2.19
12 -9 -8 32.56 1.42
9 -8 -12 32.52 1.82
10 8 -12 10.03 1.25
8 12 -10 12.09 1.11
10 -8 12 13.41 1.15
12 10 -8 12.59 1.33
-10 -8 -12 11.8 1.51
8 -12 10 11.31 1.39
-8 -12 -10 13.98 1.44
12 10 -8 12.92 1.36
10 8 -12 10.95 1.5
-12 -10 -8 10.63 1.22
10 -8 -12 12.2 1.31
8 -12 -10 11.18 1.39
8 -12 -10 10.01 1.25
10 -8 -12 10.79 1.46
-8 -12 10 10.6 1.38
12 -10 -8 12.61 1.07
-10 -8 12 12.7 1.63
12 -10 -8 10.87 1.45
-12 -10 8 10.53 1.5
-11 -8 -12 2.66 1.11
12 11 -8 3.64 0.96
8 12 -11 3.47 1.04
8 12 -11 3.28 0.74
-12 -11 -8 2.03 1.1
8 -12 11 2.8 1.01
12 11 -8 1.46 0.86
11 8 -12 1.95 0.86
-8 -12 -11 1.79 1.05
-8 -12 11 2.72 1.18
8 -12 -11 3.96 1.16
8 -12 -11 1.82 0.88
11 -8 -12 3.15 1.59
12 -11 -8 2.29 1.14
-12 -11 8 3.58 1.13
11 -8 -12 2.39 0.88
12 -11 -8 1.57 0.76
-11 -8 12 1.16 1.07
9 -12 0 12.21 1.16
-9 -12 0 13.59 1.16
9 12 0 12.86 1.02
0 -9 12 11.83 1.33
12 0 -9 9.7 0.92
0 -9 -12 11.59 0.85
9 -12 0 11.25 1.07
-12 0 9 12.75 1.11
12 0 -9 12.89 1.22
0 -9 -12 12.56 1.3
1 9 -12 7.9 0.72
12 1 -9 9.05 1.12
9 -12 1 6.72 0.97
-1 -9 -12 8.48 1.19
9 -12 1 10.29 1.04
9 12 -1 6.87 0.82
-9 -12 -1 8.71 0.94
-12 1 9 8.55 1.04
12 1 -9 9.54 0.89
1 -9 12 9.03 1.22
12 -1 -9 8.07 1.06
1 -9 -12 9.28 0.8
-1 -9 12 9.52 1.26
9 -12 -1 8.65 0.96
-9 -12 1 9.67 1.06
9 12 1 7.58 0.89
9 -12 -1 9.47 1.09
1 -9 -12 10.05 1.25
12 -1 -9 7.77 0.85
-12 -1 9 10.07 1.04
-2 -9 -12 44.86 2.25
9 12 -2 45.4 1.95
2 9 -12 45.81 1.69
9 -12 2 45.06 2.04
-9 -12 -2 46.92 1.95
9 12 -2 42.21 1.8
-12 2 9 45.69 1.97
12 2 -9 41.7 1.92
12 2 -9 41.86 2.04
2 -9 12 43.39 2.25
9 -12 2 46.15 1.91
12 -2 -9 44.44 2.08
-2 -9 12 46.33 2.31
12 -2 -9 44.39 1.9
2 -9 -12 43.07 2.17
9 12 2 45.43 1.99
2 -9 -12 45.2 1.71
9 -12 -2 46 2.05
-12 -2 9 46.9 1.93
9 -12 -2 46.13 1.95
12 3 -9 13.15 1.04
3 -9 12 10.55 1.3
9 12 -3 9.65 0.93
-9 -12 -3 12.53 1.15
9 12 -3 11.58 0.97
-3 -9 -12 11.27 1.28
9 -12 3 12.63 1.1
12 3 -9 9.77 1.16
3 9 -12 12.38 0.86
9 12 3 10.83 1.03
-9 -12 3 13.61 1.23
12 -3 -9 12.57 1.29
12 -3 -9 10.41 0.96
3 -9 -12 10.85 0.91
3 -9 -12 12.58 1.46
-3 -9 12 10.81 1.34
9 -12 -3 10.44 1.14
-12 -3 9 12.2 1.11
9 -12 -3 12.36 1.12
12 4 -9 8.21 0.93
-12 -4 -9 8.13 1.04
-4 -9 -12 8.78 1.15
12 4 -9 9.07 1.08
4 -9 12 7.81 1.13
-9 -12 -4 11.49 1.14
4 9 -12 10.2 0.84
9 12 -4 7.93 0.91
9 -12 4 9.64 1.05
9 12 -4 7.42 0.91
9 -12 -4 8.94 1.19
4 -9 -12 8.32 0.92
9 12 4 9.3 0.98
12 -4 -9 9.73 1.19
-12 -4 9 10.75 1.14
4 -9 -12 8.73 1.25
-9 -12 4 10.25 1.12
9 -12 -4 9.65 1.14
-4 -9 12 9.38 1.27
9 12 -5 -0.16 0.59
-5 -9 -12 0.4 0.79
5 9 -12 1.2 0.46
9 -12 5 0.43 0.64
-9 -12 -5 0.22 0.7
5 -9 12 -1.04 0.79
-12 -5 -9 0.88 0.73
12 5 -9 -0.9 0.52
12 5 -9 0.23 0.76
9 12 -5 0.42 0.52
9 -12 -5 0.03 0.7
5 -9 -12 -0.15 0.79
12 -5 -9 -0.46 0.37
9 -12 -5 -0.28 0.7
5 -9 -12 -0.48 0.55
12 -5 -9 -0.14 0.75
-9 -12 5 0.05 0.73
-5 -9 12 -0.39 0.85
9 12 5 1.43 0.69
6 -9 12 3.79 0.94
6 9 -12 4.74 0.67
12 6 -9 4.85 0.84
-12 -6 -9 5.01 0.87
12 6 -9 4.57 0.96
-6 -9 -12 4.1 1.02
-9 -12 -6 5.83 0.94
9 12 -6 2.9 0.79
9 12 -6 3.07 0.71
9 -12 6 3.95 0.83
-9 -12 6 5.45 0.98
12 -6 -9 3.4 0.9
6 -9 -12 4.72 1.05
9 -12 -6 3.71 0.89
6 -9 -12 3.83 0.79
-12 -6 9 4.81 0.88
-6 -9 12 3.16 0.95
9 -12 -6 4.76 0.89
12 7 -9 7.76 1.02
12 7 -9 7.64 1.05
9 12 -7 8.02 0.99
7 -9 12 8.86 1.25
9 12 -7 8.22 0.98
7 9 -12 6.49 0.8
-9 -12 -7 8.08 1.11
9 -12 7 7.6 0.96
-12 -7 -9 8.33 1.18
-7 -9 -12 8.1 1.11
-7 -9 12 6.85 1.15
12 -7 -9 7.95 0.8
7 -9 -12 7.13 0.96
-9 -12 7 5.62 1.01
-12 -7 9 9.09 1.23
9 -12 -7 6 1
7 -9 -12 6.3 1.14
9 -12 -7 7.84 1.03
12 -7 -9 7.91 1.09
12 8 -9 32.47 1.76
-9 -12 -8 31.65 1.9
8 -9 12 29.94 1.74
9 12 -8 31.04 1.68
8 9 -12 29.88 1.63
9 -12 8 30.93 1.68
9 12 -8 30.25 1.61
8 9 -12 31.91 1.85
-8 -9 -12 30.82 1.96
12 8 -9 29.2 1.75
-12 -8 9 28.92 1.85
9 -12 -8 31.51 1.79
12 -8 -9 31.1 1.94
12 -8 -9 31.06 1.38
-9 -12 8 32.01 1.97
8 -9 -12 32.37 1.72
-8 -9 12 28.85 2.02
9 -12 -8 32.18 1.8
8 -9 -12 29.82 1.92
-12 -9 -9 22.49 1.64
9 12 -9 24.17 1.5
-9 -12 -9 20.43 1.74
9 -12 9 21.43 1.53
9 -9 12 25.38 1.56
9 9 -12 23.77 1.51
-9 -9 -12 23.9 1.83
9 12 -9 23.62 1.61
9 9 -12 23.09 1.76
12 9 -9 25.22 1.69
12 9 -9 25.93 1.63
-9 -12 9 20.89 1.82
12 -9 -9 23.19 1.3
9 -9 -12 23.25 1.67
12 -9 -9 24.21 1.76
-12 -9 9 22.73 1.73
-9 -9 12 23.26 1.76
9 -12 -9 22.23 1.65
9 -12 -9 21.65 1.62
9 -9 -12 25.95 1.72
-10 -9 -12 -0.08 0.98
9 12 -10 -0.64 0.84
9 12 -10 -0.04 0.76
12 10 -9 0.13 0.8
12 10 -9 -0.19 0.77
10 9 -12 -0.22 0.77
10 -9 12 1.45 0.76
10 9 -12 -0.44 1.14
-12 -10 -9 1.3 0.99
-9 -12 -10 2.43 1.04
9 -12 10 0.55 0.86
9 -12 -10 -0.54 0.89
9 -12 -10 0.32 0.78
10 -9 -12 2.23 0.98
10 -9 -12 -0.53 0.87
-12 -10 9 -0.14 1
12 -10 -9 0.99 0.74
-9 -12 10 -0.46 0.89
-10 -9 12 -1.23 0.89
-12 -11 -9 3.42 1.16
-11 -9 -12 1.98 1.1
11 9 -12 2.94 1
11 9 -12 3.03 0.95
9 12 -11 2.91 1.67
9 12 -11 2.68 0.87
12 11 -9 2.08 0.97
9 -12 11 0.86 0.94
12 11 -9 2.12 0.99
-9 -12 -11 3.57 1.14
11 -9 -12 0.75 0.86
-9 -12 11 2.59 1.15
9 -12 -11 3.94 1.27
11 -9 -12 1.98 0.94
12 -11 -9 0.85 0.83
-11 -9 12 2.39 1.23
-12 -11 9 4.3 1.21
12 -11 -9 0.76 0.88
9 -12 -11 2.41 1.08
12 0 -10 4.59 0.77
-10 -12 0 5.28 0.84
-12 0 10 5.67 0.85
12 0 -10 4.22 0.9
0 -10 -12 2.51 0.99
10 12 0 4.14 0.76
0 -10 12 3.19 0.96
10 -12 0 4.73 0.75
10 -12 0 4.14 0.89
-12 1 10 13.45 1.18
12 1 -10 13.6 1.09
-10 -12 -1 13.88 1.2
12 1 -10 11.9 1.3
10 -12 1 14.32 1.26
1 10 -12 12.7 0.86
-1 -10 -12 12.59 1.36
1 -10 12 13.73 1.54
10 -12 1 14.64 1.11
10 12 -1 13.9 1.1
10 -12 -1 13.02 1.1
1 -10 -12 14.84 0.94
10 12 1 13.32 1.18
-10 -12 1 14.5 1.26
-1 -10 12 12.69 1.46
10 -12 -1 14.62 1.36
12 -1 -10 14.53 1.35
12 -1 -10 12.95 0.99
1 -10 -12 15.8 1.47
-12 -1 10 12 1.35
10 -12 2 0.63 0.77
12 2 -10 1.07 0.57
-12 2 10 0.72 0.72
10 12 -2 0.71 0.6
10 -12 2 0.2 0.6
12 2 -10 -0.3 0.69
2 10 -12 1.44 0.49
-2 -10 -12 0.06 0.76
-10 -12 -2 0.85 0.71
2 -10 12 1.41 0.9
12 -2 -10 0.35 0.5
-10 -12 2 0.61 0.73
10 -12 -2 1.08 0.74
10 -12 -2 -0.72 0.6
-2 -10 12 1.05 0.95
2 -10 -12 1.28 0.54
2 -10 -12 1.34 0.85
12 -2 -10 0.58 0.79
10 12 2 1.63 0.63
-12 -2 10 1.61 0.73
10 -12 3 0.73 0.64
10 12 -3 -0.41 0.54
12 3 -10 0.13 0.76
12 3 -10 -0.1 0.53
10 12 -3 0.86 0.63
3 -10 12 0.33 0.82
-10 -12 -3 -1.11 0.67
3 10 -12 1.07 0.47
-12 3 10 0.41 0.74
-3 -10 -12 1.09 0.92
-10 -12 3 0.41 0.75
3 -10 -12 0.52 0.83
3 -10 -12 1.25 0.56
10 -12 -3 0.74 0.64
10 12 3 -0.03 0.6
12 -3 -10 -0.15 0.75
-3 -10 12 0.82 0.86
-12 -3 10 0.42 0.71
12 -3 -10 0.79 0.34
12 -3 -10 -0.02 0.45
10 -12 -3 1.06 0.76
12 4 -10 27.87 1.72
10 -12 4 27.21 1.46
-10 -12 -4 30.61 1.67
4 -10 12 27.82 1.86
-4 -10 -12 26.37 1.74
12 4 -10 25.13 1.54
-12 -4 -10 29.13 1.58
10 12 -4 26.34 1.39
4 10 -12 28.55 1.33
10 12 -4 27.49 1.56
-12 -4 10 27.47 1.66
4 -10 -12 27.75 1.4
10 12 4 29.16 1.61
-10 -12 4 24.09 1.67
-4 -10 12 26.63 1.82
10 -12 -4 26.62 1.5
12 -4 -10 30.16 1.13
12 -4 -10 25.8 1.69
10 -12 -4 28.93 1.72
4 -10 -12 27.47 1.8
-5 -10 -12 25.72 1.7
5 -10 12 22.92 1.71
-12 -5 -10 24.78 1.52
10 12 -5 23.24 1.71
12 5 -10 22.33 1.65
10 12 -5 25.12 1.46
10 -12 5 24.4 1.41
-10 -12 -5 25.77 1.67
12 5 -10 24.06 1.52
5 10 -12 25.63 1.3
10 12 5 24.04 1.56
-10 -12 5 26.32 1.69
-12 -5 10 25.14 1.64
10 -12 -5 24.05 1.65
10 -12 -5 24.3 1.46
-5 -10 12 22.78 1.87
5 -10 -12 24.83 1.73
12 -5 -10 23.48 1.7
5 -10 -12 26.66 1.4
-10 -12 -6 35.87 1.99
6 -10 12 33.7 1.96
10 12 -6 34.44 1.75
6 10 -12 34.51 1.61
10 -12 6 32.49 1.65
-6 -10 -12 36.75 2.07
12 6 -10 35.16 1.93
-12 -6 -10 33.83 1.89
10 12 -6 35.82 1.68
12 6 -10 33.69 1.83
6 -10 -12 32.66 2.06
6 -10 -12 36.24 1.7
-10 -12 6 33.01 1.94
12 -6 -10 34.63 1.99
-12 -6 10 37.83 1.95
10 12 6 35.06 1.84
10 -12 -6 35.85 1.79
-6 -10 12 32.36 2.02
12 -6 -10 33.06 1.41
10 -12 -6 35.1 1.92
-12 -7 -10 11.92 1.41
10 12 -7 14.56 1.21
7 -10 12 10.86 1.32
-10 -12 -7 14.66 1.42
12 7 -10 11.24 1.29
-7 -10 -12 11.81 1.36
10 12 -7 10.01 1.17
12 7 -10 12.5 1.37
10 -12 7 9.1 1.15
7 10 -12 11.34 1.05
7 -10 -12 12.51 1.53
-12 -7 10 10.34 1.27
-10 -12 7 10.37 1.3
10 -12 -7 10.39 1.36
10 -12 -7 11.88 1.29
-7 -10 12 12.64 1.48
12 -7 -10 9.89 0.97
7 -10 -12 11.2 1.19
12 -7 -10 12.93 1.49
10 -12 8 11.79 1.19
10 12 -8 10.31 1.25
-12 -8 -10 10.37 1.42
8 -10 12 11.99 1.38
8 10 -12 9.58 1.3
-8 -10 -12 9.45 1.24
12 8 -10 12.44 1.33
12 8 -10 11.46 1.29
-10 -12 -8 12.14 1.52
10 12 -8 11.42 1.29
8 10 -12 10.99 1.15
10 -12 -8 12.1 1.31
10 -12 -8 11.65 1.41
8 -10 -12 13.59 1.57
-10 -12 8 11.18 1.53
-12 -8 10 10.64 1.3
12 -8 -10 10.98 1.05
8 -10 -12 11.55 1.27
-8 -10 12 9.81 1.38
12 -8 -10 10.1 1.39
-12 -9 -10 -0.53 0.97
12 9 -10 0.5 0.78
9 -10 12 1.75 0.88
10 12 -9 0.66 0.79
9 10 -12 0.13 1.08
10 12 -9 -0.04 0.69
10 -12 9 -0.01 0.74
9 10 -12 0.61 0.65
-10 -12 -9 -0.61 0.93
12 9 -10 -0.25 0.86
-9 -10 -12 0.83 0.99
10 -12 -9 -0.79 0.88
9 -10 -12 0.54 0.97
10 -12 -9 -0.25 0.87
12 -9 -10 0.39 0.73
-10 -12 9 1.49 0.99
-12 -9 10 -0.23 0.95
-9 -10 12 -0.98 1.05
9 -10 -12 -0.04 0.8
10 -10 12 6.05 0.98
12 10 -10 6.08 1.39
-10 -10 -12 5.35 1.23
12 10 -10 7.24 1.26
-12 -10 -10 7.35 1.27
10 10 -12 6.58 1.05
10 12 -10 7.92 1.12
10 10 -12 6.54 1.09
-10 -12 -10 4.53 1.22
10 -12 10 5.7 0.97
10 12 -10 6.92 1.16
-10 -12 10 5.75 1.19
10 -10 -12 4.87 1.06
10 -10 -12 7.23 1.16
-12 -10 10 7.1 1.33
10 -12 -10 6.34 1.1
12 -10 -10 4.49 1.1
-10 -10 12 6.46 1.33
12 -10 -10 6.1 0.95
11 10 -12 10.25 1.8
10 12 -11 9.19 1.19
11 10 -12 6.88 1.18
10 -12 11 8.77 1.09
-10 -12 -11 11.36 1.52
12 11 -10 8.91 1.2
10 12 -11 9.62 2.01
-11 -10 -12 12.76 1.82
12 11 -10 11.15 1.54
10 -12 -11 9.63 1.31
-12 -11 10 8.47 1.48
11 -10 -12 10.01 1.34
10 -12 -11 6.79 1.11
-10 -12 11 9.64 1.5
12 -11 -10 8.01 1.19
-11 -10 12 7.57 1.42
12 -11 -10 9.24 1.12
11 -10 -12 9.58 1.21
12 0 -11 0.82 0.68
-11 -12 0 -0.07 0.77
12 0 -11 0.39 0.78
11 12 0 0.01 0.71
11 -12 0 1.02 0.58
-12 0 11 0.18 0.78
11 -12 0 1.02 0.83
0 -11 12 1.13 0.9
0 -11 -12 0.2 0.92
12 1 -11 9.91 1.26
12 1 -11 8.06 1.01
-12 1 11 8.84 1.25
11 -12 1 9.9 1.24
-11 -12 -1 11.16 1.32
-1 -11 -12 13.2 1.42
1 -11 12 11.27 1.55
11 -12 1 9.89 0.95
11 12 -1 8.83 1.1
1 11 -12 11.82 0.85
12 -1 -11 9.32 0.97
1 -11 -12 8.82 1.27
11 -12 -1 8.48 0.99
-1 -11 12 9.76 1.39
11 12 1 11.62 1.11
-12 -1 11 10.6 1.28
11 -12 -1 9.93 1.36
-11 -12 1 10.31 1.25
12 -1 -11 8.81 1.17
2 -11 12 1.71 0.91
11 -12 2 2.58 0.89
11 -12 2 2.88 0.65
2 11 -12 2.08 0.57
12 2 -11 2.76 0.74
11 12 -2 2.22 0.78
-12 2 11 2.33 0.87
-11 -12 -2 3.26 0.87
-2 -11 -12 1.39 0.89
12 2 -11 2.47 0.96
2 -11 -12 2.25 0.62
11 -12 -2 1.95 0.85
-12 -2 11 2.29 0.82
12 -2 -11 1.24 0.89
12 -2 -11 2.04 0.63
2 -11 -12 1.84 0.92
11 -12 -2 2.02 0.65
-11 -12 2 4.81 0.87
11 12 2 1.82 0.71
-2 -11 12 1.68 1.05
-12 3 11 0.83 0.88
11 -12 3 1.37 0.6
12 3 -11 0.01 0.8
12 3 -11 1.02 0.55
-11 -12 -3 -0.16 0.79
3 11 -12 -0.02 0.51
-3 -11 -12 1.65 0.99
11 -12 3 1.25 0.91
11 12 -3 -0.31 0.66
3 -11 12 0.25 0.85
3 -11 -12 1.31 0.66
-11 -12 3 0.92 0.81
3 -11 -12 1.25 0.94
11 -12 -3 1.95 0.67
12 -3 -11 0.57 0.82
12 -3 -11 0.28 0.5
11 12 3 0.93 0.65
11 -12 -3 0.67 0.79
-3 -11 12 1.19 1.02
-12 -3 11 0.01 0.82
-11 -12 -4 30.07 1.76
4 -11 12 33.46 2.04
11 -12 4 31.77 1.44
11 12 -4 29.73 1.57
12 4 -11 30.2 1.66
12 4 -11 31.1 1.83
-12 -4 -11 34.04 1.95
4 11 -12 31.42 1.42
-4 -11 -12 30.99 2.02
11 12 -4 30.84 1.72
4 -11 -12 33.64 2.14
11 -12 -4 33.41 1.91
-11 -12 4 29.55 1.82
4 -11 -12 32.36 1.56
-4 -11 12 27.82 2.06
12 -4 -11 32.48 1.94
11 -12 -4 32.77 1.55
-12 -4 11 31.38 1.86
12 -4 -11 31.44 1.32
11 12 4 32.75 1.75
-11 -12 -5 2.31 0.88
12 5 -11 1.67 0.93
-5 -11 -12 1.7 1
11 12 -5 0.98 0.74
5 -11 12 2.4 1.02
5 11 -12 1.48 0.6
12 5 -11 2.46 0.77
-12 -5 -11 0.65 0.79
11 -12 5 1.15 0.62
11 12 -5 1.47 0.74
11 -12 -5 2.39 0.7
-11 -12 5 2.61 0.96
12 -5 -11 1.81 0.96
5 -11 -12 1.83 0.72
5 -11 -12 1.3 1.02
-12 -5 11 3.62 0.98
11 12 5 1.3 0.68
11 -12 -5 2.39 0.9
12 -5 -11 0.93 0.57
-5 -11 12 1.67 1.03
11 12 -6 0.03 0.73
11 -12 6 1.74 0.66
6 -11 12 1.32 0.91
-12 -6 -11 0.78 0.91
6 11 -12 0.88 0.6
12 6 -11 2.13 0.91
-11 -12 -6 2.03 0.94
11 12 -6 1.24 0.87
12 6 -11 1.81 0.83
-6 -11 -12 1.2 0.99
12 -6 -11 1.97 0.99
6 -11 -12 2.45 0.79
12 -6 -11 1.82 0.63
-12 -6 11 1.45 0.97
6 -11 -12 1.47 1.06
11 12 6 1.68 0.74
11 -12 -6 2.58 0.99
-11 -12 6 0.78 0.94
-6 -11 12 1.78 1.08
11 -12 -6 0.64 0.74
11 12 -7 20.26 1.44
7 11 -12 20.15 1.34
11 -12 7 20.73 1.25
12 7 -11 21.5 1.71
12 7 -11 20.12 1.61
-11 -12 -7 23.38 1.72
7 -11 12 19.42 1.6
-7 -11 -12 21.94 1.88
11 12 -7 20.87 1.54
-12 -7 -11 20.56 1.67
12 -7 -11 21.64 1.27
12 -7 -11 20.51 2.08
11 -12 -7 23.38 1.7
11 -12 -7 17.29 1.46
-11 -12 7 21.33 1.75
7 -11 -12 21.3 1.86
-12 -7 11 25.38 1.8
7 -11 -12 20.31 1.48
-7 -11 12 20.82 1.93
-8 -11 -12 0.41 1.06
11 12 -8 2.66 0.89
12 8 -11 2.21 0.97
12 8 -11 2.76 1.28
11 12 -8 1.81 0.87
8 -11 12 3.68 1.05
8 11 -12 2.66 0.8
-12 -8 -11 3.83 1.12
11 -12 8 2.16 0.76
-11 -12 -8 1.43 1.02
-11 -12 8 0.15 1.04
8 -11 -12 1.68 1.05
-8 -11 12 3 1.23
8 -11 -12 2.83 0.98
-12 -8 11 0.33 1.07
12 -8 -11 0.87 0.94
12 -8 -11 1.82 0.76
11 -12 -8 -0.74 1.63
11 -12 -8 3.06 0.91
12 9 -11 2.2 1.16
-12 -9 -11 -0.52 1.12
12 9 -11 1.04 0.95
11 12 -9 1.3 1.01
-11 -12 -9 2.69 1.12
9 11 -12 1.6 1.03
-9 -11 -12 2.8 1.08
11 12 -9 2.24 0.93
11 -12 9 1.41 0.77
9 -11 12 1.21 0.94
9 11 -12 2.13 0.82
-12 -9 11 1.99 1.17
12 -9 -11 2.55 0.86
11 -12 -9 3.25 0.94
9 -11 -12 2.2 1.09
-9 -11 12 0.44 1.06
11 -12 -9 2.53 0.89
12 -9 -11 2.01 0.83
-11 -12 9 2.8 1.2
10 -11 12 10.03 1.15
10 11 -12 10.78 1.44
11 12 -10 9.48 1.22
-11 -12 -10 11.69 1.49
-10 -11 -12 11.17 1.55
12 10 -11 8.47 1.18
12 10 -11 9.66 1.46
11 -12 -10 10.67 1.43
11 -12 -10 9.64 1.2
10 -11 -12 9.73 1.32
12 -10 -11 9.85 1.38
-10 -11 12 10.56 1.47
10 -11 -12 9.63 1.31
-12 -10 11 10.78 1.52
12 -10 -11 8.35 1.22
-11 -12 10 11.6 1.62
12 11 -11 4.7 1.39
-11 -12 -11 5.32 1.34
11 11 -12 2.78 1.25
-11 -11 -12 1.18 1.26
12 11 -11 2.53 0.97
11 12 -11 2.71 1.02
11 12 -11 5.87 1.3
11 11 -12 2.87 1.05
11 -11 -12 2.59 1.1
11 -11 -12 6.43 1.09
-11 -12 11 5.24 1.4
11 -12 -11 1.86 0.95
11 -12 -11 4.95 1.17
12 -11 -11 3.33 0.98
12 -11 -11 4.4 1.05
-11 -11 12 2.35 1.38
-12 -11 11 2.81 1.36
-12 -12 0 31.08 1.83
-12 0 12 28.39 1.78
0 -12 -12 28.29 2.05
0 -12 12 29.46 1.97
12 -12 0 28.94 1.84
12 -12 0 29.08 1.22
12 0 -12 27.94 1.91
12 0 -12 27.19 1.53
12 12 0 28.35 1.67
-12 -12 -1 12.78 1.39
1 -12 12 13.85 1.56
12 1 -12 14.94 1.55
-12 1 12 14.38 1.52
-1 -12 -12 14.52 1.55
12 12 -1 13.17 1.28
12 -12 1 13.52 1.43
12 1 -12 13.59 1.1
12 -12 -1 13.64 1.59
-12 -12 1 16.56 1.44
1 -12 -12 15.69 1.6
12 -1 -12 13.84 1.58
12 -1 -12 15.24 0.9
12 -1 -12 13.92 1.11
-12 -1 12 16.62 1.52
12 -12 -1 15.05 0.95
-1 -12 12 15.37 1.62
12 12 1 14.23 1.21
-12 -12 -2 0.88 0.88
12 2 -12 1.78 0.67
12 12 -2 5.13 0.98
-12 2 12 2.22 0.89
-2 -12 -12 2.28 1.07
12 2 -12 3.22 1.02
12 -12 2 2.48 1.01
2 12 -12 3.84 0.62
2 -12 12 1.88 1.1
2 -12 -12 3.16 1.17
12 -12 -2 0.85 0.89
12 -12 -2 2.62 0.6
2 -12 -12 2.15 1.03
12 -2 -12 2.64 0.96
12 -2 -12 3.2 0.59
12 -2 -12 1.15 0.63
-2 -12 12 4.02 1.12
-12 -12 2 2.37 0.88
-12 -2 12 4.48 1.02
12 12 2 2.9 0.76
-12 -12 -3 15.7 1.47
12 3 -12 16.37 1.2
12 12 -3 15.55 1.46
-12 3 12 15.28 1.57
-3 -12 -12 15.06 1.57
12 3 -12 16.28 1.62
12 -12 3 16.62 1.69
3 12 -12 17.06 1.05
3 -12 12 14.48 1.73
3 -12 -12 18.26 1.67
12 -12 -3 15.82 1.52
12 -12 -3 17.2 1.08
3 -12 -12 15.24 1.45
12 -3 -12 17.8 1.59
12 -3 -12 17.12 1.03
12 -3 -12 15.21 1.17
-3 -12 12 14.78 1.67
-12 -12 3 18.4 1.64
-12 -3 12 20.18 1.64
12 12 3 16.41 1.31
-12 -12 -4 4.82 1.04
12 12 -4 5.49 0.91
-12 -4 -12 4.83 1.01
12 4 -12 4.83 1.21
-4 -12 -12 5.78 1.24
12 4 -12 6.41 1.04
12 12 -4 3.95 1.02
4 12 -12 7.47 0.83
4 -12 12 5.65 1.15
4 -12 -12 4.79 1.17
12 -12 -4 3.72 1.03
12 -12 -4 6.03 0.77
12 -12 -4 5.62 1.18
12 -4 -12 4.79 1.11
12 -4 -12 7.04 0.94
-12 -4 12 6 1.12
-4 -12 12 4 1.2
-12 -12 4 7.37 1.15
4 -12 -12 5 0.81
12 12 4 4.91 0.89
-12 -12 -5 0.33 0.94
12 12 -5 -0.07 0.78
-12 -5 -12 0.08 0.9
12 5 -12 2.27 0.91
-5 -12 -12 0.92 1.07
12 12 -5 1.91 0.8
12 5 -12 0.74 1.03
5 12 -12 0.65 0.59
5 -12 12 1.14 0.99
5 -12 -12 1.95 1.04
12 -12 -5 1.68 1.07
12 -12 -5 1.12 0.67
12 -5 -12 1.06 1.57
12 -5 -12 1.64 0.69
5 -12 -12 1.16 0.72
-12 -5 12 1.25 0.99
-5 -12 12 0.31 1.1
-12 -12 5 1.49 1
12 12 5 0.37 0.71
-12 -12 -6 18.16 1.75
12 6 -12 13.1 1.47
-12 -6 -12 14.51 1.7
12 12 -6 16.89 1.56
-6 -12 -12 14.94 1.64
6 12 -12 14.97 1.14
12 12 -6 14 1.35
6 -12 12 15.26 1.64
6 -12 -12 13.6 1.57
-6 -12 12 15.32 1.7
12 -12 -6 14.78 1.19
12 -6 -12 14.14 1.81
12 -6 -12 16.08 1.22
-12 -12 6 17.03 1.71
6 -12 -12 16.5 1.31
-12 -6 12 15.59 1.7
12 12 6 16.31 1.41
-12 -12 -7 11.59 1.41
12 12 -7 13.44 1.43
-12 -7 -12 11.17 1.42
12 7 -12 10.58 1.48
-7 -12 -12 15.58 1.79
12 12 -7 12.08 1.38
12 7 -12 12.66 1.57
7 12 -12 13.42 1.2
7 -12 12 10.74 1.49
7 -12 -12 13.37 1.72
12 -12 -7 14.02 1.57
12 -12 -7 12.27 1.21
12 -7 -12 10.04 1.33
12 -7 -12 9.68 1.21
7 -12 -12 11.97 1.36
-12 -7 12 12.31 1.65
-7 -12 12 11.14 1.49
-12 -12 7 13.18 1.72
-12 -12 -8 13.13 1.55
8 12 -12 12.53 1.51
-12 -8 -12 19.32 1.81
12 8 -12 12.97 1.53
-8 -12 -12 12.58 1.57
12 12 -8 12.74 1.45
8 12 -12 15.96 1.28
8 -12 12 13.98 1.62
8 -12 -12 15.74 1.76
-12 -12 8 17.96 1.82
8 -12 -12 15.58 1.58
12 -12 -8 15.86 1.46
12 -12 -8 10.77 1.33
12 -8 -12 14.1 1.46
12 -8 -12 14.3 1.32
-12 -8 12 17.07 1.88
-8 -12 12 13.39 1.71
9 12 -12 3.44 1.14
12 9 -12 5.74 1.12
-9 -12 -12 4.47 1.29
12 12 -9 5.7 1.39
12 9 -12 4.39 1.27
9 12 -12 4.59 1.11
9 -12 12 3.75 1.06
9 -12 -12 5.03 1.21
9 -12 -12 3.15 0.89
12 -12 -9 4.32 1.06
12 -12 -9 4.68 0.98
12 -9 -12 3.86 1.03
12 -9 -12 3.64 0.99
-12 -9 12 4.28 1.3
-12 -12 9 4.25 1.3
-9 -12 12 2.62 1.35
10 12 -12 30.08 2.06
12 10 -12 26.79 1.85
-10 -12 -12 24.68 2.19
12 12 -10 25.01 1.71
10 12 -12 24.46 1.8
10 -12 12 25.26 1.75
10 -12 -12 26.12 2.79
10 -12 -12 26.28 1.72
-12 -12 10 24.39 2.24
12 -12 -10 26.56 1.85
12 -12 -10 25.97 1.79
12 -10 -12 30.46 1.95
12 -10 -12 25.48 1.79
-12 -10 12 24.56 2.31
-10 -12 12 21.72 2.31
12 11 -12 6.43 1.15
12 11 -12 5.5 1.46
-11 -12 -12 5.84 1.43
12 12 -11 9.62 1.54
12 12 -11 6.78 1.09
11 12 -12 5.75 1.38
11 12 -12 7.73 1.19
11 -12 -12 8.24 1.38
11 -12 -12 5.16 1.08
12 -12 -11 6.61 1.18
12 -11 -12 7.03 1.2
12 -11 -12 7.19 1.18
-12 -12 11 7.18 1.63
-12 -11 12 4.71 1.51
12 -12 -11 7.36 1.2
-11 -12 12 8.02 1.64
12 12 -12 0.3 1.3
12 12 -12 1.82 0.96
12 -12 -12 1.64 1.52
12 -12 -12 -0.02 0.91
-12 -12 12 3.27 1.61
0 -13 0 0.04 0.51
0 0 13 0.74 0.61
13 0 0 1.39 0.6
13 -1 0 6.64 0.66
13 1 0 7.17 0.88
1 0 13 8.56 1.01
13 -1 0 8.05 0.91
0 -13 -1 6.51 0.89
0 -13 1 6.44 0.92
-1 0 13 6.13 0.97
-2 0 13 22.52 1.5
13 2 0 22.39 1.2
13 2 0 20.95 1.09
13 -2 0 22.95 1.24
13 -2 0 21.51 1.06
0 -13 2 20.45 1.36
2 0 13 21.83 1.45
0 -13 -2 21.54 1.36
0 13 -3 13.78 0.81
13 3 0 14.89 0.97
13 -3 0 15.06 1.14
13 3 0 15.64 1.02
-3 0 13 15.16 1.24
0 -13 -3 14.2 1.2
0 -13 3 14.75 1.21
13 -3 0 13.96 0.85
3 0 -13 14.46 1.05
3 0 13 13.02 1.24
0 -13 -4 9.92 1.11
0 -13 4 8.69 1.08
13 4 0 9.48 0.88
0 13 -4 9 0.69
4 0 -13 9.58 0.91
4 0 13 9.48 1.09
13 -4 0 9.9 1.02
13 -4 0 9.63 0.78
-4 0 13 9.91 1.21
13 4 0 10.45 0.85
13 -5 0 13.88 1.18
5 0 -13 12.16 1.06
13 -5 0 15.51 1.01
0 -13 5 14.18 1.26
5 0 13 15.69 1.12
-5 0 13 13.94 1.34
0 -13 -5 15.15 1.31
13 5 0 15.67 1.03
0 13 -5 15.43 0.8
13 5 0 14.59 1
13 6 0 9.6 0.89
0 -13 -6 9.3 1.16
0 13 -6 9.22 0.7
6 0 13 9.65 1.08
13 -6 0 9.61 1.1
-6 0 13 10.32 1.16
13 -6 0 10.36 0.79
13 6 0 10.07 0.93
0 -13 6 9.7 1.17
6 0 -13 8.31 0.99
13 7 0 1.83 0.62
0 13 -7 1.09 0.43
7 0 -13 0.14 0.65
-7 0 13 0.32 0.7
13 7 0 -0.26 0.52
0 -13 7 0.84 0.82
7 0 -13 0.75 0.74
13 -7 0 0.37 0.71
0 -13 -7 0.11 0.73
8 0 -13 42.12 2.01
-8 0 13 41.32 2.08
13 -8 0 44.56 2.08
13 8 0 45.21 2.01
8 0 -13 44.86 2.01
0 -13 -8 45.9 2.24
0 -13 8 44.16 2.21
0 -13 9 68.27 2.96
9 0 -13 66.3 2.75
9 0 -13 71.1 2.66
13 9 0 72.01 2.78
-9 0 13 68.63 2.88
0 -13 -9 65.84 2.97
13 -9 0 68.69 2.77
13 10 0 2.77 0.9
10 0 -13 3.46 0.8
13 -10 0 2.04 0.96
10 0 -13 1.7 0.63
-10 0 13 3.33 0.88
10 0 -13 2.79 0.94
0 -13 -10 2.15 0.97
0 -13 10 2.45 1.08
0 -13 11 3.59 1.1
11 0 -13 4.28 0.76
11 0 -13 3.74 1.08
13 -11 0 4.35 1.06
-11 0 13 4.82 1.03
0 -13 -11 2.44 1.14
13 11 0 5.08 0.86
11 0 -13 4.65 0.77
0 -13 -12 -0.7 0.96
13 12 0 0.47 0.7
12 0 -13 -0.85 0.5
12 0 -13 -0.58 0.59
0 -13 12 -0.4 0.99
-12 0 13 0.98 0.94
0 1 13 6.38 0.96
13 0 1 6.94 0.82
13 0 -1 7.59 0.91
13 0 1 8.35 0.71
1 -13 0 6.69 0.93
0 -1 13 7.46 0.99
-1 -13 0 7.61 0.96
13 1 -1 4.29 0.64
13 -1 1 4.41 0.6
1 13 -1 3.23 0.52
13 1 -1 4.49 0.62
1 -1 13 3.4 0.75
-1 1 13 3.69 0.77
1 -13 1 3.68 0.76
-1 -13 -1 3.96 0.74
13 -1 1 3.97 0.68
13 1 1 4.55 0.66
-1 -13 1 3.74 0.73
-1 -1 13 4.26 0.83
13 -1 -1 4.01 0.7
13 -1 -1 4.41 0.87
1 -1 -13 4.1 0.58
1 1 13 3.5 0.77
1 -13 -1 3.61 0.84
1 -13 2 13.99 1.18
-2 1 13 15.48 1.23
2 -1 13 13.43 1.26
13 -2 1 14.54 1.06
13 -2 1 14.01 0.86
-1 -13 -2 15.1 1.17
1 13 -2 14.92 0.85
13 2 -1 14.91 0.99
13 2 -1 14.84 0.92
1 -13 -2 14.89 1.21
-2 -1 13 14.14 1.21
2 -1 -13 15.47 0.97
13 2 1 13.38 0.88
13 2 1 16.23 0.99
-1 -13 2 14.99 1.19
13 -2 -1 15.75 1.16
13 -2 -1 13.72 0.85
2 1 13 14.18 1.18
13 3 -1 1.57 0.48
-1 -13 -3 0.76 0.63
1 13 -3 1.3 0.42
13 -3 1 1.52 0.52
13 -3 1 0.89 0.6
1 -13 3 1.31 0.73
-3 1 13 0.73 0.64
13 3 -1 0.55 0.51
3 -1 13 1.16 0.72
13 3 1 1.38 0.53
3 1 13 1 0.7
3 -1 -13 0.95 0.51
13 -3 -1 1.21 0.44
13 -3 -1 1.59 0.62
13 3 1 1.35 0.48
-1 -13 3 0.84 0.64
-3 -1 13 1.45 0.68
1 -13 -3 0.74 0.65
-1 -13 -4 15.14 1.23
13 4 -1 11.57 0.91
13 -4 1 13.66 1.16
1 -13 4 13.29 1.29
4 1 -13 13.95 1.1
4 -1 13 13.72 1.12
-4 1 13 13.41 1.22
13 -4 1 13.31 0.84
1 13 -4 14.04 0.8
13 4 -1 13.72 0.98
-4 -1 13 14.83 1.23
4 -1 -13 13.34 0.99
13 4 1 14.06 0.97
13 -4 -1 12.7 1.09
4 1 13 13.32 1.2
13 4 1 13.53 0.93
13 -4 -1 11.94 0.82
-1 -13 4 12.72 1.17
1 -13 -4 14.65 1.25
1 13 -5 1.76 0.45
13 5 -1 1.61 0.55
13 5 -1 1.13 0.53
5 1 -13 1.47 0.63
13 -5 1 1.61 0.69
-5 1 13 1.86 0.68
-1 -13 -5 1.29 0.74
1 -13 5 0.78 0.67
5 -1 13 1.95 0.64
13 -5 1 1.25 0.49
5 1 13 0.69 0.6
13 -5 -1 0.99 0.66
-5 -1 13 2.1 0.73
5 -1 -13 1.28 0.56
13 5 1 0.77 0.48
-1 -13 5 1.37 0.71
1 -13 -5 1.57 0.83
13 5 1 1 0.56
13 -5 -1 0.51 0.47
6 1 -13 0.02 0.61
1 -13 6 1.08 0.72
6 -1 13 -0.45 0.6
13 6 -1 -0.66 0.52
-6 1 13 -0.16 0.72
13 -6 1 -0.55 0.63
-1 -13 -6 -0.32 0.66
13 6 -1 0.35 0.54
1 13 -6 -0.06 0.42
-1 -13 6 -0.53 0.61
6 -1 -13 0.24 0.67
-6 -1 13 -0.45 0.7
1 -13 -6 -0.03 0.68
13 -6 -1 0.25 0.68
13 -6 -1 0.3 0.46
6 -1 -13 0.13 0.59
-7 1 13 18.25 1.37
1 -13 7 18.18 1.42
13 -7 1 18.61 1.35
7 -1 13 17.57 1.23
7 1 -13 17.49 1.3
13 7 -1 18.5 1.11
-1 -13 -7 19.11 1.44
1 13 -7 17.19 0.93
13 7 -1 17.99 1.18
7 -1 -13 19.26 1.38
-7 -1 13 19.98 1.53
-13 -7 1 18.53 1.68
1 -13 -7 19.33 0.98
13 7 1 16.01 1.12
-1 -13 7 18.05 1.54
13 -7 -1 16.66 1.42
7 -1 -13 18.08 1.28
1 -13 -7 18.68 1.45
-1 -13 -8 1.78 0.84
1 13 -8 2.46 0.49
13 -8 1 2.61 0.85
8 1 -13 1.31 0.75
8 1 -13 2.84 0.83
13 8 -1 2.56 0.67
1 -13 8 2.35 0.89
13 8 -1 3.19 0.66
-8 1 13 2.23 0.79
8 -1 -13 2.71 0.84
13 8 1 0.88 0.53
13 -8 -1 1.94 0.85
1 -13 -8 2.09 0.97
-8 -1 13 3.57 0.95
-1 -13 8 2.38 0.85
1 -13 -8 2.62 0.53
-13 -8 1 3.18 0.78
8 -1 -13 2.08 0.83
13 -9 1 0.05 0.81
-1 -13 -9 0.38 0.8
9 1 -13 -0.12 0.69
9 1 -13 0.75 0.82
1 -13 9 -0.97 0.85
9 1 -13 -0.91 0.47
-9 1 13 -0.95 0.79
-9 -1 13 0.39 0.74
13 -9 -1 -0.64 0.77
-13 -9 1 -0.26 0.75
1 -13 -9 0.19 0.85
9 -1 -13 -0.27 0.72
13 9 1 0.71 0.64
-1 -13 9 0.21 0.91
9 -1 -13 -0.28 0.68
13 -10 1 3.07 0.99
-1 -13 -10 3.07 1.06
10 1 -13 2.74 0.79
1 -13 10 3.09 1
-10 1 13 4.88 1.01
10 1 -13 3.99 1.04
13 10 -1 4.01 0.86
10 1 -13 3.43 0.78
1 -13 -10 2.72 1
13 -10 -1 3.88 0.95
10 -1 -13 5.15 0.82
10 -1 -13 3.31 0.93
-1 -13 10 3.35 1.02
-10 -1 13 3.13 0.92
-13 -10 1 5 1.03
13 10 1 4.06 0.95
13 -11 1 -0.04 0.93
-11 1 13 0.56 0.93
-1 -13 -11 -1.33 0.95
11 1 -13 0.02 0.56
1 -13 11 -1.48 0.9
11 1 -13 -0.26 0.65
11 1 -13 1.11 0.96
13 11 -1 0.15 0.61
11 -1 -13 -0.6 0.84
11 -1 -13 0.06 0.53
-11 -1 13 0.46 0.88
-1 -13 11 -0.7 0.87
1 -13 -11 -0.16 0.94
11 -1 -13 -0.68 0.65
13 11 1 -0.55 0.6
13 -11 -1 0.42 0.98
12 1 -13 2.08 0.64
13 12 -1 1.52 0.76
1 -13 12 1.62 1.06
-1 -13 -12 1.23 1.07
-12 1 13 0.9 0.93
12 -1 -13 0.24 0.6
12 -1 -13 2.05 0.63
13 12 1 1.91 0.78
1 -13 -12 2.01 1.22
-12 -1 13 2.08 1.04
-1 -13 12 3.32 1.18
13 0 -2 20.58 1.19
0 -2 13 20.14 1.38
0 2 13 20.79 1.39
13 0 -2 18 1.01
13 0 2 21.66 1.07
0 -2 -13 21.82 1.06
-2 -13 0 21.63 1.33
13 0 2 22.16 1.19
2 -13 0 21.84 1.37
2 13 0 21.01 1.04
13 1 -2 15.26 1.07
13 -1 2 16.37 1.08
-1 2 13 14.29 1.22
1 -2 13 12.98 1.18
2 -13 1 15.5 1.28
13 1 -2 14.91 0.92
-2 -13 -1 15.69 1.17
2 13 -1 14.98 0.88
13 -1 2 15.92 0.9
1 -2 -13 15.54 0.95
13 -1 -2 15.48 1.12
-1 -2 13 14.78 1.22
1 2 13 15.21 1.21
-13 -1 2 14.84 0.77
13 1 2 14.74 1
2 -13 -1 15.35 1.29
-2 -13 1 15.27 1.24
-2 -13 -2 -0.17 0.57
-2 2 13 0.24 0.63
13 -2 2 -0.59 0.52
2 -13 2 0.19 0.67
13 2 -2 0.64 0.54
13 2 -2 0.08 0.39
2 -2 13 -0.02 0.62
13 -2 2 0.17 0.45
2 13 -2 -0.15 0.36
-2 -2 13 -0.55 0.55
2 -13 -2 -0.93 0.52
2 2 13 -0.5 0.59
13 -2 -2 0.33 0.6
13 2 2 -0.1 0.41
2 -2 -13 0.16 0.42
-2 -13 2 0.93 0.64
13 2 2 -0.45 0.49
2 13 -3 22.93 1.22
3 -2 13 25.87 1.49
2 -13 3 25.31 1.5
13 3 -2 25.65 1.28
13 3 -2 25.24 1.3
13 -3 2 27.64 1.37
13 -3 2 27.27 1.17
-2 -13 -3 27.4 1.54
-3 2 13 27.71 1.59
13 3 2 27.78 1.31
13 -3 -2 27.34 1.35
13 -3 -2 25.46 1.48
2 -13 -3 28.57 1.59
3 -2 -13 26.86 1.33
-2 -13 3 25.82 1.57
3 2 13 28.03 1.55
13 3 2 25.97 1.25
-3 -2 13 25.63 1.55
2 13 -4 12.94 0.78
2 -13 4 13.62 1.2
13 4 -2 13.06 0.96
13 -4 2 11.67 1.04
13 -4 2 11.86 0.81
-2 -13 -4 11.64 1.14
13 4 -2 12.22 0.91
-4 2 13 11.77 1.18
4 2 -13 11.63 0.99
4 -2 13 12.11 1.18
13 4 2 13.25 0.93
4 2 13 12.31 1.07
13 -4 -2 12.78 1.17
-2 -13 4 14.03 1.27
13 -4 -2 11.8 0.81
-4 -2 13 12.08 1.18
2 -13 -4 12.01 0.8
13 4 2 11.85 0.93
2 -13 -4 10.35 1.28
4 -2 -13 11.92 0.94
-5 2 13 6.07 0.96
13 -5 2 7.26 0.98
2 13 -5 6.15 1.12
5 2 -13 6.84 0.91
5 -2 13 6.13 0.85
2 -13 5 4.72 0.91
-2 -13 -5 5.51 0.93
13 5 -2 6.89 0.81
13 5 -2 6.8 0.83
13 -5 2 7.41 1.04
-5 -2 13 5 0.9
5 -2 -13 5.7 0.77
13 -5 -2 6.26 0.89
2 -13 -5 6.47 0.7
-13 -5 2 5.07 0.73
-2 -13 5 5.41 0.93
13 5 2 6.67 0.82
2 -13 -5 6.94 1.03
5 -2 -13 5.64 0.86
13 -5 -2 6.14 0.66
13 5 2 7.38 0.75
2 -13 6 -0.31 0.65
13 6 -2 1.08 0.55
2 13 -6 1.46 0.44
13 -6 2 1.25 0.68
6 -2 13 0.59 0.68
-6 2 13 1.32 0.73
13 6 -2 1.14 0.53
-2 -13 -6 0.63 0.69
6 2 -13 1.73 0.66
-2 -13 6 1.06 0.69
6 -2 -13 1.44 0.71
-13 -6 2 1.8 0.55
13 6 2 1.13 0.57
13 -6 -2 0.82 0.69
2 -13 -6 0.5 0.5
6 -2 -13 1.74 0.77
2 -13 -6 1.19 0.8
-6 -2 13 0.43 0.76
13 -6 -2 1.1 0.5
2 -13 7 9.72 1.38
2 13 -7 12.08 0.8
13 -7 2 11.68 1.22
13 7 -2 12.56 1
13 7 -2 12.1 1.03
-7 2 13 12.15 1.31
-2 -13 -7 11.95 1.27
7 -2 13 11.52 1.09
7 2 -13 11.79 1.16
2 -13 -7 10.49 1.27
13 -7 -2 12.29 0.86
2 -13 -7 12.45 0.86
-2 -13 7 12.95 1.31
13 7 2 12.82 1.01
-7 -2 13 11.3 1.31
13 -7 -2 12.35 1.23
7 -2 -13 11.62 1.14
7 -2 -13 13.13 1.28
-13 -7 2 10.9 1.02
8 2 -13 19.19 1.18
13 8 -2 18.13 1.17
13 -8 2 19.94 1.55
2 13 -8 17.66 0.98
8 -2 13 20.57 1.21
8 2 -13 18.47 1.4
13 8 -2 20.84 1.36
-8 2 13 17.48 1.55
2 -13 8 18.75 1.49
-2 -13 -8 14.6 1.46
2 -13 -8 18.83 1.54
13 -8 -2 20.09 1.08
-13 -8 2 22.81 1.29
2 -13 -8 19.64 1.08
-2 -13 8 19.15 1.66
13 8 2 19.13 1.27
8 -2 -13 21.41 1.47
8 -2 -13 21.15 1.45
13 -8 -2 20.61 1.5
-8 -2 13 20.6 1.59
9 2 -13 2.46 0.78
13 9 -2 1.7 0.74
9 2 -13 2.15 0.86
13 9 -2 3.07 0.73
9 2 -13 0.76 0.54
2 13 -9 1.96 0.52
-2 -13 -9 0.26 0.9
2 -13 9 1.65 0.9
13 -9 2 1.15 0.8
-9 2 13 1.67 0.81
-2 -13 9 2.68 0.94
-13 -9 2 2.56 0.79
9 -2 -13 0.62 0.75
2 -13 -9 2.16 0.56
13 9 2 1.29 0.62
2 -13 -9 1.02 0.92
9 -2 -13 1.39 0.8
-9 -2 13 2.48 0.87
13 -9 -2 2.35 0.75
13 -9 -2 2.26 0.89
10 2 -13 0.6 0.86
-10 2 13 2.11 0.9
-2 -13 -10 1.29 0.99
13 -10 2 1.71 0.91
2 13 -10 1.26 0.53
10 2 -13 1.59 0.74
2 -13 10 1.92 0.99
13 10 -2 0.64 0.6
10 2 -13 2.18 0.73
13 -10 -2 1.83 0.95
2 -13 -10 2.9 0.62
2 -13 -10 2.39 1.1
-2 -13 10 1.46 0.97
10 -2 -13 0.83 0.87
-13 -10 2 2.46 0.88
10 -2 -13 2.24 0.75
-10 -2 13 1.68 0.87
13 10 2 1.51 0.79
2 -13 11 7.78 1.37
13 -11 2 6.23 1.13
13 11 -2 6.88 1
11 2 -13 7.76 1.21
11 2 -13 9.3 1.07
2 13 -11 6.45 0.83
-11 2 13 7.88 1.2
11 2 -13 6.92 0.9
-2 -13 -11 6.7 1.28
-11 -2 13 9.77 1.27
13 -11 -2 6.78 1.16
13 11 2 8.98 1.14
-13 -11 2 8.96 1.32
2 -13 -11 7.58 1.27
11 -2 -13 6.89 1.17
-2 -13 11 8.52 1.28
11 -2 -13 9.49 1.08
2 -13 12 5.81 1.37
13 12 -2 8.24 1.09
-2 -13 -12 6.5 1.28
12 2 -13 5.73 0.87
13 -12 2 5.94 1.95
-12 2 13 5.84 1.2
-2 -13 12 5.22 1.37
-12 -2 13 6.87 1.19
12 -2 -13 6 0.75
13 12 2 4.95 0.91
12 -2 -13 6.23 0.94
12 -2 -13 5.31 1.85
2 -13 -12 4.56 1.26
3 -13 0 14.15 1.19
-13 0 3 13.77 0.82
0 -3 13 13.95 1.21
0 3 13 15.45 1.25
13 0 -3 13.33 0.86
0 -3 -13 15.04 0.89
13 0 3 13.83 0.87
13 0 -3 14.05 1.05
3 13 0 12.69 0.83
13 0 3 14.52 0.97
-3 -13 0 15 1.24
13 -1 3 0.86 0.45
-1 -3 -13 1.66 0.44
1 -3 13 1.53 0.7
-1 3 13 1.02 0.68
13 1 -3 0.92 0.45
13 1 -3 1.24 0.58
13 -1 3 1.36 0.55
-3 -13 -1 0.38 0.59
3 -13 1 0.96 0.67
3 13 -1 1.4 0.42
1 -3 -13 1.24 0.49
13 1 3 0.72 0.53
13 -1 -3 1.66 0.6
13 -1 -3 1.13 0.46
3 13 1 1.54 0.43
-3 -13 1 1.48 0.62
13 1 3 1.83 0.55
-13 -1 3 1.07 0.45
-1 -3 13 0.85 0.65
3 -13 -1 1.03 0.64
1 3 13 0.91 0.63
13 2 -3 26.69 1.36
3 -13 2 25.53 1.58
13 2 -3 25.47 1.29
2 -3 13 25.03 1.5
-2 -3 -13 26.43 1.15
-2 3 13 27.02 1.57
3 13 -2 26.82 1.2
13 -2 3 25.42 1.28
-3 -13 -2 26.68 1.57
13 -2 3 26.57 1.32
13 2 3 27.67 1.23
2 3 13 28.34 1.59
-13 -2 3 24.6 1.06
3 -13 -2 25.9 1.21
3 -13 -2 25.86 1.62
2 -3 -13 26.99 1.26
13 -2 -3 25.88 1.38
-3 -13 2 24.6 1.47
-2 -3 13 25.71 1.54
13 3 -3 44.33 1.81
13 -3 3 45.23 1.9
3 -3 13 45.5 2.08
3 13 -3 44.08 1.7
-3 3 13 46 2.1
3 -13 3 44.63 2.09
13 -3 3 46.67 1.65
-3 -13 -3 45.77 2.11
13 3 -3 44.37 1.84
13 3 3 47.38 1.73
3 -3 -13 45.9 1.79
13 -3 -3 44.61 1.94
3 -13 -3 45.85 2.13
3 -3 -13 43.6 2.02
-3 -3 13 45.44 2.1
3 -13 -3 45.27 1.72
13 3 3 45.59 1.77
-3 -13 3 45.44 2.04
-13 -3 3 42.73 1.56
-3 -13 -4 10.85 1.12
13 4 -3 11.45 0.9
3 13 -4 10.06 0.74
4 -3 13 9.79 1.14
3 -13 4 9.54 1.18
13 -4 3 9.36 0.77
13 -4 3 10.89 1.03
13 4 -3 9.6 0.91
-4 3 13 9.45 1.24
-4 -3 13 9.98 1.16
4 -3 -13 10.27 1.2
-3 -13 4 9.44 1.07
3 -13 -4 10.06 0.74
13 -4 -3 9.4 1.08
13 4 3 8.2 0.84
4 -3 -13 10.1 0.95
-13 -4 3 9.03 0.77
3 -13 -4 9.31 1.12
-5 3 13 11.13 1.35
13 -5 3 14.05 1.15
3 13 -5 12.43 0.81
3 -13 5 12.15 1.19
-3 -13 -5 12.32 1.32
13 5 -3 13.17 0.98
5 -3 13 13.91 1.2
13 5 -3 13.97 0.98
5 3 -13 13.14 1.1
13 5 3 12.51 0.93
13 -5 -3 12.4 1.21
3 -13 -5 11.49 0.86
-13 -5 3 13.22 0.9
-5 -3 13 14 1.27
5 -3 -13 12.56 1.26
13 5 3 12.98 0.94
3 -13 -5 11.59 1.36
5 -3 -13 12.54 1.03
-3 -13 5 13.64 1.24
13 6 -3 1.5 0.64
13 6 -3 0.34 0.51
6 -3 13 2.29 0.71
3 13 -6 1.36 0.46
3 -13 6 1.81 0.78
-3 -13 -6 1.7 0.77
13 -6 3 0.36 0.67
6 3 -13 0.78 0.73
-6 3 13 1.21 0.77
-13 -6 3 2.67 0.57
-6 -3 13 2.19 0.79
3 -13 -6 2.06 0.81
3 -13 -6 2.2 0.51
13 -6 -3 1.23 0.73
13 6 3 2.02 0.61
6 -3 -13 0.75 0.62
-3 -13 6 1.52 0.75
6 -3 -13 1.45 0.8
13 7 -3 6.09 0.85
7 3 -13 5.51 0.94
3 13 -7 6.11 0.68
13 -7 3 7.65 1.04
3 -13 7 6.05 1.09
13 7 -3 7.04 0.83
-3 -13 -7 7.13 1.1
7 -3 13 8.11 1.06
-7 3 13 6.6 0.99
7 3 -13 5.33 0.73
13 -7 -3 6.72 1
-13 -7 3 7.59 0.98
7 -3 -13 6.66 0.99
-3 -13 7 6.85 1.04
3 -13 -7 6.17 1.09
7 -3 -13 7.02 0.92
13 7 3 6.09 0.85
-7 -3 13 7.42 1.07
3 -13 -7 5.8 0.78
-3 -13 -8 121.34 4.27
13 8 -3 118.62 4.06
3 13 -8 117.03 3.73
13 -8 3 116.18 4.08
8 3 -13 116.08 3.97
13 8 -3 116.75 3.76
-8 3 13 115.61 4.16
8 -3 13 123.68 3.86
8 3 -13 118.06 4.09
3 -13 8 117.11 4.18
8 -3 -13 111.75 4.03
-8 -3 13 117.68 4.18
-13 -8 3 118.93 3.84
13 -8 -3 112.69 4.1
8 -3 -13 124.74 4.16
13 8 3 125.2 4.07
3 -13 -8 118.03 3.72
-3 -13 8 113.97 4.22
3 -13 -8 121.91 4.33
13 -9 3 8.79 1.16
9 3 -13 8.51 1.13
13 9 -3 9.41 1.08
3 -13 9 8.9 1.28
13 9 -3 8.67 1.06
9 3 -13 7.23 1.06
3 13 -9 7.82 0.78
9 3 -13 9.8 0.96
-3 -13 -9 8.55 1.18
-9 3 13 7.6 1.17
-13 -9 3 8.64 0.98
3 -13 -9 7.42 1.19
3 -13 -9 8.37 0.96
13 9 3 9 1.05
9 -3 -13 7.71 1.07
9 -3 -13 8.31 1.14
-9 -3 13 7.25 1.2
13 -9 -3 7.09 1.14
-3 -13 9 8.66 1.2
13 10 -3 1.06 0.75
10 3 -13 1.12 0.86
3 13 -10 1.19 0.54
13 10 -3 1.23 0.64
3 -13 10 0.52 0.98
10 3 -13 0.63 0.71
10 3 -13 0.05 0.62
-3 -13 -10 -0.45 0.8
13 -10 3 0.58 0.9
-10 3 13 2.16 0.91
-3 -13 10 1.75 0.95
13 10 3 1.68 0.65
3 -13 -10 0.13 0.97
10 -3 -13 0.04 0.76
-10 -3 13 0.31 0.89
13 -10 -3 0.79 0.88
-13 -10 3 0.47 0.87
10 -3 -13 1.58 0.76
3 -13 -10 0.27 0.61
-11 3 13 6.08 1.13
11 3 -13 6.26 1.03
13 -11 3 7.51 1.23
11 3 -13 6.7 1.27
11 3 -13 6.38 0.82
3 13 -11 5.8 0.72
-3 -13 -11 7.2 1.22
13 11 -3 5.47 1
3 -13 11 7.6 1.31
11 -3 -13 5.31 1.17
13 -11 -3 4.89 1.12
3 -13 -11 5.69 1.21
13 11 3 8.41 1.09
11 -3 -13 7.67 1.09
-3 -13 11 5.07 1.19
3 -13 -11 7.61 1.06
-11 -3 13 7.79 1.17
-13 -11 3 5.16 1.21
13 -12 3 8.89 1.32
13 12 -3 7.97 1.21
-12 3 13 9.57 1.32
3 -13 12 9.31 1.44
12 3 -13 9.26 1.39
12 3 -13 8.05 1.05
3 13 -12 10.02 0.96
-3 -13 -12 6.24 1.27
12 -3 -13 7.77 1.2
3 -13 -12 8.91 1.05
-12 -3 13 9.87 1.34
-3 -13 12 12.86 1.69
-13 -12 3 9.84 1.4
3 -13 -12 7.66 1.43
12 -3 -13 9.29 1.03
13 -12 -3 7.2 1.37
13 12 3 8.72 1.11
12 -3 -13 8.25 0.97
0 -4 -13 9 0.75
13 0 -4 9.09 1.02
0 -4 13 10.71 1.14
4 -13 0 7.83 1
-13 0 4 9.99 0.76
13 0 -4 7.99 0.73
13 0 4 9.34 0.92
13 0 4 9.92 0.75
-4 -13 0 7.59 0.96
4 13 0 9.94 0.74
4 13 -1 12.78 0.83
13 1 -4 13.4 0.9
-4 -13 -1 12 1.06
13 1 -4 13.25 1.03
1 -4 13 13.72 1.22
4 -13 1 14.86 1.29
13 -1 4 14.07 1.03
-1 4 13 13.04 1.22
-13 1 4 13.78 0.87
-1 -4 -13 13.38 0.84
13 -1 4 14.79 0.87
4 13 1 12.93 0.9
4 -13 -1 15.26 1.28
-4 -13 1 14.53 1.12
1 -4 -13 14.14 0.89
1 -4 -13 13.22 1.18
4 -13 -1 13.86 0.94
13 -1 -4 12.77 1.12
13 1 4 12.99 0.97
-13 -1 4 13.31 0.85
13 -1 -4 12.84 0.86
13 1 4 13.34 0.99
-1 -4 13 15.84 1.29
13 2 -4 11.19 0.97
-2 -4 -13 12.5 0.81
4 -13 2 8.86 1.04
13 -2 4 12.67 0.98
2 -4 13 11.89 1.16
13 2 -4 11.42 0.86
-4 -13 -2 11 1.13
13 -2 4 11.21 0.82
4 13 -2 12.67 0.84
-2 4 13 11.37 1.17
-2 -4 13 13.04 1.2
4 13 2 11.7 0.88
-13 -2 4 11.03 0.81
2 -4 -13 11.56 1.15
2 -4 -13 12.25 0.86
13 2 4 11.9 0.94
-4 -13 2 11.12 1.05
13 -2 -4 12.29 1.07
4 -13 -2 13.55 1.17
13 -2 -4 12 0.82
4 -13 -2 11.47 0.86
13 3 -4 8.63 0.99
13 3 -4 8.04 0.8
-4 -13 -3 11.2 1.14
13 -3 4 9.4 0.76
3 -4 13 9.88 1.18
4 -13 3 8.49 1.04
-3 -4 -13 9.44 0.75
-3 4 13 10.26 1.14
4 13 -3 8.47 0.73
13 -3 4 9.56 0.98
3 -4 -13 11.37 1.24
-13 -3 4 9.26 0.8
-4 -13 3 9.33 1.02
13 3 4 9.31 0.85
4 -13 -3 9.73 0.8
13 -3 -4 10.21 1.04
4 -13 -3 10.58 1.12
3 -4 -13 9.55 0.86
-3 -4 13 10.06 1.15
13 3 4 9.53 0.92
13 -3 -4 9.44 0.78
-4 -4 -13 4.83 0.67
-4 -13 -4 6.14 0.88
-4 4 13 5.69 0.92
13 4 -4 6.35 0.77
4 -4 13 5.46 0.94
13 4 -4 6.46 0.81
13 -4 4 5.71 0.83
4 13 -4 5.87 0.62
4 -13 4 5.64 0.9
-4 -13 4 7.34 1.01
4 -4 -13 5.8 0.75
4 -13 -4 5.19 0.72
-13 -4 4 5.62 0.64
4 -13 -4 7.12 1.04
13 -4 -4 6.28 0.91
13 -4 -4 5.37 0.67
-4 -4 13 6.43 1.05
4 -4 -13 5.2 0.89
13 4 4 8.35 0.84
13 4 4 5.7 0.72
13 5 -4 25.37 1.36
5 -4 13 26.42 1.56
4 -13 5 26.17 1.65
5 4 -13 25.71 1.25
-5 -4 -13 21.34 1.47
13 -5 4 27.01 1.53
13 5 -4 26.07 1.37
-4 -13 -5 26.2 1.63
4 13 -5 25.68 1.2
-5 4 13 25.78 1.62
5 -4 -13 26.94 1.65
4 -13 -5 26.3 1.6
13 -5 -4 27.77 1.56
13 -5 -4 24.91 1.23
-5 -4 13 26.66 1.63
4 -13 -5 25.32 1.25
-13 -5 4 25.8 1.24
-4 -13 5 24.03 1.55
5 -4 -13 24.36 1.35
13 5 4 26.88 1.33
6 4 -13 0.78 0.46
-6 -4 -13 1.69 0.46
4 -13 6 1.51 0.84
-4 -13 -6 1.32 0.79
13 -6 4 1.62 0.73
4 13 -6 0.5 0.42
13 6 -4 1.46 0.59
6 4 -13 1.17 0.69
6 -4 13 1.45 0.76
-6 4 13 1.52 0.87
13 6 -4 1.37 0.63
-6 -4 13 0.5 0.77
4 -13 -6 1.18 0.85
-13 -6 4 2.16 0.63
-4 -13 6 1.04 0.74
4 -13 -6 2.36 0.57
13 6 4 1.26 0.58
13 -6 -4 1.78 0.51
13 -6 -4 1.25 0.82
6 -4 -13 1.72 0.65
6 -4 -13 1.5 0.81
13 -7 4 19.6 1.43
-7 4 13 21.83 1.54
7 4 -13 20.76 1.23
7 -4 13 22.23 1.41
13 7 -4 21.96 1.31
-4 -13 -7 22.87 1.55
7 4 -13 18.87 1.5
4 -13 7 21.18 1.52
4 13 -7 20.91 1.1
13 7 -4 20.36 1.27
7 -4 -13 22.45 1.39
13 -7 -4 22.28 1.5
-4 -13 7 20.32 1.55
13 -7 -4 20.89 1.15
-7 -4 13 23.9 1.58
-13 -7 4 21.58 1.27
4 -13 -7 25.54 1.65
4 -13 -7 21.38 1.16
13 7 4 22.79 1.33
7 -4 -13 21.68 1.53
8 4 -13 7.37 0.92
8 4 -13 8.74 1.19
4 -13 8 7.39 1.13
4 13 -8 5.38 0.7
-8 4 13 8.19 1.08
-4 -13 -8 9.05 1.13
13 8 -4 8.75 1
13 8 -4 9.27 1.07
8 -4 13 7.71 1.03
13 -8 4 7.03 1.05
13 8 4 8.03 1.02
-8 -4 13 9.04 1.19
8 -4 -13 7.81 1.08
-13 -8 4 8.74 1.13
4 -13 -8 7.95 1.18
13 -8 -4 7.55 1.08
13 -8 -4 7.92 0.86
8 -4 -13 9.41 1.1
4 -13 -8 8.58 0.93
-4 -13 8 6.45 1.16
-9 4 13 35.38 1.97
13 9 -4 37.1 1.85
4 -13 9 37.75 2.12
9 4 -13 37.38 1.82
-4 -13 -9 36.55 2.03
13 9 -4 37.17 1.83
9 -4 13 40.99 1.67
9 4 -13 38.12 2.04
4 13 -9 36.01 1.57
13 -9 4 37.99 1.99
-13 -9 4 39.13 1.87
13 -9 -4 40.53 2.14
9 -4 -13 39.39 1.91
4 -13 -9 37.53 1.73
-4 -13 9 34.43 2.05
-9 -4 13 37.04 2.01
9 -4 -13 36.36 1.87
4 -13 -9 36.45 2.09
13 9 4 37.94 1.86
13 -9 -4 35.56 1.58
10 4 -13 11.48 1.22
4 13 -10 11.88 0.91
-4 -13 -10 10.32 1.34
13 -10 4 11.17 1.52
4 -13 10 10.31 1.36
13 10 -4 11.15 1.09
10 4 -13 10 1.11
10 4 -13 11.79 1.35
13 10 -4 9.06 1.16
13 -10 -4 11.27 1.42
13 10 4 10.62 1.17
4 -13 -10 10.45 1.46
-13 -10 4 13.63 1.44
-10 -4 13 10.86 1.33
13 -10 -4 9.19 0.96
10 -4 -13 8.3 1.17
4 -13 -10 11.3 1.11
10 -4 -13 11.55 1.27
-4 -13 10 10.62 1.5
13 11 -4 4.72 1.02
11 4 -13 3.21 0.73
-4 -13 -11 4.21 1.08
4 13 -11 4.75 0.7
11 4 -13 2.51 0.86
13 11 -4 3.01 0.87
11 4 -13 3.44 1.04
4 -13 11 3.24 1.01
11 -4 -13 3.3 1.05
4 -13 -11 3.35 0.78
13 -11 -4 2.23 1.05
13 -11 -4 3.67 0.75
-11 -4 13 3.21 1.08
-13 -11 4 3.64 1.01
-4 -13 11 3.08 1.11
13 11 4 2.36 0.76
4 -13 -11 3.42 1.15
11 -4 -13 3.05 0.82
12 4 -13 6.29 1.12
4 -13 12 4.13 1.26
13 12 -4 4.26 1.1
12 4 -13 6.78 1.23
4 13 -12 5.91 0.76
-12 -4 -13 4.59 1.13
-4 -13 -12 5.23 1.27
4 -13 -12 4.05 0.87
13 -12 -4 3.77 1.06
13 12 4 5.86 1.02
12 -4 -13 5.18 0.82
12 -4 -13 4.16 1.06
-13 -12 4 5.02 1.21
-12 -4 13 8.01 1.28
4 -13 -12 5.69 1.41
-4 -13 12 5.27 1.31
13 0 5 14.95 1.18
0 -5 -13 13.19 1.2
-13 0 5 14.72 0.95
-5 -13 0 14.89 1.14
13 0 -5 13.26 1.1
13 0 5 15.23 1.05
5 -13 0 14.76 1.18
0 -5 -13 14.35 0.88
0 -5 13 16.73 1.33
13 0 -5 13.51 0.93
5 13 0 13.4 0.91
13 1 -5 1.37 0.54
-5 -13 -1 1.14 0.59
13 -1 5 0.79 0.45
-1 -5 -13 0.91 0.69
13 -1 5 2.09 0.6
-1 -5 -13 2.4 0.46
-13 1 5 0.5 0.52
1 -5 13 1.52 0.81
5 -13 1 0.93 0.71
5 13 -1 0.63 0.41
13 1 -5 1.82 0.61
13 1 5 0.61 0.59
5 -13 -1 1.34 0.54
5 13 1 0.91 0.46
13 -1 -5 0.53 0.45
-5 -13 1 1.51 0.62
1 -5 -13 0.85 0.46
5 -13 -1 0.83 0.7
13 -1 -5 1.04 0.64
1 -5 -13 1.04 0.68
-1 -5 13 1.33 0.72
-13 -1 5 0.93 0.5
-2 -5 -13 6.04 0.91
2 -5 13 7.41 1.06
13 -2 5 8.17 0.73
13 2 -5 5.17 0.71
-5 -13 -2 6.47 0.92
13 -2 5 7.46 0.86
-2 -5 -13 8.42 0.7
2 5 -13 5.12 0.62
5 13 -2 5.45 0.69
5 -13 2 6.33 0.92
13 2 -5 6.71 0.84
2 -5 -13 5.86 0.76
5 13 2 6.21 0.75
13 -2 -5 6.3 0.67
-2 -5 13 5.38 0.96
13 2 5 6.69 0.76
13 2 5 4.64 0.65
13 -2 -5 6.84 0.89
2 -5 -13 5.63 0.9
-13 -2 5 8.12 0.77
-5 -13 2 7.72 0.96
5 -13 -2 7.13 0.81
5 -13 -2 5.48 0.86
3 5 -13 11.63 0.84
5 13 -3 12.72 0.84
-3 -5 -13 11.14 1.14
13 3 -5 13.78 0.97
-3 -5 -13 13.26 0.81
13 3 -5 12.64 1.05
5 -13 3 14.14 1.16
13 -3 5 13.52 1.89
-5 -13 -3 13.33 1.13
3 -5 13 11.74 1.18
5 -13 -3 12.86 1.17
13 3 5 13.93 1.56
5 -13 -3 12.77 0.95
3 -5 -13 12.29 1.23
3 -5 -13 13.05 0.94
13 -3 -5 14.5 1.25
-5 -13 3 13.75 1.15
5 13 3 13.29 1
-13 -3 5 13.89 1.05
-3 -5 13 11.76 1.37
13 3 5 11.84 0.94
13 -3 -5 13.26 0.92
-4 -5 -13 26.47 1.54
5 -13 4 24.43 1.49
-4 -5 -13 24.9 1.11
-5 -13 -4 25.31 1.51
5 13 -4 24.9 1.22
13 -4 5 26.95 1.53
13 4 -5 25.03 1.42
4 -5 13 25.01 1.53
13 4 -5 25.22 1.33
4 5 -13 27.1 1.27
5 -13 -4 26.69 1.64
-4 -5 13 26.11 1.73
13 4 5 26.03 1.33
4 -5 -13 24.89 1.32
5 -13 -4 25.71 1.3
-5 -13 4 26.51 1.52
13 -4 -5 25.65 1.22
-13 -4 5 27.22 1.25
4 -5 -13 25.05 1.57
13 -4 -5 26.23 1.5
5 -5 13 4.23 0.88
5 -13 5 4.65 0.92
-5 -5 -13 3.53 0.79
-5 -13 -5 3.86 0.89
5 5 -13 4.33 0.6
5 13 -5 4.11 0.59
13 5 -5 3.83 0.7
13 -5 5 4.99 0.91
13 5 -5 3.95 0.74
13 -5 -5 4 0.64
-13 -5 5 3.49 0.68
-5 -5 13 4.63 0.95
5 -5 -13 4.61 0.75
5 -5 -13 5.52 0.98
5 -13 -5 4.2 0.95
13 -5 -5 4.02 0.89
-5 -13 5 3.14 0.82
13 5 5 4.05 0.7
5 -13 -5 3.52 0.68
-5 -13 -6 2.49 0.8
6 5 -13 3.2 0.61
5 -13 6 2.95 0.88
13 -6 5 2.82 0.83
13 6 -5 3.15 0.69
6 -5 13 3.13 0.83
6 5 -13 2.53 0.78
-6 -5 -13 1.61 0.73
13 6 -5 2.54 0.69
5 13 -6 2.62 0.55
6 -5 -13 2.41 0.73
-13 -6 5 3.37 0.71
-5 -13 6 1.64 0.86
5 -13 -6 1.42 0.86
13 -6 -5 1.81 0.79
5 -13 -6 2.44 0.62
13 -6 -5 4.04 0.65
-6 -5 13 3.09 0.87
6 -5 -13 3.27 0.94
13 6 5 3.15 0.69
-5 -13 -7 11.03 1.36
13 7 -5 9.48 1.06
5 -13 7 11.57 1.35
7 5 -13 8.78 1.16
7 5 -13 7.79 0.87
13 -7 5 9.04 1.26
7 -5 13 8.26 1.16
-7 -5 -13 10.78 1.25
13 7 -5 8.65 1.05
5 13 -7 8.01 0.78
5 -13 -7 8.85 1.23
13 -7 -5 8.41 1.14
13 7 5 10.55 0.97
-5 -13 7 10.39 1.25
7 -5 -13 10.67 1.18
-13 -7 5 7.37 1.05
7 -5 -13 9.13 1.07
-7 -5 13 11.52 1.29
5 -13 -7 8.98 0.99
13 -7 -5 9.84 0.89
8 5 -13 3.3 0.67
8 -5 13 4.77 0.81
13 8 -5 3.8 0.8
5 13 -8 3.64 0.58
13 -8 5 4.16 0.92
-5 -13 -8 1.35 0.88
-8 -5 -13 4.61 0.88
13 8 -5 3.37 0.84
8 5 -13 1.97 0.88
5 -13 8 2.22 0.93
13 -8 -5 3.81 0.68
-5 -13 8 5 0.99
-8 -5 13 3.39 1.02
-13 -8 5 4.64 0.85
8 -5 -13 2.32 0.85
5 -13 -8 4.22 1.08
8 -5 -13 3.09 0.81
13 8 5 4.09 0.79
5 -13 -8 4.16 0.73
13 -8 -5 3.29 0.91
5 13 -9 1.2 0.53
9 5 -13 0.64 0.65
13 9 -5 0.53 0.54
9 -5 13 1.13 0.68
-9 -5 -13 0.55 0.84
9 5 -13 1.79 0.87
-5 -13 -9 0.51 0.83
13 9 -5 0.56 0.71
5 -13 9 1.46 0.96
13 -9 -5 0.91 0.59
5 -13 -9 2.07 0.67
-9 -5 13 1.95 0.86
5 -13 -9 0.67 0.9
9 -5 -13 0.27 0.78
13 -9 -5 1.02 0.96
-13 -9 5 1.73 0.84
9 -5 -13 1.79 0.84
-5 -13 9 0.99 0.88
13 9 5 0.88 0.67
-5 -13 -10 -0.28 0.89
13 10 -5 -0.44 0.74
5 13 -10 0.89 0.54
-10 -5 -13 -0.4 0.83
10 5 -13 0.33 0.75
10 5 -13 0.1 0.88
5 -13 10 0.16 0.96
10 5 -13 -0.01 0.74
13 10 -5 -0.32 0.77
-10 -5 13 0.34 0.87
13 -10 -5 0.7 0.96
13 10 5 -0.25 0.56
-13 -10 5 1.67 0.89
13 -10 -5 1.24 0.63
10 -5 -13 -0.53 0.81
-5 -13 10 0.85 1.04
5 -13 -10 0.46 0.97
10 -5 -13 0.01 0.78
13 11 -5 1.29 0.87
11 5 -13 0.97 0.8
5 -13 11 1 1.03
13 11 -5 0.85 0.84
-5 -13 -11 0.81 0.98
5 13 -11 1.76 0.63
11 5 -13 2.78 0.76
-11 -5 -13 4.16 1.07
13 -11 -5 2.56 0.73
13 11 5 1.28 0.76
-5 -13 11 0.79 1.14
5 -13 -11 2.37 1.04
5 -13 -11 0.04 0.74
-13 -11 5 2.42 1.05
11 -5 -13 1.29 1.13
-11 -5 13 2.41 1.06
11 -5 -13 0.04 0.76
5 -13 12 -1.73 0.99
13 12 -5 -1.64 0.85
-12 -5 -13 -0.5 1.04
13 12 -5 -0.54 0.96
12 5 -13 0.22 0.9
12 5 -13 -1.06 0.86
-5 -13 -12 1.05 1.14
5 13 -12 -0.6 0.64
5 -13 -12 1.07 1.18
13 12 5 -0.15 0.73
-5 -13 12 1.78 1.22
13 -12 -5 1.01 0.72
12 -5 -13 -0.31 0.73
5 -13 -12 -0.39 0.75
-12 -5 13 0.32 1.03
-13 -12 5 -1.29 1.08
12 -5 -13 -0.33 0.8
13 -12 -5 -0.48 0.87
-6 -13 0 9.51 1.11
0 6 -13 8.3 0.69
6 -13 0 9.83 1
0 -6 -13 8.74 1.1
13 0 6 9.8 0.82
0 -6 13 8.23 1.16
13 0 -6 8.84 1.01
13 0 -6 9.47 0.83
0 -6 -13 9.77 0.75
6 -13 0 9.48 1.14
-13 0 6 7.97 0.86
6 13 0 10.8 0.89
6 -13 1 -0.69 0.6
-13 1 6 1.2 0.58
13 1 -6 0.02 0.42
13 1 -6 0.03 0.61
1 -6 13 0.21 0.65
13 -1 6 0.04 0.49
6 13 -1 0.65 0.45
-6 -13 -1 -0.38 0.55
1 6 -13 0.35 0.4
-1 -6 -13 0.49 0.44
13 -1 6 0.31 0.6
-1 -6 -13 0.17 0.62
-6 -13 1 0.07 0.58
13 -1 -6 -0.3 0.63
-13 -1 6 0.04 0.54
1 -6 -13 0.57 0.43
6 -13 -1 -0.34 0.58
13 -1 -6 0.11 0.4
1 -6 -13 0.2 0.69
-1 -6 13 0.33 0.71
6 -13 -1 -0.42 0.55
6 13 1 0.01 0.45
-2 -6 -13 0.52 0.45
13 -2 6 1.31 0.52
-2 -6 -13 0.24 0.74
-6 -13 -2 0.78 0.7
6 13 -2 0.51 0.49
6 -13 2 1.75 0.69
13 2 -6 0.81 0.65
13 -2 6 1.41 0.61
13 2 -6 1.43 0.55
2 6 -13 1.46 0.43
2 -6 13 2.24 0.84
6 13 2 0.94 0.52
-6 -13 2 1.25 0.72
13 2 6 0.45 0.47
2 -6 -13 2.49 0.53
-2 -6 13 1.37 0.76
2 -6 -13 0.39 0.76
6 -13 -2 1.52 0.57
13 -2 -6 2.2 0.73
13 -2 -6 1.12 0.46
-13 -2 6 1.24 0.6
6 -13 -2 1.53 0.76
-2 6 -13 1.4 0.42
13 3 -6 1.9 0.7
-3 -6 -13 1.89 0.47
3 6 -13 2.02 0.47
6 13 -3 2.35 0.51
-6 -13 -3 1.71 0.75
3 -6 13 1.62 0.76
-3 -6 -13 2.46 0.86
13 -3 6 1.23 0.65
13 3 -6 1.65 0.53
6 -13 3 1.22 0.75
-13 -3 6 1.65 0.59
6 -13 -3 1.93 0.59
-6 -13 3 0.86 0.72
3 -6 -13 2 0.8
13 -3 -6 1.96 0.8
13 3 6 0.65 0.52
-3 6 -13 1.06 0.45
6 13 3 1.25 0.55
3 -6 -13 1.22 0.57
6 -13 -3 1.63 0.82
-3 -6 13 1.97 0.82
13 -3 -6 1.39 0.51
-6 -13 -4 2.08 0.76
13 4 -6 1.36 0.69
6 -13 4 1.29 0.74
13 4 -6 1.15 0.53
6 13 -4 1.33 0.49
13 -4 6 1.72 0.76
4 -6 13 1.82 0.77
4 6 -13 1.05 0.44
-4 -6 -13 1.15 0.74
13 4 6 1.01 0.56
4 -6 -13 0.51 0.56
13 -4 -6 1.77 0.54
6 -13 -4 1.23 0.66
4 -6 -13 1.34 0.78
-13 -4 6 0.83 0.59
-6 -13 4 1.4 0.76
-4 -6 13 1.64 0.76
6 13 4 -0.09 0.48
13 -4 -6 1.04 0.74
6 -13 -4 1.35 0.74
5 -6 13 1.89 0.82
-6 -13 -5 1.93 0.82
-5 -6 -13 4.65 0.93
5 6 -13 3.18 0.55
6 13 -5 1.97 0.5
13 5 -6 2.7 0.78
6 -13 5 1.71 0.79
13 5 -6 2.65 0.65
-5 -6 13 2.44 0.89
6 -13 -5 2.34 0.88
6 -13 -5 2.15 0.64
-6 -13 5 2.08 0.87
13 5 6 2.27 0.67
13 -5 -6 2.6 0.82
13 -5 -6 3.37 0.64
5 -6 -13 2.38 0.67
5 -6 -13 2.86 0.9
-13 -5 6 2.31 0.65
6 13 -6 8.69 0.82
6 -6 13 10.37 1.27
6 6 -13 10.83 0.9
6 -13 6 11.21 1.29
13 6 -6 9.42 0.98
13 6 -6 9.36 1.12
-6 -13 -6 9.28 1.28
-6 -6 -13 10.4 1.19
-13 -6 6 12.42 1.12
-6 -6 13 11.78 1.44
13 6 6 10.96 0.96
6 -6 -13 8.98 1.03
-6 -13 6 10.46 1.33
6 -6 -13 9.57 1.37
13 -6 -6 9.51 0.91
6 -13 -6 10.84 1.02
6 -13 -6 10.45 1.36
13 -6 -6 10.21 1.31
13 7 -6 -0.11 0.6
6 -13 7 -0.6 0.73
6 13 -7 -0.43 0.45
7 -6 13 -0.36 0.7
7 6 -13 -0.67 0.44
-7 -6 -13 0.08 0.79
13 7 -6 -0.23 0.68
-6 -13 -7 -0.51 0.7
7 6 -13 -0.43 0.7
7 -6 -13 -0.05 0.68
13 -7 -6 -1.23 0.75
13 7 6 -0.37 0.5
-7 -6 13 0.43 0.92
-6 -13 7 -0.02 0.71
7 -6 -13 -0.19 0.8
13 -7 -6 -0.08 0.45
-13 -7 6 -0.05 0.73
6 -13 -7 -0.67 0.83
6 -13 -7 0.09 0.6
8 6 -13 3.54 0.68
13 8 -6 2.15 0.7
-6 -13 -8 4.45 0.98
13 8 -6 3.21 0.77
6 -13 8 3.93 1
6 13 -8 4.59 0.71
8 -6 13 3.33 0.81
8 6 -13 3 0.95
-8 -6 -13 4.12 0.9
13 -8 -6 2.86 0.7
6 -13 -8 3.46 0.78
8 -6 -13 3.78 0.98
8 -6 -13 2.11 0.81
13 -8 -6 3.12 0.98
-8 -6 13 2.3 0.89
13 8 6 4.47 0.84
-13 -8 6 5.03 0.92
6 -13 -8 3.28 0.94
-6 -13 8 2.48 0.98
9 6 -13 1.13 0.88
-9 -6 -13 -0.61 0.84
6 -13 9 2.02 0.99
6 13 -9 0.88 0.58
13 9 -6 0.67 0.77
-6 -13 -9 -1.34 0.85
13 9 -6 -0.06 0.69
9 6 -13 1.94 0.73
9 -6 13 0.13 0.69
13 -9 -6 0.71 0.84
-9 -6 13 0.1 0.92
-6 -13 9 0.7 0.88
9 -6 -13 0.37 0.76
6 -13 -9 -0.24 0.67
9 -6 -13 -0.54 0.81
6 -13 -9 1.53 1.03
13 -9 -6 0.5 0.57
13 9 6 0.95 0.71
-10 -6 -13 -0.39 0.86
13 10 -6 0.54 0.86
6 13 -10 0.4 0.56
10 -6 13 1.44 0.66
13 10 -6 0.93 0.79
6 -13 10 0.04 0.9
10 6 -13 0.65 0.75
10 6 -13 0.3 0.94
-6 -13 -10 0.85 0.9
6 -13 -10 0.6 0.94
10 -6 -13 -0.08 0.8
10 -6 -13 1.26 0.88
13 -10 -6 1.14 0.96
13 10 6 1.91 0.69
6 -13 -10 0.64 0.73
-13 -10 6 0.96 0.89
-6 -13 10 2.25 1.01
13 -10 -6 0.11 0.6
-10 -6 13 3.19 1.07
11 6 -13 2.33 0.85
6 13 -11 2.99 0.73
13 11 -6 2.56 0.86
11 6 -13 1.15 0.74
-11 -6 -13 2.86 1.09
11 6 -13 2.26 1.2
13 11 -6 3.42 1.01
-6 -13 -11 2.73 1.18
6 -13 11 4.84 1.13
6 -13 -11 1.08 1.03
11 -6 -13 -0.02 1.69
-13 -11 6 1.86 1.03
13 11 6 3.87 0.96
-6 -13 11 2.11 1
13 -11 -6 1.59 0.67
13 -11 -6 3.84 1.07
6 -13 -11 3.06 0.85
11 -6 -13 2.29 0.87
-11 -6 13 2.76 1.17
6 -13 12 1.83 1.08
12 6 -13 1.89 1.02
6 13 -12 1.77 0.71
13 12 -6 2.5 0.93
-6 -13 -12 0.77 1.05
-12 -6 -13 1.55 1.15
12 -6 -13 0.87 0.89
6 -13 -12 1.94 1.19
13 12 6 2.56 1.79
13 -12 -6 0.89 0.91
13 -12 -6 1.29 0.71
-13 -12 6 0.38 1.1
12 -6 -13 3.32 0.86
-6 -13 12 2.53 1.21
6 -13 -12 2.11 0.82
-12 -6 13 3.21 1.24
0 7 -13 1.43 0.44
0 -7 -13 0.87 0.44
13 0 7 0.79 0.52
-13 0 7 0.34 0.57
0 -7 -13 1.02 0.75
0 -7 13 -0.28 0.71
7 -13 0 0.53 0.66
7 13 0 -0.27 0.47
13 0 -7 0.16 0.67
13 0 -7 1.16 0.51
-7 -13 0 1.05 0.65
7 -13 0 1.48 0.75
-1 -7 -13 17.13 0.94
1 -7 13 17.38 1.42
13 1 -7 17.9 1.31
7 -13 1 16.38 1.28
-7 -13 -1 16.65 1.24
-1 -7 -13 17.28 1.39
1 7 -13 18.98 0.95
7 -13 1 17.33 1.32
13 1 -7 16.44 1.12
7 13 -1 18.36 1.15
-13 1 7 17.98 1.17
-7 -13 1 17.49 1.27
7 -13 -1 17.61 1.22
7 13 1 18.03 1.15
7 -13 -1 18.87 1.36
1 -7 -13 18.25 1.42
1 -7 -13 18.36 0.99
13 -1 -7 16.55 1.1
-13 -1 7 17.87 1.17
-1 -7 13 19.46 1.59
13 -1 -7 17.89 1.29
13 2 -7 9.85 0.89
-2 -7 -13 10.28 1.24
7 -13 2 11.17 1.17
-13 2 7 10.82 1.04
-7 -13 -2 11.96 1.19
2 -7 13 10.92 1.26
2 7 -13 13.1 0.81
13 2 -7 10.98 1.21
7 13 -2 10.42 0.89
13 -2 -7 10.4 0.91
2 -7 -13 11 0.87
-2 7 -13 11.64 0.75
-7 -13 2 12.03 1.12
-13 -2 7 12.79 1.04
13 -2 -7 11.91 1.25
7 -13 -2 10.04 1.17
2 -7 -13 9.32 1.23
7 13 2 11.99 1.01
13 2 7 11.46 0.93
-2 -7 13 10.92 1.29
7 -13 -2 12.04 1.06
3 -7 13 5.88 1.06
3 7 -13 6.94 0.7
13 3 -7 6.09 0.89
-7 -13 -3 6.73 0.98
7 13 -3 7.4 0.78
-3 -7 -13 6.4 1.01
13 3 -7 5.9 0.84
7 -13 3 8.42 1.14
7 -13 -3 7.01 0.89
7 -13 -3 8.78 1.16
-13 -3 7 7.7 0.86
-7 -13 3 6.78 0.95
-3 -7 13 6.4 1.16
3 -7 -13 7.44 1.12
13 3 7 6.73 0.81
7 13 3 7.1 0.85
3 -7 -13 6.02 0.72
13 -3 -7 6.83 1
13 -3 -7 6.51 0.77
4 7 -13 20.74 1.13
-4 -7 -13 22.39 1.53
7 13 -4 21.49 1.21
4 -7 13 22.89 1.63
13 4 -7 21.33 1.36
13 4 -7 22.3 1.31
-7 -13 -4 22.27 1.5
7 -13 4 19.57 1.44
-4 -7 13 22.84 1.73
-13 -4 7 22.62 1.34
7 -13 -4 21.02 1.43
13 -4 -7 20.98 1.57
-7 -13 4 20.28 1.43
7 13 4 20.2 1.27
4 -7 -13 21.82 1.27
13 -4 -7 21.07 1.22
4 -7 -13 24.54 1.71
13 4 7 22.02 1.27
7 -13 -4 20.39 1.36
7 -13 5 9.38 1.22
7 13 -5 9.21 0.86
5 7 -13 9.04 0.82
-7 -13 -5 10.32 1.26
13 5 -7 8.92 1.15
-5 -7 -13 10.65 1.38
13 5 -7 11.11 1.04
5 -7 13 10.85 1.33
13 -5 -7 10.59 1.23
5 -7 -13 10.5 1.03
-13 -5 7 10.17 1.13
13 5 7 9.22 0.99
7 -13 -5 9.45 1.27
-7 -13 5 9.7 1.32
5 -7 -13 10.93 1.39
7 -13 -5 9.88 1.09
-5 -7 13 9.04 1.2
13 -5 -7 7.53 0.85
6 -7 13 -0.23 0.8
-6 -7 -13 0.71 0.84
7 -13 6 -0.02 0.75
-7 -13 -6 -1.33 0.78
6 7 -13 0.48 0.5
13 6 -7 0.41 0.7
13 6 -7 0.88 0.64
7 13 -6 0.72 0.5
-7 -13 6 1.18 0.83
13 6 7 -1.13 0.49
7 -13 -6 0.67 0.79
-6 -7 13 -0.35 0.86
6 -7 -13 0.67 0.85
13 -6 -7 -0.19 0.73
13 -6 -7 -0.67 0.48
7 -13 -6 -0.06 0.67
6 -7 -13 -0.09 0.64
-13 -6 7 -0.88 0.69
-7 -7 -13 48.73 2.34
13 7 -7 45.77 2.04
7 7 -13 44.65 2.21
13 7 -7 44.49 2.09
-7 -13 -7 47.96 2.23
7 13 -7 46.47 1.9
7 -7 13 47.66 2.17
7 7 -13 45.12 1.98
7 -13 7 45.8 2.18
7 -7 -13 49.66 2.31
7 -13 -7 44.94 2.18
13 7 7 48.33 2.05
-7 -13 7 42.24 2.19
7 -13 -7 45.79 2.01
-7 -7 13 44.76 2.28
7 -7 -13 47.98 2.09
-13 -7 7 47.32 2.12
13 -7 -7 47.03 1.93
13 -7 -7 45.93 2.27
13 8 -7 -0.35 0.55
-8 -7 -13 -0.91 0.75
7 13 -8 0.5 0.54
13 8 -7 -0.49 0.74
7 -13 8 0.56 0.86
-7 -13 -8 1.05 0.91
8 7 -13 0.63 0.62
8 -7 13 1.68 0.82
8 7 -13 0.52 0.81
13 8 7 0.67 0.61
7 -13 -8 0.89 0.76
13 -8 -7 -0.4 0.52
-7 -13 8 0.84 0.92
-8 -7 13 1.6 1
8 -7 -13 0.33 0.86
7 -13 -8 -0.48 0.87
13 -8 -7 0.77 0.96
8 -7 -13 1.36 0.81
7 13 -9 10.79 1.06
9 7 -13 10.77 1.1
13 9 -7 10.94 1.25
13 9 -7 10.81 1.23
7 -13 9 12.68 1.43
9 7 -13 9.62 1.25
-9 -7 -13 10.48 1.5
-7 -13 -9 8.79 1.2
9 -7 13 11.11 1.19
-13 -9 7 11.54 1.4
13 -9 -7 9.13 1.31
9 -7 -13 11.88 1.28
7 -13 -9 9.45 1.35
-7 -13 9 12.74 1.42
9 -7 -13 10.32 1.25
7 -13 -9 10.41 1.24
13 9 7 8.98 1.04
-9 -7 13 12.41 1.5
7 -13 10 15.99 1.56
-7 -13 -10 11.85 1.52
-10 -7 -13 13.64 1.91
10 7 -13 11.8 1.28
7 13 -10 14.1 1.16
10 -7 13 13.52 1.15
13 10 -7 14.19 1.34
13 10 -7 12.53 1.35
-10 -7 13 10.61 1.37
7 -13 -10 13.96 1.36
10 -7 -13 9.93 1.37
-7 -13 10 10.65 1.41
7 -13 -10 13.43 1.7
-13 -10 7 12.56 1.34
10 -7 -13 11.41 1.53
13 10 7 13.23 1.29
7 13 -11 0.75 0.72
13 11 -7 1.36 0.82
11 7 -13 1.25 0.77
11 7 -13 1.11 0.94
7 -13 11 -0.05 0.99
13 11 -7 1.51 0.99
11 7 -13 0.68 0.88
-11 -7 -13 -0.46 1.02
-7 -13 -11 0.15 1.06
13 -11 -7 2.65 1.05
-13 -11 7 -0.85 1.08
-7 -13 11 1.05 1.04
-11 -7 13 1.44 1.15
11 -7 -13 0.73 0.85
7 -13 -11 1.19 1.15
11 -7 -13 1.04 0.9
7 -13 -11 0.64 0.85
13 12 -7 2.34 1.22
13 12 -7 2.98 1
12 7 -13 3.64 1.06
-12 -7 -13 3.74 1.5
-7 -13 -12 2.08 1.3
12 7 -13 3.14 1.22
7 -13 12 5.4 1.22
7 13 -12 5.6 0.92
-12 -7 13 3.88 1.26
12 -7 -13 2.13 0.92
7 -13 -12 3.84 0.98
12 -7 -13 3.53 1.02
13 -12 -7 4.75 1.11
-13 -12 7 2.95 1.24
7 -13 -12 5.8 1.31
-7 -13 12 2.88 1.22
13 0 -8 43.57 1.84
0 -8 -13 43.42 1.62
13 0 -8 41.56 1.99
-8 -13 0 48.01 2.1
0 -8 -13 43.44 2.15
-13 0 8 43.77 1.86
8 -13 0 43.51 1.96
8 -13 0 41.25 1.95
0 -8 13 41.89 2.18
8 13 0 40.82 1.84
0 8 -13 42.64 1.6
-13 1 8 3.16 0.7
1 8 -13 2 0.51
8 -13 1 2.4 0.75
8 13 -1 2.11 0.61
-1 -8 -13 2.53 0.88
13 1 -8 1.69 0.75
8 -13 1 2.55 0.74
-8 -13 -1 1.66 0.75
13 1 -8 1.49 0.56
1 -8 13 1.42 0.87
-1 -8 -13 2.37 0.52
13 -1 -8 2 0.85
8 13 1 1.38 0.56
13 -1 -8 1.44 0.56
-13 -1 8 3.01 0.73
-1 -8 13 2.57 0.92
8 -13 -1 2.84 0.74
1 -8 -13 2.47 0.52
-8 -13 1 2.05 0.8
8 -13 -1 1.8 0.75
1 -8 -13 2.26 0.89
2 -8 13 19.21 1.51
8 13 -2 18.86 1.22
-13 2 8 18.69 1.33
13 2 -8 19.32 1.18
2 8 -13 20.61 1.06
13 2 -8 19.06 1.46
-8 -13 -2 21.57 1.47
8 -13 2 19.13 1.37
-2 -8 -13 17.89 1.48
2 -8 -13 20.22 1.11
8 13 2 19.68 1.27
13 -2 -8 19.52 1.5
-8 -13 2 23.68 1.54
2 -8 -13 19.19 1.54
-2 -8 13 17.86 1.55
8 -13 -2 19.78 1.41
13 -2 -8 19.96 1.22
8 -13 -2 19.35 1.42
-13 -2 8 21.06 1.33
3 8 -13 122.15 3.76
8 -13 3 119.35 3.97
8 13 -3 113.97 3.91
13 3 -8 119.03 3.98
-8 -13 -3 115.85 4.01
-3 -8 -13 115.45 4.16
13 3 -8 114.68 3.96
8 13 -3 112.45 3.65
3 -8 13 115.44 4.14
8 -13 -3 119.47 3.95
8 13 3 116.87 3.98
8 -13 -3 117.7 4.23
3 -8 -13 118.69 3.75
13 -3 -8 113.79 3.86
-13 -3 8 118.82 3.85
13 -3 -8 113.89 4.05
3 -8 -13 114.93 4.21
-3 -8 13 116.53 4.3
-8 -13 3 121.68 4.1
4 8 -13 6.22 0.75
-4 -8 -13 6.94 1.12
13 4 -8 6.22 0.95
13 4 -8 7.45 0.95
-8 -13 -4 7.61 1.05
4 -8 13 8.28 1.12
8 13 -4 7.93 0.98
8 13 -4 6.96 0.84
8 -13 4 6.71 0.98
13 -4 -8 8.11 0.86
8 -13 -4 8.79 1.11
8 -13 -4 9.9 1.2
-8 -13 4 9.28 1.29
4 -8 -13 6.86 1.12
4 -8 -13 9.4 0.94
-13 -4 8 9.14 1.19
8 13 4 8.44 0.99
-4 -8 13 7.5 1.26
13 -4 -8 6.29 1.03
8 13 -5 3.1 0.71
13 5 -8 2.91 0.79
5 -8 13 3.97 0.95
-8 -13 -5 4.73 0.95
13 5 -8 4.53 0.85
8 13 -5 3.66 0.72
-5 -8 -13 3.93 0.97
8 -13 5 3.87 0.89
5 8 -13 3.62 0.6
5 -8 -13 5.6 1.14
5 -8 -13 3.3 0.75
13 -5 -8 3.9 0.73
13 -5 -8 3.71 0.95
-13 -5 8 3.03 0.84
-8 -13 5 4.28 1
-5 -8 13 2.56 0.98
8 -13 -5 2.79 0.9
8 -13 -5 4.12 0.84
13 6 -8 2.35 0.63
8 13 -6 3.8 0.69
-8 -13 -6 2.86 0.98
8 -13 6 3.29 0.84
-6 -8 -13 4.81 1.08
13 6 -8 3.5 0.85
6 8 -13 3.26 0.64
6 -8 13 3.74 0.96
-8 -13 6 4.25 0.94
6 -8 -13 3.85 0.97
8 -13 -6 3.96 0.96
-6 -8 13 3.94 1.12
-13 -6 8 3.82 0.88
6 -8 -13 3.84 0.78
13 -6 -8 3.44 0.98
8 -13 -6 3.83 0.82
13 -6 -8 3.52 0.71
8 -13 7 0.41 0.81
7 -8 13 1.04 0.8
13 7 -8 0.07 0.54
-8 -13 -7 0.8 0.81
-7 -8 -13 1.04 0.87
7 8 -13 -0.41 0.55
7 8 -13 0.28 0.81
8 13 -7 1.41 0.63
13 7 -8 1.17 0.77
7 -8 -13 -0.12 0.7
8 -13 -7 0.76 0.76
8 -13 -7 1.12 0.92
13 -7 -8 0.77 0.9
13 -7 -8 0.07 0.52
-8 -13 7 -0.81 0.84
7 -8 -13 0.13 0.82
-13 -7 8 0.61 0.84
-7 -8 13 0 0.95
13 8 -8 102.87 3.72
-8 -13 -8 98.25 3.72
8 -13 8 96.82 3.61
8 8 -13 103.77 3.59
-8 -8 -13 98.08 3.72
8 8 -13 98.06 3.66
8 -8 13 99.58 3.56
8 13 -8 101.79 3.54
13 8 -8 99.58 3.54
-13 -8 8 102.03 3.66
-8 -8 13 96.82 3.9
8 -13 -8 102.26 3.56
8 -8 -13 98.89 3.57
8 -13 -8 99.83 3.74
13 -8 -8 100.54 3.81
8 -8 -13 104.34 3.77
-8 -13 8 99.14 3.81
8 -13 9 14.78 1.44
-9 -8 -13 14.09 1.69
-8 -13 -9 12.32 1.63
13 9 -8 15.93 1.42
9 8 -13 15.51 1.25
9 -8 13 16.44 1.39
13 9 -8 15.72 1.43
9 8 -13 15.71 1.7
8 13 -9 16.54 1.31
9 -8 -13 17.69 1.56
13 -9 -8 14.05 2.29
-13 -9 8 15.77 1.68
-9 -8 13 14.88 1.75
8 -13 -9 16.44 1.6
9 -8 -13 17.59 1.53
8 -13 -9 17.59 1.45
-8 -13 9 12.94 1.7
10 8 -13 0.92 0.75
8 13 -10 1.82 0.71
8 -13 10 -0.32 0.91
10 8 -13 1.06 1
13 10 -8 1.19 0.94
10 -8 13 0.83 0.77
-10 -8 -13 0.97 1.05
13 10 -8 0.48 0.86
-8 -13 -10 0.03 0.95
-8 -13 10 3.01 1.2
8 -13 -10 -0.94 0.98
-13 -10 8 3.04 1.14
10 -8 -13 0.08 0.89
-10 -8 13 2.98 1.11
13 -10 -8 -0.04 0.91
8 -13 -10 -0.86 0.84
8 13 -11 7.52 1.19
13 11 -8 9.1 1.19
-11 -8 -13 9.05 1.37
-8 -13 -11 8.21 1.36
13 11 -8 9.14 1.83
11 8 -13 8.38 1.24
8 13 -11 8.84 1.18
11 8 -13 12.85 1.26
8 -13 11 8.86 1.27
-8 -13 11 6.87 1.42
8 -13 -11 9.79 1.26
11 -8 -13 8.81 1.24
13 -11 -8 8.63 1.26
-11 -8 13 9.36 1.52
8 -13 -11 11.34 1.48
-13 -11 8 8.41 1.34
11 -8 -13 9.1 1.16
13 12 -8 1.35 1.32
8 13 -12 2 1.02
13 12 -8 1.85 1.29
12 8 -13 4.13 1.26
-8 -13 -12 4.98 1.33
12 8 -13 4.03 1.04
8 -13 12 2.4 1.1
8 13 -12 4.21 1.07
12 -8 -13 2.08 1.01
-8 -13 12 3.78 1.26
8 -13 -12 3.29 0.88
13 -12 -8 3.61 1.03
8 -13 -12 2.48 1.25
-13 -12 8 2.28 1.32
12 -8 -13 3.49 0.99
-12 -8 13 4.77 1.29
-13 0 9 71.17 2.62
9 13 0 71.34 2.68
13 0 -9 68.5 2.79
9 -13 0 68.31 2.62
0 -9 -13 67.95 2.3
0 9 -13 68.73 2.29
9 -13 0 67.76 2.69
13 0 -9 65.18 2.59
0 -9 13 67.63 2.93
0 -9 -13 66.97 2.95
-9 -13 0 71.85 2.76
-9 -13 -1 0.21 0.73
9 -13 1 0.35 0.67
-13 1 9 1.18 0.7
13 1 -9 0.37 0.49
9 13 -1 -0.23 0.57
1 -9 13 -0.32 0.95
13 1 -9 -0.44 0.74
-1 -9 -13 0.53 0.86
9 -13 1 0.55 0.75
1 9 -13 -0.27 0.46
13 -1 -9 -0.84 0.45
-9 -13 1 -0.78 0.75
9 13 1 0.65 0.61
9 -13 -1 0.55 0.72
-13 -1 9 0.49 0.68
1 -9 -13 0.46 0.82
1 -9 -13 0.1 0.51
-1 -9 13 -0.53 0.81
13 -1 -9 -0.58 0.75
9 -13 -1 -0.18 0.66
2 -9 13 0.96 0.85
2 9 -13 2.17 0.53
13 2 -9 1.6 0.66
-13 2 9 1.37 0.78
9 13 -2 1.21 0.64
-2 -9 -13 1.64 0.87
13 2 -9 1.53 0.8
9 -13 2 1.89 0.72
-9 -13 -2 1.45 0.8
-13 -2 9 2.72 0.8
13 -2 -9 1.15 0.83
2 -9 -13 1.51 0.86
-2 -9 13 1.27 0.96
13 -2 -9 1.66 0.54
9 -13 -2 1.28 0.78
-9 -13 2 1.76 0.81
9 13 2 2.38 0.69
9 -13 -2 1.3 0.76
2 -9 -13 2.55 0.61
9 13 -3 7.86 0.99
3 9 -13 8.36 0.81
-9 -13 -3 7.79 1.08
13 3 -9 8.55 1.11
9 -13 3 7.01 0.93
3 -9 13 8.27 1.27
-3 -9 -13 8.68 1.21
9 13 -3 8.61 0.97
13 3 -9 7.4 1
13 -3 -9 7.24 1.07
13 -3 -9 6.83 0.9
3 -9 -13 7.17 0.94
9 -13 -3 7.02 0.97
9 13 3 7.22 1.02
9 -13 -3 8.57 1.2
-9 -13 3 9.74 1.3
3 -9 -13 8.52 1.26
-13 -3 9 10.74 1.17
-3 -9 13 7.06 1.18
-4 -9 -13 34.26 1.96
13 4 -9 35.33 1.82
-9 -13 -4 38.81 1.95
13 4 -9 37.04 1.94
9 13 -4 37.88 1.61
9 -13 4 35.38 1.77
9 13 -4 36.34 1.75
4 -9 13 36.72 1.99
4 9 -13 37.13 1.58
-13 -4 9 35.98 1.87
4 -9 -13 37.34 2.08
4 -9 -13 37.37 1.68
9 13 4 35.58 1.84
-4 -9 13 36.49 2.11
13 -4 -9 36.07 2.04
-9 -13 4 38.3 2.03
9 -13 -4 38.29 1.84
13 -4 -9 35.08 1.67
9 -13 -4 37.44 1.88
-5 -9 -13 0.28 0.83
5 -9 13 2.28 0.92
9 13 -5 0.63 0.72
13 5 -9 0.9 0.82
-9 -13 -5 4.18 0.98
5 9 -13 0.69 0.58
13 5 -9 1.46 0.6
9 13 -5 0.49 0.62
9 -13 5 1.01 0.71
9 -13 -5 0.98 0.8
5 -9 -13 0.69 0.64
9 -13 -5 0.78 0.76
13 -5 -9 0.83 0.87
13 -5 -9 0.04 0.5
-5 -9 13 0.2 0.95
5 -9 -13 0.85 0.88
9 13 5 0.85 0.58
-9 -13 5 -0.11 0.84
-13 -5 9 2.11 0.94
13 6 -9 0.48 0.61
9 13 -6 -0.16 0.72
9 -13 6 0.73 0.77
-9 -13 -6 1.76 0.92
6 9 -13 1.31 0.58
6 -9 13 -0.36 0.9
9 13 -6 0.32 0.68
-6 -9 -13 -0.82 0.76
13 6 -9 2.14 0.84
6 -9 -13 0.45 0.97
6 -9 -13 0.55 0.65
-6 -9 13 -1.73 0.79
13 -6 -9 0.58 0.84
-9 -13 6 1.34 0.84
-13 -6 9 1.13 0.88
13 -6 -9 -0.31 0.54
9 -13 -6 -0.29 0.78
9 -13 -6 1.41 0.82
9 13 -7 10.04 1.28
7 9 -13 10.95 1.08
13 7 -9 9.55 1.24
9 13 -7 11.4 1.16
-7 -9 -13 11.75 1.55
9 -13 7 11.85 1.29
-9 -13 -7 10.27 1.47
13 7 -9 11.28 1.39
7 -9 13 10.71 1.44
9 -13 -7 11.34 1.34
13 -7 -9 9.7 1.27
-7 -9 13 9.6 1.34
9 -13 -7 12.24 1.36
7 -9 -13 11.9 1.58
7 -9 -13 10.06 1.2
-9 -13 7 7.35 1.28
-13 -7 9 10.49 1.22
8 -9 13 17.3 1.5
13 8 -9 16.93 1.53
9 13 -8 16.81 1.42
-8 -9 -13 17.37 1.75
13 8 -9 15.19 1.5
9 13 -8 19.15 1.36
9 -13 8 16.21 1.47
-9 -13 -8 17.11 1.69
8 9 -13 14.71 1.54
8 9 -13 13.92 1.28
-13 -8 9 14.4 1.68
-8 -9 13 16.48 1.69
13 -8 -9 16.6 2.42
8 -9 -13 17.01 1.48
9 -13 -8 16.97 1.65
8 -9 -13 17 1.66
-9 -13 8 13.84 1.68
9 -13 -8 17.17 1.42
9 13 -9 7.09 1.04
9 9 -13 6.5 1.01
-9 -9 -13 11.06 1.46
-9 -13 -9 6.47 1.25
9 13 -9 5.89 1.03
9 -9 13 5.54 0.99
13 9 -9 4.85 1.12
13 9 -9 6.63 1.19
9 9 -13 4.64 1.11
9 -13 9 4.87 1.04
9 -9 -13 6.55 1.21
9 -13 -9 7.72 1.21
9 -13 -9 5.66 1.07
-9 -13 9 6.86 1.21
-13 -9 9 6.38 1.24
13 -9 -9 4.31 1.07
-9 -9 13 6.29 1.3
9 -9 -13 5.25 1.1
10 9 -13 0.06 0.9
9 13 -10 0.53 0.75
13 10 -9 -0.48 1
9 13 -10 -0.98 1.46
10 -9 13 0.55 0.82
-10 -9 -13 2.37 1.15
9 -13 10 -0.85 0.89
-9 -13 -10 0.59 1.06
-9 -13 10 0.6 1.03
13 -10 -9 0.95 0.86
-13 -10 9 0.18 1.1
10 -9 -13 -0.58 0.93
9 -13 -10 0.06 1.01
-10 -9 13 -0.14 1.17
10 -9 -13 0.86 0.89
13 11 -9 11.14 1.41
9 -13 11 11.56 1.54
9 13 -11 11.16 1.42
9 13 -11 11.65 1.54
11 9 -13 8.4 1.26
-11 -9 -13 9.76 1.51
11 9 -13 10.09 1.51
13 11 -9 11.72 1.58
-9 -13 -11 8.59 1.55
-13 -11 9 10.68 1.49
9 -13 -11 11.05 1.4
11 -9 -13 13.68 1.63
11 -9 -13 8.89 1.22
9 -13 -11 10.44 1.31
-11 -9 13 10.03 1.62
-9 -13 11 14.23 1.81
13 -11 -9 8.28 1.21
-9 -13 -12 8.53 1.48
9 -13 12 9.38 1.32
12 9 -13 7.79 1.21
13 12 -9 8.36 1.13
9 13 -12 11.15 2.47
12 9 -13 6.79 1.46
13 12 -9 8.74 1.48
9 13 -12 12.27 1.53
12 -9 -13 6.98 1.24
12 -9 -13 7.33 1.15
-12 -9 13 6.06 1.55
9 -13 -12 11.01 1.34
-9 -13 12 7.65 1.63
-13 -12 9 12.43 1.67
9 -13 -12 9.8 1.46
13 -12 -9 8.3 1.35
10 -13 0 2.62 0.74
0 -10 13 1.77 0.92
-10 -13 0 1.69 0.82
-13 0 10 0.78 0.8
13 0 -10 2.35 0.96
10 13 0 2.76 0.77
0 -10 -13 2.04 1.02
13 0 -10 1.69 0.64
10 -13 0 1.26 0.8
1 10 -13 4.5 0.61
-10 -13 -1 5.56 0.92
-13 1 10 3.33 0.88
-1 -10 -13 4.51 1.05
13 1 -10 4.58 0.88
10 -13 1 4.39 0.77
13 1 -10 4.3 0.97
10 -13 1 4.05 0.98
1 -10 13 2.72 1.01
10 13 -1 5.48 0.92
13 -1 -10 2.94 0.96
1 -10 -13 3.36 1.02
-13 -1 10 3.29 0.92
10 -13 -1 4.06 0.97
-10 -13 1 5.26 0.96
10 13 1 3.31 0.83
-1 -10 13 4.98 1.09
1 -10 -13 5.32 0.67
10 -13 -1 3.52 0.79
13 -1 -10 4.76 0.81
10 -13 2 0.97 0.72
-2 -10 -13 1.88 1.02
13 2 -10 1.19 0.87
2 10 -13 2.48 0.54
13 2 -10 1.87 0.71
2 -10 13 0.97 0.95
10 13 -2 1.11 0.68
-10 -13 -2 1.91 0.83
10 -13 2 1.28 0.88
-13 2 10 2.64 0.84
2 -10 -13 1.71 0.62
10 13 2 2.8 0.82
13 -2 -10 1.54 0.58
10 -13 -2 2.31 0.81
2 -10 -13 3.03 1.02
-2 -10 13 1.04 0.94
-10 -13 2 1.69 0.83
-13 -2 10 1.72 0.85
10 -13 -2 1.42 0.71
13 -2 -10 0.65 0.87
13 3 -10 1 0.67
-3 -10 -13 0.82 0.94
3 -10 13 0.29 0.86
3 10 -13 0.84 0.51
10 13 -3 0.89 0.7
-10 -13 -3 1.13 0.85
13 3 -10 2.03 0.9
10 -13 3 0.26 0.69
3 -10 -13 0.11 0.96
10 13 3 -0.28 0.68
10 -13 -3 0.45 0.7
-10 -13 3 1.13 0.85
3 -10 -13 0.75 0.61
-3 -10 13 1.68 1.01
-13 -3 10 0.89 0.8
10 -13 -3 1.61 0.84
13 -3 -10 -0.08 0.53
13 -3 -10 1.65 0.94
-10 -13 -4 9.7 1.37
13 4 -10 10.31 1.06
4 10 -13 8.9 0.92
13 4 -10 9.99 1.27
10 13 -4 10.19 1.13
10 -13 4 10.12 1.12
10 13 -4 9.94 1.09
4 -10 13 10.06 1.35
-4 -10 -13 11.14 1.54
-4 -10 13 9.86 1.36
10 13 4 9.9 1.06
10 -13 -4 10.47 1.21
13 -4 -10 11.4 1.39
4 -10 -13 8.81 1.29
10 -13 -4 10.1 1.24
13 -4 -10 10.4 0.97
-13 -4 10 9.74 1.3
-10 -13 4 10.38 1.26
4 -10 -13 9.93 1.07
-10 -13 -5 0.61 0.88
10 13 -5 0.11 0.71
13 5 -10 0.25 0.86
10 -13 5 -0.11 0.73
10 13 -5 -0.81 0.68
5 -10 13 0.77 0.97
13 5 -10 0.32 0.61
-5 -10 -13 0.6 0.97
-13 -5 10 1.67 0.92
-5 -10 13 0.45 0.96
5 -10 -13 -0.07 0.83
10 -13 -5 0.47 0.74
10 -13 -5 0.22 0.77
10 13 5 0.69 0.65
13 -5 -10 -1.21 0.49
5 -10 -13 -0.32 0.64
-10 -13 5 0.25 0.95
13 -5 -10 0.69 0.94
6 10 -13 -0.13 0.63
-10 -13 -6 0.66 0.94
6 -10 13 0.97 0.93
10 -13 6 1.98 0.78
13 6 -10 1.04 0.9
10 13 -6 0.46 0.74
13 6 -10 0.13 0.61
10 13 -6 0.57 0.76
-6 -10 -13 2.97 1.1
6 -10 -13 0.4 0.93
6 -10 -13 1.05 0.73
10 -13 -6 1.41 0.86
-13 -6 10 1.55 0.97
-10 -13 6 1.9 0.98
10 -13 -6 2.15 0.94
-6 -10 13 2 1.02
13 -6 -10 0.07 0.96
13 7 -10 11.74 1.54
-7 -10 -13 12.1 1.67
7 -10 13 12.86 1.5
-10 -13 -7 12.34 1.64
7 10 -13 13.05 1.13
10 -13 7 12.11 1.3
10 13 -7 13.44 1.29
10 13 -7 15.22 1.38
13 7 -10 11.02 1.31
-13 -7 10 17.81 1.73
-10 -13 7 11.65 1.65
7 -10 -13 11.22 1.48
7 -10 -13 13.01 1.31
-7 -10 13 10.82 1.55
10 -13 -7 14.6 1.52
10 -13 -7 13.75 1.45
10 -13 8 0.38 0.82
-10 -13 -8 1.73 1.06
8 -10 13 0.16 0.89
13 8 -10 1.33 1.1
8 10 -13 1.96 0.7
8 10 -13 1.06 0.85
10 13 -8 1.26 0.85
10 13 -8 2.11 0.84
13 8 -10 0.71 0.91
-8 -10 -13 0.72 1.03
8 -10 -13 1.32 0.84
10 -13 -8 0.34 1.06
-13 -8 10 1.33 1.07
13 -8 -10 0.36 0.85
10 -13 -8 -0.06 0.9
-8 -10 13 -0.66 0.96
8 -10 -13 -1.8 0.94
-10 -13 8 2.28 1.07
10 13 -9 -0.11 0.84
13 9 -10 -0.36 1.55
10 -13 9 0.86 0.82
9 -10 13 0.75 0.91
9 10 -13 -0.26 0.9
9 10 -13 1.17 0.79
10 13 -9 -0.67 0.84
-10 -13 -9 -1.28 1.03
-9 -10 -13 -1.27 1.04
10 -13 -9 2.16 0.94
-9 -10 13 -2.13 1.09
9 -10 -13 0.39 0.95
-13 -9 10 -1.02 1.13
10 -13 -9 0.67 0.95
-10 -13 9 0.06 1.06
13 -9 -10 1.04 0.94
9 -10 -13 -0.4 1
13 10 -10 12.01 1.64
10 -13 10 11.96 1.45
10 -10 13 13.59 1.44
13 10 -10 10.61 1.44
-10 -10 -13 14.75 1.89
10 10 -13 11.74 1.5
10 10 -13 10.67 2.62
-10 -13 -10 12.42 1.57
10 13 -10 10.62 1.37
13 -10 -10 12.12 1.57
10 -10 -13 11.22 1.35
-10 -10 13 10.47 1.64
10 -13 -10 11.1 1.41
10 -13 -10 13.72 1.35
-13 -10 10 12.09 1.58
10 -10 -13 11.78 1.46
-10 -13 10 10.44 1.5
11 10 -13 1.39 1.12
10 13 -11 -0.6 0.87
-10 -13 -11 -1.6 1.21
11 10 -13 0.51 0.94
10 -13 11 0.62 1.03
13 11 -10 -0.02 0.88
-11 -10 -13 3.24 1.39
10 13 -11 -0.4 1.09
13 11 -10 -2.38 1.05
10 -13 -11 0.06 1.28
10 -13 -11 1.25 0.86
-10 -13 11 -2.05 1.31
-13 -11 10 2.12 1.4
11 -10 -13 -0.72 0.79
13 -11 -10 -0.51 0.89
-11 -10 13 -2.49 1.3
11 -10 -13 -0.42 1.07
10 -13 12 0.05 1.08
-10 -13 -12 -0.74 1.29
10 13 -12 -0.45 1.19
13 12 -10 -0.12 1.34
12 10 -13 -0.19 1
13 12 -10 1.35 0.96
12 10 -13 0.88 1.26
10 13 -12 0.65 0.9
-13 -12 10 1.35 1.49
10 -13 -12 0.84 1.28
-10 -13 12 1.51 1.49
12 -10 -13 0.13 1.13
-12 -10 13 2.53 1.5
10 -13 -12 -0.26 0.85
12 -10 -13 0.19 0.95
13 -12 -10 1.14 0.91
13 0 -11 3.85 0.79
11 -13 0 4.72 0.75
11 -13 0 4.77 1.02
13 0 -11 4.18 1.05
11 13 0 4.48 0.96
-13 0 11 3.14 0.95
0 -11 -13 4.31 1.18
0 -11 13 4.62 1.14
-11 -13 0 4.51 1.05
-1 -11 -13 -0.55 0.97
-13 1 11 0.49 0.86
1 -11 13 -1.14 0.98
11 -13 1 0.97 0.88
13 1 -11 -0.01 0.89
13 1 -11 0.32 0.6
11 -13 1 -0.34 0.62
-11 -13 -1 -0.1 0.86
11 13 -1 0.73 0.8
-1 -11 13 0.87 0.97
11 13 1 0.35 0.84
13 -1 -11 1.21 0.61
-13 -1 11 0.02 0.85
13 -1 -11 -1.04 0.82
11 -13 -1 -0.07 0.66
-11 -13 1 0.83 0.91
1 -11 -13 0.41 0.94
11 -13 -1 -0.09 0.86
11 -13 2 7.91 1.01
-13 2 11 9.19 1.16
-11 -13 -2 7.36 1.12
11 13 -2 8.14 1.11
2 11 -13 7.25 0.86
13 2 -11 5.94 1.12
13 2 -11 6.35 0.92
11 -13 2 6.13 1.13
2 -11 13 6.25 1.21
-2 -11 -13 7.79 1.3
13 -2 -11 6.94 1.17
2 -11 -13 8.31 0.88
11 -13 -2 6.35 0.87
-11 -13 2 9.99 1.35
2 -11 -13 7.19 1.24
-2 -11 13 8.87 1.43
11 -13 -2 6.72 1.12
-13 -2 11 8.67 1.16
11 13 2 7.49 1.04
13 -2 -11 6.22 0.86
3 -11 13 6.4 1.19
3 11 -13 6.92 0.74
-11 -13 -3 11.01 1.4
11 13 -3 6.44 1.04
-3 -11 -13 6.44 1.18
13 3 -11 7.22 1.19
13 3 -11 5.76 0.88
11 -13 3 6.48 0.86
11 -13 -3 6.37 0.86
3 -11 -13 6.74 1.21
13 -3 -11 6.16 0.92
-13 -3 11 7.4 1.11
11 -13 -3 5.72 1.12
13 -3 -11 7.67 1.23
3 -11 -13 6.53 0.87
11 13 3 5.15 0.9
-11 -13 3 7.14 1.11
-3 -11 13 5.1 1.16
4 11 -13 3.89 0.66
13 4 -11 1.99 1.04
-11 -13 -4 3.38 1.04
13 4 -11 3.68 0.78
4 -11 13 1.77 1.12
-4 -11 -13 3.97 1.17
11 -13 4 3.82 0.75
11 13 -4 2.79 0.86
11 -13 -4 3.76 0.8
13 -4 -11 3.89 0.77
11 -13 -4 3.08 0.95
13 -4 -11 3.02 1.11
-4 -11 13 2.29 1.06
11 13 4 2.57 0.76
-13 -4 11 2.43 0.97
4 -11 -13 5.24 0.81
-11 -13 4 3.66 1.02
4 -11 -13 3.32 1.23
11 -13 5 1.7 0.72
11 13 -5 1.81 0.81
-11 -13 -5 1.13 1
5 11 -13 1.49 0.71
13 5 -11 1.51 1.02
13 5 -11 1.23 0.66
11 13 -5 0.78 0.84
5 -11 13 2.09 1.08
-5 -11 -13 1.85 1.11
11 -13 -5 1.6 0.78
11 -13 -5 2.72 1.02
11 13 5 3.15 0.81
-5 -11 13 1.92 1.19
-11 -13 5 1 0.96
-13 -5 11 1.23 0.98
13 -5 -11 0.67 0.62
5 -11 -13 2.61 0.78
5 -11 -13 1.43 1.11
6 11 -13 3.56 0.81
6 -11 13 1.1 1.01
-11 -13 -6 3.5 1.1
-6 -11 -13 3.1 1.09
11 -13 6 3.23 0.79
11 13 -6 3.09 0.85
13 6 -11 2.82 0.94
11 13 -6 2.11 0.9
11 -13 -6 4.03 0.91
-11 -13 6 4.32 1.07
11 -13 -6 3.55 1.38
13 -6 -11 0.51 0.91
-13 -6 11 4.19 1.16
-6 -11 13 1.59 1.05
6 -11 -13 2.93 0.83
6 -11 -13 3.17 1.19
11 13 -7 1.57 0.88
11 -13 7 -0.41 0.73
7 -11 13 0.67 1.06
13 7 -11 0.61 1.03
13 7 -11 0.71 0.93
-11 -13 -7 -0.41 1.07
-7 -11 -13 2.32 1.2
11 13 -7 1.44 0.85
7 11 -13 2.51 0.8
7 -11 -13 1.06 0.85
-7 -11 13 -0.13 1.01
11 -13 -7 0.08 0.91
-11 -13 7 1.12 1.03
13 -7 -11 1.2 0.97
7 -11 -13 1.29 1.13
-13 -7 11 0.79 1.07
11 -13 -7 0.19 0.83
11 -13 8 9.39 1.21
-11 -13 -8 13.01 1.76
11 13 -8 9.19 1.14
11 13 -8 10.13 1.39
13 8 -11 9.68 1.28
-8 -11 -13 11.58 1.57
13 8 -11 9.86 1.68
8 -11 13 9.25 1.27
8 11 -13 9.75 1.22
8 11 -13 10.33 1.45
-11 -13 8 9.65 1.46
-13 -8 11 12.88 1.82
-8 -11 13 9.67 1.55
13 -8 -11 8.56 1.24
11 -13 -8 9.9 1.2
8 -11 -13 9.11 1.39
11 -13 -8 9.6 1.26
11 13 -9 10.5 1.57
-11 -13 -9 10.7 1.53
9 11 -13 11.55 1.56
13 9 -11 8.81 1.41
13 9 -11 10.06 1.26
9 -11 13 10.11 1.27
11 -13 9 11.01 1.34
-9 -11 -13 13.62 1.86
-13 -9 11 10.54 1.6
-9 -11 13 6.77 1.49
9 -11 -13 9.8 1.41
13 -9 -11 10.74 1.46
11 -13 -9 9.27 1.26
9 -11 -13 11.84 1.3
-11 -13 9 10.4 1.57
11 -13 -9 12.18 1.36
13 10 -11 0.25 1.11
10 -11 13 1.52 1.02
11 13 -10 1.09 0.88
13 10 -11 -1.64 0.87
11 13 -10 0.19 1.12
10 11 -13 -0.1 0.95
10 11 -13 1.1 1.17
-11 -13 -10 -0.09 1.25
-10 -11 -13 0.98 1.33
-11 -13 10 2.13 1.39
10 -11 -13 1.91 0.9
13 -10 -11 0.61 0.95
11 -13 -10 1.61 0.9
-10 -11 13 0.44 1.35
-13 -10 11 2.43 1.4
10 -11 -13 -0.54 1.33
11 -13 -10 1.94 1.09
11 13 -11 6.49 1.44
11 13 -11 6.27 1.08
-11 -13 -11 5.46 1.57
13 11 -11 5.39 1.17
13 11 -11 4.32 1.35
-11 -11 -13 5.15 1.53
11 11 -13 3.13 1.14
11 11 -13 5.33 1.38
11 -11 -13 6.91 1.13
-11 -13 11 4.43 1.41
11 -11 -13 3.86 1.22
13 -11 -11 2.59 1.09
11 -13 -11 5.5 1.26
11 -13 -11 5.95 1.2
-11 -11 13 7.7 1.69
-13 -11 11 7.28 1.62
13 12 -11 1.23 1.39
-11 -13 -12 1.13 1.58
12 11 -13 -0.4 1.02
11 13 -12 -0.74 1.17
12 11 -13 0.09 1.3
13 12 -11 1.39 1.03
11 13 -12 -0.36 0.93
-13 -12 11 1.14 1.61
11 -13 -12 0.7 0.99
13 -12 -11 0.77 0.95
12 -11 -13 -1.72 1.83
-12 -11 13 -1.01 2.07
12 -11 -13 -0.5 0.94
-13 0 12 -0.73 0.93
-12 -13 0 1.84 1.01
12 -13 0 2.79 1.68
12 -13 0 0.37 0.6
12 13 0 0.94 0.84
0 -12 -13 -0.98 1.06
0 -12 13 0.39 1.02
13 1 -12 1.06 0.62
1 -12 13 3.51 1.15
-1 -12 -13 1.23 1.04
12 -13 1 1.83 0.63
-13 1 12 2.48 1.02
-12 -13 -1 1.95 1
12 13 -1 2.02 0.92
12 -13 -1 2.84 1.27
-13 -1 12 4.88 1.05
12 -13 -1 2.83 0.68
-12 -13 1 1.86 1.01
13 -1 -12 2.65 0.67
12 13 1 1.06 0.68
-1 -12 13 0.95 1.02
1 -12 -13 2.38 1.14
-2 -12 -13 7.42 1.4
2 -12 13 5.59 1.33
12 -13 2 6.5 0.83
2 12 -13 6.51 0.82
12 -13 2 3.5 1.74
12 13 -2 5.42 1.1
13 2 -12 7.29 0.95
-13 2 12 6.62 1.14
-12 -13 -2 7.73 1.19
13 -2 -12 5.44 0.92
2 -12 -13 6.18 1.35
-12 -13 2 4.47 1.14
12 -13 -2 6.64 2.16
12 -13 -2 6.41 0.79
13 -2 -12 4.77 1.73
-2 -12 13 6.61 1.27
12 13 2 4.57 0.92
-13 -2 12 5.29 1.17
3 12 -13 9.38 0.94
-12 -13 -3 7.63 1.21
13 3 -12 6.43 1.4
-3 -12 -13 8.84 1.38
3 -12 13 9.73 1.47
13 3 -12 9.09 1.04
12 13 -3 9.78 1.3
13 -3 -12 6.45 1.2
3 -12 -13 10.87 1.13
3 -12 -13 9.64 1.5
12 13 3 8.77 1.21
-13 -3 12 9.96 1.36
13 -3 -12 5.58 0.93
12 -13 -3 9.34 1.11
-12 -13 3 12.91 1.57
-3 -12 13 8.71 1.38
12 13 -4 6.92 1.19
13 4 -12 4.85 1.14
13 4 -12 4.94 0.87
4 12 -13 6.63 0.92
-4 -12 -13 6.34 1.33
4 -12 13 5.05 1.16
-12 -13 -4 5.07 1.16
12 13 4 4.34 0.92
-13 -4 12 5.93 1.22
13 -4 -12 4.97 0.88
4 -12 -13 5.04 0.83
4 -12 -13 5.93 1.3
-4 -12 13 6.04 1.34
12 -13 -4 4.42 0.83
12 -13 -4 5.47 1.17
13 -4 -12 4.84 1.1
-12 -13 4 7.23 1.21
5 12 -13 -1.04 0.63
12 13 -5 0.48 0.9
-5 -12 -13 -0.22 1.11
12 13 -5 0.81 0.91
5 -12 13 -0.05 1.04
13 5 -12 -0.65 0.81
13 5 -12 0.07 0.94
-12 -13 -5 -1.47 1.05
5 -12 -13 0.65 0.77
13 -5 -12 -0.6 0.88
12 -13 -5 0.09 0.73
-12 -13 5 -1.92 1.02
-5 -12 13 1.2 1.05
-13 -5 12 3.71 1.16
5 -12 -13 -0.8 1.07
12 13 5 1 0.93
13 -5 -12 -0.7 0.59
12 -13 -5 0.16 0.87
6 -12 13 2.29 1.08
12 13 -6 -1.25 1.73
13 6 -12 0.63 0.94
-6 -12 -13 2.82 1.15
6 12 -13 1.72 0.75
-12 -13 -6 0.35 1.1
12 13 -6 -0.21 0.88
6 -12 -13 2.09 1.19
6 -12 -13 1.08 0.83
-12 -13 6 2.3 1.21
-13 -6 12 3.84 1.2
12 -13 -6 1.51 0.8
13 -6 -12 1.66 0.92
12 -13 -6 1.18 0.94
-6 -12 13 0.62 1.11
13 7 -12 3.85 1.25
-7 -12 -13 3.18 1.33
7 12 -13 4.34 0.87
12 13 -7 3.19 1
-12 -13 -7 5.12 1.52
13 7 -12 3.78 1.13
12 13 -7 3.05 1.39
7 -12 13 4.01 1.17
7 -12 -13 4.67 1.35
-12 -13 7 2.35 1.19
12 -13 -7 3.16 1.01
13 -7 -12 4.64 1.07
12 -13 -7 3.34 0.93
7 -12 -13 4.37 1
-13 -7 12 2.9 1.28
-7 -12 13 4.4 1.4
13 8 -12 0.94 1.19
13 8 -12 2.98 1.12
8 12 -13 1.82 0.97
12 13 -8 4.41 1.31
-8 -12 -13 3.92 1.35
8 12 -13 3.71 1.04
8 -12 13 3.43 1.18
12 13 -8 3.09 1.15
13 -8 -12 1.43 0.91
-8 -12 13 2.23 1.32
12 -13 -8 2.42 1.01
-12 -13 8 1.43 1.28
12 -13 -8 2.04 0.97
-13 -8 12 3.95 1.38
8 -12 -13 2.42 1.29
8 -12 -13 2.59 0.89
13 9 -12 9.3 1.3
13 9 -12 10.02 1.49
9 12 -13 10.45 1.45
9 -12 13 6.79 1.27
12 13 -9 8.1 1.49
9 12 -13 11.72 1.64
-9 -12 -13 7.26 1.45
12 13 -9 7.06 1.09
-9 -12 13 9.28 1.69
12 -13 -9 9.35 1.19
12 -13 -9 12.16 1.53
9 -12 -13 10.4 1.27
-12 -13 9 5.99 1.49
13 -9 -12 5.62 1.12
9 -12 -13 9.1 1.49
-13 -9 12 11.14 1.63
13 10 -12 -1.42 1.15
12 13 -10 -0.83 0.81
10 12 -13 1.79 1.24
12 13 -10 1.12 1.35
10 -12 13 -0.11 1.08
10 12 -13 0.97 1.03
-10 -12 -13 1.07 1.38
13 10 -12 0.55 0.98
12 -13 -10 0.53 1.09
-13 -10 12 1.63 1.46
-12 -13 10 -2.16 1.44
12 -13 -10 2.69 1.1
-10 -12 13 -0.75 1.35
10 -12 -13 0.12 0.82
10 -12 -13 -0.29 1.21
13 -10 -12 -0.14 1.01
13 11 -12 1.85 1.09
13 11 -12 -1.2 1.25
12 13 -11 0.74 1.3
12 13 -11 0.27 0.94
-11 -12 -13 0.99 1.63
11 12 -13 0.73 1.3
11 12 -13 -1.84 0.95
11 -12 -13 -0.64 0.86
12 -13 -11 2.39 1.08
12 -13 -11 1.66 1.72
13 -11 -12 0.03 0.94
-13 -11 12 2.56 1.61
-12 -13 11 2.51 1.64
13 12 -12 2.87 1.5
12 13 -12 2.73 1.12
13 12 -12 4.44 1.23
12 12 -13 5.3 1.53
12 13 -12 4.44 1.49
12 12 -13 3.37 1.18
12 -13 -12 5.99 1.21
-12 -13 12 2.76 1.72
12 -12 -13 1.97 1
13 -12 -12 2.29 1.02
-12 -12 13 6.15 1.83
-13 -12 12 -0.06 1.82
-13 0 13 1.67 1.07
0 -13 -13 0.76 1.06
0 -13 13 1.45 1.25
13 -13 0 -0.81 0.82
13 0 -13 -0.39 0.86
13 0 -13 1.21 0.8
13 13 0 1.2 0.85
13 13 -1 4.08 1.09
-13 1 13 6.48 1.2
-1 -13 -13 3.41 1.17
13 1 -13 2.91 0.98
13 1 -13 2.67 1.03
1 -13 13 4.3 1.29
13 -13 1 4.16 1.08
13 -13 -1 1.64 1.01
13 -1 -13 1.94 0.98
13 -1 -13 3.1 0.87
1 -13 -13 3.79 1.3
-1 -13 13 3.73 1.27
-13 -1 13 2 1.09
13 13 1 2.32 1.07
13 2 -13 3.23 1.07
-13 2 13 2.84 1.14
-2 -13 -13 3.46 1.3
13 -13 2 3.54 1.09
2 -13 13 4.98 1.36
-13 -2 13 4.62 1.2
13 -13 -2 4.23 1.14
-2 -13 13 3.96 1.23
13 -2 -13 3.44 1.05
13 -2 -13 2.92 1.33
2 -13 -13 2.33 1.14
13 13 2 3.58 1.68
13 3 -13 11.92 1.45
-3 -13 -13 12.83 1.68
3 13 -13 14.87 1.11
3 -13 13 11.64 1.63
3 -13 -13 13.54 1.71
-3 -13 13 16.48 1.84
13 -13 -3 14.74 1.64
13 -3 -13 11.66 1.48
-13 -3 13 14.3 1.8
13 13 -4 0.01 1.38
-4 -13 -13 -0.69 1.14
13 4 -13 0.78 0.96
13 4 -13 -0.54 0.83
4 13 -13 -0.76 0.67
4 -13 13 0.26 1.18
4 -13 -13 -1.25 1.19
13 -13 -4 -1.43 0.81
13 -4 -13 -0.91 0.94
13 -4 -13 0.79 1.07
-4 -13 13 1.04 1.11
4 -13 -13 -2.02 0.79
-13 -4 13 -0.85 1.15
13 13 4 -0.63 0.93
13 5 -13 21.81 1.85
13 13 -5 25.29 2.27
-5 -13 -13 23.71 2.13
13 5 -13 21 1.84
5 13 -13 22.36 1.38
5 -13 13 22.6 2.03
5 -13 -13 24.2 2.14
5 -13 -13 20.62 1.55
13 -13 -5 20.86 1.82
13 -5 -13 20.86 1.74
13 -5 -13 22.63 1.68
-5 -13 13 21.69 2.01
-13 -13 5 23.08 3.28
-13 -5 13 19.03 2.07
13 13 5 22.46 1.81
13 6 -13 -0.23 1.12
13 13 -6 2.08 0.98
-6 -13 -13 0.21 1.11
13 13 -6 -1.57 1.12
6 13 -13 0.39 0.74
13 6 -13 0.26 0.96
6 -13 13 -1.05 1.1
6 -13 -13 0.75 0.95
13 -13 -6 0.36 0.9
13 -13 -6 0.34 0.76
13 -6 -13 0.97 1.01
6 -13 -13 -1.49 1.17
-13 -13 6 0.57 1.44
-13 -6 13 2 1.24
-6 -13 13 -1.08 1.05
13 13 -7 2.79 1.06
13 13 -7 3.3 1.34
-7 -13 -13 5.97 1.41
13 7 -13 2.51 1.26
13 7 -13 2.84 1.09
7 13 -13 3.86 0.94
7 -13 13 3.04 1.18
7 -13 -13 5.23 1.44
13 -13 -7 2.41 1.01
13 -7 -13 1.86 1
7 -13 -13 3.69 0.96
-7 -13 13 5.71 1.48
-13 -13 7 3.28 1.51
-13 -7 13 5.97 1.41
13 8 -13 14.08 1.88
13 13 -8 13.25 1.48
-8 -13 -13 14.3 1.86
13 13 -8 13.4 1.7
8 13 -13 14.98 1.77
13 8 -13 14.78 1.72
8 -13 13 15.39 1.86
8 13 -13 12.39 1.57
8 -13 -13 14.69 1.35
13 -13 -8 11.51 1.61
13 -8 -13 11.76 1.58
8 -13 -13 16.06 2.1
-13 -13 8 13.28 1.88
-13 -8 13 13.41 1.75
-8 -13 13 11.83 1.84
13 13 -9 2.88 0.98
13 13 -9 1.81 1.31
-9 -13 -13 0.74 1.33
13 9 -13 1.81 1.37
13 9 -13 2.14 1.1
9 -13 13 -0.42 1.15
9 13 -13 4.74 1.2
9 13 -13 1.47 1.18
13 -13 -9 1.87 1.07
13 -9 -13 1.59 1.01
9 -13 -13 -0.98 2.21
9 -13 -13 1.83 0.9
-13 -13 9 4.97 1.9
-13 -9 13 0.01 1.57
13 13 -10 2.92 1.42
-10 -13 -13 3.99 2.61
13 10 -13 2.78 1.5
13 13 -10 4.02 1.08
10 13 -13 3.98 1.37
10 13 -13 2.65 1.1
13 10 -13 3.12 1.25
10 -13 -13 4.47 1.43
13 -10 -13 2.32 1.09
13 -13 -10 3.47 1.17
-10 -13 13 2.13 1.5
10 -13 -13 2.35 0.98
-13 -10 13 3.03 1.84
13 13 -11 5.72 1.55
13 11 -13 5.75 1.56
13 13 -11 4.16 1.14
11 13 -13 6.19 1.61
11 13 -13 2.12 1.15
13 11 -13 4.43 1.27
11 -13 -13 1.37 1.43
13 -11 -13 1.59 1.03
13 -13 -11 5.34 1.26
-11 -13 13 2.54 1.71
11 -13 -13 3.21 1.02
-13 -11 13 5.01 1.85
13 13 -12 2.14 1.12
13 13 -12 2.43 1.58
12 13 -13 0.63 1.06
12 13 -13 1.66 1.53
13 12 -13 4.26 1.58
13 12 -13 1.71 1.23
13 -12 -13 1.27 1.12
13 -13 -12 4.58 1.17
-12 -13 13 2.49 1.94
12 -13 -13 2.55 1.08
13 13 -13 20.36 2.39
13 13 -13 15.93 1.98
13 -13 -13 19.5 1.88
0 -14 0 25.94 1.61
0 0 14 28.98 1.74
14 0 0 26.17 1.41
14 0 0 26.38 1.25
14 -1 0 0.83 0.6
14 1 0 1.11 0.63
14 1 0 0.89 0.49
1 0 14 0.98 0.77
-1 0 14 1.57 0.8
0 -14 -1 0.42 0.72
0 -14 1 1.43 0.79
-2 0 14 13.96 1.33
2 0 14 12.49 1.33
14 -2 0 14.45 1.19
14 2 0 12.93 1.08
14 2 0 12.7 0.97
2 0 -14 15.26 1.11
0 -14 -2 13.34 1.27
0 -14 2 14.22 1.29
14 3 0 24.35 1.3
14 -3 0 26.21 1.48
0 -14 -3 23.59 1.65
0 -14 3 23.66 1.65
14 -3 0 23.6 1.16
3 0 -14 24.31 1.37
3 0 14 27 1.63
14 3 0 23.77 1.3
-3 0 14 23.65 1.58
0 -14 -4 13.58 1.34
14 4 0 16.97 1.06
14 -4 0 15.73 0.93
4 0 -14 16.68 1.17
4 0 14 16.92 1.36
14 -4 0 15.45 1.24
-4 0 14 15.02 1.37
14 4 0 16.72 1.13
0 -14 4 13.42 1.31
0 -14 5 20.74 1.64
0 14 -5 19.57 1.42
5 0 -14 21.27 1.36
5 0 14 22.23 1.45
14 -5 0 22.25 1.52
14 5 0 21.2 1.25
14 -5 0 20.19 1.09
0 -14 -5 22.18 1.57
14 5 0 23.5 1.31
-5 0 14 19.01 1.53
6 0 14 14.48 1.21
14 -6 0 16.47 1.32
14 -6 0 15.2 0.98
14 6 0 12.9 1.15
14 6 0 15.42 1.1
-6 0 14 15.57 1.52
0 -14 6 13.68 1.41
0 14 -6 12.67 0.87
6 0 -14 15.2 1.24
0 -14 -6 14.49 1.53
0 -14 7 0.83 0.91
0 -14 -7 -1.21 0.76
7 0 -14 -0.11 0.69
14 7 0 -0.79 0.51
7 0 -14 0.13 0.78
14 7 0 0.18 0.71
-7 0 14 0.51 0.78
14 -7 0 -0.5 0.77
8 0 -14 18.37 1.44
-8 0 14 17.47 1.51
14 8 0 18.74 1.26
14 -8 0 19.75 1.51
8 0 -14 15.65 1.46
0 -14 8 17.59 1.6
0 -14 -8 17.95 1.71
14 9 0 29.27 1.7
9 0 -14 29.35 1.81
9 0 -14 28.51 1.72
0 -14 -9 28.68 1.97
0 -14 9 29.31 1.93
-9 0 14 28.67 1.93
14 -9 0 27.76 1.79
0 -14 10 14.07 1.58
10 0 -14 13.18 1.32
10 0 -14 11.53 1.04
14 10 0 15.65 1.33
10 0 -14 13.89 1.48
0 -14 -10 14.76 1.63
-10 0 14 10.33 1.37
14 -10 0 14.57 1.56
0 -14 -11 3.32 1.13
11 0 -14 3.42 0.82
11 0 -14 3.86 0.79
11 0 -14 2.01 1.59
0 -14 11 3.81 1.15
14 -11 0 4.18 1.33
14 11 0 4.53 0.88
-11 0 14 2.23 1.13
-12 0 14 1.8 1.14
14 12 0 1.04 1.33
12 0 -14 1.49 0.76
12 0 -14 0.07 0.8
0 -14 12 1.04 1.1
14 -12 0 -0.46 0.93
12 0 -14 2.06 0.99
0 -14 -12 1.1 1.04
13 0 -14 -0.75 0.87
14 13 0 0.19 0.86
13 0 -14 0.53 0.78
14 -13 0 0.65 0.95
0 -14 -13 -0.55 1.09
0 -14 13 1.98 1.26
14 0 1 0.77 0.6
1 -14 0 1.53 0.78
14 0 1 0.81 0.49
-1 -14 0 1.2 0.7
0 1 14 0.72 0.73
14 0 -1 -0.21 0.45
0 -1 14 0.7 0.72
14 0 -1 0.75 0.66
1 -14 1 14.02 1.26
14 -1 1 14.35 1.17
-1 -14 -1 16.01 1.32
14 1 -1 15.33 1.02
14 1 -1 16.38 1.18
-1 1 14 14 1.43
1 -1 14 13.45 1.26
1 -14 -1 16.91 1.35
1 -1 -14 16.13 1.07
14 -1 -1 15.18 0.91
14 1 1 15.39 1.08
14 1 1 16.84 1.01
-1 -1 14 15.67 1.35
-1 -14 1 14.83 1.37
14 -1 -1 16.29 1.2
1 1 14 14.91 1.3
1 14 -2 9.99 0.76
14 2 -1 12.35 1.03
14 -2 1 10.51 0.8
14 -2 1 6.87 0.98
-1 -14 -2 10.49 1.19
14 2 -1 10.65 0.85
1 -14 2 11.72 1.22
-2 1 14 10.08 1.23
2 -1 14 11.6 1.3
-2 -1 14 8.64 1.2
14 2 1 9.7 0.83
-1 -14 2 8.01 1.12
2 1 14 8.8 1.11
1 -14 -2 10.16 1.31
2 -1 -14 8.33 0.89
14 2 1 10.98 0.98
14 -2 -1 10.83 1.06
-3 1 14 -0.08 0.72
14 3 -1 1.13 0.55
14 -3 1 1.16 0.5
14 3 -1 1.03 0.58
-1 -14 -3 -0.45 0.63
3 1 -14 0.56 0.59
3 -1 14 1 0.68
14 -3 1 0.78 0.64
1 14 -3 1.51 0.45
1 -14 3 0.32 0.68
-3 -1 14 1.29 0.78
14 -3 -1 0.43 0.67
14 3 1 0.89 0.56
1 -14 -3 0.97 0.74
-1 -14 3 0.03 0.79
3 1 14 1.35 0.68
3 -1 -14 0.86 0.56
14 3 1 0.89 0.49
-4 1 14 17.74 1.44
1 -14 4 17.82 1.42
1 14 -4 17.93 0.98
14 4 -1 19.7 1.17
14 -4 1 18.89 1.31
-1 -14 -4 20.57 1.49
4 -1 14 18.68 1.45
14 -4 1 18.61 1.06
14 4 -1 20.52 1.17
4 1 -14 20.61 1.28
4 1 14 21.43 1.47
14 4 1 18.59 1.15
14 4 1 19.98 1.15
-4 -1 14 19.97 1.51
1 -14 -4 19.34 1.56
-1 -14 4 19.87 1.46
4 -1 -14 20.55 1.32
14 -4 -1 20.56 1.4
14 -4 -1 18.75 1.34
14 5 -1 1.17 0.58
14 -5 1 0.57 0.72
-1 -14 -5 0.34 0.75
14 -5 1 1.17 0.93
14 5 -1 -0.61 0.49
1 -14 5 0.15 0.73
5 1 -14 0.07 0.65
5 -1 14 0.12 0.69
-5 1 14 -0.35 0.72
14 -5 -1 1.04 0.73
5 1 14 0.23 0.67
14 5 1 0.34 0.59
1 -14 -5 0.62 0.85
14 -5 -1 -0.56 0.44
5 -1 -14 0.2 0.61
14 5 1 -0.65 0.48
-5 -1 14 0.69 0.81
-1 -14 5 -0.6 0.75
14 6 -1 0.22 0.61
-1 -14 -6 -0.53 0.83
14 6 -1 0.3 0.51
-6 1 14 -0.39 0.78
14 -6 1 -0.57 0.72
6 -1 14 -0.08 0.71
1 -14 6 0.66 0.81
6 1 -14 0.13 0.65
1 14 -6 1.2 0.48
14 -6 -1 -0.77 0.48
6 -1 -14 -0.14 0.61
1 -14 -6 -0.06 0.82
14 6 1 -0.59 0.52
14 -6 -1 -0.9 0.7
-6 -1 14 -0.26 0.83
-1 -14 6 -0.18 0.72
14 6 1 -0.58 0.61
6 -1 -14 -1.17 0.69
-7 1 14 14.22 1.4
1 14 -7 14.26 0.89
7 -1 14 16.1 1.19
14 7 -1 14.21 1.12
14 -7 1 15.12 1.42
14 7 -1 16.58 1.12
7 1 -14 15.3 1.33
1 -14 7 14.46 1.43
-1 -14 -7 14.64 1.45
7 -1 -14 13.4 1.25
14 -7 -1 14.83 0.99
1 -14 -7 14.25 1.47
14 -7 -1 15.02 1.42
14 7 1 13.68 1.17
7 -1 -14 12.63 1.32
-1 -14 7 16.24 1.6
-7 -1 14 13.31 1.39
14 8 -1 4.19 0.84
14 8 -1 5.5 0.8
8 1 -14 4.66 0.92
1 -14 8 3.34 1.03
-1 -14 -8 4.58 1.14
-8 1 14 3.14 0.95
1 14 -8 4.6 0.62
8 1 -14 4.31 0.93
14 -8 1 3.87 0.99
14 8 1 3.86 0.83
1 -14 -8 3.05 1.02
8 -1 -14 4.32 0.93
-8 -1 14 2.98 1.04
14 -8 -1 3.55 0.97
8 -1 -14 4.52 0.96
-1 -14 8 1.42 0.92
9 1 -14 2.9 0.93
-1 -14 -9 2.57 1.01
1 -14 9 1.78 0.93
14 9 -1 1.54 0.82
-9 1 14 2.68 1.04
14 -9 1 3.41 0.99
9 1 -14 1.43 0.73
9 1 -14 3.16 0.91
14 9 1 2.92 0.77
1 -14 -9 4.39 1.16
14 -9 -1 2.93 0.99
9 -1 -14 4.36 1.01
-1 -14 9 2.33 1
-9 -1 14 3.13 0.96
9 -1 -14 3.34 0.88
10 1 -14 11.18 1.5
-1 -14 -10 12.86 1.63
14 10 -1 15.27 1.24
14 -10 1 15.68 1.72
1 -14 10 15.33 1.76
10 1 -14 16.22 1.37
10 1 -14 12.77 1.23
-10 1 14 11.99 1.6
1 -14 -10 13.74 1.75
14 10 1 14.73 1.2
-1 -14 10 16.34 1.63
10 -1 -14 14.61 1.52
-10 -1 14 15.04 1.67
10 -1 -14 16.35 1.42
14 -10 -1 16.14 1.58
-11 1 14 -0.02 1
14 -11 1 -0.43 1.14
11 1 -14 0.71 0.77
-1 -14 -11 -0.72 0.97
1 -14 11 -1.05 1.14
11 1 -14 -0.41 0.59
14 11 -1 -1.15 0.64
11 1 -14 0.02 0.94
1 -14 -11 1.1 1.19
-1 -14 11 0.48 0.99
14 -11 -1 0.28 1.15
11 -1 -14 -0.11 0.62
14 11 1 -0.48 0.64
11 -1 -14 0.07 0.78
11 -1 -14 0.88 1.32
-11 -1 14 1.03 1.05
1 -14 12 1.64 1.23
12 1 -14 2.3 1.33
12 1 -14 1.19 0.97
14 -12 1 0.66 0.94
-1 -14 -12 1.05 1.06
-12 1 14 1.89 1.16
12 -1 -14 0.25 0.95
14 -12 -1 1.99 1.04
1 -14 -12 0.85 1.08
-1 -14 12 2.14 1.2
12 -1 -14 1.66 0.78
-12 -1 14 2.25 1
-1 -14 -13 1.54 1.22
1 -14 13 2.2 1.25
13 1 -14 0.03 0.86
14 13 -1 1.11 0.94
-13 1 14 1.51 1.18
14 -13 1 1.55 1.08
13 1 -14 1.78 1.04
13 -1 -14 0.81 0.82
14 13 1 -0.06 0.88
13 -1 -14 2.56 1.02
14 -13 -1 -0.37 0.94
-1 -14 13 2.67 1.25
-13 -1 14 0.69 1.19
1 -14 -13 0.39 1.16
0 -2 -14 14.09 0.95
0 -2 14 13.68 1.29
2 -14 0 12.93 1.25
14 0 2 14.13 1.09
0 2 14 14.13 1.42
14 0 -2 14.08 0.95
-2 -14 0 13.83 1.36
14 0 -2 12.99 1.14
14 -1 2 10.19 0.81
-2 -14 -1 9.28 1.15
14 1 -2 11.71 0.89
2 -14 1 9.59 1.28
14 -1 2 9.67 1.04
1 -2 14 10.53 1.17
14 1 -2 9.63 1.28
-1 2 14 8.9 1.16
2 14 -1 9.26 0.76
-1 -2 -14 11.2 0.83
14 1 2 9.41 0.77
1 2 14 10.56 1.3
1 -2 -14 8.79 0.85
-2 -14 1 10.04 1.16
14 -1 -2 8.16 0.81
-1 -2 14 10.83 1.23
2 -14 -1 9.37 1.16
14 -1 -2 10.76 1.07
14 1 2 10.69 0.98
2 -2 14 4.82 0.89
-2 2 14 4.47 0.92
14 2 -2 3.99 0.72
14 -2 2 5.04 0.69
14 -2 2 4.72 0.76
-2 -14 -2 5.12 0.93
2 14 -2 4.68 0.58
14 2 -2 4.82 0.67
2 -14 2 5.39 0.93
14 2 2 5.09 0.71
14 2 2 5.09 0.72
14 -2 -2 4.82 0.87
2 2 14 5.37 0.9
-2 -2 14 4.49 0.92
2 -14 -2 3.54 0.87
2 -2 -14 5.15 0.72
14 -2 -2 4.26 0.64
-2 -14 2 3.26 0.84
14 -3 2 62.7 2.42
-2 -14 -3 60.77 2.65
2 14 -3 60.99 2.16
-3 2 14 63.66 2.67
3 -2 14 61.02 2.54
14 -3 2 65 2.16
14 3 -2 63.17 2.35
2 -14 3 61.17 2.64
14 3 -2 61.68 2.29
-3 -2 14 59.9 2.68
-2 -14 3 62.62 2.62
3 -2 -14 61.51 2.34
14 3 2 63.12 2.24
2 -14 -3 60.96 2.66
14 3 2 61.71 2.31
3 2 14 64.1 2.59
14 -3 -2 61.31 2.44
14 -3 -2 62.36 2.21
-4 2 14 10.99 1.4
2 14 -4 11.7 0.8
4 -2 14 11.01 1.13
14 4 -2 11.34 0.98
4 2 -14 10.32 1.05
14 -4 2 10.74 1.18
14 -4 2 11.32 1
-2 -14 -4 10.14 1.22
2 -14 4 11.47 1.24
14 4 -2 11.28 1.01
4 -2 -14 10.44 1.3
14 4 2 9.66 0.9
14 4 2 9.96 1
4 -2 -14 11.65 1.03
-4 -2 14 12.98 1.31
14 -4 -2 11.86 1.17
-2 -14 4 12.22 1.36
2 -14 -4 11.93 1.27
2 14 -5 7.3 0.69
14 -5 2 9.02 1.17
5 -2 14 7.68 1.03
5 2 -14 8.61 1.08
-5 2 14 7.49 1.2
14 5 -2 8.9 0.99
-2 -14 -5 8.9 1.21
2 -14 5 6.98 1.13
14 5 -2 8.45 0.92
14 5 2 7.55 0.97
2 -14 -5 6.48 1.04
5 -2 -14 7.94 0.96
5 -2 -14 9.66 1.14
14 5 2 7.12 0.86
14 -5 -2 6.64 0.98
-2 -14 5 7.26 1.06
-5 -2 14 7.88 1.18
14 6 -2 4.4 0.74
14 -6 2 4.32 0.92
6 2 -14 3.57 0.85
-6 2 14 4.3 0.99
14 6 -2 4.21 0.77
2 -14 6 4.02 0.93
-2 -14 -6 4.79 0.97
6 -2 14 4.61 0.88
2 14 -6 3.44 0.56
6 -2 -14 4.86 0.83
2 -14 -6 3.45 0.93
14 -6 -2 4.32 0.91
2 -14 -6 4.46 0.63
-2 -14 6 4.81 1.04
6 -2 -14 4.27 0.9
-6 -2 14 4.19 0.95
14 6 2 4.21 0.76
7 -2 14 3.16 0.8
2 -14 7 2.79 0.96
-7 2 14 2.97 0.99
14 -7 2 2.74 0.89
14 7 -2 2.97 0.71
7 2 -14 2.33 0.85
-2 -14 -7 1.68 0.95
14 7 -2 2.01 0.62
2 14 -7 1.75 0.52
2 -14 -7 3.09 0.61
14 7 2 3.16 0.72
-2 -14 7 1.94 0.9
7 -2 -14 2.21 0.83
2 -14 -7 1.74 1
14 -7 -2 2.75 0.87
-7 -2 14 2.34 0.99
7 -2 -14 3.07 0.95
8 2 -14 32.46 1.77
14 8 -2 31.12 1.69
8 2 -14 28.83 1.75
2 -14 8 28.36 1.95
14 -8 2 29.29 1.85
14 8 -2 30.96 1.53
-8 2 14 25.86 1.9
-2 -14 -8 30.55 2.03
8 2 -14 29.64 1.55
2 14 -8 25.26 1.26
2 -14 -8 30.16 1.33
8 -2 -14 30.42 1.77
-8 -2 14 30.7 1.97
2 -14 -8 29.39 2.04
8 -2 -14 29.05 1.69
-2 -14 8 29.19 2
14 8 2 30.03 1.63
14 -8 -2 30.87 1.83
14 -8 -2 29.09 1.5
14 -9 2 2.03 0.96
14 9 -2 -0.81 0.69
-2 -14 -9 1.19 0.91
2 -14 9 0.07 0.88
9 2 -14 1.16 0.72
2 14 -9 0.71 0.52
-9 2 14 -0.9 0.87
9 2 -14 0 0.82
14 9 -2 0.98 0.91
9 2 -14 0.26 0.77
14 -9 -2 0.53 0.94
14 9 2 0.86 0.63
9 -2 -14 0.44 0.82
-9 -2 14 1.2 0.89
9 -2 -14 0.18 0.8
2 -14 -9 0.87 0.96
-2 -14 9 0.64 0.99
14 10 -2 1.44 0.76
2 14 -10 4.1 0.72
10 2 -14 3.78 0.89
10 2 -14 2.01 0.99
10 2 -14 2.99 0.87
-2 -14 -10 1.49 1.02
2 -14 10 3.41 1.07
14 -10 2 4.13 1.12
-10 2 14 2.24 1.07
14 10 2 3.59 0.79
10 -2 -14 3.48 1.07
-10 -2 14 4.44 1.09
14 -10 -2 2.32 1.02
2 -14 -10 2.83 1.08
-2 -14 10 2.42 1.06
10 -2 -14 2.38 0.85
11 2 -14 14.09 1.54
14 11 -2 12.37 1.29
2 -14 11 14.97 1.64
-2 -14 -11 13.66 1.87
11 2 -14 10.52 1.24
14 -11 2 15.52 1.63
-11 2 14 12.33 1.68
11 2 -14 16.57 1.28
-2 -14 11 14.28 1.67
14 -11 -2 11.5 1.5
11 -2 -14 13.17 1.3
-11 -2 14 14.37 1.55
11 -2 -14 13.39 1.56
2 -14 -11 15.53 1.67
14 11 2 14.26 1.28
12 2 -14 2.72 1.07
-12 2 14 4.88 1.28
2 -14 12 2.09 1.14
14 -12 2 2.09 1.08
-2 -14 -12 2.12 1.25
12 -2 -14 3.02 0.97
-2 -14 12 2.71 1.33
12 -2 -14 3.09 0.8
2 -14 -12 3.19 1.23
14 -12 -2 4.12 1.16
-12 -2 14 4.26 1.22
-2 -14 -13 7.5 1.46
2 -14 13 6.49 1.56
14 13 -2 6.15 1.24
13 2 -14 6.97 1.1
13 2 -14 8.04 1.31
14 -13 2 5.22 1.22
-13 2 14 8.3 1.4
14 13 2 8.62 1.29
-2 -14 13 8.63 1.58
2 -14 -13 8.91 1.59
14 -13 -2 7.22 1.26
13 -2 -14 8.54 1.2
13 -2 -14 6.99 1.22
-13 -2 14 7.71 1.42
3 14 0 22.46 1.16
3 -14 0 23.33 1.51
-3 -14 0 22.19 1.5
14 0 3 25.27 1.3
14 0 -3 23.34 1.22
0 3 14 24.51 1.56
0 -3 14 21.94 1.63
0 -3 -14 25.49 1.22
14 0 -3 24.78 1.42
-1 3 14 2.9 0.91
1 -3 14 1.68 0.83
14 -1 3 1.01 0.59
14 1 -3 1.2 0.65
14 -1 3 0.96 0.52
3 14 -1 1.16 0.45
-3 -14 -1 1.22 0.74
-1 -3 -14 1.07 0.49
3 -14 1 0.4 0.77
14 1 -3 0.21 0.43
14 1 3 1.31 0.5
-3 -14 1 0.71 0.78
14 -1 -3 0.89 0.49
1 -3 -14 0.55 0.48
-1 -3 14 0.76 0.83
3 -14 -1 0.89 0.73
1 3 14 -0.08 0.68
14 -1 -3 1.27 0.66
14 1 3 1.72 0.57
14 -2 3 64.39 2.37
-3 -14 -2 62.9 2.58
3 -14 2 57.59 2.54
14 2 -3 62.32 2.33
14 -2 3 61.97 2.15
14 2 -3 61.47 2.31
-2 3 14 60.31 2.62
-2 -3 -14 62.41 2.17
2 -3 14 63.38 2.65
3 14 -2 60.67 2.2
14 -2 -3 60.45 2.4
3 -14 -2 63.73 2.6
-3 -14 2 59.38 2.57
2 -3 -14 61.91 2.26
14 2 3 63.05 2.2
-2 -3 14 61.68 2.7
14 2 3 60.96 2.24
14 -2 -3 58.94 2.21
3 -14 3 93.19 3.47
-3 3 14 90.99 3.52
-3 -3 -14 93.7 2.97
-3 -14 -3 91.06 3.41
3 -3 14 91.63 3.39
14 3 -3 91.33 3.14
14 -3 3 96.44 3.25
14 3 -3 92.51 3.21
3 14 -3 91.24 3.04
14 3 3 94.53 3.16
3 -3 -14 96.53 3.17
14 3 3 94.89 3
-3 -14 3 89.69 3.47
3 -3 -14 86.9 3.38
14 -3 -3 91.15 3.28
3 -14 -3 92.01 3.44
-3 -3 14 88.89 3.46
14 -3 -3 90.58 3.07
14 4 -3 10.49 1.08
14 -4 3 11.9 1.15
14 4 -3 9.98 0.97
3 -14 4 9.42 1.2
-4 3 14 11.26 1.29
3 14 -4 7.65 0.77
4 -3 14 12.43 1.19
-3 -14 -4 10.35 1.26
3 -14 -4 10.75 0.85
4 -3 -14 10.97 1.23
14 4 3 10.47 0.99
14 4 3 11.63 0.97
-4 -3 14 9.9 1.26
14 -4 -3 11.66 1.2
4 -3 -14 11.23 1.07
3 -14 -4 11.06 1.38
14 -4 -3 9.91 0.84
-3 -14 4 9.97 1.23
14 -5 3 11.24 1.17
14 5 -3 11.34 0.98
-5 3 14 11.6 1.29
14 5 -3 12.07 1.06
3 -14 5 11.21 1.41
3 14 -5 10.58 0.8
5 -3 14 12.52 1.3
5 3 -14 9.67 1.12
-3 -14 -5 11.91 1.31
14 -5 -3 12.21 1.27
5 -3 -14 10.5 1.15
-5 -3 14 10 1.31
14 -5 -3 11.42 0.9
-3 -14 5 11.66 1.28
3 -14 -5 12.17 1.44
3 -14 -5 11.56 0.92
5 -3 -14 10.18 1.2
14 5 3 11.12 0.93
-6 3 14 0.41 0.78
14 6 -3 0.4 0.52
6 -3 14 -0.44 0.69
6 3 -14 0.13 0.73
3 14 -6 0.18 0.42
14 -6 3 0.95 0.81
-3 -14 -6 -0.82 0.75
14 6 -3 0.5 0.62
3 -14 6 -0.41 0.72
3 -14 -6 -1.31 0.73
-6 -3 14 0.06 0.88
3 -14 -6 0.91 0.5
14 -6 -3 -0.36 0.71
6 -3 -14 -0.91 0.68
14 -6 -3 0.38 0.51
14 6 3 -0.59 0.52
6 -3 -14 0.82 0.83
-3 -14 6 -0.11 0.81
7 3 -14 -0.12 0.7
3 -14 7 -0.82 0.75
3 14 -7 -0.72 0.43
7 -3 14 -0.28 0.68
14 7 -3 0.06 0.65
7 3 -14 -0.07 0.47
-3 -14 -7 -0.65 0.76
14 -7 3 -0.3 0.78
-7 3 14 -0.02 0.76
14 7 -3 0.62 0.66
7 -3 -14 0.73 0.84
7 -3 -14 -0.35 0.7
3 -14 -7 0.49 0.55
-7 -3 14 -0.5 0.77
-3 -14 7 0 0.81
3 -14 -7 -0.17 0.93
14 7 3 0.08 0.56
14 -7 -3 -0.45 0.77
14 -7 -3 -0.42 0.51
14 -8 3 158.38 5.28
14 8 -3 159.96 4.94
8 3 -14 156.87 5.17
-8 3 14 164.03 5.49
8 -3 14 169.49 5.07
8 3 -14 159.03 5.31
14 8 -3 158.3 5.29
3 -14 8 155.81 5.43
3 14 -8 156.81 4.88
-3 -14 -8 158.2 5.44
14 -8 -3 154.46 4.86
8 -3 -14 162.95 5.27
-3 -14 8 153.45 5.43
3 -14 -8 163.03 4.89
3 -14 -8 158.9 5.53
-8 -3 14 159.16 5.44
14 -8 -3 160.63 5.35
8 -3 -14 156.13 5.21
14 8 3 164.15 5.25
14 9 -3 22.8 1.4
-3 -14 -9 20.53 1.71
9 3 -14 19.3 1.68
9 3 -14 22.41 1.49
9 3 -14 21.12 1.37
14 9 -3 19.33 1.35
-9 3 14 20.58 1.64
3 -14 9 17.96 1.75
3 14 -9 19.43 1.1
14 -9 3 18.49 1.59
9 -3 -14 19.97 1.53
14 9 3 19.92 1.34
-9 -3 14 21.21 1.67
-3 -14 9 16.7 1.77
9 -3 -14 21.8 1.61
14 -9 -3 19.82 1.66
3 -14 -9 18.6 1.7
3 -14 -9 19.17 1.25
14 -9 -3 20.9 1.19
-3 -14 -10 -0.39 0.96
-10 3 14 0.71 1.04
14 10 -3 -0.4 0.56
14 -10 3 -0.8 1.03
10 3 -14 0.16 0.98
3 14 -10 0.26 0.55
10 3 -14 -0.28 0.67
3 -14 10 -1.79 0.93
10 3 -14 -0.37 0.77
-10 -3 14 1.87 1.02
14 10 3 -0.03 0.69
14 -10 -3 1.32 1.08
10 -3 -14 -0.58 0.84
10 -3 -14 -0.16 0.83
-3 -14 10 -0.96 0.99
3 -14 -10 0.27 0.69
3 -14 -10 -1.08 0.94
11 3 -14 19.64 1.41
14 -11 3 20.63 1.73
3 -14 11 16.73 1.88
11 3 -14 18.46 1.54
14 11 -3 16.43 1.42
-3 -14 -11 17.63 1.73
3 14 -11 15.6 1.09
11 3 -14 17.7 1.67
-11 3 14 16.42 1.74
11 -3 -14 18.78 1.45
-11 -3 14 19.74 1.9
-3 -14 11 18.84 1.97
14 -11 -3 15.68 1.6
14 11 3 20.77 1.44
3 -14 -11 16.8 1.77
11 -3 -14 18.87 1.73
14 12 -3 4.06 1.37
14 -12 3 5.21 1.2
12 3 -14 3.22 1.07
-3 -14 -12 2.73 1.29
3 -14 12 5.12 1.34
12 3 -14 3.15 2.03
14 -12 -3 3.15 1.11
-12 -3 14 3.12 1.27
3 -14 -12 3.79 1.29
12 -3 -14 2.53 1.04
-3 -14 12 5.73 1.4
14 12 3 3.09 1.87
12 -3 -14 3.11 1.62
-3 -14 -13 13.91 2
14 13 -3 16.8 1.94
13 3 -14 15.48 1.5
3 -14 13 16.68 2.04
13 3 -14 14.8 1.58
-3 -14 13 16.83 1.93
14 13 3 15.87 1.53
13 -3 -14 15.05 1.64
3 -14 -13 18.34 2.14
13 -3 -14 14.27 1.5
-13 -3 14 14.33 1.67
14 -13 -3 15.94 1.77
14 0 -4 14.61 1
0 -4 -14 17.2 1.01
4 14 0 16.1 0.98
4 -14 0 17.8 1.37
14 0 -4 18.71 1.31
0 -4 14 15.54 1.38
0 -4 -14 17.44 1.38
14 0 4 15.81 1.15
-4 -14 0 17.19 1.34
14 -1 4 20.63 1.07
1 -4 14 19.16 1.44
4 -14 1 17.08 1.36
-1 4 14 18.24 1.43
-1 -4 -14 17.77 1.02
4 14 -1 17.95 1.05
14 1 -4 18.81 1.24
-4 -14 -1 16.71 1.37
14 1 -4 17.27 1.11
14 -1 4 18.05 1.23
14 1 4 19.95 1.08
14 -1 -4 17.9 1.27
14 1 4 18.94 1.17
1 -4 -14 18.99 1.44
1 -4 -14 19.65 1.1
4 14 1 18.81 1.06
-4 -14 1 19.39 1.49
14 -1 -4 18.27 1.07
4 -14 -1 19.46 1.51
-1 -4 14 18.5 1.47
14 -2 4 12.86 0.9
14 2 -4 12.49 1.14
2 -4 14 11.74 1.25
14 -2 4 10.5 1.08
4 14 -2 11.66 0.86
4 -14 2 9.69 1.27
-2 -4 -14 10.49 0.87
-2 4 14 9.95 1.25
-4 -14 -2 12.43 1.21
14 2 -4 10.74 0.97
14 2 4 10.89 1.04
2 -4 -14 11.79 0.95
2 -4 -14 10.19 1.31
14 2 4 11.69 0.92
-4 -14 2 12.32 1.22
14 -2 -4 11.35 0.92
14 -2 -4 10.46 1.1
4 -14 -2 10.03 1.2
-2 -4 14 11.51 1.29
-3 -4 -14 10.41 0.84
14 -3 4 10.96 0.88
4 -14 3 10.93 1.2
-3 4 14 10.44 1.28
14 -3 4 10.33 1.16
14 3 -4 10.92 1.11
-4 -14 -3 8.83 1.15
4 14 -3 11.23 0.83
3 -4 14 10.24 1.32
14 3 -4 12.07 1
-4 -14 3 9.55 1.19
4 -14 -3 10.62 0.93
3 -4 -14 11.6 1.02
4 -14 -3 12.06 1.27
14 -3 -4 10.99 1.15
14 3 4 12.49 1.02
3 -4 -14 12.91 1.27
14 3 4 9.08 0.94
14 -3 -4 11.4 0.89
-3 -4 14 10.84 1.29
4 -4 14 41.24 2.06
14 -4 4 43.36 1.91
-4 -14 -4 39.78 2.03
4 -14 4 38.52 2.09
4 14 -4 41.03 1.66
14 4 -4 40.13 1.81
14 4 -4 39.77 1.79
-4 4 14 42.23 2.21
-4 -4 -14 41.52 1.58
4 -14 -4 40.9 1.7
14 -4 -4 37.28 1.91
4 -14 -4 38.85 2.05
14 4 4 42.57 1.74
-4 -4 14 40.8 2.21
4 -4 -14 41.66 1.85
4 -4 -14 40.83 2.05
14 4 4 41.76 1.79
-4 -14 4 39.47 2.09
14 -4 -4 38.2 1.66
14 5 -4 3.13 0.72
-5 -4 -14 1.24 0.54
-4 -14 -5 1.94 0.83
4 -14 5 2.52 0.87
5 4 -14 1.89 0.56
5 -4 14 3.31 0.82
14 -5 4 1.54 0.81
14 5 -4 1.48 0.58
5 4 -14 2.63 0.76
-5 4 14 2.59 0.91
4 14 -5 2.32 0.51
5 -4 -14 2.78 0.77
-4 -14 5 2.76 0.87
5 -4 -14 2.58 0.9
4 -14 -5 2.6 0.58
-5 -4 14 2.73 0.91
14 -5 -4 2.19 0.58
14 5 4 3.31 0.68
14 -5 -4 2.88 0.94
4 -14 -5 2.24 0.85
6 -4 14 9.27 1.19
6 4 -14 8.39 1.07
14 6 -4 9.77 1.06
6 4 -14 6.78 0.78
14 -6 4 9.23 1.16
4 14 -6 8.7 0.76
4 -14 6 6.43 1.12
14 6 -4 7.22 1
-4 -14 -6 7.19 1.09
-6 4 14 7.67 1.23
14 6 4 7.53 0.96
6 -4 -14 7.89 1.13
6 -4 -14 8.18 1.14
4 -14 -6 7.26 1.14
4 -14 -6 6.56 0.88
14 -6 -4 7.15 0.83
-4 -14 6 7.17 1.17
-6 -4 14 7.64 1.11
14 -6 -4 8.59 1.13
-7 4 14 19.11 1.56
14 -7 4 18.6 1.54
4 -14 7 17.81 1.68
-4 -14 -7 18.4 1.51
14 7 -4 19.17 1.31
14 7 -4 18.22 1.35
7 4 -14 18.35 1.17
7 -4 14 18.82 1.36
7 4 -14 17.98 1.52
4 14 -7 18.97 1.06
7 -4 -14 19.24 1.44
14 -7 -4 18.19 1.1
14 7 4 20.77 1.28
-7 -4 14 17.01 1.54
14 -7 -4 19.76 1.54
4 -14 -7 18.74 1.18
7 -4 -14 19.07 1.46
4 -14 -7 19.24 1.6
-4 -14 7 21.27 1.64
8 4 -14 3.93 0.79
8 -4 14 3.67 0.8
14 8 -4 4.03 0.88
8 4 -14 2.09 0.92
14 -8 4 2.95 1.02
-4 -14 -8 3.97 1
4 -14 8 3.62 0.97
-8 4 14 2.98 0.94
14 8 -4 3.01 0.8
4 14 -8 2.49 0.57
14 -8 -4 3.19 1
-4 -14 8 3.81 1.01
4 -14 -8 2.85 0.72
8 -4 -14 3.2 0.95
-8 -4 14 1.1 0.87
14 8 4 2.28 0.71
4 -14 -8 4.4 1.06
14 -8 -4 4.1 0.68
8 -4 -14 3.12 0.86
4 -14 9 32.12 1.99
4 14 -9 32.37 1.47
14 9 -4 34.62 1.79
9 4 -14 32.51 1.76
-9 4 14 32.4 1.97
-4 -14 -9 33.49 2.17
9 4 -14 33.37 1.95
9 -4 14 33.04 1.61
14 9 -4 30.62 1.67
14 -9 4 34.72 2.07
4 -14 -9 35.38 2.25
9 -4 -14 35.9 1.9
14 9 4 33.16 1.74
9 -4 -14 31.88 1.83
14 -9 -4 31.95 1.5
-4 -14 9 33.84 2.19
4 -14 -9 30.91 1.56
-9 -4 14 31.7 2.1
14 -9 -4 31.98 2
14 10 -4 16.3 1.31
-4 -14 -10 17.83 1.81
4 -14 10 17.61 1.64
14 10 -4 18.1 1.43
10 4 -14 21.31 1.5
4 14 -10 15.93 1.1
10 4 -14 16.99 1.37
14 10 4 18.35 1.37
10 -4 -14 23.62 1.59
14 -10 -4 19.17 1.2
4 -14 -10 21.39 1.96
-4 -14 10 15.8 1.89
4 -14 -10 20.81 1.28
-10 -4 14 14.18 1.75
10 -4 -14 17.49 1.64
4 -14 11 2.55 1.11
11 4 -14 0.6 0.89
-11 -4 -14 0.39 1.05
11 4 -14 1.81 0.98
4 14 -11 0.86 0.62
11 4 -14 0.12 0.78
-4 -14 -11 2.66 1.07
14 11 -4 0.61 0.76
11 -4 -14 0.35 0.82
-4 -14 11 1.8 1.19
4 -14 -11 1.39 0.76
4 -14 -11 0.74 1.17
14 11 4 0.26 0.71
11 -4 -14 0.36 0.82
14 -11 -4 -0.14 0.89
-11 -4 14 1.8 1.16
-12 -4 -14 17.49 1.94
-4 -14 -12 14.95 1.97
4 14 -12 13.74 1.15
4 -14 12 13.04 1.69
14 12 -4 18.65 2
12 4 -14 14.7 1.73
12 4 -14 16.44 1.62
12 -4 -14 15.51 1.35
12 -4 -14 15.35 1.56
4 -14 -12 18.65 1.99
4 -14 -12 16.45 1.8
-12 -4 14 13.71 1.65
14 -12 -4 18.2 1.63
-4 -14 12 18.19 2.13
14 12 4 15.38 1.67
4 14 -13 0.16 0.73
13 4 -14 1.72 1.11
13 4 -14 1.72 1.08
-4 -14 -13 1.27 1.29
14 13 -4 0.5 1.16
4 -14 13 -0.57 1.25
-13 -4 14 1.66 1.34
4 -14 -13 0.87 1.2
14 -13 -4 1.41 1.02
14 13 4 1.02 0.88
13 -4 -14 1.95 1.04
13 -4 -14 0.24 0.87
-4 -14 13 1.6 1.26
0 -5 -14 21.47 1.13
14 0 -5 20.93 1.38
14 0 -5 20.28 1.17
0 -5 -14 21.74 1.62
5 14 0 22.59 1.18
14 0 5 20.04 1.32
-5 -14 0 22.55 1.56
-14 0 5 22.63 1.75
5 -14 0 21.23 1.56
0 -5 14 22.05 1.57
14 1 -5 0.83 0.66
14 -1 5 0.6 0.51
1 -5 14 0.43 0.76
14 1 -5 0.08 0.45
-5 -14 -1 0.82 0.68
14 -1 5 0.44 0.67
5 14 -1 0.44 0.42
-1 -5 -14 -0.37 0.67
-1 -5 -14 0.53 0.46
5 -14 1 0.6 0.7
14 -1 -5 0.52 0.64
1 -5 -14 1.2 0.74
14 -1 -5 0.66 0.48
14 1 5 0.45 0.49
14 1 5 0.08 0.64
5 -14 -1 -0.34 0.73
-5 -14 1 0.15 0.67
5 14 1 0.54 0.48
1 -5 -14 0.22 0.52
-1 -5 14 0.65 0.8
14 2 -5 5.72 0.78
14 -2 5 7.51 0.83
-2 -5 -14 7.73 0.77
14 -2 5 8.34 0.96
2 -5 14 6.94 1.05
-5 -14 -2 6.89 0.98
5 14 -2 6.9 0.78
2 5 -14 6.26 0.71
14 2 -5 8.65 1.01
5 -14 2 8.81 1.21
-2 -5 -14 7.93 1.13
-5 -14 2 7.23 1.06
5 14 2 7.95 0.87
-2 -5 14 7.21 1.08
14 -2 -5 7.11 0.99
14 -2 -5 6.83 0.76
14 2 5 7.75 1.03
5 -14 -2 7.5 0.91
2 -5 -14 7.4 1.12
14 2 5 6.61 0.83
5 -14 -2 7.63 1.08
2 -5 -14 7.35 0.87
14 3 -5 12.26 1.15
-5 -14 -3 13.16 1.34
-3 -5 -14 13.27 0.88
-3 -5 -14 11.18 1.4
3 5 -14 12.2 0.87
14 3 -5 10.54 0.94
5 14 -3 11.38 0.86
5 -14 3 11.53 1.2
14 -3 5 12.6 1.22
3 -5 14 11.93 1.26
14 -3 -5 11.93 1.21
5 -14 -3 12.92 1.29
-3 -5 14 13.22 1.35
-5 -14 3 12.54 1.28
3 -5 -14 11.47 1.31
3 -5 -14 14.26 1.04
14 -3 -5 12.19 0.97
14 3 5 11.31 0.99
5 -14 -3 11.65 1.07
14 3 5 12.73 1.07
4 5 -14 1.65 0.47
4 -5 14 1.89 0.78
14 4 -5 2.36 0.66
-5 -14 -4 2.57 0.8
14 -4 5 2.73 0.82
5 14 -4 2.97 0.55
5 -14 4 2.01 0.86
-4 -5 -14 2.9 0.52
-4 -5 -14 2.61 0.81
14 4 -5 2.22 0.76
-5 -14 4 1.33 0.81
4 -5 -14 2.82 0.71
-4 -5 14 3.3 1.02
14 -4 -5 2.32 0.6
5 -14 -4 1.82 0.77
4 -5 -14 1.04 0.76
14 4 5 2.64 0.69
5 -14 -4 3.13 0.65
14 -4 -5 2.14 0.83
14 -5 5 0.67 0.78
-5 -5 -14 0.53 0.8
5 -14 5 0.52 0.81
5 -5 14 0.18 0.84
-5 -14 -5 0.42 0.74
5 14 -5 0.78 0.45
14 5 -5 -0.86 0.61
5 5 -14 -0.23 0.42
14 5 -5 -1.1 0.48
14 -5 -5 -0.06 0.73
14 5 5 0.27 0.53
5 -14 -5 0.79 0.82
5 -14 -5 1.23 0.58
-5 -14 5 1.13 0.84
5 -5 -14 0.47 0.61
5 -5 -14 1.15 0.85
-5 -5 14 -0.08 0.8
14 -5 -5 0.63 0.55
14 6 -5 7.42 1
5 14 -6 6.63 0.77
-6 -5 -14 7.8 1.14
6 5 -14 8.23 1.15
6 5 -14 8.21 0.89
5 -14 6 5.8 1.03
6 -5 14 9.32 1.15
14 -6 5 7.56 1.04
14 6 -5 7.86 0.99
-5 -14 -6 6.12 1.08
5 -14 -6 7.52 1.14
14 -6 -5 7.7 1.16
6 -5 -14 8.17 1.15
5 -14 -6 7.26 0.84
6 -5 -14 7.12 1.14
-5 -14 6 6.49 1.08
14 6 5 8.17 0.89
-6 -5 14 7.61 1.18
14 -6 -5 7.53 0.88
7 -5 14 8.75 1.09
14 -7 5 9.92 1.36
5 14 -7 9.77 0.84
-7 -5 -14 11.32 1.3
14 7 -5 10.17 1.16
-5 -14 -7 11.17 1.33
14 7 -5 10.1 1.15
5 -14 7 10.64 1.41
7 5 -14 8.72 0.99
7 5 -14 10.65 1.43
14 -7 -5 9.67 1.34
14 -7 -5 10.58 0.97
7 -5 -14 9.81 1.4
-5 -14 7 10.2 1.32
7 -5 -14 9.66 1.16
14 7 5 9.55 0.98
-7 -5 14 12.28 1.41
5 -14 -7 9.72 1.32
5 -14 -7 10.14 1.06
8 5 -14 6.76 0.93
-5 -14 -8 6.55 1.1
14 -8 5 8.1 1.2
8 -5 14 7.91 1
-8 -5 -14 7.6 1.12
14 8 -5 8.38 0.98
14 8 -5 8.82 1.02
5 -14 8 7.72 1.24
8 5 -14 7.46 1.15
5 14 -8 6.26 0.82
-8 -5 14 8 1.27
14 -8 -5 7.6 1.19
14 8 5 7.63 1.01
14 -8 -5 6.93 0.84
8 -5 -14 9.31 1.29
8 -5 -14 7.66 1.16
5 -14 -8 7.98 1.27
5 -14 -8 7.99 1.03
-5 -14 8 5.07 1.17
-9 -5 -14 1.51 0.88
14 9 -5 -1.12 0.78
9 5 -14 1.11 0.95
5 -14 9 0.01 0.97
5 14 -9 1 0.57
-5 -14 -9 0.39 1.01
9 -5 14 1.7 0.74
9 5 -14 0.58 0.69
14 9 -5 0.89 0.68
9 -5 -14 -0.5 0.88
14 9 5 0.17 0.7
14 -9 -5 1.68 0.98
14 -9 -5 0.29 0.63
-5 -14 9 -0.15 0.88
9 -5 -14 0.29 0.89
5 -14 -9 1.74 1.09
5 -14 -9 1.54 0.69
-9 -5 14 2.53 0.97
10 5 -14 -1.55 0.72
10 5 -14 1.44 1.17
5 -14 10 1.33 1.05
14 10 -5 -0.22 0.84
14 10 -5 -0.04 0.7
10 5 -14 -0.74 0.79
-5 -14 -10 1.37 1.05
5 14 -10 -0.13 0.57
-10 -5 -14 -1.04 0.93
14 -10 -5 0.57 0.63
5 -14 -10 -0.65 0.71
10 -5 -14 -0.27 0.87
-10 -5 14 1.12 1.05
14 -10 -5 1.79 1.02
14 10 5 0.58 0.79
5 -14 -10 0.04 0.95
-5 -14 10 1.18 1.05
11 5 -14 0.44 0.83
14 11 -5 2.03 0.94
11 5 -14 2.67 0.86
-5 -14 -11 0.44 1.01
11 5 -14 0.96 0.94
-11 -5 -14 2.27 1.14
5 14 -11 0.87 0.67
5 -14 11 0.37 1.14
5 -14 -11 0.94 1.06
11 -5 -14 0.78 0.88
14 -11 -5 0.67 0.96
-5 -14 11 2.55 1.16
11 -5 -14 2.78 0.89
14 -11 -5 1.21 0.69
-11 -5 14 0.85 1.11
14 11 5 1.22 0.93
5 -14 -11 1.86 0.8
14 12 -5 2.74 1.26
-12 -5 -14 2.3 1.27
5 14 -12 3 0.75
12 5 -14 4.26 1.22
12 5 -14 1.63 1.03
5 -14 12 4.4 1.33
-5 -14 -12 1.64 1.28
-12 -5 14 2.81 1.28
-5 -14 12 3.86 1.32
12 -5 -14 2.58 0.93
12 -5 -14 1.9 1.02
14 12 5 3.37 1.07
14 -12 -5 3.74 1.14
5 -14 -12 2.28 0.9
5 -14 -12 2.64 1.33
5 14 -13 13.73 1.16
13 5 -14 9.78 1.48
13 5 -14 11.99 1.63
-5 -14 -13 12.05 1.77
5 -14 13 15.84 1.95
14 13 -5 11.36 1.66
-13 -5 14 9.17 1.56
14 13 5 11.55 1.51
-5 -14 13 15.08 2.12
13 -5 -14 12.23 1.38
5 -14 -13 14.04 1.51
5 -14 -13 11.24 1.95
13 -5 -14 12.7 1.68
14 -13 -5 14.1 1.67
0 6 -14 14.52 0.87
6 -14 0 14.04 1.25
0 -6 14 17.09 1.6
0 -6 -14 15.58 0.98
-6 -14 0 15.46 1.41
6 14 0 14.42 1.04
0 -6 -14 13.18 1.33
14 0 -6 16.29 1.28
14 0 -6 13.21 0.98
-14 0 6 12.31 1.08
1 6 -14 0.24 0.42
-1 -6 -14 0.08 0.47
-1 -6 -14 -1.05 0.69
-6 -14 -1 0.23 0.69
6 14 -1 0.43 0.47
1 -6 14 0.23 0.77
14 1 -6 0.82 0.73
14 -1 6 -1.06 0.51
14 1 -6 0.9 0.54
6 -14 1 0.57 0.76
-14 1 6 -0.67 0.63
14 -1 -6 -0.03 0.47
-6 -14 1 0.63 0.76
1 -6 -14 0.38 0.91
6 -14 -1 0.03 0.57
6 -14 -1 1.16 0.72
6 14 1 -0.31 0.49
14 -1 -6 0.43 0.7
14 1 6 -0.28 0.53
1 -6 -14 1 0.52
-14 -1 6 0.42 0.64
-1 6 -14 -0.35 0.43
-1 -6 14 0.59 0.88
14 2 -6 3.59 0.82
6 14 -2 5.24 0.72
6 -14 2 4.12 0.94
-2 -6 -14 4.25 0.94
14 2 -6 4.03 0.71
-6 -14 -2 4.2 0.87
2 -6 14 4.88 0.99
-2 -6 -14 5.83 0.72
2 6 -14 4.53 0.62
14 -2 6 4.72 0.85
-2 -6 14 4.23 0.97
14 2 6 4.04 0.7
-6 -14 2 4.24 0.96
14 -2 -6 4.96 0.95
14 -2 -6 2.64 0.64
6 14 2 4.09 0.71
6 -14 -2 3.69 0.87
2 -6 -14 4.64 0.96
-2 6 -14 3.92 0.55
2 -6 -14 4.71 0.68
-14 -2 6 3.72 1.15
6 -14 -2 3.78 0.83
3 6 -14 0.84 0.44
6 14 -3 -0.68 0.45
14 3 -6 0.43 0.74
14 3 -6 -0.26 0.48
6 -14 3 -0.69 0.74
-6 -14 -3 -0.72 0.69
-3 -6 -14 -0.53 0.47
14 -3 6 0.27 0.72
-3 -6 -14 -0.33 0.76
3 -6 14 -0.91 0.82
6 -14 -3 0.57 0.56
3 -6 -14 1.16 0.59
-6 -14 3 -0.09 0.71
14 -3 -6 0.34 0.74
14 -3 -6 0.43 0.46
-3 -6 14 -0.2 0.78
14 3 6 -0.29 0.55
6 -14 -3 1.32 0.87
6 14 3 0.4 0.52
3 -6 -14 0.28 0.78
4 6 -14 7.11 0.75
-4 -6 -14 7.47 1.14
14 -4 6 8.37 1.14
14 4 -6 7.54 1.01
6 14 -4 6.97 0.78
14 4 -6 6.62 0.86
-6 -14 -4 7.02 1.11
6 -14 4 7.52 1.09
4 -6 14 7.1 1.07
4 -6 -14 7.3 1.01
4 -6 -14 5.24 1.04
6 -14 -4 9.01 1.03
-6 -14 4 7.28 1.09
14 4 6 6.6 0.93
-4 -6 14 6.97 1.13
14 -4 -6 7.26 0.77
6 -14 -4 7.62 1.08
14 -4 -6 8.51 1.17
6 14 -5 6.53 0.81
14 5 -6 6.66 0.95
14 5 -6 7.69 0.99
-5 -6 -14 6.24 1.1
6 -14 5 7.21 1.06
-6 -14 -5 10.99 1.39
5 6 -14 7.24 0.8
5 -6 14 7.21 1.13
-5 -6 14 8.09 1.25
5 -6 -14 7 0.91
14 -5 -6 8.52 0.85
-6 -14 5 6.26 1.06
6 -14 -5 8.45 1.06
14 5 6 7.74 0.92
5 -6 -14 6.12 1.15
14 -5 -6 7.64 1.15
6 -14 -5 7.1 1.09
6 -14 6 12.05 1.43
14 6 -6 13.36 1.3
6 6 -14 16.09 1.08
14 6 -6 14.16 1.28
6 6 -14 14.63 1.35
-6 -14 -6 13.58 1.39
6 14 -6 13.17 0.99
6 -6 14 12.97 1.39
-6 -6 -14 15.12 1.55
-6 -6 14 14.28 1.49
14 6 6 12.98 1.17
6 -14 -6 15.87 1.55
14 -6 -6 11.92 1
6 -6 -14 13.26 1.2
-6 -14 6 15.99 1.56
6 -14 -6 12.21 1.16
6 -6 -14 11.92 1.35
14 -6 -6 13.47 1.43
7 -6 14 -0.54 0.75
6 14 -7 -0.82 0.49
14 7 -6 0.16 0.7
14 7 -6 0.26 0.62
7 6 -14 -0.68 0.55
-6 -14 -7 -0.62 0.88
6 -14 7 -0.98 0.84
-7 -6 -14 0.81 0.83
7 6 -14 -0.7 0.81
7 -6 -14 -0.08 0.72
-7 -6 14 -0.98 0.81
6 -14 -7 -0.27 0.81
14 7 6 -0.01 0.64
14 -7 -6 0.07 0.52
7 -6 -14 -0.4 0.86
6 -14 -7 0.93 0.67
14 -7 -6 0.7 0.96
-6 -14 7 -1.18 0.79
-8 -6 -14 5.76 1.14
8 6 -14 6.71 0.91
8 6 -14 5.36 1.11
14 8 -6 6.94 0.97
14 8 -6 6.89 0.98
8 -6 14 5.86 0.97
6 -14 8 5.66 1.11
6 14 -8 5.4 0.82
-6 -14 -8 7.46 1.19
6 -14 -8 7.94 1.09
14 -8 -6 6.09 1.16
14 -8 -6 5.87 0.78
-6 -14 8 5.02 1.19
14 8 6 5.19 0.87
6 -14 -8 5.49 1.13
8 -6 -14 7.18 1.16
-8 -6 14 7.09 1.14
8 -6 -14 6.56 1.15
14 9 -6 0.36 0.84
9 -6 14 0.34 0.76
-6 -14 -9 -0.3 0.99
9 6 -14 1.99 0.82
14 9 -6 0.02 0.59
-9 -6 -14 1.18 1
6 14 -9 -0.56 0.57
6 -14 9 -0.16 0.83
-6 -14 9 0.33 1.03
14 9 6 0.18 0.7
6 -14 -9 1.02 1.08
9 -6 -14 -0.24 0.85
-9 -6 14 2.97 1.1
9 -6 -14 0.63 0.84
6 -14 -9 1.45 0.76
14 -9 -6 0.77 0.63
-6 -14 -10 1.14 1
-10 -6 -14 1.06 1.05
6 14 -10 2.24 0.67
10 6 -14 1.3 0.94
10 -6 14 0.93 0.74
6 -14 10 0.64 1.01
10 6 -14 0.91 0.8
14 10 -6 0.05 0.87
14 10 -6 1.4 0.78
14 -10 -6 1.88 0.63
-10 -6 14 1.87 1.13
10 -6 -14 1.02 0.91
14 -10 -6 1.57 1
10 -6 -14 1.43 1.05
6 -14 -10 0.86 0.81
14 10 6 1.93 0.82
6 -14 -10 1.05 1.04
-6 -14 10 2.91 1.21
14 11 -6 0.08 0.91
6 14 -11 0.66 0.69
11 6 -14 -0.09 0.92
-6 -14 -11 -0.64 1.12
-11 -6 -14 -0.71 1.14
6 -14 11 1.19 1.13
14 11 -6 -0.92 1.13
11 6 -14 0.29 0.79
-6 -14 11 2.03 1.23
6 -14 -11 1.73 1.2
14 -11 -6 1.84 1.06
14 11 6 0.7 1.71
6 -14 -11 0.18 0.81
11 -6 -14 -0.57 0.72
14 -11 -6 0.33 0.69
11 -6 -14 -1.05 0.89
-11 -6 14 1.34 1.23
-6 -14 -12 3.26 1.3
12 6 -14 1.71 1.2
6 -14 12 1.89 1.22
14 12 -6 1.03 1.21
12 6 -14 2.11 1.13
-12 -6 -14 1.21 2.06
6 14 -12 2.36 0.78
14 12 -6 1.91 1.04
-12 -6 14 2.75 1.26
-6 -14 12 4.38 1.47
12 -6 -14 3.48 0.98
6 -14 -12 2.33 0.96
6 -14 -12 2.98 1.41
12 -6 -14 4.05 1.12
14 -12 -6 1.88 0.76
14 -12 -6 2.85 1.06
14 12 6 2.79 1.03
13 6 -14 0.26 1.22
6 -14 13 -0.89 1.2
13 6 -14 -0.17 1
14 13 -6 1.12 1.29
-6 -14 -13 1.66 1.28
6 14 -13 0.11 0.83
13 -6 -14 -1.59 0.91
14 -13 -6 1.12 1.05
-13 -6 14 -2.25 1.31
-6 -14 13 1.49 1.43
7 -14 0 -0.06 0.66
7 14 0 -0.05 0.49
14 0 -7 -0.52 0.48
0 7 -14 -0.2 0.46
0 -7 -14 0.81 0.52
0 -7 14 -0.51 0.79
-7 -14 0 1.54 0.86
0 -7 -14 0 0.78
14 0 -7 -0.47 0.71
7 -14 0 0.15 0.69
-1 -7 -14 13.94 0.96
-7 -14 -1 15.19 1.32
-14 1 7 12.54 1.22
7 14 -1 13.62 1.09
14 1 -7 16.38 1.15
1 7 -14 15.9 0.91
7 -14 1 14.25 1.35
1 -7 14 14.66 1.43
14 1 -7 16.97 1.42
-1 -7 -14 14 1.55
14 1 7 16.06 1.07
7 -14 -1 15.26 1.37
-7 -14 1 18.19 1.37
14 -1 -7 14.82 1.32
1 -7 -14 16.24 1.48
-1 7 -14 14.55 0.89
14 -1 -7 15.19 1.07
7 14 1 15.28 1.09
7 -14 -1 14.6 1.2
-1 -7 14 15.96 1.52
-14 -1 7 17.53 1.25
1 -7 -14 15.32 0.98
-2 -7 -14 1.82 0.92
14 2 -7 1.68 0.81
-7 -14 -2 2.73 0.79
2 -7 14 3.3 1.03
2 7 -14 2.1 0.51
-2 -7 -14 2.14 0.6
14 2 -7 1.53 0.62
7 14 -2 1.62 0.59
7 -14 2 1.67 0.83
2 -7 -14 2.72 0.7
-14 -2 7 2.72 0.78
2 -7 -14 2.19 0.92
14 -2 -7 1.19 0.56
7 14 2 0.73 0.59
7 -14 -2 2.57 0.8
-2 -7 14 3.1 1.05
14 -2 -7 2.5 0.86
7 -14 -2 2.39 0.75
14 2 7 2.34 0.66
-7 -14 2 2.38 0.93
14 3 -7 -0.11 0.67
-7 -14 -3 0.14 0.82
-3 -7 -14 0.22 0.93
7 -14 3 -0.03 0.74
3 -7 14 0.57 0.82
3 7 -14 -0.66 0.45
7 14 -3 0.96 0.51
14 3 -7 0.76 0.5
-3 -7 14 -0.7 0.82
7 -14 -3 0.56 0.7
7 -14 -3 -0.22 0.79
7 14 3 0.46 0.58
-7 -14 3 -1.67 0.68
14 3 7 -0.17 0.57
3 -7 -14 -0.42 0.79
3 -7 -14 0.13 0.56
14 -3 -7 0.69 0.51
14 -3 -7 -0.39 0.76
-14 -3 7 0.28 0.7
4 -7 14 20.26 1.66
-7 -14 -4 18.29 1.59
14 4 -7 18.98 1.37
-4 -7 -14 18.13 1.52
7 -14 4 16.02 1.42
7 14 -4 18.83 1.17
4 7 -14 17.38 1.08
14 4 -7 18.7 1.31
-4 -7 14 17.23 1.61
4 -7 -14 18.92 1.24
14 -4 -7 16.54 1.13
7 -14 -4 18.44 1.53
14 4 7 18.07 1.2
14 -4 -7 15.6 1.53
7 -14 -4 18.6 1.28
4 -7 -14 18.7 1.57
-7 -14 4 15.84 1.54
-14 -4 7 20.47 1.54
-5 -7 -14 9.63 1.24
5 -7 14 9.94 1.26
7 -14 5 9.88 1.3
7 14 -5 7.96 0.93
5 7 -14 9.38 0.9
14 5 -7 9.87 1.18
14 5 -7 8.98 1.12
-7 -14 -5 10.94 1.43
14 -5 -7 9.27 0.95
-7 -14 5 9.99 1.42
7 -14 -5 9.53 1.22
-5 -7 14 8.28 1.26
7 -14 -5 9.5 1.07
14 -5 -7 11.01 1.33
14 5 7 12.31 1.05
5 -7 -14 9.68 1.13
5 -7 -14 10.11 1.34
14 6 -7 -0.06 0.78
-6 -7 -14 1.14 0.88
6 -7 14 -0.31 0.8
7 14 -6 -0.93 0.46
-7 -14 -6 0.5 0.86
6 7 -14 -0.97 0.51
14 6 -7 0.31 0.63
7 -14 6 -0.26 0.82
14 6 7 0.16 0.58
7 -14 -6 0.75 0.82
6 -7 -14 -0.18 0.88
14 -6 -7 -0.37 0.49
-6 -7 14 1.22 0.87
14 -6 -7 -1.05 0.82
6 -7 -14 0.14 0.72
-7 -14 6 -0.14 0.91
7 -14 -6 -0.71 0.63
-7 -7 -14 27.11 1.94
7 7 -14 28.07 1.49
-7 -14 -7 27.42 1.93
14 7 -7 28.56 1.59
7 14 -7 24.81 1.46
14 7 -7 27.85 1.66
7 7 -14 27.94 1.78
7 -7 14 28.21 1.72
7 -14 7 26.04 1.77
7 -14 -7 28.44 1.9
14 -7 -7 26.79 1.41
-7 -14 7 22.24 1.74
7 -14 -7 30.44 1.58
7 -7 -14 28.39 1.68
14 -7 -7 24.98 1.82
7 -7 -14 27.63 1.91
-7 -7 14 21.17 1.93
14 7 7 27.4 1.52
8 7 -14 -0.67 0.68
7 -14 8 -1.89 0.85
-8 -7 -14 0.04 0.96
8 7 -14 0.07 1.02
8 -7 14 1.18 0.83
7 14 -8 -0.7 0.6
14 8 -7 0.83 0.84
-7 -14 -8 0.55 0.97
14 8 -7 -0.74 0.61
8 -7 -14 -0.13 0.82
14 -8 -7 -0.01 0.58
7 -14 -8 1.13 1.02
14 8 7 0.13 0.63
7 -14 -8 0.32 0.8
8 -7 -14 -1.21 0.9
-8 -7 14 0.66 0.89
-7 -14 8 -0.09 0.99
14 -8 -7 -0.21 1.17
7 14 -9 8.45 1.08
14 9 -7 10.13 1.37
9 -7 14 11.92 1.3
9 7 -14 8.27 1.26
9 7 -14 8.45 1.11
-7 -14 -9 9.69 1.35
-9 -7 -14 9.62 1.39
14 9 -7 9.84 1.12
7 -14 9 10.43 1.47
-9 -7 14 12.92 1.8
-7 -14 9 10.08 1.45
9 -7 -14 10.69 1.47
9 -7 -14 11.06 1.35
14 -9 -7 10.87 1.04
7 -14 -9 10.17 1.39
14 -9 -7 9.59 1.35
14 9 7 10.71 1.15
7 -14 -9 11.45 1.31
10 7 -14 14.32 1.6
10 7 -14 16.31 1.45
10 -7 14 15.25 1.3
-7 -14 -10 15.54 1.75
7 14 -10 15.75 1.23
-10 -7 -14 11.96 1.49
7 -14 10 15.61 1.68
14 10 -7 12.93 1.43
-7 -14 10 13.11 1.69
10 -7 -14 13.47 1.46
14 -10 -7 16.9 1.17
7 -14 -10 13.2 1.39
-10 -7 14 15.86 1.75
14 -10 -7 12.82 1.61
14 10 7 16.02 1.57
10 -7 -14 13.55 1.38
7 -14 -10 13.21 1.82
11 7 -14 2.24 0.88
7 14 -11 3.39 0.86
7 -14 11 0.98 1.1
-7 -14 -11 1.94 1.15
14 11 -7 1.72 1
11 7 -14 1.86 1.18
-11 -7 -14 0.76 1.24
11 7 -14 0.79 1
14 11 -7 1.16 1.19
11 -7 -14 1.57 1
14 -11 -7 3.57 0.79
7 -14 -11 3.97 1.31
-11 -7 14 3.97 1.36
11 -7 -14 3.36 0.99
14 -11 -7 2.69 1.05
-7 -14 11 3.42 1.34
7 -14 -11 3.93 0.98
14 12 -7 0.69 1.28
7 -14 12 2.18 1.16
12 7 -14 2.59 1.25
12 7 -14 0.76 1.04
-7 -14 -12 1.31 1.3
14 12 -7 3.42 1.14
7 14 -12 2.89 0.91
-12 -7 14 0.32 1.35
-7 -14 12 3.58 1.42
14 -12 -7 2.52 1.04
7 -14 -12 2.47 1.02
14 -12 -7 3.76 0.81
12 -7 -14 3.69 1.02
12 -7 -14 2.91 1
7 -14 -12 4.31 1.33
13 7 -14 3.11 1.3
14 13 -7 0.07 1.31
14 13 -7 1.9 1.16
7 14 -13 0.44 1.12
-7 -14 -13 0.7 1.44
13 7 -14 -0.02 1.06
-13 -7 14 1 1.43
7 -14 -13 -0.71 0.79
7 -14 -13 3.42 1.47
13 -7 -14 -0.1 0.94
14 -13 -7 0.48 1
14 -13 -7 0.67 1
0 8 -14 16.43 0.96
8 14 0 17.25 1.24
8 -14 0 16.72 1.38
-8 -14 0 19.5 1.41
8 -14 0 16.79 1.32
-14 0 8 18.08 1.33
0 -8 -14 15.77 1.52
14 0 -8 18.3 1.42
14 0 -8 15.7 1.18
0 -8 -14 17.37 1.05
0 -8 14 18.14 1.7
1 -8 14 4.35 1.03
-1 -8 -14 4.28 1.02
-8 -14 -1 3.66 0.96
8 14 -1 5.24 0.78
-14 1 8 3.98 0.89
14 1 -8 4.25 0.97
14 1 -8 3.68 0.74
1 8 -14 4.8 0.63
8 -14 1 5.05 0.93
-1 8 -14 5.52 0.65
8 -14 -1 4.09 0.91
14 -1 -8 4.12 0.73
8 -14 -1 3.35 0.88
-14 -1 8 4.11 0.85
-1 -8 14 5.26 1.16
1 -8 -14 4.58 1.03
1 -8 -14 3.99 0.66
-8 -14 1 3.28 0.95
14 -1 -8 2.67 0.88
8 14 1 4.3 0.79
14 2 -8 27.56 1.67
14 2 -8 28.63 1.55
-2 -8 -14 28.44 1.83
8 14 -2 28.92 1.56
2 8 -14 30.14 1.32
8 -14 2 30.44 1.72
-8 -14 -2 30.39 1.83
2 -8 14 28.88 1.95
2 -8 -14 28.14 1.86
14 -2 -8 29.23 1.77
8 -14 -2 28.96 1.59
-14 -2 8 27.49 1.62
8 14 2 31.88 1.63
-8 -14 2 30.39 1.75
14 -2 -8 26.16 1.5
8 -14 -2 29.49 1.74
2 -8 -14 31.07 1.41
-2 -8 14 29.6 2.04
14 3 -8 156.46 5.19
8 14 -3 162.13 5.17
8 -14 3 161.81 5.2
-3 -8 -14 154.36 5.39
14 3 -8 160.51 5.22
-8 -14 -3 163.79 5.33
8 14 -3 154.43 4.83
3 -8 14 163.59 5.45
3 8 -14 162.35 4.96
-3 -8 14 151.6 5.45
14 -3 -8 155.63 5.1
3 -8 -14 163.84 4.97
8 -14 -3 158.6 5.24
-8 -14 3 166.79 5.37
14 -3 -8 160.01 5.3
8 -14 -3 161.64 5.18
8 14 3 155.71 5.21
3 -8 -14 153.2 5.39
-14 -3 8 163.79 5.07
8 14 -4 4.12 0.79
-8 -14 -4 1.01 0.89
14 4 -8 2.34 0.81
14 4 -8 4.22 0.94
4 -8 14 3.81 1.05
-4 -8 -14 2.64 1.04
8 -14 4 3.27 0.95
4 8 -14 5.01 0.69
8 14 -4 4.2 0.76
-4 -8 14 4.9 1.1
4 -8 -14 2.04 0.96
8 -14 -4 3.71 0.9
8 14 4 3.58 0.84
14 -4 -8 3.55 0.72
4 -8 -14 3.56 0.75
-8 -14 4 4.38 1.04
14 -4 -8 5.3 1.07
8 -14 -4 2.1 0.9
8 14 -5 8.83 1.12
-8 -14 -5 6.57 1.09
-5 -8 -14 9.63 1.29
5 -8 14 8.12 1.25
14 5 -8 7.3 1.03
8 14 -5 7.46 0.96
14 5 -8 7.07 1.06
8 -14 5 6.56 1.05
5 8 -14 7.81 0.87
5 -8 -14 7.84 1.19
8 -14 -5 7.6 1.11
14 -5 -8 8.5 1.22
5 -8 -14 6.85 0.93
8 -14 -5 6.29 1.01
14 -5 -8 8.87 0.95
-14 -5 8 8.71 1.14
-5 -8 14 7.61 1.33
-8 -14 5 6.8 1.15
-6 -8 -14 8.23 1.24
14 6 -8 6.79 1.06
-8 -14 -6 6.96 1.19
14 6 -8 7.11 0.97
8 -14 6 5.49 1.02
6 -8 14 6.49 1.11
8 14 -6 6.46 0.89
6 8 -14 6.18 0.81
8 14 -6 4.84 0.83
8 -14 -6 5.29 1.09
14 -6 -8 7.35 0.88
-14 -6 8 5.06 1.38
14 -6 -8 6.29 1.13
-6 -8 14 5.44 1.17
8 -14 -6 5.74 0.94
6 -8 -14 7.48 1.25
6 -8 -14 7.1 0.98
-8 -14 6 6.93 1.15
7 -8 14 0.63 0.84
7 8 -14 -0.29 0.93
7 8 -14 -0.36 0.64
8 -14 7 -0.01 0.91
14 7 -8 -0.91 0.57
14 7 -8 -0.69 0.84
-8 -14 -7 -0.25 0.96
8 14 -7 -0.17 0.59
-7 -8 -14 -0.76 0.84
-7 -8 14 0.41 0.93
8 -14 -7 -0.95 0.7
7 -8 -14 0.07 0.72
14 -7 -8 0.58 1.14
-8 -14 7 0.32 0.98
7 -8 -14 0.32 0.99
14 -7 -8 -0.04 0.57
8 -14 -7 -0.71 0.91
8 8 -14 91.76 3.27
-8 -14 -8 85.75 3.53
14 8 -8 86.78 3.28
14 8 -8 88.65 3.35
-8 -8 -14 85.95 3.47
8 -14 8 87.03 3.35
8 8 -14 78.58 3.4
8 14 -8 86.33 3.21
8 -8 14 89.75 3.31
8 -14 -8 90.03 3.5
8 -8 -14 91.24 3.51
14 -8 -8 89.13 3.14
-8 -14 8 85.9 3.62
8 -8 -14 85.59 3.33
-8 -8 14 84.67 3.58
8 -14 -8 92.67 3.28
14 -8 -8 87.84 3.53
9 -8 14 10.74 1.4
14 9 -8 9.83 1.54
8 -14 9 9.48 1.25
8 14 -9 9.65 1.1
-8 -14 -9 10.09 1.42
9 8 -14 10.11 1.31
9 8 -14 9.39 1.24
14 9 -8 11.1 1.39
-9 -8 -14 10.32 1.38
-8 -14 9 6.81 1.34
14 -9 -8 9.51 1.09
-9 -8 14 12.05 1.63
9 -8 -14 10.92 1.54
8 -14 -9 8.73 1.39
14 -9 -8 9.26 1.31
8 -14 -9 10.86 1.25
10 8 -14 0.9 1.02
8 -14 10 1.68 1.07
8 14 -10 0.18 1.08
8 14 -10 4.19 0.87
14 10 -8 2.78 1.08
-8 -14 -10 2.3 1.13
-10 -8 -14 2.87 1.28
10 -8 14 1.11 0.88
14 10 -8 2.5 1.24
14 -10 -8 2.15 0.76
8 -14 -10 1.65 1.15
14 -10 -8 1.74 1.01
10 -8 -14 3.41 0.97
10 -8 -14 2.99 1.08
8 -14 -10 2.16 1.22
-8 -14 10 1.64 1.28
-10 -8 14 2.54 1.32
11 8 -14 11.41 1.46
14 11 -8 11.58 2.12
14 11 -8 14.13 1.78
11 8 -14 18.2 1.87
-8 -14 -11 14.72 2.02
8 -14 11 14.83 1.75
8 14 -11 16.03 1.61
-11 -8 -14 14.89 2.02
8 14 -11 14.42 1.43
8 -14 -11 10.84 1.32
11 -8 -14 15.13 1.68
14 -11 -8 12.17 1.28
-11 -8 14 14.21 1.82
11 -8 -14 12.12 1.49
14 -11 -8 15.32 1.69
8 -14 -11 13.57 1.87
-8 -14 11 13.51 1.85
14 12 -8 -0.52 0.84
8 14 -12 -0.08 0.83
12 8 -14 0.46 1.03
12 8 -14 -1.62 1.11
8 -14 12 1.13 1.23
8 14 -12 -0.06 1.15
-8 -14 -12 1.1 1.37
14 12 -8 -0.46 1.19
14 -12 -8 1.85 1.1
14 -12 -8 -0.52 1.16
12 -8 -14 1.56 0.98
-12 -8 14 1.41 1.33
-8 -14 12 1.41 1.46
8 -14 -12 0.5 0.8
12 -8 -14 -0.31 1.07
8 -14 13 29.28 2.52
13 8 -14 29.9 2.02
14 13 -8 27.63 1.74
8 14 -13 26.7 1.95
13 8 -14 25.95 2.15
8 14 -13 26.03 2.01
14 13 -8 27.09 2.19
8 -14 -13 24.85 2.34
-8 -14 13 24.33 2.38
-13 -8 14 31.66 2.63
14 -13 -8 25.21 2.04
14 -13 -8 24.1 2.11
13 -8 -14 24.04 1.81
8 -14 -13 29.15 1.76
0 9 -14 28.73 1.27
-9 -14 0 31.64 1.83
14 0 -9 26.36 1.52
9 -14 0 26.09 1.73
9 -14 0 26.13 1.65
9 14 0 30.89 1.69
14 0 -9 26.64 1.82
-14 0 9 29.57 1.73
0 -9 -14 27.82 1.9
0 -9 14 27.43 1.88
1 -9 14 3.42 0.97
1 9 -14 4.21 0.62
9 14 -1 3.49 0.78
-1 -9 -14 2.51 1
14 1 -9 3.87 0.95
9 -14 1 4.26 0.9
14 1 -9 3.64 0.8
9 -14 1 2.23 0.87
-14 1 9 3.95 0.96
-9 -14 -1 2.03 0.93
14 -1 -9 3.6 0.96
1 -9 -14 4.76 1.09
9 -14 -1 2.72 0.9
14 -1 -9 3.75 0.69
1 -9 -14 4.74 0.73
-14 -1 9 4.48 0.99
9 14 1 2.22 0.76
-1 -9 14 3.53 1.04
-9 -14 1 3.63 0.99
9 -14 -1 3.14 0.84
2 9 -14 1.17 0.56
-2 -9 -14 0.56 0.89
2 -9 14 1.93 0.94
14 2 -9 0.66 0.56
9 -14 2 0.93 0.76
9 14 -2 1.51 0.66
-9 -14 -2 -1.89 0.87
14 2 -9 0.23 0.81
14 -2 -9 0.21 0.57
-9 -14 2 0.94 0.89
2 -9 -14 0.71 0.91
2 -9 -14 0.04 0.59
-2 -9 14 0.01 0.87
9 -14 -2 -0.31 0.69
-14 -2 9 -0.78 0.86
9 14 2 -1.07 0.68
9 -14 -2 -0.24 0.71
14 -2 -9 0.56 0.86
3 9 -14 19.78 1.13
3 -9 14 20.29 1.63
-3 -9 -14 18.9 1.64
14 3 -9 19.89 1.51
-9 -14 -3 19.41 1.65
14 3 -9 19.02 1.31
9 -14 3 19.21 1.49
9 14 -3 23.24 1.42
-3 -9 14 17.47 1.7
3 -9 -14 21.06 1.3
9 -14 -3 19.53 1.52
14 -3 -9 17.32 1.18
-9 -14 3 21.6 1.7
14 -3 -9 20.7 1.62
3 -9 -14 21.5 1.71
9 -14 -3 20.17 1.53
9 14 3 20.1 1.53
-14 -3 9 19.84 1.62
-9 -14 -4 28.69 1.82
9 14 -4 34.85 1.76
-4 -9 -14 27.21 1.9
4 -9 14 32.47 2.07
9 -14 4 34.08 1.74
4 9 -14 33.39 1.52
14 4 -9 31.32 1.83
14 4 -9 31.27 1.67
9 14 -4 32.54 1.58
9 -14 -4 35.86 1.88
14 -4 -9 30.72 2.03
4 -9 -14 31.23 1.61
-4 -9 14 33.79 2.1
14 -4 -9 30.66 1.57
9 14 4 35.59 1.91
4 -9 -14 33.31 2.16
9 -14 -4 34.92 1.84
-9 -14 4 34.72 1.93
-5 -9 -14 -1.97 0.91
5 -9 14 1.55 1.06
9 -14 5 1.12 0.82
14 5 -9 0.1 0.92
9 14 -5 1.2 0.72
-9 -14 -5 -0.37 0.95
5 9 -14 1.24 0.61
14 5 -9 0.43 0.64
9 14 -5 -0.09 0.61
9 -14 -5 0.48 0.9
-5 -9 14 1.95 1.06
14 -5 -9 0.89 0.6
9 -14 -5 -0.42 0.75
-9 -14 5 -0.25 0.95
5 -9 -14 0.83 0.7
14 -5 -9 1.49 0.99
-14 -5 9 0.31 0.91
5 -9 -14 -0.02 0.99
14 6 -9 0.29 0.86
14 6 -9 -0.78 0.56
9 -14 6 -1.1 0.83
6 9 -14 1.93 0.65
-9 -14 -6 1.25 1.01
9 14 -6 -0.43 0.71
6 -9 14 0.63 0.93
-6 -9 -14 1.21 0.95
6 -9 -14 -1.46 0.94
-9 -14 6 1.19 0.94
-6 -9 14 1.39 1.1
14 -6 -9 0.37 0.58
6 -9 -14 -0.27 0.72
9 -14 -6 1.57 0.99
-14 -6 9 0.63 0.95
9 -14 -6 1.35 0.87
14 7 -9 9.5 1.1
9 -14 7 11.5 1.38
-9 -14 -7 12.36 1.41
14 7 -9 10.87 1.46
7 9 -14 8.49 1.23
7 9 -14 11.61 1.11
-7 -9 -14 10.31 1.49
9 14 -7 11.42 1.21
7 -9 14 9.7 1.27
9 14 -7 8.98 1.18
9 -14 -7 10.57 1.44
-9 -14 7 9.38 1.36
14 -7 -9 11.31 1.43
14 -7 -9 8.77 0.94
-7 -9 14 11.46 1.6
9 -14 -7 12.22 1.42
-14 -7 9 10.66 2.19
7 -9 -14 10.79 1.35
7 -9 -14 10.62 1.44
-8 -9 -14 10.07 1.48
9 14 -8 8.99 1.17
9 14 -8 12.32 1.27
14 8 -9 9.4 1.79
14 8 -9 10.03 1.29
8 -9 14 9.81 1.27
8 9 -14 8.5 1.16
-9 -14 -8 11.91 1.7
8 9 -14 7.75 1.16
9 -14 8 9.65 1.22
9 -14 -8 11.94 1.51
14 -8 -9 14.09 1.49
8 -9 -14 9.55 1.36
14 -8 -9 9.47 1.07
9 -14 -8 10.28 1.3
8 -9 -14 10.55 1.28
-9 -14 8 10.49 1.49
-8 -9 14 10.7 1.58
-9 -14 -9 1.49 1.13
9 -9 14 3.31 0.99
9 -14 9 0.87 0.95
14 9 -9 1.16 1.22
9 9 -14 0.94 0.97
-9 -9 -14 3.55 1.22
9 14 -9 0.54 0.82
9 9 -14 0.92 0.89
9 14 -9 0.56 1.03
9 -14 -9 1.64 1.04
-9 -9 14 1.26 1.15
14 -9 -9 2.15 1.06
14 -9 -9 0.96 0.67
9 -9 -14 2.36 0.85
9 -14 -9 1.31 1.44
-9 -14 9 0.93 1.2
9 -9 -14 3.07 1.08
10 9 -14 1.33 0.99
10 -9 14 2.51 0.95
-10 -9 -14 5.8 1.36
10 9 -14 3.17 1.26
-9 -14 -10 1.35 1.24
9 14 -10 4.65 0.99
14 10 -9 2.73 1.26
14 10 -9 1.07 0.92
9 -14 10 2.55 1.08
9 -14 -10 3.21 0.85
-10 -9 14 0.65 1.18
10 -9 -14 1.84 0.93
14 -10 -9 1.67 1.04
14 -10 -9 3.14 0.99
-9 -14 10 1.31 1.32
10 -9 -14 1.68 1.08
9 -14 -10 1.43 1.12
9 14 -11 12.68 1.55
-9 -14 -11 12.93 1.78
9 -14 11 11.83 1.71
11 9 -14 10.23 1.47
9 14 -11 10.78 1.46
14 11 -9 12.47 1.46
14 11 -9 11.33 1.61
11 9 -14 12.98 1.51
-11 -9 -14 11.12 1.62
-9 -14 11 11.09 1.68
11 -9 -14 9.97 1.37
9 -14 -11 9.48 1.16
14 -11 -9 12.31 2.56
11 -9 -14 14.17 1.76
9 -14 -11 12.5 1.61
-11 -9 14 14.5 1.89
14 -11 -9 15.16 1.71
14 12 -9 4.2 1
12 9 -14 4.04 1.38
14 12 -9 3.02 1.44
9 -14 12 3.46 1.24
12 9 -14 2.93 1.15
-9 -14 -12 4.19 1.52
9 14 -12 4.13 1.13
9 14 -12 2.29 1.21
12 -9 -14 2.17 1.01
14 -12 -9 4.36 1.33
9 -14 -12 4.17 1
-12 -9 14 8.67 1.77
14 -12 -9 4.38 1.18
12 -9 -14 4.96 1.3
9 -14 -12 4.51 1.4
14 13 -9 -0.42 0.89
9 14 -13 1.73 1.03
13 9 -14 1.62 1.3
-9 -14 -13 0.28 1.52
13 9 -14 0.33 1.14
14 13 -9 -1.47 1.39
9 14 -13 -0.86 1.2
9 -14 13 -1.15 1.3
13 -9 -14 -0.78 0.96
-9 -14 13 -1.14 1.62
9 -14 -13 2.11 0.98
14 -13 -9 1.32 1.33
14 -13 -9 0.49 1.04
9 -14 -13 -1.58 1.35
0 -10 -14 11.42 1.5
14 0 -10 15.9 1.19
14 0 -10 13.46 1.48
10 -14 0 14.62 1.31
10 -14 0 11.21 1.46
-10 -14 0 11.68 1.46
10 14 0 12.46 1.28
0 -10 14 12.97 1.55
-14 0 10 16.01 1.41
10 -14 1 13.16 1.4
-1 -10 -14 13.59 1.56
14 1 -10 14.03 1.6
-10 -14 -1 16.88 1.54
-14 1 10 15.93 1.43
1 -10 14 13.27 1.55
10 14 -1 16.31 1.41
10 -14 1 15.5 1.29
1 10 -14 13.96 0.97
14 1 -10 13.37 1.1
10 -14 -1 13.84 1.34
14 -1 -10 13.2 1.16
10 -14 -1 16.78 1.54
-14 -1 10 15.01 1.46
10 14 1 14.55 1.43
-1 -10 14 15.38 1.64
-10 -14 1 15.12 1.57
1 -10 -14 16.45 1.61
14 -1 -10 13.1 1.51
10 14 -2 2.99 0.91
-14 2 10 2.51 0.86
14 2 -10 1.9 0.99
10 -14 2 2.85 0.85
2 10 -14 2.88 0.61
14 2 -10 1.86 0.64
2 -10 14 3.06 1.13
-2 -10 -14 2.53 1.05
-10 -14 -2 1.8 0.98
-14 -2 10 3.11 0.95
10 -14 -2 3.08 0.93
2 -10 -14 3.82 1.33
14 -2 -10 1.99 0.66
14 -2 -10 3.65 1.05
10 14 2 1.44 0.82
2 -10 -14 2.62 1.16
-2 -10 14 1.16 1.06
10 -14 -2 3.5 0.86
14 3 -10 -0.96 0.87
3 -10 14 0.58 1.03
3 10 -14 -0.17 0.56
-3 -10 -14 0.17 0.98
10 14 -3 0.3 0.69
-10 -14 -3 -0.97 0.88
10 -14 3 0.89 0.77
14 3 -10 0.05 0.64
3 -10 -14 -0.59 0.64
3 -10 -14 0.63 1.06
10 -14 -3 -0.95 0.74
-3 -10 14 0.29 0.94
10 -14 -3 0.13 0.82
-10 -14 3 -0.67 0.89
-14 -3 10 0.85 0.87
14 -3 -10 -0.8 0.93
14 -3 -10 1.5 0.63
10 14 3 0.28 0.85
10 -14 4 19.08 1.43
10 14 -4 18.46 1.49
14 4 -10 15.81 1.25
14 4 -10 17.89 1.57
-4 -10 -14 19.67 1.72
4 -10 14 16.99 1.75
-10 -14 -4 18.59 1.76
4 10 -14 20.66 1.2
-4 -10 14 18.25 1.79
10 14 4 19.41 1.55
-14 -4 10 15.98 1.64
14 -4 -10 18.86 1.22
-10 -14 4 19.91 1.75
10 -14 -4 20.23 1.67
10 -14 -4 18.57 1.5
4 -10 -14 19.25 1.35
4 -10 -14 20.72 1.78
5 -10 14 -0.53 0.98
5 10 -14 -0.27 0.6
14 5 -10 0.84 0.66
10 -14 5 0.53 0.83
-10 -14 -5 0.55 1.11
-5 -10 -14 -0.58 0.94
14 5 -10 0.34 0.97
10 14 -5 0.82 0.78
10 14 -5 1.16 0.74
-5 -10 14 1.55 1.11
14 -5 -10 0.13 0.99
14 -5 -10 -0.51 0.54
-14 -5 10 0.85 1
-10 -14 5 0.12 1
10 -14 -5 0.19 0.9
10 -14 -5 0.36 0.85
5 -10 -14 0.26 0.96
5 -10 -14 0.52 0.73
10 14 -6 1.48 0.89
6 -10 14 2.45 1.08
10 -14 6 0.18 0.82
14 6 -10 0.6 0.71
-6 -10 -14 1.6 1.06
-10 -14 -6 2.05 1.08
6 10 -14 0.76 0.7
10 14 -6 1.38 0.88
14 -6 -10 0.75 0.61
10 -14 -6 2.36 1.19
10 -14 -6 2.24 0.94
-6 -10 14 0.52 1.15
-10 -14 6 0.14 0.99
-14 -6 10 -0.4 1.07
14 -6 -10 2.34 1.01
6 -10 -14 1.83 0.82
6 -10 -14 3.07 1.19
10 14 -7 15.2 1.38
-7 -10 -14 16.74 1.92
7 -10 14 14.66 1.62
14 7 -10 14.02 1.68
7 10 -14 14.97 1.48
-10 -14 -7 18.72 1.87
10 14 -7 11.88 1.39
7 10 -14 14.67 1.26
10 -14 7 16.24 1.42
7 -10 -14 12.08 1.61
-14 -7 10 19.63 2.33
7 -10 -14 15.79 1.47
14 -7 -10 12.6 1.56
14 -7 -10 15.14 1.22
-7 -10 14 13.87 1.95
-10 -14 7 14.52 1.86
10 -14 -7 17.03 1.56
10 -14 -7 12.7 1.69
8 10 -14 1.24 0.84
10 14 -8 2.19 1.09
10 -14 8 1.85 0.95
8 -10 14 0.09 1.03
10 14 -8 2.53 0.94
14 8 -10 2.24 1.18
-10 -14 -8 0.9 1.22
14 8 -10 2.48 1.02
8 10 -14 0.23 0.94
-8 -10 -14 1.02 1.18
10 -14 -8 0.92 0.84
-8 -10 14 1.56 1.29
14 -8 -10 1.59 1.02
8 -10 -14 1.11 1.12
8 -10 -14 0.18 0.96
10 -14 -8 2.71 1.07
14 -8 -10 0.15 0.84
-10 -14 8 2.39 1.25
9 10 -14 2.07 1.68
-10 -14 -9 1.68 1.29
14 9 -10 2.61 1.01
10 -14 9 1.96 0.99
14 9 -10 1.26 1.15
10 14 -9 2.33 1.42
-9 -10 -14 1.51 1.22
10 14 -9 3.06 1.05
9 -10 14 3.59 1.1
9 10 -14 1.69 0.99
10 -14 -9 0.79 0.86
9 -10 -14 2.38 1.2
14 -9 -10 0.74 0.99
10 -14 -9 2.02 1.11
9 -10 -14 0.9 0.76
-10 -14 9 2 1.34
-9 -10 14 0.67 1.18
10 14 -10 23.59 1.64
14 10 -10 26.69 2.02
-10 -14 -10 26.52 2.31
14 10 -10 22.08 1.74
10 -10 14 21.87 1.68
10 -14 10 20.11 1.78
10 14 -10 27.27 2.03
10 10 -14 24.84 1.88
10 10 -14 25.08 2.01
-10 -10 -14 23.49 2.26
10 -14 -10 22.8 1.64
-10 -14 10 19.94 2.3
10 -14 -10 26.55 2.01
-10 -10 14 21.44 2.36
14 -10 -10 24.7 1.92
10 -10 -14 23.65 1.67
14 -10 -10 28.25 2.06
10 -10 -14 24.32 2.02
10 -14 11 1.83 1.19
10 14 -11 -0.35 1.13
11 10 -14 0.07 1
11 10 -14 0.95 1.27
10 14 -11 2.33 0.93
-10 -14 -11 0.39 1.45
14 11 -10 1.28 0.96
14 11 -10 2.48 1.28
14 -11 -10 1.57 1.25
14 -11 -10 -0.46 0.95
11 -10 -14 0.7 0.92
-11 -10 14 0.9 1.42
10 -14 -11 -2.03 1.3
11 -10 -14 1.04 1.18
10 -14 -11 -0.28 0.87
-10 -14 11 2 1.45
14 12 -10 -0.17 1.31
10 14 -12 0.09 0.94
10 -14 12 -0.22 1.31
12 10 -14 -0.96 0.97
14 12 -10 -0.04 0.93
12 10 -14 2.51 1.41
10 14 -12 -1.15 1.24
10 -14 -12 -0.09 1.35
-10 -14 12 -1.27 1.54
10 -14 -12 -1.18 0.87
14 -12 -10 1.91 1.25
14 -12 -10 2.3 1.17
12 -10 -14 1.96 1.06
10 14 -13 1.85 1.37
14 13 -10 1.86 1.04
10 14 -13 1.8 1.06
14 13 -10 1.65 1.52
13 10 -14 3.17 1.51
13 10 -14 1.95 1.22
-10 -14 -13 1.49 1.78
-13 -10 14 2.19 1.84
10 -14 -13 1.74 1.52
10 -14 -13 1.34 0.99
14 -13 -10 1.36 1.08
-10 -14 13 2.03 1.69
13 -10 -14 1.97 1.14
14 -13 -10 2.51 1.39
0 -11 -14 5.15 1.22
11 -14 0 2.62 0.8
14 0 -11 5.18 0.82
-14 0 11 2.94 1.02
-11 -14 0 2.64 1.07
11 14 0 3.19 1.01
0 -11 14 4.44 1.23
-14 1 11 -0.3 0.97
-1 -11 -14 0.41 1.01
11 14 -1 -0.39 0.74
14 1 -11 0.28 0.57
-11 -14 -1 -0.38 0.98
1 -11 14 -0.33 0.98
11 -14 1 -1.08 0.74
11 -14 -1 -0.09 1.02
1 -11 -14 0.7 1.1
-11 -14 1 -0.08 0.99
14 -1 -11 -0.83 0.54
11 14 1 1.14 0.86
11 -14 -1 0.29 0.75
14 -1 -11 1.14 1.15
-1 -11 14 0.66 1.06
11 14 -2 10.96 1.33
-2 -11 -14 13.99 1.68
2 -11 14 11.44 1.49
11 -14 2 14.26 1.24
2 11 -14 12.83 1.03
-14 2 11 14.96 1.52
-11 -14 -2 14.47 1.6
14 2 -11 11.45 1.13
-2 -11 14 12.22 1.61
14 -2 -11 12.83 1.19
-11 -14 2 11.86 1.59
14 -2 -11 12.06 1.59
-14 -2 11 11.92 1.62
2 -11 -14 13.32 1.8
11 -14 -2 12.9 1.29
11 14 2 14.66 1.53
11 14 -3 20.49 1.53
3 11 -14 19.43 1.15
14 3 -11 20.4 1.42
-3 -11 -14 19.21 1.94
14 3 -11 17.68 1.93
11 -14 3 18.26 1.37
-11 -14 -3 16.9 1.71
3 -11 14 15.02 1.68
3 -11 -14 16.7 1.89
11 -14 -3 17 1.42
11 14 3 18.97 1.46
14 -3 -11 17.7 1.68
3 -11 -14 17.49 1.34
-11 -14 3 21.4 1.82
14 -3 -11 18.3 1.29
-14 -3 11 23.27 1.75
-3 -11 14 14.55 1.74
-4 -11 -14 0.55 1.01
4 -11 14 2.14 1.16
-11 -14 -4 1.43 1.04
14 4 -11 1.82 0.97
11 -14 4 2.36 0.83
11 14 -4 0.47 0.86
14 4 -11 0.87 0.72
4 11 -14 0.53 0.63
-4 -11 14 -1.06 1.03
-11 -14 4 0.21 0.97
11 14 4 1.59 0.8
11 -14 -4 2.76 1.16
4 -11 -14 2.53 0.81
-14 -4 11 1.18 1.05
11 -14 -4 1.68 0.84
4 -11 -14 1.05 1.06
14 -4 -11 1.47 0.71
14 -4 -11 0.57 0.94
-11 -14 -5 2.36 1.1
14 5 -11 0.16 1.23
-5 -11 -14 2.95 1.13
5 11 -14 0.12 0.68
5 -11 14 -0.09 1.06
14 5 -11 1.85 1.05
11 -14 5 1.81 0.83
11 14 -5 1.52 0.94
14 -5 -11 0.84 0.94
5 -11 -14 1.87 1.23
-5 -11 14 1.72 1.24
5 -11 -14 1.59 0.76
11 -14 -5 1.99 0.87
-11 -14 5 3.01 1.17
14 -5 -11 0.55 0.66
-14 -5 11 -0.42 1.13
11 -14 -5 1.12 0.91
-6 -11 -14 2.22 1.22
14 6 -11 0.95 0.87
-11 -14 -6 1.58 1.17
14 6 -11 0.64 0.87
6 -11 14 1.16 1.13
11 -14 6 0.5 0.84
11 14 -6 1.46 0.87
6 11 -14 0.19 0.71
11 14 -6 -0.59 1.08
14 -6 -11 -0.2 0.9
-11 -14 6 1.2 1.12
6 -11 -14 1.7 0.83
6 -11 -14 -0.01 1.13
14 -6 -11 0.07 0.73
-14 -6 11 1.24 1.2
11 -14 -6 1.73 0.93
11 -14 -6 0.65 0.85
-6 -11 14 0.04 1.09
11 -14 7 1.94 0.9
11 14 -7 4.81 0.98
-7 -11 -14 2.35 1.17
14 7 -11 0.59 0.97
-11 -14 -7 4.81 1.35
7 -11 14 2.43 1.11
7 11 -14 3 0.88
14 7 -11 2.2 1.15
11 14 -7 1.21 1.49
-11 -14 7 2.51 1.22
-14 -7 11 -2.14 1.74
-7 -11 14 1.33 1.28
7 -11 -14 3.57 1.26
11 -14 -7 2.09 0.88
11 -14 -7 2.34 0.97
14 -7 -11 1.53 0.96
14 8 -11 14.18 1.72
11 14 -8 16.06 1.91
-11 -14 -8 12.8 1.74
8 11 -14 15.9 1.57
14 8 -11 13.17 1.54
11 -14 8 14.63 1.43
11 14 -8 13.38 1.65
8 -11 14 12.04 1.64
-8 -11 -14 15.27 1.85
8 -11 -14 15.03 1.37
8 -11 -14 13.45 1.88
-11 -14 8 12.61 1.66
-8 -11 14 14.75 1.92
14 -8 -11 15.4 1.83
11 -14 -8 15.32 1.55
14 -8 -11 12.17 1.62
11 -14 -8 12.29 1.59
11 14 -9 11.08 1.42
14 9 -11 15.12 1.79
9 -11 14 9.98 1.37
-9 -11 -14 9.97 1.61
14 9 -11 11.64 1.51
9 11 -14 11.12 1.44
9 11 -14 11.12 1.55
-11 -14 -9 11.51 1.71
11 14 -9 9.77 1.49
-9 -11 14 7.98 1.67
14 -9 -11 15.05 1.6
9 -11 -14 12.64 1.64
11 -14 -9 12.13 1.42
14 -9 -11 11.38 1.52
11 -14 -9 10.69 1.27
9 -11 -14 13.38 1.42
-11 -14 9 9.5 1.59
14 10 -11 1.13 1.25
10 11 -14 1.71 1.2
-11 -14 -10 -2.13 1.44
14 10 -11 -0.59 0.92
11 14 -10 1.47 1.28
11 14 -10 -0.94 0.82
10 11 -14 0.9 1
10 -11 14 0.64 1.69
-10 -11 -14 -0.1 1.34
11 -14 -10 2.13 1.19
10 -11 -14 2.17 1.5
-11 -14 10 2.28 1.46
14 -10 -11 2.37 1.05
10 -11 -14 1.69 0.93
11 -14 -10 0.18 0.9
-10 -11 14 -0.59 1.27
-11 -14 -11 3.81 1.69
-11 -11 -14 3.3 1.68
11 14 -11 3.12 1.38
11 14 -11 2.05 1.05
11 11 -14 3.1 1.17
11 11 -14 1.48 1.33
14 11 -11 2.61 1.38
14 11 -11 2.01 1.09
11 -11 -14 2.26 1.53
11 -14 -11 0.81 1
11 -11 -14 3.98 1.09
14 -11 -11 1.72 1.06
-11 -11 14 0.3 1.64
11 -14 -11 1.23 1.55
11 14 -12 -1.27 1.3
14 12 -11 -1.05 1.01
12 11 -14 -1.64 0.99
11 14 -12 2.09 1.06
14 12 -11 -0.23 1.41
12 11 -14 -1.41 1.31
11 -14 -12 -0.04 1.42
-12 -11 14 -0.77 1.74
11 -14 -12 0.24 0.93
12 -11 -14 -0.01 0.9
14 -12 -11 1.31 1.16
-11 -14 12 -0.66 1.66
13 11 -14 5.29 1.3
14 13 -11 4.15 1.68
11 14 -13 5.42 1.26
14 13 -11 4.23 1.19
13 11 -14 4.98 1.7
11 14 -13 4.72 1.59
14 -13 -11 5.77 1.28
-11 -14 13 0.39 1.85
11 -14 -13 6.08 1.67
11 -14 -13 4.1 1.16
14 -13 -11 6.35 1.6
-13 -11 14 3.48 2.14
13 -11 -14 3.6 1.17
0 -12 14 -0.15 1.19
-12 -14 0 2.83 1.13
14 0 -12 1.54 0.86
14 0 -12 -0.01 0.9
-14 0 12 -1.29 1.06
12 -14 0 -0.08 0.73
12 14 0 -0.01 1
0 -12 -14 0.99 1.04
12 -14 0 2.09 0.96
1 -12 14 0.49 1.23
12 14 -1 0.83 1.07
-12 -14 -1 2 1.14
12 -14 1 1.14 0.73
14 1 -12 1.86 1.23
-1 -12 -14 2.21 1.23
-14 1 12 2.13 1.07
14 1 -12 1.75 0.96
12 -14 1 2 1
12 -14 -1 2.27 0.76
12 14 1 1 1.27
12 -14 -1 1.39 0.87
-12 -14 1 1.69 1.11
14 -1 -12 1.61 0.79
-14 -1 12 1.99 1.11
1 -12 -14 -0.49 1.03
-1 -12 14 -0.84 1.16
14 -1 -12 2.84 1.02
-2 -12 -14 2.69 1.22
14 2 -12 3.91 1.13
-12 -14 -2 3.36 1.12
-14 2 12 4.7 1.15
2 -12 14 2.94 1.27
12 14 -2 2.17 1.2
2 -12 -14 3.83 1.21
14 -2 -12 2.97 1
14 -2 -12 3.17 0.97
-12 -14 2 2.52 1.15
12 -14 -2 2.81 0.98
-2 -12 14 2.25 1.15
-14 -2 12 3.29 1.23
12 -14 -2 1.29 0.8
-3 -12 -14 4.23 1.29
-12 -14 -3 4.37 1.23
3 -12 14 3.59 1.28
14 3 -12 5.38 1.59
14 3 -12 3.92 1.16
-14 -3 12 3.13 1.18
14 -3 -12 4.77 1.09
-3 -12 14 3.03 1.33
12 -14 -3 3.69 0.98
3 -12 -14 5.18 1.29
12 14 3 3.13 1.81
-12 -14 3 4.82 1.24
12 -14 -3 4.5 0.87
-12 -14 -4 12.7 1.54
14 4 -12 15.1 1.69
4 12 -14 18.38 1.18
4 -12 14 16.47 1.9
14 4 -12 16.38 1.46
12 14 -4 14.92 2.69
-4 -12 -14 13.71 1.73
4 -12 -14 14.58 1.94
-4 -12 14 14.94 2.01
4 -12 -14 15.98 1.36
14 -4 -12 15.82 1.6
-14 -4 12 13.58 1.86
-12 -14 4 17.5 1.89
12 -14 -4 19.11 1.64
14 -4 -12 14.42 2.35
12 -14 -4 16.06 1.39
12 14 4 17.89 1.65
-12 -14 -5 3.51 1.25
5 12 -14 3.48 0.8
14 5 -12 3.7 0.9
-5 -12 -14 2.44 1.18
5 -12 14 1.4 1.22
14 5 -12 3.85 1.08
12 14 -5 2.87 1.24
12 -14 -5 3.63 0.92
-5 -12 14 2.1 1.25
5 -12 -14 1.75 1.17
5 -12 -14 4.2 0.93
12 -14 -5 2.13 0.92
-12 -14 5 0.97 1.21
14 -5 -12 4.15 1.03
12 14 5 2.72 0.99
14 -5 -12 1.77 1.09
-14 -5 12 3 1.22
-6 -12 -14 5.18 1.46
14 6 -12 1.59 0.88
6 12 -14 2.37 0.8
12 14 -6 2.51 1.23
6 -12 14 3.3 1.54
14 6 -12 1.04 1.04
-14 -6 12 1.24 1.24
-12 -14 6 2.48 1.33
6 -12 -14 3.22 1.29
12 -14 -6 1.75 0.93
6 -12 -14 3.2 1
14 -6 -12 2.11 1.01
14 -6 -12 3.72 1.03
12 -14 -6 2.64 0.97
-6 -12 14 1.21 1.35
7 -12 14 3.14 1.25
7 12 -14 2.5 1.09
14 7 -12 2.03 1.06
12 14 -7 1.62 1.17
12 14 -7 1.88 1.08
14 7 -12 2.74 1.34
-7 -12 -14 3.28 1.24
14 -7 -12 3.21 0.94
-12 -14 7 3.35 1.34
-14 -7 12 2.41 1.74
7 -12 -14 2.43 0.8
7 -12 -14 2.96 1.37
14 -7 -12 0.45 1.01
-7 -12 14 1.89 1.42
12 -14 -7 3.55 0.98
12 -14 -7 1.71 0.98
12 14 -8 0.74 1.27
-8 -12 -14 0.31 1.24
12 14 -8 0.83 0.89
8 12 -14 1.02 0.98
14 8 -12 -0.31 1.16
14 8 -12 -0.61 1.01
8 -12 14 -0.73 1.11
8 12 -14 0.27 1.1
14 -8 -12 0.9 0.81
8 -12 -14 -2.61 2.01
8 -12 -14 0.21 0.79
12 -14 -8 1.91 0.93
-8 -12 14 -0.47 1.5
-12 -14 8 0.05 1.42
12 -14 -8 1 1.02
14 -8 -12 -1.79 0.98
-9 -12 -14 2.35 1.45
12 14 -9 4.85 1.01
12 14 -9 4.33 1.48
14 9 -12 3.05 1.08
14 9 -12 5.23 1.4
9 -12 14 4.37 1.29
9 12 -14 3.01 1.1
9 12 -14 5.96 1.34
9 -12 -14 4.85 1.69
-12 -14 9 5.13 1.62
9 -12 -14 6.25 1.05
12 -14 -9 2.67 1.21
12 -14 -9 4.03 1.11
14 -9 -12 4.15 1.35
14 -9 -12 3.86 1.22
14 10 -12 -2.92 1.14
10 12 -14 2.91 1.27
12 14 -10 -1.48 1.33
10 12 -14 0.2 1.07
14 10 -12 0.13 1.03
12 14 -10 1.16 0.92
14 -10 -12 -0.97 0.94
-10 -12 14 0.69 1.58
10 -12 -14 1.23 0.92
10 -12 -14 -1.81 1.32
12 -14 -10 -0.52 0.95
14 11 -12 -0.26 1.35
14 11 -12 0.75 1.07
12 14 -11 -0.45 1.36
11 12 -14 -2.17 1.04
12 14 -11 0.37 0.99
11 12 -14 0.83 1.32
14 -11 -12 -0.56 1.07
-11 -12 14 2.92 1.73
-12 -14 11 2.8 1.74
11 -12 -14 -0.83 0.91
11 -12 -14 0.31 1.41
12 -14 -11 0.19 0.95
12 12 -14 6.9 1.71
12 14 -12 7.28 1.65
14 12 -12 8.07 1.76
12 14 -12 6.28 1.24
12 12 -14 8.4 1.39
14 12 -12 5.79 1.3
12 -14 -12 6.06 1.3
14 -12 -12 6.61 1.32
-12 -14 12 1.92 1.95
-12 -12 14 10.07 2.05
13 12 -14 3.5 1.31
13 12 -14 6 1.72
12 14 -13 0.79 1.61
12 14 -13 0.83 1.19
14 13 -12 4.81 1.77
14 13 -12 3.71 1.22
-12 -14 13 2.16 2.09
14 -13 -12 5.55 1.55
13 -12 -14 2.42 1.2
12 -14 -13 2.5 1.18
14 -13 -12 2.55 1.27
14 0 -13 0.2 0.95
0 -13 14 -0.36 1.3
13 14 0 0.38 1.16
-14 0 13 -0.22 1.15
0 -13 -14 2.16 1.34
14 0 -13 0.04 0.86
13 -14 0 1.97 1.03
14 1 -13 0.13 0.97
13 14 -1 0.58 1.2
-1 -13 -14 2.06 1.33
13 -14 1 0.73 1.01
1 -13 14 -0.33 1.29
14 1 -13 0.57 0.78
-14 1 13 3.81 1.29
-1 -13 14 -0.2 1.27
-14 -1 13 -0.39 1.2
14 -1 -13 0.5 1
1 -13 -14 1.95 1.18
13 14 1 -0.2 0.92
14 -1 -13 0.3 0.8
13 -14 -1 1.27 0.96
14 2 -13 5.47 1.07
13 14 -2 8.54 1.52
14 2 -13 7.58 1.25
2 -13 14 7.06 1.5
-2 -13 -14 6.88 1.49
13 -14 -2 6.72 1.23
-2 -13 14 7.56 1.46
-14 -2 13 7.14 1.36
14 -2 -13 6.42 1.13
2 -13 -14 7.36 1.53
14 -2 -13 6.8 1.28
13 14 2 8.04 1.18
14 3 -13 15.5 1.61
-3 -13 -14 17.9 1.89
14 3 -13 17.61 1.48
3 -13 14 19.14 1.87
13 14 -3 16.7 1.94
13 14 3 17.31 1.67
-14 -3 13 15.88 1.99
3 -13 -14 15.05 2.1
13 -14 -3 15.27 1.7
14 -3 -13 17.04 1.78
14 -3 -13 16.18 1.51
-3 -13 14 16.72 2.16
4 -13 14 0.51 1.3
14 4 -13 -0.38 0.82
14 4 -13 1.02 1.08
-4 -13 -14 0.62 1.19
4 13 -14 1.02 0.77
13 14 -4 -0.13 1.19
13 -14 -4 0.86 0.95
13 14 4 0.8 0.91
14 -4 -13 0.94 0.85
-14 -4 13 3.85 1.36
4 -13 -14 1.89 1.36
-4 -13 14 1.99 1.37
14 -4 -13 0.05 1.01
14 5 -13 11.68 1.4
5 13 -14 12.53 1.2
14 5 -13 10.76 1.44
5 -13 14 12.73 1.66
-5 -13 -14 12.06 1.66
13 14 -5 12.99 1.67
13 14 5 10.82 1.43
-5 -13 14 12.39 1.72
14 -5 -13 10.34 1.41
5 -13 -14 13.95 2
14 -5 -13 11.39 1.36
-14 -5 13 10.22 1.61
13 -14 -5 11.04 1.44
5 -13 -14 11.22 1.22
6 13 -14 -1.82 0.82
6 -13 14 -0.49 1.22
-6 -13 -14 0.27 1.34
13 14 -6 -0.59 1.22
14 6 -13 1.64 1.19
14 6 -13 -0.61 0.94
13 -14 -6 -1.49 0.89
-14 -6 13 0.18 1.38
14 -6 -13 -1.1 0.99
6 -13 -14 1.33 1.01
14 -6 -13 0.09 0.86
-6 -13 14 0.66 1.79
14 7 -13 1.06 1.08
-7 -13 -14 4.55 1.42
7 13 -14 2.27 1.13
14 7 -13 0.21 1.21
13 14 -7 1.36 1.25
7 -13 -14 -1.37 1.34
13 -14 -7 -0.92 0.97
7 -13 -14 2.44 0.86
14 -7 -13 0.04 0.86
14 -7 -13 0.54 0.95
14 8 -13 27.11 2.31
8 13 -14 27.85 1.97
8 -13 14 19.5 2.72
14 8 -13 27.21 2.09
13 14 -8 23.98 1.67
8 13 -14 27.54 2.02
13 14 -8 29.05 2.18
13 -14 -8 23.67 1.91
-8 -13 14 24.38 2.61
8 -13 -14 26.72 1.72
14 -8 -13 30.35 1.9
8 -13 -14 31.6 2.47
14 -8 -13 24.48 2
9 13 -14 0.69 1.21
14 9 -13 -0.08 1.05
14 9 -13 1.22 1.39
-9 -13 -14 4.53 1.65
9 -13 14 2.47 1.33
9 13 -14 -1.18 0.93
13 14 -9 -1.51 0.93
13 14 -9 0.77 1.45
-9 -13 14 1.91 1.59
9 -13 -14 0.35 1.45
14 -9 -13 1.08 1.09
13 -14 -9 0.33 0.99
14 -9 -13 -0.12 0.9
9 -13 -14 0.75 0.88
14 10 -13 2.64 1.54
-10 -13 -14 1.97 1.62
13 14 -10 2.84 1.57
13 14 -10 3.41 1.12
14 10 -13 1.5 1.16
10 13 -14 2.05 1.44
10 13 -14 2.5 1.13
10 -13 -14 2.39 0.98
13 -14 -10 0.93 1.01
10 -13 -14 0.35 1.45
14 -10 -13 3.07 1.14
-10 -13 14 -2.24 1.72
13 14 -11 3.79 1.19
11 13 -14 6.05 1.62
13 14 -11 3.41 1.7
14 11 -13 4.11 1.71
14 11 -13 3.73 1.22
11 13 -14 2.71 1.21
13 -14 -11 4.52 1.25
11 -13 -14 4.28 1.13
-11 -13 14 7.4 2.01
14 -11 -13 3.73 1.18
11 -13 -14 -0.19 1.62
14 12 -13 4.01 1.74
13 14 -12 2.81 1.63
12 13 -14 2.92 1.65
14 12 -13 1.6 1.24
13 14 -12 2.91 1.3
12 13 -14 2.84 1.28
14 -12 -13 2.55 1.19
13 -14 -12 3.63 1.23
12 -13 -14 5.29 1.23
-12 -13 14 9.72 2.21
14 13 -13 8.12 1.47
14 13 -13 7.6 1.91
13 13 -14 9.99 1.63
13 13 -14 7.85 1.94
13 14 -13 11.01 1.54
13 14 -13 11.23 1.92
14 -13 -13 11.12 1.57
14 -13 -13 14.44 1.93
13 -14 -13 8.46 1.44
13 -13 -14 10.08 1.46
-14 0 14 3.46 1.44
0 -14 -14 0.86 1.44
14 -14 0 1.49 1.12
14 0 -14 1.23 1.05
14 0 -14 0.43 0.8
14 14 0 1.5 0.89
14 1 -14 -0.76 0.77
-14 1 14 -0.29 1.3
-1 -14 -14 2 1.43
14 14 -1 2.79 1.05
14 -14 1 3.24 1.25
14 1 -14 1.18 1.11
14 -1 -14 0.67 0.81
14 -1 -14 2.45 1.16
-14 -1 14 1.96 1.35
14 -14 -1 1.1 1.12
14 14 1 0.75 0.91
14 2 -14 6.77 1.17
-2 -14 -14 6.49 2.1
14 2 -14 7.29 1.25
14 14 -2 7.06 1.5
14 -2 -14 7.41 1.19
14 -14 -2 7.18 1.38
-14 -2 14 3.96 1.48
14 -2 -14 6.66 1.26
14 14 2 9.2 1.33
14 14 -3 14.08 1.75
-3 -14 -14 8.74 2.4
14 3 -14 16.01 1.81
14 3 -14 15.91 1.45
14 -3 -14 14.49 1.67
14 -3 -14 15.42 1.5
3 -14 -14 20.91 2.17
14 -14 -3 16.14 1.72
-14 -3 14 12.21 1.75
14 14 3 15.43 1.63
14 4 -14 6.07 1.09
14 14 -4 7.68 1.52
14 4 -14 8.35 1.44
4 -14 14 7.55 1.67
4 -14 -14 5.17 1.47
14 -4 -14 4.33 1.21
14 -4 -14 5.72 1.13
14 -14 -4 6.95 1.36
-14 -4 14 4.21 1.58
-4 -14 14 9.21 1.74
14 14 4 7.95 1.32
14 14 -5 5.34 1.55
-5 -14 -14 4.84 2.56
14 5 -14 5.98 1.41
14 5 -14 2.41 1.18
5 -14 14 4.27 1.47
5 14 -14 6.45 0.94
14 -14 -5 5.11 1.25
14 -5 -14 5.02 1.23
14 -5 -14 3.86 0.95
5 -14 -14 4.49 1.56
-5 -14 14 2.98 1.41
-14 -5 14 4.95 1.7
14 14 5 5.3 1.2
14 14 -6 -0.08 1.38
-6 -14 -14 0.1 1.37
14 6 -14 -0.84 1.09
14 6 -14 1.47 1.23
6 14 -14 1.1 1.12
6 -14 14 -1.83 1.27
6 -14 -14 -0.85 1.46
14 -14 -6 -0.22 0.93
14 -6 -14 0.87 1
14 -6 -14 1.79 0.99
-6 -14 14 1.57 1.54
6 -14 -14 -0.52 0.82
-14 -6 14 2.53 2.33
-7 -14 -14 0.33 1.4
14 14 -7 2.19 1.42
14 7 -14 0.33 1.13
14 7 -14 0.71 1.34
7 -14 14 1.5 1.37
7 14 -14 0.43 1.03
7 14 -14 -0.21 1.15
14 -14 -7 0.36 1.05
14 -7 -14 0.02 1.05
14 -7 -14 1.27 1.02
7 -14 -14 1.51 0.88
7 -14 -14 2.73 1.56
-7 -14 14 0.4 1.58
-8 -14 -14 27.19 2.72
8 14 -14 30.62 2.14
14 8 -14 33.36 3.12
14 14 -8 34.04 2.43
8 -14 14 33.27 2.4
8 14 -14 30.32 2.18
-8 -14 14 31.05 2.87
14 -14 -8 29.76 2.14
14 -8 -14 31 2.21
14 -8 -14 31.13 2.14
8 -14 -14 32.51 1.9
8 -14 -14 34.01 2.55
-9 -14 -14 -1.02 1.71
14 14 -9 0.74 0.99
14 14 -9 -0.1 1.45
14 9 -14 -0.83 1.02
9 -14 14 -1.06 1.46
9 14 -14 -0.29 1.1
9 14 -14 -1.19 1.27
14 9 -14 2.33 1.52
14 -14 -9 -0.93 1.15
14 -9 -14 1.97 1.19
14 -9 -14 1.89 1.31
9 -14 -14 -2.11 1.52
14 -14 -9 2.43 1.45
-9 -14 14 -3.86 1.51
9 -14 -14 0.57 0.98
-10 -14 -14 2.15 1.96
14 14 -10 2.84 1.75
14 10 -14 1.39 1.21
14 10 -14 2.37 1.58
10 14 -14 1.9 1.16
10 14 -14 2.47 1.47
14 14 -10 2.44 1.11
14 -14 -10 3.71 1.57
14 -10 -14 1.9 1.19
14 -10 -14 2.22 1.53
10 -14 -14 2.36 1.07
10 -14 -14 2.3 1.67
14 -14 -10 4.13 1.25
-10 -14 14 -0.05 1.85
14 14 -11 5.93 1.78
14 11 -14 4.37 1.33
14 11 -14 3.43 1.7
11 14 -14 5.61 1.38
11 14 -14 2.9 1.62
14 14 -11 3.85 1.22
14 -14 -11 6.33 1.67
14 -11 -14 3.92 1.29
14 -11 -14 5.59 1.66
11 -14 -14 3.94 1.21
11 -14 -14 6.85 3.02
14 -14 -11 2.73 1.31
-11 -14 14 -1.52 2
14 14 -12 5.2 1.83
14 12 -14 5.33 1.88
12 14 -14 3.61 1.29
12 14 -14 5.25 1.72
14 14 -12 7.46 1.44
14 12 -14 3.92 1.38
14 -12 -14 3.53 1.25
14 -12 -14 6.68 1.77
14 -14 -12 7.22 2.13
12 -14 -14 0.99 1.21
14 -14 -12 4.49 1.35
-12 -14 14 3.23 2.43
14 13 -14 8.33 2
13 14 -14 6.32 1.5
13 14 -14 5.82 1.92
14 14 -13 8.75 1.52
14 14 -13 6.06 1.96
14 13 -14 7.99 1.51
14 -13 -14 6.72 1.88
13 -14 -14 6.9 1.43
14 -14 -13 6.1 1.53
14 -14 -13 9.18 1.91
14 14 -14 7.54 2.03
14 14 -14 7.15 1.59
14 -14 -14 7.89 2
14 -14 -14 4.35 1.48
0 -15 0 6.74 1.11
0 0 15 5.99 1.07
15 0 0 7 0.88
15 0 0 6.87 0.84
15 1 0 36.87 1.7
-1 0 15 33.45 1.95
0 -15 -1 34.25 1.93
0 -15 1 37.19 2.05
1 0 -15 38.27 1.68
1 0 15 35.87 1.97
15 -1 0 36.65 1.73
15 -1 0 33.72 1.55
15 1 0 36.37 1.6
2 0 15 10.76 1.28
15 2 0 14.43 1.06
15 -2 0 12.23 1.15
15 -2 0 12.24 0.93
15 2 0 11.98 1.15
0 -15 2 11.68 1.31
2 0 -15 10.69 1.13
0 -15 -2 11.05 1.3
-2 0 15 13.3 1.37
15 3 0 9.72 0.92
0 -15 -3 9.62 1.28
15 -3 0 10.43 1.17
-3 0 15 11.84 1.33
3 0 15 9.91 1.21
0 -15 3 7.34 1.13
3 0 -15 10.97 1.12
15 3 0 10.57 1.05
4 0 15 44.78 2.09
15 -4 0 41.95 2.04
0 -15 4 42.67 2.21
15 4 0 42.08 1.87
15 4 0 45.79 1.86
4 0 -15 45.88 1.99
0 -15 -4 43.19 2.23
-4 0 15 41.96 2.22
5 0 15 8.69 1.21
15 -5 0 7.47 0.87
5 0 -15 7.84 1.05
15 5 0 7.55 1.06
0 -15 -5 7.46 1.17
0 -15 5 6.9 1.19
15 5 0 8.02 0.98
-5 0 15 6.95 1.12
15 -5 0 8.43 1.14
6 0 -15 15.15 1.41
6 0 -15 15.98 1.31
15 6 0 17.02 1.26
0 -15 6 14.73 1.67
0 -15 -6 16.17 1.68
15 -6 0 16.54 1.43
15 6 0 16.7 1.19
-6 0 15 15.52 1.55
7 0 -15 26.68 1.79
0 -15 7 26.52 1.84
15 -7 0 28.3 1.88
0 -15 -7 29.42 2.09
7 0 -15 26.27 1.73
-7 0 15 28.7 1.85
15 7 0 28.69 1.62
15 -8 0 0.29 0.88
15 8 0 0.2 0.59
0 -15 8 0.11 0.9
8 0 -15 0.55 0.82
-8 0 15 1.07 0.98
0 -15 -8 -0.68 0.9
8 0 -15 0.1 0.84
-9 0 15 26.66 1.92
9 0 -15 30.19 1.96
9 0 -15 28.67 1.74
15 -9 0 28.32 1.97
15 9 0 28.14 1.63
0 -15 9 30.21 2.02
0 -15 -9 28.79 2.18
10 0 -15 15.73 1.46
10 0 -15 10.94 1.18
0 -15 -10 14.12 1.87
15 -10 0 13.87 1.56
10 0 -15 11.34 1.52
0 -15 10 10.22 1.49
-10 0 15 14.52 1.75
15 10 0 13.38 1.3
15 -11 0 2.52 1.16
0 -15 -11 1.82 1.17
11 0 -15 2.37 0.96
11 0 -15 0.17 0.86
0 -15 11 0.36 1.14
-11 0 15 2.23 1.24
12 0 -15 25.76 1.77
15 -12 0 21.73 1.97
0 -15 12 27.15 2.35
-12 0 15 23.59 2.2
12 0 -15 26.57 1.99
0 -15 -12 27.43 2.34
15 12 0 27.62 1.92
13 0 -15 3.42 1.12
13 0 -15 4.57 0.96
15 13 0 3.94 1.08
15 -13 0 4.6 1.18
-13 0 15 4.25 1.44
0 -15 -14 1.74 1.54
0 -15 14 1.61 1.36
14 0 -15 1.33 1.11
14 0 -15 2.51 1
-14 0 15 3.47 1.58
15 -14 0 4.71 1.31
15 14 0 2.99 1.1
0 1 15 33.6 1.96
15 0 -1 37.08 1.77
15 0 -1 36.67 1.62
-1 -15 0 35.82 2.04
0 -1 -15 38.41 1.68
0 -1 15 36.71 2
15 0 1 35.51 1.71
15 0 1 35.22 1.59
1 -15 0 36.97 1.98
-1 1 15 4.51 0.99
15 1 -1 5.83 0.8
1 -1 15 4.33 0.97
15 1 -1 6.19 0.85
-1 -15 -1 4.98 0.99
15 -1 1 4.74 0.71
1 -15 1 4.87 0.99
15 -1 1 5.01 0.89
1 -15 -1 3.52 0.95
15 -1 -1 4.36 0.86
1 -1 -15 5.06 0.78
-1 -15 1 5.35 1.02
15 -1 -1 5.8 0.77
15 1 1 4.79 0.82
-1 -1 15 3.78 1
1 1 15 5.83 1.01
15 1 1 5.17 0.75
1 -15 2 20.3 1.56
-1 -15 -2 18.04 1.53
15 -2 1 21.27 2
15 2 -1 20.83 1.26
15 2 -1 21.51 1.36
2 -1 15 20.33 1.53
-2 1 15 20.22 1.71
-1 -15 2 19.52 1.54
15 2 1 21.53 1.3
1 -15 -2 20.2 1.68
2 1 15 18.96 1.58
-2 -1 15 20.45 1.61
15 -2 -1 20.79 1.17
2 -1 -15 21.4 1.31
15 2 1 20.75 1.25
15 -2 -1 21.28 1.38
3 1 -15 8.37 1.1
-3 1 15 6.18 1.07
15 -3 1 7.58 0.97
3 -1 15 6.22 1.1
1 -15 3 5.38 1.04
15 3 -1 7.17 0.82
-1 -15 -3 6.21 1.1
15 3 -1 6.75 0.93
-3 -1 15 7.95 1.14
15 3 1 6.83 0.85
15 -3 -1 6.91 0.96
15 -3 -1 6.64 0.79
1 -15 -3 6.49 1.09
3 -1 -15 7.14 0.97
3 1 15 8.58 1.2
-1 -15 3 5.94 1.1
15 3 1 7.5 1.01
15 4 -1 10.89 1.12
-4 1 15 11.2 1.54
15 4 -1 10.38 1.03
15 -4 1 10.78 0.94
1 -15 4 11.07 1.46
4 -1 15 8.41 1.19
15 -4 1 11.55 1.2
1 15 -4 12.24 0.84
4 1 -15 9.8 1.16
-1 -15 -4 9.64 1.24
4 -1 -15 10.13 1.1
-1 -15 4 9.84 1.31
15 -4 -1 10.16 0.89
15 -4 -1 11.2 1.32
1 -15 -4 10.58 1.36
4 1 15 9.13 1.31
-4 -1 15 10.44 1.35
15 4 1 11.5 1.06
15 4 1 9.52 1.05
15 -5 1 20.51 1.19
5 -1 15 21.85 1.55
15 5 -1 19.29 1.28
15 -5 1 20.64 1.49
5 1 -15 20.06 1.43
1 -15 5 19.4 1.74
-1 -15 -5 21.72 1.68
-5 1 15 22.24 1.81
1 15 -5 22.18 1.09
15 5 -1 21.85 1.34
5 -1 -15 23.01 1.7
-1 -15 5 19.79 1.76
1 -15 -5 19.59 1.76
-5 -1 15 22.32 1.67
15 -5 -1 20.8 1.53
15 5 1 21.43 1.35
5 -1 -15 21.3 1.48
15 5 1 21.94 1.28
1 15 -6 32.62 1.38
-6 1 15 28.82 1.94
6 1 -15 33.39 1.86
15 6 -1 32.18 1.68
1 -15 6 31.24 1.94
15 -6 1 33.24 1.88
-1 -15 -6 31.7 2.08
15 6 -1 31.73 1.6
6 -1 15 32.26 1.77
15 6 1 34.62 1.7
-1 -15 6 32.63 1.96
1 -15 -6 32.06 2
-6 -1 15 28.25 2.04
6 -1 -15 30.74 1.91
15 6 1 30.36 2.15
6 -1 -15 34.21 1.73
15 -6 -1 28.93 1.81
7 1 -15 -0.52 0.88
15 7 -1 0.8 0.66
1 15 -7 -0.15 0.57
1 -15 7 0.88 0.89
-7 1 15 0.15 0.93
-1 -15 -7 0.44 1.03
7 1 -15 0.9 0.78
15 -7 1 0.5 0.86
15 7 -1 0.91 0.76
1 -15 -7 0.56 0.94
7 -1 -15 0.68 0.84
7 -1 -15 0.96 0.78
15 7 1 -0.24 0.54
-1 -15 7 0.89 0.92
-7 -1 15 0.58 0.84
15 -7 -1 0.67 0.92
-1 -15 -8 30.83 2.07
1 -15 8 32.49 2.07
8 1 -15 31.94 1.89
-8 1 15 31.19 2.13
15 8 -1 33.22 1.73
8 1 -15 34.96 1.95
15 -8 1 32.83 1.98
15 8 1 34.65 1.76
1 -15 -8 33.02 2.12
-8 -1 15 30.61 2.01
8 -1 -15 32.19 1.96
15 -8 -1 32.87 2.05
8 -1 -15 34.92 2.01
-1 -15 8 31.46 2.06
1 -15 9 1.07 1
9 1 -15 2.68 0.91
-9 1 15 -0.05 1.06
-1 -15 -9 -0.96 1.07
15 -9 1 0.84 1.04
9 1 -15 1.41 1.03
9 1 -15 1.33 0.74
15 9 -1 -0.52 0.6
-9 -1 15 1.87 1.14
1 -15 -9 0.57 1.03
9 -1 -15 3.03 1.01
9 -1 -15 0.46 0.89
15 9 1 2.19 0.76
-1 -15 9 2.12 1.06
15 -9 -1 0.08 1
15 10 -1 8 1.1
10 1 -15 7.45 1.11
1 -15 10 7.91 1.35
-1 -15 -10 8.18 1.46
10 1 -15 7.21 1.27
10 1 -15 9.48 1.29
-10 1 15 7.6 1.35
15 -10 1 7.76 1.35
15 -10 -1 7.6 1.27
-10 -1 15 7.47 1.62
-1 -15 10 8.24 1.39
10 -1 -15 6.96 1.23
1 -15 -10 6.51 1.32
15 10 1 6.91 1.04
10 -1 -15 10.45 1.35
-11 1 15 5.26 1.23
11 1 -15 4.89 0.96
11 1 -15 3.57 1.1
15 -11 1 2.53 1.04
-1 -15 -11 5.87 1.31
1 -15 11 3.04 1.23
11 -1 -15 4.91 1
1 -15 -11 4.65 1.27
15 -11 -1 4.33 1.13
-11 -1 15 5.43 1.22
-1 -15 11 4.68 1.24
11 -1 -15 4.36 1.13
15 12 -1 2.3 0.98
12 1 -15 4.61 0.98
-1 -15 -12 3.33 1.43
15 -12 1 3.66 1.18
12 1 -15 2.5 1.08
1 -15 12 2.95 1.25
-12 1 15 4.61 1.36
-12 -1 15 2.77 1.32
-1 -15 12 4.46 1.37
15 12 1 2.02 1.03
15 -12 -1 4.45 1.24
1 -15 -12 4.15 1.44
12 -1 -15 2.4 0.85
12 -1 -15 1.71 1.08
15 -13 1 0.13 1.04
13 1 -15 1.63 1.08
13 1 -15 0.29 0.78
-13 1 15 2.39 1.43
15 13 -1 0.61 0.89
-1 -15 -13 -1.37 1.82
15 13 1 0.28 0.94
15 -13 -1 -1.61 0.9
13 -1 -15 0.25 0.85
-13 -1 15 0.41 1.3
13 -1 -15 0.74 1.01
15 -14 1 0.88 1.08
15 14 -1 2.3 1.08
-14 1 15 2.48 1.57
1 -15 14 -0.72 1.52
-1 -15 -14 -0.66 1.53
14 1 -15 1.21 1.16
14 1 -15 -0.53 0.82
15 -14 -1 1.32 1.14
15 14 1 0.11 0.94
14 -1 -15 0.92 1.1
14 -1 -15 0.25 0.84
-14 -1 15 0.62 1.56
-1 -15 14 -0.93 1.49
1 -15 -14 -0.04 1.3
0 -2 -15 12.01 1.04
15 0 -2 11.62 1.35
15 0 2 11.02 0.94
2 -15 0 11.65 1.43
15 0 -2 12.64 1.02
15 0 2 10.91 1.1
0 2 15 13.86 1.36
0 -2 15 12.85 1.49
-2 -15 0 14.95 1.38
-1 2 15 22.87 1.63
15 1 -2 18.49 1.22
1 -2 15 20.42 1.57
2 -15 1 20.35 1.67
15 -1 2 21.22 1.15
15 1 -2 20.49 1.37
-2 -15 -1 19.24 1.54
15 -1 2 20.65 1.36
-1 -2 -15 22.12 1.21
-1 -2 15 21.32 1.59
15 -1 -2 20.78 1.19
2 -15 -1 21.44 1.57
-2 -15 1 19.36 1.52
15 -1 -2 21.18 1.4
1 2 15 21.78 1.6
15 1 2 19.84 1.3
15 1 2 19.86 1.19
1 -2 -15 21.54 1.26
15 -2 2 50.6 2.11
2 15 -2 49.04 1.89
-2 2 15 47.4 2.37
-2 -15 -2 48.49 2.41
2 -2 15 51.17 2.42
15 2 -2 51.92 2.04
15 2 -2 48.77 2
2 -15 2 48.85 2.43
-2 -2 -15 53.01 1.96
-2 -2 15 48.29 2.49
15 -2 -2 50.1 2.21
2 -15 -2 49.41 2.38
15 2 2 51.42 2
15 -2 -2 47.48 1.96
2 -2 -15 52.72 2.07
2 2 15 50.57 2.39
15 2 2 51.36 2.04
-2 -15 2 48.23 2.35
2 -15 3 9.65 1.26
2 15 -3 9.32 0.8
15 -3 2 10.81 0.89
3 2 -15 9.33 1.07
15 3 -2 12.67 1.12
15 -3 2 11.63 1.27
3 -2 15 11.05 1.27
-2 -15 -3 10 1.27
15 3 -2 10.06 0.98
-3 2 15 9.49 1.29
-2 -15 3 9.07 1.25
-3 -2 15 12.19 1.42
3 -2 -15 11.05 1.12
15 3 2 10.16 1.02
15 3 2 11.37 1.09
15 -3 -2 10.46 1.19
2 -15 -3 8.56 1.2
15 -3 -2 8.45 0.89
3 2 15 9.12 1.32
15 -4 2 13.7 0.97
2 15 -4 13.08 0.87
4 2 -15 13.83 1.28
4 -2 15 12.93 1.3
15 4 -2 14.15 1.04
-4 2 15 11.66 1.55
15 -4 2 12.62 1.22
-2 -15 -4 12.22 1.35
15 4 -2 13.62 1.12
2 -15 4 12.73 1.36
4 -2 -15 12.79 1.24
15 -4 -2 12.52 0.96
15 4 2 14.22 1.17
15 4 2 12.77 1.09
2 -15 -4 11.57 1.4
-4 -2 15 14.16 1.62
4 -2 -15 12.37 1.46
-2 -15 4 12.84 1.36
15 -4 -2 14.4 1.38
2 -15 5 1.31 0.87
15 5 -2 0.16 0.55
15 -5 2 0.22 0.76
-2 -15 -5 -1.85 0.86
15 5 -2 0.7 0.7
5 -2 15 1.87 0.87
2 15 -5 -0.48 0.45
5 2 -15 0.22 0.77
-5 2 15 -0.79 0.87
15 -5 -2 0.91 0.83
5 -2 -15 -0.15 0.68
15 5 2 -1.42 0.65
2 -15 -5 0.6 0.85
-2 -15 5 -0.73 0.79
-5 -2 15 0.59 0.96
15 -5 -2 0.9 0.58
5 -2 -15 1.27 0.81
15 5 2 -0.71 0.53
6 2 -15 0.47 0.78
6 -2 15 0.36 0.8
-6 2 15 -1.19 0.77
15 6 -2 0.57 0.77
15 6 -2 0.69 0.61
2 15 -6 0.9 0.49
-2 -15 -6 0.17 0.85
15 -6 2 1.47 0.88
2 -15 6 1.57 1
2 -15 -6 -0.22 0.92
15 -6 -2 0.75 0.85
-2 -15 6 0.59 0.82
15 -6 -2 1.58 0.62
-6 -2 15 -0.92 0.87
6 -2 -15 -0.43 0.77
15 6 2 1.37 0.61
6 -2 -15 0.42 0.74
-2 -15 -7 12.97 1.55
2 -15 7 13.66 1.68
15 7 -2 17.53 1.31
7 -2 15 16.2 1.37
2 15 -7 16.39 0.96
7 2 -15 14.28 1.38
15 7 -2 14.87 1.29
-7 2 15 13.56 1.6
15 -7 2 13.58 1.43
7 -2 -15 15.79 1.37
15 -7 -2 13.81 1.51
-2 -15 7 13.88 1.69
15 7 2 15.15 1.16
7 -2 -15 15.44 1.55
15 -7 -2 14.84 1.08
-7 -2 15 14.06 1.53
2 -15 -7 14.89 1.75
-8 2 15 22.94 1.76
15 8 -2 25.04 1.53
8 2 -15 24.77 1.7
2 -15 8 22.25 1.88
2 15 -8 23.26 1.18
15 8 -2 24.97 1.49
15 -8 2 24.45 1.84
8 2 -15 20.83 1.43
-2 -15 -8 25.69 1.89
8 2 -15 21.64 1.68
8 -2 -15 23.86 1.71
8 -2 -15 22.37 1.69
-8 -2 15 21.85 1.78
15 8 2 25.08 1.55
15 -8 -2 24.08 1.78
-2 -15 8 22.03 1.92
2 -15 -8 24.35 1.87
15 -9 2 28.68 2.03
2 -15 9 28.47 2.13
-2 -15 -9 29.81 2.07
9 2 -15 29.36 3.03
15 9 -2 28.28 1.74
-9 2 15 29.57 2.11
9 2 -15 30.34 1.83
9 2 -15 30.71 1.75
-2 -15 9 28.25 2.17
9 -2 -15 32.06 1.9
-9 -2 15 30.29 2
9 -2 -15 29.33 2.01
15 9 2 32.42 1.73
2 -15 -9 29.65 2.24
15 -10 2 -1.32 0.78
15 10 -2 -0.73 0.66
2 -15 10 -0.09 1.1
10 2 -15 -1.1 0.86
10 2 -15 0.6 0.81
10 2 -15 0.2 0.94
-2 -15 -10 1.6 1.1
-10 2 15 -0.63 0.98
10 -2 -15 -0.31 0.84
10 -2 -15 1.28 0.89
15 -10 -2 0.38 0.94
2 -15 -10 0.61 1.18
-2 -15 10 -0.06 1.17
15 10 2 0.53 0.71
-10 -2 15 -0.18 1.48
11 2 -15 1.15 0.95
11 2 -15 1.42 0.9
-2 -15 -11 0.59 1.17
15 11 -2 1.07 0.95
15 -11 2 1.78 1.06
2 -15 11 -0.02 1.19
-11 2 15 -0.5 1.15
15 11 2 -0.27 1.27
-2 -15 11 0.96 1.21
-11 -2 15 0.08 1.11
15 -11 -2 -0.07 0.96
11 -2 -15 1.14 0.97
2 -15 -11 0.39 1.22
11 -2 -15 0.14 0.88
15 12 -2 11.24 1.42
-2 -15 -12 11.51 1.74
-12 2 15 13.16 1.66
15 -12 2 12.87 1.77
2 -15 12 11.25 1.72
12 2 -15 10.8 1.41
12 2 -15 13.09 1.68
-2 -15 12 10.42 1.74
15 -12 -2 14.77 1.73
2 -15 -12 13.48 1.75
12 -2 -15 11.21 1.35
-12 -2 15 12.99 1.64
15 12 2 10.91 1.5
12 -2 -15 16.42 1.73
12 -2 -15 12.91 1.33
15 -13 2 3.9 1.22
13 2 -15 3.67 1.01
-2 -15 -13 0.96 2.27
15 13 -2 3.57 1.1
13 2 -15 6.79 1.34
-13 2 15 5.23 1.43
15 13 2 5.14 1.13
-13 -2 15 3.91 1.45
13 -2 -15 4.27 1.13
13 -2 -15 5.29 1.02
15 -13 -2 4.03 1.24
14 2 -15 2.23 1.21
2 -15 14 1.43 1.48
14 2 -15 2.2 0.96
15 14 -2 2.39 1.01
-2 -15 -14 -0.49 1.34
15 -14 -2 0.09 1.12
14 -2 -15 3.65 1.04
15 14 2 2.99 1.05
-14 -2 15 3.46 1.58
-2 -15 14 4.1 1.6
2 -15 -14 5.69 1.7
14 -2 -15 0.63 1.14
0 -3 15 9.52 1.3
15 0 -3 9.51 0.95
15 0 3 10.69 0.93
-3 -15 0 11.21 1.32
15 0 -3 10.49 1.17
0 3 15 9.29 1.27
15 0 3 11.18 1.08
3 -15 0 10.41 1.29
0 -3 -15 9.52 0.96
3 15 -1 7.18 0.75
-3 -15 -1 6.64 1.08
-1 3 15 6.56 1.11
15 1 -3 7.05 0.8
15 -1 3 7.52 0.89
1 -3 15 9.85 1.3
-1 -3 -15 6.41 0.86
15 1 -3 7.32 0.93
3 -15 1 6.57 1.18
-1 -3 15 7.76 1.17
15 -1 -3 7.56 0.87
-3 -15 1 5.94 1.02
15 1 3 7.44 0.99
3 -15 -1 6.93 1.08
15 -1 -3 7.06 0.99
1 -3 -15 6.2 0.83
1 3 15 7.28 1.16
15 1 3 6.58 0.81
15 2 -3 9.89 0.96
-3 -15 -2 9.08 1.28
3 15 -2 10.5 0.84
-2 3 15 11.56 1.4
2 -3 15 9.33 1.26
15 -2 3 11.12 1.04
-2 -3 -15 11.22 0.95
15 -2 3 9.85 1.15
15 2 -3 11.05 1.15
3 -15 2 12.46 1.46
-3 -15 2 9.29 1.3
15 2 3 10.61 1.01
15 -2 -3 9.83 1.19
3 -15 -2 10.14 1.29
-2 -3 15 10.53 1.38
15 -2 -3 8.43 0.94
15 2 3 11.98 1.06
2 -3 -15 11.42 1.08
2 -3 -15 9.1 1.24
-3 -3 -15 4.33 0.65
15 -3 3 4.48 0.89
15 3 -3 5.3 0.89
3 15 -3 3.69 0.63
-3 3 15 3.89 1.01
3 -3 15 4.1 1.02
15 -3 3 4.21 0.7
15 3 -3 3.72 0.74
-3 -15 -3 4.36 0.98
3 -15 3 2.36 0.96
15 3 3 4.97 0.79
-3 -15 3 2.92 0.95
3 -15 -3 5.36 1.06
15 3 3 4.7 0.77
15 -3 -3 4.87 0.73
-3 -3 15 4.09 1.11
15 -3 -3 4.1 0.9
3 -3 -15 3.11 0.91
3 -3 -15 4.8 0.82
-3 -15 -4 22.41 1.65
15 4 -3 22.8 1.34
4 3 -15 23.33 1.48
-4 3 15 22.99 1.73
3 15 -4 24.99 1.19
15 -4 3 26.14 1.65
15 4 -3 22.92 1.43
3 -15 4 21.87 1.67
-4 -3 -15 25.15 1.24
4 -3 15 23.49 1.71
-4 -3 15 22 1.68
-3 -15 4 24.69 1.82
3 -15 -4 22.27 1.7
15 -4 -3 24.62 1.28
15 -4 -3 25.6 1.68
4 -3 -15 21.53 1.45
15 4 3 24.79 1.38
4 -3 -15 24.2 1.66
15 4 3 24.91 1.33
15 -5 3 1.41 0.83
5 -3 15 2.07 0.86
3 15 -5 1.77 0.54
-5 -3 -15 2.67 0.59
3 -15 5 2.06 0.93
5 3 -15 1.65 0.8
-5 3 15 1.41 0.97
15 5 -3 0.58 0.73
-3 -15 -5 1.93 0.93
15 5 -3 0.76 0.59
-3 -15 5 2.02 0.9
3 -15 -5 2.63 0.97
5 -3 -15 1.65 0.94
-5 -3 15 1.49 1
15 -5 -3 1.86 0.9
15 5 3 1.91 0.68
5 -3 -15 0.71 0.75
15 -5 -3 2.3 0.64
3 15 -6 4.46 0.65
15 -6 3 6.79 1.08
6 3 -15 5.53 0.81
15 6 -3 4.84 0.84
-6 3 15 5.7 1.16
6 3 -15 4.24 1
6 -3 15 4.03 0.94
-3 -15 -6 6.65 1.19
3 -15 6 3.41 1.06
15 6 -3 4.05 0.81
6 -3 -15 4.92 1.1
6 -3 -15 4.5 0.94
-6 -3 15 3.7 1.05
15 -6 -3 6.33 1.11
3 -15 -6 4.37 0.7
3 -15 -6 3.22 1.12
15 -6 -3 4.37 0.71
-3 -15 6 3.02 0.98
15 6 3 3.87 0.74
7 3 -15 20.24 1.67
15 7 -3 20.92 1.39
3 15 -7 19.61 1.09
15 -7 3 20.59 1.66
-7 3 15 21.43 1.71
15 7 -3 20.41 1.36
3 -15 7 19.05 1.77
7 3 -15 18.95 1.29
-3 -15 -7 21.35 1.88
7 -3 15 22.41 1.51
7 -3 -15 19.96 1.55
3 -15 -7 18.79 1.86
3 -15 -7 20.41 1.27
15 -7 -3 24.01 1.79
-7 -3 15 21.17 1.85
7 -3 -15 20.15 1.69
-3 -15 7 21.42 1.72
15 7 3 20.57 1.34
15 -7 -3 19.99 1.23
15 -8 3 0.78 0.93
-3 -15 -8 -0.12 0.91
8 -3 15 -0.73 0.77
8 3 -15 -0.15 0.95
-8 3 15 1.34 0.96
3 15 -8 -0.91 0.53
8 3 -15 0.35 0.67
3 -15 8 1.89 1.08
15 8 -3 1.48 0.67
15 8 -3 -0.86 0.76
8 -3 -15 -0.24 0.81
-8 -3 15 -0.28 0.97
-3 -15 8 -1.54 0.89
15 -8 -3 0.05 1.01
8 -3 -15 -0.68 0.87
15 8 3 0.25 0.63
15 -8 -3 -0.46 0.64
3 -15 -8 -0.74 0.68
3 -15 -8 -0.44 0.92
15 9 -3 4.44 0.91
3 -15 9 3.03 1.21
9 3 -15 3.87 1.01
15 -9 3 3 2.05
-3 -15 -9 3.58 1.16
9 3 -15 4.1 0.91
-9 3 15 3.74 1.16
15 9 -3 4.41 0.94
3 15 -9 2.84 0.65
9 -3 -15 2.6 1
9 -3 -15 1.67 1.06
15 9 3 2.92 0.82
3 -15 -9 3.66 1.33
-9 -3 15 4.01 1.13
-3 -15 9 2.11 1.18
3 -15 -9 5.24 1.17
10 3 -15 -1.04 0.76
-3 -15 -10 0.85 1.15
10 3 -15 -0.59 0.89
-10 3 15 1.3 1.08
3 15 -10 0.39 0.61
15 10 -3 -0.14 0.8
15 -10 3 2.38 1.02
10 3 -15 0.52 0.91
10 -3 -15 -1.77 0.86
15 10 3 0.24 0.73
3 -15 -10 -0.55 1.17
10 -3 -15 1.05 0.97
15 -10 -3 -0.31 0.96
-10 -3 15 1.13 1.16
-3 -15 10 -0.63 1.07
15 -11 3 -1.37 0.94
11 3 -15 -0.87 1.15
-3 -15 -11 -1.06 1.11
-11 3 15 1.17 1.19
11 3 -15 0.2 0.88
11 3 -15 1.59 1.03
3 -15 11 1.19 1.25
15 11 -3 2.41 0.96
15 11 3 1.11 1.04
11 -3 -15 0.13 0.93
11 -3 -15 0.84 0.92
-3 -15 11 0.38 1.07
3 -15 -11 1.82 1.29
-11 -3 15 -0.57 1.15
15 -11 -3 2.12 1.05
12 3 -15 13.45 1.75
15 -12 3 14.82 1.73
15 12 -3 15.08 1.56
-3 -15 -12 12.06 1.75
12 3 -15 13.87 1.73
3 -15 12 14.33 1.79
-12 -3 15 12.14 1.69
15 -12 -3 12.51 1.73
12 -3 -15 13.05 1.32
3 -15 -12 13.46 1.83
15 12 3 10.57 1.44
-3 -15 12 13.82 1.92
12 -3 -15 13.52 1.45
12 -3 -15 14.07 1.56
15 13 -3 1.26 0.94
13 3 -15 1.2 0.93
13 3 -15 0.55 1.13
3 -15 13 3 1.55
3 -15 -13 2.2 1.41
-13 -3 15 4.58 1.5
13 -3 -15 2.64 1.13
15 13 3 2.31 1.05
15 -13 -3 1.22 1.1
13 -3 -15 2.14 0.91
-3 -15 13 3.31 1.79
15 14 -3 1.55 1.38
3 -15 14 1.14 1.51
14 3 -15 2.04 1.22
14 3 -15 -0.15 0.79
-3 -15 -14 -3.16 1.34
15 14 3 0.21 1
14 -3 -15 0.54 1.09
-14 -3 15 0.11 1.57
-3 -15 14 1.22 1.57
14 -3 -15 0.91 0.91
15 -14 -3 2.31 1.22
3 -15 -14 0.34 1.45
15 0 4 45.58 1.92
0 -4 15 42.14 2.21
0 -4 -15 45.6 1.8
0 -4 -15 42.96 2.18
-4 -15 0 46.04 2.2
15 0 4 44.78 1.8
15 0 -4 43.78 2.04
4 15 0 44.77 1.81
15 0 -4 42.47 1.86
4 -15 0 41.89 2.16
15 1 -4 9.72 1.12
-1 -4 -15 10.11 1.31
1 -4 15 12.62 1.49
15 -1 4 10.22 1.16
15 1 -4 9.82 0.95
4 15 -1 12 0.93
-1 -4 -15 9.53 0.92
4 -15 1 9.32 1.26
-4 -15 -1 11.71 1.32
-1 -4 15 11.01 1.38
15 -1 -4 10 0.94
1 -4 -15 12.5 1.01
1 -4 -15 9.12 1.19
15 1 4 9.88 1.11
4 -15 -1 9.31 1.25
15 -1 -4 10.92 1.15
-4 -15 1 8.75 1.23
15 1 4 11.05 0.98
-4 -15 -2 11.69 1.31
-2 -4 -15 13.35 0.99
-2 4 15 12.05 1.42
2 -4 15 12.18 1.49
15 2 -4 13.25 1.02
15 -2 4 12.37 0.98
15 -2 4 12.13 1.23
4 -15 2 11.91 1.32
4 15 -2 11.78 0.91
15 2 -4 11.94 1.15
15 2 4 12.24 1.01
2 -4 -15 13.12 1.56
-4 -15 2 10.98 1.31
15 2 4 15.2 1.17
15 -2 -4 12.74 0.95
-2 -4 15 9.91 1.37
2 -4 -15 13.65 1.12
15 -2 -4 12.25 1.33
4 -15 -2 15 1.52
4 15 -3 24.41 1.23
-3 4 15 26.31 1.76
-3 -4 -15 25.09 1.27
-4 -15 -3 24.65 1.66
15 3 -4 25 1.38
4 -15 3 24.78 1.67
3 -4 15 24.51 1.67
15 -3 4 25.9 1.52
15 3 -4 24.08 1.5
3 -4 -15 25.48 1.7
-4 -15 3 24.89 1.67
15 3 4 28.83 1.4
15 3 4 25.68 1.39
4 -15 -3 25.3 1.7
-3 -4 15 19.72 1.83
15 -3 -4 25.24 1.34
15 -3 -4 21.53 1.54
3 -4 -15 26.33 1.44
4 -15 4 -0.81 0.75
-4 -4 -15 -1 0.54
15 -4 4 0 0.73
15 4 -4 -0.33 0.55
4 15 -4 0.21 0.46
15 4 -4 0.46 0.73
-4 -15 -4 -1.16 0.73
4 -4 15 -1.56 0.71
-4 4 15 -0.86 0.78
4 -4 -15 -0.49 0.76
15 -4 -4 -0.77 0.76
-4 -4 15 0.58 0.93
15 4 4 -0.02 0.52
4 -15 -4 -0.49 0.54
-4 -15 4 0.13 0.88
15 -4 -4 0.27 0.54
4 -15 -4 -1.29 0.75
4 -4 -15 -1.43 0.63
-4 -15 -5 18.49 1.57
15 5 -4 19.55 1.35
4 15 -5 20.63 1.13
4 -15 5 18.25 1.68
15 -5 4 22.25 1.57
-5 4 15 23.03 1.85
5 -4 15 21.08 1.61
-5 -4 -15 21.87 1.17
5 4 -15 21.77 1.27
5 4 -15 19.78 1.46
15 5 -4 18.94 1.34
15 -5 -4 21.26 1.22
4 -15 -5 19.66 1.25
15 5 4 20.91 1.26
5 -4 -15 21.41 1.43
4 -15 -5 19.13 1.76
5 -4 -15 20.72 1.71
-5 -4 15 20.65 1.85
15 -5 -4 20.78 1.58
-4 -15 5 22.63 1.67
-4 -15 -6 11.85 1.6
15 -6 4 15.64 1.43
4 -15 6 11.02 1.52
4 15 -6 13.25 0.95
15 6 -4 12.71 1.24
15 6 -4 11.71 1.06
-6 4 15 13.33 1.5
6 4 -15 13.63 1.39
6 -4 15 13.77 1.37
6 4 -15 10.64 1.05
6 -4 -15 12.1 1.23
6 -4 -15 13.8 1.39
-4 -15 6 12.06 1.44
4 -15 -6 14.13 1.5
4 -15 -6 10.94 1.08
15 -6 -4 13.37 1.41
-6 -4 15 11.49 1.47
15 -6 -4 11.14 1.01
15 6 4 12.73 1.11
7 4 -15 0.46 0.84
4 15 -7 0.02 0.51
7 -4 15 -0.61 0.76
4 -15 7 0.45 1.02
15 -7 4 -0.62 0.93
-7 4 15 0.4 0.91
7 4 -15 0.33 0.61
-4 -15 -7 0.34 0.97
15 7 -4 0.86 0.73
15 7 -4 -0.06 0.57
15 -7 -4 0.75 0.89
7 -4 -15 -0.42 0.8
-7 -4 15 -0.27 0.87
7 -4 -15 -0.02 0.91
-4 -15 7 1.63 0.99
4 -15 -7 0.19 0.59
15 7 4 0.09 0.56
15 -7 -4 0.89 0.66
4 -15 -7 0 0.91
8 -4 15 16 1.35
4 -15 8 13.06 1.65
15 8 -4 15.66 1.35
15 8 -4 15.55 1.27
-4 -15 -8 14.71 1.77
15 -8 4 15.92 1.69
8 4 -15 16.23 1.6
8 4 -15 13.51 1.22
-8 4 15 15.07 1.54
4 15 -8 16.82 1.03
4 -15 -8 14.41 1.65
15 -8 -4 13.62 1.76
4 -15 -8 17.79 1.22
-8 -4 15 13.4 1.61
15 -8 -4 15.6 1.13
-4 -15 8 13.54 1.61
8 -4 -15 14.3 1.53
8 -4 -15 16.39 1.64
15 8 4 14.94 1.34
9 4 -15 4.14 1.1
9 4 -15 3.74 0.88
15 9 -4 4.99 0.93
9 4 -15 5.17 1.04
15 9 -4 6.03 1.05
4 15 -9 6.94 0.86
4 -15 9 4.88 1.21
-4 -15 -9 4.81 1.15
-9 -4 15 2.49 1.2
9 -4 -15 5.84 1.06
4 -15 -9 4.8 0.84
15 9 4 5.59 1.01
15 -9 -4 6.72 1.24
15 -9 -4 8.36 1.01
9 -4 -15 5.37 1.8
-4 -15 9 4.31 1.3
4 -15 -9 5.3 1.34
4 -15 10 10.71 1.6
4 15 -10 12.14 1.02
15 10 -4 9 1.95
-4 -15 -10 9.47 1.43
10 4 -15 6.96 1.22
-10 -4 -15 8.88 1.36
15 -10 4 10.84 1.39
10 4 -15 11.64 1.37
10 4 -15 12.79 1.49
15 10 -4 13.47 1.41
15 -10 -4 7.81 1.28
10 -4 -15 11.3 1.47
10 -4 -15 11.44 1.48
4 -15 -10 12.19 1.65
15 10 4 10.73 1.42
-10 -4 15 12.23 1.66
4 -15 -10 9.74 1.23
-4 -15 10 9.48 1.56
11 4 -15 17.72 2.01
4 15 -11 20.05 1.26
-11 -4 -15 19.11 2.08
-4 -15 -11 18.45 2.07
11 4 -15 18.96 1.56
15 11 -4 22.92 1.66
11 4 -15 20.48 1.87
4 -15 11 19.42 2.01
-11 -4 15 17.68 1.87
4 -15 -11 17.62 2.08
11 -4 -15 20.98 1.73
11 -4 -15 18.69 1.65
-4 -15 11 20.84 2.15
15 11 4 23.03 1.8
15 -11 -4 20.76 1.89
12 4 -15 0.39 1.13
15 12 -4 2.07 0.96
12 4 -15 0.55 1.06
-12 -4 -15 -1.2 1.3
4 -15 12 1.53 1.4
-4 -15 -12 0.97 1.23
4 -15 -12 0.32 1.37
12 -4 -15 0.83 0.94
15 -12 -4 -0.34 0.97
-12 -4 15 1.41 1.37
15 12 4 -0.66 0.81
12 -4 -15 -0.46 0.89
-4 -15 12 0.65 1.24
4 -15 13 2.98 1.42
13 4 -15 2.72 1.16
15 13 -4 2.52 1.28
13 4 -15 2.94 1.31
-13 -4 15 4.63 1.5
13 -4 -15 1.86 1.12
15 13 4 2.51 1.04
13 -4 -15 3.76 0.95
-4 -15 13 1.53 1.33
15 -13 -4 3.33 1.24
4 -15 -13 3.93 1.51
15 14 -4 6.56 1.63
14 4 -15 5.66 1.35
-4 -15 -14 5.16 1.72
4 -15 14 7.14 1.66
14 4 -15 5.06 1.13
4 -15 -14 7.42 1.77
15 -14 -4 8 1.45
15 14 4 6.47 1.3
14 -4 -15 5.36 1.29
-14 -4 15 8.32 1.83
-4 -15 14 8.23 1.93
14 -4 -15 6.88 1.18
0 -5 -15 7.66 1.13
15 0 -5 5.54 0.96
-5 -15 0 6.36 1.05
5 15 0 7.2 0.82
15 0 -5 7.05 0.81
15 0 5 7.6 0.95
0 -5 15 6.34 1.1
0 -5 -15 7.44 0.91
5 -15 0 7.68 1.16
15 0 5 6.56 0.88
5 -15 1 22.03 1.65
15 1 -5 18.98 1.21
5 15 -1 21.18 1.21
-1 -5 -15 22.08 1.63
15 -1 5 21.46 1.47
-5 -15 -1 20.7 1.57
1 -5 15 20.37 1.61
15 1 -5 23.25 1.53
-1 -5 -15 19.53 1.17
-1 -5 15 22.05 1.68
15 -1 -5 21.12 1.53
5 15 1 22.1 1.26
15 -1 -5 19.81 1.22
5 -15 -1 22.4 1.58
15 1 5 21.57 1.42
15 1 5 21.37 1.23
1 -5 -15 18.63 1.56
-5 -15 1 19.54 1.53
1 -5 -15 21.5 1.27
5 15 -2 -0.48 0.44
2 5 -15 -0.39 0.43
15 -2 5 0.05 0.8
15 2 -5 -0.6 0.57
2 -5 15 0.36 0.9
-2 -5 -15 0.09 0.51
15 2 -5 -0.4 0.73
5 -15 2 0.47 0.83
15 -2 5 -0.06 0.6
-2 -5 -15 1.13 0.93
-5 -15 -2 -0.11 0.82
-2 -5 15 0.62 0.82
-5 -15 2 0.63 0.88
15 2 5 0.28 0.73
5 -15 -2 -0.2 0.86
2 -5 -15 0.36 0.6
2 -5 -15 -0.15 0.91
15 -2 -5 0.14 0.51
15 -2 -5 0.87 0.78
15 2 5 -0.2 0.58
3 -5 15 0.35 0.84
15 3 -5 1.13 0.66
3 5 -15 1.56 0.51
15 3 -5 2.2 0.81
-5 -15 -3 1.72 0.83
5 15 -3 1.96 0.54
-3 -5 -15 0.73 0.93
-3 -5 -15 2.19 0.56
5 -15 3 1.49 0.91
15 -3 5 1.3 0.83
5 -15 -3 1.26 0.85
15 -3 -5 1.05 0.54
-5 -15 3 0.75 0.89
3 -5 -15 0.64 0.87
15 3 5 0.43 0.65
-3 -5 15 2.54 0.98
3 -5 -15 1.02 0.66
15 -3 -5 2.18 0.89
5 -15 -3 1.66 0.69
4 5 -15 21.64 1.23
4 -5 15 20.85 1.57
-5 -15 -4 23.22 1.63
5 15 -4 21.87 1.22
15 4 -5 21.28 1.43
15 4 -5 19.63 1.35
-4 -5 -15 22.72 1.15
15 -4 5 21.29 1.58
5 -15 4 17.96 1.53
-4 -5 -15 19.82 1.6
5 -15 -4 20.66 1.62
15 -4 -5 20.43 1.22
-4 -5 15 21.52 1.74
5 -15 -4 22.07 1.36
15 -4 -5 20.42 1.55
4 -5 -15 21.1 1.75
4 -5 -15 20.12 1.37
-5 -15 4 21.32 1.6
15 4 5 19.15 1.25
5 15 -5 -0.22 0.49
5 5 -15 0.48 0.52
-5 -15 -5 1.72 0.87
-5 -5 -15 -0.22 0.76
15 5 -5 -1.14 0.66
5 -15 5 0.24 0.85
5 -5 15 0.83 0.88
15 -5 5 0.43 0.85
15 5 -5 -0.04 0.56
5 5 -15 -0.14 0.74
-5 -15 5 0.92 0.85
-5 -5 15 1.27 0.97
5 -5 -15 -0.08 0.76
5 -15 -5 -0.48 0.79
15 5 5 0.67 0.61
5 -15 -5 0.12 0.62
15 -5 -5 1.25 0.95
15 -5 -5 -0.21 0.52
5 -5 -15 0.15 0.79
-6 -5 -15 1.34 0.86
5 -15 6 -0.28 0.96
15 6 -5 1.12 0.76
6 -5 15 0.78 0.86
6 5 -15 1.48 0.88
6 5 -15 1.86 0.64
15 6 -5 -0.34 0.57
-5 -15 -6 1.41 0.97
15 -6 5 0.29 0.8
5 15 -6 1.04 0.5
5 -15 -6 1.43 0.62
6 -5 -15 0.74 0.97
-5 -15 6 2.08 0.98
15 -6 -5 0.41 0.91
15 -6 -5 2.64 0.62
-6 -5 15 0.73 1.01
15 6 5 1.38 0.72
6 -5 -15 0.42 0.72
5 -15 -6 1.54 0.98
5 15 -7 20.28 1.17
7 5 -15 20.05 1.65
15 -7 5 19.74 1.67
-5 -15 -7 17.27 1.82
7 -5 15 18.6 1.52
5 -15 7 21.6 1.77
-7 -5 -15 19.42 1.76
7 5 -15 18.66 1.26
15 7 -5 18.78 1.45
15 7 -5 18.1 1.32
7 -5 -15 18.51 1.72
7 -5 -15 19.34 1.56
5 -15 -7 18.92 1.34
15 -7 -5 20.12 1.67
-5 -15 7 17.72 1.81
5 -15 -7 17.94 1.81
-7 -5 15 18.73 1.69
15 -7 -5 19.69 1.14
15 7 5 15.94 1.27
-5 -15 -8 1.94 1.07
-8 -5 -15 2.62 1
8 5 -15 4.46 0.92
15 -8 5 3.82 1.13
8 -5 15 3.84 0.97
5 -15 8 4.15 1.2
15 8 -5 2.9 0.76
15 8 -5 4.1 0.92
5 15 -8 5.3 0.79
15 8 5 5.9 0.95
8 -5 -15 3.42 0.99
-5 -15 8 2.71 1.08
-8 -5 15 1.97 1.05
8 -5 -15 3.15 1.05
15 -8 -5 4.24 0.71
5 -15 -8 3.23 0.84
5 -15 -8 4.1 1.18
5 15 -9 2.16 0.67
9 5 -15 2.75 0.87
9 5 -15 2.17 1.01
-5 -15 -9 1.94 1.15
15 9 -5 2.03 0.88
15 9 -5 1.13 0.87
9 -5 15 4.53 0.9
-9 -5 -15 2.5 1.08
5 -15 9 2.17 1.12
-9 -5 15 1.05 1.16
15 -9 -5 4.1 1.08
5 -15 -9 0.8 1.12
9 -5 -15 1.44 0.97
15 -9 -5 2.39 0.66
-5 -15 9 3.86 1.11
5 -15 -9 2.43 0.81
15 9 5 2.59 0.82
-5 -15 -10 20.77 2.09
-10 -5 -15 20.28 1.94
10 5 -15 19.51 1.81
5 15 -10 21.93 1.29
15 10 -5 23.03 1.61
5 -15 10 22.91 2.02
15 10 -5 18.49 1.92
10 5 -15 18.73 2.43
10 5 -15 21.25 1.63
10 -5 -15 22.96 1.71
5 -15 -10 23.75 1.94
10 -5 -15 21.67 1.74
-5 -15 10 22.02 1.95
-10 -5 15 17.7 2.05
5 -15 -10 21.14 1.52
15 -10 -5 19.28 1.29
15 -10 -5 21.4 1.93
5 15 -11 -0.88 0.68
-11 -5 -15 0.37 1.23
15 11 -5 0.12 0.93
5 -15 11 0.01 1.22
11 5 -15 -0.11 0.92
-5 -15 -11 0.38 1.2
11 5 -15 -0.09 1.04
11 5 -15 -0.52 0.91
11 -5 -15 0.73 0.99
11 -5 -15 -1.2 0.8
5 -15 -11 -0.39 0.88
-5 -15 11 1.77 1.27
15 11 5 0.49 0.9
-11 -5 15 3.06 1.34
5 -15 -11 0.55 1.32
15 -11 -5 -0.13 0.97
5 15 -12 -0.79 0.73
5 -15 12 0.9 1.23
15 12 -5 0.58 0.96
12 5 -15 0.66 0.99
12 5 -15 0.29 1.15
-5 -15 -12 0.57 1.35
15 12 5 1.07 0.9
5 -15 -12 -0.72 2.12
12 -5 -15 0.11 0.93
-12 -5 15 -0.1 1.32
15 -12 -5 0.17 1.08
12 -5 -15 0.97 1
-5 -15 12 1.11 1.44
5 -15 13 0.98 1.33
13 5 -15 -0.14 1.06
15 13 -5 1.79 1.34
-5 -15 -13 0.4 1.46
13 5 -15 0.34 1.26
5 15 -13 -0.71 0.8
15 -13 -5 0.21 1.11
-13 -5 15 2.72 1.6
13 -5 -15 0.15 1.03
13 -5 -15 1.58 0.92
15 13 5 0.99 1.03
5 -15 -13 0.64 1.49
-5 -15 13 3.11 1.35
14 5 -15 -0.42 1.14
14 5 -15 0.9 1.42
-5 -15 -14 2.26 1.58
5 -15 14 2.8 1.52
15 14 -5 -0.37 1.42
15 -14 -5 0.72 1.05
14 -5 -15 0.41 1.13
-5 -15 14 -2.49 1.51
5 -15 -14 2.66 1.55
14 -5 -15 0.7 0.95
15 14 5 1.35 1.06
6 -15 0 14.01 1.37
0 -6 15 14.05 1.52
6 15 0 14.72 1.1
15 0 -6 17.55 1.39
0 -6 -15 14.56 1.63
0 -6 -15 16.43 1.09
0 6 -15 15.59 0.95
15 0 6 18.86 1.08
-6 -15 0 17.13 1.44
15 0 -6 13.44 1.04
15 1 -6 32.49 1.81
1 6 -15 31.59 1.39
15 1 -6 28.24 1.5
6 -15 1 29.44 1.85
6 15 -1 27.91 1.51
-6 -15 -1 32.39 1.86
-1 -6 -15 31.17 1.43
1 -6 15 29.93 1.93
-1 -6 -15 32.04 1.93
-1 -6 15 31.07 1.99
6 15 1 33.78 1.62
1 -6 -15 30.33 1.95
1 -6 -15 30.51 1.49
15 -1 -6 31.29 1.82
6 -15 -1 31.44 1.82
15 1 6 31.99 1.52
15 -1 -6 32.19 1.56
-6 -15 1 31.15 1.82
-1 6 -15 32.05 1.34
6 15 -2 0.73 0.58
2 -6 15 1.01 0.87
15 2 -6 0.99 0.57
-6 -15 -2 -0.92 0.86
15 2 -6 0.58 0.75
-2 -6 -15 0.52 0.54
6 -15 2 1.48 0.82
2 6 -15 1.33 0.51
-2 -6 -15 0.78 0.84
6 15 2 1.23 0.65
2 -6 -15 -0.84 0.79
6 -15 -2 0.16 0.86
-6 -15 2 1.63 0.84
6 -15 -2 1.05 0.69
-2 -6 15 0.61 0.89
15 -2 -6 1.21 0.56
-2 6 -15 0.81 0.51
2 -6 -15 1.26 0.67
15 2 6 0.86 0.63
15 -2 -6 1.96 0.83
6 15 -3 5.29 0.78
3 6 -15 6.89 0.76
15 3 -6 4.81 0.9
-6 -15 -3 5.04 1.02
15 3 -6 3.99 0.79
-3 -6 -15 3.27 0.99
6 -15 3 3.57 0.93
3 -6 15 5.12 1.12
3 -6 -15 3.56 1.09
6 -15 -3 4.82 0.84
-3 -6 15 6.4 1.25
15 3 6 3.87 0.76
15 -3 -6 4.78 0.76
-6 -15 3 5.36 1.1
6 -15 -3 5.33 1.06
3 -6 -15 3.95 0.77
15 -3 -6 3.15 0.91
-6 -15 -4 10.99 1.35
6 -15 4 13.06 1.44
15 4 -6 12.56 1.31
-4 -6 -15 11.49 1.39
6 15 -4 11.95 1.01
4 -6 15 11.7 1.51
4 6 -15 11.93 0.98
15 4 -6 11.32 1.14
-4 -6 15 15.99 1.76
4 -6 -15 11.19 1.14
15 -4 -6 13.25 1.4
15 -4 -6 12.8 0.98
6 -15 -4 12.57 1.19
6 -15 -4 11.35 1.34
4 -6 -15 12.46 1.61
15 4 6 11.16 1.06
-6 -15 4 11.98 1.51
6 -15 5 0.9 0.94
-5 -6 -15 0.86 0.86
5 6 -15 2.83 0.64
5 -6 15 0.73 0.93
6 15 -5 0.16 0.54
15 5 -6 0.66 0.55
-6 -15 -5 0.88 0.85
15 5 -6 1.35 0.78
6 -15 -5 0.87 0.97
-6 -15 5 -0.91 0.8
5 -6 -15 0.88 0.68
6 -15 -5 1.57 0.69
15 5 6 1.61 0.66
15 -5 -6 1.02 0.9
5 -6 -15 1.65 0.98
15 -5 -6 0.61 0.57
-5 -6 15 2.04 1.11
15 6 -6 2.97 0.95
6 15 -6 2.94 0.68
6 6 -15 2.04 0.93
-6 -6 -15 2.97 1.08
6 -15 6 2.2 1.07
6 -6 15 3.4 0.97
-6 -15 -6 2.85 1.07
15 6 -6 1.73 0.68
6 6 -15 3.02 0.72
15 -6 -6 4.37 0.73
6 -6 -15 2.03 0.96
-6 -15 6 2.14 0.95
15 -6 -6 2.79 1.08
-6 -6 15 3.02 1.1
6 -15 -6 4.53 0.82
15 6 6 3.28 0.77
6 -6 -15 1.77 0.83
6 -15 -6 3.59 1.08
-7 -6 -15 11.71 1.62
7 6 -15 10.72 1.06
-6 -15 -7 13.02 1.55
15 7 -6 13.76 1.24
6 -15 7 14.19 1.62
7 -6 15 10.68 1.45
7 6 -15 10.96 1.64
15 7 -6 10.24 1.32
6 15 -7 10.14 1.05
15 -7 -6 11.39 1.04
7 -6 -15 14.3 1.43
15 7 6 12.9 1.14
6 -15 -7 13.35 1.68
-7 -6 15 13.65 1.62
7 -6 -15 13.92 1.6
6 -15 -7 13.2 1.23
-6 -15 7 11.2 1.49
8 6 -15 1.45 0.71
8 -6 15 0.68 0.86
-6 -15 -8 1.07 1.13
6 -15 8 1.58 1.03
-8 -6 -15 -1.56 0.99
8 6 -15 1.27 1.01
6 15 -8 0.09 0.64
15 8 -6 0.95 0.85
15 8 -6 1.08 0.72
8 -6 -15 1.46 1.08
6 -15 -8 1.42 1.1
15 8 6 1.72 0.79
-8 -6 15 0.68 1.01
8 -6 -15 1.31 0.99
6 -15 -8 1.53 0.78
15 -8 -6 0.98 0.61
15 -8 -6 0.69 0.94
-6 -15 8 -0.13 1.11
6 15 -9 4.68 0.83
9 6 -15 5.19 1.1
-6 -15 -9 4.15 1.16
6 -15 9 3.86 1.22
9 6 -15 5.36 1.13
15 9 -6 2.94 0.95
-9 -6 -15 1.99 1.17
9 -6 15 3.51 0.92
15 -9 -6 4.93 0.8
-9 -6 15 4.48 1.32
9 -6 -15 5.41 1.15
9 -6 -15 3.65 0.97
-6 -15 9 5.17 1.35
6 -15 -9 3.73 1.27
15 -9 -6 4.99 1.21
6 -15 -9 3.76 0.88
15 9 6 3.97 0.97
10 6 -15 26.93 2.86
10 6 -15 25.91 1.84
15 10 -6 25.22 1.77
-10 -6 -15 28.41 2.18
-6 -15 -10 28.12 2.08
6 15 -10 25.48 1.47
15 10 -6 27.89 1.78
6 -15 10 26.79 2.05
10 6 -15 27.65 1.81
10 -6 -15 28.46 1.85
6 -15 -10 24.22 2.18
-6 -15 10 23.07 2.23
10 -6 -15 26.06 1.91
6 -15 -10 27.15 1.69
-10 -6 15 27.74 2.06
15 -10 -6 29.21 1.98
15 -10 -6 25.34 1.44
15 10 6 25.91 1.91
6 15 -11 5.07 0.85
11 6 -15 5.57 1.29
11 6 -15 5.81 1.05
-6 -15 -11 3.7 1.31
6 -15 11 4.54 1.38
15 11 -6 5.9 1.16
15 11 -6 2.75 1.04
11 6 -15 4.66 1.12
-11 -6 -15 4.94 1.37
15 -11 -6 3.58 1.16
11 -6 -15 3.48 1.01
15 -11 -6 5.25 0.86
6 -15 -11 4.31 1.43
6 -15 -11 5.6 1.03
11 -6 -15 5.08 1.14
-11 -6 15 3.54 1.41
-6 -15 11 6.38 1.41
15 11 6 3.53 1.03
-6 -15 -12 4.65 1.62
15 12 -6 3.56 1.38
12 6 -15 4.76 1.29
12 6 -15 3.64 1.32
6 15 -12 4.35 0.97
6 -15 -12 7.27 2.6
-12 -6 15 3.86 1.51
15 12 6 6.9 1.19
12 -6 -15 6.06 1.2
15 -12 -6 5.86 1.27
-6 -15 12 3.19 2.13
12 -6 -15 5.22 1.21
6 -15 13 4.34 1.47
6 15 -13 0.75 1.09
-6 -15 -13 1.27 1.48
13 6 -15 -0.14 1.12
15 13 -6 1.31 1.33
13 6 -15 0.31 1.26
6 -15 -13 -2.82 1.24
-13 -6 15 1.34 1.59
13 -6 -15 -1.56 0.97
-6 -15 13 2.31 1.48
15 -13 -6 -1.19 1.09
6 -15 -13 -0.33 1.49
14 6 -15 1.21 1.28
6 -15 14 0.76 1.39
-6 -15 -14 1.34 1.49
15 14 -6 1.31 1.49
6 15 -14 2.37 1.14
14 6 -15 -0.93 1.07
-6 -15 14 -2.98 1.56
14 -6 -15 0.97 1.01
6 -15 -14 1.67 1.68
14 -6 -15 1.39 1.1
15 -14 -6 0.58 1.11
0 -7 15 25.54 2
-7 -15 0 26.84 1.75
7 -15 0 29.51 1.78
15 0 -7 28.5 1.52
15 0 -7 26.33 1.73
7 15 0 25.21 1.49
0 7 -15 28.55 1.26
0 -7 -15 27.72 1.97
0 -7 -15 28.63 1.39
-1 -7 -15 0.9 0.59
-7 -15 -1 0.66 0.81
7 15 -1 -0.8 0.58
-1 -7 -15 1.4 0.91
1 7 -15 1.63 0.53
1 -7 15 0.93 0.92
7 -15 1 1.05 0.88
15 1 -7 1.01 0.8
15 1 -7 0.97 0.57
-7 -15 1 1.82 0.88
15 -1 -7 1 0.85
-1 -7 15 1.13 1.1
7 -15 -1 0.33 0.83
15 1 7 0.16 0.63
-1 7 -15 1.24 0.54
1 -7 -15 1.05 0.92
7 15 1 0.65 0.69
1 -7 -15 1.08 0.66
15 -1 -7 0.58 0.52
15 2 -7 13.27 1.4
-2 -7 -15 14.72 1.54
2 -7 15 13.63 1.47
7 -15 2 13.84 1.47
7 15 -2 15.53 1.2
2 7 -15 16.35 0.99
-7 -15 -2 12.51 1.55
15 2 -7 13.62 1.11
15 2 7 17.31 1.18
15 -2 -7 15.67 1.54
7 -15 -2 13.08 1.48
15 -2 -7 12.99 1.09
-7 -15 2 16.27 1.62
7 15 2 16.61 1.21
7 -15 -2 15.04 1.25
2 -7 -15 12.33 1.48
2 -7 -15 15.07 1.17
-2 -7 15 15.23 1.58
3 -7 15 22.16 1.67
7 15 -3 20.94 1.33
-3 -7 -15 19.23 1.7
3 7 -15 21.77 1.18
7 -15 3 22.59 1.65
15 3 -7 18.73 1.28
-7 -15 -3 23.28 1.66
15 3 -7 21 1.57
7 -15 -3 20.12 1.64
15 -3 -7 21.96 1.72
15 3 7 22 1.32
-3 -7 15 23.34 1.95
7 -15 -3 19.94 1.45
-7 -15 3 22.64 1.76
15 -3 -7 20.2 1.27
3 -7 -15 17.67 1.8
3 -7 -15 19.76 1.34
7 15 3 20.63 1.43
7 15 -4 0.09 0.62
-4 -7 -15 -0.35 0.93
4 -7 15 -0.75 0.92
4 7 -15 -0.62 0.52
7 -15 4 -0.32 0.8
-7 -15 -4 -0.54 0.94
15 4 -7 -1.12 0.52
15 4 -7 -0.43 0.81
15 -4 -7 -0.18 0.87
7 -15 -4 1.01 0.68
-7 -15 4 0.02 0.83
7 -15 -4 0.42 0.91
-4 -7 15 2.42 1.13
15 -4 -7 0.25 0.56
15 4 7 -0.14 0.58
4 -7 -15 -0.12 0.66
4 -7 -15 0.12 0.92
7 15 -5 18.83 1.28
7 -15 5 18.22 1.7
-7 -15 -5 17.79 1.71
15 5 -7 20.16 1.36
5 7 -15 18.85 1.22
15 5 -7 19.57 1.53
5 -7 15 19.53 1.56
-5 -7 -15 18.31 1.82
-5 -7 15 21.09 1.98
15 -5 -7 20.66 1.26
-7 -15 5 18.71 1.64
7 -15 -5 20.38 1.44
7 -15 -5 19.02 1.7
15 -5 -7 18.04 1.66
5 -7 -15 19.75 1.68
15 5 7 20.02 1.35
5 -7 -15 18.67 1.43
6 7 -15 11.45 2.03
7 -15 6 13.16 1.47
7 15 -6 11.82 1.1
-7 -15 -6 12.6 1.63
15 6 -7 12.18 1.22
-6 -7 -15 14.54 1.74
6 -7 15 13.59 1.52
15 6 -7 12.42 1.37
6 7 -15 14.58 1.2
15 6 7 11.57 1.22
-7 -15 6 11.99 1.66
6 -7 -15 10.51 1.3
6 -7 -15 12.39 1.63
15 -6 -7 11.46 1.07
7 -15 -6 13.42 1.64
-6 -7 15 15.11 1.66
7 -15 -6 13.7 1.3
15 7 -7 1.88 0.73
7 7 -15 2.75 0.78
7 7 -15 4.36 1.11
7 -15 7 2 1.02
7 -7 15 4.13 1.01
7 15 -7 4.27 0.81
-7 -7 -15 3.45 1.15
15 7 -7 3.41 0.97
-7 -15 -7 2.65 1.17
7 -7 -15 2.7 1.19
-7 -15 7 4.63 1.22
7 -15 -7 3.59 0.93
15 -7 -7 4.36 1.17
-7 -7 15 6.28 1.25
7 -7 -15 3.51 0.97
7 -15 -7 4.47 1.18
15 -7 -7 3.53 0.7
15 7 7 4.54 0.86
8 -7 15 15.84 1.53
15 8 -7 13.6 1.57
8 7 -15 13.26 1.23
-8 -7 -15 14.3 1.67
15 8 -7 14.42 1.48
8 7 -15 13.87 1.47
7 15 -8 14.07 1.16
7 -15 8 11.85 1.44
-7 -15 -8 16.41 1.9
15 -8 -7 14.42 1.13
8 -7 -15 14.99 1.68
7 -15 -8 13.44 1.77
-7 -15 8 14.31 1.89
15 -8 -7 16.58 1.6
15 8 7 15.66 1.31
8 -7 -15 15.19 2.19
7 -15 -8 11.89 1.37
-8 -7 15 15.24 1.73
9 7 -15 6.55 1.19
15 9 -7 6.51 1.15
7 -15 9 5.59 1.25
15 9 -7 5.06 1.13
9 7 -15 7.16 1.14
9 -7 15 5.71 1.05
-7 -15 -9 6.63 1.42
7 15 -9 7.21 0.96
-9 -7 -15 3.88 1.22
7 -15 -9 8.56 1.44
7 -15 -9 8.44 1.11
15 -9 -7 5.44 0.85
9 -7 -15 6.56 1.26
-9 -7 15 8.29 1.53
9 -7 -15 5.07 1.01
15 -9 -7 4.75 1.19
-7 -15 9 8.07 1.49
15 10 -7 3.85 1.15
7 -15 10 4.68 1.24
-7 -15 -10 5.44 1.41
-10 -7 -15 3.81 1.35
10 7 -15 4.26 1.13
15 10 -7 3.98 1.05
10 7 -15 3.6 1.17
10 -7 15 4.22 0.95
7 -15 -10 3.63 1.06
-7 -15 10 0.28 1.32
10 -7 -15 3.4 1.14
15 -10 -7 1.97 0.76
15 10 7 4.96 1.12
7 -15 -10 3.01 1.29
10 -7 -15 2.42 0.93
-10 -7 15 1.1 1.19
15 -10 -7 3.09 1.1
11 7 -15 7.25 1.44
7 15 -11 5.64 1.1
-11 -7 -15 9.36 1.61
11 7 -15 7.01 1.31
11 7 -15 7.6 1.48
-7 -15 -11 7.45 1.5
15 11 -7 9.65 1.59
7 -15 11 7.64 1.35
7 -15 -11 9.93 1.59
15 -11 -7 9.53 1.45
11 -7 -15 6.73 1.15
-11 -7 15 6.99 1.56
7 -15 -11 7.65 1.07
15 -11 -7 7.9 1.02
11 -7 -15 9.59 1.36
-7 -15 11 5.8 1.44
12 7 -15 0.24 1.08
-7 -15 -12 0.29 2.27
12 7 -15 -0.38 1.24
15 12 -7 -1.33 1.25
7 -15 12 -0.48 2.14
15 12 -7 -0.54 0.91
7 15 -12 2.27 1.1
12 -7 -15 -0.39 1.46
-12 -7 15 1.49 1.51
15 -12 -7 -0.03 1.08
12 -7 -15 0.02 0.93
7 -15 -12 -1.84 0.78
15 -12 -7 -1.11 1.01
7 -15 -12 0.11 1.31
-7 -15 12 1.11 1.41
13 7 -15 2.89 1.38
7 -15 13 4.79 1.47
13 7 -15 3.56 1.3
7 15 -13 4.93 1.21
-7 -15 -13 2.53 1.69
15 13 -7 2.22 1.42
7 -15 -13 3.19 0.9
7 -15 -13 3.47 1.65
-7 -15 13 3.06 1.7
15 -13 -7 4.74 1.37
13 -7 -15 3.19 1.03
14 7 -15 2.28 1.23
7 -15 14 3.97 1.63
7 15 -14 6.07 1.25
15 14 -7 3.06 1.56
-7 -15 -14 1.91 1.75
7 15 -14 1.96 1.16
14 7 -15 2.07 1.51
-7 -15 14 4.08 1.64
7 -15 -14 0.21 1.42
14 -7 -15 1.21 1.28
15 -14 -7 -0.06 1.14
7 -15 -14 2.85 1.7
14 -7 -15 2.84 1.17
8 15 0 -0.55 0.7
-8 -15 0 -1.39 0.89
8 -15 0 -0.6 0.82
0 -8 -15 0.44 0.69
0 -8 -15 0.48 0.99
0 8 -15 -0.95 0.53
15 0 -8 0.97 0.85
15 0 -8 0.35 0.56
0 -8 15 0.03 0.94
15 1 -8 32.79 1.67
15 1 -8 32.61 1.92
1 8 -15 33.52 1.44
8 -15 1 30.03 1.91
1 -8 15 33.46 2.21
-1 -8 -15 29.39 2
-8 -15 -1 34.83 2.08
8 15 -1 35.52 1.74
15 -1 -8 31.09 1.89
15 -1 -8 33.26 1.64
8 15 1 31.47 1.72
1 -8 -15 30.21 2
-8 -15 1 32.84 2.05
8 -15 -1 35.28 1.88
1 -8 -15 32.77 1.53
8 -15 -1 30.87 1.85
-1 -8 15 34.99 2.12
8 -15 2 22.71 1.71
8 15 -2 22.16 1.42
2 8 -15 23.31 1.23
15 2 -8 21.82 1.36
-8 -15 -2 23.92 1.81
2 -8 15 23.64 1.8
-2 -8 -15 23.6 1.82
15 2 -8 22.3 1.72
8 15 2 23.58 1.61
8 -15 -2 23.9 1.69
15 -2 -8 22.96 1.38
8 -15 -2 22.3 1.6
-8 -15 2 22.65 1.8
2 -8 -15 22.49 1.8
2 -8 -15 22.69 1.31
15 -2 -8 24.71 1.82
-2 -8 15 21.35 1.8
-8 -15 -3 0.19 0.93
-3 -8 -15 -0.18 0.89
8 15 -3 0.1 0.65
3 -8 15 -0.35 0.98
8 -15 3 1.43 0.88
15 3 -8 -0.12 0.89
3 8 -15 -0.79 0.54
15 3 -8 0.48 0.6
8 15 3 1.81 0.79
15 -3 -8 0.24 0.97
8 -15 -3 -0.88 0.76
-8 -15 3 1.11 0.9
3 -8 -15 1.16 0.67
-3 -8 15 -0.27 0.93
3 -8 -15 1.12 0.95
8 -15 -3 -0.18 0.79
15 -3 -8 0.22 0.54
15 4 -8 13.81 1.16
-8 -15 -4 15.64 1.5
8 -15 4 12.58 1.46
4 -8 15 14.87 1.66
-4 -8 -15 14.58 1.59
8 15 -4 15.28 1.24
4 8 -15 17.02 1.14
8 15 -4 12.47 1.51
15 4 -8 14.54 1.5
-8 -15 4 13.81 1.68
4 -8 -15 14.7 1.73
-4 -8 15 13.07 1.79
15 -4 -8 16.67 1.18
8 -15 -4 16.81 1.42
8 -15 -4 13.28 1.46
15 -4 -8 15.07 1.73
4 -8 -15 16.02 1.26
8 -15 5 3.88 1
-8 -15 -5 2.8 1.01
15 5 -8 4 0.8
5 -8 15 4.38 1.12
15 5 -8 3.64 1.01
8 15 -5 4.35 0.84
5 8 -15 3.34 0.77
-5 -8 -15 3.98 1.2
8 15 -5 4.8 0.88
8 -15 -5 4.38 1.11
8 -15 -5 4.71 0.94
-8 -15 5 5.03 1.21
15 -5 -8 4.85 0.82
5 -8 -15 3.49 0.84
5 -8 -15 2.44 1.14
-5 -8 15 4.58 1.2
-6 -8 -15 2.99 1.08
-8 -15 -6 -0.15 1.04
15 6 -8 1.05 0.97
15 6 -8 1.23 0.7
8 -15 6 1.73 0.95
8 15 -6 3.8 0.89
6 -8 15 0.77 1
6 8 -15 0.05 0.62
8 15 -6 0.56 0.66
6 -8 -15 3.42 1.09
6 -8 -15 1.17 0.82
-6 -8 15 0.06 1.14
15 -6 -8 0.68 0.61
8 -15 -6 1.53 0.87
-8 -15 6 -0.72 1.09
15 -6 -8 1 0.95
8 -15 -6 2.19 1.05
7 8 -15 13.6 1.31
7 -8 15 17.22 1.68
8 15 -7 14.78 1.41
-7 -8 -15 15.23 1.88
8 -15 7 12.57 1.51
15 7 -8 14.61 1.54
7 8 -15 15.06 1.6
-8 -15 -7 17.15 1.86
15 7 -8 12.75 1.32
8 15 -7 14.63 1.19
-7 -8 15 13.78 1.72
8 -15 -7 12.47 1.63
15 -7 -8 13.99 1.2
7 -8 -15 14.2 1.75
-8 -15 7 14.4 1.78
15 -7 -8 13.87 1.67
7 -8 -15 16.44 1.52
8 -15 -7 12.6 1.45
-8 -8 -15 5.68 1.33
8 -8 15 4.66 1.09
15 8 -8 5.63 1.26
8 8 -15 6.74 1.21
8 8 -15 5.62 0.99
8 15 -8 6.17 0.91
8 15 -8 8.01 1.1
-8 -15 -8 7.93 1.45
15 8 -8 4.4 1.11
8 -15 8 5.83 1.17
-8 -15 8 5.11 1.3
-8 -8 15 5.16 1.4
8 -15 -8 3.75 1.1
15 -8 -8 3.5 1.1
15 -8 -8 7.6 1.04
8 -8 -15 5.89 1.08
8 -15 -8 2.28 1.16
8 -8 -15 5.79 1.24
8 -15 9 18.61 1.72
8 15 -9 17.73 1.44
15 9 -8 16.13 1.49
9 8 -15 18.68 2.53
15 9 -8 19.11 2.61
9 8 -15 19.25 1.67
-9 -8 -15 20.65 2.07
9 -8 15 16.51 1.51
-8 -15 -9 15.01 1.84
8 -15 -9 16.17 2.33
9 -8 -15 17.37 1.52
15 -9 -8 16.38 1.78
-8 -15 9 16.07 1.81
9 -8 -15 19.18 1.87
15 -9 -8 16.83 1.34
-9 -8 15 16.64 2.14
10 8 -15 6.07 1.36
-8 -15 -10 6.83 1.54
15 10 -8 6.94 1.08
10 8 -15 4.79 1.19
15 10 -8 6.73 1.32
-10 -8 -15 9.03 1.53
8 15 -10 5.04 0.99
8 -15 10 8.22 1.35
10 -8 -15 6.24 1.12
15 -10 -8 4.34 1.2
10 -8 -15 7.73 2.12
15 -10 -8 5.48 1.08
-8 -15 10 5.06 1.53
8 -15 -10 6.18 0.94
8 -15 -10 5.36 1.38
-10 -8 15 5.99 1.58
8 -15 11 0.95 1.19
-8 -15 -11 1.57 1.32
15 11 -8 0.64 1.38
11 8 -15 0.29 1.04
8 15 -11 -0.79 1.06
11 8 -15 1.58 1.26
15 11 -8 -0.79 0.86
8 15 -11 1.92 0.89
-11 -8 -15 3.25 1.54
8 -15 -11 0.42 0.8
11 -8 -15 1.13 1.22
-8 -15 11 2.45 1.56
-11 -8 15 -0.55 1.43
11 -8 -15 0.33 0.92
15 -11 -8 2.61 1.14
15 12 -8 16.18 2.17
15 12 -8 14.88 1.52
12 8 -15 19.29 1.89
8 15 -12 15.51 1.62
-8 -15 -12 14.32 2.24
12 8 -15 13.86 1.95
8 -15 12 15.29 1.73
8 -15 -12 16.79 1.94
12 -8 -15 16.92 1.73
15 -12 -8 15.08 1.73
15 -12 -8 15.2 1.93
-8 -15 12 16.54 2.12
8 -15 -12 15.75 1.48
15 13 -8 0.59 1.39
8 15 -13 1.61 1.16
13 8 -15 0.18 1.14
13 8 -15 -0.33 1.25
8 15 -13 -0.14 1
8 -15 13 1.95 1.47
15 13 -8 0.81 1.47
-8 -15 -13 -0.25 1.68
8 -15 -13 0.73 0.91
13 -8 -15 -0.71 0.91
-8 -15 13 -1.66 1.61
8 -15 -13 1.14 1.48
15 -13 -8 0.89 1.09
-13 -8 15 2.52 1.79
14 8 -15 -1.89 1.36
15 14 -8 0.54 1.58
-8 -15 -14 -1.33 1.83
8 -15 14 0.1 1.54
8 15 -14 -0.74 1.13
8 15 -14 0.4 1.25
14 8 -15 -0.98 1.09
-8 -15 14 1.49 1.7
15 -14 -8 -1.72 0.97
14 -8 -15 -1.2 1.29
8 -15 -14 0.68 1.01
14 -8 -15 0.82 1.16
8 -15 -14 -2.3 1.57
0 -9 15 28.55 2.15
9 15 0 27.39 1.72
9 -15 0 27.62 1.77
15 0 -9 27.33 1.58
-9 -15 0 30.99 1.94
15 0 -9 27.57 1.96
0 -9 -15 26 1.93
-9 -15 -1 4.17 1.07
9 15 -1 0.89 0.75
-1 -9 -15 2.9 1.07
1 -9 15 2.64 1.05
1 9 -15 2.32 0.62
15 1 -9 1.81 0.68
15 1 -9 1.63 0.95
9 -15 1 2.73 0.93
9 -15 -1 1.18 0.88
15 -1 -9 1.76 0.63
1 -9 -15 2.02 0.7
1 -9 -15 3 1.03
9 15 1 0.99 0.83
15 -1 -9 1.12 0.98
-9 -15 1 2.76 1.1
-1 -9 15 1.28 1.18
9 -15 -1 3.41 1.01
9 15 -2 29.69 1.68
15 2 -9 30.29 1.94
2 9 -15 29.7 1.4
2 -9 15 29.55 2.15
15 2 -9 27.98 1.59
-2 -9 -15 27.91 2.02
-9 -15 -2 29.21 2.04
9 -15 2 27.95 1.78
9 -15 -2 28.88 1.85
2 -9 -15 29.47 1.5
15 -2 -9 28.83 1.55
-2 -9 15 30.9 2.08
-9 -15 2 26.18 1.98
2 -9 -15 31.21 2.18
15 -2 -9 26.45 2.19
9 15 2 28.68 1.76
9 -15 -2 31.49 1.78
15 3 -9 3.23 1.02
9 15 -3 2.66 0.85
9 -15 3 1.24 0.92
15 3 -9 1.77 0.6
-3 -9 -15 1.73 1.09
3 -9 15 2.69 1.16
-9 -15 -3 1.96 0.97
3 9 -15 4.52 0.72
9 -15 -3 4.45 0.96
15 -3 -9 3.26 0.78
9 15 3 4.45 1
-3 -9 15 4.11 1.31
-9 -15 3 3.1 1.05
3 -9 -15 2.79 1.09
9 -15 -3 3.47 0.99
3 -9 -15 3.28 0.82
-4 -9 -15 4.28 1.17
-9 -15 -4 4.52 1.15
4 9 -15 6.05 0.84
9 15 -4 5.24 0.92
9 -15 4 5.08 1.04
15 4 -9 4.72 1.11
15 4 -9 5.08 0.89
4 -9 15 6.63 1.28
15 -4 -9 4.79 1.14
-4 -9 15 4.69 1.29
9 -15 -4 6.64 1.13
-9 -15 4 4.14 1.09
4 -9 -15 5.45 0.9
4 -9 -15 6.31 1.31
9 -15 -4 3.34 1
15 -4 -9 5.01 0.83
9 15 -5 2.35 0.84
9 -15 5 2.14 0.94
-5 -9 -15 1.14 1.02
15 5 -9 2.49 1.25
-9 -15 -5 0.67 1.09
5 9 -15 2.58 0.71
9 15 -5 3.36 0.83
15 5 -9 2.73 0.84
5 -9 15 3.11 1.09
5 -9 -15 1.92 0.79
9 -15 -5 0.78 0.9
-5 -9 15 3.01 1.29
5 -9 -15 2.08 1.12
15 -5 -9 1.65 0.96
-9 -15 5 1.63 1.07
9 -15 -5 2.97 0.97
15 -5 -9 1.46 0.64
6 -9 15 3.49 1.13
6 9 -15 5.61 0.88
-6 -9 -15 4.32 1.17
9 15 -6 4.05 0.91
9 -15 6 1.98 0.99
9 15 -6 4.73 0.9
-9 -15 -6 4.04 1.15
6 -9 -15 4.69 0.99
9 -15 -6 3.67 1.1
6 -9 -15 2.34 1.26
15 -6 -9 3.22 1.02
9 -15 -6 4.28 1.29
-9 -15 6 4.22 1.27
-6 -9 15 5.89 1.28
15 -6 -9 5.09 0.87
9 15 -7 6.07 1.12
9 -15 7 5.31 1.14
15 7 -9 6.31 1.14
9 15 -7 7.73 1.09
-7 -9 -15 7.27 1.44
-9 -15 -7 10.31 1.41
15 7 -9 6.34 1.21
7 -9 15 7.45 1.27
7 9 -15 8.18 1.08
7 9 -15 6.54 1.16
-9 -15 7 5.87 1.37
7 -9 -15 6.76 1.34
15 -7 -9 7.99 1.06
9 -15 -7 9.03 1.84
-7 -9 15 6.71 1.36
15 -7 -9 7.47 1.29
9 -15 -7 7.31 1.27
15 8 -9 17.86 1.6
9 -15 8 16.19 1.69
9 15 -8 14.01 1.69
8 9 -15 16.6 1.68
-8 -9 -15 19.34 2.09
15 8 -9 16.43 1.5
9 15 -8 14.57 1.7
8 9 -15 18.7 1.75
-9 -15 -8 18.12 1.87
8 -9 15 16.51 1.74
8 -9 -15 18.1 1.43
9 -15 -8 15.06 1.4
8 -9 -15 15.94 2.43
15 -8 -9 17.72 1.7
15 -8 -9 18.64 1.55
-9 -15 8 19.29 2.05
-8 -9 15 15.48 1.92
9 -15 -8 18.26 1.82
9 15 -9 8.06 1.13
9 -9 15 6.29 1.17
9 -15 9 4.26 1.25
15 9 -9 6.98 1.26
9 15 -9 8.85 1.48
9 9 -15 7.81 1.4
9 9 -15 5.22 1.16
15 9 -9 7.19 1.13
-9 -9 -15 8.34 1.58
-9 -15 -9 6.34 1.53
9 -15 -9 3.86 0.94
9 -9 -15 8.12 1.12
9 -15 -9 6.5 1.32
15 -9 -9 6.08 1.26
9 -9 -15 7.35 1.35
-9 -15 9 5.18 1.48
-9 -9 15 6.96 1.55
15 10 -9 0.4 0.91
10 9 -15 -2.04 1.14
9 15 -10 1.46 0.94
10 9 -15 0.56 1.06
-10 -9 -15 2.88 1.42
-9 -15 -10 -0.43 1.4
15 10 -9 -0.66 1.21
9 -15 10 -0.99 1.07
9 15 -10 3.09 1.18
9 -15 -10 -0.47 0.78
15 -10 -9 0.22 1.21
-10 -9 15 1.41 1.31
10 -9 -15 0.43 1.17
15 -10 -9 -0.2 0.99
9 -15 -10 -2.53 1.22
-9 -15 10 -0.47 1.32
10 -9 -15 -0.95 0.78
-11 -9 -15 4.68 1.67
15 11 -9 3.54 1.42
11 9 -15 4.47 1.2
9 15 -11 4.38 1.26
-9 -15 -11 5.22 1.76
15 11 -9 5.12 1.1
9 15 -11 6 1.17
11 9 -15 3.48 1.33
9 -15 -11 2.99 1.41
11 -9 -15 5.69 1.47
11 -9 -15 2.11 0.95
15 -11 -9 6.5 1.35
15 -11 -9 4 1.3
9 -15 -11 4.58 0.99
-9 -15 11 3.93 1.72
9 15 -12 3.95 1.28
15 12 -9 4.35 1.11
15 12 -9 2.98 1.52
9 -15 12 4.52 1.45
12 9 -15 1.95 1.18
12 9 -15 0.44 1.33
-9 -15 -12 5.91 1.56
9 15 -12 3.43 1.13
15 -12 -9 3.67 1.33
-12 -9 15 4.59 1.79
9 -15 -12 1.22 1.4
9 -15 -12 2.48 0.97
-9 -15 12 3.95 1.64
12 -9 -15 1.8 1.03
15 -12 -9 5.43 1.36
9 15 -13 2.35 1.31
13 9 -15 4.02 1.29
-9 -15 -13 3.85 1.86
13 9 -15 2.36 1.45
15 13 -9 3.75 1.13
9 15 -13 3.62 1.19
9 -15 13 1.87 1.45
15 13 -9 3.02 1.52
9 -15 -13 1.75 1.6
15 -13 -9 3.86 1.47
-9 -15 13 2.7 1.64
-13 -9 15 3.18 1.86
13 -9 -15 2.62 1.11
9 -15 -13 3.74 1.09
15 -13 -9 3.26 1.32
15 14 -9 5.4 1.66
14 9 -15 2.63 1.35
14 9 -15 4.03 1.64
9 15 -14 4.02 1.27
9 15 -14 5.68 1.42
-9 -15 -14 1.03 1.88
-9 -15 14 4.53 1.96
9 -15 -14 0.88 1.76
14 -9 -15 3.37 1.26
14 -9 -15 2.91 1.59
15 -14 -9 0.94 1.24
9 -15 -14 2.74 1.07
15 0 -10 12.21 1.45
10 15 0 15.55 1.53
0 -10 -15 9.77 1.45
0 -10 15 14.01 1.87
15 0 -10 13.53 1.25
10 -15 0 13.06 1.42
-10 -15 0 12.66 1.47
-1 -10 -15 8 1.35
15 1 -10 7.69 1.02
1 -10 15 6.03 1.37
-10 -15 -1 10.23 1.38
15 1 -10 7.53 1.45
10 15 -1 7.31 1.14
10 -15 1 7.22 1.05
1 -10 -15 6.5 1.37
-1 -10 15 7.42 1.45
15 -1 -10 7.75 1.28
-10 -15 1 8.44 1.33
15 -1 -10 7.71 0.99
10 -15 -1 7.49 1.09
10 15 1 6.3 1.16
10 -15 2 1.87 0.92
15 2 -10 0.39 0.63
2 -10 15 -0.38 1.09
2 10 -15 1.7 0.64
15 2 -10 1.5 1.01
10 15 -2 1.32 0.82
-2 -10 -15 0.44 1.04
-10 -15 -2 0.28 1
-10 -15 2 1.22 1.09
15 -2 -10 0.59 0.91
-2 -10 15 0.72 1.04
10 -15 -2 0.72 0.87
2 -10 -15 -0.11 1.06
2 -10 -15 1.41 0.71
15 -2 -10 0.6 0.67
10 15 2 0.88 0.89
10 -15 3 1.22 0.91
-10 -15 -3 0 0.97
15 3 -10 -0.52 0.62
3 10 -15 -0.31 0.6
-3 -10 -15 0.94 1.15
15 3 -10 0.71 0.97
3 -10 15 -0.24 1.09
10 15 -3 -1.14 0.76
15 -3 -10 1.34 0.69
3 -10 -15 -0.23 0.81
-10 -15 3 0.25 0.96
3 -10 -15 -0.5 1.16
15 -3 -10 0.71 0.91
-3 -10 15 -1.23 1.15
10 -15 -3 -0.11 0.85
10 15 3 -0.08 0.94
4 -10 15 12.64 1.73
-4 -10 -15 12.12 1.66
15 4 -10 11.51 1.54
4 10 -15 11.08 1.05
15 4 -10 7.88 1.8
10 15 -4 11.55 1.38
-10 -15 -4 12.72 1.48
10 -15 4 11.19 1.45
4 -10 -15 9.58 1.45
-4 -10 15 10.82 1.64
-10 -15 4 12.06 1.7
10 15 4 9.69 1.46
15 -4 -10 11.87 1.54
15 -4 -10 10.62 1.14
10 -15 -4 9.67 1.22
10 -15 -4 9.69 1.46
4 -10 -15 12.32 1.29
5 10 -15 19.91 1.33
10 -15 5 20.13 1.62
5 -10 15 24.78 1.96
10 15 -5 24.72 1.67
15 5 -10 19.19 1.64
-10 -15 -5 19.07 1.88
-5 -10 -15 19.97 1.89
15 5 -10 19.6 1.58
10 -15 -5 22.27 1.67
5 -10 -15 21.01 1.53
-5 -10 15 20.54 2.13
10 -15 -5 21.68 1.68
15 -5 -10 20.21 1.45
-10 -15 5 18.83 1.96
5 -10 -15 21.46 2.02
15 -5 -10 21.99 1.85
10 -15 6 29.94 1.74
6 -10 15 23.28 1.96
15 6 -10 27.95 1.88
10 15 -6 27.55 2.06
-10 -15 -6 28.28 2.15
6 10 -15 28.65 1.59
10 15 -6 28.15 1.68
-6 -10 -15 25.2 2.04
15 6 -10 28.22 1.87
6 -10 -15 24.81 2.15
-10 -15 6 23.79 2.07
15 -6 -10 25.74 2.04
10 -15 -6 26.97 1.71
10 -15 -6 28.68 1.88
-6 -10 15 25.75 2.09
6 -10 -15 28.04 1.72
15 -6 -10 27.48 1.89
7 10 -15 2.89 1.01
10 -15 7 3.51 1.06
7 10 -15 1.93 0.89
10 15 -7 3.92 0.99
-10 -15 -7 2.85 1.29
15 7 -10 3.33 1.01
7 -10 15 3.98 1.18
15 7 -10 2.28 0.9
-7 -10 -15 4.69 1.45
10 15 -7 4.97 1.31
15 -7 -10 4.4 1.18
7 -10 -15 3.03 0.86
10 -15 -7 3.4 1.12
-10 -15 7 3.54 1.37
7 -10 -15 3.56 1.31
10 -15 -7 4.62 0.98
-7 -10 15 3.41 1.31
8 10 -15 8.98 1.5
15 8 -10 7.24 1.22
8 -10 15 6.18 1.29
10 -15 8 7.23 1.18
-10 -15 -8 8.8 1.51
10 15 -8 5.89 1.33
-8 -10 -15 5.23 1.51
8 10 -15 6.39 1.22
15 8 -10 7.87 1.17
-10 -15 8 8.1 1.5
15 -8 -10 6.95 1.28
10 -15 -8 4.16 0.99
8 -10 -15 6.13 1.05
-8 -10 15 5.36 1.45
15 -8 -10 6.73 1.32
8 -10 -15 8 1.49
9 -10 15 -0.92 1.09
10 15 -9 0.79 0.82
-10 -15 -9 0.14 1.47
15 9 -10 0.7 1.19
15 9 -10 -0.33 0.91
-9 -10 -15 -0.97 1.28
9 10 -15 0.4 1.16
10 -15 9 0 1.1
9 10 -15 -1.17 1
10 15 -9 0.72 1.1
10 -15 -9 1.79 1.18
-9 -10 15 -0.17 1.43
15 -9 -10 1.15 1.13
-10 -15 9 -0.73 1.38
10 -15 -9 -0.01 0.77
15 -9 -10 0.42 1.15
9 -10 -15 -0.94 0.77
9 -10 -15 0.35 1.28
10 15 -10 2.6 0.96
10 15 -10 5.4 1.38
15 10 -10 3.59 1.07
10 -15 10 3.54 1.23
-10 -15 -10 1.42 1.55
10 10 -15 1.6 1.09
-10 -10 -15 2.14 1.59
10 10 -15 3.13 1.24
15 10 -10 2.1 1.35
10 -15 -10 0.62 0.94
15 -10 -10 0.74 1.1
10 -10 -15 2.51 0.93
-10 -15 10 2.09 2.11
15 -10 -10 1.75 1.26
15 11 -10 5.37 1.59
15 11 -10 4.8 1.14
10 15 -11 4.37 1.06
11 10 -15 5.53 1.5
11 10 -15 4.6 1.27
10 15 -11 6.16 1.45
-10 -15 -11 3.05 2.06
-11 -10 15 6.07 1.74
-10 -15 11 9.17 1.77
10 -15 -11 4.64 1.1
15 -11 -10 4.93 1.3
15 -11 -10 3.05 1.21
11 -10 -15 6.05 1.13
11 -10 -15 3.44 1.41
10 -15 -11 7.3 1.54
10 15 -12 12.3 1.62
15 12 -10 10.33 1.33
-10 -15 -12 6.6 1.97
10 15 -12 11.15 1.62
15 12 -10 9.24 1.84
12 10 -15 11.85 1.8
12 10 -15 9.6 1.43
15 -12 -10 13.44 1.87
12 -10 -15 10.01 1.39
10 -15 -12 9.88 1.3
15 -12 -10 10.72 1.6
-12 -10 15 14.39 2.16
-10 -15 12 6.13 1.86
10 -15 -12 12.53 1.75
15 13 -10 1.29 1.08
10 15 -13 0.89 1.12
13 10 -15 -0.29 1.25
13 10 -15 1.38 1.52
-10 -15 -13 4.51 2.01
10 15 -13 0.83 1.39
15 13 -10 -2.87 1.49
13 -10 -15 -0.08 1.07
15 -13 -10 -1.12 1.41
10 -15 -13 0.99 1.04
15 -13 -10 -1.56 1.17
10 -15 -13 -0.56 1.66
-10 -15 13 3.2 1.88
-13 -10 15 1.85 2.02
14 10 -15 -1.44 1.51
14 10 -15 -1.75 1.21
10 15 -14 1.71 1.42
15 14 -10 0.71 2.09
10 15 -14 -1.04 1.14
-10 -15 -14 4.28 2.42
15 -14 -10 1.07 1.9
10 -15 -14 2.74 1.88
-10 -15 14 -0.21 2.01
14 -10 -15 -1.03 1.13
14 -10 -15 0.43 1.53
10 -15 -14 -0.94 1.09
15 -14 -10 -0.24 1.25
-11 -15 0 3.02 1.13
0 -11 -15 1.07 1.12
11 -15 0 1.55 0.91
15 0 -11 0.56 0.89
0 -11 15 -0.87 1.17
11 -15 0 -0.77 0.81
1 -11 15 5.93 1.32
11 -15 1 5.87 0.98
-1 -11 -15 4.54 1.4
-11 -15 -1 6.23 1.23
15 1 -11 4.37 1.15
11 15 -1 5.74 1.38
15 -1 -11 4.74 1.15
11 -15 -1 5.07 0.98
11 -15 -1 4.52 1.05
15 -1 -11 4.12 1.53
-1 -11 15 3.6 1.35
-11 -15 1 5.8 1.28
1 -11 -15 5.34 1.27
-2 -11 -15 1.47 1.13
-11 -15 -2 1.94 1.15
2 -11 15 0.41 1.18
15 2 -11 0.91 1.07
15 2 -11 -0.04 0.94
11 -15 2 -1.33 0.82
-2 -11 15 -0.95 1.04
11 -15 -2 -0.82 0.85
-11 -15 2 -0.38 1.14
11 15 2 0.53 2.06
15 -2 -11 -1.45 0.84
2 -11 -15 1.04 1.1
11 -15 -2 1.18 0.86
15 3 -11 0.15 0.83
3 11 -15 -0.53 0.65
15 3 -11 0.1 0.94
11 -15 3 0.74 0.86
-11 -15 -3 1.6 1.18
3 -11 15 0.29 1.17
-3 -11 -15 2 1.1
3 -11 -15 0.45 0.83
11 -15 -3 0.09 0.86
-3 -11 15 0.02 1.25
3 -11 -15 0.16 1.08
-11 -15 3 0.04 1.17
11 -15 -3 2.24 0.92
15 -3 -11 -0.28 0.94
11 15 3 0.24 1.17
11 15 -4 17.88 2.26
11 -15 4 23.25 1.59
15 4 -11 17.47 1.5
-4 -11 -15 18.18 1.87
4 -11 15 18.76 1.83
4 11 -15 19.51 1.32
15 4 -11 19.19 1.73
-11 -15 -4 24.67 2.07
4 -11 -15 22.67 1.5
4 -11 -15 22.33 2.12
11 -15 -4 18.99 1.62
-11 -15 4 22.18 1.99
-4 -11 15 21.51 2.18
11 15 4 18.96 1.9
11 -15 -4 22.21 1.71
15 -4 -11 17.09 1.67
15 -4 -11 18.79 2.54
15 5 -11 0.56 0.78
15 5 -11 1.37 0.98
11 -15 5 -0.64 0.9
11 15 -5 0.26 1.15
-11 -15 -5 -2 1.21
5 11 -15 -0.2 0.68
-5 -11 -15 3.48 1.23
5 -11 15 -0.05 1.19
5 -11 -15 1.11 1.22
11 -15 -5 0.87 0.95
15 -5 -11 0.18 0.97
-11 -15 5 1.79 1.24
5 -11 -15 1.68 0.9
-5 -11 15 0.2 1.2
15 -5 -11 -0.99 0.83
11 -15 -5 0.79 0.85
6 -11 15 3 1.23
15 6 -11 5.44 1.1
-6 -11 -15 4.39 1.36
11 -15 6 3.85 1.03
6 11 -15 4.92 0.87
15 6 -11 6.32 1.2
11 15 -6 4.76 1.32
-11 -15 -6 5.73 1.45
-11 -15 6 6.1 1.43
15 -6 -11 5.07 1.12
6 -11 -15 3.23 1.38
11 -15 -6 4.93 1.11
11 -15 -6 5.19 1
15 -6 -11 4.51 1.19
-6 -11 15 5.36 1.49
7 11 -15 7.83 2.43
7 11 -15 7.18 1.23
-7 -11 -15 7.97 1.58
11 15 -7 8.02 1.42
7 -11 15 6.4 1.3
15 7 -11 9.26 1.26
15 7 -11 10.31 1.29
11 -15 7 9.74 1.15
-11 -15 -7 10.57 1.59
11 15 -7 8.36 1.22
7 -11 -15 6.77 0.97
11 -15 -7 7.92 1.27
15 -7 -11 6.99 1.3
15 -7 -11 9.71 1.46
11 -15 -7 8.37 1.18
7 -11 -15 11.16 1.64
-7 -11 15 8.59 1.64
-11 -15 7 7.35 1.5
8 11 -15 1.11 1.11
8 11 -15 1.6 1.07
15 8 -11 1.87 1.28
-8 -11 -15 -0.53 1.42
11 15 -8 -0.02 0.86
-11 -15 -8 0.79 1.42
8 -11 15 4.28 1.28
15 8 -11 1.64 1.01
11 15 -8 1.88 1.34
11 -15 -8 2.13 1.18
15 -8 -11 1.9 1.13
-11 -15 8 0.72 1.43
11 -15 -8 1.13 0.97
15 -8 -11 2.17 1.27
8 -11 -15 1.29 0.83
9 11 -15 5.24 1.25
-9 -11 -15 3.98 1.99
11 15 -9 3.05 0.96
15 9 -11 3.92 1.36
9 11 -15 2.16 1.2
9 -11 15 4.77 1.29
11 15 -9 8.16 1.47
15 9 -11 5.68 1.24
-11 -15 -9 8.27 1.89
11 -15 -9 3.61 1.04
15 -9 -11 3.54 1.22
-11 -15 9 4.68 1.65
15 -9 -11 3.25 1.3
9 -11 -15 4.01 0.99
11 -15 -9 4.53 1.41
-9 -11 15 5.23 1.73
9 -11 -15 4.5 1.36
15 10 -11 2.92 1.46
11 15 -10 6.7 1.43
-10 -11 -15 4.15 1.93
15 10 -11 5.55 1.25
10 11 -15 2.18 1.22
11 15 -10 4.8 1.06
10 11 -15 5.78 1.4
-11 -15 10 4.34 1.7
10 -11 -15 4.6 1.08
-10 -11 15 5.21 1.78
15 -10 -11 3.83 1.21
15 -10 -11 4.31 1.44
10 -11 -15 5.36 1.49
11 -15 -10 2.91 1.11
11 -15 -10 8.32 1.45
11 15 -11 1.66 1.34
11 11 -15 0.52 1.13
15 11 -11 2.91 1.16
11 11 -15 -1.18 1.39
11 15 -11 -0.45 1
15 11 -11 0.41 1.45
-11 -11 15 3.78 1.85
15 -11 -11 -0.29 1.39
11 -15 -11 -0.05 0.99
11 -15 -11 2.88 1.56
11 -11 -15 1.26 1.47
15 -11 -11 1.02 1.04
-11 -15 11 -1.82 1.64
11 -11 -15 0.9 0.97
11 15 -12 6.69 1.58
15 12 -11 7.36 1.27
12 11 -15 4.45 1.3
11 15 -12 5.1 1.23
12 11 -15 3.86 1.62
15 12 -11 5.78 1.74
11 -15 -12 5.64 1.2
11 -15 -12 3.29 1.64
-12 -11 15 6.48 2.08
12 -11 -15 5.49 1.24
15 -12 -11 7.41 1.38
15 -12 -11 8.92 1.65
-11 -15 12 2.04 1.87
11 15 -13 0.59 1.21
15 13 -11 1.89 1.2
13 11 -15 -0.01 1.26
15 13 -11 0.43 1.64
11 15 -13 0.88 1.48
13 11 -15 2.29 1.69
-11 -15 13 0.6 2.01
11 -15 -13 0.75 1.08
15 -13 -11 1.04 1.27
15 -13 -11 2.85 1.57
13 -11 -15 2.11 1.11
11 15 -14 0.99 1.28
15 14 -11 1.71 1.28
14 11 -15 -0.47 1.27
14 11 -15 -1.54 1.62
15 14 -11 4.01 1.77
11 15 -14 4.83 1.6
14 -11 -15 0.24 1.23
14 -11 -15 1.49 1.65
15 -14 -11 2.7 1.37
-11 -15 14 4.51 2.33
11 -15 -14 2.68 1.24
15 -14 -11 7.62 1.79
0 -12 -15 24.21 2.27
0 -12 15 24.57 2.15
15 0 -12 25.7 1.87
12 -15 0 25.29 1.92
-12 -15 0 27.06 2.17
12 -15 0 31.99 2.22
12 15 0 25.57 2.11
15 0 -12 23.66 1.72
-1 -12 -15 4.66 1.45
15 1 -12 1.35 1.02
1 -12 15 3.97 1.43
15 1 -12 2.42 0.88
12 15 -1 2.34 1.55
-12 -15 -1 0.64 1.28
15 -1 -12 1.63 0.82
-12 -15 1 2.33 1.3
12 -15 -1 3.55 0.91
-1 -12 15 1.98 1.34
1 -12 -15 2.88 1.3
12 -15 -1 4.31 1.18
15 -1 -12 1.03 1.04
12 15 1 2.48 1.27
12 15 -2 12.23 1.56
15 2 -12 13.7 1.35
-12 -15 -2 12.43 1.63
15 2 -12 11.43 1.47
-2 -12 -15 12.1 1.78
2 -12 15 12.75 1.78
15 -2 -12 11.46 1.49
15 -2 -12 11.11 1.3
12 15 2 10.82 1.55
12 -15 -2 9.86 1.34
-12 -15 2 12.73 1.63
-2 -12 15 10.09 1.74
2 -12 -15 12.66 1.74
12 -15 -2 11.87 1.52
12 15 -3 14.54 1.72
-3 -12 -15 13.25 1.81
15 3 -12 12.91 1.36
15 3 -12 15.94 1.73
-12 -15 -3 14.68 1.79
3 -12 15 13.21 1.78
3 -12 -15 15.03 1.89
15 -3 -12 14.67 1.71
-12 -15 3 12.66 1.68
15 -3 -12 14.52 1.38
12 -15 -3 14.09 1.44
12 -15 -3 10.66 1.42
-3 -12 15 12.92 1.84
12 15 3 11.91 1.58
-4 -12 -15 0.65 1.13
15 4 -12 -1.27 0.7
15 4 -12 -1.17 0.86
4 -12 15 1.22 1.3
12 15 -4 1.34 1.21
4 -12 -15 0.07 1.25
12 -15 -4 -0.34 0.96
4 -12 -15 2.34 1
15 -4 -12 0.47 0.79
12 -15 -4 1.04 1.01
-12 -15 4 3.18 1.35
-4 -12 15 -0.97 1.3
15 -4 -12 -1.13 0.95
12 15 4 1.04 0.91
15 5 -12 0.59 0.8
12 15 -5 1.92 1.29
5 -12 15 -1.24 1.21
15 5 -12 -0.67 0.95
-5 -12 -15 1.1 1.22
5 12 -15 1.96 0.8
-5 -12 15 0.02 1.46
12 -15 -5 1 0.99
5 -12 -15 1.4 0.98
15 -5 -12 0.21 0.87
12 -15 -5 3.1 1.08
15 -5 -12 0.42 1.07
-12 -15 5 1.52 1.32
15 6 -12 3.97 1.16
15 6 -12 4.22 1.08
12 15 -6 6.75 1.47
6 -12 15 6.76 1.65
-6 -12 -15 4.93 1.42
15 -6 -12 3.33 1.19
12 -15 -6 4.68 1.11
-12 -15 6 5.91 1.58
12 -15 -6 4.98 1.06
6 -12 -15 5.86 0.92
6 -12 -15 1.38 1.76
15 -6 -12 6.31 1.07
15 7 -12 2.58 1.11
15 7 -12 0.21 0.91
7 12 -15 -0.89 1.08
-7 -12 -15 -1.24 2.28
7 12 -15 0.45 0.99
12 15 -7 1.72 1.31
-7 -12 15 -0.18 1.34
7 -12 -15 -1.04 0.75
12 -15 -7 0.13 0.94
12 -15 -7 -0.6 1.12
15 -7 -12 -0.04 1.01
-12 -15 7 0.01 1.47
7 -12 -15 -2.11 1.25
15 -7 -12 0.75 0.92
8 12 -15 14.66 1.85
15 8 -12 16.25 2.13
12 15 -8 18.63 1.55
-8 -12 -15 10.56 2.79
8 12 -15 16.26 1.77
15 8 -12 19.58 1.85
12 15 -8 19.61 2.09
8 -12 15 18.61 2.21
-8 -12 15 17.77 2.21
15 -8 -12 17.99 1.87
8 -12 -15 13.68 1.48
-12 -15 8 14.79 1.98
8 -12 -15 16.79 1.96
12 -15 -8 15.31 1.63
15 -8 -12 15.36 1.72
9 12 -15 1.62 1.1
-9 -12 -15 1.2 1.55
12 15 -9 1.2 0.97
9 -12 15 6.79 1.47
15 9 -12 4.64 1.17
9 12 -15 2.26 1.31
15 9 -12 3.01 1.42
12 15 -9 3.09 1.5
12 -15 -9 2.94 1.07
-12 -15 9 2.34 1.69
9 -12 -15 4.13 1.51
15 -9 -12 3.93 1.38
15 -9 -12 2.99 1.24
9 -12 -15 2.41 1.06
-9 -12 15 5.11 1.77
15 10 -12 8.53 1.65
10 12 -15 8.99 1.49
12 15 -10 12.98 1.79
-10 -12 -15 13.4 2.05
15 10 -12 12.93 1.68
10 12 -15 11.87 1.66
12 15 -10 10.18 1.28
10 -12 -15 10.59 1.47
-12 -15 10 13.68 2.11
-10 -12 15 10.35 1.89
12 -15 -10 9.29 1.31
15 -10 -12 9.38 1.51
10 -12 -15 10.32 1.74
15 -10 -12 12.49 1.71
11 12 -15 5.26 1.61
12 15 -11 4.31 1.19
15 11 -12 7.53 1.73
11 12 -15 6.55 1.33
12 15 -11 5.81 1.65
15 11 -12 7.34 1.39
-12 -15 11 4.06 1.98
12 -15 -11 5.71 1.25
15 -11 -12 6.18 1.56
-11 -12 15 4.06 1.82
11 -12 -15 4.08 1.65
11 -12 -15 4.36 1.17
15 -11 -12 5.92 1.36
15 12 -12 1.88 1.25
12 15 -12 2.02 1.55
12 15 -12 0.18 1.14
12 12 -15 -0.03 1.15
15 12 -12 -0.55 1.56
12 12 -15 0.52 1.62
12 -15 -12 -1.51 1.04
12 -12 -15 -1.18 0.97
15 -12 -12 -0.7 1.44
-12 -15 12 3.43 2.14
15 -12 -12 1.39 1.29
-12 -12 15 1.37 2.17
13 12 -15 3.41 1.67
13 12 -15 9.01 1.62
15 13 -12 7.59 1.42
12 15 -13 6.27 1.38
12 15 -13 3.59 1.69
15 13 -12 4.41 1.79
15 -13 -12 6.88 1.47
-12 -15 13 0.93 2.42
12 -15 -13 6.68 1.36
13 -12 -15 4.55 1.31
15 -13 -12 5.73 1.76
15 14 -12 6.71 2.05
12 15 -14 6.43 1.83
14 12 -15 4.42 1.47
12 15 -14 5.18 1.43
14 12 -15 8.21 1.98
15 14 -12 5.74 1.46
12 -15 -14 5.22 1.41
15 -14 -12 6.56 1.93
14 -12 -15 9.11 1.89
15 -14 -12 3.08 1.37
14 -12 -15 6.69 1.39
0 -13 -15 5.01 2.18
15 0 -13 5.32 1.08
13 -15 0 3.97 1.25
13 15 0 6.17 1.4
15 0 -13 4.46 1.23
13 15 -1 2.75 1.26
15 1 -13 -1.03 1
-1 -13 -15 1.98 1.95
15 1 -13 -0.05 0.78
15 -1 -13 1.42 0.84
13 15 1 0.83 1.23
13 -15 -1 3.04 1.15
15 -1 -13 0.67 1.07
15 2 -13 6.57 1.12
13 15 -2 3.42 1.32
15 2 -13 4.31 1.2
15 -2 -13 4.55 1.28
13 -15 -2 7.35 1.26
15 -2 -13 4.71 1.04
13 15 2 4.42 1.06
15 3 -13 1.48 0.92
3 -13 15 2.7 2.28
13 15 -3 2.9 1.35
15 3 -13 4.02 1.21
3 -13 -15 1.51 1.41
13 15 3 0.96 0.97
-3 -13 15 2.99 1.96
13 -15 -3 0.61 0.97
15 -3 -13 2.5 0.93
15 -3 -13 0.23 1.1
15 4 -13 3.9 1.07
15 4 -13 3.51 1.23
4 -13 15 3.58 1.41
13 15 -4 5.62 1.36
4 -13 -15 3.53 1.48
13 15 4 4.49 1.07
13 -15 -4 3.33 1.1
-4 -13 15 3.9 1.59
15 -4 -13 4.23 0.96
15 -4 -13 3.54 1.21
-5 -13 -15 1.35 1.71
13 15 -5 1.05 1.32
5 -13 15 3.33 1.46
15 5 -13 1.39 0.89
5 13 -15 2.6 1.07
15 5 -13 2.34 1.36
13 -15 -5 2 1.07
15 -5 -13 1.5 1.09
5 -13 -15 -0.65 1.43
-5 -13 15 -0.4 1.52
15 -5 -13 0.6 0.89
13 15 -6 0.11 1.28
15 6 -13 -0.45 0.82
6 -13 15 0.54 1.3
6 13 -15 0.67 1.12
15 6 -13 -2.06 0.89
-6 -13 -15 2.43 1.35
15 -6 -13 1.98 0.88
15 -6 -13 0.14 1.09
-6 -13 15 -2.86 1.33
6 -13 -15 0.49 0.8
13 -15 -6 1.76 1.03
6 -13 -15 1.58 1.53
-7 -13 -15 5.94 1.71
7 13 -15 3.51 1.17
13 15 -7 3.95 1.42
15 7 -13 2.1 1.48
7 13 -15 3.34 1.22
7 -13 15 2.5 1.4
15 7 -13 3.83 1.21
7 -13 -15 4.12 0.94
15 -7 -13 4.07 1.1
13 -15 -7 4.8 1.19
7 -13 -15 3.25 1.55
-7 -13 15 4.79 1.72
15 -7 -13 1.42 1.18
15 8 -13 -1.88 1.26
8 -13 15 -0.15 1.39
8 13 -15 0.46 1.05
15 8 -13 1.98 1.22
-8 -13 -15 2.75 1.68
13 15 -8 2.51 1.56
8 13 -15 0.64 1.19
15 -8 -13 0.81 0.99
8 -13 -15 0.91 0.9
-8 -13 15 0.11 1.53
13 -15 -8 0.06 1.03
15 -8 -13 -0.07 1.09
8 -13 -15 0.46 1.56
-9 -13 -15 5.96 1.87
15 9 -13 2.91 1.52
9 -13 15 5.62 1.56
9 13 -15 4.43 1.36
9 13 -15 2.83 1.18
13 15 -9 4.53 1.59
13 15 -9 3 1.23
15 9 -13 4.4 1.29
9 -13 -15 2.36 1.01
15 -9 -13 1.56 1.2
9 -13 -15 4.62 1.67
-9 -13 15 5.08 1.85
13 -15 -9 0.95 1.04
15 -9 -13 3.39 1.51
15 10 -13 -1.54 1.49
13 15 -10 -0.48 1.08
10 13 -15 0.4 1.11
10 13 -15 -0.85 1.37
-10 -13 -15 -0.56 1.87
13 15 -10 2.2 1.52
15 10 -13 1.48 1.26
10 -13 -15 1.4 0.98
15 -10 -13 -0.22 1.13
13 -15 -10 1.94 1.07
-10 -13 15 -1.52 1.81
10 -13 -15 -3.57 1.55
15 -10 -13 0.61 1.53
11 13 -15 1.84 1.27
13 15 -11 3.66 1.62
11 13 -15 1.4 1.55
15 11 -13 2.69 1.31
13 15 -11 0.79 1.2
15 11 -13 2.41 1.73
15 -11 -13 4.71 1.59
13 -15 -11 0.34 1.07
15 -11 -13 -0.59 1.12
-11 -13 15 1.04 2.01
11 -13 -15 0.67 1.1
15 12 -13 5.16 1.92
13 15 -12 4.75 1.36
15 12 -13 7.26 1.48
13 15 -12 9.4 1.9
12 13 -15 5.14 1.8
12 13 -15 3.79 1.4
-12 -13 15 7.03 2.36
15 -12 -13 7.55 1.78
13 -15 -12 7.4 1.42
12 -13 -15 5.84 1.32
15 -12 -13 5.16 1.39
13 15 -13 0.28 1.29
13 13 -15 2.45 1.79
13 13 -15 0.78 1.31
13 15 -13 3.42 1.79
15 13 -13 0.24 1.78
15 13 -13 1.43 1.32
13 -15 -13 0.15 1.22
15 -13 -13 1.12 1.37
15 -13 -13 2.78 1.77
13 -13 -15 3.28 1.31
15 14 -13 5.19 1.94
14 13 -15 2.22 1.44
13 15 -14 1.36 1.44
14 13 -15 2.37 1.82
15 14 -13 2.88 1.46
13 15 -14 2.72 1.77
15 -14 -13 -0.94 1.26
13 -15 -14 -1.01 1.25
14 -13 -15 3.55 1.88
14 -13 -15 3.17 1.61
15 -14 -13 0.43 1.82
0 -14 -15 2.34 1.55
14 15 0 0.98 1.14
15 0 -14 1.64 0.85
0 -14 15 3 1.63
14 -15 0 0.89 1.12
15 0 -14 3.47 1.29
15 1 -14 -0.1 0.86
15 1 -14 -0.25 1.03
-1 -14 -15 -0.47 1.48
1 -14 15 -2.08 1.51
14 15 -1 1.01 1.33
14 -15 -1 -0.12 1.02
15 -1 -14 2.26 0.96
1 -14 -15 -2.62 1.27
15 -1 -14 0.9 1.11
14 15 1 1.15 1.01
-1 -14 15 1.22 1.52
15 2 -14 2.85 0.99
14 15 -2 2.71 1.47
-2 -14 -15 0.67 1.33
2 -14 15 1.92 1.42
15 2 -14 0.74 1.15
15 -2 -14 2.53 1.17
15 -2 -14 1.61 0.91
-2 -14 15 1.54 1.39
14 -15 -2 2.15 1.14
14 15 2 1.15 0.98
2 -14 -15 1.21 1.55
3 -14 15 3.34 1.43
15 3 -14 0.71 1.15
-3 -14 -15 -1.26 1.36
15 3 -14 1.6 0.88
14 15 -3 0.06 1.33
3 -14 -15 1.16 1.57
15 -3 -14 1.17 0.89
15 -3 -14 0.81 1.15
-3 -14 15 3.57 1.65
14 -15 -3 -0.66 1.06
14 15 3 1.86 1.03
-4 -14 -15 4.48 1.64
14 15 -4 5.73 1.56
15 4 -14 3.75 1.33
15 4 -14 6.07 1.15
4 -14 15 2.33 1.53
-4 -14 15 6.4 1.81
15 -4 -14 6.13 1.11
14 15 4 8.01 1.31
4 -14 -15 3.8 1.68
15 -4 -14 6.2 1.35
14 -15 -4 7.21 1.31
-5 -14 -15 0.67 1.5
15 5 -14 0.61 0.97
14 15 -5 0.12 1.46
5 -14 15 -0.14 1.53
15 5 -14 2.8 1.25
-5 -14 15 -0.28 1.58
5 -14 -15 -0.38 1.4
14 -15 -5 0.72 1.12
15 -5 -14 1.06 0.95
15 -5 -14 -1.1 1.08
-6 -14 -15 2.61 1.6
15 6 -14 1.64 1.25
14 15 -6 2.35 1.52
15 6 -14 0.89 1.07
6 14 -15 -0.1 1.16
6 -14 15 1.32 1.43
6 -14 -15 -0.28 1.61
-6 -14 15 0.29 1.63
14 -15 -6 2.22 1.2
15 -6 -14 0.01 1.12
15 -6 -14 0.48 0.98
15 7 -14 2.14 1.45
15 7 -14 0.99 1.14
-7 -14 -15 0.98 1.66
7 -14 15 0.09 1.5
7 14 -15 0.54 1.06
7 14 -15 3.22 1.32
14 15 -7 1.44 1.54
15 -7 -14 2.13 1.23
-7 -14 15 1.45 1.6
7 -14 -15 2.08 0.95
14 -15 -7 2.59 1.15
15 -7 -14 2.57 1.22
7 -14 -15 3.87 1.75
8 14 -15 -1.63 1.26
8 14 -15 -0.25 1.17
15 8 -14 1.06 1.27
8 -14 15 -1.49 1.49
15 8 -14 0.07 1.45
-8 -14 -15 -3.38 1.78
14 15 -8 -2.44 1.45
8 -14 -15 1.4 1
15 -8 -14 1.2 1.48
8 -14 -15 2.22 1.69
14 -15 -8 0.56 1.07
15 -8 -14 -1.43 1.03
-8 -14 15 -0.13 1.72
15 9 -14 3.64 1.73
14 15 -9 3.88 1.62
15 9 -14 3.1 1.36
-9 -14 -15 0.43 1.99
9 14 -15 3.24 1.31
9 14 -15 1.31 1.4
-9 -14 15 4.3 1.98
9 -14 -15 3.93 1.77
15 -9 -14 4.11 1.64
14 -15 -9 2.14 1.18
15 -9 -14 3.67 1.31
9 -14 -15 2.9 1.1
10 14 -15 -3.22 1.36
-10 -14 -15 -3 2.24
10 14 -15 0.1 1.23
15 10 -14 2.94 1.35
14 15 -10 1.2 1.58
15 10 -14 1.88 1.64
-10 -14 15 -1.43 1.99
14 -15 -10 0.41 1.11
10 -14 -15 -3.45 1.78
15 -10 -14 0.21 1.24
10 -14 -15 -0.21 1.09
15 -10 -14 1.55 1.53
15 11 -14 1.92 1.75
14 15 -11 4.72 1.8
15 11 -14 4.83 1.41
14 15 -11 -0.67 1.23
11 14 -15 1.17 1.35
11 14 -15 1.39 1.62
15 -11 -14 3.39 1.66
14 -15 -11 1.08 1.75
14 -15 -11 2.48 1.17
11 -14 -15 0.73 1.21
15 -11 -14 2.11 1.25
-11 -14 15 -0.11 2.21
12 14 -15 5.68 1.45
15 12 -14 6.26 1.98
14 15 -12 5.22 1.38
12 14 -15 7.38 1.86
15 12 -14 7.19 1.56
14 15 -12 7.46 1.9
15 -12 -14 8.86 1.57
-12 -14 15 12.05 3.69
14 -15 -12 5.58 1.44
14 -15 -12 5.96 1.96
12 -14 -15 6.7 1.38
15 -12 -14 8.08 1.88
15 13 -14 0.97 1.88
15 13 -14 1.24 1.46
14 15 -13 1.68 1.82
13 14 -15 3.61 1.46
13 14 -15 0.18 1.82
14 15 -13 -2.63 1.35
13 -14 -15 -2.05 1.26
15 -13 -14 1.88 1.34
15 -13 -14 1.83 1.77
14 -15 -13 -1.49 1.3
14 -15 -13 1.66 1.89
15 14 -14 2.66 1.9
14 15 -14 5.85 1.9
15 14 -14 0.93 2.05
14 15 -14 -0.15 2.07
14 14 -15 0.32 1.55
14 14 -15 -1.33 1.8
14 -14 -15 1.14 1.97
14 -15 -14 1.71 2.03
15 -14 -14 -0.16 1.38
15 -14 -14 0.25 1.96
14 -14 -15 -0.73 1.71
14 -15 -14 -0.26 1.38
0 -15 -15 18.75 2.28
0 -15 15 20.38 2.56
15 -15 0 23.48 2.1
15 0 -15 20.85 2.11
15 0 -15 14.72 1.61
15 15 0 21.36 1.89
-1 -15 -15 0.39 1.47
15 15 -1 2.92 1.06
15 1 -15 1.5 1.02
1 -15 15 4.1 1.63
15 1 -15 -0.62 1.19
15 -1 -15 3.55 1.22
15 -1 -15 2.18 1.09
15 -15 -1 2.08 1.29
1 -15 -15 0.96 1.63
-1 -15 15 3.58 1.61
15 15 1 1.56 1.06
-2 -15 -15 10.66 2.05
15 15 -2 12.58 1.84
15 2 -15 11.78 1.51
2 -15 15 10.27 1.99
15 2 -15 11.89 1.67
15 -2 -15 11.58 1.62
15 -2 -15 11.51 1.5
15 -15 -2 14.81 1.81
2 -15 -15 12.72 1.91
-2 -15 15 11.65 2.03
15 15 2 12.68 1.71
-3 -15 -15 15.01 2.02
15 15 -3 16.15 2.25
15 3 -15 14.49 1.62
3 -15 15 14.51 2.06
15 3 -15 13.12 1.75
15 -3 -15 16.38 1.99
15 -3 -15 13.47 1.64
15 -15 -3 10 1.62
3 -15 -15 18.26 2.48
-3 -15 15 16.87 2.3
15 15 3 16.81 1.67
-4 -15 -15 -0.79 1.36
15 15 -4 0.49 1.55
15 4 -15 0.69 0.89
4 -15 15 2.25 1.66
15 4 -15 -0.23 1.12
15 -4 -15 0.88 1.22
15 -4 -15 0.64 1.18
15 -15 -4 1.29 1.19
4 -15 -15 0.64 1.59
-4 -15 15 -1.45 1.46
15 15 4 1.94 1.11
-5 -15 -15 -0.14 1.53
15 15 -5 -1.06 1.5
15 5 -15 0.62 1.02
5 -15 15 0.07 1.61
15 5 -15 0.53 1.31
15 -5 -15 -0.1 1.17
15 -5 -15 -0.75 1.35
15 -15 -5 1.44 1.14
5 -15 -15 2.76 1.75
-5 -15 15 -0.22 1.68
-6 -15 -15 1.25 1.84
15 15 -6 1.07 1.61
15 6 -15 0.24 1.44
6 -15 15 -0.84 1.58
15 6 -15 1.61 1.3
15 -6 -15 0.37 1.17
15 -6 -15 2.19 1.49
15 -15 -6 1.39 1.22
6 -15 -15 -0.26 1.67
-6 -15 15 -0.92 2.23
-7 -15 -15 1.05 1.89
15 7 -15 0.12 1.26
15 7 -15 -2.26 1.48
7 -15 15 0.35 1.67
7 15 -15 -1.4 1.09
7 15 -15 3.35 1.28
15 15 -7 -0.55 1.54
15 -15 -7 0.76 1.18
15 -7 -15 0.48 1.45
-7 -15 15 -3.54 1.88
7 -15 -15 0.97 1.74
15 -7 -15 0.63 1.17
-8 -15 -15 8.82 2.15
15 8 -15 15.2 1.83
15 8 -15 11.22 1.97
8 -15 15 10.19 1.95
8 15 -15 17.11 1.95
15 15 -8 8.87 2
15 -15 -8 10.73 1.59
15 -8 -15 13.18 2
8 -15 -15 9.66 1.97
15 -8 -15 10.06 1.56
-9 -15 -15 -0.96 2.18
15 9 -15 3.94 1.48
15 9 -15 3.95 1.8
15 15 -9 5.61 1.92
9 15 -15 2.39 1.33
9 15 -15 7.81 1.56
15 -15 -9 2.51 1.27
15 -9 -15 4.94 1.39
15 -9 -15 5.61 1.84
-9 -15 15 2.65 1.87
9 -15 -15 4.01 1.16
9 -15 -15 3.46 1.89
15 10 -15 8.94 1.6
15 10 -15 5.43 1.89
15 15 -10 8.76 1.93
10 15 -15 6.53 1.5
10 15 -15 11.32 1.78
15 -15 -10 8.97 1.48
15 -10 -15 8.51 1.59
15 -10 -15 9.11 1.98
-10 -15 15 7.78 2.42
10 -15 -15 9.45 1.38
10 -15 -15 8.25 2.16
15 15 -11 7.67 2.08
11 15 -15 4.14 1.43
11 15 -15 8.74 1.75
15 11 -15 6.57 1.93
15 11 -15 6.76 1.6
15 -11 -15 5.32 1.85
15 -11 -15 4.12 1.39
15 -15 -11 4.06 1.42
11 -15 -15 4.34 1.37
15 15 -12 -0.84 1.76
12 15 -15 1.36 1.4
12 15 -15 3.63 1.73
15 12 -15 -2.04 1.87
15 12 -15 1.95 1.5
15 -12 -15 -0.91 1.73
15 -12 -15 0.01 1.3
15 -15 -12 -0.23 1.44
12 -15 -15 -1.23 1.28
15 13 -15 3.77 1.9
13 15 -15 4.04 1.85
13 15 -15 6.01 1.95
15 15 -13 5.72 1.92
15 13 -15 2.77 1.67
15 -13 -15 4.42 1.55
15 -13 -15 4.94 2.01
15 -15 -13 5.77 2.29
13 -15 -15 0.99 2.38
15 -15 -13 3.34 1.48
15 15 -14 8.24 1.88
14 15 -15 6.21 1.71
14 15 -15 9.89 2.15
15 15 -14 7.64 2.1
15 14 -15 5.05 2.12
15 14 -15 7.29 1.76
15 -14 -15 5.26 1.55
15 -15 -14 3.53 3.71
14 -15 -15 5.88 1.56
15 -15 -14 6.49 1.55
15 15 -15 7.36 2.13
15 15 -15 6.4 1.85
15 -15 -15 4.31 2.3
15 -15 -15 4.5 1.57
0 -16 0 236.64 7.65
0 0 16 233.6 7.66
16 0 0 240.09 7.31
16 0 0 249.04 7.28
0 -16 -1 8.41 1.28
0 -16 1 8.12 1.2
1 0 -16 7.26 0.94
1 0 16 7.51 1.24
16 -1 0 5.06 0.97
16 -1 0 7.24 0.94
16 1 0 6.29 0.95
16 1 0 7.48 0.91
-1 0 16 5.77 1.24
2 0 -16 0.61 0.7
0 -16 2 -0.31 0.93
16 -2 0 0.1 0.83
16 -2 0 0.58 0.59
16 2 0 0.06 0.68
16 2 0 0.61 0.6
2 0 16 -0.73 0.88
-2 0 16 -0.38 0.97
0 -16 -2 0.68 0.88
16 -3 0 23.24 1.64
16 -3 0 23.85 1.3
16 3 0 25.2 1.45
3 0 -16 26.22 1.58
0 -16 -3 21.56 1.74
0 -16 3 24.27 1.9
-3 0 16 23.65 1.78
3 0 16 24.05 1.76
16 3 0 24.35 1.4
-4 0 16 -1.03 0.93
16 -4 0 0.85 0.85
0 -16 4 -0.95 0.94
16 4 0 1.04 0.74
16 4 0 0.54 0.63
16 -4 0 -0.79 0.6
0 -16 -4 -0.45 0.99
4 0 -16 1.33 0.78
4 0 16 -0.21 0.85
16 5 0 158.4 4.97
5 0 16 150.44 5
16 -5 0 146.51 5
16 -5 0 130.19 4.53
16 5 0 154.57 4.68
0 -16 5 150.05 5.29
5 0 -16 148.75 4.94
-5 0 16 150.69 5.29
0 -16 -5 146.4 5.23
16 6 0 88.63 3.27
-6 0 16 79.75 3.52
0 -16 -6 86.14 3.58
0 -16 6 86.6 3.66
6 0 -16 94.16 3.42
6 0 -16 87.56 3.5
16 -6 0 88.45 3.44
16 6 0 93.42 3.08
7 0 -16 0.63 0.85
0 -16 7 -1.11 1.02
0 -16 -7 1.2 0.98
16 -7 0 0.64 0.97
-7 0 16 -1.34 0.98
7 0 -16 0.88 0.92
16 7 0 -0.2 0.67
0 -16 -8 9.17 1.43
16 -8 0 10.26 1.91
8 0 -16 10.16 1.35
0 -16 8 10.37 1.56
16 8 0 11.44 1.25
-8 0 16 10.58 1.45
9 0 -16 0.38 0.94
16 -9 0 1.87 1.02
16 9 0 0.66 0.73
0 -16 -9 1.12 1.11
0 -16 9 1.86 1.11
-9 0 16 -0.44 1.13
9 0 -16 0.62 0.91
16 10 0 13.1 1.5
10 0 -16 11.19 1.47
-10 0 16 13.14 1.74
0 -16 10 15.3 1.83
16 -10 0 15.09 1.67
0 -16 -10 13.09 1.82
10 0 -16 18.12 1.65
10 0 -16 15.43 1.66
11 0 -16 92.55 3.75
16 11 0 98.45 3.77
11 0 -16 92.87 3.61
16 -11 0 94.49 3.8
-11 0 16 91.53 3.95
0 -16 11 92.1 3.98
11 0 -16 98.34 3.46
0 -16 -11 90.48 3.97
-12 0 16 -1.51 1.26
12 0 -16 0.73 0.8
16 12 0 -1.45 0.86
12 0 -16 -0.81 0.97
16 -12 0 -1.24 1.01
-13 0 16 8.77 1.75
13 0 -16 6.49 1.34
0 -16 -13 4.78 1.51
16 13 0 6.13 1.3
16 -13 0 8.21 1.52
13 0 -16 5.51 1.15
0 -16 13 10.93 1.88
16 -14 0 10.37 1.58
-14 0 16 9.28 1.95
0 -16 14 10.29 1.87
14 0 -16 6.97 1.44
0 -16 -14 5.79 1.63
16 14 0 9.5 1.41
14 0 -16 7.08 1.19
0 -16 15 -2.87 1.74
0 -16 -15 -0.71 1.67
16 15 0 -0.83 1.03
16 -15 0 -1.28 1.19
15 0 -16 0.81 1.24
15 0 -16 -0.1 0.92
16 0 1 7.88 0.96
16 0 1 6.55 0.95
-1 -16 0 5.49 1.1
16 0 -1 6.31 0.85
0 -1 16 6.7 1.15
1 -16 0 5.39 1.16
16 0 -1 7.01 0.96
0 1 16 6.8 1.21
0 -1 -16 6.49 0.86
16 1 -1 8.18 0.91
1 -16 1 8.48 1.23
16 -1 1 8.09 1.04
-1 -16 -1 7.28 1.17
-1 -1 -16 7.78 1.02
16 -1 1 8.16 0.96
1 -1 16 6.95 1.17
16 1 -1 6.8 0.98
-1 1 16 7.45 1.21
16 -1 -1 6.75 0.92
-1 -1 16 8.58 1.25
16 -1 -1 8.47 1.07
-1 -16 1 8.87 1.26
1 -1 -16 7.35 0.95
16 1 1 7.68 0.98
16 1 1 8.03 0.96
1 -16 -1 8.26 1.24
1 1 16 7.08 1.19
-2 1 16 2.65 1.01
16 2 -1 2.34 0.8
2 -1 16 1.3 0.9
16 -2 1 2.11 0.65
16 2 -1 2.23 0.64
1 -16 2 1.06 0.9
2 1 -16 2.16 0.71
-1 -16 -2 1.41 1
16 -2 1 1.85 0.87
-1 -16 2 1.73 0.95
1 -16 -2 0.37 0.99
16 -2 -1 2.33 0.66
-2 -1 16 2.44 1
2 1 16 3.09 1.05
16 -2 -1 2.63 0.89
16 2 1 1.6 0.8
2 -1 -16 3.11 0.77
16 2 1 1.24 0.59
1 -16 3 5.29 1.09
3 1 -16 5.99 1
16 3 -1 7.51 0.97
-3 1 16 5.46 1.25
16 -3 1 6.51 0.83
16 -3 1 6.56 1.02
3 -1 16 8.01 1.22
16 3 -1 6.91 0.95
-1 -16 -3 5.84 1.14
3 1 16 6.17 1.04
-3 -1 16 4.78 1.07
3 -1 -16 7.25 1.01
16 3 1 7.1 0.97
1 -16 -3 7.99 1.35
16 -3 -1 7.12 0.84
-1 -16 3 6.87 1.23
16 3 1 6.67 0.9
16 -3 -1 5.09 1
4 -1 16 9.88 1.28
-1 -16 -4 7.07 1.32
-4 1 16 9.32 1.32
16 4 -1 8.78 0.98
16 4 -1 9.57 1.17
4 1 -16 9.07 1.16
1 -16 4 11.11 1.54
16 -4 1 9.05 1.24
-1 -16 4 8.88 1.36
16 -4 -1 10.23 0.98
16 4 1 9.55 1
4 1 16 8.09 1.18
4 -1 -16 9.3 1.27
16 -4 -1 10.31 1.33
16 4 1 9.1 1.21
-4 -1 16 9.6 1.37
1 -16 -4 9.57 1.32
5 1 -16 13.35 1.44
-1 -16 -5 13.64 1.58
16 -5 1 16.71 1.43
16 5 -1 12.36 1.12
-5 1 16 13.06 1.56
1 -16 5 13.8 1.72
16 5 -1 14.02 1.32
5 -1 16 15.36 1.53
1 -16 -5 16.79 1.62
5 -1 -16 14.43 1.4
16 5 1 13.97 1.13
-1 -16 5 13.35 1.73
-5 -1 16 15 1.59
16 5 1 16.23 1.34
5 -1 -16 13.28 1.44
16 -5 -1 15.39 1.55
16 -5 -1 13.86 1.1
16 6 -1 0.95 0.85
16 -6 1 1.54 0.92
6 -1 16 0.91 0.86
1 -16 6 1.17 1.03
-6 1 16 0.33 0.97
6 1 -16 1 0.88
-1 -16 -6 -0.26 0.93
16 6 -1 1.56 0.71
-6 -1 16 0.17 1.06
6 -1 -16 0.08 0.79
-1 -16 6 1.1 1.06
6 -1 -16 1.12 1
1 -16 -6 0.56 0.95
16 -6 -1 0.61 0.65
16 -6 -1 -0.45 0.87
16 6 1 0.14 0.64
7 1 -16 14.72 1.63
-1 -16 -7 12.83 1.61
16 7 -1 12.96 1.18
-7 1 16 13.47 1.6
16 7 -1 15.1 1.45
7 1 -16 13.45 1.57
1 -16 7 15.84 1.79
16 -7 1 16.01 1.6
16 -7 -1 16.64 1.73
-7 -1 16 14.52 1.65
7 -1 -16 14.14 1.58
-1 -16 7 12.5 1.73
1 -16 -7 12.26 1.64
16 7 1 13.24 1.25
7 -1 -16 13.59 1.57
8 1 -16 1.88 1
8 1 -16 0.39 1.03
16 -8 1 2.27 1.78
-1 -16 -8 2.29 1.1
-8 1 16 0.38 1.15
16 8 -1 0.33 0.71
1 -16 8 0.57 1.21
-8 -1 16 2.31 1.06
-1 -16 8 1.41 1.18
8 -1 -16 0.73 1.01
16 8 1 2.45 0.83
16 -8 -1 0.47 1.02
1 -16 -8 1.24 1.19
9 1 -16 3.49 1.11
9 1 -16 2.49 0.96
16 9 -1 2.7 0.94
9 1 -16 2.81 0.95
-1 -16 -9 3.49 1.23
1 -16 9 1.41 1.23
-9 1 16 2.05 1.15
16 -9 1 2.25 0.99
16 -9 -1 3.75 1.05
1 -16 -9 2.55 1.21
9 -1 -16 3.65 1.06
-1 -16 9 2.06 1.27
-9 -1 16 4.41 1.21
9 -1 -16 1.77 0.92
16 9 1 4.73 0.95
10 1 -16 4.93 1.2
1 -16 10 3.93 1.27
16 10 -1 3.88 1.15
16 -10 1 2.83 1.19
10 1 -16 5.47 1.29
-1 -16 -10 3.15 1.28
-10 1 16 3.73 1.38
10 1 -16 4.85 1.12
1 -16 -10 5.02 1.34
10 -1 -16 4.4 1.14
-10 -1 16 3.94 1.36
10 -1 -16 3.07 1.03
16 -10 -1 5.94 1.27
-1 -16 10 2.78 1.31
16 10 1 5.45 1.14
-1 -16 -11 6.68 1.59
16 -11 1 5.45 1.25
-11 1 16 8.58 1.44
11 1 -16 8.4 1.4
16 11 -1 7.41 1.23
11 1 -16 11.31 1.54
11 1 -16 7.21 1.29
1 -16 11 8.99 1.6
-11 -1 16 6.34 1.56
1 -16 -11 8.43 1.66
11 -1 -16 8.82 1.2
-1 -16 11 7.46 1.48
16 -11 -1 8.21 1.44
16 11 1 6.03 1.16
11 -1 -16 8.23 1.31
11 -1 -16 5.63 1.07
12 1 -16 4.33 1
12 1 -16 4.95 1.26
16 12 -1 4.27 1.1
16 -12 1 5.02 1.35
-12 1 16 3.54 1.55
1 -16 12 7.49 2.42
12 -1 -16 3.58 1.19
1 -16 -12 3.14 1.74
-12 -1 16 4.14 1.47
16 12 1 5.27 1.15
-1 -16 12 4.7 1.93
16 -12 -1 5.79 1.37
12 -1 -16 5.89 1.09
16 13 -1 1.21 1
1 -16 13 0.46 1.55
13 1 -16 0.94 0.85
13 1 -16 2.02 1.21
-1 -16 -13 1.69 1.4
-13 1 16 -0.53 1.5
16 -13 1 -1.26 1.03
-13 -1 16 -1.21 1.55
13 -1 -16 0.18 0.81
13 -1 -16 0.32 1.15
16 13 1 1.41 1.07
-1 -16 13 0.68 1.55
1 -16 -13 1.21 1.41
16 -13 -1 -1.58 1.03
14 1 -16 1.31 1.03
16 -14 1 1.2 1.25
-14 1 16 0.79 1.64
-1 -16 -14 2.29 1.49
1 -16 14 -0.27 1.6
16 14 -1 -1.17 1.06
14 1 -16 1.8 1.18
1 -16 -14 2.09 1.64
-14 -1 16 -1.29 1.68
16 14 1 1.17 1.07
14 -1 -16 1.63 1.15
16 -14 -1 0.29 1.12
14 -1 -16 1.05 0.9
-1 -16 14 -0.56 1.5
16 15 -1 4.38 1.27
1 -16 15 9.1 1.92
-1 -16 -15 4.18 1.82
15 1 -16 1.95 1.36
15 1 -16 3.37 1.08
16 15 1 4.17 1.34
1 -16 -15 3.25 1.75
-1 -16 15 3.76 1.89
16 -15 -1 1.07 1.32
15 -1 -16 1.61 1.26
15 -1 -16 1.12 1.42
16 0 2 0.4 0.69
0 -2 16 -0.92 0.82
16 0 -2 0.43 0.51
0 2 16 0.89 0.99
2 -16 0 -1.07 0.81
0 -2 -16 0.59 0.67
-2 -16 0 0.3 0.93
16 0 -2 -0.43 0.74
16 0 2 0.18 0.61
-1 -2 -16 2.88 0.74
2 -16 1 1.36 1.03
-1 2 16 1.43 0.94
1 -2 16 1.96 1.06
-2 -16 -1 1.49 0.91
16 -1 2 2.62 0.69
16 1 -2 1.04 0.57
16 -1 2 1.6 0.79
16 1 -2 1.31 0.83
-2 -16 1 3.14 1.06
-1 -2 16 2 1.03
16 -1 -2 1.52 0.82
2 -16 -1 1.55 1
16 1 2 1.07 0.78
1 -2 -16 1.25 0.69
1 2 16 3.24 0.97
16 1 2 0.28 0.65
16 -1 -2 1.59 0.59
-2 2 16 20.17 1.67
2 -16 2 20.36 1.79
-2 -2 -16 20.97 1.28
16 2 -2 18.76 1.4
16 2 -2 17.48 1.18
16 -2 2 20.05 1.2
16 -2 2 19.63 1.37
2 -2 16 20.51 1.74
-2 -16 -2 19.99 1.65
2 2 16 19.26 1.67
16 -2 -2 18.36 1.5
16 -2 -2 20.63 1.25
2 -16 -2 20.05 1.66
16 2 2 19.29 1.26
-2 -2 16 19.16 1.8
16 2 2 19.2 1.32
-2 -16 2 18.39 1.62
2 -2 -16 19.87 1.32
-3 2 16 15.73 1.58
16 3 -2 16.39 1.31
16 3 -2 16.18 1.18
3 -2 16 14.94 1.44
2 -16 3 15.42 1.53
16 -3 2 16.68 1.41
-3 -2 -16 18.13 1.14
-2 -16 -3 15.74 1.54
3 2 -16 16.96 1.3
-2 -16 3 14.69 1.53
16 3 2 15.55 1.15
-3 -2 16 16.18 1.6
16 3 2 15.63 1.29
16 -3 -2 16.76 1.14
3 -2 -16 14.99 1.23
16 -3 -2 19.97 1.54
3 -2 -16 14.75 1.5
2 -16 -3 14.59 1.54
2 -16 4 10.01 1.42
16 4 -2 12.59 1.27
4 2 -16 13.19 1.29
-2 -16 -4 12.12 1.45
16 -4 2 13.26 1.31
4 -2 16 12.44 1.37
-4 2 16 10.84 1.49
16 4 -2 11.55 1.08
2 16 -4 12.22 0.91
4 -2 -16 14.69 1.45
-4 -2 16 11.2 1.52
16 4 2 12.65 1.24
16 4 2 12.75 1.11
16 -4 -2 10.64 1.34
2 -16 -4 11.51 1.46
-2 -16 4 11.73 1.48
16 -4 -2 10.61 1.04
4 -2 -16 12.79 1.22
2 16 -5 2.67 0.61
16 -5 2 4.09 1.05
16 5 -2 3.15 0.76
-2 -16 -5 5.26 1.16
-5 2 16 2.45 1.15
2 -16 5 3.65 1.02
5 2 -16 3.71 0.97
16 5 -2 3.25 0.85
5 -2 16 2.37 1.01
16 -5 -2 2.99 1.02
-5 -2 16 3.35 1.11
16 5 2 2.36 0.71
-2 -16 5 2.75 1.05
2 -16 -5 3.27 1.07
5 -2 -16 3.15 1.1
5 -2 -16 2.58 0.85
16 -5 -2 3.35 0.7
-2 -16 -6 1.06 1
16 -6 2 0.08 0.93
16 6 -2 1.37 0.7
6 -2 16 1.92 0.88
16 6 -2 3.15 0.84
2 16 -6 0.95 0.6
2 -16 6 0.8 0.98
6 2 -16 2 0.92
-6 2 16 2.47 1.05
-6 -2 16 2.27 1.05
2 -16 -6 4.21 1.23
16 6 2 1.36 0.68
6 -2 -16 0.73 0.88
6 -2 -16 1.2 0.85
16 -6 -2 1.25 0.97
16 -6 -2 2.96 0.72
-2 -16 6 2.01 1.02
2 -16 7 14.52 1.6
-2 -16 -7 15.33 1.71
16 -7 2 14.55 1.71
16 7 -2 15.53 1.37
2 16 -7 13.76 1.03
16 7 -2 14.88 1.3
7 2 -16 15.72 1.71
-7 2 16 16.1 1.8
7 -2 16 13.4 1.42
7 -2 -16 17.59 1.52
2 -16 -7 14.26 1.82
16 -7 -2 16.76 1.71
16 -7 -2 13.09 1.14
-2 -16 7 13.54 1.61
7 -2 -16 14.24 1.62
-7 -2 16 18.41 1.74
16 7 2 15.51 1.3
8 2 -16 12.05 1.52
-8 2 16 10.03 1.4
16 -8 2 10.85 2.05
8 2 -16 14.35 1.59
16 8 -2 10.61 1.27
2 -16 8 12.01 1.58
-2 -16 -8 13.49 1.89
8 2 -16 9.82 1.28
-2 -16 8 11.18 1.6
16 -8 -2 11.37 1.46
16 8 2 11.41 1.23
-8 -2 16 11.21 1.45
8 -2 -16 13.74 1.66
2 -16 -8 10.88 1.51
16 9 -2 1.43 1.14
9 2 -16 3.05 1.06
2 -16 9 4.21 1.25
16 -9 2 2.21 1.05
-9 2 16 2.16 1.27
9 2 -16 2.43 1.01
-2 -16 -9 2.58 1.18
9 2 -16 3.16 1.02
9 -2 -16 2.9 1.01
16 -9 -2 3.09 1.15
16 9 2 4.54 1.01
2 -16 -9 4.12 1.33
-9 -2 16 3.82 1.22
9 -2 -16 4.57 1.12
-2 -16 9 2.91 1.17
10 2 -16 4.38 1.1
16 10 -2 3.03 1
-2 -16 -10 2.75 1.28
10 2 -16 2.86 1.14
10 2 -16 3.16 1.06
16 -10 2 2.62 1.1
2 -16 10 5.11 1.41
-10 2 16 5.72 1.48
16 -10 -2 2.98 1.12
10 -2 -16 4.09 1.09
10 -2 -16 4.49 1.09
-2 -16 10 5.18 1.33
2 -16 -10 3.05 1.39
16 10 2 4.25 1.13
-10 -2 16 5.18 1.44
-11 2 16 -1.5 1.2
16 -11 2 1.06 1.09
11 2 -16 -0.42 1
16 11 -2 -0.38 0.88
2 -16 11 0.92 1.4
11 2 -16 1.38 1.02
-2 -16 -11 1.12 1.4
11 2 -16 0.28 0.95
11 -2 -16 0.14 1
-2 -16 11 0.94 1.3
11 -2 -16 -0.27 0.71
16 -11 -2 0.95 1.13
16 11 2 0.55 0.89
-11 -2 16 0.06 1.35
11 -2 -16 2.84 1.09
2 -16 -11 0.97 1.31
2 -16 12 3.36 1.53
-12 2 16 1.43 1.49
12 2 -16 1.77 1.14
12 2 -16 2.1 1.21
16 -12 2 1.6 1.17
16 12 -2 2.56 1.06
2 -16 -12 3.04 1.58
16 12 2 1.25 0.97
-2 -16 12 2.43 1.57
12 -2 -16 3.62 1.13
12 -2 -16 2.6 0.89
16 -12 -2 2.8 1.22
-12 -2 16 3.57 1.48
13 2 -16 1.13 0.89
13 2 -16 2.67 1.2
2 -16 13 2.91 1.48
-2 -16 -13 4.35 1.61
16 -13 2 4.05 1.31
16 13 -2 2.98 1.15
2 -16 -13 2.98 1.61
-13 -2 16 3.6 1.67
13 -2 -16 2.7 1
13 -2 -16 2.39 1.17
16 -13 -2 2.7 1.25
-2 -16 13 3.64 1.49
16 13 2 1.65 1.06
14 2 -16 4.91 1.31
14 2 -16 5.55 1.23
-2 -16 -14 5.94 1.88
2 -16 14 3.85 1.73
16 14 -2 7.69 1.35
14 -2 -16 5.3 1.32
-14 -2 16 4.05 1.89
16 14 2 6.52 1.36
14 -2 -16 5.21 1.31
-2 -16 14 10.08 2.02
16 -14 -2 3.01 1.34
2 -16 -14 6.5 1.83
2 -16 15 0.4 1.78
15 2 -16 0.45 1.23
-2 -16 -15 1.9 1.68
16 15 -2 -0.44 1.07
15 2 -16 1.54 1.04
15 -2 -16 -1.07 1.39
15 -2 -16 1.2 1.21
16 15 2 1.91 1.17
-2 -16 15 2.72 1.76
16 -15 -2 1.77 1.27
2 -16 -15 4.15 1.8
0 -3 16 25.8 1.94
16 0 -3 23.93 1.38
0 3 16 22.35 1.83
-3 -16 0 23.69 1.89
16 0 -3 24.15 1.52
16 0 3 25.93 1.4
16 0 3 25.57 1.51
3 -16 0 22.4 1.72
0 -3 -16 25.43 1.43
3 -16 1 4.87 1.19
16 -1 3 6.85 0.98
1 -3 16 5.7 1.16
-1 -3 -16 6.74 0.88
16 1 -3 6.62 0.88
-3 -16 -1 6.36 1.16
16 -1 3 6.48 0.84
-1 3 16 7.01 1.21
16 1 -3 6.31 0.96
16 -1 -3 7.83 0.89
1 -3 -16 6.04 1.13
3 -16 -1 7.09 1.19
16 1 3 7.68 0.99
1 -3 -16 6.45 0.89
16 -1 -3 5.81 1
16 1 3 6.47 0.87
-1 -3 16 6.66 1.26
-3 -16 1 8.39 1.25
3 -16 2 17.41 1.53
-3 -16 -2 17.5 1.74
2 -3 16 13.37 1.63
16 2 -3 14.46 1.1
16 -2 3 15.17 1.11
3 16 -2 16.36 1.04
-2 -3 -16 17.12 1.16
-2 3 16 16.94 1.61
16 -2 3 15.52 1.39
16 2 -3 17.13 1.36
16 -2 -3 16.61 1.49
16 2 3 16.38 1.14
-2 -3 16 13.67 1.75
16 -2 -3 14.77 1.1
3 -16 -2 17.84 1.56
2 -3 -16 15.35 1.25
-3 -16 2 14.96 1.54
16 2 3 16.62 1.66
2 -3 -16 14.69 1.52
16 3 -3 16.34 1.2
3 16 -3 15.73 1.02
16 -3 3 14.9 1.41
-3 -16 -3 15.91 1.7
3 -16 3 16.82 1.56
3 -3 16 14.4 1.61
-3 -3 -16 17.14 1.19
-3 3 16 15.3 1.56
16 3 -3 16.23 1.3
-3 -16 3 16.26 1.57
16 3 3 16.46 1.18
16 -3 -3 13.87 1.05
3 -3 -16 17.28 1.31
16 -3 -3 14.07 1.47
3 -16 -3 14.55 1.53
3 -3 -16 15.5 1.62
-3 -3 16 15.5 1.63
16 3 3 15.48 1.32
16 4 -3 0.72 0.74
16 4 -3 0.87 0.62
16 -4 3 0.87 0.84
-3 -16 -4 1.41 0.98
4 3 -16 1.6 0.83
-4 -3 -16 1.15 0.66
-4 3 16 2.34 1.14
4 -3 16 2.26 1
3 -16 4 1.51 0.99
3 16 -4 2.11 0.56
-4 -3 16 2.63 1.06
3 -16 -4 0.41 0.92
16 -4 -3 1.18 0.83
-3 -16 4 2.06 0.98
4 -3 -16 0.46 0.76
4 -3 -16 0.92 0.96
16 4 3 1.29 0.82
16 -4 -3 1.99 0.65
16 4 3 1.46 0.66
5 3 -16 8.51 1.17
16 5 -3 8.47 1.03
16 5 -3 8.33 1.07
-5 -3 -16 6.94 0.98
-5 3 16 8.82 1.39
-3 -16 -5 7.9 1.3
16 -5 3 8.57 1.22
5 -3 16 7.7 1.19
3 -16 5 6.95 1.23
3 16 -5 7.83 0.84
16 -5 -3 9.02 1.04
16 5 3 10.19 0.98
5 -3 -16 8.89 1.14
-3 -16 5 7.82 1.29
3 -16 -5 7.15 1.35
-5 -3 16 7.79 1.34
16 -5 -3 8.79 1.22
5 -3 -16 6.86 1.28
16 -6 3 5.26 1.11
3 16 -6 3.99 0.66
-6 3 16 5.33 1.28
6 3 -16 4.03 0.82
3 -16 6 3.67 1.08
-6 -3 -16 8.23 1.03
16 6 -3 5.55 0.97
6 -3 16 5.26 1.04
6 3 -16 4.79 1.08
-3 -16 -6 3.58 1.15
16 6 -3 5.11 0.92
3 -16 -6 5.37 1.27
6 -3 -16 4.07 1.16
-6 -3 16 5.17 1.22
16 6 3 5.16 0.87
16 -6 -3 5.22 1.17
16 -6 -3 5.75 0.8
6 -3 -16 5.41 1.02
-3 -16 6 5.22 1.18
16 7 -3 0.26 0.68
-3 -16 -7 0.38 0.96
7 3 -16 -0.34 0.62
16 -7 3 0.71 0.97
7 -3 16 1.02 0.87
-7 3 16 -0.44 0.98
3 -16 7 -0.55 0.94
16 7 -3 -0.66 0.81
7 -3 -16 -0.55 0.96
7 -3 -16 -0.38 0.85
16 -7 -3 0.73 0.68
3 -16 -7 -0.25 1.1
-7 -3 16 0.94 1.11
16 7 3 -1.12 0.64
-3 -16 7 1.92 1.04
16 8 -3 14.21 1.23
8 3 -16 13.87 1.49
3 -16 8 14.85 1.82
16 8 -3 12.51 1.43
-3 -16 -8 15.26 1.75
3 16 -8 14.26 1.03
8 3 -16 10.65 1.25
16 -8 3 12.12 1.51
-8 3 16 13.36 1.64
16 -8 -3 12.81 1.73
16 8 3 12.47 1.26
-8 -3 16 17.62 1.76
16 -8 -3 12.37 1.18
8 -3 -16 15.46 1.63
-3 -16 8 11.9 1.57
3 -16 -8 14.04 1.71
9 3 -16 1.8 1.05
-9 3 16 1.96 1.15
3 -16 9 0.81 1.18
-3 -16 -9 1.83 1.15
3 16 -9 1.57 0.72
9 3 -16 2.35 1.13
9 3 -16 -0.49 0.92
16 -9 3 2.95 1.09
16 -9 -3 1.17 1.07
-3 -16 9 0.82 1.19
16 9 3 1.25 0.84
9 -3 -16 1.86 1
-9 -3 16 0.41 1.22
9 -3 -16 1.23 0.81
3 -16 -9 2.05 1.26
10 3 -16 3.85 1.16
3 -16 10 2.97 1.37
-10 3 16 5.84 1.43
10 3 -16 3.04 1.15
16 10 -3 4.38 1.05
10 3 -16 5.69 1.16
-3 -16 -10 3.49 1.25
16 -10 3 4.74 1.18
16 -10 -3 3.49 1.2
-3 -16 10 3.02 1.38
10 -3 -16 4.67 1.16
3 -16 -10 3.33 1.39
10 -3 -16 2.5 0.94
-10 -3 16 4.69 1.33
16 10 3 3.86 1.1
11 3 -16 3.74 1.23
16 -11 3 5.8 1.3
11 3 -16 6.12 1.14
3 -16 11 6.56 1.6
16 11 -3 6.24 1.27
11 3 -16 5.66 1.31
-3 -16 -11 7.64 1.45
-11 -3 16 4.9 1.51
3 -16 -11 8.03 1.49
11 -3 -16 4.86 1.14
11 -3 -16 5.85 1.2
-3 -16 11 7.51 1.6
16 -11 -3 4.3 1.29
16 11 3 5.83 1.27
-3 -16 -12 0.35 1.47
12 3 -16 0.27 1.07
3 -16 12 0.98 1.29
12 3 -16 0.82 1.18
16 12 -3 0.93 1.01
16 -12 -3 3.25 1.22
16 12 3 0.51 0.96
12 -3 -16 0.07 0.94
-12 -3 16 2.48 1.39
12 -3 -16 0.17 0.79
-3 -16 12 1.17 1.36
3 -16 -12 2.03 1.57
3 -16 13 3.16 1.55
-3 -16 -13 4.98 1.48
13 3 -16 3 1.25
16 13 -3 2.51 0.99
13 3 -16 2.6 1.41
13 -3 -16 1.9 1.16
16 -13 -3 1.71 1.27
16 13 3 1.94 1.07
-3 -16 13 3.16 1.67
3 -16 -13 -0.23 1.56
-13 -3 16 4.07 2.89
13 -3 -16 4.13 1.06
14 3 -16 8.48 1.33
3 -16 14 10.29 1.97
-3 -16 -14 8.74 1.78
14 3 -16 12.62 1.75
16 14 -3 8.56 1.37
16 14 3 10.55 1.55
3 -16 -14 11.43 2.02
-14 -3 16 6.73 1.93
14 -3 -16 8.26 1.49
14 -3 -16 8.68 1.53
16 -14 -3 6.46 1.45
-3 -16 14 8 1.96
3 -16 15 -0.35 1.69
-3 -16 -15 1.13 1.8
15 3 -16 1.1 1.18
15 3 -16 -0.55 1.04
16 15 -3 0.73 1.48
16 15 3 1.93 1.15
3 -16 -15 -0.54 1.75
15 -3 -16 -1.13 1.13
-3 -16 15 -1.96 1.7
15 -3 -16 0.67 1.48
16 -15 -3 -1.56 1.18
4 -16 0 -0.4 0.83
16 0 4 0.7 0.76
16 0 -4 0 0.52
-4 -16 0 -0.49 0.92
0 -4 -16 -0.83 0.78
16 0 4 -0.38 0.63
0 -4 16 -0.49 0.88
16 0 -4 0.76 0.74
0 -4 -16 0.85 0.63
-4 -16 -1 10.44 1.38
-1 -4 -16 8.54 1.24
16 1 -4 10.13 0.95
16 -1 4 9.73 1.02
4 -16 1 8.25 1.28
1 -4 16 9.37 1.38
4 16 -1 11.39 0.95
16 1 -4 10.7 1.16
-1 -4 -16 12.01 1.03
16 -1 4 9.85 1.24
16 -1 -4 10.01 1.34
-4 -16 1 9.64 1.39
-1 -4 16 10.68 1.44
1 -4 -16 9.65 1.35
16 -1 -4 8.04 0.97
16 1 4 11.65 1.22
16 1 4 9.89 1.05
1 -4 -16 9.64 1.08
4 -16 -1 9.55 1.34
-2 -4 -16 12.6 1.05
-4 -16 -2 12.13 1.58
-2 -4 -16 11.13 1.44
16 -2 4 12.51 1.32
16 2 -4 10.9 1.06
4 -16 2 11.47 1.51
4 16 -2 11.64 0.97
2 -4 16 11.95 1.6
16 2 -4 12.42 1.32
-4 -16 2 12.05 1.45
-2 -4 16 11.29 1.43
4 -16 -2 11.4 1.55
16 2 4 14.36 1.26
2 -4 -16 11.16 1.14
16 -2 -4 10.36 1.4
16 -2 -4 9.46 0.99
2 -4 -16 10.68 1.4
16 2 4 11.31 1.04
-4 -16 -3 2.88 1.02
4 -16 3 1.09 0.98
-3 -4 -16 1.04 0.66
16 3 -4 1.21 0.81
3 -4 16 1.99 0.99
4 16 -3 1.4 0.6
16 3 -4 0.1 0.57
16 -3 4 2.03 0.88
3 -4 -16 0.19 0.86
16 3 4 1.05 0.64
16 3 4 1.71 0.82
16 -3 -4 1.24 0.59
-4 -16 3 1.3 0.91
-3 -4 16 0.53 1.01
4 -16 -3 3.64 1.08
3 -4 -16 1.67 0.76
16 -3 -4 1.42 0.87
-4 -4 -16 20.83 1.29
16 -4 4 26.64 1.67
4 -16 4 17.94 1.76
4 -4 16 21.92 1.77
4 4 -16 25.29 1.67
-4 -16 -4 22.3 1.84
16 4 -4 20.81 1.49
16 4 -4 21.15 1.42
4 4 -16 20.52 1.22
4 16 -4 19.91 1.21
16 -4 -4 21.9 1.26
16 4 4 20.7 1.35
-4 -16 4 21.1 1.7
-4 -4 16 22.51 1.83
4 -4 -16 19.48 1.7
4 -4 -16 20.97 1.49
16 -4 -4 21.61 1.64
4 -16 -4 22.81 1.89
-5 -4 -16 3.1 1
5 4 -16 2.51 0.92
16 -5 4 5.06 1.04
16 5 -4 3.12 0.75
-4 -16 -5 1.86 0.95
4 16 -5 4.27 0.69
5 -4 16 3.01 1.02
-5 4 16 1.95 1.02
16 5 -4 3.41 0.86
4 -16 5 2.64 1.01
5 4 -16 2.67 0.72
16 -5 -4 3.43 0.7
5 -4 -16 2.47 0.82
-4 -16 5 3.36 1.08
-5 -4 16 2.53 1.06
5 -4 -16 2.62 1.02
16 -5 -4 2.95 1.04
16 5 4 3.78 0.8
4 -16 -5 2.6 1.04
16 -6 4 9.7 1.31
16 6 -4 9.13 1.25
-4 -16 -6 8.62 1.43
4 -16 6 10.47 1.45
6 4 -16 8.66 1.31
6 4 -16 9.94 1.13
4 16 -6 11.55 0.95
6 -4 16 10.61 1.49
16 6 -4 9.98 1.07
16 6 4 13.59 1.22
16 -6 -4 10.53 1.46
-6 -4 16 9.88 1.49
16 -6 -4 9.42 0.99
-4 -16 6 8.9 1.37
6 -4 -16 11.31 1.34
6 -4 -16 9.37 1.37
4 -16 -6 9.38 1.44
16 7 -4 13.91 1.37
16 7 -4 13.68 1.24
16 -7 4 14.55 2.03
4 -16 7 14 1.63
7 4 -16 17.2 1.55
7 -4 16 15.38 1.51
7 4 -16 15.23 1.24
4 16 -7 15.79 1.11
-4 -16 -7 18.22 1.9
-7 -4 16 16.58 1.93
4 -16 -7 16.79 1.87
16 -7 -4 14.95 1.14
-4 -16 7 16.07 1.73
16 7 4 14.29 1.21
7 -4 -16 16.59 1.71
4 -16 -7 16.23 1.25
16 -7 -4 15.64 1.74
7 -4 -16 15.53 1.63
4 16 -8 -0.82 0.6
-4 -16 -8 0.46 1.05
8 -4 16 -0.29 0.88
16 8 -4 0.91 0.88
16 8 -4 0.05 0.7
8 4 -16 0.83 0.75
8 4 -16 0.48 0.93
4 -16 8 -0.17 0.98
16 -8 4 0.16 1
16 -8 -4 1.7 1.06
4 -16 -8 0.06 1.02
8 -4 -16 0.55 1.03
4 -16 -8 -0.04 0.75
8 -4 -16 0.28 0.89
-8 -4 16 0.37 1.12
16 8 4 -0.03 0.74
-4 -16 8 -0.48 1.01
16 -8 -4 0.7 0.7
9 4 -16 1.8 1
16 9 -4 2.91 0.97
-9 -4 -16 2.26 1.23
4 16 -9 2.29 0.68
9 4 -16 2.28 1.08
16 9 -4 2.64 0.96
-4 -16 -9 2.34 1.16
4 -16 9 3.6 1.29
16 -9 4 2.26 1.03
4 -16 -9 2.52 1.32
9 -4 -16 1.78 0.85
4 -16 -9 1.18 1.19
-4 -16 9 2.36 1.17
16 -9 -4 1.82 1.08
-9 -4 16 0.61 1.27
9 -4 -16 2.26 1.06
4 16 -10 2.37 0.73
4 -16 10 1.82 1.31
16 10 -4 0.9 0.98
16 -10 4 2.02 1.11
-4 -16 -10 2.37 1.21
-10 -4 -16 1.31 1.24
10 4 -16 1.84 1.07
10 4 -16 1.79 1.03
10 4 -16 1.69 1.1
16 10 4 2.16 1.01
-4 -16 10 1.29 1.34
16 -10 -4 2.9 1.13
-10 -4 16 2.75 1.44
10 -4 -16 2.67 0.95
4 -16 -10 4.25 1.42
10 -4 -16 1.96 1.11
-4 -16 -11 0.36 1.22
11 4 -16 0.19 1.09
-11 -4 -16 2.45 1.41
4 -16 11 1.34 1.53
16 11 -4 1.9 0.91
11 4 -16 -0.46 0.99
11 4 -16 0.85 1.12
-11 -4 16 -1.55 1.35
11 -4 -16 -0.11 0.95
4 -16 -11 0.56 1.99
11 -4 -16 -0.31 1.05
-4 -16 11 1.97 1.44
16 11 4 1 0.99
16 -11 -4 0.76 1.02
12 4 -16 14.9 1.97
16 12 -4 17.72 1.62
12 4 -16 17.23 1.9
4 -16 12 20.29 2.27
-4 -16 -12 14.58 2.22
-4 -16 12 14.98 1.97
16 -12 -4 17.71 1.99
12 -4 -16 13.55 1.74
4 -16 -12 17.77 2.31
16 12 4 17.75 1.73
-12 -4 16 19.91 2.4
12 -4 -16 16.16 1.46
16 13 -4 -0.88 1.01
13 4 -16 1.71 1.4
4 -16 13 -0.2 1.44
13 4 -16 0.17 1.08
-4 -16 -13 -0.43 1.51
-4 -16 13 1.02 1.72
13 -4 -16 0.01 1.09
4 -16 -13 2.29 1.71
16 13 4 1.59 1.09
13 -4 -16 0.56 0.95
16 -13 -4 -0.75 1.05
16 14 -4 -0.57 1.1
-4 -16 -14 0.94 1.51
14 4 -16 1.95 1.27
14 4 -16 2.7 1.49
4 -16 14 1.51 1.64
-14 -4 16 4.84 2.29
4 -16 -14 3.87 1.75
16 14 4 0.58 1.52
14 -4 -16 3.09 1.31
-4 -16 14 1.89 1.78
14 -4 -16 1.9 1.29
16 -14 -4 0.39 1.28
-4 -16 -15 6.37 2.05
16 15 -4 13.12 2.05
4 -16 15 13.6 2.07
15 4 -16 12.43 1.65
15 4 -16 9.17 1.65
4 -16 -15 6.9 2.01
15 -4 -16 6.93 1.5
15 -4 -16 10.32 1.74
16 -15 -4 4.8 1.43
16 15 4 9.48 1.69
-4 -16 15 8.87 2.07
16 0 -5 146.66 4.82
5 16 0 144.29 4.77
0 -5 16 140.81 5.16
16 0 5 161.98 4.8
0 -5 -16 140.95 5.18
-5 -16 0 150.1 5.14
0 -5 -16 154.94 4.68
16 0 -5 142.35 4.9
5 -16 0 143.14 5.11
16 0 5 152.55 4.66
1 -5 16 12.93 1.68
-5 -16 -1 14.23 1.51
16 1 -5 15.96 1.44
16 -1 5 13.37 1.13
16 -1 5 15.33 1.45
5 -16 1 16.17 1.6
5 16 -1 13.74 1.12
-1 -5 -16 12.7 1.16
-1 -5 -16 14.04 1.55
1 5 -16 14.52 0.98
16 1 -5 14.56 1.19
5 -16 -1 15.1 1.63
1 -5 -16 15.13 1.2
16 1 5 16.86 1.21
16 1 5 14.06 1.35
16 -1 -5 16.38 1.38
-1 -5 16 12.91 1.58
1 -5 -16 12.28 1.48
-5 -16 1 16.92 1.69
16 -1 -5 13.32 1.02
2 -5 16 4.28 1.18
-2 -5 -16 3.14 0.71
16 2 -5 3.74 0.94
5 16 -2 2.7 0.67
-5 -16 -2 3.68 1.06
5 -16 2 2.31 1.01
16 2 -5 3.53 0.71
-2 -5 -16 4.18 1.1
16 -2 5 3.73 0.98
2 5 -16 3.26 0.66
2 -5 -16 3.66 0.76
2 -5 -16 4.88 1.19
16 2 5 3.76 0.91
-2 -5 16 3.37 1.07
5 -16 -2 2.78 0.98
16 2 5 2.56 0.67
16 -2 -5 2.82 1
-5 -16 2 2.28 1.04
16 -2 -5 4.95 0.73
3 -5 16 10.33 1.43
-5 -16 -3 11.48 1.59
3 5 -16 7.1 0.87
-3 -5 -16 8.56 1.01
16 3 -5 7.86 1
-3 -5 -16 9.14 1.28
5 16 -3 7.25 0.9
16 -3 5 8.85 1.17
16 3 -5 7.9 1.03
5 -16 3 8.02 1.19
-3 -5 16 9.24 1.37
16 3 5 7.85 1
16 -3 -5 7.79 1.15
3 -5 -16 7.48 0.95
3 -5 -16 6.94 1.3
16 -3 -5 7.87 0.85
-5 -16 3 9.82 1.33
5 -16 -3 8.21 1.23
-5 -16 -4 2.78 1.01
4 5 -16 2.98 0.73
16 4 -5 3.15 0.91
5 16 -4 3.44 0.71
4 -5 16 1.99 1.06
5 -16 4 3.12 1
-4 -5 -16 3.65 1.1
16 4 -5 3.03 0.8
16 -4 5 3.18 0.99
16 4 5 3.14 0.72
16 -4 -5 2.74 1.04
16 -4 -5 2.71 0.65
5 -16 -4 1.3 1
4 -5 -16 4.24 0.83
-5 -16 4 2.93 1.13
4 -5 -16 4.94 1.19
-4 -5 16 2.69 1.18
-5 -5 -16 79.03 3.32
16 5 -5 79.81 3.03
5 5 -16 78.15 3.2
5 5 -16 85.08 3
5 -16 5 78.67 3.35
5 16 -5 76.31 2.85
5 -5 16 80.12 3.32
16 -5 5 85.54 3.22
16 5 -5 80.24 3.11
-5 -16 -5 78.23 3.32
5 -16 -5 84.8 3.47
5 -16 -5 84.23 2.93
5 -5 -16 81.65 3.08
-5 -16 5 81.45 3.47
-5 -5 16 80.9 3.48
16 -5 -5 79.37 2.89
16 -5 -5 80.66 3.36
16 5 5 86.04 3.05
5 -5 -16 79.24 3.4
5 -16 6 35.18 2.22
6 5 -16 35.47 2.35
16 -6 5 39.29 2.07
-6 -5 -16 34.98 2.24
6 5 -16 38.16 1.86
5 16 -6 37.66 1.72
6 -5 16 39.63 2.16
16 6 -5 38.11 1.93
16 6 -5 37.96 1.87
-5 -16 -6 34.41 2.18
6 -5 -16 34.31 2.1
16 -6 -5 36.23 1.69
16 6 5 38.83 1.9
5 -16 -6 35.76 1.8
5 -16 -6 34.3 2.29
-5 -16 6 42.97 2.45
-6 -5 16 33.74 2.24
6 -5 -16 38.02 2.02
7 -5 16 0.46 0.95
16 7 -5 1.3 0.83
16 7 -5 0.98 0.73
-5 -16 -7 0.14 0.99
7 5 -16 1.62 0.75
-7 -5 -16 1.14 1.09
7 5 -16 -0.24 0.9
5 16 -7 0.62 0.63
5 -16 7 1.38 1.11
16 -7 -5 1.93 1.07
-7 -5 16 2.64 1.13
5 -16 -7 0.78 0.8
7 -5 -16 0.08 0.85
5 -16 -7 2.8 1.19
16 -7 -5 -0.08 0.64
16 7 5 1.6 0.75
7 -5 -16 1.24 0.95
-5 -16 7 0.88 1.12
5 16 -8 19.69 1.28
8 5 -16 20.65 1.49
8 -5 16 20.64 1.67
8 5 -16 21.82 1.8
-8 -5 -16 19.25 1.99
-5 -16 -8 20.62 2.1
16 8 -5 21.2 1.57
5 -16 8 22.53 1.99
16 8 5 20.34 1.58
-5 -16 8 17.52 1.96
-8 -5 16 19.85 1.91
16 -8 -5 20.82 1.31
16 -8 -5 23.78 1.78
8 -5 -16 20.59 1.83
5 -16 -8 22.03 1.49
8 -5 -16 24.08 1.68
5 -16 -8 21.97 2.06
-5 -16 -9 2.06 1.19
16 9 -5 1.75 0.92
5 16 -9 2.95 0.77
9 5 -16 3.25 2.07
9 5 -16 2.3 1.07
-9 -5 -16 4.09 1.3
9 -5 16 3.56 0.94
16 9 -5 1.97 0.96
5 -16 9 -0.22 1.19
16 -9 -5 1.22 0.73
9 -5 -16 1.32 0.85
16 -9 -5 3.48 1.13
9 -5 -16 3.6 1.14
5 -16 -9 1.25 1.25
5 -16 -9 3.75 0.84
16 9 5 3 1.13
-5 -16 9 2.53 1.17
-9 -5 16 1.95 1.24
5 16 -10 8.79 0.96
16 10 -5 10.68 1.28
-10 -5 -16 13.29 1.67
10 5 -16 12.83 1.61
10 5 -16 10.2 1.47
10 5 -16 10.62 1.34
5 -16 10 10.06 1.65
-5 -16 -10 10.38 1.54
16 10 -5 13.39 1.42
5 -16 -10 14.41 1.36
-5 -16 10 11.34 1.64
5 -16 -10 10.91 1.65
10 -5 -16 13.33 1.54
10 -5 -16 13.63 1.69
16 10 5 12.79 1.58
-10 -5 16 11.87 1.67
16 -10 -5 11.1 1.47
11 5 -16 71 3.19
-5 -16 -11 62.77 3.43
11 5 -16 66.46 3.13
-11 -5 -16 64.98 3.3
11 5 -16 65.68 2.77
5 16 -11 70.3 2.54
16 11 5 73.28 3.12
11 -5 -16 73.53 2.99
16 -11 -5 73.96 3.23
-11 -5 16 66.8 3.46
5 -16 -11 62.08 4.78
-5 -16 -12 -1.55 1.26
5 -16 12 -1.27 1.37
12 5 -16 0.45 1.1
12 5 -16 -0.39 1.23
16 12 -5 0.64 0.94
5 -16 -12 -1.28 1.26
16 12 5 1.4 1.08
-5 -16 12 1.65 1.54
-12 -5 16 6.31 1.86
12 -5 -16 0.29 0.96
16 -12 -5 -0.27 1.05
16 13 -5 -0.26 0.95
5 -16 13 1.25 1.54
13 5 -16 0.78 1.2
13 5 -16 2.27 1.37
-5 -16 -13 3.02 1.55
13 -5 -16 0.02 0.9
5 -16 -13 0.89 1.39
16 13 5 0.98 1.13
13 -5 -16 0.97 1.03
-13 -5 16 3.77 1.83
16 -13 -5 1.78 1.22
-5 -16 13 2.55 1.53
-5 -16 -14 0.16 1.59
14 5 -16 0.05 1.4
14 5 -16 0.23 1.18
16 14 -5 -0.06 1.48
5 -16 14 -0.36 1.59
14 -5 -16 0.87 1.13
-5 -16 14 -0.67 1.68
16 -14 -5 1.27 1.25
16 14 5 -1.13 1.5
5 -16 -14 0.36 1.65
14 -5 -16 0.23 1.33
16 15 -5 -0.97 1.67
5 -16 15 -1.1 1.73
15 5 -16 1.55 1.5
15 5 -16 0.83 1.31
-5 -16 -15 2 1.9
-5 -16 15 -1.19 1.68
5 -16 -15 1.62 1.88
15 -5 -16 0.15 1.22
15 -5 -16 -0.06 1.53
16 -15 -5 -0.35 1.27
0 -6 -16 83.21 3.55
0 -6 16 86.17 3.61
6 -16 0 87.04 3.49
16 0 -6 88.94 3.21
-6 -16 0 90.37 3.59
16 0 -6 85.79 3.32
16 0 6 93.74 3.07
0 -6 -16 91.13 3.05
0 6 -16 89.84 2.97
6 16 0 89.88 3.2
16 -1 6 -0.09 0.69
-6 -16 -1 2.7 1
16 1 -6 0.67 0.86
6 16 -1 -0.18 0.58
6 -16 1 -0.47 0.94
1 6 -16 0.97 0.52
16 1 -6 1 0.6
-1 -6 -16 0.07 0.92
-1 -6 -16 1.58 0.65
1 -6 16 0.05 1.05
6 16 1 1.1 0.7
-1 6 -16 1.46 0.55
-1 -6 16 -0.33 0.92
1 -6 -16 1.64 0.68
16 1 6 1.42 0.71
16 -1 -6 0.96 0.6
-6 -16 1 -0.92 0.87
1 -6 -16 0.95 0.98
16 -1 -6 0.62 0.87
6 -16 -1 0.15 0.95
16 2 -6 1.69 0.65
2 6 -16 3.47 0.63
-6 -16 -2 2.26 1.07
-2 -6 -16 1.14 0.94
16 2 -6 2.29 0.95
6 16 -2 0.53 0.66
6 -16 2 1.91 0.96
2 -6 16 0.92 1.04
-2 -6 -16 2.2 0.69
-2 6 -16 1.74 0.57
2 -6 -16 2.16 1.01
16 2 6 1.8 0.62
6 -16 -2 2.02 0.92
2 -6 -16 1.63 0.72
-6 -16 2 1.55 0.98
-2 -6 16 0.82 1.03
16 -2 -6 1.96 0.65
16 -2 -6 2.25 0.97
16 3 -6 6.16 0.91
-6 -16 -3 5.07 1.27
16 3 -6 5.26 1.01
3 -6 16 4.54 1.23
6 16 -3 4.53 0.74
3 6 -16 6.72 0.84
6 -16 3 5.03 1.09
-3 -6 -16 5.28 1.18
16 -3 -6 5.37 0.8
16 -3 -6 3.81 1.1
-6 -16 3 5.15 1.14
16 3 6 6.65 0.85
3 -6 -16 4.74 1.16
6 -16 -3 4.56 1.1
-3 -6 16 6.02 1.32
3 -6 -16 4.99 0.84
6 -16 4 9.8 1.39
-4 -6 -16 8.45 1.39
4 6 -16 8.59 0.96
16 4 -6 10.26 1.1
16 4 -6 12.01 1.37
4 -6 16 11.58 1.6
-6 -16 -4 8.46 1.38
6 16 -4 8.96 1.03
6 -16 -4 12.31 1.61
-6 -16 4 9.91 1.39
16 -4 -6 9.42 1.33
16 -4 -6 10.47 1.03
4 -6 -16 8.85 1.07
16 4 6 10.7 1.1
6 -16 -4 10.64 1.23
-4 -6 16 7.43 1.47
4 -6 -16 10.42 1.49
16 5 -6 35.99 1.91
6 -16 5 34.92 2.16
5 6 -16 39.36 1.78
-6 -16 -5 35.55 2.15
6 16 -5 37.13 1.76
-5 -6 -16 35.18 2.15
5 -6 16 37.24 2.21
16 5 -6 39.34 1.93
16 -5 -6 38.54 1.75
5 -6 -16 36.18 2.18
16 5 6 37.12 1.85
5 -6 -16 38.71 1.93
6 -16 -5 37.84 2.29
-5 -6 16 38.09 2.49
6 -16 -5 37.01 1.88
-6 -16 5 35.26 2.19
16 6 -6 15.93 1.49
-6 -6 -16 12.79 1.56
6 -16 6 14.17 1.69
6 16 -6 14.4 1.19
-6 -16 -6 13.96 1.65
6 6 -16 15.66 1.25
6 6 -16 13.27 1.47
6 -6 16 13.4 1.56
16 6 -6 14.23 1.28
16 6 6 15.14 1.21
6 -6 -16 16.72 1.5
16 -6 -6 15.62 1.62
-6 -6 16 11.66 1.67
6 -16 -6 14.6 1.34
16 -6 -6 16.92 1.17
6 -6 -16 13.48 1.78
-6 -16 6 15.58 1.68
6 -16 -6 15.02 1.8
-7 -6 -16 3.32 1.22
6 -16 7 4.05 1.23
7 6 -16 4.61 1.08
6 16 -7 3.24 0.76
-6 -16 -7 4.12 1.33
7 -6 16 4.35 1.08
7 6 -16 3.82 0.88
16 7 -6 4.17 1.01
16 7 -6 3.46 1.52
7 -6 -16 4.46 1.23
16 7 6 2.42 0.83
6 -16 -7 3.03 1.25
16 -7 -6 3.69 0.8
-6 -16 7 2.14 1.06
6 -16 -7 5.39 0.9
-7 -6 16 3.02 1.17
16 -7 -6 3 1.02
8 6 -16 5.95 1.13
-6 -16 -8 7.21 1.35
-8 -6 -16 4.84 1.36
16 8 -6 6.72 1.11
6 -16 8 8.86 1.43
6 16 -8 7.52 0.96
8 6 -16 7.85 1.21
16 8 -6 7.59 1.18
8 -6 16 6.94 1.18
8 -6 -16 10.32 1.3
6 -16 -8 6.24 1.43
16 -8 -6 6.95 1.28
-6 -16 8 6.28 1.3
6 -16 -8 8.22 1.05
16 8 6 7.23 1.33
16 -8 -6 8.5 1.05
-8 -6 16 7.07 1.37
8 -6 -16 7.92 1.39
9 6 -16 0.26 0.95
-9 -6 -16 -2.5 1.18
-6 -16 -9 -0.21 1.34
16 9 -6 -0.75 0.81
6 16 -9 0.62 0.69
6 -16 9 -0.79 1.17
9 6 -16 0.51 1.13
16 9 -6 0.3 0.98
9 -6 16 0.95 0.97
6 -16 -9 2.77 1.32
9 -6 -16 -0.66 0.79
16 -9 -6 1.61 1.1
9 -6 -16 0.57 1.04
16 -9 -6 -0.29 0.7
16 9 6 -0.9 0.96
-6 -16 9 1.49 1.26
-9 -6 16 -2.79 1.21
6 -16 -9 1.59 0.88
16 10 -6 1.53 0.99
-6 -16 -10 4.9 1.55
6 -16 10 3.97 1.34
10 6 -16 1.74 1.12
10 6 -16 2.04 1.15
6 16 -10 2.24 0.79
-10 -6 -16 1.42 1.4
16 10 -6 3.7 1.2
10 6 -16 2.29 1.08
16 -10 -6 2.15 1.13
10 -6 -16 1.73 0.97
16 -10 -6 3.05 0.8
16 10 6 2.41 0.98
-6 -16 10 -0.86 1.48
6 -16 -10 2.6 1.04
6 -16 -10 1.78 1.49
-10 -6 16 1.48 1.37
10 -6 -16 1.26 1.2
6 -16 11 29.45 2.85
11 6 -16 32.91 2.3
6 16 -11 29.38 2.14
-6 -16 -11 22.1 3.37
16 11 -6 28.66 1.93
11 6 -16 31.68 2.07
-11 -6 -16 33.06 2.69
11 -6 -16 27.88 1.99
-11 -6 16 34.49 2.69
6 -16 -11 32.38 2.5
16 -11 -6 29.98 2.28
-6 -16 11 26.75 3.02
16 11 6 29.44 2
11 -6 -16 29.99 2.13
6 -16 -11 26.78 1.87
6 16 -12 2.97 1.2
6 -16 12 1.14 1.48
12 6 -16 5.02 1.34
12 6 -16 4.1 1.39
16 12 -6 6.27 1.22
-6 -16 -12 2.23 1.5
16 12 6 4.66 1.27
12 -6 -16 3.83 1.15
-6 -16 12 5.22 1.62
6 -16 -12 2.95 1.45
16 -12 -6 2.95 1.25
13 6 -16 -0.62 1.19
6 16 -13 3.83 1.88
6 -16 13 -0.27 1.39
16 13 -6 1.19 1.52
-6 -16 -13 4.67 1.74
13 6 -16 1.47 1.47
16 -13 -6 -0.39 1.06
-13 -6 16 1.44 1.84
13 -6 -16 1.05 1.14
6 -16 -13 -0.93 1.52
13 -6 -16 1.33 1.18
-6 -16 13 2.63 1.73
-6 -16 -14 2.3 1.94
16 14 -6 0.29 1.6
14 6 -16 2.94 1.52
6 -16 14 2.1 1.61
14 6 -16 -1.11 1.25
14 -6 -16 1.4 1.49
16 -14 -6 1.91 1.32
-6 -16 14 -0.87 1.62
6 -16 -14 0.49 1.62
14 -6 -16 0.41 1.19
6 -16 15 -0.66 1.74
15 6 -16 -0.86 1.54
15 6 -16 0.86 1.3
16 15 -6 -3.08 1.49
-6 -16 -15 1.17 1.92
-6 -16 15 -4.64 1.88
15 -6 -16 1.06 1.49
15 -6 -16 -0.55 1.16
16 -15 -6 1.66 1.33
6 -16 -15 -0.14 1.88
-7 -16 0 0.39 1.03
0 -7 -16 0.82 0.95
16 0 -7 -0.58 0.58
7 16 0 0.19 0.68
0 -7 -16 1.01 0.68
0 -7 16 0.31 1.03
16 0 -7 -0.13 0.9
7 -16 0 -0.11 0.9
0 7 -16 1.44 0.58
1 7 -16 16.65 1.04
16 1 -7 12.85 1.14
1 -7 16 12.39 1.76
-1 -7 -16 14.59 1.17
7 -16 1 15.32 1.52
-7 -16 -1 18.35 1.62
7 16 -1 13.76 1.2
-1 -7 -16 12.19 1.54
16 1 -7 15.27 1.48
1 -7 -16 14.64 1.77
-1 7 -16 15.06 0.97
7 16 1 15.12 1.31
-1 -7 16 15.04 1.66
16 -1 -7 13.96 1.6
-7 -16 1 14.33 1.74
1 -7 -16 16.45 1.23
7 -16 -1 14.08 1.53
16 -1 -7 14.07 1.14
16 1 7 17.51 1.23
2 -7 16 13.21 1.59
-2 -7 -16 12.61 1.62
7 16 -2 14.84 1.18
2 7 -16 15.87 1.04
16 2 -7 13.9 1.42
7 -16 2 14.72 1.54
-7 -16 -2 13.86 1.76
16 2 -7 16.16 1.29
16 -2 -7 13 1.08
-2 -7 16 14.3 1.69
7 16 2 16.31 1.42
16 -2 -7 15.01 1.58
2 -7 -16 14.55 1.79
7 -16 -2 14.64 1.62
16 2 7 15.74 1.13
2 -7 -16 15.41 1.22
-7 -16 2 14.11 1.57
-7 -16 -3 -0.29 0.99
3 -7 16 -0.18 1.02
16 3 -7 -1.18 0.63
7 16 -3 0.95 0.65
-3 -7 -16 -1.02 0.94
16 3 -7 2.49 0.94
3 7 -16 -0.21 0.55
7 -16 3 0.55 0.91
16 3 7 1.38 0.71
-7 -16 3 -0.11 0.9
7 -16 -3 0.64 1.02
7 -16 -3 -0.01 0.72
16 -3 -7 1.02 0.64
3 -7 -16 0.27 0.73
-3 -7 16 1.82 1.18
3 -7 -16 -0.96 0.89
-4 -7 -16 14.35 1.85
16 4 -7 15.1 1.29
7 16 -4 16.58 1.27
-7 -16 -4 18.38 1.81
16 4 -7 13.52 1.53
7 -16 4 13.67 1.61
4 7 -16 13.62 1.14
4 -7 16 15.09 1.56
16 -4 -7 14.02 1.71
-4 -7 16 14.9 1.95
4 -7 -16 13.19 1.83
16 -4 -7 12.65 1.14
-7 -16 4 16.3 1.68
16 4 7 16.37 1.2
7 -16 -4 14.08 1.67
4 -7 -16 12.37 1.33
7 -16 -4 13.27 1.35
-7 -16 -5 0.54 1.84
7 16 -5 1.53 0.67
7 -16 5 1.74 1.08
-5 -7 -16 2.56 1.17
16 5 -7 0.73 0.92
16 5 -7 0.7 0.73
5 -7 16 1.33 1.06
5 7 -16 0 0.68
-7 -16 5 -1.05 0.97
16 -5 -7 0.8 0.65
5 -7 -16 2.72 1.23
7 -16 -5 0.6 0.87
7 -16 -5 2.29 1.01
16 5 7 0.35 0.68
16 -5 -7 1.59 1.02
5 -7 -16 0.04 0.82
-5 -7 16 0.33 1.12
16 6 -7 4.05 1.04
7 -16 6 3.6 1.13
6 7 -16 5.94 0.89
6 7 -16 3.11 1.03
6 -7 16 4.2 1.14
-7 -16 -6 2.63 1.23
16 6 -7 3.4 1.39
-6 -7 -16 4.84 1.37
7 16 -6 4.49 0.91
-7 -16 6 3.8 1.16
7 -16 -6 5.81 0.96
16 6 7 5.05 0.89
7 -16 -6 1.77 1.16
16 -6 -7 3.89 0.79
6 -7 -16 4.38 1.25
16 -6 -7 3.6 1.11
6 -7 -16 3.32 1.73
-6 -7 16 3.59 1.21
16 7 -7 11.65 1.48
7 -7 16 12.44 1.58
7 7 -16 12.67 1.28
7 7 -16 13.7 1.67
16 7 -7 11.56 1.36
-7 -16 -7 11.05 1.58
7 -16 7 11.07 1.42
7 16 -7 15.2 1.24
-7 -7 -16 10.94 1.49
16 7 7 11.5 1.47
16 -7 -7 11.93 1.1
7 -7 -16 10.7 1.57
7 -16 -7 13.8 1.38
-7 -7 16 9.96 1.55
7 -7 -16 9.72 1.55
7 -16 -7 12.62 1.79
16 -7 -7 9.18 1.36
-7 -16 7 12.59 1.68
16 8 -7 2.98 0.99
8 7 -16 2.9 1.1
-8 -7 -16 5.71 1.42
8 -7 16 2.64 1.09
-7 -16 -8 4.01 1.41
7 16 -8 5.66 0.94
7 -16 8 4.55 1.28
-7 -16 8 6.85 1.4
16 -8 -7 3.22 1.12
-8 -7 16 2.73 1.26
16 -8 -7 5.3 0.83
7 -16 -8 4.22 1.28
7 -16 -8 5.17 1.09
8 -7 -16 3.66 1.33
8 -7 -16 3.74 0.9
16 8 7 3.81 1.41
16 9 -7 4.48 1
-9 -7 -16 5.3 1.45
16 9 -7 6.48 1.34
9 -7 16 5.33 1.12
9 7 -16 6.33 1.34
-7 -16 -9 6.23 1.53
7 -16 9 5.37 1.37
9 7 -16 4.84 1.21
7 16 -9 6.09 0.98
9 -7 -16 4.15 0.97
9 -7 -16 6.72 1.33
16 -9 -7 5.64 1.26
16 9 7 7.25 1.23
-9 -7 16 7.18 1.52
16 -9 -7 9.08 1.17
-7 -16 9 5.1 1.48
7 -16 -9 5.15 1.38
16 10 -7 7.36 1.07
10 7 -16 6.66 1.6
10 7 -16 6.29 1.3
7 -16 10 4.6 1.55
10 7 -16 5.8 1.23
16 10 -7 6.76 1.2
-7 -16 -10 5.16 2.21
-10 -7 -16 6.98 1.56
16 -10 -7 7.15 1.36
-10 -7 16 5.92 1.97
10 -7 -16 3.85 1.02
16 -10 -7 10.94 1.45
-7 -16 10 2.89 1.56
7 -16 -10 6.88 0.97
10 -7 -16 5.66 1.35
-7 -16 -11 -4.05 2.47
11 7 -16 -0.72 0.97
11 7 -16 0.99 1.3
-11 -7 -16 -2.26 1.52
7 -16 11 0.3 1.28
7 16 -11 0.27 1.12
16 11 -7 -0.09 0.87
16 11 -7 -2 0.84
7 -16 -11 0.56 1.45
11 -7 -16 0.17 1.27
16 -11 -7 0.71 1.16
7 -16 -11 1.42 0.81
-7 -16 11 0.57 1.42
11 -7 -16 -0.43 0.91
12 7 -16 9.12 1.48
12 7 -16 10.1 1.66
-7 -16 -12 6.97 1.75
16 12 -7 11.18 1.78
7 16 -12 10.79 1.41
7 -16 12 9.91 1.64
16 -12 -7 8.06 1.44
-7 -16 12 12.64 1.94
-12 -7 16 9.07 1.85
7 -16 -12 8.18 1.74
12 -7 -16 10.07 1.41
7 -16 -12 11.91 1.34
7 16 -13 -0.26 1.06
13 7 -16 0.06 1.2
-7 -16 -13 -2.19 1.51
13 7 -16 -0.95 1.36
7 -16 13 -1.77 1.45
7 16 -13 1.16 1.22
16 13 -7 0.31 1.57
13 -7 -16 1.24 1.08
-13 -7 16 -3.42 1.77
-7 -16 13 -3.67 1.66
16 -13 -7 1.19 1.17
7 -16 -13 0.01 1.56
-7 -16 -14 1.06 1.9
16 14 -7 2.08 1.62
7 16 -14 -1 1.01
7 -16 14 -0.73 1.71
14 7 -16 1.37 1.33
14 7 -16 -0.28 1.47
14 -7 -16 0.5 1.14
14 -7 -16 0.19 1.47
-7 -16 14 0.96 1.82
16 -14 -7 0.02 1.19
7 -16 -14 3.6 1.74
16 15 -7 6.73 1.87
7 -16 15 6.21 1.96
-7 -16 -15 8.4 2.2
15 7 -16 5.41 1.45
7 16 -15 7.37 1.51
15 7 -16 6.92 1.82
15 -7 -16 6.24 1.7
15 -7 -16 5.56 1.42
16 -15 -7 7.71 1.51
-7 -16 15 6.49 2.22
7 -16 -15 6.46 2.04
0 8 -16 11.13 0.97
0 -8 -16 12.67 1.31
8 16 0 10.04 1.27
0 -8 16 9.94 1.58
8 -16 0 11.66 1.45
0 -8 -16 9.03 1.38
16 0 -8 7.89 1.09
-8 -16 0 9.74 1.32
1 -8 16 3.17 1.25
8 -16 1 1.79 0.98
-8 -16 -1 -0.17 1.04
16 1 -8 2.13 1.2
-1 -8 -16 0.14 1.1
8 16 -1 0.53 0.75
16 1 -8 2.34 0.68
1 8 -16 1.32 0.62
1 -8 -16 2.04 1.15
1 -8 -16 2.12 0.73
8 -16 -1 2.6 1.02
-1 -8 16 2.12 1.1
8 16 1 2.91 0.92
-8 -16 1 2.27 1.08
16 -1 -8 1.74 0.64
2 -8 16 12.83 1.78
16 2 -8 10.62 1.19
8 -16 2 14.3 1.62
8 16 -2 11.52 1.23
-8 -16 -2 9.87 1.35
16 2 -8 13.03 1.52
-2 -8 -16 11.28 1.58
2 8 -16 9.75 1.25
16 -2 -8 11.48 1.46
-8 -16 2 11.93 1.5
-2 -8 16 12.54 1.63
8 -16 -2 10.17 1.4
2 -8 -16 9.74 1.14
2 -8 -16 8.38 1.45
8 -16 -2 11.14 1.38
8 16 2 11.35 1.25
16 -2 -8 11.2 1.04
16 3 -8 11.49 1.25
3 8 -16 14.11 1.13
8 -16 3 15.84 1.63
16 3 -8 13.83 1.58
-3 -8 -16 15.27 1.68
-8 -16 -3 14.06 1.78
3 -8 16 13.35 1.8
8 16 -3 12.31 1.28
3 -8 -16 13.85 1.85
16 -3 -8 15.3 1.15
16 -3 -8 14.59 1.53
-8 -16 3 17.85 1.83
8 -16 -3 14.04 1.61
-3 -8 16 14.32 1.78
3 -8 -16 14.19 1.24
8 -16 -3 13.82 1.45
4 8 -16 0.53 0.65
16 4 -8 -0.04 1.56
4 -8 16 -0.32 1.04
-4 -8 -16 1.37 1.2
16 4 -8 0.02 0.67
-8 -16 -4 1.27 1.07
8 -16 4 -0.51 0.95
8 16 -4 0.72 0.74
-8 -16 4 0.9 1.17
8 -16 -4 1.17 1.02
16 -4 -8 -0.15 0.6
4 -8 -16 0.92 1.03
-4 -8 16 2.06 1.22
8 -16 -4 -0.64 0.91
16 -4 -8 0.73 0.92
4 -8 -16 0.04 0.75
8 -16 5 21.53 1.75
5 8 -16 20.86 1.37
-8 -16 -5 20.03 1.8
-5 -8 -16 20.47 2.07
8 16 -5 21.83 1.59
8 16 -5 22.98 1.54
5 -8 16 21.51 1.94
16 -5 -8 23.25 1.85
8 -16 -5 22.95 1.71
5 -8 -16 22.5 1.57
16 -5 -8 21.81 1.38
-5 -8 16 22 2.03
-8 -16 5 22.8 2.07
8 -16 -5 22.51 1.93
5 -8 -16 19.74 1.84
16 6 -8 6.11 1.17
-8 -16 -6 6.95 1.39
8 16 -6 6.8 1
-6 -8 -16 9.6 1.55
6 8 -16 8.96 1.14
8 -16 6 6.92 1.22
6 8 -16 4.32 1.11
16 6 -8 7.77 1.31
6 -8 16 8.69 1.37
8 16 -6 7.65 1.08
-6 -8 16 8.01 1.57
6 -8 -16 6.62 1.39
8 -16 -6 7.44 1.36
16 -6 -8 7.28 1.27
16 -6 -8 6.56 0.92
-8 -16 6 8.18 1.47
6 -8 -16 7.71 1.21
7 -8 16 4.74 1.21
7 8 -16 5.12 1.01
16 7 -8 5.14 1.08
8 16 -7 5.48 1.04
-7 -8 -16 5.33 1.35
16 7 -8 4.67 1.06
-8 -16 -7 3.93 1.39
8 -16 7 3.62 1.16
7 8 -16 3.28 1.07
8 16 -7 5.67 0.97
16 -7 -8 4.46 0.93
8 -16 -7 5.36 1.35
-7 -8 16 8.3 1.52
16 -7 -8 4.39 1.17
7 -8 -16 3.28 0.87
8 -16 -7 5.16 1.6
7 -8 -16 4.52 1.3
-8 -16 7 4.4 1.36
-8 -8 -16 15.04 2.06
8 -16 8 16.66 1.77
-8 -16 -8 14.08 2.04
16 8 -8 15.64 1.51
8 8 -16 18.42 1.87
8 -8 16 17.46 1.74
16 8 -8 13.8 1.41
8 8 -16 17.07 1.73
8 -8 -16 18.72 2.05
8 -16 -8 15.37 1.39
8 -16 -8 17.11 1.93
16 -8 -8 14.73 1.75
-8 -16 8 15.94 2.11
8 -8 -16 18.35 1.48
16 -8 -8 15.09 1.55
-8 -8 16 15.96 2
8 16 -9 1.17 0.86
-8 -16 -9 3.9 1.56
9 -8 16 1.04 1.07
16 9 -8 2.27 1.01
-9 -8 -16 2.29 1.34
16 9 -8 2.21 0.94
9 8 -16 0.75 1.15
8 -16 9 0.57 1.18
9 8 -16 2.92 1.17
8 16 -9 4.61 1.22
-9 -8 16 1.34 1.32
8 -16 -9 1.91 0.84
8 -16 -9 3.36 1.53
16 -9 -8 1.73 1.04
-8 -16 9 0.79 1.29
9 -8 -16 1.97 0.89
9 -8 -16 0.2 1.24
-10 -8 -16 -1.75 1.53
16 10 -8 0.89 0.93
8 16 -10 0.54 1.06
10 8 -16 0.7 1.16
10 8 -16 -0.6 1.05
8 16 -10 -1.14 0.84
-8 -16 -10 2.61 1.7
16 10 -8 2.8 0.94
8 -16 -10 0.3 1.32
10 -8 -16 1.13 2.21
16 -10 -8 0.79 1.14
16 -10 -8 0.24 1.2
10 -8 -16 0.53 0.94
8 -16 -10 -0.48 0.81
8 16 -11 9.11 1.23
16 11 -8 8.27 1.51
11 8 -16 11.4 1.64
11 8 -16 8.33 1.44
8 16 -11 8.13 1.38
-11 -8 -16 9.73 2.1
-8 -16 -11 10.72 1.85
16 11 -8 8.86 1.17
8 -16 11 8.75 1.57
8 -16 -11 9.96 1.16
11 -8 -16 7.89 1.27
16 -11 -8 12.96 1.76
-8 -16 11 8.77 1.86
8 -16 -11 9.53 1.76
11 -8 -16 8.9 1.76
-11 -8 16 7.51 1.79
16 -11 -8 8.79 1.41
8 16 -12 -0.11 1.18
12 8 -16 1.55 1.23
-8 -16 -12 3.25 1.74
8 16 -12 -0.82 1.05
16 12 -8 1.88 1.04
12 8 -16 0.79 1.34
8 -16 12 -2.43 1.43
16 12 -8 -1.28 1.4
-8 -16 12 2.13 1.59
8 -16 -12 1.9 0.97
16 -12 -8 3.16 1.76
12 -8 -16 1.45 1.06
-12 -8 16 1.82 1.79
8 -16 -12 0.67 1.52
16 -12 -8 0.89 1.24
8 16 -13 -0.35 1.08
16 13 -8 4.25 1.68
8 16 -13 0.99 1.29
13 8 -16 1.82 1.27
8 -16 13 3.07 1.67
-8 -16 -13 2.94 1.8
13 8 -16 4.65 1.6
8 -16 -13 3.08 1.73
-13 -8 16 0.89 2
-8 -16 13 1.43 1.9
16 -13 -8 3.62 1.41
13 -8 -16 1.69 1.08
16 14 -8 5.16 1.78
8 -16 14 5.45 1.84
-8 -16 -14 3.4 2.02
8 16 -14 4.58 1.42
14 8 -16 3.92 1.73
14 8 -16 5 1.46
8 16 -14 5.79 1.41
8 -16 -14 1.82 2.02
14 -8 -16 2.27 1.3
-8 -16 14 6.45 1.87
16 -14 -8 4.19 1.41
14 -8 -16 4.73 1.69
8 -16 15 2.8 2.2
15 8 -16 -0.02 1.3
-8 -16 -15 3.12 2.18
8 16 -15 1.51 1.32
16 15 -8 0.28 1.73
15 8 -16 1.54 1.62
8 -16 -15 -4.41 1.94
15 -8 -16 -1.58 1.11
16 -15 -8 -0.63 1.35
-8 -16 15 4.76 2.33
15 -8 -16 0.41 1.61
16 0 -9 0.57 0.98
16 0 -9 0.73 0.69
9 16 0 0.57 0.8
0 -9 -16 0.21 1.11
-9 -16 0 -1.44 1.1
9 -16 0 -0.08 0.88
0 -9 16 -1.34 1.06
9 16 -1 3.06 0.95
16 1 -9 2.9 0.82
1 9 -16 4.26 0.73
1 -9 16 3.56 1.28
16 1 -9 3.59 1.01
9 -16 1 4.03 1.05
-9 -16 -1 1.38 1.12
-1 -9 -16 2.86 1.27
9 16 1 4.77 1.05
16 -1 -9 3.42 0.84
-9 -16 1 3.3 1.21
1 -9 -16 3.08 1.19
9 -16 -1 3.13 1.02
-1 -9 16 3.62 1.25
16 -1 -9 3.4 1.08
-2 -9 -16 3.12 1.25
9 -16 2 2.43 1.02
-9 -16 -2 3.11 1.19
16 2 -9 3.62 0.89
2 -9 16 5.2 1.28
16 2 -9 3.13 1
2 9 -16 3.96 0.74
9 16 -2 3.78 0.93
2 -9 -16 3.29 1.2
2 -9 -16 2.93 0.83
9 -16 -2 3.43 1.53
16 -2 -9 2.36 1.03
9 16 2 5.06 1.14
16 -2 -9 3.11 0.76
-9 -16 2 4.21 1.22
-2 -9 16 2.27 1.16
9 -16 -2 3.37 1.05
-3 -9 -16 0.19 1.15
9 -16 3 1.56 1.03
9 16 -3 1.8 0.91
16 3 -9 0.2 0.87
-9 -16 -3 2.79 1.21
3 9 -16 1.51 0.68
3 -9 16 2.53 1.18
9 16 3 0.47 1.19
3 -9 -16 1.58 0.82
9 -16 -3 0.76 1.15
16 -3 -9 0.12 0.89
16 -3 -9 0.71 0.67
-3 -9 16 -1.12 1.05
-9 -16 3 0.81 1.12
9 -16 -3 1.46 0.93
3 -9 -16 1.18 1.12
4 9 -16 1.23 0.71
-4 -9 -16 3.03 1.28
16 4 -9 2.06 1.04
9 -16 4 2.26 1.04
9 16 -4 1.52 0.91
4 -9 16 2.16 1.22
-9 -16 -4 3.68 1.24
16 4 -9 2.38 1.04
-9 -16 4 2.2 1.22
16 -4 -9 2.58 0.97
9 -16 -4 0.97 0.98
-4 -9 16 2.16 1.16
4 -9 -16 1.33 1.25
16 -4 -9 2.08 0.95
4 -9 -16 2.2 0.86
9 -16 -4 2.25 0.91
16 5 -9 2.59 0.98
5 9 -16 3.59 0.81
9 -16 5 3.57 1.07
9 16 -5 3.86 1.04
16 5 -9 2.97 0.98
5 -9 16 2.9 1.23
-5 -9 -16 2.78 1.29
-9 -16 -5 3.97 1.25
5 -9 -16 2.92 1.31
5 -9 -16 1.82 0.91
16 -5 -9 1.01 0.97
-5 -9 16 3.1 1.27
16 -5 -9 1.65 0.95
-9 -16 5 4.08 1.28
9 -16 -5 1.88 1.09
9 -16 -5 0.76 0.77
16 6 -9 0.23 0.82
9 16 -6 0.93 0.9
-6 -9 -16 -1.65 1.2
16 6 -9 0.23 0.77
-9 -16 -6 -0.02 1.2
6 9 -16 -1.31 0.85
6 9 -16 0.65 0.8
6 -9 16 -0.41 1.15
9 -16 6 -2.03 0.98
9 -16 -6 0.36 1.04
16 -6 -9 -0.64 0.9
6 -9 -16 -0.74 1.24
-6 -9 16 0.22 1.3
-9 -16 6 -0.06 1.1
6 -9 -16 -0.19 1.24
9 -16 -6 0.13 0.78
16 7 -9 4.3 1.08
16 7 -9 4.29 1.04
-7 -9 -16 5.7 1.37
9 16 -7 5.11 1.06
9 16 -7 5.23 1.33
-9 -16 -7 4.92 1.42
7 -9 16 5.06 1.24
7 9 -16 3.78 1.18
9 -16 7 6.66 1.27
9 -16 -7 6.85 1.31
9 -16 -7 4.68 0.98
-9 -16 7 3.45 1.24
16 -7 -9 7.02 1.36
16 -7 -9 4.44 1.6
-7 -9 16 6.91 1.5
7 -9 -16 4.76 0.9
7 -9 -16 7.62 1.41
-9 -16 -8 2.27 1.44
-8 -9 -16 4.2 1.44
8 -9 16 2.72 1.14
8 9 -16 2.78 1.2
16 8 -9 2.38 1.01
16 8 -9 0.31 0.92
9 16 -8 2.78 0.91
9 16 -8 2.6 1.34
9 -16 8 2.44 1.16
8 9 -16 1.52 1.15
8 -9 -16 -0.08 0.83
9 -16 -8 3.46 1.28
9 -16 -8 1.03 0.8
16 -8 -9 1.35 1.12
16 -8 -9 0.78 1.1
-9 -16 8 2.24 1.43
8 -9 -16 2.62 1.35
-8 -9 16 2.63 1.47
9 9 -16 6.25 1.24
9 -9 16 4.86 1.2
16 9 -9 4.96 1.09
9 9 -16 4.1 1.3
-9 -9 -16 6.21 1.58
16 9 -9 3.02 1.05
-9 -16 -9 6.14 1.48
9 16 -9 5.28 0.99
9 -16 9 1.68 1.22
9 16 -9 3.49 1.22
16 -9 -9 1.7 1.17
9 -16 -9 3.39 2.35
16 -9 -9 3.54 1.25
9 -9 -16 4.26 0.99
9 -16 -9 3.91 0.97
-9 -16 9 3.11 1.72
10 9 -16 6.22 1.46
9 16 -10 5.54 1.05
16 10 -9 3.8 1.14
-10 -9 -16 7.74 2.89
16 10 -9 4.11 1.09
9 -16 10 6.08 1.43
9 16 -10 4.12 1.31
10 9 -16 5.01 1.32
10 -9 -16 6.41 1.47
16 -10 -9 0.86 1.23
9 -16 -10 4.58 1.46
9 -16 -10 4.46 1.03
-10 -9 16 3.78 1.65
-9 -16 10 3.76 1.62
16 -10 -9 3.91 1.29
10 -9 -16 3.57 1.04
16 11 -9 0.28 1.01
9 16 -11 -0.15 0.94
11 9 -16 -2.14 1.29
9 16 -11 -1.27 1.17
-9 -16 -11 -0.24 1.68
11 9 -16 -0.75 1.06
16 11 -9 -0.28 1.38
9 -16 11 0.08 1.39
-11 -9 -16 1.41 2.01
11 -9 -16 1.4 1.46
-9 -16 11 0.97 1.63
16 -11 -9 -0.42 1.25
16 -11 -9 1.58 1.22
-11 -9 16 3.03 1.77
9 -16 -11 1.21 1.48
9 -16 -11 -0.4 0.92
11 -9 -16 -1.56 0.83
-9 -16 -12 2.32 1.94
12 9 -16 0.66 1.45
9 -16 12 0.71 1.61
12 9 -16 0.76 1.21
16 12 -9 1.88 1.04
16 12 -9 0.3 1.56
9 16 -12 0.97 1.02
9 16 -12 0.55 1.26
12 -9 -16 0.55 1.02
9 -16 -12 3.05 1.65
9 -16 -12 3.7 1.05
-9 -16 12 0.74 1.72
-12 -9 16 3.1 1.87
16 -12 -9 -0.63 1.36
16 -12 -9 0.73 1.23
9 -16 13 3.42 1.75
13 9 -16 1.28 1.56
9 16 -13 1.8 1.32
9 16 -13 -0.47 1.15
-9 -16 -13 -1.25 2.12
13 9 -16 0.24 1.23
16 13 -9 4.2 1.86
16 -13 -9 0.07 1.16
9 -16 -13 0.57 1.04
13 -9 -16 1.51 1.13
-13 -9 16 0.03 2.12
14 9 -16 0.68 1.72
14 9 -16 1.51 1.36
-9 -16 -14 0.13 2.22
9 16 -14 1.07 1.38
9 16 -14 2.64 1.33
16 14 -9 8.07 1.94
-9 -16 14 1.37 2.1
14 -9 -16 -1.11 1.57
9 -16 -14 1.51 1.32
14 -9 -16 1.35 1.22
16 -14 -9 0.94 1.26
9 -16 -14 -0.67 1.85
16 15 -9 0.05 1.9
-9 -16 -15 -0.72 2.58
9 16 -15 2.24 1.27
15 9 -16 2.23 1.46
15 9 -16 0.65 1.79
9 16 -15 -0.37 1.81
16 -15 -9 -0.06 1.37
9 -16 -15 2.05 2.18
15 -9 -16 1.92 1.33
-9 -16 15 3.86 2.29
15 -9 -16 2.21 1.75
16 0 -10 12.79 1.5
0 -10 16 13.88 1.79
16 0 -10 12.27 1.66
10 -16 0 16.14 1.57
0 -10 -16 11.1 1.52
-10 -16 0 14.48 1.87
16 1 -10 4.61 1.05
1 -10 16 2.95 1.32
-10 -16 -1 4.89 1.22
16 1 -10 3.92 1.08
-1 -10 -16 3 1.24
10 -16 1 2.99 1.06
10 16 1 2.8 1.47
16 -1 -10 3.62 1.27
16 -1 -10 3.81 1.14
-10 -16 1 4.31 1.34
-1 -10 16 3.48 1.28
10 -16 -1 4.22 1.03
1 -10 -16 3 1.34
2 10 -16 4.18 0.77
-10 -16 -2 6.89 1.32
16 2 -10 2.68 0.97
16 2 -10 3.05 1.11
2 -10 16 3 1.24
10 -16 2 4.57 1.11
-2 -10 -16 3.08 1.28
-10 -16 2 3.14 1.36
10 16 2 2.4 1.27
10 -16 -2 2.98 0.97
10 -16 -2 3.58 1.06
2 -10 -16 3.27 1.39
-2 -10 16 2.1 1.31
16 -2 -10 4.18 1.07
16 -2 -10 2.44 1.26
-3 -10 -16 4.77 1.38
16 3 -10 4.04 0.99
10 16 -3 2.75 2.07
3 -10 16 4.8 1.35
3 10 -16 5.42 0.79
-10 -16 -3 3.94 1.31
16 3 -10 4.41 1.12
10 -16 3 5.23 1.09
-3 -10 16 3.37 1.31
16 -3 -10 3.95 1.16
10 -16 -3 3.36 1.08
3 -10 -16 5.84 0.95
-10 -16 3 3.45 1.36
16 -3 -10 4.31 1.08
3 -10 -16 4.79 1.41
10 16 3 3.72 1.9
10 -16 -3 4.84 0.98
16 4 -10 3.35 1.02
4 -10 16 2.57 1.31
-10 -16 -4 0.64 1.28
-4 -10 -16 4.53 1.29
10 16 -4 3.81 1.26
4 10 -16 2.72 0.74
16 4 -10 1.15 0.83
10 -16 4 3.54 1.02
16 -4 -10 1.4 0.92
4 -10 -16 2.11 0.89
16 -4 -10 2.88 1.17
-10 -16 4 0.62 1.28
-4 -10 16 2.01 1.23
10 -16 -4 1.18 0.87
10 -16 -4 2.93 1.08
4 -10 -16 3.64 1.26
16 5 -10 11.14 1.35
10 16 -5 11.93 1.52
-5 -10 -16 9.34 1.49
5 10 -16 10.51 1.19
16 5 -10 10.3 1.3
10 -16 5 11.3 1.55
-10 -16 -5 12.71 1.7
5 -10 16 10.6 1.53
-5 -10 16 12.04 1.75
10 -16 -5 9.54 1.16
-10 -16 5 10.61 1.59
10 -16 -5 14.59 1.69
16 -5 -10 11.84 1.45
5 -10 -16 10.66 1.32
16 -5 -10 9.1 1.43
5 -10 -16 7.79 1.6
6 10 -16 0.44 1
-10 -16 -6 0.73 1.34
6 -10 16 3.6 1.29
16 6 -10 1.49 0.93
-6 -10 -16 2.35 1.44
10 16 -6 1.4 1.15
10 -16 6 2.27 1.07
16 6 -10 3.55 1.08
10 -16 -6 0.73 0.82
6 -10 -16 4.29 1.43
16 -6 -10 1.72 1.15
6 -10 -16 0.79 0.77
16 -6 -10 1.56 1.08
-6 -10 16 5.48 1.54
-10 -16 6 0.13 1.3
10 -16 -6 2.05 1.66
7 10 -16 3.82 1.19
7 10 -16 7.41 1.32
10 16 -7 6.03 1.35
-7 -10 -16 4.83 1.51
7 -10 16 7.84 1.43
10 -16 7 6.67 1.24
-10 -16 -7 1.76 1.39
10 16 -7 7.4 1.66
16 7 -10 6.31 1.19
16 7 -10 7.17 1.22
10 -16 -7 5.84 1.06
7 -10 -16 4.77 0.95
16 -7 -10 6.53 1.32
16 -7 -10 4.8 1.29
-10 -16 7 7.65 1.51
10 -16 -7 5.87 1.33
16 8 -10 0.3 0.97
10 16 -8 1.57 1.2
-8 -10 -16 -0.79 1.41
8 10 -16 -0.52 1.11
10 -16 8 0.65 1.11
-10 -16 -8 1.45 1.52
8 -10 16 0.88 1.2
8 10 -16 2.93 1.14
10 16 -8 1.01 0.83
16 8 -10 -0.11 0.83
16 -8 -10 -0.06 1.12
-8 -10 16 -1.53 1.45
-10 -16 8 -0.43 1.42
10 -16 -8 0.3 0.9
8 -10 -16 0.41 1.35
8 -10 -16 -0.71 0.76
16 -8 -10 0.93 1.2
16 9 -10 2.97 1.12
16 9 -10 3.24 1.1
9 10 -16 4.46 1.26
9 -10 16 3 1.98
10 16 -9 4.27 1
-10 -16 -9 0.47 2.53
10 16 -9 6.09 1.39
9 10 -16 4.32 1.31
10 -16 -9 4.54 1
16 -9 -10 2.54 1.22
9 -10 -16 5.31 1.5
-9 -10 16 7.14 1.84
-10 -16 9 6.14 1.77
9 -10 -16 1.56 0.93
16 -9 -10 5.9 1.33
10 -16 -9 2.05 1.38
10 10 -16 1.1 1.1
16 10 -10 -0.05 1.01
10 -16 10 0.26 1.26
10 10 -16 0.78 1.38
10 16 -10 -0.31 1.23
-10 -10 -16 -0.45 1.68
16 10 -10 1.96 1.42
-10 -16 -10 2.16 1.73
10 16 -10 1.08 0.96
10 -16 -10 0.92 0.96
10 -16 -10 2.3 1.51
10 -10 -16 -1.05 1.45
16 -10 -10 2.77 1.27
16 -10 -10 1.25 1.2
-10 -10 16 1.59 1.68
-10 -16 10 -0.87 1.57
10 -10 -16 -0.81 0.91
11 10 -16 9.86 1.68
16 11 -10 8.86 1.81
11 10 -16 7.57 1.47
10 16 -11 7.41 1.23
16 11 -10 8.42 1.3
10 16 -11 9.63 1.57
-10 -16 -11 9.54 2.1
16 -11 -10 8.98 1.51
10 -16 -11 7.58 1.69
10 -16 -11 9.3 1.25
11 -10 -16 7.22 1.2
16 -11 -10 10.7 1.62
11 -10 -16 9.09 1.65
-11 -10 16 10.02 2.07
-10 -16 11 11.09 2.16
10 16 -12 6.31 1.31
16 12 -10 3.96 1.2
16 12 -10 5.96 1.81
12 10 -16 7.09 1.39
12 10 -16 6.61 1.7
-10 -16 -12 1.22 2.18
10 16 -12 5.72 1.47
-10 -16 12 4.8 1.95
12 -10 -16 6.22 1.29
10 -16 -12 6.38 1.18
10 -16 -12 2.94 1.71
16 -12 -10 4.33 1.39
-12 -10 16 3.74 2.11
16 -12 -10 7.39 1.62
16 13 -10 2.72 1.84
16 13 -10 4.01 1.27
-10 -16 -13 -3.67 2.97
13 10 -16 3.28 1.72
10 16 -13 4.36 1.45
13 10 -16 3.68 1.45
10 16 -13 1.25 1.19
13 -10 -16 3.53 1.22
16 -13 -10 0.87 1.25
10 -16 -13 2.37 1.93
-10 -16 13 4.79 2.11
16 -13 -10 4.44 1.66
10 -16 -13 1.19 1.11
14 10 -16 -1.24 1.73
10 16 -14 2.77 1.53
16 14 -10 5.35 1.95
14 10 -16 0.87 1.31
10 16 -14 1.74 1.24
14 -10 -16 1.08 1.2
10 -16 -14 4.68 2.08
-10 -16 14 2.46 2.15
16 -14 -10 1.09 1.26
10 -16 -14 3.7 1.21
14 -10 -16 2.11 1.67
10 16 -15 5.48 1.66
15 10 -16 7.88 1.67
10 16 -15 5.44 1.47
15 10 -16 1.29 1.85
16 15 -10 7.52 2.08
15 -10 -16 3.38 1.92
15 -10 -16 4.05 1.4
16 -15 -10 7.08 1.61
-11 -16 0 101.22 3.95
0 -11 16 92.87 4.11
11 16 0 100.53 3.94
0 -11 -16 92.8 4
16 0 -11 92.49 3.72
11 -16 0 97.01 3.5
1 -11 16 8.2 1.64
11 -16 1 6.44 1.12
-11 -16 -1 8.44 1.55
16 1 -11 8.45 1.35
-1 -11 -16 10.06 1.67
11 16 -1 9.23 1.51
16 1 -11 6.48 1.12
1 -11 -16 7.18 1.58
11 -16 -1 8.39 1.23
16 -1 -11 6.71 1.22
11 -16 -1 8.87 1.2
16 -1 -11 7.28 1.16
-1 -11 16 7.81 1.62
-11 -16 1 9.36 1.49
11 16 1 7.78 1.51
11 16 -2 0.03 1.12
2 -11 16 1.63 1.24
16 2 -11 -1.08 0.96
-2 -11 -16 0.28 1.21
11 -16 2 -0.61 0.95
-11 -16 -2 -0.79 1.25
16 2 -11 -0.1 0.74
16 -2 -11 -0.86 0.91
11 16 2 0.22 1.21
11 -16 -2 0.26 0.98
-2 -11 16 0.14 1.34
16 -2 -11 0.41 0.82
2 -11 -16 1.79 1.28
-11 -16 2 -1.35 1.25
11 -16 -2 -0.27 0.81
-3 -11 -16 7.55 1.56
16 3 -11 6.19 1.05
3 11 -16 8.22 1.08
11 -16 3 7.07 1.11
-11 -16 -3 6.47 1.5
3 -11 16 6.12 1.47
11 16 -3 5.67 1.37
16 3 -11 8.54 1.35
16 -3 -11 6.57 1.1
11 -16 -3 4.81 1.14
-3 -11 16 8.3 1.53
-11 -16 3 5.47 1.47
3 -11 -16 6.05 1.35
11 16 3 4.69 1.33
16 -3 -11 5.6 1.29
11 -16 -3 7.03 1.2
11 16 -4 -0.8 1.19
16 4 -11 0.91 0.97
-4 -11 -16 2.31 1.28
-11 -16 -4 1 1.39
4 11 -16 2.1 0.75
16 4 -11 0.27 0.81
4 -11 16 1.7 1.42
11 -16 4 3.08 1.07
16 -4 -11 1.22 0.87
-4 -11 16 2.68 1.36
-11 -16 4 3.97 1.4
16 -4 -11 1.4 1.11
4 -11 -16 -1.92 0.89
11 -16 -4 0.18 0.8
11 -16 -4 0.19 1.06
16 5 -11 68.47 2.95
5 -11 16 76.02 4.71
16 5 -11 66.75 2.99
11 16 -5 72.15 3.18
-5 -11 -16 70.95 3.31
11 -16 5 67.67 2.74
5 11 -16 69.39 2.71
5 -11 -16 61.3 2.81
11 -16 -5 60.05 2.84
5 -11 -16 70.5 3.83
11 -16 -5 67.62 2.91
-11 -16 5 69.67 3.36
16 -5 -11 68.28 2.9
16 -5 -11 69.33 3.15
11 -16 6 26.47 1.97
-11 -16 -6 30.05 2.53
11 16 -6 30.74 2.27
16 6 -11 29.41 2.06
6 11 -16 30.89 2.03
16 6 -11 31.68 1.99
16 -6 -11 32.71 2.24
-6 -11 16 30.59 2.41
6 -11 -16 28.32 2.26
16 -6 -11 27.39 2.01
-11 -16 6 27.65 2.5
11 -16 -6 31.98 1.91
6 -11 -16 32.77 1.71
11 -16 -6 32.67 2.03
7 11 -16 0.24 1.05
-11 -16 -7 -0.96 1.54
11 16 -7 1.21 1.27
7 -11 16 1.22 1.37
7 11 -16 2.42 1.1
16 7 -11 -1.28 0.94
16 7 -11 -0.68 0.85
-7 -11 -16 0.3 1.62
16 -7 -11 -0.02 1.04
11 -16 -7 -0.28 0.86
7 -11 -16 0.28 0.82
-7 -11 16 2.1 1.5
11 -16 -7 1.39 1.21
7 -11 -16 -0.28 1.43
16 -7 -11 2.26 1.27
-11 -16 7 0.13 1.43
11 16 -8 5.98 1.11
16 8 -11 7.48 1.3
8 11 -16 9.03 1.48
8 11 -16 9.93 1.48
11 16 -8 9.07 1.54
8 -11 16 9.6 1.54
16 8 -11 7.09 1.32
-8 -11 -16 11.88 1.86
-11 -16 -8 9.97 2.06
11 -16 -8 9.66 1.52
11 -16 -8 9.7 1.31
16 -8 -11 9 1.53
16 -8 -11 7.02 1.41
8 -11 -16 13.01 1.38
8 -11 -16 10.01 1.71
-8 -11 16 8.96 1.85
-9 -11 -16 1.54 1.6
9 11 -16 0.86 1.22
11 16 -9 -0.88 0.89
16 9 -11 -0.03 1.25
16 9 -11 -0.34 1.03
9 11 -16 0.09 1.05
11 16 -9 -0.8 1.33
9 -11 16 0.31 1.34
-11 -16 9 4.08 1.77
-9 -11 16 0.84 1.56
11 -16 -9 -2.7 1.38
11 -16 -9 -0.58 0.87
9 -11 -16 1.23 0.97
16 -9 -11 1.27 1.18
16 -9 -11 0.44 1.29
9 -11 -16 0.64 1.51
11 16 -10 7.84 1.16
10 11 -16 7.54 1.56
-10 -11 -16 7.24 1.99
16 10 -11 7.21 1.34
11 16 -10 9.21 1.63
16 10 -11 9.8 1.74
10 11 -16 9.29 1.42
11 -16 -10 7.34 1.61
16 -10 -11 6.57 1.45
-10 -11 16 12.12 2.15
-11 -16 10 6.17 1.93
16 -10 -11 9.98 1.59
10 -11 -16 10.79 1.76
11 -16 -10 7.52 1.27
10 -11 -16 9.31 1.3
11 11 -16 63.13 3.22
11 16 -11 60.99 3.12
16 11 -11 57.53 3.34
11 16 -11 54.03 2.7
16 11 -11 58.77 2.85
11 -11 -16 59.3 3.26
11 -11 -16 63.38 2.84
-11 -11 16 61.45 3.76
-11 -16 11 59.58 3.69
16 -11 -11 65.75 3.11
16 12 -11 -2.87 1.55
12 11 -16 -0.45 1.21
11 16 -12 2.51 1.55
16 12 -11 -0.58 1.16
12 11 -16 -0.01 1.49
11 16 -12 0.15 1.13
16 -12 -11 1.46 1.33
-12 -11 16 1.98 2.14
16 -12 -11 3.53 1.56
12 -11 -16 -0.06 1.12
11 -16 -12 0.26 1.06
-11 -16 12 -1.89 2
11 16 -13 0.47 1.25
11 16 -13 4.61 1.55
13 11 -16 5.09 1.49
16 13 -11 3.21 1.29
16 13 -11 2.2 1.83
13 11 -16 1.72 1.68
11 -16 -13 2.75 1.2
16 -13 -11 1.72 1.35
-11 -16 13 0.38 2.27
16 -13 -11 3.77 1.69
13 -11 -16 2.35 1.17
11 16 -14 -2.1 1.3
11 16 -14 1.19 1.57
14 11 -16 4.09 1.87
16 14 -11 3.16 1.86
14 11 -16 1.15 1.38
16 -14 -11 -0.45 1.31
14 -11 -16 0.34 1.76
11 -16 -14 0.79 1.24
14 -11 -16 0.27 1.24
16 15 -11 1.06 1.82
15 11 -16 2.46 1.55
11 16 -15 -0.24 1.41
11 16 -15 -2.49 1.58
15 11 -16 2.58 1.94
15 -11 -16 0.83 1.24
16 -15 -11 -1.76 1.25
11 -16 -15 1.75 1.44
15 -11 -16 -1.17 1.79
16 0 -12 0.66 0.86
12 16 0 -0.02 1.22
16 0 -12 -0.06 1.02
0 -12 16 -1.13 2.18
-12 -16 0 0.09 1.39
1 -12 16 3.1 1.67
12 16 -1 5.2 1.47
16 1 -12 3.72 1.13
-12 -16 -1 8.15 1.72
16 1 -12 4.7 1.04
16 -1 -12 4.17 1.01
12 -16 -1 4.76 1.17
-1 -12 16 2.73 1.69
16 -1 -12 3.52 1.19
-12 -16 1 3.04 1.51
12 16 1 5.01 1.42
1 -12 -16 4.34 1.8
2 -12 16 3.89 1.72
12 16 -2 3.07 1.31
16 2 -12 1.66 0.96
16 2 -12 4.66 1.23
-2 -12 16 3.71 1.54
2 -12 -16 3.63 1.56
12 -16 -2 3.04 1.07
16 -2 -12 4.1 1.23
12 16 2 3.55 1.44
16 -2 -12 1.84 0.89
-12 -16 2 1.86 1.52
16 3 -12 0.52 0.98
-3 -12 -16 1.28 1.54
3 -12 16 2.11 1.43
12 16 -3 1.27 1.21
16 3 -12 1.43 0.88
-12 -16 3 0.4 1.46
3 -12 -16 2.28 1.54
-3 -12 16 3.67 1.41
12 -16 -3 0.95 1.01
16 -3 -12 -0.58 1.01
12 16 3 1.42 1.3
16 -3 -12 1.81 0.93
16 4 -12 13.9 1.74
4 -12 16 15.56 2.09
4 12 -16 16 1.25
-4 -12 -16 15.32 1.96
12 16 -4 19.16 2.01
16 4 -12 15.85 1.47
-4 -12 16 17.86 2.13
16 -4 -12 12.75 1.64
4 -12 -16 17.11 2.2
16 -4 -12 13.56 1.52
-12 -16 4 13.75 1.85
12 -16 -4 11.84 1.52
5 12 -16 1.06 1.56
16 5 -12 0.78 0.88
16 5 -12 0.38 1.04
5 -12 16 -0.05 1.36
12 16 -5 -0.33 1.27
-5 -12 -16 0.08 1.3
-12 -16 5 -1.67 1.53
16 -5 -12 1.5 1.2
16 -5 -12 0.61 0.89
5 -12 -16 -1.09 1.43
12 -16 -5 -1.88 0.82
-5 -12 16 1.53 1.49
5 -12 -16 -0.93 0.77
-6 -12 -16 4.34 1.51
6 12 -16 4.64 1.22
16 6 -12 3.15 1.17
12 16 -6 3.83 1.43
6 -12 16 3.84 1.37
16 6 -12 3.05 1.05
-6 -12 16 6.12 1.73
16 -6 -12 4.92 1.12
12 -16 -6 2.95 1.06
6 -12 -16 1.24 1.57
-12 -16 6 6.78 1.79
6 -12 -16 4.12 0.86
16 -6 -12 3.26 1.23
-7 -12 -16 9.48 1.9
16 7 -12 7.99 1.4
7 12 -16 14.45 1.78
7 12 -16 7.51 1.37
12 16 -7 11.19 1.72
16 7 -12 7.7 1.3
7 -12 16 15.18 2.1
7 -12 -16 8.58 1.13
-7 -12 16 13.22 1.99
16 -7 -12 11.02 1.51
7 -12 -16 12.08 1.87
12 -16 -7 8.33 1.23
16 -7 -12 7.76 1.43
-8 -12 -16 1.76 1.71
8 12 -16 4.19 1.3
16 8 -12 1.12 1.12
8 -12 16 0.33 1.47
8 12 -16 -0.13 1.24
16 8 -12 1.39 1
12 16 -8 1.27 1.45
8 -12 -16 -1.17 0.88
8 -12 -16 2.18 1.55
12 -16 -8 -0.63 0.95
-8 -12 16 -0.12 1.76
16 -8 -12 1.34 1.22
16 -8 -12 1.78 1.3
-12 -16 8 -0.45 1.83
-9 -12 -16 -1.04 1.59
16 9 -12 0.54 1.51
16 9 -12 -1.24 1.09
9 12 -16 0.64 1.3
9 12 -16 1.95 1.18
12 16 -9 1.13 1.44
16 -9 -12 2.46 1.49
9 -12 -16 1.99 1.75
12 -16 -9 0.3 1.04
-9 -12 16 -0.96 1.76
16 -9 -12 0.86 1.11
-12 -16 9 -2.21 1.81
9 -12 -16 0.99 0.95
12 16 -10 4.97 1.21
-10 -12 -16 7.1 2.07
10 12 -16 5.38 1.62
16 10 -12 3.57 1.72
12 16 -10 3.93 1.61
10 12 -16 3.41 1.27
16 10 -12 3.17 1.27
16 -10 -12 5.95 1.63
10 -12 -16 6.01 1.15
12 -16 -10 3.85 1.16
10 -12 -16 2.78 1.78
-10 -12 16 1.99 2.04
-12 -16 10 9.1 2.26
16 -10 -12 5.41 1.35
12 16 -11 1.41 1.57
11 12 -16 -1.02 1.25
11 12 -16 -0.23 1.5
12 16 -11 -0.68 1.11
16 11 -12 0.34 1.17
16 11 -12 0.28 1.58
16 -11 -12 1.24 1.25
-11 -12 16 0.17 2.12
-12 -16 11 -2.89 2.43
11 -12 -16 1.72 1.06
12 -16 -11 0.7 1.15
16 -11 -12 -0.49 1.54
12 12 -16 9.46 1.58
16 12 -12 14.61 2.11
12 16 -12 13.57 1.91
16 12 -12 12.35 1.54
12 12 -16 13.1 2.01
12 16 -12 10.36 1.49
16 -12 -12 12.31 1.8
16 -12 -12 13.23 1.94
-12 -12 16 6.33 2.56
12 -16 -12 13.76 1.86
13 12 -16 1.02 1.38
16 13 -12 0.97 1.38
12 16 -13 0.32 1.63
16 13 -12 -1.2 1.74
12 16 -13 0.36 1.32
13 12 -16 -0.47 1.74
12 -16 -13 -0.25 1.23
16 -13 -12 2 1.78
16 -13 -12 -0.02 1.32
13 -12 -16 1.71 1.28
16 14 -12 1.69 1.82
12 16 -14 0.57 1.6
14 12 -16 0.38 1.48
12 16 -14 2.4 1.45
14 12 -16 0.37 1.8
16 -14 -12 1.64 1.38
12 -16 -14 1.31 1.35
14 -12 -16 -0.34 1.79
14 -12 -16 0.12 1.34
15 12 -16 2.24 1.97
15 12 -16 -0.45 1.74
16 15 -12 1.57 1.97
12 16 -15 4.68 1.84
15 -12 -16 1.32 1.87
12 -16 -15 1.45 2.56
15 -12 -16 1.38 1.54
16 -15 -12 2.92 1.53
13 16 0 7.87 1.58
16 0 -13 7.28 1.15
0 -13 -16 8.15 1.6
16 0 -13 5.14 1.29
0 -13 16 12.06 1.88
13 16 -1 1.76 1.44
16 1 -13 0.3 1.14
16 1 -13 1.61 0.97
1 -13 16 -0.17 1.37
-1 -13 -16 2.42 1.46
13 16 1 -0.1 1.31
-1 -13 16 3.2 1.55
16 -1 -13 0.45 0.9
1 -13 -16 2.17 1.56
13 -16 -1 1.16 1.07
16 -1 -13 0.46 1.06
16 2 -13 2.78 1.25
16 2 -13 2.63 0.97
-2 -13 -16 2.71 1.51
2 -13 16 1.5 1.59
13 16 -2 4.16 1.47
16 -2 -13 2.54 0.95
-2 -13 16 4.98 1.5
13 -16 -2 2.6 1.1
16 -2 -13 3.07 1.25
13 16 2 2.77 1.42
2 -13 -16 2.49 1.38
16 3 -13 3.4 1.04
-3 -13 -16 5.47 1.61
13 16 -3 2.41 1.42
16 3 -13 3.44 1.26
3 -13 16 4.99 1.7
13 16 3 3.33 1.1
16 -3 -13 4.51 1.03
3 -13 -16 2.22 1.55
13 -16 -3 4.76 1.26
16 -3 -13 1.92 1.2
-3 -13 16 1.72 1.42
-4 -13 -16 0.54 1.56
4 -13 16 2.5 1.5
13 16 -4 0.84 1.33
16 4 -13 1.67 0.93
16 4 -13 0.77 1.16
13 -16 -4 -1.35 0.91
16 -4 -13 0.63 1.08
4 -13 -16 -1.16 1.35
-4 -13 16 0.96 1.61
16 -4 -13 -0.01 0.9
16 5 -13 1.71 1.2
-5 -13 -16 0.95 1.58
16 5 -13 -0.11 0.95
13 16 -5 0.45 1.34
5 -13 16 2.24 1.56
16 -5 -13 0.8 0.97
-5 -13 16 1.89 1.6
13 -16 -5 1.19 0.99
5 -13 -16 -1.23 1.53
16 -5 -13 1.66 1.12
16 6 -13 -0.08 1.19
6 -13 16 -1.97 1.45
16 6 -13 -0.46 0.92
6 13 -16 2.63 1.21
-6 -13 -16 0.05 1.55
13 16 -6 0.86 1.4
6 -13 -16 2.99 1.7
16 -6 -13 1.55 1.1
13 -16 -6 -0.46 0.97
-6 -13 16 1.87 1.75
16 -6 -13 -0.15 1.01
16 7 -13 1.6 1.01
-7 -13 -16 -0.48 1.63
16 7 -13 -0.05 1.13
7 13 -16 0.1 1.18
13 16 -7 -1.73 1.4
7 13 -16 -0.68 1.21
7 -13 16 0.59 1.51
7 -13 -16 -0.41 1.65
-7 -13 16 5 1.87
7 -13 -16 -0.45 0.91
13 -16 -7 0.79 1.09
16 -7 -13 -1.11 1.09
16 -7 -13 -0.43 1.2
16 8 -13 1.35 1.15
8 -13 16 4.61 1.68
8 13 -16 3.01 1.36
16 8 -13 3.27 1.65
8 13 -16 5.82 1.43
13 16 -8 5.44 1.66
-8 -13 -16 4.81 1.87
-8 -13 16 0.71 1.86
16 -8 -13 4.5 1.53
13 -16 -8 3.91 1.2
8 -13 -16 2.81 1.03
16 -8 -13 2.78 1.31
8 -13 -16 3.67 1.75
16 9 -13 0.51 1.22
13 16 -9 3.12 1.63
9 13 -16 0.1 1.36
16 9 -13 -0.31 1.5
9 13 -16 1.23 1.17
-9 -13 -16 -0.21 2.02
13 -16 -9 1.04 1.07
-9 -13 16 -0.52 1.94
9 -13 -16 3.04 1.08
16 -9 -13 -0.32 1.48
16 -9 -13 0.27 1.26
9 -13 -16 2.05 1.82
16 10 -13 0.99 1.67
-10 -13 -16 1.71 2.6
10 13 -16 2.72 1.53
10 13 -16 2.39 1.31
16 10 -13 3.29 1.37
13 16 -10 2.62 1.7
13 -16 -10 0.85 1.2
10 -13 -16 3.89 1.91
10 -13 -16 3.31 1.16
-10 -13 16 8.61 2.17
16 -10 -13 1.43 2.04
16 -10 -13 0.39 1.16
11 13 -16 1.38 1.33
13 16 -11 2.71 1.68
11 13 -16 3.11 1.72
16 11 -13 3.96 1.86
13 16 -11 3.45 2.08
16 11 -13 2.41 1.32
16 -11 -13 3.45 1.3
13 -16 -11 1.83 1.24
-11 -13 16 3.95 2.35
16 -11 -13 2.33 1.69
11 -13 -16 3.87 1.22
12 13 -16 0.24 1.33
13 16 -12 -1.31 1.43
16 12 -13 -0.22 1.86
13 16 -12 -1.98 1.63
16 12 -13 1.02 1.34
12 13 -16 -0.01 1.71
16 -12 -13 2.58 1.76
16 -12 -13 2.77 1.39
13 -16 -12 -1.07 1.25
12 -13 -16 2.59 1.32
13 16 -13 1.38 1.75
16 13 -13 1.32 1.44
13 13 -16 2.12 1.83
16 13 -13 1.33 1.91
13 13 -16 3.21 1.45
13 16 -13 0.63 1.39
16 -13 -13 5.64 1.89
13 -16 -13 2.92 1.38
16 -13 -13 1.3 1.41
13 -13 -16 4.65 1.54
14 13 -16 4.98 2.12
13 16 -14 2.14 1.77
16 14 -13 3.8 2.02
14 13 -16 2.74 1.63
14 -13 -16 8.7 1.82
14 -13 -16 1.85 1.98
16 -14 -13 11.2 2.14
16 -14 -13 4.88 1.59
13 16 -15 0.33 1.56
15 13 -16 1.24 1.59
15 13 -16 0 2.01
16 15 -13 -0.56 1.89
13 -16 -15 2.79 1.5
15 -13 -16 3.45 3.14
16 -15 -13 -1.33 1.41
15 -13 -16 -1.34 1.52
0 -14 16 12.59 1.93
16 0 -14 6.96 1.44
16 0 -14 9.58 1.42
0 -14 -16 10.85 1.97
14 16 0 10.46 1.89
-1 -14 -16 -0.53 1.59
16 1 -14 2.01 1.08
16 1 -14 0.11 1.11
1 -14 16 1.79 1.64
14 16 -1 -0.41 1.4
16 -1 -14 -0.53 0.99
-1 -14 16 2.4 1.52
14 -16 -1 1.58 1.16
16 -1 -14 -0.13 1.11
1 -14 -16 -1.14 1.53
14 16 1 1.06 1.39
16 2 -14 3.18 1.13
-2 -14 -16 4.93 1.75
2 -14 16 7.48 1.83
16 2 -14 3.38 1.32
14 16 -2 4.38 1.57
2 -14 -16 3.27 1.69
-2 -14 16 6.04 1.85
14 -16 -2 4.35 1.23
16 -2 -14 5.34 1.39
16 -2 -14 7.19 1.34
14 16 2 6.65 1.29
16 3 -14 8.71 1.31
-3 -14 -16 7.63 1.84
14 16 -3 9.48 1.8
16 3 -14 9.21 1.59
3 -14 16 8.77 1.88
3 -14 -16 7.61 1.92
14 -16 -3 11.37 1.59
16 -3 -14 10.04 1.47
16 -3 -14 7.98 1.48
14 16 3 8.3 1.41
-3 -14 16 7.57 1.77
16 4 -14 1.55 1.15
14 16 -4 3.7 1.61
-4 -14 -16 -0.2 1.48
16 4 -14 3.56 1.07
4 -14 16 1.6 1.67
14 -16 -4 0.73 1.11
4 -14 -16 1.85 1.64
16 -4 -14 0.2 1.22
16 -4 -14 4.42 1.34
-4 -14 16 2.73 1.65
5 -14 16 2.01 1.63
-5 -14 -16 -0.44 1.64
16 5 -14 -1.66 1.11
16 5 -14 0.4 0.92
14 16 -5 -0.01 1.53
16 -5 -14 -2.59 1.23
5 -14 -16 -0.31 1.57
14 -16 -5 -1.97 1.05
-5 -14 16 -0.11 1.72
16 -5 -14 0 1.19
14 16 -6 -0.74 1.51
-6 -14 -16 -0.06 1.78
6 -14 16 1.04 1.61
16 6 -14 0.48 1.27
16 6 -14 -0.22 0.98
6 -14 -16 -1.01 1.67
16 -6 -14 0.45 1.17
16 -6 -14 1.24 1.5
14 -16 -6 1.56 1.21
-6 -14 16 -3.14 1.71
7 -14 16 -2.52 1.61
7 14 -16 -1.16 1.29
16 7 -14 -1.11 1.21
14 16 -7 0.09 1.52
16 7 -14 0.95 1.31
-7 -14 -16 1.41 1.89
7 14 -16 -0.81 1.09
16 -7 -14 0.94 1.48
14 -16 -7 0.89 1.1
-7 -14 16 6.66 2.02
16 -7 -14 0.22 1.17
7 -14 -16 -0.9 1.81
8 14 -16 4.86 1.39
8 14 -16 3.25 1.5
-8 -14 -16 0.38 1.99
16 8 -14 3.25 1.31
8 -14 16 5.83 1.89
14 16 -8 5.4 1.74
16 8 -14 3.63 1.64
8 -14 -16 7.03 2.01
14 -16 -8 5.42 1.36
16 -8 -14 6.23 1.68
16 -8 -14 5.83 1.54
8 -14 -16 4.14 1.24
-8 -14 16 5.37 2.16
-9 -14 -16 -1.07 2.18
9 14 -16 1.75 1.34
16 9 -14 1.38 1.71
14 16 -9 2.32 1.82
9 14 -16 1.71 1.5
16 9 -14 -0.01 1.29
9 -14 -16 1.04 1.15
9 -14 -16 1.61 1.83
16 -9 -14 0.74 1.22
-9 -14 16 -0.86 2.02
14 -16 -9 1.86 1.28
16 -9 -14 -0.55 1.6
16 10 -14 2.21 1.86
10 14 -16 2.27 1.62
14 16 -10 2.6 1.81
16 10 -14 1.06 1.38
10 14 -16 1.29 1.33
10 -14 -16 -0.88 2.03
-10 -14 16 -1.72 2.24
10 -14 -16 0.42 1.22
16 -10 -14 2.27 1.66
14 -16 -10 3.69 1.29
16 -10 -14 -0.43 1.27
14 16 -11 2.14 1.77
16 11 -14 0.35 1.31
11 14 -16 -0.57 1.27
16 11 -14 3.11 1.94
11 14 -16 0.66 1.63
16 -11 -14 0.61 1.34
16 -11 -14 -0.15 1.72
11 -14 -16 -0.95 1.26
14 -16 -11 -2.1 1.14
12 14 -16 0.51 1.32
16 12 -14 -1.4 1.88
14 16 -12 3.43 1.98
12 14 -16 -1.05 1.66
16 12 -14 -1.32 1.41
16 -12 -14 3.3 1.85
12 -14 -16 -0.72 1.32
14 -16 -12 -0.69 1.27
16 -12 -14 2.62 1.41
13 14 -16 2.92 1.68
16 13 -14 2.76 2.06
13 14 -16 4.44 1.94
16 13 -14 3.2 2.64
14 16 -13 2.48 1.92
14 -16 -13 9.35 3
16 -13 -14 2.84 1.43
16 -13 -14 6.31 2
14 -16 -13 6.28 1.77
14 14 -16 3.4 2.11
16 14 -14 2.8 1.72
14 14 -16 4.03 1.63
14 16 -14 5.79 2.29
16 14 -14 8.08 2.19
14 -16 -14 8.84 2.79
16 -14 -14 7.7 4.07
14 -14 -16 7.62 3.31
16 -14 -14 4.73 1.6
14 -16 -14 5.98 1.63
14 -14 -16 4.56 1.56
15 14 -16 -2.57 1.69
14 16 -15 -0.46 1.89
14 16 -15 0.85 2.09
15 14 -16 3.74 2.06
16 15 -14 0.69 2.01
14 -16 -15 2.45 2.24
16 -15 -14 -0.48 1.42
15 -14 -16 1.56 1.61
15 -14 -16 -2.05 2.04
14 -16 -15 0.17 1.51
0 -15 16 0.94 1.75
15 16 0 1.83 1.16
0 -15 -16 3.7 1.68
16 0 -15 -1.01 1.26
16 0 -15 1.38 1.43
1 -15 16 9.16 1.99
16 1 -15 0.96 1.23
16 1 -15 4.64 1.38
-1 -15 -16 1.86 1.6
15 16 -1 6.06 1.8
15 16 1 4.65 1.27
-1 -15 16 3.08 1.89
16 -1 -15 2.52 1.3
1 -15 -16 1.49 1.78
15 -16 -1 5.16 1.36
16 -1 -15 4.2 1.57
-2 -15 -16 -3.47 1.72
16 2 -15 1.18 0.98
15 16 -2 0.25 1.61
16 2 -15 1.86 1.34
2 -15 16 -0.31 1.67
15 16 2 -0.16 1.05
-2 -15 16 -0.5 1.62
15 -16 -2 0.75 1.25
16 -2 -15 -0.17 1.4
16 -2 -15 0.1 1.23
2 -15 -16 2.8 1.74
3 -15 16 -0.15 1.66
-3 -15 -16 -0.7 1.54
15 16 -3 -0.3 1.61
16 3 -15 -0.28 0.97
16 3 -15 -1.5 1.21
16 -3 -15 -1.49 1.18
15 -16 -3 2.05 1.27
15 16 3 0.33 0.99
-3 -15 16 -0.73 1.71
3 -15 -16 3.24 1.89
16 -3 -15 0.59 1.38
16 4 -15 9.42 1.61
4 -15 16 9.56 2.08
16 4 -15 11.83 1.55
-4 -15 -16 8.87 2.04
15 16 -4 8.64 1.88
-4 -15 16 13.48 2.25
4 -15 -16 10.74 2.11
16 -4 -15 8.87 1.75
15 -16 -4 8.94 1.56
16 -4 -15 7.12 1.55
15 16 -5 -1.16 1.6
5 -15 16 -2.18 1.71
-5 -15 -16 0.87 1.8
16 5 -15 0.04 1.27
16 5 -15 -0.69 1.02
5 -15 -16 4.91 1.91
-5 -15 16 2.12 1.91
16 -5 -15 -0.03 1.24
15 -16 -5 -1.7 1.09
16 -5 -15 -0.35 1.37
15 16 -6 0.79 1.72
6 -15 16 2.05 1.73
16 6 -15 -0.37 1.28
16 6 -15 -0.49 1.07
6 15 -16 0.71 1.21
16 -6 -15 1.16 1.25
15 -16 -6 0.67 1.25
-6 -15 16 -0.05 1.95
6 -15 -16 4.51 2.01
16 -6 -15 0.8 1.48
7 -15 16 10.35 1.98
15 16 -7 3.34 1.71
7 15 -16 6.01 1.48
-7 -15 -16 4.12 1.96
16 7 -15 6.54 1.48
16 7 -15 6.07 1.86
16 -7 -15 8.15 1.76
7 -15 -16 6.87 1.98
-7 -15 16 7.23 2.01
16 -7 -15 5.69 1.44
15 -16 -7 5.85 1.44
15 16 -8 2.31 1.8
-8 -15 -16 -0.05 2.28
16 8 -15 -2.69 1.23
8 15 -16 0.17 1.23
16 8 -15 0.75 1.65
8 15 -16 4.77 1.64
8 -15 -16 -0.52 2.01
16 -8 -15 -0.96 1.52
16 -8 -15 1.47 1.42
-8 -15 16 4.18 2.23
15 -16 -8 -0.71 1.26
-9 -15 -16 0.19 2.63
16 9 -15 -1.52 1.64
9 15 -16 0.5 1.27
9 15 -16 1.35 1.47
15 16 -9 1.63 1.88
16 9 -15 -0.08 1.31
9 -15 -16 4.56 2.16
15 -16 -9 -0.2 1.28
16 -9 -15 0.96 1.31
16 -9 -15 -0.14 1.66
-9 -15 16 2.33 2.42
16 10 -15 4.76 1.52
16 10 -15 5.37 1.98
10 15 -16 6.28 1.66
10 15 -16 5.46 1.54
15 16 -10 5.87 1.97
16 -10 -15 4.83 1.9
10 -15 -16 3.69 2.25
15 -16 -10 3.73 1.45
16 -10 -15 2.88 1.38
15 16 -11 0.96 1.83
16 11 -15 -0.77 1.48
11 15 -16 2.88 1.66
16 11 -15 0.68 1.95
11 15 -16 2.09 1.41
16 -11 -15 -0.88 1.86
16 -11 -15 -0.54 1.28
11 -15 -16 -1.47 1.36
15 -16 -11 0.87 1.41
16 12 -15 4.23 2.14
12 15 -16 -0.01 2.01
15 16 -12 1.31 1.94
12 15 -16 6.45 1.86
12 -15 -16 3.49 2.48
16 -12 -15 4.8 1.66
15 -16 -12 1.51 1.88
16 -12 -15 4.15 1.97
16 13 -15 0.55 1.61
16 13 -15 -1.36 1.94
13 15 -16 -3.21 1.48
15 16 -13 0.74 2.01
15 -16 -13 0.96 1.42
16 -13 -15 -1.9 1.44
13 -15 -16 -0.83 1.42
16 14 -15 1.22 1.77
16 14 -15 3.27 2.21
15 16 -14 -0.38 1.96
14 15 -16 3.08 1.79
14 15 -16 1.81 1.89
15 -16 -14 -0.72 1.5
14 -15 -16 4.03 2.17
16 -14 -15 2.83 1.58
16 -14 -15 -0.63 2.18
15 15 -16 3.88 1.99
16 15 -15 4.83 2.07
15 16 -15 3.64 2.07
15 15 -16 5.26 1.89
15 -16 -15 1.42 1.68
15 -15 -16 3.55 2.35
16 -15 -15 3.98 1.62
15 -15 -16 2.61 1.62
0 -16 -16 50.77 3.48
0 -16 16 51.35 3.59
16 0 -16 50.71 2.99
16 16 0 55.31 2.86
-1 -16 -16 4.51 1.99
16 1 -16 0.64 1.05
16 16 -1 1.45 1.17
1 -16 16 5.33 2.02
16 1 -16 1.58 1.36
16 -1 -16 -1.46 1.72
16 -1 -16 -1.55 1.2
-1 -16 16 1.3 1.91
1 -16 -16 2.38 1.89
16 16 1 -0.04 1.22
-2 -16 -16 -0.7 1.81
16 16 -2 2.31 1.9
16 2 -16 0.67 0.99
2 -16 16 1.44 1.83
16 2 -16 -0.39 1.3
16 -2 -16 1.01 1.36
16 -2 -16 2.1 1.54
16 -16 -2 1.34 1.41
2 -16 -16 2.29 1.9
-2 -16 16 0.36 1.9
16 16 2 2.03 1.25
-3 -16 -16 7.69 2.14
16 16 -3 6.41 1.96
16 3 -16 5.53 1.27
3 -16 16 2.85 1.89
16 3 -16 4.85 1.42
16 -3 -16 5 1.42
16 -3 -16 4.27 1.66
16 -16 -3 4.58 1.42
3 -16 -16 7.9 2.09
-3 -16 16 3.45 2.02
16 16 3 6.11 1.44
-4 -16 -16 2.18 1.95
16 16 -4 -1.05 1.68
16 4 -16 0.1 1
4 -16 16 2.77 1.96
16 4 -16 -1.14 1.26
16 -4 -16 0.05 1.36
16 -4 -16 0.98 1.52
16 -16 -4 2.7 1.34
4 -16 -16 2.23 1.99
-4 -16 16 0.55 2.06
-5 -16 -16 26.42 3.35
16 5 -16 35.53 2.29
16 16 -5 36.94 3
5 -16 16 40.04 3.31
16 5 -16 35.24 2.59
16 -5 -16 32.78 2.76
16 -5 -16 31.2 2.45
-5 -16 16 39.51 3.41
5 -16 -16 41.15 3.27
-6 -16 -16 23.3 3.25
16 6 -16 18.63 2.22
16 16 -6 20.44 2.7
6 -16 16 14.02 2.23
6 16 -16 15.2 1.91
16 6 -16 18.1 2.18
16 -6 -16 19.73 2.06
16 -6 -16 17.85 2.18
16 -16 -6 16.63 2.08
-6 -16 16 15.57 2.41
6 -16 -16 22.8 3.02
-7 -16 -16 9.2 2.48
16 7 -16 0.95 1.73
16 16 -7 0.02 1.79
7 -16 16 5.7 2.16
7 16 -16 3.58 1.43
16 7 -16 3.02 1.5
16 -7 -16 1.06 1.33
16 -7 -16 4.15 1.83
16 -16 -7 2.22 1.31
-7 -16 16 1.9 2.28
7 -16 -16 0.03 2.1
8 16 -16 1.31 1.33
16 8 -16 2.21 1.88
16 16 -8 2.24 1.85
16 8 -16 1.39 1.38
16 -8 -16 2.81 1.74
16 -16 -8 -1.04 1.31
16 -8 -16 1.5 1.41
9 16 -16 1.23 1.39
16 9 -16 0.92 1.78
16 16 -9 0.05 1.78
16 9 -16 -0.02 1.51
16 -9 -16 2.81 1.88
16 -16 -9 1.63 1.39
16 -9 -16 0.97 1.44
10 16 -16 1.28 1.44
10 16 -16 3.87 2.77
16 10 -16 3.23 1.92
16 16 -10 0.66 1.92
16 10 -16 -0.27 1.52
16 -10 -16 2.41 1.84
16 -16 -10 3.4 1.47
16 -10 -16 2.37 1.37
11 16 -16 33.68 3.64
16 11 -16 38.34 3.09
16 -11 -16 35.24 2.95
12 16 -16 1.52 1.6
12 16 -16 -0.12 2.01
16 16 -12 1.52 2.24
16 12 -16 0.68 2.17
16 12 -16 0.37 1.66
16 -16 -12 1.63 1.47
16 16 -13 0.29 2.02
13 16 -16 2.73 1.71
13 16 -16 2.26 1.93
16 13 -16 3.88 2.13
16 13 -16 1.83 1.74
16 -13 -16 3.15 2.18
16 -13 -16 1.33 1.56
16 -16 -13 0.85 1.5
13 -16 -16 4.95 2.26
16 16 -14 1.08 2.04
14 16 -16 2.98 2.08
14 16 -16 3.51 2.01
16 14 -16 4.89 2.14
16 14 -16 3.18 1.89
16 -14 -16 1.36 2.22
16 -14 -16 -1.01 1.56
16 -16 -14 2.13 1.62
14 -16 -16 3.88 2.34
16 15 -16 -4.48 1.96
15 16 -16 1.13 2.09
16 16 -15 2.22 2.05
16 -15 -16 -0.7 1.74
15 -16 -16 1.27 2.18
16 -16 -15 -1.35 1.7
16 16 -16 15 2.31
0 -17 0 124.19 4.73
0 0 -17 133.62 4.39
0 0 17 133.87 4.85
17 0 0 134.78 4.43
17 0 0 130.62 4.3
17 1 0 0.99 0.65
17 -1 0 0.8 0.85
17 -1 0 -0.16 0.59
17 1 0 -0.36 0.84
-1 0 17 0.47 0.96
0 -17 -1 0.15 1.08
0 -17 1 0.09 0.94
1 0 -17 0.06 0.77
1 0 17 -0.58 0.85
17 2 0 2.1 0.85
17 2 0 1.65 0.67
-2 0 17 1.61 1.05
17 -2 0 2.26 0.71
2 0 -17 0.9 0.83
2 0 17 1.78 1.09
17 -2 0 1.45 0.88
0 -17 2 -0.22 1
0 -17 -2 2.13 1.15
3 0 -17 19.93 1.61
17 -3 0 22.68 1.34
17 3 0 23.04 1.51
0 -17 3 16.71 1.86
17 3 0 22.75 1.35
-3 0 17 20.13 1.98
0 -17 -3 20.1 1.96
3 0 17 22 1.85
17 -3 0 20.64 1.65
17 -4 0 15.43 1.59
17 -4 0 17.34 1.21
17 4 0 16.47 1.42
17 4 0 15.13 1.27
-4 0 17 12.55 1.65
0 -17 4 16.93 1.69
4 0 -17 15.53 1.54
4 0 17 16.21 1.66
0 -17 -4 15.74 1.69
5 0 -17 5.06 1.14
17 5 0 6.62 0.93
-5 0 17 4.53 1.24
0 -17 -5 5.7 1.34
0 -17 5 5.69 1.29
5 0 -17 6.31 1.12
17 5 0 4.45 0.98
17 -5 0 6.11 1.18
0 -17 6 23.74 2.07
17 6 0 23.28 1.5
0 -17 -6 23.12 2.11
-6 0 17 22.9 2.14
6 0 -17 23.62 1.93
0 -17 -7 -0.9 0.95
17 -7 0 -0.16 0.89
17 7 0 1.4 0.75
7 0 -17 -0.45 1.05
7 0 -17 0.28 0.86
-7 0 17 -0.4 1.05
0 -17 7 0.22 1.15
8 0 -17 12.87 1.72
8 0 -17 11.54 1.58
0 -17 8 14.36 1.8
0 -17 -8 9.68 1.63
-8 0 17 10.74 1.57
17 -8 0 12.02 1.68
-9 0 17 -1.55 1.18
9 0 -17 -0.06 0.92
9 0 -17 -2.24 1.05
17 9 0 1.85 0.86
9 0 -17 0.5 1.04
17 -9 0 0.58 1
0 -17 9 -0.29 1.14
0 -17 -9 -0.74 1.14
17 10 0 5.4 1.15
10 0 -17 5.73 1.25
-10 0 17 3.58 1.45
10 0 -17 4.11 1.29
0 -17 10 1.73 1.57
0 -17 -10 2.94 1.38
17 -10 0 4 1.27
10 0 -17 2.6 1.12
0 -17 -11 34.34 2.69
0 -17 11 31.68 2.62
11 0 -17 32.43 2.28
17 11 0 31.42 2.04
11 0 -17 31.35 2.06
17 -11 0 29.4 2.18
-11 0 17 33.37 2.62
11 0 -17 30.58 2.04
0 -17 -12 6.23 1.76
12 0 -17 5.76 1.28
17 12 0 6.97 1.31
12 0 -17 4.4 1.08
17 -12 0 3.38 1.23
0 -17 12 9.64 1.74
0 -17 13 1.87 1.72
17 13 0 -1.48 0.97
-13 0 17 1.68 1.89
13 0 -17 0.11 1.2
17 -13 0 2.07 1.32
13 0 -17 -0.58 0.87
0 -17 -13 0.79 1.66
14 0 -17 1.06 1.23
17 14 0 3.03 1.23
-14 0 17 4.42 1.97
0 -17 -14 1.74 1.8
0 -17 14 -0.56 1.62
14 0 -17 2.84 1.06
17 -14 0 0.22 1.24
17 15 0 4.62 1.45
0 -17 15 3.74 2.03
15 0 -17 2.52 1.15
15 0 -17 3.31 1.47
0 -17 -15 4.37 1.83
16 0 -17 17.64 1.94
0 -17 16 25.58 3.17
0 -17 -16 21.88 2.61
17 16 0 18.48 1.98
16 0 -17 17.23 2.27
17 0 -1 0.52 0.8
1 -17 0 0.37 0.96
17 0 1 -0.09 0.59
0 1 17 1.32 1.01
0 -1 17 0.19 0.94
17 0 1 1.55 0.82
-1 -17 0 1.99 0.93
17 0 -1 1.64 0.65
0 -1 -17 -0.39 0.68
17 1 -1 27.38 1.66
17 1 -1 28.36 1.51
17 -1 1 29.13 1.47
1 -1 17 22.74 1.85
-1 1 17 26.46 2.1
-1 -1 -17 30.28 1.61
17 -1 1 29.69 1.71
1 -17 1 26.69 2.07
1 1 -17 26.09 1.68
-1 -17 -1 25.02 2.01
17 1 1 28.43 1.66
1 -1 -17 30.15 1.68
17 1 1 26.85 1.48
1 1 17 28.78 2.08
1 -17 -1 27.14 2.08
-1 -1 17 25.48 1.91
17 -1 -1 27.63 1.43
17 -1 -1 31.65 1.77
-1 -17 1 27.27 1.94
17 -2 1 1.46 0.85
-1 -17 -2 0.16 1.01
2 -1 17 0.97 0.94
2 1 -17 0.61 0.82
17 -2 1 1.46 0.67
1 -17 2 0.9 0.97
-2 -1 -17 1.51 0.69
17 2 -1 1.32 0.78
17 2 -1 1.09 0.7
-2 1 17 1.35 1.1
2 1 17 0.61 1.02
2 -1 -17 1.68 0.83
1 -17 -2 1.64 1.08
-2 -1 17 1.51 1
17 2 1 0.5 0.65
17 -2 -1 0.18 0.59
17 2 1 0.92 0.81
-1 -17 2 0.54 0.97
17 -2 -1 -1.28 0.85
-1 -17 -3 15.82 1.68
17 -3 1 21.55 1.29
3 -1 17 17.31 1.73
-3 1 17 17.92 1.72
3 1 -17 18.49 1.5
17 3 -1 20.77 1.38
17 3 -1 21.61 1.48
17 -3 1 18.06 1.6
1 -17 3 17.5 1.82
17 3 1 20.03 1.46
17 -3 -1 19.15 1.19
17 3 1 18.27 1.29
1 -17 -3 16.06 1.7
17 -3 -1 19.67 1.69
-3 -1 17 19.35 1.77
3 1 17 17.68 1.73
-1 -17 3 18.76 1.91
3 -1 -17 20.22 1.56
4 -1 17 17.66 1.73
1 -17 4 18.19 1.72
-1 -17 -4 19.44 1.77
4 1 -17 17.92 1.53
17 -4 1 18.31 1.54
17 -4 1 21.23 1.28
17 4 -1 19.09 1.5
17 4 -1 20.73 1.37
-4 1 17 16 1.91
17 4 1 23.08 1.49
-1 -17 4 17.22 1.72
1 -17 -4 18.01 1.78
17 -4 -1 20.65 1.78
17 4 1 17.82 1.36
-4 -1 17 17.27 1.75
4 -1 -17 18.76 1.59
17 -4 -1 19.64 1.27
4 -1 -17 21.3 1.88
17 5 -1 5.98 0.94
5 1 -17 6.17 1.21
1 -17 5 6.16 1.26
17 5 -1 6.86 1.02
5 -1 17 7.89 1.19
-1 -17 -5 4.85 1.22
17 -5 1 7.56 1.2
-5 1 17 4.54 1.35
5 -1 -17 7.16 1.15
17 5 1 5.3 1.09
1 -17 -5 6.77 1.34
-1 -17 5 5.91 1.28
17 5 1 5.16 0.92
5 -1 -17 7 1.28
17 -5 -1 6.66 1.27
-5 -1 17 4.45 1.19
17 -5 -1 5.42 0.82
17 6 -1 0.57 0.75
-1 -17 -6 1.53 1.09
1 -17 6 1.85 1.17
6 1 -17 2.54 0.97
-6 1 17 1.95 1.27
17 6 -1 3.7 0.96
-1 -17 6 1.66 1.05
17 -6 -1 3 1.27
17 6 1 3.07 0.81
1 -17 -6 1.3 1.1
6 -1 -17 2.58 1.14
-6 -1 17 3.02 1.22
17 -7 1 6.87 1.2
1 -17 7 6.17 1.42
-1 -17 -7 5.19 1.35
17 7 -1 5.73 1.06
-7 1 17 5.55 1.24
7 1 -17 7.21 1.29
7 1 -17 5.9 1.11
7 -1 -17 7.66 1.38
17 -7 -1 5.2 1.15
-7 -1 17 7.61 1.38
7 -1 -17 6.69 1.14
-1 -17 7 5.27 1.33
17 7 1 5.37 0.97
1 -17 -7 3.64 1.29
8 1 -17 2.57 1.17
17 8 -1 3.55 1.28
17 -8 1 3.52 1.12
-8 1 17 2.68 1.17
1 -17 8 3.02 1.27
-1 -17 -8 1.07 1.29
8 1 -17 2.9 1.08
-1 -17 8 1.79 1.3
-8 -1 17 4.44 1.22
8 -1 -17 4.21 1.08
17 -8 -1 3.14 1.1
8 -1 -17 3.18 1.18
1 -17 -8 3.52 1.39
9 1 -17 2.79 1.12
-1 -17 -9 5.18 1.39
9 1 -17 5.02 1.14
1 -17 9 2.91 1.3
9 1 -17 3.44 1.21
17 -9 1 5.5 1.26
17 9 -1 5.2 1.13
-9 1 17 2.83 1.31
1 -17 -9 2.69 1.37
9 -1 -17 3.52 1.23
17 9 1 5.53 1.17
-1 -17 9 1.3 1.22
17 -9 -1 3.9 1.18
-9 -1 17 2.36 1.33
9 -1 -17 2.88 1.04
1 -17 10 11.81 2.85
10 1 -17 12.99 1.78
10 1 -17 11.33 1.5
10 1 -17 11.72 1.42
17 10 -1 13.74 1.48
17 -10 1 13.66 1.65
-10 1 17 11.92 1.8
-1 -17 -10 12.13 1.85
10 -1 -17 13.28 1.85
10 -1 -17 10.36 1.4
1 -17 -10 11.1 2.33
10 -1 -17 12.29 1.68
17 10 1 11.16 1.43
-10 -1 17 10.93 2.49
-1 -17 10 11.11 2.05
17 -10 -1 10.94 1.51
11 1 -17 -0.21 1
-11 1 17 -0.75 1.44
11 1 -17 -0.9 1.23
-1 -17 -11 0.32 1.48
1 -17 11 -1.8 1.42
17 11 -1 -1.56 0.84
11 1 -17 0.55 1.15
17 -11 1 -0.45 1.07
11 -1 -17 0.39 0.77
-11 -1 17 0.96 1.48
17 11 1 -0.62 0.92
1 -17 -11 0.58 1.42
17 -11 -1 -0.03 1.1
-1 -17 11 -0.18 1.41
11 -1 -17 1.52 1.1
11 -1 -17 0.72 1.21
17 -12 1 8.56 1.49
-12 1 17 4.94 1.97
-1 -17 -12 8.74 1.89
12 1 -17 8.48 1.37
17 12 -1 9.02 1.39
12 1 -17 10.13 1.51
1 -17 12 11.61 1.76
12 -1 -17 9.11 1.44
17 -12 -1 9.67 1.55
17 12 1 8.12 1.36
-1 -17 12 11.15 1.83
1 -17 -12 8.34 1.86
12 -1 -17 7.85 1.25
13 1 -17 0.33 0.87
-13 1 17 2.67 1.79
17 13 -1 1.65 0.99
13 1 -17 1.04 1.17
-1 -17 -13 -0.09 1.59
17 -13 1 -0.39 1.15
1 -17 13 -1.37 1.64
-1 -17 13 0.83 1.7
1 -17 -13 2.3 1.77
-13 -1 17 -2.11 1.77
17 -13 -1 -2.58 1.02
13 -1 -17 0.85 0.82
17 13 1 -0.8 1.22
13 -1 -17 -0.73 1.08
-1 -17 -14 4.28 1.87
17 14 -1 1.56 1.08
14 1 -17 0.61 1.25
1 -17 14 -0.01 1.74
14 1 -17 1.78 1
14 -1 -17 1.91 1.3
-14 -1 17 3.66 2.08
17 14 1 3.24 1.29
1 -17 -14 0.89 1.88
-1 -17 14 0.9 1.81
14 -1 -17 1.18 1.02
17 -14 -1 1.66 1.33
15 1 -17 6.21 1.39
1 -17 15 8.26 2.03
15 1 -17 7.78 1.65
17 15 -1 7.12 1.42
-1 -17 -15 5.43 1.99
15 -1 -17 5.86 1.47
15 -1 -17 4.57 1.34
17 15 1 6.74 1.49
1 -17 -15 4.72 2.05
-1 -17 15 5.63 2.1
17 -15 -1 5.14 1.63
16 1 -17 0.82 1.08
1 -17 16 0.63 2.12
17 16 -1 -0.83 1.19
-1 -17 -16 1.82 2.07
16 1 -17 -0.8 1.26
1 -17 -16 -1.43 1.86
-1 -17 16 4.69 2.26
16 -1 -17 0.12 1.7
16 -1 -17 0.25 1.35
17 16 1 3.33 1.42
17 0 2 1.38 0.78
17 0 -2 1.84 0.89
-2 -17 0 2.24 1.07
0 2 17 2.89 1.19
2 -17 0 0.86 1.09
17 0 -2 0.98 0.63
0 -2 -17 1.11 0.71
0 -2 17 1.73 1.04
17 0 2 1.7 0.65
1 -2 17 -1.34 0.99
17 -1 2 2.09 0.72
17 1 -2 0.35 0.62
2 -17 1 0.9 1.01
-1 -2 -17 2.25 0.77
17 -1 2 1.63 0.88
-1 2 17 1.27 1.01
-2 -17 -1 1.72 0.99
17 1 -2 0.59 0.84
2 -17 -1 0.22 0.9
-1 -2 17 1.97 1.05
-2 -17 1 1.88 0.98
17 1 2 0.45 0.64
17 -1 -2 1.15 0.9
1 2 17 1.54 1.04
17 -1 -2 1.1 0.57
1 -2 -17 1.5 0.82
17 1 2 1.34 0.81
2 2 -17 0.57 0.8
-2 -2 -17 0.48 0.68
17 2 -2 1.09 0.62
2 -2 17 1.28 1.11
-2 -17 -2 0.13 0.93
17 -2 2 0.94 0.68
-2 2 17 0.09 1.02
2 -17 2 0.92 1.06
17 2 -2 -0.17 0.78
17 -2 2 0.83 0.81
2 -17 -2 1.34 0.97
-2 -2 17 0.69 0.98
17 2 2 0.74 0.61
-2 -17 2 -0.37 0.94
17 -2 -2 -0.42 0.57
17 2 2 0.75 0.77
2 -2 -17 0.19 0.75
17 -2 -2 1.02 0.9
-3 2 17 0.97 1.11
3 2 -17 1.89 0.91
2 -17 3 2.36 1.08
3 -2 17 2.75 1.02
17 -3 2 2.07 0.98
17 3 -2 2.29 0.71
-3 -2 -17 2.35 0.73
17 3 -2 2.68 0.89
-2 -17 -3 2.71 1.1
17 -3 2 3.25 0.77
-2 -17 3 2.61 1.11
2 -17 -3 2.71 1.13
17 3 2 2.35 0.73
17 3 2 2.98 0.86
17 -3 -2 2.4 1.02
-3 -2 17 2.91 1.08
3 -2 -17 2.72 0.88
3 -2 -17 4.18 1.14
17 -3 -2 2.87 0.7
-4 2 17 -0.42 0.98
17 -4 2 -0.22 0.93
17 4 -2 -0.29 0.82
2 -17 4 0.14 1.06
-4 -2 -17 0.59 0.68
-2 -17 -4 -1.32 1.01
17 4 -2 1.12 0.71
4 2 -17 -0.55 0.87
4 -2 17 1.31 0.94
17 4 2 0.61 0.68
17 -4 -2 0.22 0.6
4 -2 -17 1.15 1.1
2 -17 -4 -1.09 0.88
-2 -17 4 -0.68 1.05
-4 -2 17 -0.01 1
17 4 2 1.46 0.88
17 -4 -2 -1.52 0.93
4 -2 -17 0.56 0.85
2 -17 5 2.51 1.22
-5 -2 -17 0.78 0.71
-2 -17 -5 0.67 1.03
5 -2 17 -0.65 0.92
17 5 -2 -1.4 0.62
17 -5 2 -1.03 0.99
-5 2 17 -0.75 0.99
17 5 -2 -0.64 0.85
-5 -2 17 0.43 1.03
17 5 2 -1.25 0.6
-2 -17 5 -0.25 1.12
2 -17 -5 0.46 1.12
5 -2 -17 0.62 0.91
17 -5 -2 -0.36 1.17
5 -2 -17 0.25 0.9
17 -5 -2 -0.34 0.62
-6 2 17 1.47 1.17
17 6 -2 0.5 0.69
17 6 -2 0.73 0.91
-2 -17 -6 -0.24 1.04
6 -2 17 -0.22 0.92
6 2 -17 0.16 0.85
2 -17 6 2.28 1.1
2 -17 -6 0.04 1.12
6 -2 -17 -1.29 1.05
17 6 2 1.19 0.7
-2 -17 6 1.15 1.07
17 -6 -2 0.63 0.71
17 -6 -2 -0.01 1
-6 -2 17 0.71 1.19
17 -7 2 -0.22 0.92
-7 2 17 -0.02 1.24
7 2 -17 -0.96 1.06
-2 -17 -7 0.31 1.15
7 2 -17 -0.29 0.86
2 -17 7 -0.37 1.03
17 7 -2 -0.26 0.78
7 2 -17 0.32 0.76
17 7 -2 0.82 0.97
7 -2 -17 -1.3 1.04
7 -2 -17 1.26 0.88
17 7 2 -0.64 0.69
17 -7 -2 -0.24 0.92
2 -17 -7 -0.57 1.2
-7 -2 17 0.08 1.03
8 2 -17 -0.02 1.05
17 8 -2 0.59 0.99
-2 -17 -8 0.95 1.13
17 -8 2 0.45 0.99
8 2 -17 0.09 0.91
2 -17 8 0.71 1.25
-8 2 17 1.85 1.26
-8 -2 17 -0.52 1.07
8 -2 -17 0.29 0.9
8 -2 -17 -0.6 1.07
2 -17 -8 0.69 1.16
-2 -17 8 0.41 1.11
17 -8 -2 1.07 1.02
9 2 -17 0.45 1.01
-2 -17 -9 1.22 1.39
17 -9 2 -1.76 0.96
2 -17 9 -1.18 1.25
17 9 -2 0.66 0.91
9 2 -17 0.64 1.11
-9 2 17 0.1 1.34
9 2 -17 -1.48 0.98
9 -2 -17 2.22 1.18
9 -2 -17 0.08 0.95
-2 -17 9 -0.11 1.29
17 -9 -2 0.43 1.02
17 9 2 -0.36 0.9
-9 -2 17 -1.3 1.13
2 -17 -9 -0.47 1.15
-10 2 17 2.88 1.47
2 -17 10 1.42 2.03
17 10 -2 1.11 0.96
10 2 -17 0.07 1.15
10 2 -17 0.68 1.08
-2 -17 -10 -0.01 1.42
10 2 -17 0.32 1.09
17 -10 2 1.03 1.25
10 -2 -17 -1.73 1.33
-2 -17 10 2.66 1.48
17 -10 -2 2.56 1.19
10 -2 -17 0.91 1.01
-10 -2 17 -0.47 1.44
17 10 2 2.22 1.01
-2 -17 -11 1.15 1.47
11 2 -17 1.1 1.15
17 11 -2 1.18 0.97
17 -11 2 -0.29 1.01
2 -17 11 0.33 1.43
11 2 -17 -0.08 1.2
11 2 -17 0 1.04
-11 2 17 -1.35 1.47
11 -2 -17 -1.03 0.94
17 11 2 1.47 0.92
-2 -17 11 3.64 1.4
17 -11 -2 0.24 1.13
-11 -2 17 -0.38 1.48
2 -17 -11 1.12 1.46
11 -2 -17 -0.1 0.82
11 -2 -17 0.26 1.14
-2 -17 -12 -3.22 1.49
12 2 -17 0.44 1.27
2 -17 12 -0.58 1.51
17 -12 2 0.63 1.22
12 2 -17 -1.36 1.05
17 12 -2 1.05 0.98
17 12 2 -0.66 1.01
2 -17 -12 1.83 1.42
12 -2 -17 -0.73 1.04
12 -2 -17 0.63 0.83
17 -12 -2 -0.95 1.13
-12 -2 17 0.04 1.93
-2 -17 12 -0.68 1.56
2 -17 13 -1.95 1.6
13 2 -17 0.07 1.04
13 2 -17 0.1 1.14
-2 -17 -13 2.16 1.69
17 13 -2 0.86 1.06
13 -2 -17 0.7 0.9
17 13 2 2.28 1.41
13 -2 -17 1.73 1.08
2 -17 -13 2.08 1.58
17 -13 -2 -0.43 1.21
-2 -17 13 0.44 1.48
-13 -2 17 -0.02 1.74
2 -17 14 -3.38 1.66
14 2 -17 -0.36 1.21
17 14 -2 -1.31 0.9
14 2 -17 0.42 0.97
-2 -17 -14 0.45 1.68
14 -2 -17 0.45 1.1
17 14 2 0.58 1.6
2 -17 -14 0.45 1.76
14 -2 -17 -1.24 1.11
-2 -17 14 -0.95 1.82
-14 -2 17 -2.99 1.93
17 -14 -2 0.19 1.27
15 2 -17 1.65 1.04
15 2 -17 -0.45 1.33
2 -17 15 -2.62 1.86
-2 -17 -15 -0.21 1.91
17 15 -2 1.19 1.16
15 -2 -17 0.6 1.31
-2 -17 15 0.74 1.95
17 -15 -2 0.23 1.3
15 -2 -17 -0.56 1.47
17 15 2 1.19 1.26
2 -17 -15 -1.52 2
2 -17 16 3.49 2.13
16 2 -17 1.6 1.16
16 2 -17 -0.37 1.39
-2 -17 -16 1.87 2.09
17 16 -2 1.15 1.25
16 -2 -17 -0.13 1.35
16 -2 -17 0.98 1.62
17 -16 -2 -0.03 1.34
2 -17 -16 -1.67 2.13
-2 -17 16 5.74 2.26
17 16 2 -0.6 1.21
17 0 3 20.36 1.27
0 -3 -17 20.51 1.38
0 -3 -17 20.35 1.76
0 -3 17 23.59 1.84
3 -17 0 20.4 1.76
17 0 -3 19.77 1.3
-3 -17 0 19.01 1.74
17 0 -3 19.66 1.65
17 0 3 20.8 1.54
-1 3 17 19.54 1.75
-3 -17 -1 20.47 1.75
1 -3 17 17.44 1.85
17 -1 3 18.56 1.27
-1 -3 -17 18.13 1.29
3 -17 1 17.72 1.83
17 -1 3 18.93 1.49
17 1 -3 14.91 1.42
17 1 -3 19.18 1.28
-1 -3 17 20.91 1.8
17 -1 -3 18.35 1.62
1 -3 -17 17.37 1.82
17 -1 -3 16.61 1.23
1 -3 -17 18.47 1.37
17 1 3 16.6 1.46
-3 -17 1 14.6 1.84
17 1 3 20.88 1.26
3 -17 -1 18.47 1.7
3 -17 2 2.77 1.03
-2 -3 -17 1.18 0.75
17 -2 3 2.17 0.92
2 -3 17 3.63 1.16
17 2 -3 1.43 0.9
17 2 -3 2.37 0.71
-3 -17 -2 1.66 1.02
17 -2 3 4.56 0.76
-2 3 17 1.93 1.12
2 -3 -17 2.07 0.8
17 -2 -3 0.78 0.93
2 -3 -17 1.66 1.05
17 2 3 2.35 0.71
-2 -3 17 2.04 1.08
-3 -17 2 1.95 1.04
3 -17 -2 3.35 1.07
17 2 3 3.15 0.89
17 -2 -3 3.02 0.64
-3 -17 -3 4.03 1.17
17 -3 3 2.4 0.99
17 3 -3 3.31 0.92
17 3 -3 3.48 0.79
3 -17 3 3.37 1.17
-3 3 17 2.96 1.09
3 3 -17 3.33 0.96
-3 -3 -17 3.54 0.78
3 -3 17 2.96 1.06
17 3 3 3.77 0.8
3 -3 -17 2.66 1.05
3 -3 -17 4.97 0.95
17 3 3 2.96 0.93
17 -3 -3 3.4 0.73
-3 -3 17 3.1 1.27
17 -3 -3 1.76 1.01
-3 -17 3 3.62 1.12
3 -17 -3 3.88 1.16
4 3 -17 4.66 1.13
17 4 -3 5.94 1.04
3 17 -4 6.29 0.85
17 4 -3 6.45 0.98
3 -17 4 6.44 1.36
-4 -3 -17 7.18 0.9
4 -3 17 6.37 1.24
-4 3 17 4.37 1.34
17 -4 3 5.2 1.15
-3 -17 -4 6.59 1.26
17 4 3 5.24 0.88
4 -3 -17 6.12 1.05
-4 -3 17 6.24 1.29
-3 -17 4 5.4 1.4
17 -4 -3 5.79 1.16
3 -17 -4 5.88 1.34
17 -4 -3 6.01 0.83
4 -3 -17 4.98 1.2
3 -17 5 2.05 1.12
17 -5 3 2.54 1.04
-3 -17 -5 0.06 1.01
17 5 -3 2.04 0.76
5 3 -17 1.62 0.65
-5 3 17 0.9 1.18
5 -3 17 0.2 1.01
5 3 -17 0.1 1.03
17 5 -3 2.2 0.9
-5 -3 -17 1.39 0.77
3 17 -5 3.48 0.67
5 -3 -17 1.6 0.94
17 -5 -3 2.02 0.68
-3 -17 5 2.95 1.15
17 -5 -3 2.64 1.85
3 -17 -5 1.21 1.06
-5 -3 17 1.48 1.21
5 -3 -17 1.55 1.03
17 6 -3 6.16 1.04
-3 -17 -6 6.02 1.32
3 -17 6 7.92 1.35
6 3 -17 8.82 1.14
3 17 -6 7.75 0.98
17 6 -3 10.47 1.33
6 -3 17 12.09 1.47
17 -6 3 7.71 2.08
6 3 -17 8.25 1.2
-6 3 17 9.23 1.56
17 -6 -3 9.43 1.01
-6 -3 17 7.74 1.5
17 6 3 7.56 1.05
-3 -17 6 7.85 1.42
17 -6 -3 10.92 1.5
3 -17 -6 8.08 1.37
6 -3 -17 8.44 1.43
3 17 -7 24.67 1.36
-7 3 17 25.64 2.05
7 3 -17 27.27 1.81
17 -7 3 22.73 1.84
7 -3 17 23.29 1.76
7 3 -17 25.24 1.65
-3 -17 -7 24.35 2.03
17 7 -3 29.35 1.71
3 -17 7 22.99 2.16
17 -7 -3 26.45 1.98
3 -17 -7 27.95 2.25
7 -3 -17 25.24 1.74
-7 -3 17 29.43 2.29
17 -7 -3 22.01 1.38
-3 -17 7 30.6 2.1
7 -3 -17 24.74 2.02
17 7 3 26.1 1.64
8 3 -17 0.62 1.03
-8 3 17 -0.74 1.16
8 3 -17 1.66 1.11
8 3 -17 -0.1 1.29
17 8 -3 0.06 0.85
-3 -17 -8 -0.24 1.21
17 8 -3 0.8 1.16
17 -8 3 0.54 1.05
3 -17 8 1.86 1.29
-3 -17 8 -0.55 1.21
8 -3 -17 1.59 1.19
17 8 3 0.11 1.23
-8 -3 17 -1.05 1.25
17 -8 -3 1.05 1.03
3 -17 -8 0.96 1.18
8 -3 -17 1.16 0.86
9 3 -17 0.5 0.99
3 -17 9 0.26 1.18
-3 -17 -9 1.77 1.2
17 -9 3 1.11 1.09
17 9 -3 0.34 0.86
-9 3 17 2.2 1.3
9 3 -17 -0.03 1.07
9 3 -17 0.69 1.09
9 -3 -17 2.01 1.18
-3 -17 9 3.49 1.36
17 -9 -3 1.55 1.11
9 -3 -17 1.51 0.94
-9 -3 17 3.04 1.43
17 9 3 1.6 1.05
3 -17 -9 -0.31 1.28
17 -10 3 16.76 1.9
17 10 -3 22.13 1.7
10 3 -17 18.26 1.85
10 3 -17 16.38 1.84
-3 -17 -10 15.77 2.16
10 3 -17 16.55 1.74
-10 -3 17 15.64 2.09
17 10 3 20.74 1.71
10 -3 -17 18.41 1.65
10 -3 -17 19.34 1.92
17 -10 -3 19.89 1.97
11 3 -17 8.85 1.45
11 3 -17 10.45 1.35
11 3 -17 9.77 1.53
-11 -3 -17 10 1.76
3 -17 11 12.42 1.88
17 -11 3 11.37 1.58
17 11 -3 8.52 1.27
-3 -17 -11 10.41 1.84
-3 -17 11 8.67 1.8
3 -17 -11 10.46 1.76
-11 -3 17 9.05 1.97
17 11 3 13.46 1.6
17 -11 -3 10.14 1.57
11 -3 -17 9.07 1.42
11 -3 -17 8.02 1.35
-3 -17 -12 3.44 1.63
3 -17 12 2.04 1.63
17 12 -3 0.61 0.95
12 3 -17 0.22 1.21
12 3 -17 1.32 1.26
-3 -17 12 1.41 1.54
12 -3 -17 1.8 0.92
12 -3 -17 3.38 1.18
-12 -3 17 -0.65 1.47
17 -12 -3 2.43 1.26
17 12 3 0.83 1.04
3 -17 -12 0.78 1.59
3 -17 13 2.55 1.6
13 3 -17 1.53 1.2
17 13 -3 0.75 1.08
13 3 -17 1.65 1.41
-3 -17 -13 1.51 1.71
-13 -3 17 0.68 1.88
17 13 3 2.59 1.54
17 -13 -3 3.25 1.3
3 -17 -13 2.44 1.76
-3 -17 13 3.41 1.59
13 -3 -17 1.1 1.06
13 -3 -17 1.87 1.13
14 3 -17 2.16 1.29
3 -17 14 -0.43 1.78
-3 -17 -14 -0.72 1.83
17 14 -3 1.38 1.1
14 3 -17 -0.54 1.11
17 14 3 0.55 1.57
14 -3 -17 0.54 1.17
17 -14 -3 -2.68 1.13
14 -3 -17 -1.56 1.39
-14 -3 17 2.28 3.35
-3 -17 14 0.71 1.87
3 -17 -14 -1.14 1.72
15 3 -17 2.33 1.38
15 3 -17 0.3 0.94
3 -17 15 3.71 1.95
17 15 -3 1.72 1.21
-3 -17 -15 3.83 2.01
15 -3 -17 0.18 1.25
17 15 3 0.02 1.57
-3 -17 15 4.97 1.89
3 -17 -15 5.14 2.02
15 -3 -17 -0.18 1.52
17 -15 -3 2.96 1.53
-3 -17 -16 8.55 2.17
16 3 -17 7.25 1.65
3 -17 16 9.71 2.24
17 16 -3 7.24 1.78
16 3 -17 7.89 1.37
16 -3 -17 5.4 1.77
17 -16 -3 4.54 1.52
3 -17 -16 8.34 2.21
17 16 3 5.95 1.5
16 -3 -17 5.87 1.53
-3 -17 16 1.53 2.28
17 0 4 17.34 1.19
0 -4 -17 17 1.66
-4 -17 0 17.3 1.65
17 0 -4 17.68 1.27
0 -4 -17 16.27 1.25
0 -4 17 15.97 1.88
4 -17 0 14.43 1.79
17 0 -4 17.42 1.48
17 0 4 19.69 1.44
17 1 -4 17.72 1.32
-4 -17 -1 21.68 1.75
-1 -4 -17 19.27 1.34
4 -17 1 19.06 1.67
17 -1 4 19.85 1.52
-1 -4 -17 15.37 1.63
17 1 -4 18.15 1.54
17 -1 4 17.58 1.29
1 -4 17 16.66 1.7
-1 -4 17 17.93 1.95
17 1 4 21.51 1.52
17 1 4 18.82 1.25
4 -17 -1 15.91 1.68
-4 -17 1 15.24 1.83
1 -4 -17 16.58 1.72
17 -1 -4 20.9 1.3
17 -1 -4 18.43 1.57
1 -4 -17 19.46 1.36
2 -4 17 -0.44 0.93
17 -2 4 1.24 0.88
-2 -4 -17 0.06 1.03
4 17 -2 0.15 0.65
17 2 -4 0.58 0.88
17 2 -4 -0.44 0.56
-4 -17 -2 -0.81 0.91
-2 -4 -17 0.51 0.7
4 -17 2 0.28 1.05
2 -4 -17 -0.36 0.92
17 -2 -4 0.62 0.92
2 -4 -17 -0.17 0.8
17 2 4 0.81 0.61
17 -2 -4 0.28 0.62
17 2 4 1.29 0.9
-2 -4 17 0.98 1.19
-4 -17 2 0.81 0.94
4 -17 -2 -0.35 0.92
-4 -17 -3 4.45 1.18
-3 -4 -17 9.01 1.06
17 3 -4 6.39 0.9
4 17 -3 6.31 0.84
-3 -4 -17 4.1 1.14
17 3 -4 6.3 1.01
3 -4 17 5.78 1.24
3 4 -17 4.85 0.84
17 -3 4 6.41 1.09
4 -17 3 4.44 1.19
4 -17 -3 4.83 1.32
17 -3 -4 4.52 0.81
3 -4 -17 7.12 1.03
-3 -4 17 6.27 1.33
17 -3 -4 6.19 1.22
17 3 4 6.05 0.88
-4 -17 3 6.02 1.23
3 -4 -17 6.05 1.33
17 3 4 8.27 1.55
-4 -4 -17 1.35 0.73
17 4 -4 1.55 0.87
4 -17 4 -0.25 1.04
4 4 -17 1.27 1.07
-4 -4 -17 0.35 0.94
4 17 -4 1.1 0.65
-4 -17 -4 0.53 1.01
17 4 -4 1.38 0.78
4 4 -17 2.36 0.73
17 -4 4 1.19 0.91
4 -4 17 1.04 0.97
-4 -4 17 1.96 1.09
4 -17 -4 1.13 1.16
17 4 4 1.85 0.73
17 -4 -4 1.38 0.62
-4 -17 4 0.96 1.15
4 -4 -17 1.21 0.81
4 -4 -17 1.78 1.06
4 17 -5 11.77 1.07
-4 -17 -5 10.49 1.49
17 -5 4 11.44 1.57
17 5 -4 11.5 1.37
-5 -4 -17 11.5 1.51
4 -17 5 9.7 1.45
17 5 -4 10.27 1.15
5 4 -17 8.83 1.13
5 -4 17 12.01 1.61
5 4 -17 14.43 1.54
17 -5 -4 12.51 1.08
5 -4 -17 9.45 1.46
-5 -4 17 11.03 1.56
5 -4 -17 11.13 1.46
17 5 4 11.09 1.16
-4 -17 5 10.13 1.56
17 -5 -4 11.77 1.57
4 -17 -5 11.61 1.58
6 -4 17 9.41 1.32
-6 -4 -17 11.78 1.51
4 17 -6 12.26 1.06
17 -6 4 17.04 1.78
4 -17 6 12.26 1.54
-4 -17 -6 13.93 1.71
17 6 -4 11.29 1.36
6 4 -17 10.87 1.42
6 4 -17 13.02 1.23
17 6 -4 11.9 1.44
-4 -17 6 12.34 1.72
17 -6 -4 12.35 1.13
17 6 4 13.53 1.24
-6 -4 17 11.21 1.59
4 -17 -6 10.59 1.6
17 -6 -4 12.69 1.54
6 -4 -17 10.27 1.52
7 4 -17 0.85 0.85
4 -17 7 -0.28 1.15
-7 -4 -17 -0.18 1.17
7 4 -17 1.14 0.98
7 -4 17 0.19 0.98
4 17 -7 -0.11 0.66
17 7 -4 -0.6 0.94
-4 -17 -7 -1.31 1.07
17 7 -4 -0.03 1.13
17 -7 4 0.9 1.04
-4 -17 7 1.04 1.12
4 -17 -7 0.58 1.26
17 -7 -4 0.19 0.68
-7 -4 17 0.35 1.19
17 7 4 -0.04 0.84
7 -4 -17 1.19 1.15
7 -4 -17 0.06 0.84
17 -7 -4 1.61 1.02
4 17 -8 0.07 0.71
17 8 -4 0.37 0.93
8 4 -17 -0.55 0.9
-4 -17 -8 -0.96 1.17
8 -4 17 2.07 0.98
4 -17 8 0.78 1.25
8 4 -17 0.84 1.12
-8 -4 -17 -0.13 1.13
17 -8 4 0.68 1.09
17 8 -4 1.12 0.99
8 -4 -17 1.25 1.18
-4 -17 8 -0.35 1.23
4 -17 -8 -1.27 1.07
17 8 4 1.06 0.96
17 -8 -4 -0.76 1.03
8 -4 -17 0 0.8
17 -8 -4 1 0.73
-8 -4 17 3.14 1.31
-4 -17 -9 6.09 1.44
4 17 -9 8.07 1.06
9 4 -17 7.9 1.55
9 4 -17 5.83 1.21
17 -9 4 7.88 1.35
9 4 -17 5.51 1.31
-9 -4 -17 8.13 1.51
17 9 -4 7.41 1.22
4 -17 9 6.45 1.56
17 -9 -4 6.82 1.36
9 -4 -17 7.77 1.28
4 -17 -9 9.66 1.68
-9 -4 17 8.31 1.6
17 9 4 7.99 1.34
9 -4 -17 8.62 1.41
-4 -17 9 8.04 1.66
17 10 -4 2.01 1
4 -17 10 2.38 1.36
10 4 -17 4.84 1.27
10 4 -17 3.16 1.18
-10 -4 -17 3.21 1.49
10 4 -17 2.54 1.19
10 -4 -17 2.68 1.07
10 -4 -17 4.75 1.29
4 -17 -10 0.03 1.27
17 10 4 3.8 1.14
17 -10 -4 2.41 1.23
-10 -4 17 5.85 1.68
11 4 -17 3.83 1.34
-4 -17 -11 1.43 1.6
11 4 -17 2.61 1.31
-11 -4 -17 3 1.59
17 11 -4 2.52 1.15
11 4 -17 5.41 1.43
4 -17 11 4.13 1.61
11 -4 -17 4.2 1.31
17 -11 -4 3.36 1.25
-4 -17 11 5.45 1.65
11 -4 -17 3.73 1.17
17 11 4 3.34 1.16
4 -17 -11 0.27 1.42
12 4 -17 8.95 1.53
-4 -17 -12 6.15 1.81
12 4 -17 10.64 1.69
17 12 -4 7.95 1.34
4 -17 12 11.08 1.92
17 12 4 11.32 1.56
-4 -17 12 7.76 2.02
17 -12 -4 8.92 1.47
-12 -4 17 8.94 1.95
4 -17 -12 8.03 1.88
12 -4 -17 6.69 1.34
12 -4 -17 9.06 1.26
4 -17 13 2.52 1.68
13 4 -17 5.2 1.53
13 4 -17 2.14 1.3
-4 -17 -13 7.24 1.9
17 13 -4 4.96 1.17
17 13 4 6.16 1.67
13 -4 -17 3.39 1.19
-4 -17 13 6.51 1.79
4 -17 -13 4.12 1.81
17 -13 -4 4.06 1.44
-13 -4 17 5.21 1.95
13 -4 -17 5.01 1.56
-4 -17 -14 0.13 1.89
14 4 -17 1.95 1.28
14 4 -17 1.7 1.49
17 14 -4 2.95 1.23
4 -17 14 0.83 1.81
17 14 4 0.93 1.68
4 -17 -14 3.03 1.73
17 -14 -4 2.56 1.32
14 -4 -17 1.19 1.21
-4 -17 14 1.34 2
14 -4 -17 1.37 1.51
17 15 -4 9.43 1.63
15 4 -17 6.71 1.57
-4 -17 -15 7.03 1.99
15 4 -17 9.45 1.52
4 -17 15 10.32 2.15
17 -15 -4 5.68 1.51
4 -17 -15 11.32 2.24
-4 -17 15 8.94 2.24
15 -4 -17 5.23 1.48
15 -4 -17 8.45 1.84
17 15 4 9.01 2.11
16 4 -17 4.28 1.21
4 -17 16 4.44 2.1
17 16 -4 1.67 1.94
16 4 -17 -1.3 1.34
-4 -17 -16 0.06 2.13
17 -16 -4 2.31 1.46
16 -4 -17 1.75 1.72
-4 -17 16 5.94 2.3
16 -4 -17 2.6 1.42
4 -17 -16 0.35 2.07
0 -5 -17 6.48 0.91
5 -17 0 5.1 1.15
-5 -17 0 5.07 1.24
17 0 -5 5.36 0.83
0 -5 17 5.36 1.28
17 0 -5 5.13 1.1
17 0 5 6.47 1.04
17 0 5 7 0.9
0 -5 -17 3.58 1.11
0 5 -17 6.22 0.78
5 -17 1 5.01 1.21
1 -5 17 6.48 1.42
17 -1 5 6.83 0.92
17 1 -5 7.44 1.11
5 17 -1 6.67 0.9
17 -1 5 6.47 1.12
-1 -5 -17 3.65 1.2
1 5 -17 6.44 0.79
-5 -17 -1 5.48 1.19
-1 -5 -17 6.27 0.9
17 1 -5 4.36 0.81
17 -1 -5 5.9 1.18
-1 5 -17 5.22 0.72
17 1 5 7.04 0.88
-1 -5 17 6.78 1.33
17 -1 -5 6.64 0.89
5 -17 -1 6.98 1.35
1 -5 -17 6.85 0.94
1 -5 -17 4.64 1.3
17 1 5 6.35 1.06
-5 -17 1 7.04 1.25
2 -5 17 -0.65 1.08
-2 -5 -17 -0.29 0.73
-2 -5 -17 0.61 1.02
5 17 -2 -0.47 0.6
17 2 -5 0.53 0.86
17 2 -5 0.8 0.7
5 -17 2 0.06 0.9
-5 -17 -2 -0.49 0.96
17 -2 5 0.86 0.92
5 -17 -2 1.15 1.12
-2 -5 17 -0.31 1.03
17 -2 -5 -0.43 0.61
17 -2 -5 0.58 1.02
17 2 5 -0.2 0.66
2 -5 -17 0.29 0.73
2 -5 -17 1.43 1.17
-5 -17 2 -0.16 1.1
-3 -5 -17 0.18 0.76
-5 -17 -3 0.05 0.94
17 3 -5 1.92 0.94
17 -3 5 2.87 1.02
-3 -5 -17 2.47 1.21
3 -5 17 2.41 1.13
17 3 -5 0.64 0.7
5 -17 3 0.22 1.11
3 5 -17 0.62 0.6
5 17 -3 2.68 0.77
17 -3 -5 2.66 0.72
17 3 5 1.65 0.7
5 -17 -3 2.58 1.1
3 -5 -17 0.26 1
-3 -5 17 2.21 1.27
-5 -17 3 0.93 0.97
3 -5 -17 1.78 0.81
4 5 -17 11.71 1.45
5 -17 4 8.52 1.37
-4 -5 -17 9.37 1.39
-5 -17 -4 12.14 1.53
17 4 -5 13.01 1.27
4 -5 17 12.05 1.73
17 4 -5 10.33 1.41
5 17 -4 12.09 1.12
17 -4 5 15.2 1.63
4 5 -17 11.02 1.1
4 -5 -17 14.68 1.44
17 4 5 11.43 1.2
-5 -17 4 12.57 1.65
17 -4 -5 10.96 1.08
-4 -5 17 11.02 1.66
5 -17 -4 13 1.8
17 -4 -5 13.15 1.53
4 -5 -17 12.22 1.62
5 -5 17 5.73 1.2
5 -17 5 3.9 1.19
5 17 -5 2.31 0.77
5 5 -17 4.26 0.85
-5 -5 -17 4.13 1.23
17 5 -5 3.97 1
-5 -17 -5 3.94 1.13
17 5 -5 3.77 0.89
5 5 -17 1.68 0.92
5 -5 -17 3.97 1.3
-5 -17 5 1.83 1.19
-5 -5 17 3.49 1.41
5 -5 -17 2.9 1
5 -17 -5 1.93 1.12
17 -5 -5 4.19 0.76
17 5 5 3.28 0.85
17 -5 -5 5.1 1.16
17 6 -5 0.4 0.9
6 5 -17 -0.76 0.72
-6 -5 -17 -1.48 0.98
5 17 -6 1.26 0.72
6 5 -17 0.68 0.92
17 -6 5 -1.01 0.88
6 -5 17 -1.03 1
5 -17 6 1.06 1.18
-5 -17 -6 -2.2 0.97
6 -5 -17 -0.8 1.34
17 6 5 -0.57 0.76
6 -5 -17 -1.45 1.04
-6 -5 17 0.09 1.15
-5 -17 6 3.1 1.31
5 -17 -6 1.4 1.2
17 -6 -5 0.98 0.91
17 -6 -5 0.2 0.67
7 5 -17 4.79 1.17
7 -5 17 7 1.21
17 7 -5 5.37 1.08
5 -17 7 5.52 1.36
5 17 -7 5.06 0.86
17 7 -5 5.19 1.13
-7 -5 -17 6.26 1.44
-5 -17 -7 3.04 1.26
7 5 -17 5.99 1.28
17 -7 -5 4.67 0.86
-5 -17 7 4.56 1.28
7 -5 -17 6.95 1.37
7 -5 -17 5.14 0.96
-7 -5 17 6.25 1.52
5 -17 -7 4.79 1.35
17 -7 -5 5.95 1.2
5 17 -8 3.44 0.75
17 8 -5 2.62 1.08
8 5 -17 2.12 1.11
8 5 -17 1.93 1.03
-8 -5 -17 2.96 1.27
5 -17 8 3.77 1.26
8 -5 17 1.94 1.03
17 8 -5 1.19 0.93
-5 -17 -8 3.63 1.33
5 -17 -8 0.63 1.3
-5 -17 8 2.05 1.27
-8 -5 17 4.12 1.44
8 -5 -17 0.74 1.25
8 -5 -17 3.63 0.96
17 -8 -5 1.16 0.76
17 -8 -5 2.58 1.12
17 8 5 3.5 1.1
-9 -5 -17 12.31 1.64
9 5 -17 14.05 1.64
9 5 -17 12.13 1.63
17 9 -5 12.24 1.71
5 17 -9 11.21 1.16
17 9 -5 10.71 1.35
9 5 -17 10.05 1.5
5 -17 9 11.09 1.93
-5 -17 -9 16.61 2.18
-9 -5 17 9.2 1.63
-5 -17 9 12.33 1.79
9 -5 -17 13.4 1.52
17 -9 -5 10.62 1.55
17 9 5 10.2 1.39
9 -5 -17 14.64 1.9
17 -9 -5 7.93 1.34
10 5 -17 0.38 1.02
5 -17 10 2.3 1.46
5 17 -10 2.11 0.78
-10 -5 -17 -1.66 1.41
10 5 -17 0.29 1.22
17 10 -5 -0.61 0.86
10 5 -17 -2.42 1.08
10 -5 -17 0.36 0.97
17 10 5 0.27 0.99
10 -5 -17 -0.53 1.19
5 -17 -10 2.16 1.5
-10 -5 17 2.46 1.75
17 -10 -5 1.83 1.16
-5 -17 10 -0.81 1.45
-5 -17 -11 14.38 2.05
17 11 -5 12.24 1.46
11 5 -17 11.73 1.55
11 5 -17 9.58 1.62
5 -17 11 11.47 1.81
-11 -5 -17 11.13 1.83
5 -17 -11 11.7 1.91
-5 -17 11 10.91 1.83
11 -5 -17 10 1.39
-11 -5 17 7.72 1.92
17 11 5 11.54 1.56
17 -11 -5 11.08 1.63
-5 -17 -12 4.95 1.77
12 5 -17 5.8 1.53
12 5 -17 5.15 1.35
17 12 -5 4.81 1.26
5 -17 12 4.84 1.69
17 -12 -5 5.31 1.33
12 -5 -17 4.45 1.28
-5 -17 12 3.2 1.74
17 12 5 5.35 1.49
-12 -5 17 3.18 1.82
5 -17 -12 4.23 1.67
13 5 -17 0.64 1.22
13 5 -17 -0.96 1.49
17 13 -5 -1.45 1.02
5 -17 13 -0.42 1.65
-5 -17 -13 1.94 1.87
5 -17 -13 -0.89 1.68
13 -5 -17 -1.24 1.37
17 -13 -5 0.36 1.31
-13 -5 17 -1.17 1.97
17 13 5 -0.95 1.62
-5 -17 13 1.68 1.59
13 -5 -17 -1.14 1.08
14 5 -17 0.98 1.55
-5 -17 -14 -1.26 1.9
17 14 -5 0.96 1.14
14 5 -17 1.22 1.38
5 -17 14 2.13 1.82
14 -5 -17 0.63 1.48
14 -5 -17 -0.69 1.22
5 -17 -14 -2.53 1.8
17 -14 -5 -0.37 1.19
-5 -17 14 -2.2 1.86
5 -17 15 4.87 2.08
15 5 -17 6.85 1.62
17 15 -5 10.73 2
-5 -17 -15 9.39 2.34
15 5 -17 9.27 1.86
17 -15 -5 6.45 1.66
15 -5 -17 7.99 1.77
5 -17 -15 11.59 2.22
15 -5 -17 7.96 1.49
-5 -17 15 5.58 2.15
16 5 -17 4.26 1.47
16 5 -17 5.1 1.58
17 16 -5 5.8 2.11
16 -5 -17 3.85 1.79
-5 -17 16 7.6 3.56
16 -5 -17 6.26 1.54
17 -16 -5 6.38 1.62
6 17 0 23.22 1.48
6 -17 0 24.59 1.77
0 -6 -17 20.78 2.02
0 -6 -17 22.44 1.44
-6 -17 0 19.48 1.78
17 0 -6 23.45 1.39
0 -6 17 21.39 1.9
17 0 -6 20.88 2.07
17 0 6 24.05 1.42
0 6 -17 22.7 1.27
1 -6 17 2.83 1.27
-1 -6 -17 1.77 0.76
-6 -17 -1 1.03 1
6 17 -1 2.08 0.75
6 -17 1 2.73 1.13
1 6 -17 2.29 0.66
-1 -6 -17 0.94 1.06
17 1 -6 2.57 1.05
17 1 -6 1.98 0.76
6 -17 -1 2.07 1.13
1 -6 -17 0.71 1.04
-1 6 -17 2.71 0.64
-1 -6 17 1.67 1.07
-6 -17 1 0.89 1.18
17 1 6 2.74 0.75
1 -6 -17 0.58 0.78
2 -6 17 -0.05 1.09
17 2 -6 0.15 0.63
6 17 -2 -0.36 0.68
-6 -17 -2 0.61 1.1
17 2 -6 -0.94 0.88
-2 -6 -17 0.35 1.07
2 6 -17 0.1 0.61
6 -17 2 0.63 1.02
-2 -6 17 2.1 1.12
17 -2 -6 -0.56 0.96
-6 -17 2 0.06 1.1
17 2 6 0.58 0.66
6 -17 -2 0.33 1.08
2 -6 -17 2.21 1.12
2 -6 -17 -0.66 0.71
17 -2 -6 -0.11 0.6
6 17 -3 8.43 1.03
3 6 -17 7.57 1.01
17 3 -6 10.18 1.31
6 -17 3 9.73 1.43
-3 -6 -17 6.13 1.29
-6 -17 -3 9.07 1.4
3 -6 17 9.2 1.49
17 3 -6 9.18 1.09
17 -3 -6 9.01 1.33
17 -3 -6 8.13 1.06
17 3 6 11.84 1.12
3 -6 -17 7.49 1.42
3 -6 -17 7.11 1.03
6 -17 -3 8.91 1.41
-6 -17 3 8.58 1.39
-3 -6 17 5.97 1.47
-4 -6 -17 10.03 1.58
4 6 -17 13.16 1.15
17 4 -6 13.94 1.56
4 -6 17 11.77 1.52
6 -17 4 12.33 1.71
6 17 -4 10.28 1.14
17 4 -6 11.43 1.26
-6 -17 -4 12.33 1.55
-6 -17 4 13.04 1.65
4 -6 -17 11.15 1.39
17 -4 -6 12.07 1.13
4 -6 -17 12.93 1.67
17 4 6 13.94 1.24
6 -17 -4 11.65 1.56
17 -4 -6 12.92 1.51
-4 -6 17 12.34 1.74
-5 -6 -17 0.3 1.14
6 -17 5 -0.24 1.05
5 6 -17 0.81 0.92
6 17 -5 0.13 0.66
5 6 -17 0.68 0.71
5 -6 17 0.46 1.03
17 5 -6 -1.02 0.95
-6 -17 -5 -0.49 1.14
17 -5 -6 -0.51 0.94
17 5 6 1.05 0.75
6 -17 -5 1.25 1.2
17 -5 -6 -0.7 0.66
-5 -6 17 0.27 1.19
-6 -17 5 -2.3 1.13
5 -6 -17 1 0.97
5 -6 -17 0.71 1.14
17 6 -6 -0.51 0.85
6 6 -17 1.54 0.79
6 17 -6 2.3 0.75
-6 -6 -17 -1.09 1.18
17 6 -6 -0.78 1.19
6 -6 17 0.19 1.04
6 6 -17 2.06 0.99
-6 -17 -6 1.59 1.24
-6 -6 17 -1.05 1.15
6 -6 -17 1.26 1.14
6 -6 -17 1.14 0.84
-6 -17 6 0.77 1.1
17 6 6 0.73 0.97
17 -6 -6 0.64 0.96
17 -6 -6 1.09 0.69
6 -17 -6 -0.05 1.18
6 -17 -6 1.15 0.86
7 -6 17 1.4 1.08
6 17 -7 1.13 0.72
-7 -6 -17 -0.21 1.08
6 -17 7 -0.69 1.11
17 7 -6 0.79 0.89
-6 -17 -7 -1.57 1.19
7 6 -17 0.27 0.93
7 -6 -17 0.41 0.77
17 -7 -6 0.23 1.02
7 -6 -17 -0.36 1.08
6 -17 -7 0.22 1.23
17 -7 -6 1.4 0.79
17 7 6 1.41 1.57
6 -17 -7 -0.09 0.9
-7 -6 17 -0.35 1.27
-6 -17 7 -0.15 1.07
8 6 -17 8.11 1.38
8 -6 17 6.6 1.24
-8 -6 -17 8.14 1.54
6 -17 8 8.13 1.46
17 8 -6 8.99 1.33
-6 -17 -8 7.72 1.59
6 17 -8 8.16 1.14
8 6 -17 9.3 1.48
17 8 -6 8.24 1.48
17 8 6 8.97 1.28
17 -8 -6 9.21 1.43
-8 -6 17 7.75 1.62
8 -6 -17 10.13 1.51
6 -17 -8 6.05 1.15
6 -17 -8 7.17 1.59
17 -8 -6 9.53 1.19
8 -6 -17 9.41 1.31
-6 -17 8 9.01 1.69
17 9 -6 0.33 0.96
9 -6 17 2.6 1.11
9 6 -17 -0.39 1.23
6 17 -9 -0.2 0.92
17 9 -6 0.97 0.95
9 6 -17 0.38 1.07
-9 -6 -17 3.73 1.52
-6 -17 -9 1.83 1.33
17 9 6 1.62 1.04
9 -6 -17 0.37 1.27
17 -9 -6 2.34 1.16
6 -17 -9 -0.91 1.48
17 -9 -6 1.04 0.85
9 -6 -17 -0.81 0.8
-9 -6 17 1.75 1.39
-6 -17 -10 0.22 1.34
10 6 -17 0.38 1.25
6 -17 10 1.02 1.36
17 10 -6 -1.07 0.91
6 17 -10 1.81 1.3
10 6 -17 0.84 1.23
17 10 -6 -1.43 0.81
-10 -6 -17 -0.88 1.52
10 6 -17 0.57 1.13
-10 -6 17 1.63 2.62
6 -17 -10 0.13 0.95
6 -17 -10 -1.01 1.36
17 -10 -6 -0.32 1.09
17 10 6 -0.35 0.96
10 -6 -17 0.4 0.97
-6 -17 10 2.76 1.43
11 6 -17 8.09 1.49
-6 -17 -11 7.23 1.89
6 -17 11 10.95 1.77
17 11 -6 7.55 1.32
6 17 -11 6.93 1.28
11 6 -17 10.09 1.58
-11 -6 17 12.17 2.08
17 11 6 9.89 1.5
-6 -17 11 10.94 1.88
11 -6 -17 8.39 1.35
6 -17 -11 9.93 1.83
11 -6 -17 8 1.56
17 -11 -6 6.87 1.44
12 6 -17 10.93 1.56
6 -17 12 11.26 1.79
-6 -17 -12 11.95 1.97
17 12 -6 13.4 1.71
12 6 -17 11.44 1.83
-12 -6 17 10.3 2.11
12 -6 -17 10.07 1.5
6 -17 -12 10.12 1.9
17 -12 -6 8.42 1.52
-6 -17 12 10.36 2.01
-6 -17 -13 0.89 1.76
6 -17 13 2.43 1.71
13 6 -17 -0.34 1.24
17 13 -6 0.88 1
13 6 -17 0.8 1.41
-6 -17 13 0.79 1.8
6 -17 -13 0.91 1.72
13 -6 -17 0.84 1.08
13 -6 -17 2.49 1.53
-13 -6 17 0.14 1.96
17 -13 -6 0.86 1.33
-6 -17 -14 -1.38 1.93
6 -17 14 1.16 1.8
14 6 -17 0.39 1.36
14 6 -17 0.7 1.5
17 14 -6 -0.88 2.6
14 -6 -17 -0.02 1.17
-6 -17 14 -0.03 1.89
14 -6 -17 0.61 1.55
17 -14 -6 0.58 1.27
6 -17 -14 0.31 1.82
15 6 -17 8.03 1.73
6 17 -15 6.19 1.45
6 -17 15 10.24 2.12
-6 -17 -15 11.48 2.45
17 15 -6 8.98 1.99
15 6 -17 6.62 1.87
15 -6 -17 6.51 1.54
17 -15 -6 10.85 1.71
6 -17 -15 12.36 2.32
-6 -17 15 6.15 2.36
15 -6 -17 8.66 1.85
17 16 -6 5.46 1.97
16 6 -17 3.25 1.5
6 17 -16 4.37 1.42
16 6 -17 3.22 1.77
16 -6 -17 1.9 1.43
17 -16 -6 2.45 1.4
16 -6 -17 2.43 1.73
7 17 0 1.04 0.7
-7 -17 0 0.07 1.11
17 0 -7 0.18 0.91
17 0 -7 -0.71 0.65
0 -7 -17 -0.76 0.99
0 -7 -17 -0.86 0.73
0 7 -17 -0.18 0.63
0 -7 17 0.92 1.09
7 -17 0 0.55 1.03
17 1 -7 3.78 1.06
7 -17 1 6.73 1.27
17 1 -7 4.61 0.93
-1 -7 -17 5.32 1.38
7 17 -1 7.18 1.01
1 -7 17 5.32 1.42
-7 -17 -1 5.09 1.23
1 7 -17 6.92 0.79
7 -17 -1 5.26 1.2
1 -7 -17 6.89 0.93
17 -1 -7 5.36 1.15
17 -1 -7 5.87 0.98
-7 -17 1 7.88 1.44
1 -7 -17 4 1.4
7 17 1 6.92 1.05
-1 -7 17 4.67 1.28
17 2 -7 0.14 1.09
7 -17 2 0.28 1.05
17 2 -7 -0.81 0.67
2 -7 17 -0.76 1.1
2 7 -17 0.64 0.67
-7 -17 -2 1.5 1.14
7 17 -2 -0.01 0.74
-2 -7 -17 0.67 1.2
17 2 7 0.31 0.74
2 -7 -17 0.35 0.77
-7 -17 2 -1.79 1.05
17 -2 -7 -0.37 0.9
17 -2 -7 0.38 0.72
7 -17 -2 0.74 1.03
-2 -7 17 -0.48 1.18
2 -7 -17 0.15 1.19
7 -17 3 22.69 1.91
3 7 -17 24.95 1.45
17 3 -7 24.35 2.42
17 3 -7 23.58 1.91
-7 -17 -3 24.25 2.1
7 17 -3 21.63 1.54
3 -7 17 25.3 2.11
-3 -7 -17 22.06 1.94
17 -3 -7 25.91 1.5
3 -7 -17 26.93 1.63
3 -7 -17 25.13 2.16
-7 -17 3 26.83 2
-3 -7 17 22.24 2
17 -3 -7 24.97 1.86
17 3 7 26.42 1.52
7 -17 -3 24.68 2
4 7 -17 0.72 0.67
17 4 -7 0.72 0.97
7 -17 4 0.16 1.06
-4 -7 -17 2.4 1.28
-7 -17 -4 0.34 1.08
4 -7 17 -0.1 1.15
17 4 -7 -0.6 1.07
7 -17 -4 0.79 1.11
4 -7 -17 0.98 1.14
17 -4 -7 0.75 0.95
17 -4 -7 1.02 0.77
4 -7 -17 -0.41 0.79
-4 -7 17 -1.08 1.17
-7 -17 4 1.95 1.25
17 4 7 -0.19 0.7
5 7 -17 6.22 0.99
17 5 -7 4.3 1.03
5 7 -17 3.45 1.04
-7 -17 -5 6.96 1.45
17 5 -7 4.57 1.07
7 -17 5 4.8 1.26
-5 -7 -17 5.08 1.4
5 -7 17 4.83 1.25
7 17 -5 5.62 0.93
17 -5 -7 5.28 1.19
-7 -17 5 4.68 1.36
5 -7 -17 7.27 1.39
7 -17 -5 4.03 1.22
17 5 7 6.73 1
-5 -7 17 2.41 1.33
17 -5 -7 4.75 0.85
7 -17 -5 3.99 1.26
-7 -17 -6 0.26 1.31
17 6 -7 0.25 0.8
6 7 -17 1.45 0.89
7 17 -6 0.45 0.78
17 6 -7 -0.86 0.82
6 -7 17 -0.17 1.07
-6 -7 -17 0.06 1.29
6 7 -17 -0.39 0.9
7 -17 6 0.39 1.36
17 -6 -7 -0.13 0.8
17 -6 -7 -1.11 1
17 6 7 1.62 2
6 -7 -17 -0.04 0.72
6 -7 -17 1.62 1.25
-6 -7 17 -2.5 1.13
-7 -17 6 -0.93 1.06
7 -17 -6 1.31 1.17
-7 -17 -7 -0.43 1.27
7 -7 17 1.85 1.11
17 7 -7 1.14 0.85
7 7 -17 2.38 1.07
7 17 -7 0.27 0.84
7 7 -17 0.98 1.18
-7 -7 -17 0.07 1.2
7 -17 7 0.33 1.15
17 7 -7 -1.03 0.78
17 -7 -7 0.76 0.93
17 -7 -7 -1.26 1.05
7 -17 -7 0.91 0.89
7 -17 -7 -0.08 1.16
-7 -17 7 3.09 1.27
-7 -7 17 0.99 1.29
7 -7 -17 1.88 1.32
7 -7 -17 -0.9 0.73
17 7 7 0.86 1.24
-8 -7 -17 1.47 1.42
8 -7 17 1.27 1.15
7 -17 8 3.19 1.36
7 17 -8 1.01 1.97
-7 -17 -8 2.06 1.34
8 7 -17 1.95 1.1
17 8 -7 2.85 0.97
8 7 -17 0.55 1.15
17 8 -7 2.32 0.97
17 -8 -7 1.22 1.12
-7 -17 8 2.12 1.53
-8 -7 17 1.56 1.31
8 -7 -17 2.72 1.4
8 -7 -17 1.1 0.88
17 8 7 0.9 1.08
7 -17 -8 2.18 0.82
9 7 -17 -0.8 0.95
9 -7 17 -0.17 1.18
17 9 -7 -0.5 0.91
17 9 -7 -0.75 0.85
-9 -7 -17 -0.11 1.45
9 7 -17 0.29 1.12
7 -17 9 2.06 1.3
7 17 -9 0.5 1.06
9 -7 -17 -0.07 0.84
7 -17 -9 -1.23 0.76
7 -17 -9 1.67 1.41
17 -9 -7 0.85 1.21
17 9 7 0.23 0.98
17 -9 -7 0.54 1.29
-7 -17 9 -0.8 1.79
7 17 -10 2.77 1.16
17 10 -7 1.1 1.03
17 10 -7 -0.57 0.91
10 7 -17 0.1 1.02
10 7 -17 1.46 1.25
7 -17 10 0.42 1.4
-7 -17 -10 2.36 1.65
17 -10 -7 1.62 1.24
17 -10 -7 2.29 1.22
10 -7 -17 3.08 1.36
10 -7 -17 2.75 1.02
7 -17 -10 2 1.48
7 -17 -10 -0.43 0.79
-7 -17 10 1.18 1.44
-10 -7 17 2.88 1.59
-7 -17 -11 0.47 1.67
17 11 -7 -1.36 0.89
7 17 -11 -1.83 1.07
-11 -7 -17 -0.67 1.75
11 7 -17 -0.3 1.3
11 7 -17 -0.49 1.13
7 -17 11 -0.78 1.44
-7 -17 11 1.63 1.69
17 -11 -7 -0.88 1.18
11 -7 -17 -0.1 0.93
11 -7 -17 0.67 1.47
-11 -7 17 0.08 1.73
7 -17 -11 -0.92 1.52
-7 -17 -12 2.82 1.87
12 7 -17 2.64 1.56
12 7 -17 1.2 1.27
17 12 -7 3.21 1.13
7 17 -12 2.23 1.16
7 17 -12 3.21 1.23
7 -17 12 3.13 1.66
17 -12 -7 1.57 1.31
-12 -7 17 1.43 1.86
7 -17 -12 0.85 1.66
-7 -17 12 4.66 1.8
12 -7 -17 1.6 1.16
13 7 -17 2.04 1.36
17 13 -7 5.8 1.61
-7 -17 -13 6.79 2.16
7 -17 13 5.14 1.79
7 17 -13 3.74 1.2
13 7 -17 3.04 1.63
13 -7 -17 3.74 1.63
13 -7 -17 4.77 1.31
-7 -17 13 3.56 2.04
-13 -7 17 7.46 2.29
17 -13 -7 4.04 1.39
7 -17 -13 2.43 1.75
7 17 -14 4.26 1.33
7 -17 14 8.64 2.03
-7 -17 -14 9.17 2.25
14 7 -17 4.47 1.54
17 14 -7 5.94 1.9
14 7 -17 4.84 1.75
7 -17 -14 3.58 1.92
-7 -17 14 5.06 2.02
14 -7 -17 2.46 1.25
17 -14 -7 5.76 1.57
14 -7 -17 7.18 1.8
15 7 -17 3.14 1.47
-7 -17 -15 -2.91 2.54
15 7 -17 0.7 1.71
17 15 -7 1.37 1.87
7 17 -15 2.4 1.33
7 -17 15 2.86 2.33
17 -15 -7 2.08 1.46
7 -17 -15 1.17 2.26
15 -7 -17 1.4 1.31
-7 -17 15 -1.95 2.41
15 -7 -17 3.85 1.72
16 7 -17 2.29 1.93
7 17 -16 3.19 1.51
17 16 -7 0.91 1.98
16 7 -17 2.87 1.51
17 -16 -7 -0.77 1.39
16 -7 -17 1.18 1.28
16 -7 -17 -1.48 1.69
17 0 -8 12.24 1.86
-8 -17 0 12.6 1.61
0 -8 -17 13.46 1.92
0 -8 17 11.57 1.72
17 0 -8 11.12 1.46
8 -17 0 12.2 1.63
8 17 0 12.63 1.45
8 -17 1 3.12 1.11
-1 -8 -17 0.86 1.27
17 1 -8 2.34 0.95
1 8 -17 3.83 0.77
8 17 -1 4.28 1.06
1 -8 17 4.07 1.28
-8 -17 -1 3.92 1.24
-8 -17 1 3.53 1.18
1 -8 -17 3.07 1.22
17 -1 -8 2.04 0.94
8 -17 -1 2.22 1.09
17 -1 -8 5.35 1.11
-1 -8 17 4.8 1.42
8 17 1 4.75 1.16
1 -8 -17 3.56 0.84
8 17 -2 0.35 0.9
17 2 -8 0.19 1.02
2 8 -17 0.43 0.67
-8 -17 -2 0.78 1.08
2 -8 17 -0.02 1.18
8 -17 2 -0.15 1.03
-2 -8 -17 -2.72 1.16
17 2 -8 0.05 0.88
17 -2 -8 0.14 0.77
-2 -8 17 1.58 1.19
2 -8 -17 -1.03 0.76
8 -17 -2 -0.81 1.05
-8 -17 2 1.51 1.22
2 -8 -17 -1.81 1.06
17 -2 -8 -0.14 0.95
8 -17 3 2.43 1.17
3 8 -17 -0.27 0.7
17 3 -8 1.52 0.95
17 3 -8 0.33 0.84
-3 -8 -17 -0.22 1.2
-8 -17 -3 -0.44 1.07
8 17 -3 -0.31 0.76
3 -8 17 0.42 1.18
17 -3 -8 -0.2 0.88
17 -3 -8 -0.92 0.99
3 -8 -17 0.49 1.18
8 -17 -3 -1.09 1.03
-3 -8 17 2.16 1.33
-8 -17 3 -0.37 1.17
3 -8 -17 -0.67 0.8
4 8 -17 -0.64 0.68
8 -17 4 1.94 1.12
8 17 -4 -0.08 0.96
17 4 -8 1.3 0.94
-8 -17 -4 -1.56 1.23
17 4 -8 0.04 0.88
4 -8 17 2.38 1.3
-4 -8 -17 -1.06 1.16
4 -8 -17 0.02 1.22
17 -4 -8 0.78 0.95
8 -17 -4 0.9 0.79
-8 -17 4 -0.97 1.08
17 -4 -8 1.06 1.2
4 -8 -17 0.52 0.88
-4 -8 17 -0.06 1.19
8 -17 -4 -0.51 1.14
-8 -17 -5 4.68 1.3
17 5 -8 1.18 0.89
5 8 -17 2.6 0.82
8 -17 5 3.48 1.12
5 8 -17 -0.03 0.87
17 5 -8 0.8 0.85
-5 -8 -17 2.02 1.23
5 -8 17 2.37 1.32
8 -17 -5 3.14 0.84
-5 -8 17 3.31 1.53
17 -5 -8 1.77 1.09
5 -8 -17 0.41 0.98
-8 -17 5 2.27 1.36
5 -8 -17 2.6 1.35
8 -17 -5 1.7 1.36
6 8 -17 8.7 1.36
17 6 -8 8.16 1.18
-6 -8 -17 5.61 1.62
8 17 -6 5.61 1.61
17 6 -8 8.11 1.23
-8 -17 -6 9.29 1.59
8 17 -6 11.52 1.72
8 -17 6 6.18 1.32
6 -8 17 8.44 1.39
17 -6 -8 7.68 1.45
-8 -17 6 9.71 1.68
8 -17 -6 8.87 1.1
-6 -8 17 9.26 1.62
8 -17 -6 9.95 1.56
17 -6 -8 6.88 1.63
6 -8 -17 8.89 1.63
6 -8 -17 7.99 1.05
8 -17 7 3.54 1.35
7 8 -17 3.26 1.17
-7 -8 -17 0.67 1.28
17 7 -8 1.21 0.85
7 -8 17 1.36 1.18
7 8 -17 1.49 1.21
-8 -17 -7 -0.2 1.33
8 17 -7 2.33 1.16
17 7 -8 1.49 0.96
7 -8 -17 -0.13 0.8
17 -7 -8 1.67 1.19
-8 -17 7 -1.28 1.32
8 -17 -7 2.57 0.9
8 -17 -7 3.69 1.51
-7 -8 17 1.03 1.67
17 -7 -8 -0.63 1.05
8 8 -17 -0.37 1.08
8 8 -17 1.91 1.06
-8 -8 -17 -2.32 1.45
17 8 -8 0.68 0.89
17 8 -8 -0.71 0.89
-8 -17 -8 2.84 1.5
8 17 -8 0.31 1.08
8 -8 17 1.05 1.17
8 17 -8 1.49 0.89
-8 -8 17 -4 1.61
8 -8 -17 2 1.37
8 -17 -8 -2.41 1.35
8 -17 -8 -1.86 0.74
17 -8 -8 -0.63 1.12
8 -8 -17 0.78 0.91
8 -17 9 2.36 1.36
9 8 -17 0.05 1
17 9 -8 0.92 0.93
9 -8 17 0.55 1.23
9 8 -17 0.93 1.21
8 17 -9 -0.04 1.08
-8 -17 -9 0.32 1.77
17 9 -8 -0.22 0.86
8 17 -9 -0.36 0.91
8 -17 -9 0.93 1.4
9 -8 -17 0.84 0.93
9 -8 -17 0.79 1.35
8 -17 -9 -1.17 0.79
-9 -8 17 0.81 1.54
-8 -17 9 -1.93 1.55
17 -9 -8 1.61 1.15
17 -9 -8 -0.12 1.18
8 17 -10 0.62 0.98
10 8 -17 1.43 1.17
-10 -8 -17 0.11 1.69
10 8 -17 3.57 1.43
-8 -17 -10 1.95 1.59
8 17 -10 2.01 1.16
17 10 -8 1.41 0.98
17 10 -8 3.29 1.04
8 -17 10 -0.67 1.36
10 8 -17 2.7 1.33
17 -10 -8 2.11 1.26
8 -17 -10 3.78 1.55
8 -17 -10 -0.6 0.87
-10 -8 17 0.71 1.69
10 -8 -17 0.59 0.94
17 -10 -8 2.38 1.31
10 -8 -17 1 1.5
-8 -17 10 2.26 1.61
8 17 -11 4.86 1.23
11 8 -17 2.41 1.24
17 11 -8 5.11 1.12
17 11 -8 3.35 1.24
-8 -17 -11 6.6 1.95
8 -17 11 3.9 1.56
8 17 -11 4.77 1.29
11 8 -17 4.7 1.62
11 -8 -17 1.4 1.55
-11 -8 17 4.11 1.85
11 -8 -17 4.04 1.09
17 -11 -8 3.57 1.35
8 -17 -11 5.23 1.65
8 -17 -11 1.79 0.95
17 -11 -8 1.3 1.39
-8 -17 11 5.79 1.94
12 8 -17 0.34 1.29
12 8 -17 1.19 1.57
8 -17 12 3.12 1.69
8 17 -12 3.48 1.24
17 12 -8 3.97 1.32
-8 -17 -12 4.85 2.08
8 17 -12 1.93 1.31
-8 -17 12 4.39 1.84
-12 -8 17 -0.48 2.03
8 -17 -12 3.94 1.8
12 -8 -17 3 1.19
17 -12 -8 1.46 1.33
13 8 -17 1.31 1.36
8 17 -13 4.02 1.31
17 13 -8 1.73 1.74
-8 -17 -13 2.95 2.2
8 17 -13 1.05 1.33
8 -17 13 2.04 1.86
13 8 -17 1.98 1.65
8 -17 -13 1.06 1.88
13 -8 -17 -1.22 1.07
-8 -17 13 -3.54 1.98
-13 -8 17 0.15 2.37
17 -13 -8 -1.54 1.21
14 8 -17 -0.28 1.55
14 8 -17 1.11 1.33
8 17 -14 1.33 1.31
17 14 -8 -0.19 1.81
-8 -17 -14 -2.09 2.31
8 -17 14 4.2 2.07
17 -14 -8 -0.22 1.24
14 -8 -17 -2.08 1.14
8 -17 -14 -0.89 1.98
14 -8 -17 -0.58 1.57
-8 -17 14 0.68 2.11
17 15 -8 1.68 1.87
15 8 -17 -0.48 1.79
15 8 -17 0.58 1.42
8 17 -15 0.43 1.35
15 -8 -17 2.21 1.72
17 -15 -8 2.97 1.42
15 -8 -17 0.03 1.3
8 17 -16 -1.83 1.33
17 16 -8 2.39 2.04
16 8 -17 2.54 1.87
16 8 -17 1.88 1.64
16 -8 -17 0.26 1.33
17 -16 -8 1.37 1.37
16 -8 -17 4.44 1.97
-9 -17 0 -0.36 1.2
17 0 -9 -0.66 0.9
9 -17 0 -0.16 1.02
17 0 -9 0.25 0.85
9 17 0 0.29 1.08
0 -9 -17 0.36 1.13
0 -9 17 -1.01 1.29
-9 -17 -1 2.69 1.24
17 1 -9 4.31 0.98
9 17 -1 3.27 1.23
17 1 -9 4.48 1.11
1 -9 17 5.08 1.48
-1 -9 -17 5.56 1.36
9 -17 1 6.66 1.21
9 -17 -1 2.17 1.16
-1 -9 17 4.06 1.44
17 -1 -9 2.96 1.15
-9 -17 1 4.31 1.41
9 17 1 4.18 1.28
17 -1 -9 4.52 1.12
1 -9 -17 4.55 1.47
-9 -17 -2 -0.8 1.22
9 -17 2 -0.92 1.05
2 -9 17 -1.75 1.19
-2 -9 -17 1.52 1.28
17 2 -9 0.73 0.89
9 17 -2 -0.1 1.18
17 2 -9 0.02 0.96
2 9 -17 -0.54 0.72
-2 -9 17 -0.92 1.31
-9 -17 2 -0.1 1.25
2 -9 -17 -0.22 0.8
2 -9 -17 -0.65 1.25
17 -2 -9 1.64 1.01
9 17 2 0.28 1.08
9 -17 -2 0.61 1.07
17 -2 -9 0.74 0.91
-3 -9 -17 1.45 1.32
17 3 -9 2.15 0.86
-9 -17 -3 0.96 1.3
3 9 -17 1.88 0.76
9 17 -3 1.96 1.24
17 3 -9 1.17 0.98
3 -9 17 1.77 1.35
9 -17 3 1.41 1.14
-3 -9 17 1.37 1.35
3 -9 -17 1.63 0.88
17 -3 -9 -0.47 0.98
3 -9 -17 1.3 1.35
9 -17 -3 1.72 1.09
-9 -17 3 0.36 1.23
17 -3 -9 1.29 0.87
9 -17 4 8.75 1.32
17 4 -9 7.77 1.24
9 17 -4 9.55 1.46
4 9 -17 9.61 1.18
4 -9 17 5.82 1.4
-9 -17 -4 6.59 1.39
-4 -9 -17 9.05 1.54
17 4 -9 7.12 1.2
9 -17 -4 8.12 1.37
9 -17 -4 9.83 1.26
17 -4 -9 7.01 1.23
4 -9 -17 7.76 1.32
17 -4 -9 7.45 1.33
4 -9 -17 7.98 1.54
-4 -9 17 9.2 1.64
-9 -17 4 8.47 1.61
5 -9 17 12.58 1.69
9 -17 5 10.5 1.43
-9 -17 -5 9.25 1.71
17 5 -9 10.51 1.3
17 5 -9 12.76 1.48
5 9 -17 10.43 1.38
9 17 -5 11.57 1.47
-5 -9 -17 12.24 1.72
-9 -17 5 11.92 1.72
9 -17 -5 11.68 1.54
5 -9 -17 12.79 1.26
-5 -9 17 9.9 2.31
9 -17 -5 14.41 1.48
17 -5 -9 10.77 1.47
17 -5 -9 11.17 1.5
-6 -9 -17 0.33 1.4
17 6 -9 0.65 0.89
9 -17 6 -0.01 1.2
-9 -17 -6 0 1.37
17 6 -9 1.85 0.91
6 9 -17 0.75 1.06
9 17 -6 2.74 1.18
6 9 -17 1.09 1.07
6 -9 17 3.87 1.5
9 -17 -6 2.21 1.24
17 -6 -9 -0.09 1.02
17 -6 -9 -0.13 1.09
6 -9 -17 -0.33 0.73
6 -9 -17 -1.4 1.46
-9 -17 6 0.45 1.24
9 17 -7 1.36 1.16
7 9 -17 1.62 1.12
7 9 -17 2.06 1.13
-9 -17 -7 2.2 1.48
17 7 -9 0.53 0.94
17 7 -9 -1.4 0.83
9 -17 7 1.57 1.4
17 -7 -9 0.03 1.11
7 -9 -17 5.11 1.48
7 -9 -17 1.2 0.85
9 -17 -7 -0.42 0.84
17 -7 -9 -0.05 1.13
-7 -9 17 2.79 1.56
-9 -17 7 -3.03 1.46
9 17 -8 0.27 0.81
9 -17 8 -0.68 1.28
8 9 -17 0.37 1.17
-8 -9 -17 4.59 1.92
9 17 -8 1.52 1.16
8 9 -17 0.18 1.08
17 8 -9 0.46 0.99
17 8 -9 0.76 0.87
-9 -17 8 3.86 1.6
17 -8 -9 2.26 1.21
17 -8 -9 1.12 1.11
-8 -9 17 0.73 1.6
8 -9 -17 2.4 0.87
8 -9 -17 0.31 1.35
9 -17 -8 0.84 1.33
-9 -9 -17 3.95 1.68
9 -17 9 -1.95 1.28
-9 -17 -9 1.85 1.66
9 9 -17 0.65 1.12
9 9 -17 2.04 1.3
17 9 -9 -0.87 0.93
9 -9 17 -1.2 1.53
9 17 -9 0.15 1.14
17 9 -9 0.65 0.97
9 17 -9 -0.38 0.86
-9 -9 17 1.73 1.64
9 -9 -17 0.88 0.94
17 -9 -9 0.82 1.21
-9 -17 9 -3.5 1.41
9 -9 -17 -2.05 1.4
9 -17 -9 0.36 1.39
17 -9 -9 -0.26 1.23
17 10 -9 0.6 1.04
-9 -17 -10 0.28 1.74
9 17 -10 1.02 0.95
9 -17 10 0.91 1.47
-10 -9 -17 3.17 1.88
17 10 -9 3.9 1.13
10 9 -17 0.91 1.2
9 17 -10 2.61 1.26
10 9 -17 4.18 1.44
10 -9 -17 2.8 1.59
9 -17 -10 3.45 1.01
-10 -9 17 3.12 1.79
10 -9 -17 3.47 1.05
9 -17 -10 5.44 1.64
17 -10 -9 3.21 1.29
-9 -17 10 3.14 1.84
17 -10 -9 2.66 1.33
17 11 -9 1.25 1.07
9 -17 11 1.3 1.61
17 11 -9 1.36 1.07
11 9 -17 1.21 1.46
9 17 -11 0.89 1.28
11 9 -17 0.4 1.29
-9 -17 -11 3.46 1.92
9 17 -11 1.38 1.06
11 -9 -17 0.81 1.63
11 -9 -17 -0.82 0.98
17 -11 -9 3.2 1.42
17 -11 -9 -0.41 1.35
9 -17 -11 3.42 1.02
-11 -9 17 1.26 1.94
9 -17 -11 1.51 1.69
-9 -17 11 1.46 1.77
9 17 -12 1.25 1.15
12 9 -17 0.97 1.53
9 -17 12 0.78 1.84
12 9 -17 2.76 1.36
-9 -17 -12 4.14 2.2
17 12 -9 0.07 1.65
9 17 -12 0.97 1.39
-9 -17 12 3.51 2
9 -17 -12 3.65 1.81
-12 -9 17 1.23 2.21
12 -9 -17 2.88 1.15
17 -12 -9 1.55 1.4
9 -17 -12 0.97 1.04
17 13 -9 1.67 1.84
13 9 -17 2.66 1.34
13 9 -17 1.51 1.64
9 17 -13 2.96 1.45
9 17 -13 2.74 1.25
-9 -17 -13 1.54 2.32
-9 -17 13 -1.06 1.99
17 -13 -9 1.59 1.35
9 -17 -13 -0.41 1.97
13 -9 -17 2.27 1.23
14 9 -17 1.07 1.65
17 14 -9 1.91 1.83
14 9 -17 -2.03 1.27
9 17 -14 1.22 1.45
9 17 -14 0.44 1.24
9 -17 -14 0.48 3.03
17 -14 -9 0.01 1.3
14 -9 -17 2.13 1.78
-9 -17 14 4.69 3.11
14 -9 -17 3.89 1.32
9 17 -15 1.13 1.38
15 9 -17 -0.58 1.74
15 9 -17 0.68 1.48
17 15 -9 2.65 1.88
15 -9 -17 4.37 1.9
17 -15 -9 1.52 1.39
15 -9 -17 -0.57 1.37
16 9 -17 0.85 1.67
17 16 -9 0.89 1.91
16 9 -17 -3.15 1.84
9 17 -16 -0.18 1.94
16 -9 -17 -1.2 1.78
16 -9 -17 -1.33 1.35
17 -16 -9 1.49 1.46
0 -10 -17 1.32 1.33
10 -17 0 4.51 1.27
17 0 -10 3.08 0.97
-10 -17 0 2.69 1.36
0 -10 17 4.19 1.69
17 0 -10 3.46 1.11
10 17 0 3.12 1.27
10 -17 1 10 1.35
17 1 -10 11.89 1.62
-10 -17 -1 14.39 2.02
-1 -10 -17 13.45 1.88
10 17 -1 12.26 1.69
17 1 -10 12.43 1.43
1 -10 17 11.78 2.05
-10 -17 1 16.38 2.08
17 -1 -10 11.89 1.57
1 -10 -17 10.68 1.88
10 17 1 12.64 1.63
-1 -10 17 10.47 2.52
17 -1 -10 11.97 1.33
10 -17 -1 11.21 1.43
10 -17 2 1.51 1.13
17 2 -10 1.39 0.83
2 -10 17 2.33 1.96
10 17 -2 1.96 1.24
17 2 -10 -0.16 0.89
-2 -10 -17 1.69 1.46
-10 -17 -2 3.91 1.38
17 -2 -10 2.96 1.19
17 -2 -10 1.2 0.87
10 -17 -2 0.22 1.13
-10 -17 2 -0.9 1.34
10 17 2 1.07 1.15
-10 -17 -3 19.01 2.21
10 17 -3 17.07 1.8
17 3 -10 16.59 1.55
10 -17 3 16.52 1.91
-3 -10 -17 20.34 2.32
3 10 -17 18.8 1.32
17 3 -10 19.26 1.78
10 -17 -3 17.05 1.6
-10 -17 3 16.67 1.97
10 -17 -3 16.82 1.84
17 -3 -10 18.53 1.58
3 -10 -17 21.27 2.63
17 -3 -10 19.33 1.75
17 4 -10 2.81 1.12
10 17 -4 3.14 1.33
10 -17 4 3.61 1.18
17 4 -10 1.52 0.98
4 10 -17 2.29 0.82
-10 -17 -4 5.7 1.49
4 -10 -17 4.46 1.5
17 -4 -10 3.37 1.03
17 -4 -10 3.26 1.21
10 -17 -4 3.63 0.99
-10 -17 4 2.97 1.48
10 -17 -4 2.87 1.22
-4 -10 17 4.17 1.78
10 17 -5 -0.04 1.27
17 5 -10 -0.27 0.97
5 -10 17 -1.33 1.4
-10 -17 -5 -0.07 1.49
5 10 -17 0.85 1.46
10 -17 5 1.15 1.15
17 5 -10 -0.97 0.77
-5 -10 17 0.38 1.57
17 -5 -10 -1.18 1.03
17 -5 -10 -0.81 1.14
10 -17 -5 1.69 0.9
5 -10 -17 0.14 1.34
-10 -17 5 0.72 1.45
10 -17 -5 -2.16 1.15
5 -10 -17 -1.06 0.76
17 6 -10 -1.01 1.04
10 17 -6 1.32 1.18
17 6 -10 1.01 0.91
-6 -10 -17 0.1 1.37
6 10 -17 -0.23 1.06
6 -10 17 1.84 1.36
10 -17 6 1.18 1.19
-10 -17 -6 0.53 1.53
6 10 -17 0.14 0.96
-6 -10 17 -0.6 1.27
6 -10 -17 3.41 1.43
10 -17 -6 0.58 0.94
-10 -17 6 1.2 1.35
6 -10 -17 -1.04 0.74
17 -6 -10 0.8 1.23
17 -6 -10 -0.53 1.18
17 7 -10 0.76 0.96
7 10 -17 0.06 1.1
10 17 -7 3.37 1.27
17 7 -10 2.81 1.09
7 10 -17 1.07 1.15
-7 -10 -17 1.91 1.57
7 -10 17 -1.18 1.28
7 -10 -17 0.69 0.85
-10 -17 7 1.89 1.92
17 -7 -10 1.98 1.25
17 -7 -10 1.05 1.25
7 -10 -17 0.78 1.46
-7 -10 17 0.79 1.62
10 -17 -7 0.5 0.92
10 -17 -7 -0.11 1.29
8 10 -17 1.84 1.29
8 10 -17 1.18 1.15
-10 -17 -8 -0.38 1.69
10 -17 8 3.54 1.34
10 17 -8 4.73 1.35
17 8 -10 1.96 1.13
-8 -10 -17 -1.58 1.58
8 -10 17 3.32 1.4
17 8 -10 1.73 1.15
-8 -10 17 1.26 1.72
-10 -17 8 3.06 1.65
17 -8 -10 1.7 1.17
17 -8 -10 0.57 1.24
10 -17 -8 -0.02 0.88
8 -10 -17 2.29 1.41
10 -17 -8 0.18 1.4
8 -10 -17 0.05 1
10 17 -9 1.59 0.99
-10 -17 -9 -0.27 1.75
17 9 -10 3.46 1.2
9 10 -17 2.19 1.35
10 17 -9 1.35 1.25
17 9 -10 4.56 1.2
9 10 -17 2.88 1.28
10 -17 9 2.78 1.45
-9 -10 -17 -0.41 1.73
-10 -17 9 -0.38 1.74
10 -17 -9 1.8 1.47
9 -10 -17 -0.43 1.56
17 -9 -10 3.08 1.38
-9 -10 17 5.07 1.78
10 -17 -9 2.36 1.02
9 -10 -17 2.78 1.03
17 -9 -10 1.15 1.16
17 10 -10 2.11 1.18
10 17 -10 1.43 1.04
10 17 -10 -1.42 1.26
10 10 -17 1.1 1.4
10 10 -17 0.5 1.22
17 10 -10 2.89 1.22
-10 -17 -10 1.42 1.9
-10 -10 -17 3.45 1.9
10 -10 -17 0.77 1.67
10 -17 -10 1.17 1
10 -17 -10 4 1.64
17 -10 -10 -1.19 1.4
17 -10 -10 2.8 1.31
-10 -17 10 6.95 1.94
-10 -10 17 -0.28 1.86
10 -10 -17 0.88 0.97
10 17 -11 2.48 1.41
17 11 -10 0.58 1.15
-10 -17 -11 1.77 2.13
11 10 -17 1.18 1.53
11 10 -17 -0.02 1.15
10 17 -11 -0.72 1.05
17 11 -10 0.78 1.53
-10 -17 11 1.9 1.97
10 -17 -11 6.77 1.87
10 -17 -11 1.81 1.04
-11 -10 17 -1.37 1.89
11 -10 -17 1.06 1.08
17 -11 -10 3.77 1.44
17 -11 -10 2 1.48
10 17 -12 5.73 2.01
12 10 -17 5.09 1.44
17 12 -10 1.24 1.28
17 12 -10 4.76 1.9
10 17 -12 5.1 1.34
12 10 -17 5.2 1.64
17 -12 -10 5.03 1.44
-12 -10 17 2.25 2.35
10 -17 -12 9.54 2.06
-10 -17 12 5.3 2.16
17 -12 -10 3.28 1.66
10 -17 -12 5.24 1.19
12 -10 -17 3.75 1.25
13 10 -17 3.35 1.48
10 17 -13 -0.96 1.21
10 17 -13 0.1 1.54
13 10 -17 2.91 1.77
17 13 -10 2.91 1.86
-10 -17 13 7.47 2.41
17 -13 -10 1.07 1.44
10 -17 -13 6.93 2.23
10 -17 -13 3.41 1.23
13 -10 -17 3.96 1.29
14 10 -17 5.28 1.56
10 17 -14 2.86 1.39
17 14 -10 3.6 1.96
10 17 -14 3.41 1.64
14 10 -17 4.07 1.93
14 -10 -17 4.69 1.92
17 -14 -10 4.2 1.48
14 -10 -17 6.09 1.42
10 17 -15 3.78 1.52
17 15 -10 2.95 2.01
15 10 -17 4.94 1.94
15 10 -17 6.31 1.72
15 -10 -17 5.66 2
15 -10 -17 3.81 1.48
17 -15 -10 5.16 1.49
16 10 -17 -1.72 1.91
16 10 -17 1.1 1.99
10 17 -16 -0.71 1.49
17 16 -10 0.49 2.01
16 -10 -17 -0.6 1.69
17 -16 -10 0.73 1.74
16 -10 -17 -0.07 1.87
-11 -17 0 35.08 2.64
0 -11 -17 34.8 2.61
11 -17 0 30.79 2.08
0 -11 17 27.69 2.57
17 0 -11 31.98 1.88
11 17 0 32.11 2.34
17 0 -11 31.5 2.21
17 1 -11 -1.29 1.02
-1 -11 -17 0.93 1.35
11 17 -1 0.87 1.33
-11 -17 -1 4.34 1.61
1 -11 17 0.2 1.33
11 -17 1 -1.23 1.07
17 1 -11 4.11 1.09
-1 -11 17 -2.44 1.36
17 -1 -11 0.13 0.76
17 -1 -11 -0.95 1.01
11 17 1 -0.08 1.17
-11 -17 1 -3.48 1.41
11 -17 -1 1.07 1.12
1 -11 -17 0.35 1.45
-11 -17 -2 -1.84 1.41
11 -17 2 0.35 1.12
17 2 -11 -0.53 1.04
17 2 -11 -0.35 0.84
11 17 -2 0.16 1.22
-2 -11 -17 0.34 1.47
2 -11 17 1.36 1.43
11 17 2 0.49 1.18
17 -2 -11 -0.06 0.78
-11 -17 2 -1.05 1.44
17 -2 -11 -1.04 1.03
-2 -11 17 1.82 1.43
11 -17 -2 1.08 1.11
2 -11 -17 -1.7 1.35
11 17 -3 10.27 1.61
3 -11 17 8.94 1.75
-3 -11 -17 10.05 1.79
17 3 -11 8.48 1.36
-11 -17 -3 9.34 1.74
17 3 -11 9 1.35
11 -17 3 9.43 1.35
11 -17 -3 9.89 1.3
11 -17 -3 8.8 1.38
17 -3 -11 11.74 1.6
-11 -17 3 9.9 1.73
17 -3 -11 10.39 1.43
-3 -11 17 11.74 1.95
3 -11 -17 6.97 1.69
-11 -17 -4 4.09 1.64
4 -11 17 3.72 1.46
17 4 -11 2.78 1.15
17 4 -11 3.71 1.05
11 17 -4 4.16 1.41
-4 -11 -17 1.64 1.51
11 -17 4 5.43 1.25
17 -4 -11 3.45 1.07
11 -17 -4 5.06 1.27
17 -4 -11 0.85 1.15
-11 -17 4 4.44 1.62
4 -11 -17 4.35 1.61
-4 -11 17 5.93 1.78
11 -17 -4 2.23 1.03
5 11 -17 16.04 1.7
5 -11 17 9.51 1.69
-5 -11 -17 18.1 2.39
17 5 -11 8.36 1.3
11 17 -5 9.23 1.6
-11 -17 -5 10.52 1.81
17 5 -11 9.07 1.49
11 -17 5 11.45 1.69
5 -11 -17 9.57 1.28
17 -5 -11 11.67 1.52
-11 -17 5 12.83 2.97
5 -11 -17 8.41 1.73
17 -5 -11 10.92 1.61
-5 -11 17 12.98 2.03
11 -17 -5 14.05 1.64
11 17 -6 7.2 1.56
17 6 -11 11.05 1.38
17 6 -11 10.36 1.49
-6 -11 -17 7.85 1.78
6 11 -17 5.66 1.31
6 -11 17 9.23 1.69
6 11 -17 10.15 1.38
17 -6 -11 9.8 1.54
6 -11 -17 6.08 1.73
-11 -17 6 3.84 1.72
11 -17 -6 7.8 1.46
6 -11 -17 8.55 1.06
11 -17 -6 10.84 1.48
-6 -11 17 5.9 1.79
17 -6 -11 8.6 1.52
-7 -11 -17 3.05 1.7
11 17 -7 -0.21 1.33
7 11 -17 -0.66 1.14
7 -11 17 1.69 1.5
17 7 -11 1.59 1.15
17 7 -11 0.09 0.95
-11 -17 -7 1.26 1.9
7 11 -17 -0.58 1.13
7 -11 -17 -1.38 1.49
11 -17 -7 1.77 1.39
11 -17 -7 -1.12 0.88
7 -11 -17 2.57 0.93
17 -7 -11 1.69 1.33
17 -7 -11 0.59 1.2
-7 -11 17 0.75 1.51
-11 -17 7 -1.1 1.59
-8 -11 -17 1.95 1.82
8 11 -17 6.14 1.39
8 -11 17 5.24 1.59
17 8 -11 4.16 1.12
11 17 -8 4.34 1.47
17 8 -11 5.48 1.27
8 11 -17 1.9 1.26
11 -17 -8 2.46 1.13
8 -11 -17 6.61 1.69
-8 -11 17 5.72 1.76
17 -8 -11 5.54 1.42
17 -8 -11 6 1.49
-11 -17 8 3.65 1.89
8 -11 -17 4.34 1.02
11 -17 -8 4.1 1.55
-9 -11 -17 2.57 1.87
9 11 -17 3.71 1.4
17 9 -11 2.06 1.03
11 17 -9 0.28 1.38
9 11 -17 3.92 1.35
17 9 -11 3.95 1.23
17 -9 -11 2.17 1.27
11 -17 -9 0.19 1.52
9 -11 -17 0.87 1.74
-9 -11 17 2.76 1.97
9 -11 -17 3.52 1.03
17 -9 -11 0.83 1.44
11 -17 -9 1.14 1.04
-11 -17 9 3.49 1.95
11 17 -10 -0.64 1.28
10 11 -17 -0.48 1.27
17 10 -11 0.63 1.34
17 10 -11 0.93 1.24
10 11 -17 2.48 1.48
-10 -11 -17 0.35 2.07
11 17 -10 0.47 1.36
10 -11 -17 0.46 1.04
-10 -11 17 1.35 1.94
11 -17 -10 0.55 2.47
11 -17 -10 1.28 1.05
17 -10 -11 1.14 1.3
17 -10 -11 0.53 1.46
10 -11 -17 2.96 1.85
-11 -17 10 -1.4 1.97
17 11 -11 22.05 2.11
17 11 -11 21.87 2.42
11 11 -17 18.92 2.03
11 17 -11 22.34 2.3
11 17 -11 20.98 1.87
11 11 -17 20.45 2.39
-11 -11 17 19.65 2.64
11 -17 -11 22.34 1.93
17 -11 -11 21.33 2.42
11 -11 -17 21.49 1.89
17 -11 -11 25.56 2.35
-11 -17 11 25.26 3.46
12 11 -17 2.46 1.7
17 12 -11 2.03 1.88
11 17 -12 1.23 1.53
11 17 -12 0.6 1.22
12 11 -17 5.14 1.41
17 12 -11 1.13 1.32
17 -12 -11 0.81 1.32
-11 -17 12 2.82 2.36
17 -12 -11 1.54 1.69
11 -17 -12 0.08 1.15
12 -11 -17 3.39 1.29
-12 -11 17 2.75 2.38
13 11 -17 0.46 1.75
13 11 -17 1.11 1.42
11 17 -13 1.06 1.29
11 17 -13 3.18 1.63
17 13 -11 3.88 2.02
17 -13 -11 1.19 1.36
11 -17 -13 -0.14 1.27
13 -11 -17 2.63 1.3
17 14 -11 3.19 2.05
14 11 -17 1.13 1.79
11 17 -14 0.71 1.43
14 11 -17 -0.46 1.43
11 17 -14 -3.29 1.63
14 -11 -17 0.88 1.85
14 -11 -17 -0.92 1.34
17 -14 -11 -0.97 1.29
15 11 -17 3.43 1.97
17 15 -11 2.02 2.09
11 17 -15 -2.68 1.9
15 -11 -17 2.46 1.97
17 -15 -11 3.42 2.56
11 17 -16 9.32 1.74
16 11 -17 11.66 1.99
17 -16 -11 14.21 1.89
16 -11 -17 11.92 1.76
17 0 -12 4.37 1.11
0 -12 -17 5.59 1.66
12 17 0 5.04 1.53
17 0 -12 6.23 1.34
0 -12 17 7.04 1.78
12 17 -1 10.09 1.64
17 1 -12 8.24 1.29
-1 -12 -17 11.22 1.88
1 -12 17 8.58 1.86
17 1 -12 7.72 1.4
17 -1 -12 7.51 1.23
-1 -12 17 9.89 1.88
12 17 1 8.67 1.69
17 -1 -12 8.35 1.42
1 -12 -17 8.28 1.68
17 2 -12 1.27 0.95
17 2 -12 -0.39 1.04
12 17 -2 1.62 1.44
2 -12 17 -0.44 1.47
-2 -12 -17 2.91 1.46
-2 -12 17 -0.67 1.53
12 17 2 0.26 1.4
2 -12 -17 0.98 1.55
17 -2 -12 0.21 0.92
17 -2 -12 1.26 1.2
-3 -12 -17 -1.16 1.48
3 -12 17 1.58 1.54
17 3 -12 1.8 1.17
17 3 -12 2.3 1.03
12 17 -3 1.01 1.35
12 -17 -3 2.21 1.12
17 -3 -12 1.23 1.03
17 -3 -12 2.04 1.15
-3 -12 17 0.69 1.57
-12 -17 3 1.63 2.21
3 -12 -17 1.72 1.64
12 17 -4 11.12 1.71
4 -12 17 9.94 1.82
17 4 -12 8.14 1.41
-4 -12 -17 8.39 1.68
17 4 -12 9.04 1.35
17 -4 -12 8.07 1.47
12 -17 -4 11.98 1.63
4 -12 -17 11.87 1.87
-4 -12 17 10.97 1.96
17 -4 -12 8.98 1.29
-5 -12 -17 1.38 1.57
17 5 -12 4.5 1.14
5 -12 17 4.92 1.64
12 17 -5 4 1.47
5 12 -17 5.2 1.26
17 5 -12 5.57 1.34
-12 -17 5 5.69 1.97
17 -5 -12 5.93 1.24
-5 -12 17 8.25 1.9
12 -17 -5 4.58 1.18
17 -5 -12 3.11 1.26
5 -12 -17 3.98 1.7
12 17 -6 9.58 1.73
6 12 -17 9.47 1.48
-6 -12 -17 10.13 2.01
17 6 -12 10.12 1.55
6 -12 17 9.24 1.81
17 6 -12 9.43 1.39
6 12 -17 12.95 1.51
12 -17 -6 9.95 1.39
6 -12 -17 14.02 1.46
17 -6 -12 11.15 1.61
17 -6 -12 12.41 1.68
-6 -12 17 11.1 1.87
-12 -17 6 11.99 2.92
6 -12 -17 13.02 2
-7 -12 -17 1.96 1.72
7 12 -17 2.24 1.26
7 12 -17 3.85 1.35
7 -12 17 3.75 1.67
12 17 -7 1.37 1.49
17 7 -12 3.59 1.1
17 7 -12 3.98 1.25
12 -17 -7 0.61 1.01
17 -7 -12 1.04 1.38
-12 -17 7 5.71 3.19
17 -7 -12 3.21 1.35
7 -12 -17 5.69 1.77
7 -12 -17 0.35 0.96
-7 -12 17 5.28 1.95
17 8 -12 3.59 1.32
-8 -12 -17 4.51 1.89
8 -12 17 6.38 1.68
12 17 -8 1.74 1.47
8 12 -17 1.38 1.24
17 8 -12 3.04 1.12
8 12 -17 6.32 1.44
8 -12 -17 2.67 1.05
12 -17 -8 2 1.1
8 -12 -17 2.27 1.71
-8 -12 17 3.26 1.94
17 -8 -12 2.89 1.35
17 -8 -12 2.27 1.44
9 12 -17 0.21 1.25
17 9 -12 -0.45 1.06
12 17 -9 2.54 1.53
17 9 -12 2 1.28
9 12 -17 1.88 1.46
-9 -12 -17 2.23 2.04
17 -9 -12 0.32 1.31
9 -12 -17 5.02 1.93
12 -17 -9 2.61 1.14
9 -12 -17 0.49 1.04
-9 -12 17 0.24 1.83
17 -9 -12 1.7 1.5
10 12 -17 3.62 1.55
-10 -12 -17 5.9 3.91
12 17 -10 3.82 1.62
17 10 -12 5.45 1.84
10 12 -17 5.89 1.48
17 10 -12 6.87 1.43
12 -17 -10 7.21 1.35
10 -12 -17 5.06 2.07
-10 -12 17 3.09 2.22
17 -10 -12 4.25 1.4
17 -10 -12 5.37 1.69
10 -12 -17 4.7 1.23
17 11 -12 4.14 1.37
17 11 -12 0.66 1.76
11 12 -17 2.04 1.37
12 17 -11 -1 1.57
11 12 -17 0.59 1.58
11 -12 -17 -0.29 1.16
17 -11 -12 4.65 1.7
17 -11 -12 2 1.39
12 -17 -11 0.6 1.2
-11 -12 17 3.88 2.45
17 12 -12 14.8 1.73
17 12 -12 11.56 2.12
12 12 -17 8.01 1.65
12 17 -12 11.52 1.87
12 17 -12 10.77 1.94
12 12 -17 13.17 2.04
12 -12 -17 11.1 1.54
12 -17 -12 13.77 1.63
17 -12 -12 12.44 2
17 -12 -12 10.65 1.8
13 12 -17 1.39 1.82
13 12 -17 1.74 1.43
12 17 -13 0.52 1.48
12 17 -13 -1.73 1.64
17 13 -12 -1.44 1.83
17 -13 -12 -1.51 1.38
12 -17 -13 1.09 1.36
17 -13 -12 4.07 2.92
13 -12 -17 -1.38 1.31
14 12 -17 -0.29 1.99
17 14 -12 2.76 1.94
12 17 -14 2.16 1.91
12 17 -14 -0.36 1.67
14 12 -17 -1.08 1.78
17 -14 -12 -0.64 1.44
14 -12 -17 -1.58 1.84
12 -17 -14 0.62 1.57
12 17 -15 11.66 1.87
12 17 -15 5.74 1.9
15 12 -17 8.66 2.93
17 15 -12 9.72 2.48
15 12 -17 7.01 1.74
17 -15 -12 5.16 1.63
15 -12 -17 8.78 1.7
17 16 -12 2.67 2.12
16 12 -17 2.38 1.76
16 12 -17 2.3 2.18
12 17 -16 1.15 1.71
16 -12 -17 4.66 1.72
16 -12 -17 1.86 2.06
17 -16 -12 -0.58 1.57
0 -13 -17 1.84 1.62
13 17 0 1.9 1.54
0 -13 17 -1.02 1.65
17 0 -13 -1.14 1.04
-1 -13 -17 0.69 1.45
17 1 -13 -0.77 1.21
17 1 -13 0.73 1.1
13 17 -1 0.97 1.43
1 -13 17 -1.15 1.61
17 -1 -13 0.33 1.11
-1 -13 17 0.89 1.66
13 17 1 0.98 1.52
1 -13 -17 -0.07 1.63
17 -1 -13 -0.43 1.18
17 2 -13 1.05 1.28
13 17 -2 1.71 1.49
17 2 -13 0.66 1.26
2 -13 17 2.24 1.69
-2 -13 -17 1.29 1.68
17 -2 -13 -0.24 1.18
13 17 2 1.86 1.51
-2 -13 17 -2.26 1.61
17 -2 -13 0.27 1.09
2 -13 -17 0.06 1.41
13 17 -3 0.57 1.48
17 3 -13 1.73 1.15
17 3 -13 2.21 1.32
3 -13 17 2.9 1.65
-3 -13 -17 2.93 1.59
-3 -13 17 0.46 1.67
3 -13 -17 2.12 1.6
17 -3 -13 0.79 1.23
13 -17 -3 4.46 1.22
17 -3 -13 1.05 1.27
17 4 -13 3.21 1.1
13 17 -4 4.36 1.58
4 -13 17 8.71 1.82
-4 -13 -17 4.48 1.81
17 4 -13 5.24 1.47
-4 -13 17 6.32 1.89
17 -4 -13 5.3 1.53
17 -4 -13 4.49 1.35
13 -17 -4 4 1.24
4 -13 -17 1.91 1.65
-5 -13 -17 3.32 1.78
17 5 -13 -0.75 0.88
5 -13 17 -2.39 1.46
13 17 -5 0.45 1.47
17 5 -13 1.67 1.26
13 -17 -5 1.6 1.17
17 -5 -13 0.61 1.43
5 -13 -17 2.09 1.8
-5 -13 17 1.8 1.79
17 -5 -13 0.63 1.13
6 13 -17 0.07 1.2
-6 -13 -17 2.27 1.79
17 6 -13 1.23 0.97
6 -13 17 1.95 1.7
13 17 -6 0.73 1.62
17 6 -13 -0.11 1.17
-6 -13 17 4.27 1.92
17 -6 -13 1.16 1.45
6 -13 -17 0.73 1.77
17 -6 -13 -0.23 1.15
13 -17 -6 1.02 1.1
7 13 -17 5.33 1.47
-7 -13 -17 8.28 2.1
7 13 -17 4.68 1.38
17 7 -13 3.74 1.12
17 7 -13 2.44 1.4
7 -13 17 3.65 1.84
13 17 -7 6.19 1.69
17 -7 -13 3.92 1.43
13 -17 -7 1.19 1.03
7 -13 -17 3.47 1.87
17 -7 -13 4.21 1.61
-7 -13 17 7.21 2.08
13 17 -8 0.45 1.61
8 13 -17 -1.91 1.22
17 8 -13 -0.31 1.24
-8 -13 -17 4.58 2.12
17 8 -13 0.04 1.03
8 13 -17 0.32 1.41
8 -13 17 -2.42 1.74
-8 -13 17 -0.4 2.04
8 -13 -17 0.67 1.9
13 -17 -8 -2.62 1.04
8 -13 -17 1.67 1.06
17 -8 -13 -1.98 1.49
17 -8 -13 1.14 1.37
17 9 -13 0.92 1.66
9 13 -17 2.61 1.6
17 9 -13 1.76 1.32
9 13 -17 1.39 1.35
13 17 -9 -0.03 1.62
-9 -13 -17 1.14 2.24
17 -9 -13 -1.01 1.16
9 -13 -17 -0.08 1.97
17 -9 -13 -0.65 1.56
13 -17 -9 0.53 1.15
9 -13 -17 2.5 1.13
-9 -13 17 -2.23 1.88
17 10 -13 2.83 1.79
10 13 -17 0.64 1.36
17 10 -13 2.87 1.38
10 13 -17 -0.08 1.62
13 17 -10 1.45 1.73
17 -10 -13 2.03 1.71
10 -13 -17 -0.62 2.05
17 -10 -13 2.47 1.44
-10 -13 17 -0.24 2.29
10 -13 -17 4.18 1.3
13 -17 -10 4.21 1.32
11 13 -17 0.87 1.71
11 13 -17 0.74 1.35
13 17 -11 1.7 1.68
17 11 -13 0.56 1.43
17 11 -13 1.53 1.84
17 -11 -13 2.77 1.47
17 -11 -13 1.01 1.8
13 -17 -11 1.78 1.35
11 -13 -17 2.96 1.34
13 17 -12 -1.97 1.68
12 13 -17 1.74 1.49
17 12 -13 1.03 1.53
17 12 -13 -1.42 1.91
12 13 -17 -1.85 1.74
13 -17 -12 -0.41 1.35
12 -13 -17 1.41 1.37
17 -12 -13 0.12 1.4
17 -12 -13 -0.79 1.79
13 13 -17 1.13 1.77
17 13 -13 4.98 2.15
13 17 -13 5.44 1.87
17 13 -13 5.43 2.14
13 13 -17 3.11 1.95
17 -13 -13 3.76 2.14
17 -13 -13 4.15 1.6
17 14 -13 4.43 2.05
14 13 -17 -1.32 1.48
14 13 -17 -2 3
13 -17 -14 5.92 2.6
13 -17 -14 -0.92 1.49
14 -13 -17 -0.31 1.47
14 -13 -17 2.14 2.63
17 -14 -13 -1.28 1.42
15 13 -17 0.04 1.68
15 13 -17 -1.07 2.01
13 17 -15 -0.89 1.82
17 15 -13 -1.11 1.99
17 -15 -13 0.75 1.56
13 -17 -15 7.15 2.36
17 16 -13 1.67 2.09
16 13 -17 1.88 1.82
16 13 -17 1.18 2.12
13 -17 -16 4.21 2.39
17 -16 -13 1.47 1.59
16 -13 -17 -0.16 1.56
16 -13 -17 -1.34 2.13
17 0 -14 1.57 1.51
17 0 -14 0.45 1.19
14 17 0 3.62 1.63
0 -14 17 6.24 1.91
0 -14 -17 4.1 1.81
17 1 -14 1.11 1.45
14 17 -1 3.01 1.63
-1 -14 -17 0.26 1.72
17 1 -14 0.88 1.2
1 -14 17 2.73 1.8
17 -1 -14 2.33 1.52
-1 -14 17 0.3 1.77
1 -14 -17 -1.3 1.56
14 17 1 0.24 1.59
17 -1 -14 2.69 1.4
-2 -14 -17 -2.73 1.52
2 -14 17 0 1.76
17 2 -14 0.1 1.26
14 17 -2 -1.55 1.42
17 2 -14 -0.57 1.46
2 -14 -17 -0.1 1.78
17 -2 -14 -1.03 1.21
14 17 2 1.58 1.6
-2 -14 17 -2.93 1.49
17 -2 -14 0.67 1.45
14 17 -3 -0.6 1.53
17 3 -14 0.71 1.26
17 3 -14 1.79 1.06
-3 -14 -17 -1.06 1.68
3 -14 17 -0.03 1.8
17 -3 -14 0.02 1.23
-3 -14 17 -1.15 1.76
14 -17 -3 0.13 1.14
3 -14 -17 0.5 1.91
17 -3 -14 0.24 1.4
17 4 -14 2.64 1.04
-4 -14 -17 2.58 1.81
17 4 -14 1.32 1.33
14 17 -4 2.67 1.73
4 -14 17 6.81 1.88
14 -17 -4 2.11 1.26
17 -4 -14 2.44 1.57
-4 -14 17 2.23 1.9
4 -14 -17 2.94 1.86
17 5 -14 0.75 1.15
5 -14 17 2.61 1.75
14 17 -5 0.49 1.7
17 5 -14 1.9 1.29
-5 -14 -17 -1.95 1.82
17 -5 -14 -0.69 1.21
-5 -14 17 -2.96 1.81
5 -14 -17 1.12 1.78
17 -5 -14 -0.66 1.41
14 -17 -5 1.26 1.21
17 6 -14 1.26 1.13
6 -14 17 0.57 1.81
-6 -14 -17 -0.74 1.86
17 6 -14 -0.48 1.26
6 14 -17 -0.83 1.1
14 17 -6 1.88 1.58
17 -6 -14 0.33 1.25
14 -17 -6 1.57 1.24
6 -14 -17 1.09 1.89
-6 -14 17 -0.55 1.96
17 -6 -14 -1.23 1.44
-7 -14 -17 3.56 2.07
17 7 -14 5.97 1.6
7 14 -17 5.8 1.42
14 17 -7 7.4 1.94
17 7 -14 3.26 1.26
7 -14 17 3.41 1.99
14 -17 -7 2.13 1.21
7 -14 -17 5.08 2.04
17 -7 -14 5.08 1.69
17 -7 -14 5.2 1.44
-7 -14 17 6.01 1.94
8 14 -17 -2.68 1.42
17 8 -14 0.26 1.32
-8 -14 -17 -3.57 2.22
8 14 -17 -1.28 1.15
14 17 -8 0.32 1.7
17 8 -14 -0.33 1.27
8 -14 -17 3.35 2.16
14 -17 -8 -0.78 1.16
17 -8 -14 0.3 1.59
17 -8 -14 0.24 1.31
-8 -14 17 2.69 2.13
17 9 -14 0.54 1.33
9 14 -17 -0.31 1.24
9 14 -17 -1.46 1.54
17 9 -14 1.07 1.8
14 17 -9 -0.26 1.68
-9 -14 -17 1.34 3.93
-9 -14 17 6.65 3.19
17 -9 -14 -1.71 1.59
9 -14 -17 0.53 2.89
17 -9 -14 0.1 1.37
14 -17 -9 -1.39 1.19
17 10 -14 6.77 1.55
14 17 -10 4.23 1.88
10 14 -17 3.55 1.51
17 10 -14 9.25 2.04
10 14 -17 3.41 1.72
17 -10 -14 2.96 1.37
10 -14 -17 6.2 1.73
14 -17 -10 5.53 1.49
17 -10 -14 6.02 1.87
14 17 -11 0.23 1.76
17 11 -14 1.66 2
17 11 -14 2.57 1.52
11 14 -17 0.66 1.39
11 14 -17 -0.07 1.69
14 -17 -11 1.47 1.31
11 -14 -17 -1.73 1.41
17 -11 -14 1.62 1.82
17 -11 -14 2.62 1.5
14 17 -12 -0.93 1.81
17 12 -14 0.2 2.04
12 14 -17 -1.56 1.76
12 14 -17 -1 1.99
12 -14 -17 -1.41 2.2
17 -12 -14 1.57 1.5
17 -12 -14 -1.36 1.91
13 14 -17 0.11 1.5
17 13 -14 3.04 2.21
17 13 -14 3.16 1.75
17 -13 -14 1.03 2.23
14 -17 -13 1.34 1.45
17 -13 -14 1.83 1.47
13 -14 -17 1.06 1.48
14 14 -17 3.52 2.09
14 14 -17 1.85 1.64
14 17 -14 0.05 1.89
17 14 -14 2.09 2.09
14 -17 -14 -1.91 1.52
14 -14 -17 1.62 2.18
14 -14 -17 2.66 1.65
17 -14 -14 0.01 1.49
14 17 -15 1.83 1.97
17 15 -14 0.08 2.06
15 14 -17 1.27 1.79
15 14 -17 0.67 2.03
17 -15 -14 1.24 1.63
15 -14 -17 0.99 1.67
15 -14 -17 -3.22 2.17
17 16 -14 -0.51 2.08
14 17 -16 0.79 2.3
16 14 -17 3.81 2.05
16 14 -17 4.97 1.94
16 -14 -17 3.02 2.32
16 -14 -17 -3.37 1.61
17 -16 -14 -1.12 1.67
17 0 -15 3.57 1.4
17 0 -15 5.6 1.73
15 17 0 5.25 1.96
0 -15 17 1.38 1.78
0 -15 -17 6.73 1.87
15 17 -1 6.92 1.93
-1 -15 -17 4.76 1.85
17 1 -15 5.44 1.51
17 1 -15 5.81 1.69
1 -15 17 7.05 2.01
1 -15 -17 5.22 2
-1 -15 17 4.35 1.97
15 17 1 8.39 1.65
17 -1 -15 6.05 1.61
17 -1 -15 5.87 1.71
2 -15 17 2.51 1.9
17 2 -15 -0.14 1.39
15 17 -2 1.62 1.74
-2 -15 -17 -0.37 1.92
17 2 -15 0.84 1.38
-2 -15 17 0.31 1.97
17 -2 -15 0.97 1.55
17 -2 -15 0.99 1.31
2 -15 -17 -1.57 1.89
15 17 2 -0.14 1.04
17 3 -15 -0.68 0.96
3 -15 17 0.87 1.91
15 17 -3 0.76 1.64
-3 -15 -17 -2.43 1.7
17 3 -15 0.18 1.28
17 -3 -15 -0.14 1.25
15 -17 -3 0.42 1.23
17 -3 -15 0.15 1.53
3 -15 -17 5.24 1.97
-3 -15 17 -0.06 1.9
4 -15 17 9.16 2.12
17 4 -15 8.26 1.41
15 17 -4 8.39 1.97
17 4 -15 8.91 1.71
-4 -15 -17 10.23 2.12
17 -4 -15 8.96 1.86
17 -4 -15 7.56 1.6
4 -15 -17 8.59 2.11
15 -17 -4 7.94 1.52
-4 -15 17 9.03 2.04
17 5 -15 9.12 1.63
17 5 -15 8.53 1.51
5 -15 17 10.83 2.08
-5 -15 -17 9.96 2.15
15 17 -5 9 2.01
5 -15 -17 10.26 2.19
17 -5 -15 7.01 1.59
15 -17 -5 9.02 1.63
-5 -15 17 4.89 2.19
17 -5 -15 8.9 1.85
17 6 -15 8.33 1.65
6 -15 17 5.73 2.06
17 6 -15 6.65 1.4
15 17 -6 8.44 2.01
6 15 -17 7.98 1.48
-6 -15 -17 2.04 2.22
17 -6 -15 8.38 1.83
15 -17 -6 9.18 1.56
6 -15 -17 9.1 2.31
17 -6 -15 8.03 1.57
-6 -15 17 3.66 2.24
17 7 -15 -0.38 1.37
15 17 -7 0.26 1.77
17 7 -15 1.85 1.3
-7 -15 -17 -5.44 2.31
7 -15 17 2.65 2.39
7 15 -17 3.25 1.47
7 -15 -17 5.61 2.23
17 -7 -15 1.43 1.4
-7 -15 17 1.92 2.3
15 -17 -7 0.36 1.34
17 -7 -15 0.75 1.72
8 15 -17 2.1 1.42
17 8 -15 -0.04 1.39
15 17 -8 4.93 1.92
17 8 -15 1.89 1.78
17 -8 -15 2.58 1.76
15 -17 -8 -0.7 1.22
17 -8 -15 4.43 1.5
15 17 -9 1.4 1.8
17 9 -15 2.3 1.91
17 9 -15 2.78 1.51
9 15 -17 -0.18 1.35
15 -17 -9 -1.87 1.25
17 -9 -15 0.11 1.74
17 -9 -15 -0.43 1.28
10 15 -17 8.24 1.75
10 15 -17 6.18 1.59
15 17 -10 6.09 1.92
17 10 -15 7.07 1.99
17 10 -15 6.84 1.68
15 -17 -10 3.45 1.48
17 -10 -15 8.2 2.04
17 -10 -15 5.7 1.57
17 11 -15 1.57 2.06
11 15 -17 5.26 2.87
15 17 -11 5.07 2.02
17 11 -15 2.04 2.57
17 -11 -15 3.66 2.35
17 -11 -15 -0.12 1.92
12 15 -17 7.56 1.9
17 12 -15 8.3 1.77
17 12 -15 5.05 2.32
12 15 -17 10.28 1.79
17 -12 -15 6.05 2.63
15 -17 -12 8.26 1.65
17 -12 -15 2.59 1.59
15 17 -13 -1.86 1.98
13 15 -17 1.43 1.88
17 13 -15 0.68 1.81
13 15 -17 1.31 1.56
17 13 -15 -0.42 2.11
15 -17 -13 -3.93 1.49
13 -15 -17 -5.27 2.05
13 -15 -17 3.01 2.15
17 -13 -15 -1.9 1.46
17 -13 -15 -3.64 2.08
15 17 -14 3.15 1.99
14 15 -17 2.67 1.94
14 15 -17 0.06 1.82
17 14 -15 0.78 2.03
17 -14 -15 -1.74 1.46
14 -15 -17 -0.61 1.63
15 -17 -14 1.66 1.68
14 -15 -17 4.6 2.33
17 15 -15 3.54 2.18
15 17 -15 5.16 2.16
15 15 -17 7.29 2.02
15 15 -17 4.06 2.06
15 -15 -17 10.46 2.43
15 -15 -17 8.37 1.91
17 -15 -15 7.03 1.77
17 16 -15 4.38 2.12
16 15 -17 -2.58 1.98
15 17 -16 -1.83 2.2
0 -16 17 18.9 2.53
17 0 -16 16.32 2.02
0 -16 -17 20.59 2.6
17 0 -16 17.03 2.3
16 17 0 21.2 1.99
16 17 -1 0.99 1.89
17 1 -16 -0.66 1.59
1 -16 17 1.61 1.96
17 1 -16 -0.2 1.35
-1 -16 -17 5.11 2.2
17 -1 -16 1.06 1.43
-1 -16 17 -3.75 1.94
17 -1 -16 0.28 1.58
16 17 1 -0.18 1.24
1 -16 -17 1.81 2
16 17 -2 -0.64 1.76
17 2 -16 1.33 1.16
-2 -16 -17 -0.51 2
2 -16 17 0.54 2.1
17 2 -16 1.12 1.38
17 -2 -16 4.28 1.73
16 17 2 1 1.3
2 -16 -17 4.16 2.07
-2 -16 17 2.16 2.19
17 -2 -16 0.18 1.32
-3 -16 -17 6.19 2.26
16 17 -3 5.4 1.96
3 -16 17 8.68 2.26
17 3 -16 4.72 1.5
17 3 -16 6.28 1.34
-3 -16 17 6.55 2.18
17 -3 -16 5.21 1.54
3 -16 -17 11.24 2.22
17 -3 -16 5.07 1.86
-4 -16 -17 4.27 2.24
16 17 -4 2.41 1.82
4 -16 17 3.05 2.24
17 4 -16 2.71 1.24
17 4 -16 0.91 1.47
17 -4 -16 4.62 1.73
4 -16 -17 1.04 2.09
16 -17 -4 0.16 1.3
-4 -16 17 2.95 2.15
17 -4 -16 2.67 1.43
16 17 -5 7.55 2.07
17 5 -16 7.26 1.69
17 5 -16 4.14 1.31
17 -5 -16 7.88 1.85
5 -16 -17 4.18 3.23
16 -17 -5 5.89 1.56
17 -5 -16 5.12 1.48
17 6 -16 4.95 1.66
17 6 -16 5.66 1.41
16 17 -6 4.94 2.02
6 16 -17 1.73 1.42
17 -6 -16 5.52 1.82
16 -17 -6 5.44 1.51
17 -6 -16 3.99 1.5
17 7 -16 3.64 1.84
7 16 -17 2.57 1.52
16 17 -7 1.39 1.92
17 7 -16 1.34 1.61
17 -7 -16 1.62 1.73
17 -7 -16 2.55 1.48
16 -17 -7 0.95 1.48
8 16 -17 1.54 1.43
17 8 -16 0.16 1.85
17 8 -16 -0.81 1.55
16 17 -8 0.13 1.84
17 -8 -16 1.03 1.39
16 -17 -8 -0.46 1.27
17 -8 -16 5.97 1.94
9 16 -17 -0.67 1.6
17 9 -16 1.52 1.71
17 9 -16 0.02 1.88
16 17 -9 3.25 1.94
17 -9 -16 -0.12 1.82
16 -17 -9 -3.36 1.44
17 -9 -16 -0.04 1.36
17 10 -16 0.76 1.66
16 17 -10 -0.79 2.03
10 16 -17 0.86 1.56
17 10 -16 0.25 1.99
17 -10 -16 -0.26 1.89
16 -17 -10 -3.18 1.34
11 16 -17 7.74 1.66
17 11 -16 11.62 1.89
17 -11 -16 5.26 2.24
16 -17 -11 6.42 1.57
17 12 -16 -2.01 2.06
12 16 -17 2.39 1.68
16 17 -12 4.82 2.12
17 12 -16 7.77 1.87
17 -12 -16 -1.14 1.54
17 -12 -16 -1.8 2.06
17 13 -16 -0.03 1.89
17 13 -16 1.52 2.14
13 16 -17 2.97 1.84
13 16 -17 2.82 2.07
16 17 -13 -0.08 2
16 -17 -13 -1.05 1.59
17 -13 -16 -0.41 2.21
13 -16 -17 1.52 2.27
17 -13 -16 1.34 1.6
14 16 -17 0.57 2.03
16 17 -14 1.72 2.1
14 16 -17 0.19 2.26
17 14 -16 2.71 2.08
14 -16 -17 4.29 2.34
17 -14 -16 1.14 1.59
17 15 -16 5.34 2.31
16 17 -15 -0.87 2.08
15 16 -17 4.15 2.11
17 0 -17 15.46 2.16
17 0 -17 16.96 2.3
17 17 0 15.04 1.85
17 17 -1 0.47 1.35
17 1 -17 0.76 1.2
17 1 -17 0.96 1.39
17 -1 -17 1.78 1.82
17 -1 -17 1.04 1.48
17 17 1 0.24 1.32
17 17 -2 1.04 1.87
17 2 -17 -0.75 1.08
17 2 -17 -0.01 1.33
17 -2 -17 -1.34 1.67
17 -2 -17 -1.11 1.42
17 17 2 0.8 1.28
17 17 -3 11.64 2.18
17 3 -17 15.85 1.84
17 3 -17 14.23 1.96
17 -3 -17 12.87 2.08
17 -3 -17 13.21 1.89
17 4 -17 2.71 1.25
17 17 -4 5 2.04
17 4 -17 3.9 1.63
17 -4 -17 1.97 1.85
17 -17 -4 3.12 1.42
17 -4 -17 4.62 1.53
5 17 -17 0.12 1.81
17 5 -17 -2.23 1.14
17 17 -5 2.35 2.07
17 5 -17 -0.44 1.52
17 -5 -17 -1.08 1.77
17 -17 -5 -1.72 1.42
17 -5 -17 -1.52 1.4
6 17 -17 -1.17 1.35
17 6 -17 0.82 1.62
17 17 -6 2.32 1.98
17 6 -17 3.02 1.62
17 -6 -17 2.43 1.92
17 -17 -6 1.39 1.45
17 -6 -17 2.39 1.46
7 17 -17 1.48 1.59
17 7 -17 0.34 1.87
17 17 -7 -0.37 2.05
17 7 -17 0.8 1.64
17 -7 -17 -0.68 1.82
17 -17 -7 3.15 1.59
17 -7 -17 -0.02 1.53
8 17 -17 3.83 2.01
17 17 -8 7.6 2.26
17 8 -17 2.34 2.01
17 -8 -17 7.16 2.03
9 17 -17 1.62 1.52
17 9 -17 -1.63 1.89
17 17 -9 1.28 2.18
17 9 -17 3.25 1.66
17 -9 -17 -1.79 2.96
17 -17 -9 1.42 1.52
17 -9 -17 -0.59 1.47
10 17 -17 -0.26 1.49
17 10 -17 0.77 2.56
17 17 -10 2.27 2.27
17 10 -17 2.73 1.65
17 -10 -17 1.67 2.01
17 -17 -10 -2.46 1.37
17 -10 -17 -0.03 1.51
11 17 -17 2.93 1.7
17 11 -17 2.77 2.17
17 17 -11 2.76 2.22
17 11 -17 2.14 1.79
17 -11 -17 5.92 2.16
17 -17 -11 -1.7 1.49
17 -11 -17 4.55 1.64
12 17 -17 -2.12 1.78
17 12 -17 1.04 2.16
17 17 -12 0.74 2.17
17 12 -17 1.83 1.89
17 -12 -17 3.12 2.25
17 -17 -12 -0.3 1.49
17 -12 -17 1.78 1.65
17 17 -13 2.39 2.16
17 13 -17 0.2 2.17
17 13 -17 -0.55 1.94
17 -13 -17 1.35 2.27
17 -13 -17 -2.46 1.62
17 -17 -13 -0.41 1.6
13 -17 -17 2.56 2.41
17 14 -17 3.24 2.1
17 17 -14 1.78 2.08
0 -18 0 25.2 2.19
0 0 -18 27.25 1.73
0 0 18 25.62 2.15
18 0 0 25.44 1.77
18 0 0 25.57 1.48
18 -1 0 4.38 0.79
-1 0 -18 5.94 0.96
-1 0 18 1.98 1.14
0 -18 -1 2.75 1.26
0 -18 1 4.82 1.39
1 0 -18 3.75 1.01
1 0 18 4.31 1.18
18 -1 0 2.28 1.02
18 1 0 5.84 0.83
18 1 0 3.78 1.01
18 2 0 6.91 0.98
18 -2 0 10.24 1.05
18 2 0 10.09 1.18
2 0 18 9.22 1.4
18 -2 0 8.53 1.2
0 -18 2 7.98 1.43
2 0 -18 8.85 1.21
-2 0 18 7.28 1.44
0 -18 -2 9.2 1.56
-2 0 -18 8.01 1.09
-3 0 18 1.92 1.28
18 3 0 2.2 0.81
0 -18 -3 2.87 1.16
18 -3 0 3.38 0.75
18 3 0 1.23 0.95
3 0 18 1.94 1.15
18 -3 0 2.55 1.29
0 -18 3 3.2 1.21
3 0 -18 2.21 1.85
18 -4 0 20.74 1.71
4 0 18 19.24 1.82
18 4 0 19.48 1.61
18 4 0 18.92 1.49
4 0 -18 22.19 1.69
18 -4 0 18.09 1.32
0 -18 4 18.71 1.91
-4 0 18 22.37 2.02
0 -18 -4 21.94 2.13
5 0 -18 5.59 1.29
0 -18 5 6 1.42
5 0 -18 8.18 1.17
18 -5 0 7.35 1.17
0 -18 -5 7.52 1.49
-5 0 18 8.06 1.53
18 5 0 6.36 1.02
18 5 0 7.89 1.16
6 0 -18 -0.78 0.79
0 -18 6 1.77 1.18
6 0 -18 0.5 1.21
0 -18 -6 0.26 1.25
18 -6 0 0.67 0.96
-6 0 18 1.28 1.22
18 -7 0 18.79 1.71
7 0 -18 17.35 1.88
7 0 -18 17.67 1.61
0 -18 7 15.23 2.09
0 -18 -7 15.92 1.9
-7 0 18 16.42 2.16
18 7 0 19.48 1.59
18 -8 0 -0.73 1.01
0 -18 -8 -2.62 1.25
-8 0 18 -0.24 1.41
18 8 0 -0.15 0.91
0 -18 8 0 1.31
8 0 -18 1.55 0.96
8 0 -18 -2.02 1.09
9 0 -18 -2.11 0.89
0 -18 9 -0.75 1.36
0 -18 -9 -1.12 1.35
18 -9 0 1.48 1.19
18 9 0 0.05 0.91
9 0 -18 1.06 1.23
-9 0 18 -0.09 1.47
9 0 -18 0.9 1.16
-10 0 18 1.4 1.39
18 -10 0 -0.47 1.11
18 10 0 -0.02 0.88
0 -18 -10 0.58 1.49
10 0 -18 -0.34 1.16
0 -18 10 1.74 1.41
10 0 -18 1.15 1.42
10 0 -18 -0.84 1.06
18 -11 0 -1.83 1.08
0 -18 -11 2.05 1.41
0 -18 11 -0.12 1.6
18 11 0 0.96 1.06
11 0 -18 0.83 1.1
11 0 -18 -0.22 1.18
-11 0 18 1.55 1.67
0 -18 -12 4.73 1.79
-12 0 18 4.91 1.99
12 0 -18 7.33 1.19
18 -12 0 5.51 1.55
18 12 0 5.11 1.62
12 0 -18 4.35 1.35
0 -18 12 8.89 2.05
13 0 -18 12.11 1.72
18 -13 0 9.51 1.69
18 13 0 13.28 1.98
0 -18 13 16.36 2.18
-13 0 18 16.23 2.31
0 -18 -13 13.5 2.19
13 0 -18 9.14 1.39
18 -14 0 2.42 1.39
18 14 0 2 1.27
0 -18 14 3.53 2.07
0 -18 -14 3.72 1.83
14 0 -18 2.4 1.32
-14 0 18 3.13 2.45
14 0 -18 1.69 1.05
0 -18 15 7.3 2.3
18 15 0 7.98 1.55
0 -18 -15 8.06 2.29
15 0 -18 7.35 1.42
15 0 -18 6.96 1.63
18 16 0 -0.62 1.24
16 0 -18 2.28 1.19
16 0 -18 0.19 1.34
17 0 -18 -1.46 1.43
17 0 -18 1.5 1.57
18 17 0 -1.34 1.3
0 -1 18 2.93 1.17
18 0 1 4.78 1
0 1 18 3.8 1.33
1 -18 0 3.88 1.34
-1 -18 0 1.88 1.28
18 0 -1 2.26 0.98
18 0 -1 4.21 0.81
0 -1 -18 4.15 0.95
0 1 -18 4.41 0.94
18 0 1 3.85 0.82
1 -18 1 3.7 1.28
1 -1 18 3.17 1.15
-1 -18 -1 3.18 1.34
-1 1 18 2.18 1.2
18 1 -1 4.33 0.83
18 -1 1 3.27 1.02
1 1 -18 4.45 1.05
18 -1 1 4 0.79
18 1 -1 2.41 0.94
-1 -1 -18 3.91 0.93
18 -1 -1 3.9 0.79
-1 -1 18 5.37 1.33
1 1 18 4.2 1.2
18 -1 -1 4.27 1.09
18 1 1 2.71 0.97
18 1 1 1.49 0.78
-1 -18 1 3.33 1.19
1 -1 -18 3.32 1.02
1 -18 -1 3.42 1.33
2 -1 18 3.72 1.22
18 2 -1 4.04 0.84
18 -2 1 3.34 0.78
-2 1 18 3.31 1.22
-2 -1 -18 2.8 0.85
1 -18 2 2.36 1.13
-1 -18 -2 3.24 1.3
18 2 -1 3.44 0.99
18 -2 1 2.16 1
2 1 -18 2.38 1.26
18 2 1 2.55 0.96
-2 -1 18 3.06 1.2
18 -2 -1 4.39 0.77
2 1 18 5.25 1.29
18 2 1 4 0.8
18 -2 -1 1.64 1.12
-1 -18 2 2.39 1.16
2 -1 -18 3.47 0.94
1 -18 -2 3.97 1.33
18 -3 1 8.11 1.24
3 1 -18 6.98 1.78
18 3 -1 8.32 1.12
3 -1 18 6.03 1.31
18 3 -1 8.43 1.11
-3 -1 -18 8.78 1.2
-3 1 18 9.91 1.6
-1 -18 -3 6.73 1.38
1 -18 3 8.65 1.48
18 -3 1 6.01 0.92
3 -1 -18 7.61 1.36
-1 -18 3 7.28 1.49
18 3 1 7.61 1.11
18 3 1 8.29 1.14
18 -3 -1 7.64 1.05
3 -1 -18 9.15 1.33
1 -18 -3 8.68 1.47
-3 -1 18 6.09 1.45
-1 -18 -4 -0.44 1.19
-4 -1 -18 0.31 0.75
4 -1 18 0.34 1.08
18 -4 1 0.83 1.68
4 1 -18 0.86 0.89
18 4 -1 -0.14 0.73
1 -18 4 0.43 1.04
18 4 -1 -0.5 0.86
-4 1 18 -0.1 1.07
18 -4 -1 0.18 0.9
4 -1 -18 -0.27 0.99
1 -18 -4 0.5 1.26
-1 -18 4 -1.24 1
18 4 1 0.79 0.94
4 -1 -18 -1.13 1.09
18 -4 -1 -1.19 0.68
-4 -1 18 -1.33 1.08
18 4 1 0.13 0.71
-5 1 18 4.2 1.37
1 -18 5 5.21 1.44
-1 -18 -5 3.56 1.35
18 5 -1 3.28 1
18 5 -1 2.71 0.82
5 1 -18 3.5 0.98
5 -1 18 4.46 1.16
18 -5 1 3.99 1.02
5 -1 -18 3.39 1.35
18 -5 -1 2.38 0.8
-1 -18 5 4.29 1.38
1 -18 -5 3.62 1.44
-5 -1 18 2.75 1.23
18 5 1 5.14 1.08
5 -1 -18 4.12 0.96
18 -5 -1 3.97 1.09
1 -18 6 0.8 1.17
18 6 -1 2 1.34
-1 -18 -6 1.54 1.37
6 1 -18 1.2 1.15
-6 1 18 3.53 1.29
6 1 -18 3.07 1.03
18 -6 1 1.03 0.98
-6 -1 18 0.28 1.16
1 -18 -6 2.06 1.34
6 -1 -18 -0.6 1.15
-1 -18 6 1.46 1.15
18 -6 -1 2.63 1.12
6 -1 -18 1.81 0.94
18 -7 1 2.08 1.14
-7 1 18 3.74 1.41
-1 -18 -7 2.84 1.31
7 1 -18 1.83 0.92
7 1 -18 1.56 1.2
18 7 -1 3.23 1.09
1 -18 7 2.66 1.41
7 -1 -18 3.33 1.01
1 -18 -7 1.59 1.27
-7 -1 18 -1.46 1.12
7 -1 -18 1.49 1.3
-1 -18 7 2.07 1.31
18 -7 -1 0.4 1.07
18 7 1 1.72 0.96
-8 1 18 3.93 1.53
1 -18 8 5.1 1.54
18 -8 1 7.65 1.39
8 1 -18 7.51 1.39
8 1 -18 7.28 1.25
-1 -18 -8 6.31 1.69
18 8 -1 8.05 1.22
8 1 -18 7.22 1.36
18 -8 -1 6.69 1.31
18 8 1 7.32 1.17
1 -18 -8 9.39 1.93
-8 -1 18 7.09 2.62
8 -1 -18 7.25 1.46
-1 -18 8 7.37 1.58
8 -1 -18 4.75 1.1
9 1 -18 6.8 1.38
9 1 -18 4.5 1.3
18 9 -1 3.94 1.11
-9 1 18 4.93 1.87
18 -9 1 4.11 1.25
9 1 -18 2.85 1.34
1 -18 9 5.67 1.65
-1 -18 -9 4.63 1.98
1 -18 -9 1.45 1.52
9 -1 -18 4.37 1.33
-9 -1 18 3.97 1.57
18 -9 -1 5.01 1.29
-1 -18 9 2.25 1.33
9 -1 -18 3.56 1.15
18 9 1 2.91 1.06
1 -18 10 5.88 1.68
10 1 -18 2.82 1.35
10 1 -18 1.65 1.11
18 10 -1 4.44 1.13
10 1 -18 4.63 1.46
-1 -18 -10 4.05 1.64
18 -10 1 3.32 1.26
-10 1 18 5.34 1.56
-10 -1 18 2.21 1.69
-1 -18 10 0.93 1.52
18 10 1 5.33 1.21
10 -1 -18 5.4 1.38
1 -18 -10 6.08 1.69
18 -10 -1 3.76 1.28
10 -1 -18 3.94 2.25
10 -1 -18 4.06 1.23
18 -11 1 7.2 1.49
-11 1 18 6.63 1.82
11 1 -18 1.73 1.19
18 11 -1 5.94 1.33
11 1 -18 4.46 1.45
-1 -18 -11 6.31 1.68
1 -18 11 3.96 1.62
-11 -1 18 4.03 1.74
1 -18 -11 5.62 1.56
-1 -18 11 3.2 1.59
11 -1 -18 3.63 1.01
11 -1 -18 0.3 1.84
18 11 1 6.49 1.29
11 -1 -18 5.24 1.31
18 -11 -1 4.08 1.42
1 -18 12 0.36 1.71
12 1 -18 -1 1.09
-1 -18 -12 0.8 1.7
12 1 -18 0.42 1.35
18 -12 1 -0.58 1.26
18 12 -1 4.03 1.58
-12 1 18 1.21 1.78
1 -18 -12 0.59 1.66
12 -1 -18 -0.14 0.97
12 -1 -18 0.53 1.14
-1 -18 12 0.79 1.8
18 -12 -1 -3.02 1.18
18 12 1 -1.19 1.52
-12 -1 18 -1.23 1.68
13 1 -18 -1.23 1.11
18 13 -1 -0.02 1.34
1 -18 13 0.76 1.78
18 -13 1 -0.16 1.28
-1 -18 -13 -1.49 1.76
13 1 -18 -0.14 0.95
1 -18 -13 2.45 1.85
-1 -18 13 -0.89 1.59
-13 -1 18 1.89 2.03
18 -13 -1 0.19 1.46
18 13 1 0.74 1.63
13 -1 -18 -0.83 1.09
13 -1 -18 0.75 0.83
-1 -18 -14 3.5 1.9
1 -18 14 4.44 2.14
14 1 -18 4.67 1.5
18 14 -1 4.92 1.42
14 1 -18 2.26 1.16
14 -1 -18 3.52 1.46
-1 -18 14 5.61 2.17
1 -18 -14 3.56 1.86
18 14 1 5.99 1.91
14 -1 -18 4.28 1.24
-14 -1 18 5.5 3.65
18 -14 -1 5.18 1.57
1 -18 15 -0.65 2.06
15 1 -18 -1.15 1.37
-1 -18 -15 -3.38 2.11
15 1 -18 -2.48 1.01
18 15 -1 2.34 1.36
18 15 1 -0.22 1.31
18 -15 -1 1.35 1.45
1 -18 -15 -0.08 2.11
15 -1 -18 1.1 1.35
-1 -18 15 5.1 2.22
16 1 -18 4.6 1.56
16 1 -18 3.72 1.25
18 16 -1 6.4 1.47
18 16 1 6.4 1.56
16 -1 -18 4.19 1.57
16 -1 -18 0.75 1.42
18 17 -1 6.13 1.61
17 1 -18 2.11 1.53
17 1 -18 2.24 1.39
17 -1 -18 3.16 1.93
17 -1 -18 2.89 1.54
18 17 1 4.55 1.52
0 -2 -18 8.32 1.09
0 -2 18 7.07 1.47
18 0 2 9.35 1.2
18 0 2 7.75 1.02
2 -18 0 8.35 1.43
18 0 -2 10.84 1.11
0 2 18 9.14 1.41
18 0 -2 12.03 1.51
-2 -18 0 7.25 1.39
18 1 -2 3.76 0.95
18 -1 2 4.09 0.81
-1 -2 -18 3.25 0.93
2 -18 1 3.14 1.18
18 -1 2 3.42 0.97
18 1 -2 2.68 0.79
-1 2 18 2.64 1.29
1 2 -18 4.56 1.36
1 -2 18 4.11 1.2
-2 -18 -1 3.35 1.19
18 1 2 4.66 1.02
18 1 2 3.21 0.78
2 -18 -1 3.18 1.23
1 -2 -18 4.47 0.98
-2 -18 1 1.94 1.14
18 -1 -2 3.94 0.78
18 -1 -2 1.34 1.02
-1 -2 18 3.85 1.26
2 -2 18 8.01 1.35
18 2 -2 8.36 1.13
-2 -18 -2 5.68 1.33
18 -2 2 5.7 1.15
18 -2 2 6.48 0.9
2 -18 2 4.52 1.38
-2 -2 -18 7.06 1.02
-2 2 18 6.17 1.43
18 2 -2 6.86 0.98
2 -2 -18 6.54 1.09
18 -2 -2 5.51 1.44
18 2 2 7.31 1.1
-2 -2 18 7.17 1.35
-2 -18 2 4.69 1.35
2 -2 -18 7.78 1.45
2 -18 -2 6.94 1.38
18 -2 -2 6.7 0.88
18 2 2 8.04 1.01
3 2 -18 0.46 0.87
-3 2 18 -1.07 1.19
-2 -18 -3 0.52 1.19
-3 -2 -18 -0.18 0.78
18 3 -2 0.77 0.89
2 -18 3 1.3 1.09
18 3 -2 0.81 0.73
18 -3 2 -0.36 1.02
3 -2 18 -0.93 1.07
2 -18 -3 1.35 1.25
-2 -18 3 0.05 1.07
18 -3 -2 0.2 1.15
3 -2 -18 -0.04 1.02
3 -2 -18 0.82 0.89
18 3 2 -0.18 0.94
-3 -2 18 0.47 1.22
18 -3 -2 0.48 0.65
18 3 2 -0.3 0.72
-4 2 18 12.83 1.76
-2 -18 -4 12.62 1.66
18 -4 2 14.28 1.81
18 4 -2 15.48 1.34
4 2 -18 17.19 1.55
-4 -2 -18 11.39 1.37
18 4 -2 12.07 1.48
4 -2 18 16.33 1.75
2 -18 4 11.81 1.66
18 4 2 16.95 1.29
-4 -2 18 12.36 1.74
4 -2 -18 10.34 2.01
18 -4 -2 13.91 1.17
-2 -18 4 14.09 1.78
4 -2 -18 12.91 1.7
18 -4 -2 16.35 1.73
2 -18 -4 13.47 1.75
2 -18 5 1.33 1.12
-5 2 18 -1.33 1.09
18 5 -2 0.19 0.91
18 -5 2 0.96 1.04
5 -2 18 -0.21 1.11
5 2 -18 0.49 0.93
-5 -2 -18 -0.59 0.77
-2 -18 -5 -0.01 1.14
18 5 -2 -0.85 1.12
-5 -2 18 -0.61 1.09
5 -2 -18 0.88 0.87
18 5 2 0.18 0.87
-2 -18 5 -1.51 1.04
5 -2 -18 1.27 1.27
18 -5 -2 -0.27 0.71
2 -18 -5 -0.41 1.12
18 -5 -2 -1.49 1.01
-6 -2 -18 0.58 0.81
2 -18 6 -0.29 1.22
18 6 -2 -0.13 0.94
6 2 -18 1.27 0.93
-2 -18 -6 0.29 1.15
18 -6 2 1 0.95
-6 2 18 2.73 1.39
6 -2 18 0.87 0.98
18 6 -2 -0.44 0.9
18 -6 -2 -0.53 0.96
6 -2 -18 0.13 0.81
2 -18 -6 -0.9 1.14
-6 -2 18 3.34 1.39
6 -2 -18 -0.09 1.19
-2 -18 6 -1.75 1.19
7 2 -18 0.21 0.92
-2 -18 -7 0.54 1.36
-7 2 18 1.1 1.24
7 2 -18 1.46 1.19
7 2 -18 1.99 1.21
18 -7 2 0.51 1.02
18 7 -2 1.35 0.91
2 -18 7 4.15 1.35
-2 -18 7 1.56 1.19
7 -2 -18 -0.06 0.87
18 -7 -2 1.47 1.05
-7 -2 18 1.74 1.28
2 -18 -7 0.92 1.35
18 7 2 2.24 1
7 -2 -18 2.17 1.25
18 -8 2 -1.09 0.95
-2 -18 -8 -0.13 1.22
8 2 -18 0.48 1.16
8 2 -18 0.9 1.03
18 8 -2 2.89 0.98
8 2 -18 1.43 1.13
-8 2 18 -1.27 1.37
8 -2 -18 1.03 1.29
8 -2 -18 -0.16 0.84
18 -8 -2 2.2 1.2
18 8 2 0.5 0.91
-2 -18 8 2.16 1.6
-8 -2 18 -1.1 1.35
2 -18 -8 1.31 2.14
2 -18 9 8.2 1.66
9 2 -18 9.4 1.42
18 9 -2 7.05 1.23
-2 -18 -9 11.1 1.78
9 2 -18 8.99 1.41
9 2 -18 10.73 1.58
18 -9 2 9.79 1.54
18 -9 -2 7.74 1.36
18 9 2 10.55 1.43
2 -18 -9 9.73 1.67
9 -2 -18 10.31 1.4
-9 -2 18 10.41 1.92
-2 -18 9 9.07 1.72
9 -2 -18 10.74 1.55
18 10 -2 0.42 0.93
-2 -18 -10 0.46 1.33
2 -18 10 -0.07 1.53
10 2 -18 0.31 1.13
18 -10 2 1.44 1.2
-10 2 18 1.63 1.38
10 2 -18 0.19 1.12
10 2 -18 -3.53 2.06
-10 -2 18 1.92 1.57
-2 -18 10 1 1.34
18 10 2 0.57 0.91
18 -10 -2 1.64 1.19
2 -18 -10 0.65 1.33
10 -2 -18 1.44 1.07
18 -11 2 3.94 1.36
2 -18 11 8.82 1.85
11 2 -18 4.89 1.47
11 2 -18 3.86 1.24
18 11 -2 4.26 1.32
-2 -18 -11 4.29 2
18 11 2 0.3 1.15
2 -18 -11 3.36 1.79
-11 -2 18 2.61 1.76
11 -2 -18 2.73 1.24
11 -2 -18 4.28 1.04
18 -11 -2 3.44 1.38
11 -2 -18 4.25 1.39
-2 -18 11 5.04 1.79
18 12 -2 6.95 1.61
12 2 -18 5.7 1.48
18 -12 2 7.67 1.53
-2 -18 -12 8.56 1.81
12 2 -18 6.94 1.63
2 -18 12 8.85 1.84
-12 -2 18 8.9 2.09
2 -18 -12 9.07 1.96
-2 -18 12 8.59 1.88
18 -12 -2 7.9 1.62
12 -2 -18 7.08 1.37
18 12 2 6.84 1.74
12 -2 -18 6.29 1.26
-2 -18 -13 -1.96 1.74
13 2 -18 3.19 1.31
2 -18 13 -1.6 1.83
13 2 -18 0.45 1.46
18 13 -2 0.34 1.18
13 -2 -18 0.32 1.23
18 13 2 3 1.77
-13 -2 18 2.01 2
13 -2 -18 3.06 1.1
18 -13 -2 -0.21 1.31
2 -18 -13 -0.83 1.82
-2 -18 13 0.67 1.81
18 14 -2 2.2 1.28
2 -18 14 3.34 2
14 2 -18 2.64 1.15
14 2 -18 3.23 1.46
-2 -18 -14 3.11 2.07
-2 -18 14 2.84 1.88
14 -2 -18 0.53 1.1
18 14 2 3.73 1.87
2 -18 -14 -0.4 2.03
18 -14 -2 1.35 1.42
14 -2 -18 1.77 1.27
-2 -18 -15 9.35 2.22
15 2 -18 7.88 1.27
15 2 -18 6.13 1.6
2 -18 15 8.63 2.27
18 15 -2 7.8 1.54
15 -2 -18 8.5 1.75
15 -2 -18 5.18 1.53
18 15 2 9.93 2.1
2 -18 -15 8.37 2.15
-2 -18 15 11.16 2.49
18 -15 -2 8.28 1.72
18 16 -2 0.39 1.32
16 2 -18 1.1 1.17
16 2 -18 3.29 1.52
18 16 2 2.71 1.43
16 -2 -18 4.79 1.88
16 -2 -18 3.48 1.48
17 2 -18 0.02 1.4
18 17 -2 1.39 1.59
17 2 -18 2.05 1.33
17 -2 -18 0.85 1.48
17 -2 -18 1.37 1.86
0 -3 18 2.07 1.28
18 0 -3 4.2 1.13
18 0 -3 2.36 0.75
18 0 3 3.65 0.75
18 0 3 2.68 0.99
0 -3 -18 4.13 1.22
0 -3 -18 2.1 0.83
3 -18 0 1.01 1.21
-3 -18 0 2.8 1.2
18 -1 3 10.92 1.07
18 -1 3 7.7 1.21
18 1 -3 7.7 1.02
1 -3 18 7.22 1.35
-3 -18 -1 7.52 1.43
3 -18 1 8.5 1.38
-1 -3 -18 6.16 1.39
-1 -3 -18 7.1 0.98
18 1 -3 7.42 1.2
1 -3 -18 6.71 1.47
18 -1 -3 8.05 0.99
18 -1 -3 7.36 1.42
-3 -18 1 6.7 1.4
-1 -3 18 5.92 1.47
18 1 3 8.61 1.15
18 1 3 7.97 1.03
1 -3 -18 7.33 1.02
3 -18 -1 9.29 1.57
18 -2 3 -0.21 0.95
18 -2 3 0.83 0.8
-3 -18 -2 0.22 1.11
-2 -3 -18 -1.26 0.74
18 2 -3 -0.07 0.69
2 3 -18 -1.12 0.81
18 2 -3 -0.27 0.94
3 -18 2 0.13 1.03
2 -3 18 0.75 1.03
2 -3 -18 -0.82 0.8
18 -2 -3 0.76 0.68
-3 -18 2 -0.73 1.18
3 -18 -2 -1.07 1
-2 -3 18 -0.35 1.19
18 2 3 0.85 0.98
2 -3 -18 -1.28 1.12
18 2 3 0.12 0.65
18 -2 -3 -1.51 1.24
-3 -18 -3 11.91 1.61
-3 3 18 13.71 1.79
-3 -3 -18 16.48 1.38
3 -18 3 13.39 1.91
18 3 -3 14.85 1.52
3 3 -18 13.83 1.49
18 3 -3 12.72 1.3
18 -3 3 16.12 1.72
3 -3 18 15.82 1.87
-3 -3 18 14.05 1.8
3 -3 -18 15.64 1.6
18 -3 -3 15.39 1.19
18 -3 -3 16.16 1.65
18 3 3 18.44 1.66
3 -18 -3 13.55 1.95
18 3 3 16.62 1.28
3 -3 -18 12.1 1.68
-3 -18 3 13.03 1.64
4 -3 18 8.43 1.4
4 3 -18 10.42 1.45
18 4 -3 5.5 1.05
-3 -18 -4 7.24 1.4
-4 -3 -18 6.68 0.98
18 4 -3 6.09 1.12
-4 3 18 6.63 1.52
3 -18 4 6.15 1.34
18 -4 3 4.23 1.57
18 -4 -3 6.1 1.17
-4 -3 18 7.47 1.54
18 -4 -3 5.56 0.87
4 -3 -18 5.77 1.42
-3 -18 4 5.89 1.4
18 4 3 6.68 1.06
3 -18 -4 6.43 1.39
18 5 -3 4.43 1.09
5 3 -18 3.94 1.05
-5 3 18 3.05 1.45
3 -18 5 4.17 1.38
18 -5 3 3.84 1.06
-3 -18 -5 4.47 1.41
5 -3 18 5.42 1.3
5 3 -18 2.34 0.92
-5 -3 -18 1.47 0.88
5 -3 -18 5.06 1.43
18 -5 -3 4.29 1.09
3 -18 -5 3.82 1.44
18 -5 -3 2.94 0.76
-5 -3 18 3.75 1.39
5 -3 -18 3.17 0.94
18 5 3 3.67 1.08
-3 -18 5 4.57 1.33
18 6 -3 2.53 1.06
-6 3 18 2.46 1.42
6 -3 18 3.32 1.14
6 3 -18 1.24 0.97
6 3 -18 2.4 1.42
18 6 -3 1.58 1.03
-3 -18 -6 0.36 1.27
3 -18 6 1.53 1.18
18 -6 3 -0.38 0.94
3 -18 -6 2.11 1.3
-3 -18 6 -0.62 1.23
6 -3 -18 2.53 1.15
18 -6 -3 2.65 1.17
6 -3 -18 1.48 0.87
18 -6 -3 1.88 0.76
-6 -3 18 1.2 1.25
3 -18 7 5.39 1.54
7 3 -18 3.38 1.22
-3 -18 -7 6.75 1.46
7 3 -18 4.43 1.12
18 7 -3 4.09 1.08
18 -7 3 5.87 1.2
18 7 -3 6.04 1.21
-7 3 18 6.6 1.44
-3 -18 7 5.18 1.34
3 -18 -7 6.22 1.56
-7 -3 18 2.15 1.42
18 -7 -3 3.96 1.13
18 7 3 3.96 1.21
7 -3 -18 5.1 1.03
7 -3 -18 2.39 1.28
-3 -18 -8 1.13 1.55
8 3 -18 1.64 1.06
8 3 -18 2.73 1.26
18 -8 3 2.87 1.2
18 8 -3 2.71 1
8 3 -18 2.16 1.17
-8 -3 18 1.8 1.51
18 -8 -3 3.32 1.22
8 -3 -18 2.96 1.34
18 8 3 3.51 1.05
8 -3 -18 1.46 0.94
18 -9 3 2.66 1.26
3 -18 9 1.5 1.45
18 9 -3 1.8 0.96
9 3 -18 1.31 1.32
9 3 -18 4.67 1.35
-3 -18 -9 0.59 1.45
9 3 -18 0.99 1.12
3 -18 -9 0.3 1.47
18 9 3 0.06 0.91
18 -9 -3 1.26 1.16
9 -3 -18 0.23 0.95
9 -3 -18 0.76 1.93
-3 -18 9 2.9 1.45
-3 -18 -10 4.59 1.58
18 -10 3 4.57 1.37
10 3 -18 4.21 1.27
-10 -3 -18 9.42 2.72
18 10 -3 3.58 1.13
3 -18 10 5.09 1.7
10 3 -18 3.7 1.36
10 -3 -18 4.73 1.16
18 10 3 3.44 1.12
3 -18 -10 7.33 1.65
-10 -3 18 5.65 1.73
10 -3 -18 6.54 1.7
-3 -18 10 4.67 1.69
18 -10 -3 5.03 1.34
3 -18 11 5.07 1.75
-11 -3 -18 2.49 1.8
11 3 -18 3.37 1.24
11 3 -18 4.3 1.39
18 11 -3 1.78 1.19
-3 -18 -11 6.04 1.59
18 11 3 2.59 1.27
18 -11 -3 5.24 1.45
-11 -3 18 5.25 1.71
3 -18 -11 2.26 1.65
11 -3 -18 4.7 1.41
11 -3 -18 3.83 1.2
-3 -18 11 5.03 1.69
11 -3 -18 3.66 1.14
-3 -18 -12 2.22 1.73
18 12 -3 0.36 1.04
12 3 -18 3.47 1.45
12 3 -18 0.24 1.31
3 -18 12 -2.49 1.65
12 -3 -18 2.17 1.21
-12 -3 18 -0.17 1.67
3 -18 -12 0.96 1.58
-3 -18 12 0.95 1.83
18 -12 -3 1.65 1.3
18 12 3 1.15 1.55
12 -3 -18 2.26 1.02
-3 -18 -13 1.26 1.81
3 -18 13 -0.66 1.81
18 13 -3 2.96 1.16
13 3 -18 3.42 1.33
13 3 -18 3.49 1.65
13 -3 -18 -0.06 1.23
13 -3 -18 0.07 1.04
-13 -3 18 1.74 2.15
18 13 3 3.2 1.82
-3 -18 13 4.17 1.97
3 -18 -13 -1.38 1.61
18 -13 -3 1.53 1.38
18 14 -3 0.72 1.25
14 3 -18 0.06 1.33
14 3 -18 1.59 1.6
-3 -18 -14 1.48 1.94
3 -18 14 1.44 1.99
18 -14 -3 0.44 1.32
3 -18 -14 1.52 1.99
14 -3 -18 0.32 1.2
14 -3 -18 1.06 1.65
-3 -18 14 -1.03 1.95
18 14 3 0.63 1.71
18 15 -3 2.08 1.34
3 -18 15 5.63 2.18
15 3 -18 -0.29 1.4
15 3 -18 0.43 1.15
-3 -18 -15 2.78 2.32
-3 -18 15 1.53 2.23
15 -3 -18 0.84 1.61
18 15 3 0.97 1.87
15 -3 -18 1.17 1.34
3 -18 -15 -1.43 2.03
18 -15 -3 0.56 1.38
16 3 -18 0.28 1.5
18 16 -3 -1.06 1.17
16 3 -18 0.31 1.1
16 -3 -18 0.61 1.4
18 -16 -3 -1.47 1.38
16 -3 -18 -0.24 1.67
17 3 -18 1.69 1.5
18 17 -3 3.03 2.05
17 3 -18 0.64 1.58
17 -3 -18 2.88 1.79
17 -3 -18 1.65 1.54
0 -4 18 21.44 1.97
18 0 4 24.09 1.8
0 -4 -18 22.19 1.93
-4 -18 0 19.66 1.89
18 0 -4 22.86 1.47
0 -4 -18 22.15 1.53
4 -18 0 19.69 1.84
18 0 4 23.14 1.39
18 1 -4 0.9 1.19
4 -18 1 0.64 1.06
1 -4 18 -0.17 1.17
18 1 -4 1.14 0.75
18 -1 4 0.19 0.7
-1 -4 -18 -0.12 0.77
18 -1 4 -0.22 0.99
-1 -4 -18 -0.44 1.12
-4 -18 -1 0.35 1.04
18 -1 -4 -0.9 1.14
-4 -18 1 0.02 1.01
1 -4 -18 -0.04 1.14
4 -18 -1 -0.99 0.98
18 1 4 0.87 0.7
-1 -4 18 1.23 1.16
1 -4 -18 -1.64 0.77
18 1 4 0.04 1.04
18 -1 -4 -0.5 0.67
18 -2 4 12.73 1.6
-2 -4 -18 16.03 1.31
18 2 -4 13.91 1.24
-4 -18 -2 16.41 1.77
2 4 -18 13.09 1.15
18 2 -4 13.41 1.65
4 -18 2 16.59 1.91
2 -4 18 14.37 1.9
-2 -4 -18 14.86 1.95
4 -18 -2 14.22 1.72
18 2 4 15.55 1.41
-4 -18 2 12.51 1.7
18 -2 -4 12.44 1.58
18 2 4 13.99 1.24
18 -2 -4 12.27 1.17
2 -4 -18 12.65 1.43
2 -4 -18 13.08 1.7
-2 -4 18 12.26 1.77
18 3 -4 6.92 1.21
4 -18 3 4.38 1.38
18 -3 4 4.38 1.36
-3 -4 -18 9.97 1.19
3 -4 18 6.56 1.4
3 4 -18 5.91 0.91
18 3 -4 6.05 0.97
3 4 -18 5.8 1.03
-3 -4 -18 8.32 1.49
-4 -18 -3 4.45 1.38
18 -3 -4 5.03 1.17
-4 -18 3 5.76 1.34
4 -18 -3 7.93 1.49
18 3 4 6.35 0.99
3 -4 -18 6.96 1.18
-3 -4 18 5.07 1.44
18 -3 -4 6.51 0.86
3 -4 -18 6.26 1.41
4 -18 4 27.2 2.06
18 4 -4 26.52 1.9
-4 -4 -18 20.65 1.95
18 -4 4 28.97 1.99
4 4 -18 26.69 1.54
4 4 -18 23.96 1.8
-4 -18 -4 25.68 2.09
4 -4 18 23.24 2.03
18 -4 -4 25.5 1.89
-4 -4 18 24.98 2.36
18 -4 -4 26.32 1.47
4 -18 -4 27.8 2.11
-4 -18 4 24.88 2.24
4 -4 -18 22.82 2.17
18 4 4 25.5 1.55
5 -4 18 1.51 1.16
5 4 -18 -1.17 0.75
18 -5 4 1.79 1.04
18 5 -4 -0.09 0.99
18 5 -4 -1.23 0.8
5 4 -18 -0.31 0.93
4 18 -5 0.87 0.7
-4 -18 -5 -0.44 1.19
4 -18 5 -0.47 1.19
-5 -4 -18 0.02 1.1
4 -18 -5 0.41 1.13
5 -4 -18 -1.19 1.17
18 5 4 -1.4 0.93
18 -5 -4 1.07 0.73
-5 -4 18 0.28 1.32
18 -5 -4 -0.36 0.97
-4 -18 5 -1.3 1.02
-4 -18 -6 2.69 1.35
6 -4 18 3.08 1.16
18 -6 4 3.45 1.07
18 6 -4 1.85 0.95
-6 -4 -18 2.18 1.24
18 6 -4 3.79 1.12
4 -18 6 -0.01 1.24
4 18 -6 3.87 0.79
6 4 -18 2.76 1.05
6 4 -18 3.37 1.23
-6 -4 18 3.22 1.45
18 -6 -4 3.73 0.82
6 -4 -18 1.84 0.9
-4 -18 6 2.14 1.32
18 6 4 3.05 1.58
4 -18 -6 3.39 1.31
6 -4 -18 3.16 1.26
18 -6 -4 2.84 1.14
18 -7 4 4.52 1.15
18 7 -4 6.6 1.23
18 7 -4 4.21 1.08
-7 -4 -18 5.17 1.52
7 4 -18 3.72 1.24
4 18 -7 4.3 0.86
4 -18 7 6.78 1.52
-4 -18 -7 5.43 1.46
7 -4 18 4.52 1.26
7 4 -18 5.15 1.2
-4 -18 7 4.2 1.37
-7 -4 18 6.11 1.55
7 -4 -18 5.54 1.46
18 -7 -4 3.61 0.83
18 7 4 4.18 1.11
18 -7 -4 6.37 1.29
7 -4 -18 4.86 1.02
4 -18 -7 3.74 1.62
4 -18 8 2.58 1.75
-4 -18 -8 4 2.51
8 4 -18 6.74 1.25
18 -8 4 8.95 1.4
18 8 -4 9.75 1.58
-8 -4 -18 6.75 1.51
8 4 -18 7.11 1.38
8 4 -18 8.8 1.47
18 8 -4 6.58 1.22
4 -18 -8 10.2 1.68
8 -4 -18 6.74 1.13
18 -8 -4 8.47 1.4
-8 -4 18 9.65 2.46
8 -4 -18 9.05 1.76
18 8 4 10.86 1.41
9 4 -18 0.72 1.22
-4 -18 -9 -0.12 1.46
18 9 -4 -0.25 1.02
9 4 -18 -0.23 1.02
4 -18 9 0.33 1.37
-9 -4 -18 3.49 1.42
4 -18 -9 1.34 1.48
-9 -4 18 -1.12 1.92
9 -4 -18 0.02 0.92
18 9 4 2.32 1.05
18 -9 -4 2.58 1.25
9 -4 -18 2.41 2.35
-4 -18 9 1.79 1.36
10 4 -18 -0.21 1.11
10 4 -18 -1.45 1.48
10 4 -18 -1.16 1.2
4 -18 10 0.91 1.56
-4 -18 -10 -0.06 1.57
18 10 -4 0.38 1.06
4 -18 -10 0.05 1.37
-10 -4 18 1.09 1.56
10 -4 -18 1.09 1.33
10 -4 -18 -1.63 0.96
18 10 4 0.75 1.09
-4 -18 10 0.9 1.63
18 -10 -4 -2.51 1.1
-11 -4 -18 9.73 1.95
4 -18 11 10.31 1.85
-4 -18 -11 16.5 2.23
11 4 -18 11.3 1.59
18 11 -4 10.25 1.52
11 4 -18 7.49 1.68
11 -4 -18 11.35 1.57
11 -4 -18 9.34 1.41
-11 -4 18 14.45 2.19
-4 -18 11 12 1.97
18 -11 -4 9.37 1.65
4 -18 -11 9.19 1.9
18 11 4 8.92 1.62
12 4 -18 1.71 1.48
18 12 -4 0.55 1.1
-4 -18 -12 0.95 1.83
4 -18 12 -1.13 1.62
12 4 -18 -0.59 1.16
12 -4 -18 0.66 1.11
12 -4 -18 -1 0.92
18 12 4 -0.47 1.53
-12 -4 18 3.37 1.89
18 -12 -4 0.26 1.21
-4 -18 12 1.1 1.91
4 -18 -12 2.95 1.75
18 13 -4 13.39 1.77
13 4 -18 16.27 2.11
-4 -18 -13 12.79 2.35
13 4 -18 10.21 1.72
4 -18 13 10.63 2.14
-13 -4 18 10.22 2.33
-4 -18 13 12.74 2.25
13 -4 -18 11.29 1.85
4 -18 -13 15.84 2.2
13 -4 -18 11.16 1.6
18 13 4 9.74 1.93
18 -13 -4 10.73 1.73
14 4 -18 16.4 2.16
18 14 -4 18.27 1.81
4 -18 14 12.47 2.27
-4 -18 -14 17.32 2.42
14 4 -18 17.43 2.39
14 -4 -18 13.98 2.08
18 -14 -4 11.94 1.86
14 -4 -18 15.22 1.82
4 -18 -14 17.28 2.37
-4 -18 14 17.96 2.66
18 14 4 19.5 2.72
-4 -18 -15 0.59 2.39
15 4 -18 0.81 1.7
4 -18 15 -0.32 2.3
15 4 -18 2.65 1.47
18 15 -4 2.09 1.34
-4 -18 15 5.33 2.59
4 -18 -15 1.86 2.22
15 -4 -18 2.53 1.34
15 -4 -18 2.01 1.73
18 -15 -4 2.73 1.47
16 4 -18 2.2 1.48
18 16 -4 1.12 1.37
16 4 -18 3.3 1.27
16 -4 -18 3.24 1.4
18 -16 -4 3.08 1.63
16 -4 -18 0.31 1.83
18 17 -4 4.54 2.23
17 4 -18 1.78 1.49
17 4 -18 1.08 1.56
17 -4 -18 5.12 2.01
17 -4 -18 2.86 1.46
-5 -18 0 7.58 1.45
0 -5 -18 6.33 0.97
18 0 -5 7.9 1.1
0 -5 -18 4.91 1.35
0 -5 18 8.32 1.45
18 0 5 6.49 0.9
0 5 -18 5.73 0.82
5 -18 0 7.21 1.43
18 0 -5 6.63 1.21
-1 -5 -18 4.16 0.9
18 1 -5 4.18 1.08
18 1 -5 2.86 0.83
-5 -18 -1 3.55 1.2
1 -5 18 4.35 1.44
18 -1 5 3.59 1.08
1 5 -18 3.99 0.74
-1 -5 -18 4.25 1.25
5 -18 1 4.21 1.34
1 -5 -18 4.25 1.27
5 -18 -1 3.21 1.3
1 -5 -18 4.57 0.91
18 -1 -5 5.12 1.09
18 -1 -5 4.61 0.88
-1 -5 18 5.27 1.38
18 1 5 3.73 0.85
-1 5 -18 4.49 0.73
-5 -18 1 4.95 1.35
2 5 -18 0.44 0.66
2 -5 18 1.11 1.19
-5 -18 -2 1.03 1.17
18 -2 5 0.16 0.98
-2 -5 -18 0.16 0.8
-2 -5 -18 0.23 1.06
18 2 -5 0.13 1.13
18 2 -5 -0.21 0.71
5 -18 2 -0.11 1.13
-2 5 -18 -1.08 0.65
-2 -5 18 0.99 1.19
2 -5 -18 0.62 0.82
18 -2 -5 1.52 1
-5 -18 2 -0.65 0.99
18 2 5 0.61 0.71
18 -2 -5 1.12 0.71
2 -5 -18 -2.42 1.02
5 -18 -2 1.25 1.21
5 -18 3 3.2 1.21
5 18 -3 4.33 0.87
18 3 -5 3.62 1.3
3 -5 18 2.75 1.29
3 5 -18 4.02 0.81
3 5 -18 3.41 1
-5 -18 -3 4.31 1.34
-3 -5 -18 3.41 1.28
5 -18 -3 4.52 1.26
-3 -5 18 4.99 1.5
18 -3 -5 4.02 0.87
3 -5 -18 4.66 1.06
18 3 5 2.65 0.83
18 -3 -5 3.95 1.19
-5 -18 3 3.15 1.17
3 -5 -18 3.9 1.29
5 -18 4 -1.14 1.13
18 4 -5 0.21 0.9
4 5 -18 0.97 0.94
-5 -18 -4 0.81 1.17
5 18 -4 2.17 0.73
-4 -5 -18 -1.23 1.21
18 -4 5 0.36 0.94
4 5 -18 1.53 0.7
4 -5 18 0.9 1.13
-5 -18 4 0.78 1.24
18 4 5 -1.28 0.81
5 -18 -4 1.46 1.27
4 -5 -18 -0.96 1.1
18 -4 -5 -0.43 0.9
4 -5 -18 -2.23 1.1
18 -4 -5 -1.42 0.65
-4 -5 18 1.28 1.24
-5 -18 -5 0.91 1.17
5 5 -18 3.47 1.09
5 5 -18 2.37 1.13
5 18 -5 3.64 0.8
18 -5 5 2.94 1.02
5 -5 18 0.42 1.68
18 5 -5 2.35 0.94
18 5 -5 2.46 1.29
5 -18 5 -1.01 1.22
-5 -5 -18 4.95 1.42
5 -18 -5 0.4 1.24
18 -5 -5 1.36 1.07
-5 -5 18 1.32 1.39
5 -5 -18 2.71 0.86
18 5 5 1.18 1.17
18 -5 -5 2.85 0.8
5 -5 -18 4.86 1.44
-5 -18 5 1.21 1.26
6 5 -18 2.87 1.15
6 -5 18 1.08 1.14
-6 -5 -18 -0.43 1.36
5 18 -6 2.55 0.8
5 -18 6 2.76 1.41
6 5 -18 1.03 0.94
18 6 -5 1.4 1.06
18 6 -5 2.93 0.97
-5 -18 -6 1.29 1.24
6 -5 -18 0.78 0.79
18 -6 -5 2.18 0.78
6 -5 -18 0.49 1.2
-5 -18 6 -0.63 1.11
18 6 5 2.5 1.33
5 -18 -6 -1.13 1.26
18 -6 -5 1.56 1.09
-6 -5 18 1.81 1.52
7 5 -18 5.76 1.32
5 18 -7 5.83 0.92
-5 -18 -7 5.31 1.52
18 7 -5 7.97 1.15
7 -5 18 6.62 1.29
7 5 -18 5.82 1.24
-7 -5 -18 4.73 1.49
18 7 -5 4.59 1.11
18 -7 -5 5.94 0.96
7 -5 -18 5.05 1.64
-7 -5 18 7.89 1.78
-5 -18 7 4.93 1.54
18 -7 -5 5.73 1.31
18 7 5 7.14 1.53
7 -5 -18 5.96 1.05
8 5 -18 0.63 1
18 8 -5 0.65 0.89
18 8 -5 -0.27 0.87
8 5 -18 0.29 1.19
5 -18 8 -1.98 1.31
-8 -5 -18 1.2 1.44
5 18 -8 -0.6 0.82
8 -5 18 1.12 1.12
18 -8 -5 0.69 0.86
8 -5 -18 1.15 0.93
-5 -18 8 0.26 1.34
5 -18 -8 4.07 1.53
18 -8 -5 0.92 1.2
18 8 5 0 0.93
-5 -18 -9 5.91 1.66
9 5 -18 3.34 1.2
5 -18 9 5.6 1.61
9 5 -18 3.76 1.61
9 5 -18 7.18 1.46
18 9 -5 6.3 1.22
-5 -18 9 4.94 1.68
-9 -5 18 7.04 1.77
9 -5 -18 6.28 1.17
18 9 5 7.14 1.33
18 -9 -5 6.02 1.41
9 -5 -18 6.9 1.49
-5 -18 -10 2.37 1.47
-10 -5 -18 2.97 1.69
10 5 -18 3.02 1.44
10 5 -18 4.62 1.51
18 10 -5 0.69 0.98
10 5 -18 2.03 1.26
5 -18 10 5.02 1.67
10 -5 -18 2.13 1.08
5 -18 -10 1.58 1.56
18 -10 -5 2.52 1.34
18 10 5 4.39 1.16
10 -5 -18 2.79 1.41
-5 -18 10 2.2 1.55
-10 -5 18 5.41 1.67
18 11 -5 -0.15 1.07
11 5 -18 0.26 1.23
11 5 -18 0.46 1.35
5 -18 11 -1.06 1.59
-5 -18 -11 0.32 1.65
-11 -5 -18 2.68 1.95
18 -11 -5 1 1.29
11 -5 -18 0.18 1.06
-11 -5 18 -2.94 1.74
5 -18 -11 3.57 1.68
18 11 5 0.81 1.4
11 -5 -18 1.52 1.5
-5 -18 11 3.85 1.73
18 12 -5 1.36 1.19
-5 -18 -12 2.25 1.7
5 -18 12 2.47 1.76
12 5 -18 1.55 1.26
12 5 -18 1.17 1.53
18 12 5 -0.06 1.64
5 -18 -12 3.04 1.8
12 -5 -18 -0.57 1.43
18 -12 -5 2.77 1.38
-12 -5 18 3.73 2.07
-5 -18 12 7.55 1.88
12 -5 -18 0.43 1.12
-5 -18 -13 -1.2 1.78
5 -18 13 1.51 1.87
18 13 -5 -0.24 1.09
13 5 -18 -0.74 1.13
13 5 -18 0.04 1.57
13 -5 -18 -0.88 1.9
18 13 5 1.27 1.75
-13 -5 18 -2.11 2.19
5 -18 -13 1.7 1.93
13 -5 -18 1.43 1.26
18 -13 -5 -1.21 1.27
-5 -18 13 3.66 2.04
5 -18 14 -0.54 1.99
14 5 -18 -0.09 1.54
14 5 -18 0.49 1.31
18 14 -5 -1.02 1.1
-5 -18 -14 -0.34 2.21
14 -5 -18 0 1.16
18 -14 -5 -0.1 1.45
14 -5 -18 0.5 1.63
5 -18 -14 2.37 2.04
-5 -18 14 2.62 1.99
15 5 -18 -0.49 1.38
18 15 -5 2.13 1.39
15 5 -18 0.24 1.72
15 -5 -18 -0.17 1.63
15 -5 -18 1.14 1.27
18 -15 -5 -0.97 1.27
18 16 -5 1.31 1.98
16 5 -18 -0.54 1.37
5 18 -16 -0.41 1.33
16 5 -18 -1.11 1.72
18 -16 -5 2.36 1.53
16 -5 -18 0.81 1.35
16 -5 -18 0.64 1.8
18 17 -5 4.38 2.1
17 5 -18 2.45 2.09
17 5 -18 2.4 1.76
17 -5 -18 1.89 1.8
17 -5 -18 4.57 2.02
18 0 6 0.3 0.8
0 -6 18 -2.27 1.13
6 -18 0 -0.75 1.11
18 0 -6 1.67 1.09
0 6 -18 0.31 0.67
0 -6 -18 -1.71 1.15
18 0 -6 1.57 0.96
-6 -18 0 -0.33 1.16
0 -6 -18 -0.99 0.8
18 1 -6 1.61 0.94
-1 -6 -18 1.55 1.36
-1 -6 -18 0.62 0.84
1 -6 18 5.53 1.46
6 -18 1 1.02 1.2
-6 -18 -1 1.88 1.14
1 6 -18 2.56 0.76
18 -1 -6 2.82 1.07
6 -18 -1 4.1 1.26
1 -6 -18 -0.44 1.18
-1 6 -18 2.66 0.71
18 -1 -6 2.66 1.04
-1 -6 18 2.4 1.26
18 1 6 0.75 0.77
-6 -18 1 -0.64 1.17
1 -6 -18 3.21 0.92
2 6 -18 -1.37 0.67
-2 -6 -18 -0.61 1.25
6 18 -2 -0.07 0.71
18 2 -6 0.19 0.9
6 -18 2 -0.65 1.16
-6 -18 -2 0.67 1.13
18 2 -6 1.07 1
2 -6 18 -1.62 1.2
18 -2 -6 -0.4 0.87
2 -6 -18 -0.19 0.83
-2 -6 18 1.89 1.24
-6 -18 2 1.57 1.25
18 -2 -6 1.05 1.04
6 -18 -2 -0.58 1.14
18 2 6 -0.94 0.74
2 -6 -18 0.04 1.14
-6 -18 -3 0.49 1.24
3 6 -18 2.19 0.75
6 -18 3 2.82 1.21
6 18 -3 2.78 0.88
3 -6 18 1.94 1.32
18 3 -6 1.49 0.94
18 3 -6 1.28 0.95
-3 -6 -18 -0.56 1.32
-6 -18 3 1.15 1.18
18 -3 -6 0.41 0.92
6 -18 -3 0.25 1.21
3 -6 -18 1.82 0.99
3 -6 -18 2.03 1.37
-3 -6 18 3.55 1.4
18 -3 -6 0.81 0.95
18 3 6 2.16 0.82
6 -18 4 3.51 1.32
-6 -18 -4 1.06 1.36
4 6 -18 4.34 0.88
18 4 -6 3.05 0.96
-4 -6 -18 4.17 1.35
18 4 -6 1.94 0.89
4 6 -18 0.99 0.99
4 -6 18 2.01 1.23
6 18 -4 2.93 0.91
18 4 6 3.21 1
18 -4 -6 2.7 1.03
18 -4 -6 2.86 1.17
-4 -6 18 1.97 1.39
4 -6 -18 3.18 0.93
4 -6 -18 2.85 1.22
6 -18 -4 3.54 1.36
-6 -18 4 1.13 1.31
18 5 -6 0.2 0.82
6 -18 5 0.92 1.18
-5 -6 -18 2.54 1.31
5 6 -18 0.85 0.93
18 5 -6 1.7 0.92
-6 -18 -5 0.3 1.9
5 -6 18 1.23 1.22
6 18 -5 -0.64 0.81
-5 -6 18 1.13 1.44
6 -18 -5 2.08 1.33
5 -6 -18 2.22 0.83
5 -6 -18 2.03 1.34
18 -5 -6 -0.38 0.98
18 -5 -6 0.7 0.95
-6 -18 5 -1.07 1.1
6 6 -18 5.28 1.3
6 -18 6 4.94 1.46
-6 -18 -6 3.91 1.52
6 18 -6 4.65 1.04
18 6 -6 5.44 1.09
-6 -6 -18 3.2 1.35
6 6 -18 5.65 1.18
18 6 -6 4.68 0.99
6 -6 18 4.78 1.35
6 -6 -18 5.25 1.01
18 -6 -6 3.49 1.21
-6 -6 18 4.81 1.55
18 -6 -6 5.52 1.74
-6 -18 6 5.45 1.54
6 -18 -6 4.47 2.02
18 6 6 5.33 1.4
6 -6 -18 5.19 1.55
18 7 -6 3.25 1.06
7 6 -18 2.88 1.24
-7 -6 -18 4.29 1.58
6 -18 7 5.35 1.81
7 6 -18 4.13 1.15
18 7 -6 3.68 1
7 -6 18 1.23 1.2
-6 -18 -7 2.58 1.43
7 -6 -18 2.87 2.28
18 7 6 3.18 1.39
7 -6 -18 6.75 1.04
6 -18 -7 3.04 1.49
18 -7 -6 1.91 1.12
8 -6 18 5.88 1.31
8 6 -18 3.98 1.36
-6 -18 -8 -1.71 1.52
18 8 -6 2.13 0.92
6 -18 8 3.41 1.42
18 8 -6 1.72 1.07
8 6 -18 2.21 1.19
6 18 -8 5.24 1.17
18 -8 -6 0.43 1.43
-8 -6 18 1.54 1.59
8 -6 -18 1.56 0.95
-6 -18 8 3.27 1.65
18 -8 -6 2.56 1.19
8 -6 -18 1.99 1.38
6 -18 -8 1.34 1.43
18 8 6 1.93 1.21
-9 -6 -18 1.9 1.68
6 18 -9 1.23 1.1
18 9 -6 1.01 0.98
6 -18 9 1.26 1.56
9 6 -18 1.02 1.21
9 6 -18 -1.26 1.32
-6 -18 -9 1.44 1.53
18 9 -6 0.21 0.92
9 6 -18 -0.57 1.31
18 -9 -6 -0.01 1.19
-9 -6 18 2.55 1.72
-6 -18 9 0.34 1.42
9 -6 -18 -0.43 0.89
9 -6 -18 -1.34 1.34
18 9 6 0.32 1.06
6 -18 -9 -0.6 1.46
10 6 -18 -0.53 1.06
10 6 -18 -0.11 1.35
6 -18 10 0.47 1.54
-6 -18 -10 0.94 1.78
18 10 -6 -0.53 0.99
-10 -6 -18 0.97 1.69
6 18 -10 2.99 1.16
10 6 -18 2.91 1.41
6 -18 -10 -0.25 1.55
18 -10 -6 -0.7 1.15
-10 -6 18 0.66 1.74
10 -6 -18 -0.1 0.97
10 -6 -18 1.33 1.45
18 10 6 1.44 1.28
-6 -18 10 -1.81 1.62
11 6 -18 -0.22 1.24
6 -18 11 1.39 1.63
-6 -18 -11 1.89 1.81
18 11 -6 0.39 0.98
11 6 -18 2.36 1.42
11 -6 -18 1.64 1.59
-6 -18 11 4.54 1.84
18 11 6 0.22 1.57
18 -11 -6 0.64 1.31
-11 -6 18 5.14 1.84
11 -6 -18 0.44 1.07
6 -18 -11 2.11 1.75
18 12 -6 6.76 1.38
6 -18 12 3.47 1.87
-6 -18 -12 6.32 2.07
12 6 -18 5.96 1.75
12 6 -18 6.39 1.49
18 -12 -6 5.9 1.48
-6 -18 12 7.88 2.17
6 -18 -12 3.23 1.9
12 -6 -18 4.83 1.28
-12 -6 18 1.99 2.08
13 6 -18 -0.37 1.53
6 -18 13 -0.2 1.88
-6 -18 -13 6.38 2.21
13 6 -18 2.29 1.4
18 13 -6 -1.21 1.13
-13 -6 18 -4.44 2.32
18 -13 -6 2.76 1.4
13 -6 -18 1.86 1.19
6 -18 -13 -0.72 1.84
13 -6 -18 -1.7 1.44
-6 -18 13 3.72 1.98
6 -18 14 -1.77 2.01
6 18 -14 -1.62 1.22
-6 -18 -14 -2.1 2.27
18 14 -6 1.26 1.22
14 6 -18 0.83 1.45
14 6 -18 -0.7 1.71
14 -6 -18 -1.12 1.23
-6 -18 14 0.29 2.18
6 -18 -14 -1.94 2.08
14 -6 -18 1.52 1.59
18 -14 -6 -1 1.35
18 15 -6 3.95 1.94
15 6 -18 4.32 1.83
6 18 -15 2.25 1.31
15 6 -18 4.55 1.62
15 -6 -18 1.5 1.3
15 -6 -18 2.5 1.78
18 -15 -6 1.44 1.49
6 18 -16 -1.8 1.4
16 6 -18 -0.61 1.75
16 6 -18 0.36 1.5
18 16 -6 0.77 2.06
16 -6 -18 -0.37 1.76
18 -16 -6 -0.06 1.47
16 -6 -18 1.99 1.35
18 17 -6 -0.55 2.06
6 18 -17 3.63 1.66
17 6 -18 1.29 1.92
17 6 -18 1.38 2.03
18 -17 -6 -0.07 1.79
17 -6 -18 1.07 2.9
17 -6 -18 0.62 1.99
18 0 -7 16.28 1.6
0 7 -18 16.01 1.15
0 -7 -18 16.43 1.86
-7 -18 0 20.01 1.95
0 -7 18 14.87 2.13
7 -18 0 17.55 2.06
18 0 -7 17.56 1.61
-7 -18 -1 1.24 1.22
1 7 -18 1.77 0.7
-1 -7 -18 2.57 1.27
18 1 -7 1.84 0.99
18 1 -7 1.89 1.01
7 -18 1 0.86 1.24
1 -7 18 3.51 1.41
1 -7 -18 2.41 0.9
7 -18 -1 1.82 1.25
-7 -18 1 1.28 1.23
18 -1 -7 2.14 1.01
-1 -7 18 1.95 1.25
18 -1 -7 2.9 1.19
1 -7 -18 2.03 1.32
-2 -7 -18 0.96 1.23
18 2 -7 1.76 0.86
18 2 -7 0.71 0.96
7 -18 2 2.93 1.22
2 -7 18 2.41 1.38
-7 -18 -2 1.23 1.22
2 7 -18 1.71 0.74
-2 -7 18 0.52 1.33
-7 -18 2 2.99 1.41
2 -7 -18 2.02 0.92
7 -18 -2 1.79 1.21
18 -2 -7 0.73 1
2 -7 -18 1.39 1.32
18 -2 -7 1.79 1.23
18 3 -7 2.98 0.97
3 7 -18 5.84 0.89
-7 -18 -3 4.22 1.4
7 -18 3 4.48 1.36
3 -7 18 5.13 1.49
18 3 -7 4.77 1.1
-3 -7 -18 4.2 1.28
7 -18 -3 4.34 1.33
-7 -18 3 6.58 1.46
18 -3 -7 5.47 1.27
-3 -7 18 2.33 1.3
18 -3 -7 6.34 1.63
3 -7 -18 4.2 1.49
3 -7 -18 4.08 1.6
18 3 7 6.23 1.03
-7 -18 -4 4.88 1.55
4 -7 18 6.71 1.4
-4 -7 -18 3.62 1.32
18 4 -7 5.07 1.09
4 7 -18 4.18 1.08
4 7 -18 4.71 0.97
7 -18 4 3.57 1.31
18 4 -7 4.82 1.07
18 -4 -7 4.74 1.22
-7 -18 4 4.35 1.49
18 -4 -7 3.32 1.31
18 4 7 4.35 1.25
4 -7 -18 5.71 1.38
4 -7 -18 6.25 0.96
7 -18 -4 5.27 1.44
-4 -7 18 6.13 1.5
5 7 -18 3.73 1.16
-5 -7 -18 5.65 1.62
5 -7 18 4.9 1.39
18 5 -7 5.13 1.08
18 5 -7 4.55 1.07
5 7 -18 6.65 1.39
7 -18 5 6.22 1.42
-7 -18 -5 5.53 1.58
7 18 -5 6.37 1.39
18 -5 -7 5.3 1.3
7 -18 -5 3.32 1.56
-5 -7 18 5.04 2.37
5 -7 -18 6.99 1.04
18 5 7 7.8 1.5
-7 -18 5 6.78 1.53
18 -5 -7 6.06 1.29
-6 -7 -18 0.77 1.6
-7 -18 -6 4.74 1.55
18 6 -7 2.29 0.94
6 7 -18 4.87 1.23
18 6 -7 3.24 0.96
6 -7 18 3.4 1.54
6 7 -18 5.32 1.2
7 18 -6 4.96 1.19
7 -18 -6 4.23 1.78
-6 -7 18 -0.43 1.73
6 -7 -18 3.34 1.46
-7 -18 6 5.06 1.72
18 -6 -7 4.29 1.31
6 -7 -18 1.46 0.83
18 -6 -7 2.96 1.27
18 6 7 5.12 1.37
7 7 -18 -0.73 1.1
7 7 -18 -0.94 1.06
18 7 -7 1.98 0.96
18 7 -7 -0.57 0.89
7 -18 7 0.84 1.34
7 18 -7 -0.23 1.08
7 -18 -7 3.2 1.46
18 -7 -7 -0.81 1.16
18 7 7 -0.8 1.29
-7 -18 7 0.35 1.33
18 -7 -7 2.04 1.19
-7 -7 18 1.08 1.4
7 -7 -18 0.72 0.85
7 -7 -18 0.64 1.37
7 -18 8 2.26 1.36
7 18 -8 4.14 1.19
-7 -18 -8 1.08 1.55
18 8 -7 -0.78 0.92
18 8 -7 1.14 0.96
-8 -7 -18 0.82 1.47
8 7 -18 0.62 1.1
8 7 -18 0.03 1.19
18 -8 -7 2.91 1.3
-7 -18 8 -0.06 1.55
8 -7 -18 2.96 1.46
18 -8 -7 1.56 1.17
8 -7 -18 0.87 0.9
7 -18 -8 3.11 1.56
-8 -7 18 2.94 1.47
9 7 -18 3.54 1.34
-9 -7 -18 1.08 1.71
18 9 -7 1.09 0.97
9 7 -18 0.09 1.09
18 9 -7 -0.07 0.92
7 -18 9 0.65 1.45
7 18 -9 4.29 1.23
-7 -18 -9 0.06 1.53
-7 -18 9 -0.53 1.48
18 -9 -7 2.45 1.32
18 -9 -7 4.38 1.37
9 -7 -18 0.63 0.94
9 -7 -18 0.93 1.49
7 -18 -9 1.77 1.53
-9 -7 18 2.39 1.73
-10 -7 -18 2.18 1.85
7 18 -10 2.82 1.23
10 7 -18 2.66 1.52
10 7 -18 0.84 1.2
7 18 -10 2.53 1.03
7 -18 10 3.1 1.6
-7 -18 -10 1.86 1.69
10 7 -18 0.41 1.37
18 10 -7 1.71 1.03
7 -18 -10 5.44 1.77
-7 -18 10 -2.43 1.75
-10 -7 18 2.36 1.9
10 -7 -18 2.44 1.11
18 -10 -7 0.56 1.23
10 -7 -18 2.68 1.54
7 -18 11 7.91 1.76
11 7 -18 11.59 1.77
7 18 -11 11.43 1.5
7 18 -11 9.9 1.36
11 7 -18 9.62 1.62
-7 -18 -11 10.36 2.14
18 11 -7 8.83 1.48
11 -7 -18 9.6 2.13
-7 -18 11 8.73 1.94
7 -18 -11 13.52 2.04
11 -7 -18 12.25 1.61
-11 -7 18 13.95 2.35
18 -11 -7 9.12 1.65
7 -18 12 0.47 1.78
-7 -18 -12 0.74 1.96
7 18 -12 1.09 1.14
18 12 -7 1.68 1.17
12 7 -18 2.48 1.53
12 7 -18 2.39 1.4
18 -12 -7 -0.52 1.21
-7 -18 12 1.6 1.99
7 -18 -12 0.44 1.83
-12 -7 18 5.88 2.27
12 -7 -18 -0.43 1.07
7 18 -13 1.97 1.32
13 7 -18 3.15 1.75
13 7 -18 2.73 1.47
-7 -18 -13 7.38 2.19
7 -18 13 4.86 1.99
18 13 -7 3.09 1.24
-7 -18 13 4.48 2.11
13 -7 -18 2.17 1.31
-13 -7 18 2.1 2.53
18 -13 -7 2.75 1.51
7 -18 -13 2.94 1.93
13 -7 -18 1.53 1.6
18 14 -7 9.51 1.86
7 18 -14 7.45 1.48
14 7 -18 6.64 1.68
14 7 -18 5.77 1.83
18 -14 -7 6.52 1.6
14 -7 -18 8.31 1.88
14 -7 -18 3.71 1.3
15 7 -18 2.94 1.6
18 15 -7 1.84 1.94
7 18 -15 1.7 1.89
15 7 -18 1.18 1.81
15 -7 -18 -0.05 1.36
15 -7 -18 0.94 1.77
18 -15 -7 2.03 1.46
16 7 -18 5.16 1.99
18 16 -7 6.53 2.14
16 7 -18 3.92 1.66
7 18 -16 5.69 2.55
16 -7 -18 7.21 1.67
16 -7 -18 5.3 2.05
18 -16 -7 3.06 1.61
17 7 -18 3.72 2.04
7 18 -17 1.28 1.55
17 7 -18 3.62 1.73
18 17 -7 0.83 2.2
17 -7 -18 2.97 2.28
17 -7 -18 2.07 1.56
18 -17 -7 2 1.53
-8 -18 0 -0.6 1.29
0 -8 -18 0.08 1.28
0 -8 18 -0.02 1.23
8 -18 0 0.49 1.17
18 0 -8 0.01 0.88
18 0 -8 0.6 0.91
8 18 0 -0.53 1.07
18 1 -8 6.69 1.18
8 18 -1 8.3 1.4
1 -8 18 7.31 1.75
1 8 -18 10.88 1.23
8 -18 1 9.86 1.46
-1 -8 -18 6.1 1.65
18 1 -8 7.06 1.2
-8 -18 -1 8.24 1.64
1 -8 -18 9.27 1.6
-1 -8 18 5.61 1.82
18 -1 -8 5.21 1.19
18 -1 -8 8.79 1.22
-8 -18 1 9.09 1.64
8 -18 -1 7.65 1.45
2 8 -18 1.28 0.73
-8 -18 -2 1.66 1.67
18 2 -8 1 0.82
8 -18 2 0.11 1.18
2 -8 18 0.77 1.39
18 2 -8 1.58 1.04
-2 -8 -18 0.29 1.47
8 18 -2 1.98 1.17
2 -8 -18 0.45 0.94
-2 -8 18 1.39 2.02
18 -2 -8 1.71 1.08
-8 -18 2 1.91 1.39
2 -8 -18 -0.73 1.96
18 -2 -8 1.3 1.09
8 -18 -2 1.29 1.21
8 -18 3 1.27 1.12
3 8 -18 1.74 0.81
8 18 -3 1.09 1.17
-3 -8 -18 -0.06 1.5
-8 -18 -3 7.48 3.17
18 3 -8 1.84 0.87
18 3 -8 4.21 1.1
18 -3 -8 3.2 1.24
8 -18 -3 3.12 1.32
-8 -18 3 2.5 1.45
18 -3 -8 1.02 1.1
8 18 -4 6.69 1.35
18 4 -8 7.78 1.2
18 4 -8 7.71 1.17
8 -18 4 9.49 1.5
-8 -18 -4 6.65 1.5
18 -4 -8 7.25 1.36
-8 -18 4 9.59 2.29
18 -4 -8 7.32 1.35
8 -18 -4 10.02 1.78
4 -8 -18 4.08 0.9
4 -8 -18 5.75 1.61
-4 -8 18 4.14 1.93
5 8 -18 -0.51 0.92
-8 -18 -5 -3.07 1.41
18 5 -8 0.12 0.91
8 18 -5 1.03 1.15
5 8 -18 0.73 1.12
5 -8 18 1.42 2.05
18 5 -8 -0.38 0.93
5 -8 -18 -0.04 0.76
5 -8 -18 1.92 1.38
-5 -8 18 -1.29 1.41
18 -5 -8 0.71 1.09
-8 -18 5 2.87 1.58
18 -5 -8 -0.51 1.11
18 6 -8 2.42 1.01
8 18 -6 3.56 1.22
6 8 -18 2.48 1.21
8 -18 6 1.99 1.32
18 6 -8 1.97 0.98
-6 -8 -18 1.84 1.62
6 -8 18 2.89 1.34
6 8 -18 1.56 1.14
18 -6 -8 2.67 1.24
6 -8 -18 1.18 0.83
-6 -8 18 1.41 1.34
8 -18 -6 0.64 1.32
18 -6 -8 2.39 1.28
6 -8 -18 3.62 1.51
18 7 -8 0.04 0.96
-7 -8 -18 -0.69 1.37
8 18 -7 0.58 1.08
7 8 -18 0.3 1.23
7 -8 18 -0.58 1.27
18 7 -8 0.59 0.99
-8 -18 -7 -1.78 1.38
7 8 -18 -0.29 1.15
8 -18 7 0.84 1.34
8 -18 -7 -0.3 0.85
-8 -18 7 -1.01 1.39
7 -8 -18 -0.26 1.46
7 -8 -18 2.21 0.93
8 -18 -7 3.8 1.46
18 -7 -8 1.55 1.2
18 -7 -8 -0.15 1.14
-7 -8 18 0.32 1.62
18 8 -8 1.06 1.01
8 -18 8 3.3 1.44
8 8 -18 0.79 1.25
8 18 -8 1.51 1.13
18 8 -8 0.4 0.98
-8 -8 -18 0.17 1.73
8 -8 18 -0.23 1.37
8 18 -8 1.45 1
-8 -18 -8 1.31 1.65
8 8 -18 1.79 1.13
-8 -8 18 2.76 1.72
8 -18 -8 -1.43 0.86
18 -8 -8 1.03 1.27
-8 -18 8 -0.29 1.57
18 -8 -8 1.94 1.3
8 -8 -18 1.46 0.96
8 -8 -18 2.27 1.47
8 -18 -8 0.36 1.43
8 18 -9 9.23 1.46
9 8 -18 10.67 1.67
8 -18 9 7.63 1.68
18 9 -8 6.84 1.27
-8 -18 -9 4.78 1.81
18 9 -8 8.9 1.27
8 18 -9 8.66 1.21
9 8 -18 7.28 1.4
-9 -8 -18 8.94 1.97
8 -18 -9 6.59 1.05
18 -9 -8 8.55 1.65
18 -9 -8 6.79 1.53
8 -18 -9 11.53 1.87
9 -8 -18 8.16 1.26
-8 -18 9 6.91 1.84
-9 -8 18 7.99 1.88
9 -8 -18 10.37 1.77
8 18 -10 1.36 1.29
10 8 -18 -0.13 1.39
8 18 -10 4.86 1.16
18 10 -8 2.24 1.12
10 8 -18 -1.68 1.08
-8 -18 -10 5.25 1.92
18 10 -8 -1.27 1.02
8 -18 10 -0.58 1.58
-10 -8 -18 3.68 2.01
8 -18 -10 0.2 0.96
8 -18 -10 1.79 1.72
-8 -18 10 3.03 1.91
-10 -8 18 6.97 2.03
18 -10 -8 1.15 1.48
10 -8 -18 -0.51 1.61
18 -10 -8 2.55 1.36
10 -8 -18 1.45 0.98
18 11 -8 0.73 1.14
11 8 -18 0.88 1.5
8 18 -11 2.53 1.19
-8 -18 -11 0.1 1.89
8 -18 11 -2.81 1.67
11 8 -18 -0.05 1.28
8 18 -11 -1.15 1.28
11 -8 -18 -0.55 0.99
-11 -8 18 -1.79 2
8 -18 -11 1.09 1.75
18 -11 -8 1.48 1.27
-8 -18 11 -3.25 1.78
12 8 -18 12.43 1.76
-8 -18 -12 10.41 2.37
8 18 -12 12.25 1.6
12 8 -18 9.94 1.89
8 -18 12 13.94 2.12
8 18 -12 10.65 2.07
18 12 -8 13.68 1.79
8 -18 -12 12.63 2.19
12 -8 -18 10.49 1.44
-8 -18 12 14.28 2.42
18 -12 -8 9.16 1.77
-12 -8 18 12.31 2.58
13 8 -18 0.93 1.73
18 13 -8 2.84 1.45
8 -18 13 -0.44 2.15
-8 -18 -13 2.26 2.33
8 18 -13 3.13 1.31
13 8 -18 1.03 1.36
-8 -18 13 1.51 2.17
13 -8 -18 1.74 1.23
8 -18 -13 2.57 2.14
18 -13 -8 1.37 1.37
13 -8 -18 1.48 1.66
18 14 -8 2.11 1.88
14 8 -18 0.23 1.46
14 8 -18 0.89 1.75
8 18 -14 1.54 1.31
18 -14 -8 -0.71 1.35
14 -8 -18 -1.34 1.21
14 -8 -18 0.46 1.67
18 15 -8 7.83 2.16
8 18 -15 5.76 1.58
15 8 -18 5.83 1.97
15 8 -18 7.97 1.74
15 -8 -18 7.56 1.6
18 -15 -8 10.27 1.81
15 -8 -18 9.4 2.13
18 16 -8 0.35 2
8 18 -16 2.13 1.65
16 8 -18 4.22 1.98
16 -8 -18 0.67 1.84
8 18 -17 1.88 1.57
17 8 -18 1.68 1.61
18 17 -8 -0.79 3.22
17 -8 -18 4.45 1.58
17 -8 -18 -0.72 2.14
18 -17 -8 1.01 1.57
0 -9 -18 0.95 1.31
9 18 0 0.17 1.15
18 0 -9 0.94 0.88
9 -18 0 2.1 1.24
0 -9 18 -0.85 1.4
-9 -18 0 0.12 1.37
18 0 -9 0.88 1.02
-9 -18 -1 2.43 1.52
9 -18 1 3.03 1.3
1 -9 18 3.81 1.4
9 18 -1 5.63 1.32
18 1 -9 6.21 1.25
-1 -9 -18 5.58 1.51
18 1 -9 3.79 1.01
9 -18 -1 3.6 1.31
-9 -18 1 4.7 1.39
1 -9 -18 3.85 1.55
18 -1 -9 3.33 1.2
18 -1 -9 5.63 1.05
-1 -9 18 3.01 1.54
-2 -9 -18 10.81 1.78
18 2 -9 7.75 1.17
9 -18 2 11.03 1.49
2 -9 18 8.83 1.65
18 2 -9 7.37 1.31
9 18 -2 9.65 1.58
-9 -18 -2 8.02 1.71
9 -18 -2 8.87 1.47
18 -2 -9 6.86 1.35
18 -2 -9 10.87 1.3
-2 -9 18 9.14 1.68
-9 -18 2 9.93 1.75
2 -9 -18 8.02 1.63
-9 -18 -3 1.39 1.42
18 3 -9 0.91 0.91
9 -18 3 1.92 1.37
18 3 -9 1.76 1.05
3 9 -18 1.43 0.84
-3 -9 -18 2.8 1.48
9 18 -3 2.32 1.23
3 -9 18 2.12 1.48
3 -9 -18 2.29 1.51
18 -3 -9 2.84 1.16
-3 -9 18 1.62 1.47
-9 -18 3 1.18 1.46
18 -3 -9 2.6 1.26
3 -9 -18 1.64 0.91
4 9 -18 1.62 1.27
4 -9 18 3.55 1.52
18 4 -9 2.69 1.06
9 18 -4 0.81 1.11
18 4 -9 1.96 0.9
-4 -9 -18 5.45 1.45
-9 -18 -4 2.94 1.55
4 -9 -18 2.43 1.57
-9 -18 4 0.16 1.52
-4 -9 18 1.4 1.57
4 -9 -18 1.72 0.78
18 -4 -9 2.08 1.19
9 -18 -4 0.84 2.12
18 -4 -9 1.69 1.14
18 5 -9 5.29 1.13
5 9 -18 7.09 1.27
-5 -9 -18 8.62 1.7
9 -18 5 2.87 1.39
9 18 -5 6.53 1.35
5 -9 18 5.72 1.53
5 9 -18 3.19 1.13
18 5 -9 6.13 1.2
5 -9 -18 5.09 0.93
18 -5 -9 4.03 1.21
18 -5 -9 7.18 1.39
5 -9 -18 1.93 1.52
-5 -9 18 4.94 1.7
9 -18 -5 7.68 1.41
-9 -18 -6 -3.13 1.54
6 9 -18 0.06 1
9 18 -6 0.87 1.24
6 9 -18 2.43 1.16
18 6 -9 -1.04 0.88
9 -18 6 -0.16 1.32
6 -9 18 0.28 1.41
18 6 -9 1.13 1.03
-6 -9 -18 0.41 1.46
-9 -18 6 2.45 1.6
6 -9 -18 -1.37 0.81
18 -6 -9 0.32 1.22
18 -6 -9 -0.38 1.09
9 -18 -6 1.54 1.36
9 -18 -6 -1.28 0.82
6 -9 -18 -1.01 1.47
-6 -9 18 -2.7 1.28
18 7 -9 0.46 1
7 -9 18 1.8 1.42
9 -18 7 2.47 1.37
9 18 -7 0.66 1.2
18 7 -9 1.5 1.05
7 9 -18 5.18 1.28
-9 -18 -7 -0.42 1.69
7 9 -18 1.8 1.19
-7 -9 -18 5.34 1.76
7 -9 -18 2.7 0.93
-9 -18 7 0.39 1.66
9 -18 -7 -1.49 1.43
18 -7 -9 1.02 1.28
7 -9 -18 0.79 1.5
9 -18 -7 0.45 0.9
18 -7 -9 2.01 1.33
-7 -9 18 0.06 1.67
18 8 -9 6.57 1.32
18 8 -9 7.46 1.26
8 -9 18 6.43 1.6
9 18 -8 9.34 1.45
8 9 -18 8.08 1.47
9 -18 8 5.18 1.59
-9 -18 -8 8.12 1.76
-8 -9 -18 10.94 2.03
8 9 -18 7.34 1.38
8 -9 -18 7.12 1.75
8 -9 -18 7.62 1.15
9 -18 -8 4.3 1.58
-9 -18 8 10.32 1.91
18 -8 -9 7.01 1.45
-8 -9 18 5.39 1.95
9 -18 -8 7.34 1.19
18 -8 -9 9.89 1.57
9 18 -9 22.89 2.11
9 9 -18 24.07 2.11
-9 -9 -18 23.83 2.95
-9 -18 -9 20.5 2.9
18 9 -9 21.84 1.96
9 -18 9 26.88 2.48
9 18 -9 25.11 2.04
18 9 -9 22.27 1.89
9 9 -18 26.51 2.27
-9 -18 9 23.42 2.63
9 -9 -18 24.74 2.48
9 -18 -9 25.73 1.84
9 -18 -9 24.73 2.59
18 -9 -9 25.82 2.16
9 -9 -18 19.34 1.74
-9 -9 18 25.58 2.92
18 -9 -9 25.15 2.26
10 9 -18 1.39 1.47
9 18 -10 2.26 1.09
18 10 -9 -2.14 1.08
9 -18 10 2.14 1.68
18 10 -9 -0.07 1.06
10 9 -18 0.69 1.19
-9 -18 -10 -0.01 1.94
9 18 -10 3.29 1.36
-10 -9 -18 4.55 2.09
9 -18 -10 0.52 1.7
18 -10 -9 2.18 1.48
-9 -18 10 0.65 1.92
10 -9 -18 -0.97 1.74
9 -18 -10 2.82 1.08
10 -9 -18 -0.29 0.98
-10 -9 18 1.64 1.98
18 -10 -9 3.69 1.42
9 -18 11 0.57 2.65
9 18 -11 3.47 1.44
9 18 -11 4.28 1.21
11 9 -18 2.49 1.61
18 11 -9 0.65 1.17
-9 -18 -11 3.32 2.19
11 9 -18 2.58 1.33
-11 -9 18 1.74 2.09
9 -18 -11 3.18 1.16
-9 -18 11 1.99 2.14
18 -11 -9 0.59 1.35
9 -18 -11 6.13 1.96
12 9 -18 6.69 1.58
9 18 -12 6.79 1.61
9 18 -12 7.94 1.39
18 12 -9 7.31 1.47
-9 -18 -12 8.5 2.37
12 9 -18 5.51 1.8
-9 -18 12 6.27 2.16
-12 -9 18 4.81 2.46
18 -12 -9 5.27 1.52
9 -18 -12 7.17 2.12
12 -9 -18 4.34 1.35
18 13 -9 0.87 1.93
9 18 -13 0.78 1.32
13 9 -18 0.68 1.37
13 9 -18 -0.45 1.67
18 -13 -9 1.4 1.39
13 -9 -18 -0.37 1.72
13 -9 -18 -0.09 1.24
9 18 -14 2.5 1.41
18 14 -9 2.86 1.98
14 9 -18 -1.95 1.43
14 9 -18 0.38 1.8
14 -9 -18 -0.33 1.24
18 -14 -9 2.7 1.51
14 -9 -18 0.88 1.86
15 9 -18 2.93 1.78
15 9 -18 0.82 1.92
18 15 -9 -0.2 1.89
15 -9 -18 2.44 1.94
15 -9 -18 4.3 1.96
18 -15 -9 4.5 1.65
9 18 -16 1.92 1.62
16 9 -18 1.79 2.34
18 16 -9 2.43 2.22
16 9 -18 3.15 1.78
18 -16 -9 -0.91 1.51
16 -9 -18 2.19 1.53
16 -9 -18 2.67 2.57
17 9 -18 1.49 2.01
18 17 -9 0.52 2.15
9 18 -17 -0.27 1.62
17 9 -18 2.64 1.74
18 -17 -9 1.45 1.55
17 -9 -18 1.08 2.02
17 -9 -18 -3.15 1.37
18 0 -10 -0.97 0.88
-10 -18 0 0.88 1.58
18 0 -10 0.45 1.06
10 18 0 0.92 1.32
10 -18 0 -0.73 1.9
0 -10 18 1.02 1.5
0 -10 -18 -0.12 1.44
10 18 -1 3.11 1.35
-1 -10 -18 3.42 1.63
18 1 -10 3.44 1.05
1 -10 18 4.55 1.46
-10 -18 -1 4.57 1.62
18 1 -10 3.01 1.12
10 -18 1 4.97 2.12
-1 -10 18 3.21 1.61
10 18 1 3.38 1.46
-10 -18 1 2.26 1.52
18 -1 -10 4.69 1.09
1 -10 -18 3.63 1.44
18 -1 -10 4.16 1.24
2 -10 18 -0.99 1.4
18 2 -10 -0.01 1.04
18 2 -10 -1.27 0.82
-10 -18 -2 -0.55 1.5
10 18 -2 -0.12 1.31
-10 -18 2 0.38 1.7
2 -10 -18 1.86 1.58
18 -2 -10 -1.69 0.96
-2 -10 18 -0.86 1.32
18 -2 -10 0.46 0.95
10 18 -3 4.91 1.4
-10 -18 -3 4.47 2.17
3 -10 18 1.98 1.53
18 3 -10 4.62 1.22
18 3 -10 2.79 1.03
-3 -10 -18 4.57 1.5
18 -3 -10 5.56 1.14
-3 -10 18 4.85 1.7
18 -3 -10 3.71 1.29
3 -10 -18 5.1 1.64
10 -18 -3 5.41 1.4
18 4 -10 -0.03 0.88
4 -10 18 -1.51 1.49
-4 -10 -18 -1.1 1.52
18 4 -10 -0.13 1.11
10 -18 4 0.17 1.26
10 18 -4 -1.22 1.19
4 10 -18 -0.15 1.08
10 -18 -4 1.12 1.32
4 -10 -18 1.6 1.54
18 -4 -10 -1.17 1.04
-10 -18 4 3.43 2.02
-4 -10 18 0.23 1.63
18 -4 -10 -0.76 1.23
4 -10 -18 -1.46 0.89
5 10 -18 0.86 1.14
-5 -10 -18 3.46 1.7
5 10 -18 2.25 1.14
18 5 -10 3.97 1.18
10 -18 5 3.76 1.4
18 5 -10 0.08 1.09
-10 -18 -5 2.53 1.66
5 -10 18 3.49 1.53
10 18 -5 2.1 1.34
18 -5 -10 4.24 1.32
5 -10 -18 1.42 1.61
-5 -10 18 6.25 2.95
-10 -18 5 4.45 1.7
10 -18 -5 2.84 1.4
5 -10 -18 2.65 0.89
18 -5 -10 4.12 1.37
-10 -18 -6 0.93 1.67
6 -10 18 -1.36 1.41
-6 -10 -18 2.15 1.67
6 10 -18 0.81 1.11
10 18 -6 -0.73 1.34
18 6 -10 1.4 1.13
18 6 -10 1.19 1.19
10 -18 6 -0.6 1.34
6 10 -18 -1.72 1.14
-6 -10 18 0.76 1.55
10 -18 -6 0.49 0.95
18 -6 -10 -0.11 1.36
18 -6 -10 -0.23 1.26
-10 -18 6 -0.18 1.58
6 -10 -18 0.09 0.87
10 -18 -6 1.07 1.45
6 -10 -18 0.79 1.67
10 18 -7 2.63 1.36
-10 -18 -7 1.32 1.89
-7 -10 -18 1.45 1.72
7 -10 18 3.08 1.56
10 -18 7 -2.51 1.44
18 7 -10 0.79 1.1
7 10 -18 -1.35 1.21
18 7 -10 0.98 1.03
7 10 -18 3.86 1.19
7 -10 -18 1.55 1.71
-7 -10 18 0.79 1.69
7 -10 -18 0.84 0.91
18 -7 -10 1.16 1.36
10 -18 -7 1.02 1.53
10 -18 -7 0.28 0.95
18 -7 -10 2.38 1.37
-10 -18 7 2.8 1.78
-8 -10 -18 -1.17 1.83
10 -18 8 1.18 2.03
18 8 -10 2.45 1.13
18 8 -10 2.81 1.18
8 10 -18 1.43 1.3
10 18 -8 1.11 1.36
8 10 -18 1.37 1.22
-10 -18 -8 1.33 1.96
8 -10 18 0.2 1.6
18 -8 -10 -0.7 1.29
10 -18 -8 1.31 1.05
-10 -18 8 0.88 1.75
8 -10 -18 1.76 0.98
8 -10 -18 0.81 1.66
-8 -10 18 -0.75 1.79
18 -8 -10 3.33 1.45
10 -18 -8 -0.15 1.53
10 18 -9 2.11 1.41
9 10 -18 2.06 1.47
9 10 -18 0.03 1.27
18 9 -10 2.14 1.18
-10 -18 -9 -0.13 2.09
18 9 -10 1.6 1.19
-9 -10 -18 1.34 2
9 -10 -18 0.55 0.98
-9 -10 18 -1.22 1.72
-10 -18 9 -0.46 2.02
10 -18 -9 1.37 1.1
10 -18 -9 0.56 1.75
9 -10 -18 3.41 1.79
18 -9 -10 1.18 1.29
18 -9 -10 0.9 1.42
-10 -10 -18 -1.6 2.21
10 10 -18 1.52 1.45
18 10 -10 0.9 1.17
18 10 -10 -0.1 1.2
10 18 -10 1.85 1.38
10 10 -18 0.7 1.31
-10 -18 -10 -0.83 2.27
10 -10 -18 -0.13 1.91
10 -18 -10 -1.33 1.85
18 -10 -10 2.54 1.59
-10 -18 10 1.8 2.07
10 -18 -10 4.23 1.17
18 -10 -10 3.91 1.46
-10 -10 18 3.04 2.18
10 -10 -18 0.75 1.01
10 18 -11 3.08 1.23
18 11 -10 4.12 1.29
11 10 -18 1.55 1.56
18 11 -10 1.79 1.24
11 10 -18 4.48 1.39
10 18 -11 2.47 1.56
10 -18 -11 5.37 2.06
11 -10 -18 2.35 1.23
18 -11 -10 4.71 1.76
-10 -18 11 2.8 2.29
18 -11 -10 -0.19 1.46
10 -18 -11 2.13 1.22
-11 -10 18 3.26 2.28
10 18 -12 2.77 1.53
12 10 -18 -0.33 1.38
18 12 -10 -2.55 1.62
12 10 -18 0.18 1.6
10 18 -12 -2.3 1.21
12 -10 -18 -1.89 1.17
18 -12 -10 0.31 1.36
18 13 -10 3.61 2.02
10 18 -13 1.59 1.38
10 18 -13 0.17 1.59
13 10 -18 -0.47 1.32
13 10 -18 0.69 1.75
13 -10 -18 2.7 1.3
18 -13 -10 0.14 1.34
14 10 -18 -1.84 1.76
14 10 -18 1.59 1.57
18 14 -10 4.2 2
14 -10 -18 3.7 1.4
18 -14 -10 1.43 1.48
14 -10 -18 1.25 1.92
18 15 -10 5.66 2.1
15 10 -18 -1.51 1.84
15 10 -18 -1.24 1.67
10 18 -15 -1.65 1.54
15 -10 -18 -0.24 1.39
18 -15 -10 -1.25 1.8
15 -10 -18 1.09 2
10 18 -16 3.89 1.68
18 16 -10 4.23 2.31
16 10 -18 2.76 2.11
16 10 -18 1.02 1.69
16 -10 -18 5.66 2.14
16 -10 -18 1.94 1.51
18 -16 -10 -0.65 1.51
10 18 -17 -0.89 1.71
17 10 -18 1.85 2.12
18 17 -10 1.15 2.21
17 10 -18 5.02 1.84
17 -10 -18 2.44 1.56
18 -17 -10 4.26 1.76
17 -10 -18 3.3 2.13
0 -11 18 -2.15 1.46
18 0 -11 0.7 1.17
11 18 0 1.21 1.31
11 -18 0 0.46 1.63
18 0 -11 0.44 0.91
0 -11 -18 3.17 1.48
11 18 -1 4.56 1.55
18 1 -11 5.82 1.12
-1 -11 -18 6.29 1.83
18 1 -11 4.54 1.33
1 -11 18 1.73 1.65
11 -18 1 7.96 1.9
11 18 1 5.62 1.57
1 -11 -18 3.96 1.63
18 -1 -11 4.77 1.17
11 -18 -1 5.65 1.56
18 -1 -11 5.46 1.32
-1 -11 18 4.87 1.74
18 2 -11 4.98 1.19
-2 -11 -18 4.81 2.45
11 -18 2 4.25 1.6
2 -11 18 3.08 1.55
18 2 -11 4.46 1.29
11 18 -2 6.37 1.49
18 -2 -11 5.63 1.37
11 -18 -2 3.61 1.4
-11 -18 2 4.55 2.09
2 -11 -18 5.1 1.74
-2 -11 18 5.73 1.81
18 -2 -11 5.34 1.18
-3 -11 -18 1.18 1.61
-11 -18 -3 3.87 1.79
18 3 -11 3.39 1.29
11 18 -3 6.1 1.58
18 3 -11 1.93 1.08
3 -11 18 1.43 1.55
18 -3 -11 2.12 1.08
18 -3 -11 3.05 1.31
3 -11 -18 5.04 1.67
-11 -18 3 -1.18 1.63
11 -18 -3 2.81 1.41
-3 -11 18 3.82 1.58
-4 -11 -18 9 1.78
18 4 -11 10.68 1.49
11 18 -4 11.38 1.76
4 -11 18 6.86 1.82
-11 -18 -4 10.63 1.95
18 4 -11 10.3 1.59
-4 -11 18 10.41 1.93
4 -11 -18 11.37 1.82
18 -4 -11 9.37 1.55
18 -4 -11 8.94 1.39
11 -18 -4 8.77 1.61
-11 -18 4 11.25 1.94
-11 -18 -5 2.16 2.34
5 -11 18 1.83 1.52
-5 -11 -18 -1.73 1.61
18 5 -11 -1.45 1.33
5 11 -18 0.73 1.09
18 5 -11 0.24 1.09
5 11 -18 4.68 1.29
11 18 -5 -0.42 1.39
5 -11 -18 0.48 1.59
11 -18 -5 2.58 1.49
18 -5 -11 -0.12 1.18
18 -5 -11 -0.73 1.3
11 -18 -5 1.52 1.03
-5 -11 18 -3.79 1.48
-11 -18 5 0.27 1.73
6 11 -18 5.99 2.67
-6 -11 -18 2.55 1.83
6 11 -18 1.93 1.13
6 -11 18 0.25 1.64
11 18 -6 2.04 1.42
18 6 -11 0.76 1.26
18 6 -11 2.6 1.08
6 -11 -18 1.22 1.73
6 -11 -18 1.57 0.97
-11 -18 6 1.87 1.86
11 -18 -6 2.03 1.52
18 -6 -11 1.83 1.43
-6 -11 18 7.37 1.9
18 -6 -11 1.59 1.34
11 -18 -6 1.81 1.05
18 7 -11 9.3 1.43
7 -11 18 11.18 1.85
11 18 -7 11.08 1.79
7 11 -18 10.9 1.56
18 7 -11 8.71 1.38
-7 -11 -18 9.71 1.95
7 11 -18 8.27 1.58
-7 -11 18 9.23 2.12
18 -7 -11 9.89 1.71
7 -11 -18 11.05 2
11 -18 -7 10.03 1.36
11 -18 -7 10.98 1.79
18 -7 -11 7.13 1.65
7 -11 -18 14.09 1.55
-11 -18 7 14.52 2.21
-8 -11 -18 0.81 1.94
8 11 -18 1.09 1.37
8 11 -18 2.48 1.3
18 8 -11 -0.09 1.21
18 8 -11 -0.06 1.04
8 -11 18 -2.5 1.66
11 18 -8 -0.01 1.37
18 -8 -11 -0.46 1.29
-11 -18 8 -1.4 2.12
-8 -11 18 3.17 2.02
18 -8 -11 0.72 1.45
11 -18 -8 1.11 1.1
8 -11 -18 1.7 1.81
8 -11 -18 -0.94 1.03
18 9 -11 2.98 1.2
11 18 -9 0.84 1.49
9 11 -18 1.93 1.35
-9 -11 -18 2.27 2.08
9 11 -18 7.17 1.61
18 9 -11 3.16 1.29
18 -9 -11 2.3 1.56
-11 -18 9 0.98 2.16
18 -9 -11 5.48 1.52
9 -11 -18 1.96 1.12
-9 -11 18 3.08 2.12
9 -11 -18 3.19 1.89
10 11 -18 2.94 1.39
11 18 -10 5.14 1.58
10 11 -18 1.53 1.59
18 10 -11 2.03 1.26
18 10 -11 3.62 1.3
10 -11 -18 5.3 2.09
18 -10 -11 3.73 1.5
11 -18 -10 4.83 1.31
18 -10 -11 4.62 1.72
-11 -18 10 0.29 2.16
-10 -11 18 7.16 2.27
10 -11 -18 0.08 1.14
11 11 -18 -0.16 1.61
11 18 -11 1.1 1.52
18 11 -11 -0.31 1.31
11 11 -18 1.24 1.3
18 11 -11 0.51 1.35
11 -11 -18 0.33 1.2
-11 -11 18 7.19 2.71
18 -11 -11 1.5 1.72
18 -11 -11 0.89 1.37
11 -18 -11 -2.02 1.19
11 18 -12 1.21 1.63
12 11 -18 1.57 1.48
18 12 -11 3.01 1.89
12 11 -18 3.35 1.83
18 -12 -11 3 1.51
11 -18 -12 0.06 1.43
12 -11 -18 3.78 1.4
18 13 -11 4.83 2.17
13 11 -18 1.05 1.83
11 18 -13 1.76 1.69
13 11 -18 3.92 1.57
18 -13 -11 3.21 1.51
13 -11 -18 3.92 1.84
14 11 -18 2.35 1.9
11 18 -14 0.8 1.6
18 14 -11 0.09 2
14 -11 -18 6.88 2.11
14 -11 -18 0.36 1.67
15 11 -18 4.3 3.02
11 18 -15 1.89 1.71
15 11 -18 1.24 1.64
15 -11 -18 3.48 1.54
18 -15 -11 4.85 1.6
16 11 -18 -0.31 1.64
16 11 -18 -2.55 2.06
11 18 -16 -0.07 1.79
18 16 -11 1.66 2.17
16 -11 -18 0.8 2.12
18 -16 -11 -1.59 1.47
16 -11 -18 2.07 1.55
18 17 -11 0.78 2.08
17 11 -18 3.89 1.87
11 18 -17 5.33 1.99
17 11 -18 -0.15 2.11
17 -11 -18 1.52 2.23
17 -11 -18 5.53 1.8
12 18 0 4.42 1.66
0 -12 18 7.1 1.85
18 0 -12 5.47 1.46
18 0 -12 4.8 1.37
0 -12 -18 4.14 1.72
18 1 -12 1.54 1.21
-1 -12 -18 1.56 1.66
12 18 -1 0.44 1.43
18 1 -12 -1.02 1.3
12 18 1 1.61 1.46
18 -1 -12 -1.41 1.07
-1 -12 18 5.09 1.73
18 -1 -12 0.55 1.32
1 -12 -18 -2.85 1.58
18 2 -12 6.5 1.58
2 -12 18 6.11 1.78
12 18 -2 8.76 1.78
18 2 -12 6.54 1.4
-2 -12 -18 7.72 1.96
-2 -12 18 7.73 1.98
18 -2 -12 6.79 1.38
2 -12 -18 10.28 1.93
18 -2 -12 8.3 1.62
18 3 -12 0.25 1.22
-3 -12 -18 -1.24 1.49
3 -12 18 1.86 1.64
12 18 -3 0.56 1.5
18 3 -12 1 1.45
3 -12 -18 0.8 1.62
-3 -12 18 1.43 1.7
18 -3 -12 2.06 1.32
18 -3 -12 0.84 1.21
4 -12 18 -2.95 1.54
18 4 -12 -1.14 1.4
12 18 -4 0.17 1.54
18 4 -12 -1.08 1.28
-4 -12 -18 0.68 1.74
18 -4 -12 -0.44 1.21
-4 -12 18 2.15 1.81
4 -12 -18 -0.32 1.69
18 -4 -12 1.23 1.59
5 12 -18 -0.13 1.06
5 -12 18 0.92 1.72
-5 -12 -18 5.03 1.94
18 5 -12 0.45 1.24
18 5 -12 -0.23 1.26
12 18 -5 2 1.6
18 -5 -12 2.41 1.28
5 -12 -18 3.32 1.72
12 -18 -5 3.43 1.15
-5 -12 18 1.34 1.71
18 -5 -12 2.48 1.56
12 18 -6 6.26 1.67
6 12 -18 4.81 1.38
-6 -12 -18 7.12 1.95
6 12 -18 7.7 1.4
6 -12 18 9.62 1.98
18 6 -12 5.02 1.42
18 6 -12 4.31 1.2
6 -12 -18 7.2 2.02
18 -6 -12 7.46 1.65
-6 -12 18 7.06 2.04
12 -18 -6 5.78 1.23
-7 -12 -18 1.21 2.05
7 12 -18 1.46 1.39
18 7 -12 0.11 1.1
7 -12 18 -1.1 1.76
12 18 -7 1.51 1.59
7 12 -18 2.59 1.39
18 7 -12 1.88 1.28
7 -12 -18 6.59 1.89
12 -18 -7 2.24 1.18
18 -7 -12 -1.83 1.49
-7 -12 18 -0.67 1.76
18 -7 -12 2 1.38
12 18 -8 10.38 1.86
-8 -12 -18 10.39 2.32
8 12 -18 10.15 1.62
18 8 -12 8.32 1.49
8 12 -18 11.14 1.68
18 8 -12 13.27 1.67
8 -12 -18 10.62 1.36
18 -8 -12 7.78 1.78
12 -18 -8 11.62 1.53
18 -8 -12 9.36 1.68
8 -12 -18 11.59 2.19
-8 -12 18 9.11 2.14
9 12 -18 4.81 1.62
-9 -12 -18 2.63 2.31
18 9 -12 7.2 1.54
9 12 -18 4.34 1.42
12 18 -9 6.59 1.71
18 9 -12 6.95 1.42
18 -9 -12 3.77 1.34
9 -12 -18 3.56 1.19
-9 -12 18 6.13 2.34
9 -12 -18 4.86 2.12
18 -9 -12 4.54 1.75
12 -18 -9 8.3 1.47
10 12 -18 -2.3 1.54
18 10 -12 -0.57 1.3
12 18 -10 -0.61 1.63
18 10 -12 -2.06 1.13
10 12 -18 -0.57 1.33
18 -10 -12 0.05 1.4
10 -12 -18 -3.02 1.15
12 -18 -10 0.87 1.3
18 -10 -12 -1.77 1.59
-10 -12 18 -1.87 3.46
12 18 -11 2.86 1.65
11 12 -18 0.95 1.41
18 11 -12 1.64 1.45
18 11 -12 0.48 1.92
11 12 -18 4.63 1.74
18 -11 -12 5.05 1.88
12 -18 -11 2.84 1.39
18 -11 -12 5.25 1.58
11 -12 -18 3.7 1.34
12 18 -12 -2.16 2.13
18 12 -12 0.13 1.94
12 12 -18 -1.89 1.73
12 12 -18 -0.47 1.4
18 12 -12 0.05 2.07
18 -12 -12 -2.98 2.83
12 -12 -18 -2.39 1.31
18 -12 -12 0.48 1.44
13 12 -18 1.63 1.91
12 18 -13 1.88 2.38
18 13 -12 0.44 1.91
13 -12 -18 1.8 1.48
12 18 -14 3.81 1.8
14 12 -18 2.93 1.6
18 14 -12 2.72 2.46
18 -14 -12 1.37 1.52
14 -12 -18 3.71 1.55
18 15 -12 1.53 2.08
15 12 -18 4.96 1.75
15 12 -18 0.3 2.12
15 -12 -18 4.64 1.69
18 -15 -12 2.71 1.49
15 -12 -18 -2.39 2.08
16 12 -18 -0.63 2.15
16 12 -18 5.3 1.89
18 16 -12 3.03 2.24
18 -16 -12 3.7 1.64
16 -12 -18 -1.58 1.6
16 -12 -18 0.49 3.58
18 17 -12 3.04 2.15
17 12 -18 -0.43 1.88
17 12 -18 -0.23 2.18
18 -17 -12 3.39 1.77
17 -12 -18 3.89 2.29
17 -12 -18 -0.19 1.62
12 -18 -17 11.42 3.47
13 18 0 13.73 2.03
0 -13 -18 11.35 2.13
18 0 -13 11.41 1.83
0 -13 18 16.25 2.31
18 0 -13 10.75 1.63
18 1 -13 1.18 1.36
18 1 -13 0.4 1.43
-1 -13 -18 1.87 1.81
13 18 -1 1.4 1.57
1 -13 18 1.58 1.77
1 -13 -18 -1.6 1.57
18 -1 -13 -0.02 1.31
13 18 1 0.67 1.5
18 -1 -13 0.49 1.46
-1 -13 18 0.93 1.8
2 -13 18 2.84 1.76
18 2 -13 1.66 1.5
13 18 -2 3.98 1.73
18 2 -13 1.43 1.28
-2 -13 -18 1.09 1.65
18 -2 -13 0.09 1.24
-2 -13 18 3.17 1.91
2 -13 -18 -0.3 1.87
18 -2 -13 1.51 1.42
3 -13 18 2.02 1.83
13 18 -3 1.69 1.7
18 3 -13 4.16 1.65
18 3 -13 -1.62 1.13
-3 -13 -18 4.63 1.93
3 -13 -18 0.09 1.89
18 -3 -13 0.79 1.51
18 -3 -13 0.49 1.2
-3 -13 18 4.09 1.82
4 -13 18 10.26 1.92
13 18 -4 12.46 1.93
18 4 -13 11.96 1.64
18 4 -13 8.3 1.79
-4 -13 -18 6.85 2.07
18 -4 -13 10.96 1.73
18 -4 -13 10.44 1.81
-4 -13 18 17.03 2.36
4 -13 -18 11.77 2.18
18 5 -13 0.08 1.01
18 5 -13 -0.94 1.21
5 13 -18 -0.78 1.15
13 18 -5 0.31 1.63
-5 -13 -18 -2.88 1.91
5 -13 18 -1.53 1.84
18 -5 -13 -0.66 1.21
-5 -13 18 1.46 1.79
13 -18 -5 -0.08 1.13
18 -5 -13 2.29 1.54
5 -13 -18 -1.28 1.77
6 -13 18 1.02 1.89
6 13 -18 -0.47 1.18
18 6 -13 0.55 1.09
13 18 -6 -1.34 1.51
18 6 -13 1.02 1.31
-6 -13 -18 4.62 2.08
18 -6 -13 0.5 1.55
-6 -13 18 2.09 2.02
18 -6 -13 1.86 1.36
13 -18 -6 0.15 1.14
6 -13 -18 1.62 1.95
7 -13 18 8.34 2.01
-7 -13 -18 4.38 2.11
7 13 -18 5.71 1.44
13 18 -7 2.82 1.76
18 7 -13 3.21 1.19
18 7 -13 3.32 1.46
18 -7 -13 2.76 1.44
-7 -13 18 5.2 2.03
7 -13 -18 -0.87 1.93
13 -18 -7 5.69 1.36
18 -7 -13 1.52 1.64
18 8 -13 2.27 1.35
-8 -13 -18 -0.48 2.27
18 8 -13 -0.96 1.01
8 13 -18 0.12 1.33
8 13 -18 4.03 1.66
13 18 -8 0.8 1.69
13 -18 -8 4.24 1.36
-8 -13 18 1.96 2.09
8 -13 -18 4.82 2.27
18 -8 -13 0.47 1.61
18 -8 -13 2.23 1.43
13 18 -9 -1.66 1.63
18 9 -13 1.27 1.19
18 9 -13 0.19 1.32
9 13 -18 -0.08 1.6
9 13 -18 -1.59 1.32
18 -9 -13 -2.69 1.6
18 -9 -13 -2.6 1.29
13 -18 -9 -0.22 1.27
10 13 -18 -0.59 1.68
18 10 -13 -1.35 1.41
13 18 -10 0.79 1.72
10 13 -18 0.28 1.36
18 10 -13 -0.7 1.8
18 -10 -13 0.21 1.36
13 -18 -10 1.07 1.37
18 -10 -13 -0.03 1.78
10 -13 -18 3.94 1.36
13 18 -11 3.27 1.82
11 13 -18 1.29 1.79
11 13 -18 1.58 1.44
18 11 -13 2.15 2
18 11 -13 2.05 1.77
13 -18 -11 3.52 1.55
18 -11 -13 3.56 1.61
18 -11 -13 1.28 1.88
11 -13 -18 6.23 1.97
18 12 -13 1.32 1.67
18 12 -13 0.11 1.93
12 13 -18 1.5 1.95
13 18 -12 1.8 1.78
12 -13 -18 5.09 1.6
13 -18 -12 0.57 1.49
18 -12 -13 -1.05 2.32
18 13 -13 1.09 2.17
13 18 -13 -1.21 1.86
13 13 -18 -0.84 2.5
13 13 -18 0.94 1.52
18 -13 -13 0.36 1.55
13 -13 -18 2.36 1.57
13 -18 -13 -1.75 1.69
18 14 -13 1.58 2.1
14 13 -18 5.25 1.74
14 13 -18 -2.59 1.9
13 18 -14 1.31 1.87
18 -14 -13 0.77 1.56
14 -13 -18 0.95 2.09
14 -13 -18 -2.82 1.58
15 13 -18 1.41 1.81
15 13 -18 1.78 2.14
18 15 -13 1.59 2.15
18 -15 -13 3.81 1.61
15 -13 -18 -0.81 2.22
15 -13 -18 1.93 1.69
16 13 -18 1.09 1.82
16 13 -18 1.59 2.21
18 16 -13 -1.07 2.16
18 -16 -13 -1.36 1.62
16 -13 -18 1.23 2.23
16 -13 -18 -0.12 1.75
18 17 -13 0.92 2.15
17 13 -18 0.89 2.15
17 -13 -18 1.42 2.84
18 0 -14 0.83 1.25
14 18 0 4.53 1.88
0 -14 18 2.93 2
0 -14 -18 1.37 1.82
18 0 -14 3.79 1.65
-1 -14 -18 2.11 1.89
14 18 -1 4.12 1.74
18 1 -14 4.73 1.46
18 1 -14 4.97 1.68
1 -14 18 6.35 2.1
-1 -14 18 3.22 2.04
1 -14 -18 1.44 1.98
14 18 1 5.55 1.88
18 -1 -14 2.77 1.67
18 -1 -14 4.7 1.4
18 2 -14 0.41 1.37
14 18 -2 2.37 1.71
18 2 -14 4.29 2.46
-2 -14 -18 2.23 1.97
2 -14 18 2.17 1.9
2 -14 -18 2.21 1.97
18 -2 -14 2.2 1.59
18 -2 -14 3.89 1.42
-2 -14 18 2.29 2.1
18 3 -14 0.6 1.19
18 3 -14 2.59 1.69
-3 -14 -18 -0.84 1.73
14 18 -3 2.84 1.84
3 -14 18 1.03 1.95
-3 -14 18 2 1.99
18 -3 -14 1.79 1.61
18 -3 -14 0.11 1.35
3 -14 -18 0.16 2.03
-4 -14 -18 15.84 2.45
4 -14 18 16.97 2.27
18 4 -14 15.57 2.08
18 4 -14 12.65 1.73
14 18 -4 20.22 2.32
-4 -14 18 17.9 2.41
18 -4 -14 12.96 1.81
4 -14 -18 17.1 2.38
18 -4 -14 16.23 2.07
18 5 -14 0.29 1.09
5 14 -18 0.6 1.26
18 5 -14 0.4 1.44
5 -14 18 2.58 1.97
-5 -14 -18 -0.88 2.01
14 18 -5 -2 1.62
-5 -14 18 -2.69 2.04
18 -5 -14 2.79 1.68
5 -14 -18 -0.55 1.94
14 -18 -5 -0.84 1.14
18 -5 -14 1.81 1.35
18 6 -14 -0.03 1.38
18 6 -14 0.51 1.21
6 14 -18 0.74 1.37
14 18 -6 -2.46 1.71
6 -14 18 -1.69 2.12
-6 -14 -18 0.23 2.12
6 -14 -18 -2.46 2.09
14 -18 -6 -0.34 1.2
18 -6 -14 -0.4 1.62
-6 -14 18 -1.06 2.2
18 -6 -14 1.39 1.41
18 7 -14 7.16 1.49
18 7 -14 6.58 1.53
7 14 -18 6.64 1.49
14 18 -7 8.95 1.97
18 -7 -14 4.66 1.57
7 -14 -18 14.24 3.88
18 -7 -14 6.21 1.83
14 -18 -7 5.44 1.46
8 14 -18 2.78 1.38
14 18 -8 0.13 1.72
18 8 -14 -0.41 1.13
18 8 -14 -1.39 1.36
18 -8 -14 0.15 1.74
18 -8 -14 -2.45 1.23
14 -18 -8 2.06 1.37
18 9 -14 0.58 1.46
18 9 -14 -1.53 1.76
14 18 -9 2.18 1.82
9 14 -18 -0.13 1.34
18 -9 -14 -2.41 1.74
18 -9 -14 0.64 1.4
14 -18 -9 1.02 1.41
14 18 -10 1.81 1.86
18 10 -14 0.95 2
10 14 -18 1.86 1.53
18 10 -14 -0.83 1.69
10 14 -18 1.41 1.74
18 -10 -14 3.75 1.54
18 -10 -14 -0.25 1.89
14 -18 -10 5.02 1.91
14 18 -11 4.05 1.98
18 11 -14 -0.99 1.59
18 11 -14 -1.05 1.93
14 -18 -11 0 1.52
18 -11 -14 0.58 2.61
18 12 -14 0.44 2.15
12 14 -18 2.97 2
12 14 -18 3.63 1.66
18 12 -14 3.75 1.74
14 18 -12 4.07 2.01
18 -12 -14 3.51 1.62
18 -12 -14 2.93 2.15
14 -18 -12 1.96 1.58
13 14 -18 -1.19 1.56
14 18 -13 0.47 1.89
18 13 -14 1.67 2.14
13 14 -18 3.49 2.06
13 -14 -18 5.28 1.82
13 -14 -18 2.88 2.11
18 -13 -14 0.82 1.59
14 -18 -13 2.9 1.71
14 18 -14 0.91 1.98
14 14 -18 3.86 2.06
14 14 -18 4.04 1.8
18 14 -14 2.92 2.09
14 -14 -18 2.3 1.75
14 -14 -18 4.56 2.24
18 -14 -14 -0.75 1.48
18 15 -14 4.96 2.16
15 14 -18 4.66 2.04
15 14 -18 1.06 1.83
15 -14 -18 5.59 2.32
15 -14 -18 -2.04 1.77
18 -15 -14 0.04 1.66
16 14 -18 5.91 2.09
18 16 -14 -0.75 2.09
18 -16 -14 -2.01 2.12
16 -14 -18 -1.27 2.34
0 -15 -18 11.05 2.36
18 0 -15 5.82 1.49
0 -15 18 8.54 2.29
18 0 -15 8.91 1.93
15 18 0 11.57 2.07
18 1 -15 -1.88 1.31
15 18 -1 -3.23 1.74
-1 -15 -18 0.21 2.16
1 -15 18 3.95 2.1
18 1 -15 -0.74 1.62
18 -1 -15 -0.4 1.29
1 -15 -18 -1.03 2.02
18 -1 -15 -3.71 1.5
15 18 1 -0.34 1.84
-1 -15 18 -3.17 2.02
-2 -15 -18 3.36 2.16
18 2 -15 6.05 1.7
18 2 -15 9.6 1.86
2 -15 18 11.33 2.32
15 18 -2 6.02 1.93
18 -2 -15 8.14 1.62
2 -15 -18 8.22 2.17
-2 -15 18 4.49 2.1
18 -2 -15 7.53 1.84
-3 -15 -18 -0.08 2.22
3 -15 18 4.61 2.13
18 3 -15 1.23 1.34
15 18 -3 0.56 1.82
18 3 -15 2.01 1.4
18 -3 -15 2.07 1.72
3 -15 -18 1.2 2.05
-3 -15 18 2.06 2.2
18 -3 -15 1.54 1.41
18 4 -15 1.05 1.43
18 4 -15 1.08 1.16
-4 -15 -18 -1.48 2.3
4 -15 18 3.14 2.47
15 18 -4 3.05 1.87
-4 -15 18 2.38 2.38
18 -4 -15 1.48 1.37
18 -4 -15 6.15 1.85
4 -15 -18 1.6 2.14
18 5 -15 0.2 1.39
18 5 -15 1.47 1.24
5 15 -18 -0.93 1.24
15 18 -5 -1.09 1.81
18 -5 -15 1.64 1.42
18 -5 -15 3.31 1.75
18 6 -15 2.29 1.54
18 6 -15 1.56 1.29
6 15 -18 2.9 1.38
15 18 -6 1.45 1.84
18 -6 -15 4.41 1.62
18 -6 -15 1.23 1.76
15 -18 -6 3.1 1.34
15 18 -7 2.55 1.97
7 15 -18 0.02 1.5
18 7 -15 -0.46 1.29
18 7 -15 0.04 1.43
18 -7 -15 -0.43 1.8
18 -7 -15 1.97 1.5
15 -18 -7 0.29 1.34
18 8 -15 11.35 1.79
15 18 -8 8.91 2.14
18 8 -15 8.69 1.73
8 15 -18 9.54 1.7
18 -8 -15 8.4 2.03
18 -8 -15 8.66 1.66
15 -18 -8 8.09 1.67
15 18 -9 5.6 2.03
18 9 -15 4.17 1.96
9 15 -18 1.63 1.81
18 -9 -15 2.6 1.96
18 -9 -15 1.08 1.54
18 10 -15 -0.07 2.09
10 15 -18 0.36 1.54
15 18 -10 -1.51 1.93
18 10 -15 -0.82 1.58
18 -10 -15 1.78 2.4
15 -18 -10 1.94 1.53
18 -10 -15 -0.14 3.13
11 15 -18 2.15 1.53
15 18 -11 -0.78 2.02
18 11 -15 -0.56 1.63
18 -11 -15 3.45 1.69
15 -18 -11 2.95 1.64
18 -11 -15 1.29 2.12
18 12 -15 -1.63 1.77
15 18 -12 1.25 1.99
18 12 -15 0.74 2.1
12 15 -18 -2.33 1.55
15 -18 -12 1.09 1.65
18 -12 -15 1.59 1.51
18 -12 -15 3.86 2.21
18 13 -15 4.09 2.19
13 15 -18 2.2 2.25
15 18 -13 0.62 2.03
13 15 -18 0.51 1.67
15 -18 -13 4.84 1.83
18 -13 -15 3.43 1.63
13 -15 -18 3.71 2.29
14 15 -18 -1.18 1.93
15 18 -14 5.85 2.08
18 14 -15 0.97 2.04
14 15 -18 1.42 1.84
14 -15 -18 1.36 2.27
18 -14 -15 0.93 1.64
18 15 -15 -0.01 2.03
15 15 -18 0.56 2.09
15 -15 -18 -0.71 2.4
18 -15 -15 5.72 1.85
18 16 -15 -0.55 2.81
18 0 -16 -0.18 1.71
16 18 0 0.87 1.91
18 0 -16 0.28 1.4
16 18 -1 5.66 2.05
18 1 -16 6.68 1.88
18 1 -16 5.95 1.71
18 -1 -16 5.97 1.87
18 -1 -16 3.94 1.56
16 18 1 2.68 1.5
18 2 -16 0.65 1.53
16 18 -2 1.14 1.9
18 2 -16 4.62 1.7
18 -2 -16 3.59 1.82
18 -2 -16 2.2 1.5
16 18 -3 0.34 1.85
18 3 -16 1.01 1.14
18 3 -16 -0.68 1.44
18 -3 -16 -1.81 1.74
18 -3 -16 1.63 1.43
18 4 -16 0.99 1.46
18 4 -16 -1.06 1.13
16 18 -4 2.51 1.89
18 -4 -16 1.88 1.48
18 -4 -16 3.44 1.87
18 5 -16 -0.9 1.12
18 5 -16 1.29 1.54
16 18 -5 -0.03 1.97
5 16 -18 -2.7 1.25
18 -5 -16 3.53 1.85
18 -5 -16 -0.09 1.37
18 6 -16 -0.86 1.29
6 16 -18 1.09 1.4
16 18 -6 -0.76 1.9
18 6 -16 -1.64 1.46
18 -6 -16 1.01 1.42
18 -6 -16 0.38 1.82
16 -18 -6 -1.85 1.84
18 7 -16 6.79 1.76
16 18 -7 6.66 2.2
18 7 -16 10.74 1.97
7 16 -18 5.21 1.73
18 -7 -16 5.61 1.6
16 -18 -7 7.16 2.15
18 -7 -16 6.64 2.1
8 16 -18 -0.6 2.14
18 8 -16 0.91 1.92
16 18 -8 -2.68 1.93
18 8 -16 2.47 1.91
18 -8 -16 -2.41 1.93
16 -18 -8 0.89 1.58
9 16 -18 2.77 1.55
18 9 -16 3.96 2.1
18 9 -16 2.43 1.6
18 -9 -16 0.65 1.48
16 -18 -9 5.71 1.6
10 16 -18 3.62 1.52
16 18 -10 1.27 2.03
18 10 -16 1.9 1.72
18 10 -16 2.58 2.71
18 -10 -16 -2.63 2.02
16 -18 -10 2.42 1.61
18 -10 -16 1.37 1.56
18 11 -16 -2.51 2.11
16 18 -11 -0.12 2.03
11 16 -18 -0.92 1.57
18 11 -16 -1.47 1.7
18 -11 -16 1.99 1.59
16 -18 -11 0.14 1.64
18 -11 -16 0.59 2.18
18 12 -16 2.99 2.23
18 12 -16 1.15 1.92
16 18 -12 -0.52 2.08
12 16 -18 -0.42 1.69
18 -12 -16 2.63 2.29
16 -18 -12 5.61 1.78
18 -12 -16 -2.12 1.56
16 18 -13 -0.86 2.07
18 13 -16 4.22 2.22
13 16 -18 -0.38 1.83
18 -13 -16 -1.21 1.6
13 -16 -18 0.66 2.27
16 -18 -13 1.06 1.85
16 18 -14 3.37 2.07
18 14 -16 0.73 2.05
14 -16 -18 0.95 2.61
18 -14 -16 2.65 1.76
18 15 -16 0.5 2.58
17 18 0 -0.09 1.59
18 0 -17 -0.21 1.46
18 0 -17 1.99 1.87
18 1 -17 3.81 1.98
18 1 -17 5.68 1.66
17 18 -1 2.98 1.98
17 18 1 4.22 1.64
18 -1 -17 5.04 1.69
18 -1 -17 3.93 1.96
18 2 -17 0.36 1.52
18 2 -17 -0.15 1.39
17 18 -2 2.04 1.98
18 -2 -17 -2.61 1.74
18 -2 -17 0.07 1.41
17 18 -3 0.49 1.98
18 3 -17 -1.17 1.52
18 3 -17 2.01 1.35
18 -3 -17 -0.34 1.34
18 -3 -17 -0.02 1.77
17 18 -4 2.67 2.02
18 4 -17 0.19 1.49
18 4 -17 1.94 1.67
4 17 -18 0.93 1.4
18 -4 -17 4.16 1.57
18 -4 -17 4.74 1.9
17 18 -5 8.73 2.3
18 5 -17 3.96 1.73
18 -5 -17 5.16 1.99
18 -5 -17 3.65 1.84
18 6 -17 3.56 1.85
6 17 -18 2.79 1.76
17 18 -6 0.35 2
18 6 -17 1.09 1.97
18 -6 -17 2.46 1.97
18 7 -17 0.26 1.63
17 18 -7 -2.82 2.25
18 7 -17 1.71 2.08
7 17 -18 0.44 1.52
18 -7 -17 2.51 1.66
17 -18 -7 0.74 1.44
18 -7 -17 -0.75 2.97
17 18 -8 -3.39 3.14
18 8 -17 -0.49 1.58
8 17 -18 0.26 1.54
18 -8 -17 -1.59 1.35
18 -8 -17 2.3 2.11
17 -18 -8 1.86 1.5
17 18 -9 1.02 2.12
18 9 -17 0.33 1.63
9 17 -18 1.08 1.63
18 9 -17 3.57 2.04
18 -9 -17 -1.54 2
18 -9 -17 -0.61 1.5
17 -18 -9 -2.5 1.49
17 18 -10 5.81 2.28
10 17 -18 0.99 1.57
18 10 -17 2.03 1.81
18 10 -17 6.34 2.28
17 -18 -10 -0.08 1.56
18 -10 -17 3.18 2.17
18 -10 -17 4.04 1.65
18 11 -17 1.53 2.21
11 17 -18 2.98 1.82
18 11 -17 1.43 1.81
17 18 -11 4.14 2.18
17 -18 -11 1.34 1.7
18 -11 -17 2.01 1.65
18 -11 -17 4.57 2.33
18 12 -17 1.5 2.2
18 12 -17 1.79 2.08
17 18 -12 2.93 2.12
12 17 -18 2.85 1.98
12 -17 -18 5.37 2.37
17 -18 -12 2.12 1.79
18 -12 -17 4.15 2.36
18 -12 -17 1.7 1.67
17 18 -13 -0.86 2.03
18 13 -17 1.34 2.07
18 -13 -17 2.81 2.1
18 14 -17 -2.11 3.26
18 0 -18 0.49 1.85
18 18 0 2.29 2.01
18 18 -1 3.56 2.08
18 1 -18 3.19 1.86
18 -1 -18 0.88 1.99
18 18 -2 2.72 2.05
18 2 -18 4.07 1.95
18 2 -18 3.08 2.2
18 -2 -18 5.47 2.12
18 -2 -18 3.99 2.59
18 18 -3 5.97 2.21
18 3 -18 4.97 1.91
18 3 -18 2.24 1.73
18 -3 -18 1.77 1.91
18 -3 -18 0.64 1.51
4 18 -18 3.42 1.47
18 18 -4 -1.02 2.2
18 4 -18 -1.8 1.99
18 4 -18 1.89 1.63
18 -4 -18 0.83 2.1
18 -4 -18 0.96 1.56
5 18 -18 1.87 1.57
18 5 -18 -1.39 1.55
18 -5 -18 2.4 1.57
6 18 -18 2.9 1.62
18 18 -6 2.07 2.91
18 6 -18 1.87 2.53
18 6 -18 -0.4 1.64
18 -6 -18 -0.26 1.98
18 -6 -18 0.38 1.5
7 18 -18 0.27 1.56
18 18 -7 1.27 2.12
18 7 -18 1.57 1.99
18 7 -18 -1.12 1.6
18 -7 -18 -0.43 2
18 -7 -18 1.22 1.5
8 18 -18 5.85 1.71
18 8 -18 0.16 2.05
18 18 -8 3.07 2.22
18 8 -18 4.36 1.79
18 -8 -18 4.21 2.13
18 -18 -8 6.12 1.68
18 -8 -18 2.34 1.6
9 18 -18 9.38 1.83
18 9 -18 9.66 2.3
18 18 -9 10.71 2.44
18 9 -18 10.23 1.95
18 -9 -18 14.75 2.38
18 -18 -9 13.55 1.92
18 -9 -18 10.86 1.86
10 18 -18 0.73 1.79
18 10 -18 0.03 2.15
18 18 -10 1.28 2.11
18 10 -18 2.29 1.87
18 -10 -18 1.28 2.23
18 -18 -10 -1.62 1.58
18 -10 -18 2.47 1.62
18 11 -18 -4.45 2.07
18 18 -11 -2.08 2.07
18 11 -18 6.89 2.05
18 -11 -18 1.45 2.26
18 -18 -11 -3.97 1.7
18 -11 -18 3.6 1.69
18 12 -18 3.38 2.24
18 18 -12 5.99 2.17
0 -19 0 17.91 1.92
0 0 -19 20.88 1.57
0 0 19 17.73 1.94
19 0 0 16.39 1.34
1 0 19 -0.08 1.23
19 -1 0 -1.04 0.93
19 -1 0 -1.24 0.71
19 1 0 0.25 1.06
19 1 0 -1.4 0.7
1 0 -19 -0.84 0.73
-1 0 19 0.07 1.13
0 -19 -1 -0.02 1.25
0 -19 1 -0.49 1.12
-1 0 -19 1.59 1.02
19 -2 0 10.66 1.45
-2 0 19 10.73 1.63
0 -19 -2 10.1 1.67
0 -19 2 9.01 1.58
2 0 -19 9.94 1.23
2 0 19 10.11 1.59
19 2 0 10.17 1.28
19 2 0 9.42 1.21
19 -2 0 9.32 1.17
-3 0 19 13.5 1.91
19 -3 0 11.18 1.5
3 0 19 9.96 1.54
19 3 0 13.43 1.82
3 0 -19 15.31 1.45
19 -3 0 10.52 1.21
19 3 0 12.91 1.35
0 -19 3 12.22 1.74
0 -19 -3 11 1.74
4 0 -19 1.52 1.29
19 -4 0 0.42 0.96
19 4 0 1.64 1.03
0 -19 -4 0.58 1.22
-4 0 19 0.89 1.33
19 4 0 2.22 1.33
0 -19 4 2.54 1.44
4 0 -19 0.42 0.81
19 5 0 2.73 1.06
0 -19 5 3.17 1.37
0 -19 -5 1.61 1.35
5 0 -19 0.11 1.27
5 0 -19 0.79 0.89
19 -5 0 1.33 0.99
-5 0 19 4.45 1.53
19 -6 0 10.2 1.41
19 6 0 14.47 1.59
6 0 -19 9.57 1.89
-6 0 19 7.84 2.57
6 0 -19 11.76 1.52
0 -19 7 4.05 1.59
19 -7 0 2.44 1.13
19 7 0 5.01 1.15
7 0 -19 4.08 1.17
0 -19 -7 4.52 1.56
-7 0 19 3.19 1.88
7 0 -19 2.7 2.2
8 0 -19 18.51 2.04
19 -8 0 18.4 2
19 8 0 17.23 1.72
8 0 -19 14.57 1.88
0 -19 8 16.3 2.32
8 0 -19 17.31 1.79
0 -19 -8 16.16 2.11
-8 0 19 12.72 2
9 0 -19 6.04 1.3
0 -19 9 3.52 1.72
9 0 -19 5.78 1.55
-9 0 19 5.57 1.75
9 0 -19 4.85 1.44
19 -9 0 6.22 1.52
19 9 0 5.25 1.25
0 -19 -9 6.18 1.74
-10 0 19 0.37 1.84
0 -19 -10 -3.11 1.51
0 -19 10 3.47 1.65
10 0 -19 -0.25 1.07
10 0 -19 1.22 1.31
19 10 0 2.03 1.29
10 0 -19 1.17 1.44
19 -10 0 0.19 1.15
11 0 -19 4.18 1.28
19 11 0 5.24 1.77
19 -11 0 6.08 1.51
11 0 -19 5.56 1.57
0 -19 11 4.45 1.95
0 -19 -11 5.02 1.81
-11 0 19 3.34 1.9
19 12 0 3.58 1.69
19 -12 0 3.86 1.45
0 -19 -12 1.28 1.63
12 0 -19 3.62 1.43
12 0 -19 2.09 1.3
0 -19 12 1.44 1.93
-12 0 19 1.93 2
19 -13 0 11.16 1.84
0 -19 13 14.33 2.46
0 -19 -13 9.77 2.12
13 0 -19 11.37 1.74
13 0 -19 9.31 1.49
19 13 0 8.14 2.32
-13 0 19 9.86 2.43
19 14 0 10.99 2.34
0 -19 14 13.71 2.44
14 0 -19 12.49 1.8
14 0 -19 11.5 1.53
0 -19 -14 8.44 2.27
15 0 -19 1.49 1.18
19 15 0 -0.82 1.37
15 0 -19 -1.03 1.36
19 16 0 3.82 1.66
16 0 -19 3.63 1.39
16 0 -19 2.69 1.54
19 17 0 1.29 1.98
17 0 -19 0.16 1.9
17 0 -19 1.33 2.41
18 0 -19 0.54 2.09
18 0 -19 4.41 1.72
1 -19 0 0.34 1.2
0 -1 -19 0.25 1.1
19 0 -1 1.35 0.75
0 1 19 -1.26 1.08
0 -1 19 0.62 1.28
19 0 -1 -0.48 1.21
0 1 -19 -0.06 0.7
-1 -19 0 0.98 1.32
19 0 1 1.27 1.07
19 0 1 -0.94 0.72
1 1 -19 5.99 1.03
19 1 -1 2.45 1.87
1 -1 19 4.26 1.31
-1 -19 -1 5.23 1.51
19 -1 1 3.46 0.86
1 -19 1 2.78 1.22
-1 1 19 3.68 1.39
19 1 -1 6.5 1
19 -1 -1 3.81 1.07
19 -1 -1 4.26 0.91
1 -1 -19 2.3 0.88
-1 1 -19 3.74 0.94
1 -19 -1 3.5 1.48
1 1 19 4.18 1.39
19 1 1 4.52 0.94
19 1 1 3.65 1.05
-1 -19 1 1.89 1.32
-1 -1 19 2.42 1.3
-1 -19 -2 5.55 1.42
-2 -1 -19 6.35 1.5
2 -1 19 4.93 1.42
2 1 -19 5.98 1.03
19 -2 1 5.62 0.94
19 -2 1 6.35 1.17
19 2 -1 6.1 1.23
-2 1 19 7.27 1.55
19 2 -1 7.26 1.22
1 -19 2 4.78 1.43
-2 -1 19 4.12 1.38
19 -2 -1 7.57 1.2
19 2 1 5.81 0.99
2 -1 -19 4.69 1.01
2 -1 -19 3.36 1.32
-1 -19 2 5.88 1.5
1 -19 -2 5.39 1.37
-2 1 -19 4.27 0.92
19 2 1 7.38 1.13
19 -2 -1 9.15 1.11
-1 -19 -3 1 1.39
19 3 -1 0.51 1.05
19 -3 1 0.32 0.91
1 -19 3 -0.84 1.26
-3 -1 -19 0.46 0.99
-3 1 19 0.36 1.31
3 1 -19 -0.37 0.75
3 -1 19 0.61 1.22
-1 -19 3 -0.3 1.29
19 3 1 2.06 1.01
3 -1 -19 1.05 0.81
-3 -1 19 2.59 1.41
19 -3 -1 1.19 0.82
3 -1 -19 1.4 1.24
19 -3 -1 2.26 1.03
1 -19 -3 1.16 1.33
19 3 1 1.03 1.08
-4 1 19 10.43 1.86
4 -1 19 8.58 1.43
19 4 -1 9.56 1.29
1 -19 4 7.58 1.68
19 -4 1 9.68 1.33
-1 -19 -4 10.41 1.59
4 1 -19 12.1 1.48
19 4 -1 11.97 1.67
-4 -1 -19 9.94 1.24
4 -1 -19 9.42 1.25
19 4 1 12.26 2.74
1 -19 -4 11.53 1.72
19 -4 -1 7.94 1.05
-4 -1 19 9.62 1.6
4 -1 -19 11.72 1.67
19 -4 -1 9.35 1.35
-1 -19 4 11.42 1.75
19 5 -1 9.25 1.28
-1 -19 -5 5.45 1.47
19 5 -1 6.22 1.26
19 -5 1 6.03 1.26
1 -19 5 7.07 1.57
-5 1 19 7.12 1.75
5 1 -19 5.77 1.18
-5 -1 -19 6.01 1.16
5 1 -19 7.11 1.47
5 -1 -19 5.82 1.47
19 -5 -1 5.47 1.22
-5 -1 19 7.28 1.58
5 -1 -19 5.97 1.12
1 -19 -5 6.79 1.57
-1 -19 5 7.34 1.46
19 5 1 9.28 1.49
6 1 -19 16.96 3.01
19 -6 1 12.84 1.59
-6 -1 -19 16.16 1.86
-6 1 19 9.93 3.07
6 1 -19 13.8 1.58
19 6 -1 16.77 1.61
19 6 1 14.75 1.62
6 -1 -19 16.99 1.65
6 -1 -19 18.79 2.68
19 -6 -1 14.33 1.72
7 1 -19 4.22 1.32
19 -7 1 3.5 1.17
19 7 -1 3.21 1
7 1 -19 3.72 1.15
1 -19 7 4.49 1.5
-1 -19 -7 3.82 1.45
-7 1 19 4.38 1.6
19 -7 -1 3.6 1.22
7 -1 -19 3.02 1.04
7 -1 -19 -0.41 1.52
-1 -19 7 3.53 1.42
-7 -1 19 3.47 1.8
1 -19 -7 4.44 1.46
19 7 1 3.36 1.04
8 1 -19 0.92 1.39
-1 -19 -8 -0.78 1.53
8 1 -19 1.14 1.02
19 -8 1 0.96 1.15
19 8 -1 -1.7 0.85
-8 1 19 2.02 1.49
1 -19 8 -0.84 1.47
8 1 -19 -2.31 1.16
-1 -19 8 -2.12 1.45
19 8 1 0.08 0.97
-8 -1 19 -1.32 1.59
1 -19 -8 -1.24 1.43
8 -1 -19 -0.25 1
8 -1 -19 -1.6 1.3
19 -8 -1 1.68 1.18
1 -19 9 -0.4 1.65
9 1 -19 0.99 1.13
19 9 -1 1.89 1.08
9 1 -19 2.23 1.39
19 -9 1 -0.04 1.1
-1 -19 -9 1.17 1.65
9 1 -19 -0.56 1.21
-9 1 19 2.94 1.56
19 -9 -1 2.33 1.33
1 -19 -9 1.03 1.6
9 -1 -19 2.16 1.12
9 -1 -19 3.29 1.5
19 9 1 2.15 1.1
-1 -19 9 4.05 1.53
9 -1 -19 2.04 1.35
-9 -1 19 0.63 1.62
10 1 -19 2.2 1.46
19 -10 1 0.24 1.31
-10 1 19 -0.51 1.62
-1 -19 -10 -1.79 1.41
1 -19 10 1.22 1.67
10 1 -19 -0.37 1.23
19 10 -1 -0.52 1.13
10 1 -19 -0.22 1.22
10 -1 -19 0.2 1.38
-1 -19 10 -1.09 1.67
10 -1 -19 0.81 1.46
1 -19 -10 2.89 1.53
19 10 1 -0.04 1.26
-10 -1 19 0.75 1.62
10 -1 -19 -0.76 1.04
19 -10 -1 1.99 1.26
1 -19 11 -1.18 1.78
19 -11 1 1.93 1.46
19 11 -1 1.22 1.73
-11 1 19 2.83 1.84
11 1 -19 3.32 1.35
11 1 -19 1.25 1.36
-1 -19 -11 2.66 1.79
-1 -19 11 -1.37 1.69
19 11 1 0.77 1.59
-11 -1 19 0.54 1.89
11 -1 -19 1.01 1.12
11 -1 -19 1.1 1.22
19 -11 -1 -0.53 1.28
1 -19 -11 -1.45 1.76
19 -12 1 19.47 2.06
12 1 -19 15.04 2.06
19 12 -1 18.05 2.33
1 -19 12 17.47 2.44
-1 -19 -12 25.1 2.91
12 1 -19 20.77 2.04
19 12 1 20.5 2.37
12 -1 -19 18.64 2.04
12 -1 -19 17.21 1.68
-12 -1 19 19.82 2.58
1 -19 -12 18.54 2.35
-1 -19 12 22.39 2.98
19 -12 -1 19.28 2.21
1 -19 13 0.01 2.04
19 13 -1 2.34 1.82
13 1 -19 -0.54 1.34
13 1 -19 0.11 1.37
-1 -19 -13 -1.45 1.9
19 -13 -1 1.01 1.42
13 -1 -19 1.39 1.01
-13 -1 19 -4.14 2.15
-1 -19 13 4.49 2.13
19 13 1 -2.19 1.7
1 -19 -13 1.6 1.93
13 -1 -19 1.29 1.33
19 14 -1 -1.5 1.36
14 1 -19 -0.17 1.16
-1 -19 -14 -4.17 2.14
14 1 -19 0.99 1.39
1 -19 14 1.97 2.13
14 -1 -19 0.56 1.36
-1 -19 14 1.03 2.99
19 14 1 -1.31 1.88
1 -19 -14 -2.85 2.09
19 -14 -1 1.53 1.42
14 -1 -19 1.51 1.16
15 1 -19 9.73 1.84
15 1 -19 11.43 1.63
19 15 -1 12.95 1.81
15 -1 -19 14.19 1.77
15 -1 -19 10.37 1.82
19 15 1 12.53 2.3
19 16 -1 1.03 1.47
16 1 -19 1.08 1.52
16 1 -19 0.04 1.27
19 16 1 3.18 1.57
16 -1 -19 2.81 1.44
16 -1 -19 -1.16 1.46
19 17 -1 -1.75 1.89
17 1 -19 4.16 2.49
17 1 -19 0.19 1.75
17 -1 -19 -0.34 2.28
19 17 1 -0.43 1.94
17 -1 -19 1.08 1.96
18 1 -19 3.62 1.68
18 1 -19 0.41 2.11
19 18 -1 3.75 2.75
18 -1 -19 -0.76 2.2
18 -1 -19 -0.31 1.56
19 0 -2 8.75 1.23
0 -2 -19 7.55 1.51
0 -2 19 15.75 2.11
19 0 2 10.43 1.21
-2 -19 0 10.72 1.62
2 -19 0 9.79 1.65
19 0 2 10.48 1.36
19 0 -2 9.16 1.24
0 2 -19 7.77 1.12
19 -1 2 6.76 0.96
2 -19 1 7.25 1.53
-2 -19 -1 6.35 1.43
1 -2 19 4.59 1.34
19 1 -2 6.24 1.22
-1 -2 -19 5.25 1.12
1 2 -19 7.2 1.07
19 1 -2 7.46 1.19
-1 2 19 4.13 1.33
19 1 2 8.42 1.03
1 -2 -19 6.4 1.5
19 -1 -2 5.74 1.14
19 -1 -2 6.3 0.96
19 1 2 6.82 1.23
-1 -2 19 3.53 1.44
1 -2 -19 4.02 1.15
-2 -19 1 6.61 1.43
2 -19 -1 5.82 1.39
19 2 -2 0.09 1.2
-2 -19 -2 1.54 1.31
2 2 -19 1.01 0.81
2 -2 19 1.24 1.2
2 -19 2 -0.71 1.25
-2 2 19 0.05 1.19
19 -2 2 0.41 0.78
-2 -2 -19 -0.45 0.9
19 -2 2 0.36 0.95
19 -2 -2 0.16 0.76
-2 -2 19 -3.15 1.21
2 -2 -19 -0.23 0.73
-2 -19 2 0.17 1.17
19 -2 -2 1.94 0.99
2 -2 -19 0.6 1.29
2 -19 -2 0.21 1.21
19 2 2 -0.16 0.8
19 2 2 0.41 1
-3 -2 -19 20.98 1.71
3 -2 19 21.58 2.13
19 -3 2 26.59 1.85
19 3 -2 19.64 2.34
2 -19 3 18.9 2.04
-3 2 19 19.99 2.09
-2 -19 -3 21.26 2.1
3 2 -19 24.81 1.71
3 -2 -19 20.3 2.06
19 -3 -2 25.7 1.5
3 -2 -19 21.37 1.56
-3 -2 19 19.33 2.09
19 -3 -2 26.61 1.95
19 3 2 25.07 1.76
2 -19 -3 22.64 2.3
-2 -19 3 21.66 2.1
19 3 2 24.19 1.82
4 -2 19 7.63 1.49
4 2 -19 7.18 1.19
-4 -2 -19 6.91 1.11
-4 2 19 6.7 1.61
-2 -19 -4 5.43 1.55
19 4 -2 6.55 1.36
2 -19 4 6.88 1.41
19 4 -2 6.81 1.21
19 -4 2 7.09 1.27
19 -4 -2 7.53 1.25
-4 -2 19 5.56 1.64
2 -19 -4 8.72 1.71
4 -2 -19 9.66 1.63
4 -2 -19 7.23 1.11
-2 -19 4 6.35 1.62
19 -4 -2 7.49 0.98
-2 -19 -5 0.68 1.48
19 5 -2 0.45 0.89
2 -19 5 -1.24 1.76
5 2 -19 0.93 0.85
19 -5 2 2.35 1.09
5 -2 19 1.09 1.18
-5 -2 -19 0.62 0.95
-5 2 19 -0.32 1.43
19 5 -2 1.91 1.11
-2 -19 5 0.05 1.41
19 5 2 0.88 1.25
5 -2 -19 2.26 1.48
5 -2 -19 -0.15 0.84
-5 -2 19 0.31 1.44
19 -5 -2 1.53 1.01
19 -5 -2 0.09 0.82
2 -19 -5 1.88 2.43
6 2 -19 0.41 1.17
2 -19 6 1.31 2.08
19 -6 2 0.71 1.01
6 2 -19 0.15 0.94
19 6 -2 2.58 1.01
19 6 2 -0.26 1.2
6 -2 -19 1.79 0.92
19 -6 -2 2.82 1.15
2 -19 -6 2.38 2.24
7 2 -19 2.71 1.44
19 7 -2 3.25 1.04
-2 -19 -7 1.12 1.52
7 2 -19 0.71 1.14
7 2 -19 0.22 0.94
19 -7 2 -0.56 1.04
2 -19 7 1.91 1.52
-7 2 19 1.15 1.34
7 -2 -19 2.01 1.38
-7 -2 19 0.23 1.48
19 -7 -2 -0.35 1.16
7 -2 -19 1.68 1.06
19 7 2 3.2 1.11
-2 -19 7 -0.11 1.45
2 -19 -7 0.2 1.47
-2 -19 -8 16.49 2.18
8 2 -19 19.78 1.96
19 -8 2 15.49 1.96
-8 2 19 16.18 2.13
8 2 -19 20 1.91
2 -19 8 19.09 2.38
19 8 -2 15.49 1.54
8 2 -19 16.03 2.16
-2 -19 8 16.01 2.16
8 -2 -19 16.93 1.74
19 -8 -2 17.73 1.82
-8 -2 19 20.13 2.26
2 -19 -8 16.35 2.16
8 -2 -19 16.21 2.05
19 8 2 17.78 1.64
19 9 -2 -2.06 0.96
9 2 -19 -0.57 1.37
9 2 -19 -0.82 1.1
-9 2 19 0.4 1.53
2 -19 9 0.64 1.52
-2 -19 -9 0.39 2.11
9 2 -19 -1.89 1.27
19 -9 2 -0.96 1.23
9 -2 -19 -0.96 1.4
-9 -2 19 -0.32 1.61
-2 -19 9 -1.45 1.57
19 -9 -2 1.37 1.27
9 -2 -19 -0.97 0.92
19 9 2 1.75 1.06
2 -19 -9 -1.18 1.38
19 -10 2 0.9 1.3
19 10 -2 1.33 1.28
2 -19 10 -1.37 1.61
-2 -19 -10 -1.73 1.58
10 2 -19 -0.1 1.08
10 2 -19 0.07 1.3
10 2 -19 -0.17 1.45
-10 -2 19 1.12 1.8
-2 -19 10 2.01 1.67
19 -10 -2 -0.86 1.08
10 -2 -19 1.89 1.51
10 -2 -19 -1.24 0.94
10 -2 -19 1.1 1.07
2 -19 -10 0.87 1.68
19 10 2 -0.23 1.24
11 2 -19 0.7 1.23
2 -19 11 3.39 1.86
-2 -19 -11 3.38 1.83
11 2 -19 0.72 1.37
19 -11 2 -0.01 1.25
-11 -2 -19 -3.44 1.92
19 11 -2 0.67 1.69
11 -2 -19 1.59 1.15
-2 -19 11 2.2 1.86
19 11 2 0.84 1.54
-11 -2 19 0.88 1.93
2 -19 -11 1.09 1.75
19 -11 -2 2.75 1.42
11 -2 -19 1.8 1.01
2 -19 12 16.61 2.39
19 12 -2 15.88 2.39
12 2 -19 13.59 1.93
12 2 -19 15.76 2.1
-2 -19 -12 17.16 2.4
19 12 2 15.02 2.21
-2 -19 12 20.59 2.85
2 -19 -12 17.32 2.47
19 -12 -2 14 1.93
12 -2 -19 14.39 1.67
-12 -2 19 14.94 2.3
2 -19 13 4.36 2.11
-2 -19 -13 3.37 2.12
13 2 -19 4.36 1.66
19 13 -2 6.84 1.86
13 2 -19 4.74 1.52
13 -2 -19 5.34 1.43
-2 -19 13 8.48 2.2
2 -19 -13 5 2.17
13 -2 -19 5.24 1.25
-13 -2 19 10.77 2.51
19 13 2 7.46 1.97
19 -13 -2 4.35 1.61
14 2 -19 8.81 1.68
14 2 -19 7.4 1.8
2 -19 14 3.97 2.33
19 14 -2 9.06 1.57
-2 -19 -14 10.84 2.36
-2 -19 14 7.6 2.38
14 -2 -19 5.59 1.58
14 -2 -19 7.54 1.49
19 -14 -2 7.77 1.78
2 -19 -14 7.79 2.2
19 14 2 11.04 2.26
15 2 -19 11.07 1.87
19 15 -2 8.91 1.72
15 2 -19 7.45 1.47
19 15 2 7.48 2.15
19 -15 -2 7.83 1.71
15 -2 -19 7.25 1.38
15 -2 -19 9.44 1.72
16 2 -19 -0.7 1.53
19 16 -2 0.38 1.44
16 2 -19 -1.28 1.32
16 -2 -19 -2.98 1.71
16 -2 -19 0.26 1.42
19 16 2 -1.79 1.81
19 17 -2 0.18 1.99
17 2 -19 1.79 1.71
17 2 -19 -1.26 1.47
17 -2 -19 2.57 1.63
17 -2 -19 1.3 1.93
18 2 -19 2.71 1.6
19 18 -2 -3.26 2.18
18 2 -19 2.52 2.13
18 -2 -19 0.31 2.04
18 -2 -19 0.29 1.57
0 -3 -19 13.01 1.79
3 -19 0 11.56 1.73
-3 -19 0 15.87 1.92
19 0 3 17.78 1.7
19 0 -3 12 1.46
19 0 -3 16.03 1.6
0 -3 -19 15.45 1.82
0 -3 19 10.98 1.68
19 0 3 11.73 1.25
19 1 -3 1.25 1.58
1 -3 19 1.97 1.35
19 -1 3 -0.79 0.73
-3 -19 -1 1.18 1.23
3 -19 1 1.49 1.34
-1 -3 -19 2.28 0.92
-1 -3 -19 -0.78 1.3
19 1 -3 -0.55 0.88
1 3 -19 0.97 0.88
19 -1 -3 2.29 0.92
19 1 3 1.8 0.82
-1 -3 19 0.35 1.28
-3 -19 1 2.18 1.37
19 1 3 2.72 1.04
19 -1 -3 1.78 1.02
1 -3 -19 3.52 1.39
3 -19 -1 1.08 1.33
19 2 -3 24.45 2.3
-2 -3 -19 21.44 2.25
19 -2 3 22.16 1.78
3 -19 2 22.84 2.26
2 3 -19 24.12 1.73
19 2 -3 20.61 1.73
2 -3 19 26.26 2.26
-3 -19 -2 21.81 2.12
-2 -3 -19 24.94 1.68
3 -19 -2 18.88 2.05
2 -3 -19 21.86 2.3
19 2 3 30.48 1.87
-3 -19 2 25.9 2.35
2 -3 -19 24.86 1.62
19 2 3 21.03 1.54
-2 -3 19 26.64 2.21
19 -2 -3 23.43 1.52
19 -2 -3 23.33 1.79
3 -3 19 117.32 4.58
-3 -3 -19 124.64 4.01
19 -3 3 113.49 4.17
3 -19 3 117.59 4.73
19 3 -3 120.02 4.27
19 3 -3 112.74 4.13
-3 -19 -3 117.53 4.74
-3 -3 -19 111.12 4.7
19 -3 -3 121.66 4.02
3 -19 -3 117.01 4.7
-3 -19 3 118.27 4.67
-3 -3 19 119.47 4.77
19 -3 -3 116.35 4.28
3 -3 -19 109.22 4.6
3 -3 -19 124.33 4.15
-4 -3 -19 3.77 1
-3 -19 -4 1.85 1.46
19 4 -3 0.28 1.03
19 4 -3 2.59 1.04
4 -3 19 3.89 1.38
4 3 -19 2.38 1
3 -19 4 5.31 1.53
4 3 -19 4.55 1.23
19 -4 3 0.32 0.95
-4 -3 -19 2.53 1.24
4 -3 -19 2.48 0.85
-3 -19 4 2.9 1.39
3 -19 -4 3.14 1.5
-4 -3 19 2.25 1.33
19 4 3 1.52 1.86
4 -3 -19 3.69 1.5
19 -4 -3 3.77 0.86
19 -4 -3 2.2 1.1
5 3 -19 18.61 1.77
5 3 -19 19.14 1.84
19 -5 3 18.44 1.73
5 -3 19 20.85 2.12
19 5 -3 19.68 2.08
19 5 -3 20.13 1.55
-5 -3 -19 16.77 2.01
-3 -19 -5 16.06 2.29
5 -3 -19 19.43 1.6
19 -5 -3 16.32 1.33
-5 -3 19 20.57 2.4
19 5 3 20.73 1.93
19 -5 -3 17.39 1.76
-3 -19 5 19.2 2.37
-6 -3 -19 7.26 1.62
19 6 -3 2.64 1.51
6 3 -19 4.37 1.29
19 6 -3 4.9 1.11
19 -6 3 4.88 1.3
6 3 -19 6.74 1.27
6 -3 19 6.1 1.34
3 -19 6 5.64 1.62
6 -3 -19 5.56 1.11
-3 -19 6 5.08 1.9
6 -3 -19 2.37 2.34
19 6 3 3.66 1.32
3 -19 -6 2.85 1.58
19 -6 -3 4.96 1.3
7 3 -19 1.38 1.13
3 -19 7 -3.19 1.21
7 3 -19 0.65 1.34
7 3 -19 1.79 1.05
-3 -19 -7 0.62 1.32
19 -7 3 -0.06 1.09
19 7 -3 0.81 0.96
3 -19 -7 1.86 1.43
7 -3 -19 1.77 0.99
7 -3 -19 0.8 1.37
-3 -19 7 1.5 1.52
-7 -3 19 1.36 1.4
19 -7 -3 0.18 1.15
19 7 3 0.86 1.05
-8 -3 -19 69.72 3.66
8 3 -19 69.95 3.2
19 -8 3 72.89 3.33
8 3 -19 71.92 3.31
-3 -19 -8 68.9 3.5
19 8 -3 73.32 3.17
8 3 -19 76.87 3.47
-8 -3 19 75.56 3.64
8 -3 -19 76.52 3.49
3 -19 -8 76.53 3.78
19 8 3 69.65 3.09
19 -8 -3 74.15 3.3
8 -3 -19 74.69 3.18
-3 -19 8 72.68 3.77
9 3 -19 8.13 1.52
-9 -3 -19 9.26 1.85
3 -19 9 10.47 1.95
19 9 -3 12.58 1.62
9 3 -19 11.56 1.69
-3 -19 -9 7.45 1.84
9 3 -19 7.49 1.49
19 -9 3 9.59 1.51
-3 -19 9 7.14 1.71
9 -3 -19 6.73 1.34
3 -19 -9 12.18 2
-9 -3 19 9.84 1.92
19 -9 -3 7.57 1.51
9 -3 -19 8.91 1.65
19 9 3 11.75 1.58
-10 -3 -19 0.88 1.69
-3 -19 -10 -0.33 1.49
10 3 -19 0.36 1.41
10 3 -19 1.08 1.21
3 -19 10 0.37 1.72
10 3 -19 0.49 1.49
19 10 -3 0.12 1.45
10 -3 -19 2.97 1.5
-10 -3 19 0.92 1.82
3 -19 -10 2.1 1.63
-3 -19 10 2.62 1.76
19 -10 -3 1.44 1.28
10 -3 -19 2.42 1.12
19 10 3 -1.38 1.44
11 3 -19 5.29 1.61
11 3 -19 5.16 1.42
19 11 -3 7.07 1.76
-11 -3 -19 3.35 2.33
3 -19 11 6.55 1.94
-3 -19 -11 4.64 1.93
11 -3 -19 4.28 1.28
19 11 3 8.37 1.93
-11 -3 19 7.8 2.01
19 -11 -3 5.29 1.51
11 -3 -19 4.56 1.13
3 -19 -11 7.58 2.03
-3 -19 11 5.15 1.81
12 3 -19 0.21 1.25
3 -19 12 -1.66 1.93
-3 -19 -12 -0.99 1.87
12 3 -19 0.37 1.5
19 12 -3 0.22 1.63
3 -19 -12 -0.89 1.84
12 -3 -19 1.03 1.12
19 12 3 -0.88 1.62
-12 -3 19 -0.09 2.08
12 -3 -19 -1.79 1.11
-3 -19 12 1.33 2.04
19 -12 -3 -0.22 1.35
13 3 -19 38.65 2.72
19 13 -3 40.57 2.52
3 -19 13 42.89 3.47
13 3 -19 37.36 2.67
19 13 3 45.04 2.92
-3 -19 13 43.6 3.24
19 -13 -3 29.67 2.59
13 -3 -19 32.05 2.26
13 -3 -19 37.77 2.55
14 3 -19 49.39 3.13
3 -19 14 50.69 3.74
-3 -19 -14 53.16 4.24
19 14 -3 54.55 2.83
14 3 -19 47.02 2.96
14 -3 -19 49.99 2.68
-3 -19 14 52.01 4.27
14 -3 -19 43.87 2.81
19 14 3 50.96 3.42
3 -19 -14 50.46 3.8
15 3 -19 2.13 1.67
15 3 -19 -0.76 1.41
19 15 -3 0.85 1.3
19 -15 -3 2.54 1.54
19 15 3 0.39 1.92
15 -3 -19 3.05 1.42
15 -3 -19 2.58 1.87
19 16 -3 1.73 1.67
16 3 -19 1.72 1.5
16 3 -19 0.39 1.54
16 -3 -19 1.52 1.87
16 -3 -19 2.14 1.55
17 3 -19 0.22 1.98
19 17 -3 2.54 2.1
17 3 -19 0.57 1.6
17 -3 -19 -1.36 1.5
17 -3 -19 -0.93 1.84
18 3 -19 2.14 1.68
18 3 -19 -0.97 1.96
19 18 -3 1.7 2.21
3 19 -18 -2.78 1.41
18 -3 -19 2.98 1.56
18 -3 -19 -0.36 1.96
19 0 -4 0.69 0.97
19 0 4 1.55 1.23
0 -4 -19 1.42 1.24
0 -4 -19 -1 0.93
-4 -19 0 0.87 1.41
19 0 4 2.81 0.86
0 -4 19 2.88 1.45
4 -19 0 1.35 1.29
-1 -4 -19 9.24 1.74
-1 -4 -19 11.53 1.24
19 1 -4 9.19 1.23
1 -4 19 11.07 1.73
4 -19 1 10.64 1.65
1 4 -19 9.39 1.09
19 1 -4 10.07 1.61
-4 -19 -1 13.73 1.87
19 -1 -4 8.31 1.27
-4 -19 1 8.1 1.66
19 -1 -4 11.82 2.28
4 -19 -1 8.25 1.64
19 1 4 10.19 1.22
1 -4 -19 12.41 1.76
-1 -4 19 10.8 1.82
19 1 4 12 1.67
4 -19 2 9.25 1.61
2 4 -19 7.12 1.01
2 -4 19 7.84 1.58
2 4 -19 5.42 1.08
-4 -19 -2 7.67 1.47
-2 -4 -19 5.29 1.03
19 -2 4 8.85 1.23
19 2 -4 7.93 1.16
19 2 -4 5.87 1.24
-2 -4 -19 10.79 1.74
-4 -19 2 9.08 1.52
19 2 4 6.28 1.04
2 -4 -19 7.71 1.03
19 -2 -4 5.6 1.21
19 -2 -4 8 1.3
4 -19 -2 8.47 1.58
2 -4 -19 8.36 1.69
-2 -4 19 5.62 1.62
3 4 -19 1.8 0.98
-3 -4 -19 6.09 1.51
4 -19 3 2.22 1.36
-3 -4 -19 3.56 1.12
3 -4 19 4.39 1.46
19 3 -4 1.51 0.96
19 3 -4 2.9 0.99
-4 -19 -3 5.08 1.53
19 -3 4 3.18 1.13
-4 -19 3 1.5 1.32
-3 -4 19 1.9 1.32
3 -4 -19 5.17 1.58
19 3 4 1.64 1.16
19 -3 -4 3.32 1.04
3 -4 -19 3.05 0.9
4 -19 -3 4.39 1.53
19 -3 -4 3.29 1.12
19 4 -4 14.29 1.45
-4 -19 -4 12.23 1.84
4 4 -19 14.3 1.56
-4 -4 -19 11.89 1.75
4 -4 19 14.07 1.97
4 -19 4 7.95 2.5
4 4 -19 16.68 1.74
19 -4 4 14.07 1.65
19 4 -4 11.19 1.48
19 -4 -4 11.97 1.64
19 -4 -4 10.52 1.27
19 4 4 13.36 1.67
-4 -19 4 10.93 1.76
-4 -4 19 11.22 1.96
4 -4 -19 11 1.34
19 -5 4 -0.34 0.96
5 4 -19 0.86 0.94
5 4 -19 0.95 1.03
-5 -4 -19 -1.23 1.23
19 5 -4 0.58 0.9
5 -4 19 1.84 1.31
4 -19 5 0.23 1.51
-4 -19 -5 0.21 1.98
19 5 -4 -0.11 0.89
5 -4 -19 0.93 0.82
4 -19 -5 -0.59 1.72
19 5 4 -1.6 1.18
19 -5 -4 0.97 1.09
19 -5 -4 0.59 0.97
-4 -19 -6 0.73 1.67
19 6 -4 -1.51 0.83
6 4 -19 -0.19 1.11
6 4 -19 -0.18 1.01
4 -19 6 -0.03 1.44
19 -6 4 0.52 1.02
19 6 -4 0.89 0.93
-6 -4 19 2.5 1.58
6 -4 -19 2.08 1.46
4 -19 -6 0.51 1.55
19 6 4 0.07 1.29
19 -6 -4 1.83 1.24
-4 -19 6 2.25 1.36
19 -6 -4 0.18 0.98
6 -4 -19 0.35 0.83
7 4 -19 8.67 1.45
19 7 -4 9.13 1.14
-7 -4 -19 5.27 2.07
19 -7 4 8.19 1.37
-4 -19 -7 11.31 1.76
19 7 -4 9.4 1.37
4 -19 7 12.03 1.72
7 4 -19 12.38 1.53
7 -4 -19 8.89 1.24
19 -7 -4 11.31 1.59
19 7 4 12.79 1.74
7 -4 -19 9.96 1.68
4 -19 -7 12.48 1.86
-7 -4 19 11.08 1.82
-4 -19 7 13.48 1.87
8 4 -19 -0.94 1.03
-8 -4 -19 -0.67 1.55
8 4 -19 -2.27 1.14
19 8 -4 -0.7 0.98
8 4 -19 -0.19 1.29
4 -19 8 -1.09 1.51
-4 -19 -8 1.86 1.54
-4 -19 8 0.04 1.59
19 -8 -4 -0.62 1.09
19 8 4 1.78 1.18
4 -19 -8 1.13 1.55
-8 -4 19 -2.37 1.61
8 -4 -19 0.28 1.01
-9 -4 -19 1.87 1.67
9 4 -19 2.38 1.36
9 4 -19 0.78 1.19
19 9 -4 2.2 1.24
4 -19 9 3.14 1.58
9 4 -19 0.57 1.45
-4 -19 -9 1 1.68
9 -4 -19 0.25 1.48
-9 -4 19 2.37 1.66
19 9 4 1.32 1.24
4 -19 -9 2.95 1.65
19 -9 -4 1.05 1.18
9 -4 -19 0.52 1.02
-4 -19 9 -0.91 1.56
-4 -19 -10 3.06 1.59
10 4 -19 3.83 1.45
10 4 -19 4.58 1.37
-10 -4 -19 4.12 1.91
4 -19 10 4.91 1.91
10 4 -19 2.83 1.55
19 10 -4 3.81 1.7
19 10 4 3.71 1.69
-4 -19 10 3.68 1.86
4 -19 -10 1.63 1.57
19 -10 -4 3.9 1.3
10 -4 -19 4.8 1.24
10 -4 -19 3.6 1.58
-10 -4 19 5.26 1.96
11 4 -19 1.65 1.32
4 -19 11 -2.05 1.77
-4 -19 -11 -2.53 1.73
19 11 -4 0.37 1.69
11 4 -19 0.96 1.57
-4 -19 11 -0.11 1.73
-11 -4 19 -1.02 1.8
11 -4 -19 -0.98 1.08
19 11 4 -0.14 1.66
11 -4 -19 -0.87 0.9
4 -19 -11 1.93 1.92
19 -11 -4 1.8 1.35
19 12 -4 5.42 1.43
4 -19 12 7.06 2.08
12 4 -19 3.66 1.48
12 4 -19 6.48 1.79
-4 -19 -12 2.3 1.91
-4 -19 12 5.86 2.24
19 -12 -4 7.27 1.6
12 -4 -19 6.33 1.35
19 12 4 7.97 1.94
-12 -4 19 4.98 2.21
4 -19 -12 3.63 1.97
12 -4 -19 6.55 1.3
13 4 -19 0.25 1.39
4 -19 13 2.58 2.09
19 13 -4 0.08 1.2
-4 -19 -13 -1.15 2.08
13 4 -19 -0.58 1.56
13 -4 -19 -1.65 1.1
-4 -19 13 0.69 1.98
13 -4 -19 0.59 1.19
4 -19 -13 1.24 1.99
19 -13 -4 -0.41 1.31
-13 -4 19 -0.41 2.43
19 13 4 -0.71 1.82
14 4 -19 0.12 1.51
19 14 -4 0.69 1.28
14 4 -19 -1.42 1.63
14 -4 -19 -1.25 1.67
14 -4 -19 0.28 1.3
19 14 4 0.92 1.9
15 4 -19 5.69 1.89
19 15 -4 1.54 1.39
15 4 -19 5.81 1.7
15 -4 -19 4.81 1.87
15 -4 -19 3.64 1.51
19 -15 -4 5.23 1.67
16 4 -19 2.93 1.91
16 4 -19 1.8 1.63
19 16 -4 -0.33 1.7
16 -4 -19 0.61 1.8
16 -4 -19 -2.13 1.39
19 -16 -4 -1.31 1.46
17 4 -19 0.66 1.64
19 17 -4 1.16 2.31
17 4 -19 -0.92 2.06
4 19 -17 0.73 1.4
17 -4 -19 -0.11 1.41
17 -4 -19 3 2.23
18 4 -19 -1.27 1.65
4 19 -18 2.69 1.59
18 4 -19 2.86 2.1
19 18 -4 3.37 2.19
18 -4 -19 0.32 1.59
18 -4 -19 1.02 1.97
19 0 -5 1.78 1.18
19 0 -5 2.23 1.08
19 0 5 0.91 0.92
-5 -19 0 3.37 1.36
5 -19 0 3 1.36
0 5 -19 2.48 0.72
0 -5 19 0.8 1.43
0 -5 -19 1.96 1.28
0 -5 -19 1.14 0.94
1 -5 19 7.14 1.6
5 -19 1 7.82 1.55
1 5 -19 7.82 0.93
19 1 -5 7.82 1.39
-5 -19 -1 5.99 1.47
-1 -5 -19 6.13 1.04
-1 -5 -19 7.16 1.59
19 1 -5 6.77 1.17
19 -1 -5 5.88 1.19
5 -19 -1 8.63 1.46
-5 -19 1 6.42 2.2
-1 5 -19 7.73 0.88
19 1 5 6.56 0.98
-1 -5 19 9.01 1.71
1 -5 -19 6.36 1.67
19 -1 -5 7.41 1.43
-2 -5 -19 -0.87 1.29
5 -19 2 -1.13 1.24
-5 -19 -2 1.9 1.46
2 -5 19 0.67 1.23
19 2 -5 0.58 1
19 2 -5 1.97 0.96
2 5 -19 0.4 0.75
5 -19 -2 1.29 1.38
2 -5 -19 -0.47 2.09
19 2 5 0.67 0.84
-5 -19 2 -0.5 1.25
19 -2 -5 0.45 0.94
2 -5 -19 0.46 0.77
-2 -5 19 -1.12 1.48
19 -2 -5 0.89 1.23
5 -19 3 18.42 2.84
19 3 -5 17.8 1.63
-3 -5 -19 16.73 2.02
3 5 -19 19.36 1.74
3 -5 19 19.88 2.35
-5 -19 -3 18.74 2.07
19 3 -5 18.37 1.62
3 -5 -19 19.34 1.47
19 3 5 21.21 2.73
19 -3 -5 20.25 2.66
5 -19 -3 16.73 2.87
-5 -19 3 16.86 2.27
19 -3 -5 18.59 1.66
19 4 -5 0.49 0.89
-4 -5 -19 -2.29 2.09
4 5 -19 0.4 0.91
-5 -19 -4 -2.49 1.26
19 4 -5 0.08 0.88
4 5 -19 -0.9 1.01
5 -19 -4 -1.7 2.23
19 4 5 0.55 1.29
19 -4 -5 0.52 0.98
-5 -19 4 -0.27 1.5
4 -5 -19 0.46 0.79
19 -4 -5 1.41 1.43
-4 -5 19 0.17 1.61
4 -5 -19 -1.57 1.58
5 -19 5 11.34 1.76
5 5 -19 6.91 1.28
19 5 -5 9.23 1.21
5 5 -19 11.92 1.51
19 5 -5 9.21 1.3
5 -19 -5 11.54 1.83
5 -5 -19 9.17 1.21
19 -5 -5 8.54 1.42
19 -5 -5 10.38 1.59
-5 -5 19 11.95 1.8
5 -5 -19 11.64 1.72
19 5 5 12.96 1.61
6 -5 19 5.85 2.3
-6 -5 -19 4.22 1.66
19 6 -5 5.85 1.06
6 5 -19 4.06 1.29
5 -19 6 3.46 1.36
19 6 -5 5.34 1.11
6 5 -19 4.51 1.23
-5 -19 -6 3.14 1.51
19 -6 -5 5.49 1.34
6 -5 -19 3.69 1.04
-5 -19 6 2.1 1.58
19 6 5 6.03 1.45
-6 -5 19 3.45 1.65
5 -19 -6 6.51 1.54
19 -6 -5 5.09 1.38
6 -5 -19 3.99 1.53
-7 -5 -19 -0.04 1.45
19 7 -5 -0.08 0.88
19 7 -5 -1.23 0.9
7 5 -19 -0.12 1.17
7 5 -19 -0.13 1.02
5 19 -7 0.67 1.13
-5 -19 -7 1.44 1.58
7 -5 19 -1.13 1.23
5 -19 7 -0.21 1.46
19 7 5 -1.55 1.29
5 -19 -7 0.3 1.51
7 -5 -19 1.13 0.95
7 -5 -19 -2.26 1.38
-5 -19 7 -1.47 1.45
19 -7 -5 1.16 1.19
19 -7 -5 1.03 1.28
-7 -5 19 1.42 1.49
-8 -5 -19 -2.11 1.57
8 5 -19 0.46 1.07
-5 -19 -8 -0.46 1.46
8 5 -19 -0.83 1.41
8 5 -19 -0.19 1.31
19 8 -5 0.05 1.06
5 -19 8 0.85 1.48
19 -8 -5 0.12 1.16
8 -5 -19 2.04 1.45
-8 -5 19 -0.65 1.46
-5 -19 8 3.36 1.6
8 -5 -19 0.97 0.92
5 -19 -8 0.49 1.47
19 8 5 -0.58 1.18
9 5 -19 3.46 1.54
5 -19 9 3.49 1.72
19 9 -5 1.07 1.47
9 5 -19 2.68 1.47
9 5 -19 1.81 1.18
-9 -5 -19 -2.07 1.68
-5 -19 -9 0.87 1.58
19 9 5 1.43 1.26
19 -9 -5 2.14 1.33
9 -5 -19 2.81 1.57
9 -5 -19 1.42 1
-9 -5 19 2.36 1.71
-5 -19 9 -2.17 1.67
5 -19 -9 3.81 1.67
5 -19 10 4.91 1.84
10 5 -19 3.22 1.51
-5 -19 -10 5.72 1.87
10 5 -19 -0.34 1.56
19 10 -5 1.85 1.65
10 5 -19 2.8 1.26
-10 -5 -19 2.76 1.97
-5 -19 10 3.78 1.71
-10 -5 19 3.17 2
5 -19 -10 -0.8 1.81
19 10 5 3.28 1.72
19 -10 -5 1.03 1.36
10 -5 -19 2.18 1.14
10 -5 -19 3.67 1.65
5 -19 11 7.88 1.98
11 5 -19 4.47 1.64
19 11 -5 6.06 1.61
11 5 -19 5.48 1.52
-5 -19 -11 5.54 2.09
19 -11 -5 5.96 1.59
-5 -19 11 9.13 2.08
5 -19 -11 7.33 1.98
19 11 5 5.76 1.77
-11 -5 19 6.67 2.19
11 -5 -19 6.76 1.34
5 -19 12 3.94 1.93
12 5 -19 3 1.49
19 12 -5 3.82 1.39
-5 -19 -12 2.32 2.09
12 5 -19 4.26 2.21
12 -5 -19 2.95 1.35
19 12 5 2.96 1.82
5 -19 -12 7.26 2.06
-5 -19 12 5.41 2.13
12 -5 -19 3.8 1.35
19 -12 -5 5.34 1.57
-12 -5 19 -1.11 2.23
5 -19 13 3.34 2.12
13 5 -19 2.59 1.8
19 13 -5 2.39 1.35
13 5 -19 3.16 1.53
-5 -19 -13 2.27 2.22
-5 -19 13 7.29 2.31
5 -19 -13 5.01 2.13
19 -13 -5 3.58 1.5
13 -5 -19 1.75 1.39
-13 -5 19 1.82 2.62
13 -5 -19 3.26 1.76
14 5 -19 5.65 1.89
14 5 -19 4.85 1.53
19 14 -5 6.56 1.43
14 -5 -19 5.93 1.95
19 -14 -5 2.15 1.54
14 -5 -19 3.64 1.41
15 5 -19 1.37 1.56
15 5 -19 -0.43 1.74
5 19 -15 -0.77 1.35
19 15 -5 3.58 1.47
19 -15 -5 1.09 1.43
15 -5 -19 0.09 1.35
15 -5 -19 2.77 1.87
5 19 -16 6.29 1.77
19 16 -5 11.21 2.17
16 5 -19 8.06 2.09
16 -5 -19 7.53 2.13
17 5 -19 2.45 1.62
5 19 -17 -0.78 1.46
17 -5 -19 2.15 1.52
5 19 -18 0.23 1.65
18 5 -19 -0.32 1.93
18 5 -19 -1.27 1.61
19 18 -5 0.91 2.24
18 -5 -19 5.24 2.04
18 -5 -19 2.53 1.59
-6 -19 0 12.22 1.79
0 -6 -19 11.76 1.51
19 0 -6 11.11 1.51
0 6 -19 12.04 1.18
6 -19 0 7.65 2.65
19 0 -6 14.12 1.66
-6 -19 -1 15.01 1.87
19 1 -6 12.11 1.36
1 6 -19 15.08 1.26
6 -19 1 13.73 2.97
19 1 -6 15.23 1.58
19 -1 -6 12.66 1.65
19 1 6 11.79 1.31
-6 -19 1 12.15 1.91
6 -19 -1 10.16 2.59
19 -1 -6 14.81 1.81
19 2 -6 2.24 1.05
19 2 -6 0.73 0.84
2 6 -19 1.08 0.83
-6 -19 -2 3.3 1.47
2 -6 -19 2.44 0.79
2 -6 -19 0.8 1.64
-2 -6 19 1.74 1.67
19 -2 -6 1.56 1.06
19 2 6 1.84 0.94
19 -2 -6 1.87 1.14
-6 -19 2 2.09 1.37
-6 -19 -3 7.36 1.7
3 6 -19 4.54 1.07
3 -6 19 4.9 1.84
3 6 -19 4.22 1.56
19 3 -6 4.04 1.06
19 3 -6 4.88 1.16
-6 -19 3 6.74 1.73
3 -6 -19 4.49 1.58
6 -19 -3 1.98 2.36
3 -6 -19 5.02 0.94
19 -3 -6 7.26 1.33
19 -3 -6 4.98 1.29
-3 -6 19 6.89 1.76
6 -19 4 -1.46 1.22
19 4 -6 1.62 0.96
-4 -6 -19 1.69 1.4
19 4 -6 -1.04 0.89
6 19 -4 0.22 1.11
4 -6 19 1.7 1.65
4 6 -19 -0.41 1.06
4 6 -19 1.26 0.95
-4 -6 19 0.37 1.53
4 -6 -19 1.98 1.46
19 -4 -6 0.59 1.14
6 -19 -4 0.28 1.41
19 -4 -6 0.35 1.13
19 4 6 0.18 1.22
4 -6 -19 0.59 0.79
-6 -19 -5 0.97 1.84
6 19 -5 6.73 1.24
19 5 -6 3.94 1.08
5 6 -19 4.46 1.28
5 6 -19 4.58 1.23
6 -19 5 3.55 1.59
-5 -6 -19 4.53 1.64
19 5 -6 2.86 0.99
5 -6 19 5.47 1.41
19 -5 -6 4.61 1.23
-5 -6 19 6.3 1.83
5 -6 -19 3.27 1.41
19 5 6 4.66 1.45
19 -5 -6 5.4 1.3
-6 -19 5 6.53 1.69
5 -6 -19 2.77 0.93
6 -19 -5 3.36 1.51
6 -19 6 3.84 1.53
6 19 -6 5.36 1.27
6 6 -19 2.68 1.16
-6 -6 -19 2.23 1.54
6 -6 19 4.12 1.42
19 6 -6 2.55 1.01
6 6 -19 3.43 1.24
-6 -19 -6 2.18 1.68
19 6 -6 4.3 1.03
6 -6 -19 4.89 1.05
6 -19 -6 4.13 1.6
19 6 6 6.24 1.53
19 -6 -6 3.17 1.25
-6 -6 19 4.16 1.82
-6 -19 6 7.2 1.63
6 -6 -19 4.71 1.55
19 -6 -6 4.35 1.3
19 7 -6 1.64 1.02
6 19 -7 2.19 1.18
7 6 -19 1.32 1.07
6 -19 7 3.66 1.53
-6 -19 -7 1.46 1.47
7 6 -19 2.82 1.29
19 7 -6 0.88 0.94
-7 -6 -19 -1.99 1.62
7 -6 19 2.29 1.35
-7 -6 19 2.98 1.71
7 -6 -19 1.03 1.54
7 -6 -19 0.32 0.95
6 -19 -7 1.16 1.52
19 -7 -6 4.92 1.31
19 -7 -6 2.58 1.28
-6 -19 7 1.7 1.58
19 7 6 2.9 1.49
19 8 -6 0.78 0.96
6 -19 8 -0.32 1.52
8 6 -19 0.33 1.24
6 19 -8 1.45 1.23
19 8 -6 -1.14 1.27
8 -6 19 2.3 1.38
8 6 -19 -0.62 1.11
-6 -19 -8 1.79 1.72
-8 -6 -19 2.67 1.68
8 -6 -19 2.29 1.54
19 -8 -6 1.99 1.74
6 -19 -8 0.7 1.58
8 -6 -19 0.19 0.9
-8 -6 19 -1.73 1.63
-6 -19 8 -1.98 1.54
19 -8 -6 -0.61 1.2
19 8 6 -1.1 1.32
9 6 -19 -0.27 1.36
19 9 -6 -1.13 1.52
9 6 -19 0.75 1.22
-6 -19 -9 -2.87 1.72
9 6 -19 0.5 1.56
-9 -6 -19 -1.7 1.75
6 -19 9 5.42 1.79
6 -19 -9 3.62 1.66
19 -9 -6 -0.13 1.3
-9 -6 19 -1.24 1.84
9 -6 -19 1.12 1.61
-6 -19 9 0.13 1.63
19 9 6 0.43 1.54
9 -6 -19 -0.31 0.97
-10 -6 -19 7.75 2.19
10 6 -19 13.67 1.82
10 6 -19 8.03 1.51
-6 -19 -10 6.51 2.05
19 10 -6 10.17 1.84
6 -19 10 8.49 1.91
19 -10 -6 9.27 1.75
10 -6 -19 9.89 1.89
10 -6 -19 8.71 1.35
-6 -19 10 11.08 2.19
6 -19 -10 7.1 1.94
-10 -6 19 12.69 2.25
19 10 6 10.61 1.99
-6 -19 -11 4.88 2.07
6 -19 11 9.35 1.98
11 6 -19 8.85 1.75
11 6 -19 9.75 1.68
19 11 -6 8.9 1.5
19 -11 -6 8.48 1.67
11 -6 -19 6.71 1.39
-11 -6 19 11.11 2.31
-6 -19 11 10.01 2.01
6 -19 -11 8.76 2.12
6 -19 12 6.25 2.03
19 12 -6 2.25 1.3
12 6 -19 2.51 1.39
12 6 -19 3.96 1.74
-6 -19 -12 3.34 1.93
-6 -19 12 0.66 2.17
6 -19 -12 1.68 2.06
12 -6 -19 0.71 1.21
12 -6 -19 6.29 1.79
-12 -6 19 6 2.47
19 -12 -6 4.08 1.52
13 6 -19 4.7 1.75
13 6 -19 -1.54 1.26
6 -19 13 -1.67 2.33
6 19 -13 1.95 1.3
19 13 -6 0.84 1.24
6 -19 -13 6.99 2.55
19 -13 -6 1.13 1.49
-6 -19 13 2.43 2.47
13 -6 -19 1.26 1.81
13 -6 -19 0.36 1.28
14 6 -19 3.4 1.88
19 14 -6 4.25 1.43
14 6 -19 2.92 1.51
6 19 -14 1.77 1.96
14 -6 -19 4.38 1.51
14 -6 -19 0.6 1.83
19 -14 -6 6.07 1.69
15 6 -19 -1.39 1.73
6 19 -15 0.28 1.53
19 15 -6 1.63 1.61
15 6 -19 -1.97 1.43
19 -15 -6 -2.82 1.35
15 -6 -19 2.05 1.91
15 -6 -19 -1.49 1.35
6 19 -16 8.09 1.75
16 6 -19 4.08 1.77
19 16 -6 5.23 2.19
16 6 -19 2.93 1.9
16 -6 -19 4.89 1.5
19 -16 -6 6.59 2.1
16 -6 -19 2.59 2.03
19 17 -6 3.75 2.23
6 19 -17 5.18 1.72
17 6 -19 4.03 1.72
17 6 -19 3.86 2.27
19 -17 -6 0.73 1.59
17 -6 -19 3.04 2.09
17 -6 -19 0.79 1.44
18 6 -19 -0.58 1.95
6 19 -18 -1.59 1.63
18 6 -19 -1.57 1.54
19 18 -6 1.06 2.16
18 -6 -19 1.02 1.54
18 -6 -19 3.38 2.11
-7 -19 0 2.36 1.58
0 -7 19 6.31 1.71
0 -7 -19 3.98 1.52
7 -19 0 3.56 2.39
19 0 -7 3.76 1.14
19 0 -7 3.83 1.09
19 1 -7 3.94 1.06
7 -19 1 4.68 2.43
-1 -7 -19 3.75 1.48
1 7 -19 4.09 0.84
-7 -19 -1 2.98 1.57
19 1 -7 3.52 1.16
1 -7 19 5.22 1.58
19 -1 -7 2.99 1.23
-7 -19 1 5.84 1.72
19 -1 -7 3.35 1.11
1 -7 -19 4.57 1.46
-1 -7 19 2.56 1.58
7 -19 -1 3.16 1.64
-7 -19 -2 1.03 1.43
2 -7 19 2.19 1.49
-2 -7 -19 2.07 1.56
19 2 -7 1.59 0.95
7 -19 2 3.1 1.6
19 2 -7 1.49 0.94
2 7 -19 1.21 1
-2 -7 19 0.91 1.61
7 -19 -2 3.4 1.42
2 -7 -19 2.48 0.8
19 -2 -7 1.22 1.09
2 -7 -19 0.54 1.45
19 -2 -7 -0.1 1.23
-7 -19 2 1.27 2.11
19 3 -7 1.43 0.92
-3 -7 -19 -1.84 1.39
7 19 -3 -0.45 1.02
3 7 -19 1.72 1.15
7 -19 3 0.21 1.27
19 3 -7 0.67 0.94
3 -7 19 -2.23 1.35
7 -19 -3 1.8 1.38
19 -3 -7 0.94 1.08
19 -3 -7 0.98 1.22
3 -7 -19 0.91 0.83
-3 -7 19 1.73 1.39
3 -7 -19 0.64 1.34
7 19 -4 11.41 1.41
7 -19 4 9.85 1.7
-7 -19 -4 3.94 1.97
19 4 -7 9.99 1.3
4 -7 19 10.06 1.73
19 4 -7 10.26 1.35
4 7 -19 12.14 1.7
4 7 -19 10.61 1.42
-4 -7 -19 7.67 1.72
7 -19 -4 11.83 1.77
19 -4 -7 10.5 1.54
-7 -19 4 11.69 1.79
4 -7 -19 10.32 1.14
19 -4 -7 10.77 1.47
-4 -7 19 14.07 1.99
4 -7 -19 7.75 1.71
-5 -7 -19 0.85 1.39
19 5 -7 -0.59 0.93
5 7 -19 -0.22 1.05
-7 -19 -5 -0.8 1.55
19 5 -7 -1.04 0.91
7 19 -5 0.47 1.1
5 -7 19 -1.03 1.28
5 7 -19 -0.06 0.99
7 -19 5 -0.09 1.38
-7 -19 5 -0.88 1.52
7 -19 -5 0.68 1.47
19 -5 -7 -0.29 1.22
19 -5 -7 0.78 1.17
5 -7 -19 -1.57 1.29
7 -19 6 5.38 1.47
-6 -7 -19 2.79 1.71
6 7 -19 1.45 1.19
6 -7 19 0.54 1.45
7 19 -6 1.6 1.2
19 6 -7 2.07 1.03
19 6 -7 1.94 1.03
-7 -19 -6 2.48 1.72
6 7 -19 -0.22 1.21
19 -6 -7 1.08 1.16
7 -19 -6 2.79 1.53
6 -7 -19 1.22 0.91
-7 -19 6 2.66 1.45
19 -6 -7 3.26 1.31
-6 -7 19 0.38 1.71
6 -7 -19 -0.29 1.52
19 7 -7 7.47 1.48
7 19 -7 4.51 1.34
7 -19 7 8.45 1.7
7 -7 19 8.02 1.56
7 7 -19 7.59 1.38
-7 -19 -7 12.32 1.97
-7 -7 -19 8.18 1.94
19 7 -7 8 1.24
7 7 -19 11.89 1.59
7 -19 -7 7.56 1.72
-7 -7 19 8.11 1.85
7 -7 -19 8.23 1.73
19 -7 -7 6.19 1.4
7 -7 -19 5.25 1.09
19 -7 -7 9.85 1.58
7 19 -8 2.11 1.25
19 8 -7 3.12 1.09
8 7 -19 3.04 1.4
8 7 -19 2.51 1.26
8 -7 19 6.61 1.53
7 -19 8 5.13 1.66
-8 -7 -19 7.71 2.05
19 8 -7 2.94 1.64
-7 -19 -8 8.26 1.95
8 -7 -19 1.44 1.01
8 -7 -19 4.3 1.66
7 -19 -8 0.73 1.68
19 -8 -7 3.08 1.33
-7 -19 8 6.69 1.92
19 -8 -7 1.51 1.39
-8 -7 19 7.22 2.02
-7 -19 -9 0.64 1.81
19 9 -7 1.59 1.62
9 7 -19 -1.64 1.36
7 19 -9 -1.32 1.18
7 19 -9 1.75 1.05
19 9 -7 -0.17 1.14
-9 -7 -19 -4.45 1.92
7 -19 9 0.69 1.66
9 7 -19 1.91 1.24
9 7 -19 0.85 1.6
19 -9 -7 1.33 1.35
-9 -7 19 -1.46 1.7
9 -7 -19 -0.68 1.65
7 -19 -9 1.03 1.79
9 -7 -19 -0.85 0.92
-7 -19 9 -1.86 1.65
7 -19 10 2.53 1.79
-7 -19 -10 2.86 2.09
10 7 -19 2.57 1.47
19 10 -7 1.32 1.21
7 19 -10 0.99 1.13
10 7 -19 -0.23 1.3
-10 -7 -19 0.49 2.08
19 -10 -7 3.35 1.42
10 -7 -19 1.29 1.05
10 -7 -19 1 1.76
-10 -7 19 1.42 2.12
7 -19 -10 3.62 1.89
-7 -19 10 0.41 2.05
-7 -19 -11 -0.9 1.93
11 7 -19 0.23 1.31
7 -19 11 -3.81 1.8
7 19 -11 0.4 1.18
19 11 -7 1.23 1.27
11 7 -19 0.26 1.48
-11 -7 19 1.33 2.2
7 -19 -11 3.22 1.95
-7 -19 11 4 2.11
11 -7 -19 0.05 1.09
19 -11 -7 1.49 1.33
7 -19 12 6.94 2.14
-7 -19 -12 5.28 2.31
12 7 -19 5.58 1.5
12 7 -19 5.31 1.86
7 19 -12 8.81 1.44
19 12 -7 9.51 1.55
19 -12 -7 5.72 1.53
-7 -19 12 7.27 2.29
7 -19 -12 11.08 2.26
-12 -7 19 5.66 2.53
12 -7 -19 6.3 1.35
7 19 -13 0.56 1.34
13 7 -19 0.65 1.69
13 7 -19 0.63 1.39
19 13 -7 -1.5 1.19
13 -7 -19 -1.06 1.24
19 -13 -7 1.05 1.52
13 -7 -19 0.37 1.8
7 19 -14 0.69 1.54
19 14 -7 0.42 1.36
14 7 -19 -0.43 1.71
14 7 -19 0.79 1.48
19 -14 -7 -1.2 1.37
14 -7 -19 2.86 1.91
15 7 -19 4.07 1.96
15 7 -19 5.81 1.91
7 19 -15 5.4 2.4
19 15 -7 4.78 2.05
15 -7 -19 8.5 2.1
15 -7 -19 4.04 2.31
19 -15 -7 5.13 1.79
16 7 -19 0 3.01
7 19 -16 2.49 1.59
19 16 -7 -1.33 2.23
16 7 -19 -0.8 1.6
16 -7 -19 0.76 1.5
19 -16 -7 0.23 1.61
16 -7 -19 -3.06 2.71
17 7 -19 1.84 1.63
17 7 -19 -2.7 1.88
7 19 -17 0.33 1.62
19 17 -7 -1.62 1.99
19 -17 -7 0.15 1.6
17 -7 -19 2.16 2.03
17 -7 -19 -1.42 1.55
18 7 -19 -1.95 1.63
18 7 -19 -2.58 1.95
19 18 -7 7.32 2.28
7 19 -18 2.05 1.74
18 -7 -19 -0.37 2.09
18 -7 -19 0.56 1.55
0 -8 -19 18.25 2.13
19 0 -8 15.61 1.7
19 0 -8 14.58 1.61
0 -8 19 17.95 2.18
8 -19 0 17.23 2.09
1 -8 19 0.48 1.54
19 1 -8 -0.28 1.02
19 1 -8 1.24 0.97
-1 -8 -19 -0.86 1.48
8 -19 1 1.97 1.3
19 -1 -8 0.66 0.9
-1 -8 19 0.04 1.36
8 -19 -1 -0.73 1.31
1 -8 -19 1.09 1.45
19 -1 -8 -0.91 0.95
19 2 -8 15.3 1.61
8 -19 2 14.91 2.08
2 -8 19 20.93 2.35
-2 -8 -19 13.58 2.03
19 2 -8 15.97 1.7
8 19 -2 15.98 1.95
-2 -8 19 19.86 2.23
8 -19 -2 19.46 2.04
-8 -19 2 15.96 2.16
19 -2 -8 18.95 1.79
2 -8 -19 15.33 2.11
19 -2 -8 20.1 2.01
3 8 -19 68.33 2.94
19 3 -8 68.61 3.02
19 3 -8 70.97 3.05
8 -19 3 75.68 3.4
-3 -8 -19 65.44 3.44
-8 -19 -3 70.49 3.64
19 -3 -8 71.89 3.22
-3 -8 19 66.86 3.63
3 -8 -19 71.91 3.47
19 -3 -8 73.08 3.21
8 -19 -3 74.51 3.37
3 -8 -19 64.3 2.64
8 -19 4 0.08 1.31
4 -8 19 -0.83 1.41
4 8 -19 0.29 1.04
4 8 -19 0.35 1.14
-8 -19 -4 5.14 1.74
19 4 -8 -0.01 1.01
8 19 -4 1.18 1.21
19 4 -8 1.36 0.88
-4 -8 -19 -1.33 1.59
-8 -19 4 -0.45 1.61
4 -8 -19 1.73 1.57
4 -8 -19 -0.71 0.82
19 -4 -8 0.07 1.18
8 -19 -4 0.73 1.38
19 -4 -8 -0.35 1.21
-4 -8 19 -1.5 1.59
19 5 -8 1.01 1.03
5 8 -19 1.56 1.15
8 -19 5 2.61 1.45
-8 -19 -5 -3.16 1.68
5 8 -19 -0.43 0.98
8 19 -5 -0.47 1.2
5 -8 19 1.8 1.41
19 5 -8 1 1.01
-5 -8 -19 -1.02 1.6
5 -8 -19 0.42 0.84
8 -19 -5 -0.66 1.4
5 -8 -19 4.35 1.67
-5 -8 19 1.58 1.77
-8 -19 5 -0.54 1.51
19 -5 -8 -0.82 1.11
19 -5 -8 1.57 1.3
6 8 -19 1.67 1.27
19 6 -8 -0.53 1.14
-6 -8 -19 -0.02 1.62
6 8 -19 0.91 1.14
8 -19 6 -1.07 1.39
19 6 -8 -1.14 1.01
8 19 -6 -1.96 1.11
-8 -19 -6 0.23 1.68
19 -6 -8 -0.9 1.16
-6 -8 19 -0.38 1.54
19 -6 -8 0.21 1.26
-8 -19 6 -1.18 1.47
8 -19 -6 -0.17 1.47
6 -8 -19 1.32 1.56
6 -8 -19 1.63 0.92
19 7 -8 3.12 1.11
19 7 -8 2.99 1.55
-8 -19 -7 0.54 1.62
8 -19 7 3.92 1.64
7 -8 19 1.52 1.54
7 8 -19 3.68 1.35
8 19 -7 3.77 1.29
7 8 -19 3.42 1.29
-7 -8 -19 3.61 1.82
7 -8 -19 1.09 0.96
7 -8 -19 2.65 1.64
-8 -19 7 4.31 1.85
8 -19 -7 4.64 1.68
-7 -8 19 6.7 1.95
19 -7 -8 2.11 1.35
19 -7 -8 3.81 1.43
8 -19 8 68.16 3.43
8 -8 19 65.28 3.32
8 19 -8 67.91 3.05
-8 -19 -8 69.03 3.93
-8 -8 -19 67.34 3.85
19 8 -8 64.93 2.94
19 8 -8 69.27 3.5
8 -8 -19 74.7 3.72
8 -19 -8 74.98 3.68
19 -8 -8 72.86 3.28
8 -8 -19 70.23 2.96
-8 -19 8 70.3 3.81
-8 -8 19 77.24 4.07
19 -8 -8 68.82 3.35
-9 -8 -19 7.18 2.18
19 9 -8 9.34 1.62
9 8 -19 12.21 1.75
9 8 -19 8.01 1.5
8 19 -9 10.07 1.55
-8 -19 -9 7.49 2.16
19 9 -8 11 1.35
8 -19 9 7.73 1.89
19 -9 -8 8.72 1.75
9 -8 -19 12.65 1.97
8 -19 -9 8.69 1.99
9 -8 -19 7.27 1.32
-8 -19 9 10.37 2.18
-9 -8 19 13.16 2.31
19 -9 -8 9.72 1.72
8 19 -10 2.82 1.34
10 8 -19 0.34 1.25
-10 -8 -19 8.08 2.42
8 -19 10 2.14 1.81
-8 -19 -10 -0.25 2.07
8 19 -10 1.77 1.13
19 10 -8 2.31 1.19
10 8 -19 4.28 1.94
-10 -8 19 5.18 2.24
10 -8 -19 1.84 1.39
-8 -19 10 0.06 2.02
19 -10 -8 -0.94 1.23
10 -8 -19 1.84 1.9
8 -19 -10 3.51 1.98
19 11 -8 6.27 1.41
11 8 -19 8.22 1.8
8 19 -11 5.92 1.3
11 8 -19 4.97 1.49
-8 -19 -11 3.51 2.31
8 -19 11 6.17 2.03
-11 -8 19 2.98 2.28
19 -11 -8 6.3 1.64
11 -8 -19 6.7 1.33
8 -19 -11 9.42 2.21
-8 -19 11 4.64 2.04
12 8 -19 6.35 1.67
19 12 -8 5.92 1.48
12 8 -19 5.24 1.81
8 19 -12 6.62 1.4
12 -8 -19 2.95 1.3
19 -12 -8 5.32 1.55
8 -19 -12 10.8 3.76
8 19 -13 27.6 2.28
19 13 -8 26.2 2.21
13 8 -19 24.62 2.73
19 -13 -8 27.95 2.49
13 -8 -19 22.81 2.13
13 -8 -19 26.1 2.82
14 8 -19 30.47 2.69
14 8 -19 29.37 2.91
19 14 -8 26.22 2.65
19 -14 -8 32.62 2.59
14 -8 -19 28.08 2.83
14 -8 -19 26.74 2.34
15 8 -19 2.19 1.94
8 19 -15 2.94 1.61
19 15 -8 2.01 2.09
15 8 -19 4.47 2.5
15 -8 -19 1.02 1.52
15 -8 -19 1.92 1.95
19 -15 -8 0.33 2.37
8 19 -16 2.07 1.62
19 16 -8 3.12 2.61
16 8 -19 2.27 2.26
16 8 -19 2.5 1.63
16 -8 -19 4.99 1.54
19 -16 -8 4.63 1.69
16 -8 -19 1.14 2.15
19 17 -8 -1.47 2.1
17 8 -19 0.58 2.07
8 19 -17 -3.58 1.63
17 8 -19 1 1.79
17 -8 -19 0.15 1.51
19 -17 -8 -0.74 1.54
17 -8 -19 -0.57 2.06
18 8 -19 1.3 1.73
18 8 -19 4.54 2.21
19 18 -8 7.01 2.23
8 19 -18 5.81 1.76
18 -8 -19 2.25 1.5
18 -8 -19 2.67 2.21
19 0 -9 3.78 1.25
0 -9 19 4.9 1.68
0 -9 -19 4.18 1.6
19 0 -9 4.84 1.19
-9 -19 0 5.11 1.82
9 -19 0 5.05 1.43
-9 -19 -1 -0.98 1.66
9 19 -1 0.34 1.31
-1 -9 -19 3.03 1.51
19 1 -9 1.36 1.12
19 1 -9 2.14 1.01
1 -9 19 4.36 1.69
9 -19 1 -0.36 1.37
1 -9 -19 1.64 1.59
-1 -9 19 -0.7 1.45
9 -19 -1 -0.64 1.3
19 -1 -9 1.6 1.12
19 -1 -9 -0.12 0.88
-9 -19 1 2.51 1.73
-2 -9 -19 3.02 1.92
2 -9 19 -0.19 1.51
9 -19 2 -0.85 1.35
19 2 -9 0.62 1.05
-9 -19 -2 0.59 1.63
9 19 -2 -0.11 1.18
19 2 -9 0.09 0.88
-2 -9 19 -0.98 1.51
-9 -19 2 -1.8 1.6
2 -9 -19 -0.1 1.51
19 -2 -9 0.08 1.15
19 -2 -9 1.45 1.07
9 -19 -2 -0.3 1.36
19 3 -9 10.98 1.48
9 19 -3 12.09 1.61
3 -9 19 9.55 1.8
-9 -19 -3 12.03 1.95
3 9 -19 11.59 1.46
9 -19 3 12.3 1.7
-3 -9 -19 10.65 1.93
19 3 -9 9.1 1.34
19 -3 -9 11.07 1.57
-3 -9 19 10.21 1.94
19 -3 -9 9.78 1.6
-9 -19 3 8.5 1.85
9 -19 -3 9.14 1.67
3 -9 -19 9.25 1.86
-9 -19 -4 2.37 1.6
4 9 -19 1.74 1.15
9 19 -4 1.31 1.31
19 4 -9 1 1.12
4 9 -19 0.35 1.03
-4 -9 -19 4.71 1.63
4 -9 19 2.02 1.51
9 -19 4 3.58 1.47
19 4 -9 2.45 1.28
4 -9 -19 1.46 0.87
9 -19 -4 -0.52 1.43
-9 -19 4 2.85 1.64
-4 -9 19 0.26 1.66
19 -4 -9 2.79 1.37
19 -4 -9 1.53 1.23
4 -9 -19 2 1.7
9 -19 5 0.72 1.41
5 9 -19 2.66 1.23
9 19 -5 3.15 1.36
19 5 -9 1.08 1.05
-9 -19 -5 2.44 1.63
19 5 -9 1.66 1.26
-5 -9 -19 0 1.6
5 -9 19 -1.34 1.52
5 9 -19 1.41 1.16
-9 -19 5 3.4 1.78
5 -9 -19 3.26 1.72
19 -5 -9 0.62 1.31
9 -19 -5 1.38 1.5
19 -5 -9 0.74 1.24
5 -9 -19 2.45 0.9
-5 -9 19 2.35 1.82
19 6 -9 -1.01 1.07
6 9 -19 1.53 1.27
9 19 -6 -0.84 1.29
6 9 -19 1.04 1.25
9 -19 6 0.95 1.55
-9 -19 -6 3.3 1.82
-6 -9 -19 -0.54 1.76
6 -9 19 1.01 1.5
19 6 -9 -1.22 1.43
-9 -19 6 1.23 1.75
19 -6 -9 -0.33 1.18
6 -9 -19 -1.43 0.88
-6 -9 19 -1.26 1.5
19 -6 -9 2.4 1.41
9 -19 -6 4.68 1.67
6 -9 -19 1.69 1.68
7 9 -19 -0.8 1.09
9 19 -7 1.6 1.29
19 7 -9 0.65 1.06
7 -9 19 1.28 1.62
9 -19 7 1.91 1.6
19 7 -9 1.49 1.56
7 9 -19 0.86 1.33
-7 -9 -19 -0.3 1.76
19 -7 -9 2.22 1.43
-9 -19 7 0.5 1.67
9 -19 -7 -0.17 1.58
7 -9 -19 2.4 1.75
-7 -9 19 -3.07 1.78
7 -9 -19 -0.04 0.93
19 -7 -9 -1.3 1.21
9 19 -8 9.12 1.56
19 8 -9 6.98 1.32
8 9 -19 10.33 1.61
19 8 -9 6.4 1.71
8 9 -19 12.25 1.71
-9 -19 -8 8.56 2.21
-8 -9 -19 11.31 2.26
9 -19 8 8.85 1.91
9 -19 -8 8.81 1.97
19 -8 -9 9.4 1.67
8 -9 -19 9.68 1.26
-8 -9 19 9.69 2.25
-9 -19 8 10.31 2.15
19 -8 -9 12.35 1.78
8 -9 -19 8.77 1.97
9 -19 9 2.92 1.81
9 9 -19 2.58 1.5
-9 -9 -19 1.8 2.21
9 9 -19 -0.65 1.14
19 9 -9 0.21 1.18
-9 -19 -9 5.34 2.18
19 9 -9 0.72 1.18
9 19 -9 1.12 1.37
-9 -9 19 1.16 2.06
19 -9 -9 1.12 1.42
9 -19 -9 -0.54 1.85
19 -9 -9 0.77 1.6
9 -9 -19 0.38 1.91
-9 -19 9 5.33 2.19
9 -9 -19 -1.13 1.02
19 10 -9 0.57 1.16
10 9 -19 -0.69 1.16
19 10 -9 1.49 1.34
10 9 -19 -2.67 1.45
9 19 -10 3.31 1.46
-9 -19 -10 -2.19 2.2
19 -10 -9 -0.63 1.35
-9 -19 10 0.13 2.08
9 -19 -10 -2.47 1.94
-10 -9 19 -0.11 2.31
10 -9 -19 2.26 2.02
19 11 -9 2.99 1.26
11 9 -19 1.25 1.4
11 9 -19 3.59 1.65
-9 -19 -11 -0.45 2.72
9 19 -11 2.88 1.51
9 -19 -11 0.26 2.14
-9 -19 11 6.28 2.72
19 -11 -9 0.73 1.43
11 -9 -19 1.2 1.21
-11 -9 19 0.54 2.61
12 9 -19 12.85 1.89
12 9 -19 12.14 2.08
19 12 -9 14.39 1.88
9 19 -12 12.47 1.64
12 -9 -19 13.94 1.91
19 -12 -9 8.9 1.82
13 9 -19 5.11 1.61
9 19 -13 2.63 1.73
13 9 -19 7.23 1.9
19 13 -9 6.68 1.69
13 -9 -19 6.39 1.53
13 -9 -19 5.94 1.96
19 -13 -9 2.95 1.47
14 9 -19 7.17 2
9 19 -14 3.7 1.62
19 14 -9 7.91 2.17
19 -14 -9 4.76 2.45
14 -9 -19 7.94 2.08
9 19 -15 6.63 1.67
19 15 -9 3.74 2.49
15 9 -19 1.75 1.65
19 -15 -9 7.64 1.74
15 -9 -19 4.42 1.55
9 19 -16 1.07 1.73
16 9 -19 2.54 1.68
19 16 -9 3.01 2.1
16 9 -19 0.8 2.05
16 -9 -19 1.63 2.03
19 -16 -9 -0.24 1.49
16 -9 -19 0.77 1.46
17 9 -19 -0.07 1.74
9 19 -17 -1.79 1.73
19 17 -9 3.75 2.19
17 9 -19 -1.86 1.97
17 -9 -19 2.33 2.24
17 -9 -19 -2.41 1.43
19 -17 -9 -0.42 1.59
18 9 -19 -0.95 1.74
18 9 -19 1.99 2.27
19 18 -9 2.64 2.34
9 19 -18 -2.59 2.86
18 -9 -19 2.39 2.2
18 -9 -19 -2.62 1.53
-10 -19 0 2.44 1.78
19 0 -10 0.59 1.13
19 0 -10 0.12 1.08
10 -19 0 2.62 1.44
0 -10 19 -2.47 1.56
0 -10 -19 0.05 1.61
10 19 -1 -0.13 1.36
1 -10 19 -1.24 1.64
19 1 -10 2.64 1.2
-1 -10 -19 1.42 1.65
10 -19 1 -1.5 1.42
19 1 -10 -0.56 1.12
-10 -19 -1 2.69 1.86
19 -1 -10 1.68 1.23
-1 -10 19 0.22 1.65
1 -10 -19 -1.04 1.56
19 -1 -10 0.79 1.15
10 -19 -1 0.92 1.38
-10 -19 1 -4.06 1.71
-10 -19 -2 -0.29 1.77
-2 -10 -19 -0.23 1.69
19 2 -10 -1.54 1.22
10 -19 2 1.44 1.43
10 19 -2 0.31 1.35
2 -10 19 3.32 1.72
19 2 -10 -1.89 1.06
19 -2 -10 0.95 1.1
10 -19 -2 1.33 1.44
-2 -10 19 2.68 1.72
19 -2 -10 -0.94 1.14
2 -10 -19 -1.87 1.69
-10 -19 2 -2.84 1.7
-10 -19 -3 -2.68 1.76
3 -10 19 -0.23 1.66
-3 -10 -19 -2.59 1.4
19 3 -10 -0.19 1.1
10 -19 3 -0.57 1.48
19 3 -10 -0.23 1.3
10 19 -3 1.27 1.41
19 -3 -10 -1.28 1.08
3 -10 -19 1.11 1.73
-3 -10 19 -3 1.46
19 -3 -10 -0.16 1.36
10 -19 -3 0.29 1.48
-10 -19 3 3.87 1.75
10 -19 4 2.15 1.53
4 -10 19 7.19 1.84
4 10 -19 3.11 1.18
19 4 -10 2.83 1.18
-4 -10 -19 1.13 1.76
19 4 -10 4.94 1.55
10 19 -4 6.22 1.52
-10 -19 -4 1.76 1.91
19 -4 -10 5.9 1.43
-4 -10 19 6.87 1.84
-10 -19 4 6.64 1.85
10 -19 -4 7.62 1.64
4 -10 -19 6.04 1.88
19 -4 -10 6.15 1.58
10 -19 5 4.14 1.66
19 5 -10 4.66 1.64
19 5 -10 1.94 1.21
5 10 -19 -0.05 1.15
-10 -19 -5 6.55 2.01
5 -10 19 0.37 1.67
10 19 -5 3.04 1.44
-5 -10 -19 1.41 1.81
5 10 -19 2.81 1.26
19 -5 -10 3.29 1.37
19 -5 -10 3.53 1.51
5 -10 -19 1.58 1.47
10 -19 -5 4.2 1.63
-10 -19 5 0.79 1.72
-5 -10 19 3.08 1.68
5 -10 -19 3.79 1.77
6 -10 19 10.26 1.88
19 6 -10 7.73 1.78
6 10 -19 9.18 1.48
-6 -10 -19 4.07 2.02
6 10 -19 11.8 1.63
10 -19 6 10.07 1.82
10 19 -6 9.92 1.73
19 6 -10 6.1 1.38
-10 -19 -6 7.49 2.12
-10 -19 6 4.89 1.99
6 -10 -19 7.81 1.98
19 -6 -10 11.79 1.74
-6 -10 19 8.06 2.05
10 -19 -6 7.28 1.75
6 -10 -19 7.39 1.12
19 -6 -10 6.64 1.54
19 7 -10 1.04 1.19
-10 -19 -7 -4.47 2.01
7 10 -19 1.09 1.28
19 7 -10 -1.48 1.49
7 10 -19 0.34 1.3
10 19 -7 1.14 1.38
7 -10 19 2.6 1.78
-7 -10 -19 -1.33 1.95
-10 -19 7 -0.64 1.94
-7 -10 19 1.42 1.77
7 -10 -19 1.99 1.04
19 -7 -10 -0.91 1.32
19 -7 -10 1.37 1.51
7 -10 -19 2.75 1.8
10 -19 -7 4.04 1.74
-8 -10 -19 -0.42 2.03
19 8 -10 2.64 1.18
8 10 -19 4.13 1.56
10 19 -8 1.22 1.42
-10 -19 -8 -2.18 2.27
8 10 -19 1.85 1.23
19 8 -10 1.7 1.27
19 -8 -10 2.14 1.96
8 -10 -19 2.05 1.11
-10 -19 8 -3.2 2.04
19 -8 -10 1.38 1.38
8 -10 -19 -0.26 1.92
10 -19 -8 2.51 1.89
-8 -10 19 -0.42 1.85
9 10 -19 -0.8 1.25
9 10 -19 0.23 1.43
-9 -10 -19 1.38 2.28
19 9 -10 -1.19 1.25
10 19 -9 0 1.47
19 9 -10 -1.08 1.08
19 -9 -10 -0.26 1.66
10 -19 -9 0.76 2.03
9 -10 -19 -1.89 1.06
-9 -10 19 -1.42 2.14
-10 -19 9 5.71 2.39
19 -9 -10 1.74 1.55
9 -10 -19 2.55 2.03
10 19 -10 0.97 1.49
19 10 -10 -1.28 1.29
19 10 -10 0.54 1.24
10 10 -19 0.95 1.35
10 10 -19 1.14 1.54
10 -10 -19 -1.59 3.19
10 -10 -19 -0.35 1.17
-10 -19 10 -2.41 2.34
-10 -10 19 0.7 2.42
10 -19 -10 2.57 2.54
19 -10 -10 0.75 1.46
19 -10 -10 -0.09 1.77
10 19 -11 1.29 1.56
19 11 -10 -1.53 1.22
11 10 -19 -0.57 1.4
11 10 -19 1.83 1.67
19 -11 -10 0.28 1.35
11 -10 -19 2.9 1.36
12 10 -19 3.97 1.65
12 10 -19 6.27 1.93
19 12 -10 7.16 1.57
12 -10 -19 5.18 1.43
19 -12 -10 5.57 1.7
19 13 -10 -0.78 1.9
13 10 -19 -0.53 1.46
13 10 -19 -0.39 1.83
19 -13 -10 0 1.47
13 -10 -19 -0.26 1.9
14 10 -19 2.43 2.43
14 10 -19 3.13 1.63
19 14 -10 4.77 2.18
19 -14 -10 2.14 1.54
14 -10 -19 -1.23 1.96
14 -10 -19 -1.21 1.38
15 10 -19 3.69 1.73
15 10 -19 4.77 2.04
19 15 -10 2.15 2.17
15 -10 -19 3.13 2.14
19 -15 -10 3.11 1.62
15 -10 -19 0.58 1.47
16 10 -19 0.77 1.67
19 16 -10 1.33 2.13
16 10 -19 3.57 2.08
16 -10 -19 1.2 2.11
19 -16 -10 -3.23 1.38
16 -10 -19 0.84 1.55
19 17 -10 0.03 2.26
17 10 -19 1.34 2.15
17 10 -19 1.7 1.81
19 -17 -10 1.04 1.73
17 -10 -19 -0.57 2.17
17 -10 -19 1.46 1.68
18 10 -19 4.26 2.67
18 10 -19 -1.68 2.38
19 18 -10 0.77 2.13
18 -10 -19 3.37 2.25
18 -10 -19 4.85 1.85
-11 -19 0 2.58 1.99
19 0 -11 5.29 1.4
0 -11 -19 6.44 1.94
11 19 0 5.03 1.66
0 -11 19 7.45 1.92
19 0 -11 5.81 1.6
-11 -19 -1 -1.79 1.92
-1 -11 -19 3.57 1.84
19 1 -11 2.44 1.49
11 19 -1 0.1 1.51
19 1 -11 2.93 1.2
1 -11 19 2.07 1.61
19 -1 -11 0.43 1.22
19 -1 -11 1.38 1.45
1 -11 -19 1.09 1.67
-1 -11 19 1.65 1.79
-11 -19 1 3.03 1.96
11 19 -2 1.35 1.55
2 -11 19 1.43 1.81
19 2 -11 0 1.47
-2 -11 -19 1.84 1.85
19 2 -11 0.61 1.21
-11 -19 -2 -0.62 2.22
-2 -11 19 6.97 1.81
19 -2 -11 2.44 1.48
2 -11 -19 2.09 1.8
-11 -19 2 -0.72 1.91
19 -2 -11 -0.43 1.17
19 3 -11 6.39 1.65
11 19 -3 5.84 1.65
3 -11 19 9.3 1.99
19 3 -11 5.67 1.37
-3 -11 -19 6.58 2
19 -3 -11 7.77 1.52
-3 -11 19 4.05 1.97
19 -3 -11 6.21 1.67
3 -11 -19 9.85 2.06
-11 -19 3 7.56 2.14
19 4 -11 0.75 1.45
11 19 -4 -2.69 1.34
-4 -11 -19 1.76 1.71
4 -11 19 0.72 1.81
19 4 -11 -1.87 1.12
4 -11 -19 1.86 1.79
19 -4 -11 -0.96 1.39
-4 -11 19 -1.77 1.77
-11 -19 4 3.19 2.03
19 -4 -11 0.1 1.27
5 11 -19 5.23 1.32
19 5 -11 7.53 1.45
19 5 -11 8.17 1.81
5 -11 19 6.65 1.79
11 19 -5 7.19 1.68
-5 -11 -19 6.95 1.99
19 -5 -11 7.69 1.67
19 -5 -11 6.76 1.49
-11 -19 5 8.04 2.18
5 -11 -19 6.75 2.01
-5 -11 19 6.4 2.14
6 11 -19 8.98 1.55
6 11 -19 9.13 1.58
-6 -11 -19 11.09 2.24
6 -11 19 9.49 2.03
19 6 -11 8.96 1.91
11 19 -6 12.51 1.84
19 6 -11 8.47 1.52
6 -11 -19 8.91 2.11
-11 -19 6 8.01 2.43
19 -6 -11 10.48 1.76
19 -6 -11 10.57 1.78
-6 -11 19 8.38 2.11
19 7 -11 0.51 1.26
19 7 -11 0.37 1.14
7 11 -19 2.53 1.55
7 11 -19 0.89 1.17
7 -11 19 -0.45 1.87
11 19 -7 0.78 1.54
-7 -11 -19 4.19 1.98
19 -7 -11 -1.76 1.96
7 -11 -19 -1.14 1.88
-7 -11 19 -1.66 2.04
-11 -19 7 2.62 2.25
7 -11 -19 -1 1.07
19 -7 -11 -2.21 1.31
19 8 -11 7.71 1.47
8 11 -19 4.26 1.6
11 19 -8 6.99 1.7
19 8 -11 4.46 1.32
-8 -11 -19 6.68 2.29
8 11 -19 6.02 1.5
-11 -19 8 5.67 2.56
8 -11 -19 4.9 2.17
8 -11 -19 6.09 1.25
-8 -11 19 1.99 2.25
19 -8 -11 6.61 1.78
19 -8 -11 7.03 1.61
19 9 -11 2.94 1.38
19 9 -11 1.59 1.29
9 11 -19 1.84 1.43
9 11 -19 1.49 1.61
11 19 -9 0.94 1.56
-9 -11 -19 -4.52 2.82
-11 -19 9 1.23 2.74
19 -9 -11 0.15 1.73
19 -9 -11 1.43 1.56
9 -11 -19 4.69 2.41
9 -11 -19 2.5 1.21
-9 -11 19 1.53 2.32
19 10 -11 -0.45 1.27
10 11 -19 -0.61 1.39
11 19 -10 2.26 1.61
10 11 -19 -0.41 1.63
19 10 -11 1.24 1.41
19 -10 -11 0.16 1.48
10 -11 -19 -0.29 1.25
19 -10 -11 2.72 1.87
19 11 -11 5.01 1.44
11 11 -19 1.36 1.47
11 19 -11 8.03 1.78
11 11 -19 5.33 1.87
19 -11 -11 1.83 1.48
11 -11 -19 5.2 1.41
12 11 -19 5.08 1.64
19 12 -11 0.44 1.76
11 19 -12 3.21 1.72
12 11 -19 2.75 1.8
19 -12 -11 3.38 1.66
13 11 -19 5.69 2.6
13 11 -19 3.13 1.68
19 13 -11 1.84 2.09
13 -11 -19 2.23 1.38
19 -13 -11 3.73 1.86
13 -11 -19 5.36 2.13
14 11 -19 6.48 1.76
14 11 -19 4.7 2.07
14 -11 -19 7.02 1.62
19 -14 -11 5.29 1.73
14 -11 -19 7.14 2.46
15 11 -19 2.79 2.18
15 11 -19 0.75 1.73
19 15 -11 -2.92 2.09
19 -15 -11 0.76 1.52
15 -11 -19 0.67 2.15
15 -11 -19 0.66 1.54
16 11 -19 2.92 1.76
16 11 -19 5.14 2.27
19 16 -11 10.24 2.33
16 -11 -19 7.89 1.78
16 -11 -19 4.2 2.19
19 -16 -11 2.42 1.58
17 11 -19 3.23 1.85
19 17 -11 1.23 2.16
17 11 -19 0.62 2.17
19 -17 -11 3.2 1.76
17 -11 -19 3.04 2.27
17 -11 -19 0.32 1.77
19 18 -11 -0.03 2.11
18 11 -19 -4.12 2.07
0 -12 19 4.74 1.98
0 -12 -19 1.3 1.65
12 19 0 1.14 1.68
19 0 -12 4.09 1.7
19 0 -12 4.39 1.36
1 -12 19 20.21 2.73
19 1 -12 20.08 2.08
12 19 -1 16.79 2.28
19 1 -12 17.21 2.35
-1 -12 -19 18.98 2.32
19 -1 -12 17.59 2.08
1 -12 -19 17.69 2.37
-1 -12 19 21.51 2.85
19 -1 -12 19.03 2.35
12 19 -2 19.36 2.39
19 2 -12 12.01 1.97
2 -12 19 12.92 2.17
-2 -12 -19 14.57 2.31
19 2 -12 15.48 2
19 -2 -12 16.47 1.98
19 -2 -12 9.84 1.64
2 -12 -19 16 2.2
-2 -12 19 15.77 2.33
19 3 -12 -0.89 1.21
12 19 -3 -0.79 1.57
3 -12 19 -2.62 1.89
-3 -12 -19 1.66 1.92
19 3 -12 0.02 1.52
-3 -12 19 1.41 1.87
19 -3 -12 -0.22 1.53
3 -12 -19 -1.28 1.81
19 -3 -12 1.28 1.27
19 4 -12 6.99 1.8
19 4 -12 7.22 1.49
-4 -12 -19 2.56 2.04
4 -12 19 9.86 2.05
12 19 -4 6.38 1.76
19 -4 -12 5.37 1.55
19 -4 -12 8.1 1.73
4 -12 -19 5.13 1.96
-4 -12 19 4.52 1.95
19 5 -12 6.85 1.43
12 19 -5 4.1 1.68
5 -12 19 3.34 2.02
-5 -12 -19 8.52 2.3
19 5 -12 7.18 1.8
5 12 -19 3.11 1.27
19 -5 -12 2.76 1.61
-5 -12 19 4.28 2.15
5 -12 -19 8.35 2.07
19 -5 -12 3.33 1.49
19 6 -12 3.29 1.54
19 6 -12 2.66 1.73
-6 -12 -19 5.95 2.15
6 -12 19 6.3 1.97
6 12 -19 3.9 1.38
12 19 -6 4.97 1.78
19 -6 -12 5.22 1.74
6 -12 -19 3.84 2.12
-6 -12 19 3.25 2.05
19 -6 -12 2.74 1.5
7 12 -19 7.14 1.53
19 7 -12 7.32 1.42
19 7 -12 8.24 1.57
7 -12 19 11.7 2.18
12 19 -7 8.66 1.8
-7 -12 -19 6.48 2.36
19 -7 -12 6.57 1.81
-7 -12 19 1.38 2.23
7 -12 -19 7.36 2.26
19 -7 -12 5.76 1.64
19 8 -12 4.63 1.4
19 8 -12 8.79 1.57
12 19 -8 6.92 1.74
8 12 -19 7.95 1.65
8 12 -19 6.58 1.67
19 -8 -12 3.71 1.54
19 -8 -12 5.54 1.82
12 19 -9 12.7 1.89
9 12 -19 13.82 1.95
19 9 -12 17.02 2.18
19 9 -12 12.62 1.74
9 12 -19 9.36 1.71
19 -9 -12 15.52 2.12
9 -12 -19 10.81 1.81
12 -19 -9 14.43 1.89
19 -9 -12 13.85 1.87
12 19 -10 5.42 1.78
10 12 -19 3.16 1.77
19 10 -12 7.66 1.7
10 12 -19 3.15 1.48
19 10 -12 6.93 1.57
19 -10 -12 9.1 1.75
10 -12 -19 6.54 1.46
19 -10 -12 5.53 2
12 -19 -10 5.74 1.45
11 12 -19 1.32 1.55
19 11 -12 0.21 1.58
11 12 -19 3.1 1.81
12 19 -11 4 1.78
19 -11 -12 1.66 1.64
12 -19 -11 3.44 1.75
12 19 -12 9.56 3.38
19 12 -12 14.61 2.46
12 12 -19 8.17 2.11
12 -12 -19 9.76 1.61
19 -12 -12 9.38 2.12
13 12 -19 2.33 1.59
13 12 -19 1.86 2.03
19 -13 -12 2.38 1.51
13 -12 -19 1.21 3.49
13 -12 -19 3.63 1.6
14 12 -19 -1.62 1.99
14 12 -19 3.58 1.75
19 14 -12 -0.26 2.08
19 -14 -12 0.89 1.58
14 -12 -19 4.57 1.72
14 -12 -19 0.53 2.07
15 12 -19 4.44 1.77
19 15 -12 4.41 2.23
15 12 -19 5.63 2.28
15 -12 -19 10.79 2.36
15 -12 -19 9.3 1.91
19 -15 -12 5.62 1.68
16 12 -19 3.64 1.82
19 16 -12 5.71 2.31
16 12 -19 2.73 2.2
16 -12 -19 5.77 2.3
16 -12 -19 2.39 1.75
19 -16 -12 -2.21 1.54
19 17 -12 0.89 2.15
17 12 -19 4.7 2.23
17 -12 -19 2.33 2.57
19 0 -13 8.86 1.65
0 -13 -19 7.25 2.23
0 -13 19 10.44 2.22
13 19 0 9.52 1.97
19 0 -13 13.27 1.98
19 1 -13 2.39 1.63
13 19 -1 0.3 1.88
-1 -13 -19 -2.01 1.98
19 1 -13 -0.83 1.29
1 -13 19 2.02 1.97
1 -13 -19 -1.98 1.89
-1 -13 19 1.1 1.96
19 -1 -13 2.69 1.4
19 -1 -13 -0.49 1.47
-2 -13 -19 8.24 2.2
19 2 -13 8.38 1.79
2 -13 19 4.22 2.04
13 19 -2 3.84 1.88
19 2 -13 5.63 1.48
19 -2 -13 1.72 1.36
-2 -13 19 8.27 2.14
19 -2 -13 5.88 1.79
2 -13 -19 8.39 2.22
19 3 -13 36.4 2.56
-3 -13 -19 36.69 3.35
3 -13 19 32.85 3.18
13 19 -3 40.03 2.97
19 3 -13 32.15 2.79
3 -13 -19 33.22 3.22
19 -3 -13 39.25 2.65
19 -3 -13 39.33 2.75
19 4 -13 -1.52 1.33
4 -13 19 -1.02 1.99
13 19 -4 1.36 1.74
-4 -13 -19 -0.44 1.89
19 4 -13 -0.65 1.68
4 -13 -19 -0.88 2.01
-4 -13 19 3.3 2.08
19 -4 -13 -1.01 1.23
19 -4 -13 -1.92 1.59
5 13 -19 2.86 1.4
13 19 -5 4.63 1.79
19 5 -13 4.06 1.69
5 -13 19 5.15 2.22
-5 -13 -19 6.75 2.17
19 5 -13 4.62 1.5
5 -13 -19 7.87 2.1
19 -5 -13 3.66 1.76
19 -5 -13 3.7 1.6
-5 -13 19 1.92 2.22
6 13 -19 3.62 1.47
19 6 -13 1.27 1.1
6 -13 19 0.07 2.96
13 19 -6 2.08 1.81
19 6 -13 2.81 1.41
-6 -13 -19 5.07 3.02
6 -13 -19 -0.64 2.16
19 -6 -13 1.13 1.44
19 -6 -13 1 1.68
-6 -13 19 2.94 2.29
19 7 -13 -0.59 1.12
7 13 -19 -1.44 1.29
13 19 -7 1.3 1.68
19 7 -13 -2.53 1.34
19 -7 -13 -1.32 1.69
19 -7 -13 -1.06 1.28
19 8 -13 26.45 2.07
8 13 -19 22.94 2.32
19 8 -13 24.14 2.36
19 -8 -13 21.33 2.32
19 -8 -13 26.64 2.76
9 13 -19 3 2.63
13 19 -9 5.48 1.92
19 9 -13 6.48 1.67
9 13 -19 4.95 1.54
19 9 -13 4.71 1.51
19 -9 -13 4.16 1.58
19 -9 -13 6.56 1.97
13 -19 -9 5.85 1.52
13 19 -10 -0.18 1.72
19 10 -13 0.4 2.36
10 13 -19 -0.78 1.45
10 13 -19 -0.2 2.06
19 10 -13 -1.31 1.65
19 -10 -13 0.82 1.56
19 -10 -13 0.01 1.98
13 -19 -10 -3 1.73
11 13 -19 4.59 1.87
19 11 -13 4.47 1.77
11 13 -19 2.53 3.31
19 11 -13 6.25 2.13
19 -11 -13 2.96 2.47
13 -19 -11 3.45 1.51
19 -11 -13 1.44 1.87
13 19 -12 3.4 1.92
12 13 -19 1.54 1.99
12 13 -19 4.37 1.65
12 -13 -19 3.39 1.9
13 13 -19 4.74 2.12
19 13 -13 8.88 2.2
13 13 -19 7.99 1.79
13 19 -13 11.94 2.04
13 -13 -19 7.16 2.3
13 -13 -19 6.04 1.76
19 -13 -13 7.68 1.78
14 13 -19 11.01 1.98
19 14 -13 12.74 2.38
14 13 -19 10.37 2.32
14 -13 -19 16.21 2.56
14 -13 -19 8.69 1.88
19 -14 -13 15.75 2.02
15 13 -19 -1.05 1.75
19 15 -13 -2.26 2.08
15 13 -19 1.11 2.1
19 -15 -13 0.37 1.6
15 -13 -19 2.29 2.04
15 -13 -19 5.84 2.27
19 16 -13 2.07 2.18
16 13 -19 3.54 2.13
16 -13 -19 -0.52 2.23
19 0 -14 10.87 1.72
19 0 -14 11.89 2.08
0 -14 19 10.27 2.28
14 19 0 11.97 2.12
0 -14 -19 15.17 2.42
1 -14 19 1.4 2.08
19 1 -14 -0.72 1.38
14 19 -1 1.98 1.79
19 1 -14 1.74 1.72
-1 -14 19 0.38 2.12
1 -14 -19 -0.35 1.96
19 -1 -14 1.67 1.47
19 -1 -14 2.31 1.72
2 -14 19 8.32 2.28
14 19 -2 11.89 2.12
19 2 -14 10.29 1.72
-2 -14 -19 8.64 2.28
19 2 -14 8.27 1.96
19 -2 -14 10.32 1.9
-2 -14 19 8.85 2.26
19 -2 -14 4.82 1.49
2 -14 -19 9.15 2.38
14 19 -3 52.25 3.3
3 -14 19 56.46 4.34
-3 -14 -19 50.05 4.25
19 3 -14 49.59 3.16
19 -3 -14 48.06 3.14
-3 -14 19 51.65 3.93
14 19 -4 -2.81 1.67
19 4 -14 -0.6 1.77
4 14 -19 -2.7 1.13
19 4 -14 2.01 1.51
19 -4 -14 -1.57 1.37
19 -4 -14 -0.36 1.75
5 14 -19 2.86 1.47
19 5 -14 6.92 1.62
14 19 -5 5.5 1.88
19 5 -14 4.83 1.33
19 -5 -14 4.4 1.93
19 -5 -14 2.86 1.55
14 19 -6 6.72 1.9
19 6 -14 3.03 1.3
19 6 -14 5.44 1.61
6 14 -19 6.62 1.62
19 -6 -14 3.29 1.49
19 -6 -14 3.36 1.91
14 19 -7 0.32 1.84
19 7 -14 0.68 1.22
7 14 -19 1.45 1.49
19 7 -14 1.68 1.47
19 -7 -14 0.24 1.76
19 -7 -14 -0.07 1.4
19 8 -14 29.73 2.42
19 8 -14 27.35 2.72
14 19 -8 28.15 2.81
19 -8 -14 31.15 2.93
19 -8 -14 28.88 2.52
14 19 -9 6.32 1.99
19 9 -14 8.69 2.18
19 9 -14 6.03 1.87
19 -9 -14 5.67 2.51
19 -9 -14 10.11 2.19
19 10 -14 1.15 1.61
10 14 -19 0.44 1.43
19 10 -14 -3.88 1.94
19 -10 -14 0.78 2.36
14 -19 -10 1.17 1.49
19 -10 -14 2.45 1.65
11 14 -19 6.14 1.71
19 11 -14 4.5 1.79
14 19 -11 1.68 1.95
19 -11 -14 3.25 1.62
14 -19 -11 2.35 1.59
19 -11 -14 4.27 2.22
12 14 -19 8.82 2.57
19 12 -14 2.23 2.19
14 19 -12 0.17 2
12 14 -19 -0.21 1.59
19 -12 -14 2.39 1.6
13 14 -19 10.06 1.93
19 13 -14 12.14 2.35
13 14 -19 18.1 2.33
14 19 -13 13.12 2.22
13 -14 -19 12.59 2.44
19 -13 -14 10.21 2.1
19 14 -14 19.16 2.59
14 14 -19 19.14 2.61
14 14 -19 25.52 2.76
19 -14 -14 18.21 2.49
14 -14 -19 19.15 2.7
19 15 -14 -2.13 2.12
15 14 -19 -3 2.96
19 -15 -14 1.34 1.79
15 -14 -19 3.95 2.25
19 16 -14 2.98 2.79
15 19 0 -0.31 2
19 0 -15 0.49 1.39
19 0 -15 1.45 1.82
19 1 -15 7.78 1.73
19 1 -15 8.8 2.07
15 19 -1 10.24 2.09
19 -1 -15 10.26 2.04
19 -1 -15 11.06 1.75
19 2 -15 6.79 2.06
15 19 -2 7.23 2.05
19 2 -15 7.59 1.74
19 -2 -15 11.81 2.03
19 -2 -15 8.82 1.69
19 3 -15 0.88 1.76
19 3 -15 0.51 1.52
15 19 -3 2.61 1.94
19 -3 -15 -0.4 1.77
19 -3 -15 0.43 1.4
4 15 -19 3.2 1.43
19 4 -15 4.33 1.58
19 4 -15 1.94 1.41
15 19 -4 3.9 2.04
19 -4 -15 1.23 1.51
19 -4 -15 4.99 1.97
19 5 -15 2.11 1.51
5 15 -19 -0.83 1.34
15 19 -5 2.12 1.89
19 5 -15 -1.2 1.14
19 -5 -15 1.57 1.87
19 -5 -15 0.34 1.49
19 6 -15 -0.64 1.35
6 15 -19 1.13 1.51
15 19 -6 3.06 2
19 6 -15 1.02 1.58
19 -6 -15 -1.45 1.84
19 -6 -15 -0.59 1.47
15 19 -7 1.88 1.86
19 7 -15 2.06 1.67
7 15 -19 4.85 2.09
19 -7 -15 2.92 1.61
19 -7 -15 5.83 1.97
8 15 -19 1.76 1.69
19 8 -15 1.59 1.84
15 19 -8 2.88 1.96
19 8 -15 1.39 1.57
19 -8 -15 0.76 2.42
19 -8 -15 0.58 1.89
9 15 -19 4.43 1.58
15 19 -9 3.53 3.28
19 9 -15 5.81 1.69
19 9 -15 6.28 2.37
19 -9 -15 3.73 1.59
19 -9 -15 3.37 2.14
19 10 -15 0.29 2.17
15 19 -10 4.71 2.02
10 15 -19 4.54 1.61
19 10 -15 7.12 1.79
19 -10 -15 6.27 2.22
19 -10 -15 6.48 1.68
15 19 -11 -0.13 1.98
19 11 -15 -0.71 1.8
19 11 -15 -1.48 1.98
11 15 -19 -1.61 1.58
19 -11 -15 -0.3 2.25
19 -11 -15 -3.82 1.56
12 15 -19 4.46 1.75
19 12 -15 8.83 2.44
15 19 -12 11.8 2.22
19 -12 -15 5.69 2.01
19 13 -15 3.98 2.14
15 19 -13 2.69 1.93
13 15 -19 2.33 1.79
13 -15 -19 -0.35 2.25
19 -13 -15 -0.91 1.52
19 14 -15 0.67 2.09
14 -15 -19 -2.07 2.26
19 -14 -15 3.19 1.81
19 15 -15 2.45 2.23
19 0 -16 4.37 1.89
19 0 -16 2.6 1.56
19 1 -16 1.85 1.84
16 19 -1 3.42 1.98
19 1 -16 1.18 1.62
19 -1 -16 0.8 1.44
19 -1 -16 3.49 1.85
16 19 -2 2.53 1.97
19 2 -16 -1.26 1.49
19 2 -16 0.89 1.85
19 -2 -16 1.9 1.9
19 -2 -16 -2.41 1.35
19 3 -16 2.05 1.63
19 3 -16 2.6 1.72
16 19 -3 3.17 2.05
19 -3 -16 2.83 1.6
19 -3 -16 2.41 1.89
19 4 -16 1.04 1.79
16 19 -4 3.68 2
19 4 -16 3.01 1.6
4 16 -19 -0.17 1.37
19 -4 -16 2.29 1.53
19 -4 -16 1.48 1.89
19 5 -16 7.52 1.82
16 19 -5 12.55 2.33
19 -5 -16 10.29 2.88
19 -5 -16 12.71 2.17
16 19 -6 3.69 2.09
19 6 -16 6.46 1.94
19 6 -16 7.73 1.81
6 16 -19 6.03 1.74
19 -6 -16 7.13 2.24
19 -6 -16 2.62 2.12
7 16 -19 1.89 1.56
19 7 -16 0 1.6
19 7 -16 -1.56 2.06
19 -7 -16 -1.38 1.45
16 19 -8 2.3 2.08
19 8 -16 2.2 3.33
8 16 -19 -0.4 1.52
19 8 -16 0 1.62
19 -8 -16 0.11 1.48
19 -8 -16 1.18 2.06
19 9 -16 2.3 1.7
16 19 -9 5.31 2.15
19 9 -16 1.15 2.12
9 16 -19 1.3 1.56
19 -9 -16 -0.81 2.05
19 -9 -16 -1.3 1.48
19 10 -16 1.88 1.8
19 10 -16 0.28 2.16
16 19 -10 1.3 2.04
10 16 -19 -0.33 1.53
19 -10 -16 2.48 1.66
19 -10 -16 4.13 2.24
19 11 -16 3.58 2.25
11 16 -19 5.61 1.83
19 11 -16 4.32 1.98
16 19 -11 7.49 2.12
19 -11 -16 2.27 2.36
19 -11 -16 4.34 1.73
12 16 -19 -0.38 1.72
19 12 -16 1.65 2.19
16 19 -12 3.56 2.07
12 -16 -19 5.76 2.31
19 -12 -16 -0.06 1.61
19 13 -16 1.3 2.91
19 -13 -16 -2.36 1.69
13 -16 -19 -0.87 2.41
19 14 -16 3.68 2.28
19 0 -17 3.33 1.96
19 1 -17 3.04 1.98
17 19 -1 -0.9 2
19 1 -17 3.58 2.54
19 -1 -17 0.15 1.96
19 -1 -17 4.33 2.61
19 2 -17 -0.95 1.98
19 2 -17 -1.2 1.68
17 19 -2 -0.68 2.05
19 -2 -17 1.01 1.92
19 -2 -17 -0.25 1.88
19 3 -17 -0.42 1.57
17 19 -3 -0.84 2.01
19 3 -17 1.46 2
19 -3 -17 0.09 1.5
19 -3 -17 -0.3 1.99
19 4 -17 2.2 2.08
19 4 -17 1.12 1.59
17 19 -4 3.02 2.66
4 17 -19 0.87 1.4
19 -4 -17 -0.08 1.5
5 17 -19 2.97 1.64
19 5 -17 3.71 1.74
19 -5 -17 -0.91 2.67
19 -5 -17 3.86 1.63
19 6 -17 3.09 1.75
19 6 -17 1.1 2.21
17 19 -6 3.29 2.21
6 17 -19 5.29 1.66
19 -6 -17 6.29 1.7
19 -6 -17 2.94 2.11
19 7 -17 0.23 2.04
7 17 -19 0.22 1.52
19 7 -17 1.46 1.65
17 19 -7 4.3 2.09
19 -7 -17 0.69 1.49
19 -7 -17 3.39 2.13
19 8 -17 2.11 2.15
17 19 -8 0.49 2.13
19 8 -17 0.92 1.69
8 17 -19 0.82 1.6
19 -8 -17 -0.23 2.07
19 -8 -17 -1.25 1.47
19 9 -17 2.11 1.83
9 17 -19 1.99 1.65
19 9 -17 0.73 2.08
17 19 -9 1.25 2.13
19 -9 -17 -3.86 2.26
19 -9 -17 1.93 1.61
10 17 -19 1.28 1.73
19 10 -17 0.37 2.24
17 19 -10 1.9 2.16
19 10 -17 -0.29 1.84
19 -10 -17 -1.48 2.17
19 -10 -17 2.23 1.69
11 17 -19 3.69 2.18
17 19 -11 6.14 2.14
19 11 -17 2.68 2.21
19 -11 -17 1.35 2.32
19 -11 -17 -2.44 1.54
19 12 -17 4.47 2.19
17 19 -12 2.82 2.32
19 0 -18 -0.36 2.11
19 0 -18 -0.8 1.57
19 1 -18 3.25 2.28
19 1 -18 1.19 1.63
19 -1 -18 4.97 2.11
19 -1 -18 -0.63 1.55
18 19 -2 0.02 2.1
19 2 -18 -0.98 1.54
19 2 -18 -0.69 2.04
19 -2 -18 -2.45 1.48
19 -2 -18 2.44 2
19 3 -18 -0.04 1.61
19 3 -18 1.05 2.03
3 18 -19 -0.7 1.44
18 19 -3 1.29 2.07
19 -3 -18 1.57 1.57
19 -3 -18 3.42 2.09
19 4 -18 -1.21 1.92
4 18 -19 1.07 1.52
18 19 -4 4.33 2.28
19 4 -18 2.49 1.65
19 -4 -18 2.31 1.54
19 -4 -18 2.58 2.03
5 18 -19 3.61 1.66
19 5 -18 1.42 2.1
18 19 -5 2.93 2.17
19 5 -18 0.2 1.64
19 -5 -18 -1.15 1.5
19 -5 -18 0.58 2.03
18 19 -6 1.63 2.12
19 6 -18 -0.34 2.05
19 6 -18 2.86 1.78
6 18 -19 0.43 1.66
19 -6 -18 0.44 1.53
19 -6 -18 3.7 2.19
19 7 -18 1.16 1.76
19 7 -18 0.14 2.08
18 19 -7 2.11 2.24
7 18 -19 -1.77 1.58
19 -7 -18 -0.76 2.14
19 -7 -18 1.83 1.62
8 18 -19 -1.8 1.63
18 19 -8 2.82 2.18
19 8 -18 -0.69 2.06
19 8 -18 1.17 1.75
19 -8 -18 0.84 1.62
19 -8 -18 0.19 2.16
19 9 -18 2.15 2.15
9 18 -19 -1.16 1.65
18 19 -9 -0.63 2.17
19 9 -18 1.13 1.82
19 -9 -18 -2.5 2.17
19 -9 -18 2.24 1.67
19 10 -18 -1.11 2.13
18 19 -10 1.97 2.16
19 -10 -18 7.51 1.83
19 11 -18 2.3 2.22
19 0 -19 7.24 1.83
19 0 -19 9.83 2.22
19 1 -19 -0.62 1.99
19 1 -19 0.72 1.57
19 -1 -19 1.7 2.03
19 -1 -19 -2.37 1.42
19 19 -2 7.94 2.45
19 2 -19 4.97 2.15
19 2 -19 11.35 1.83
19 -2 -19 10.5 2.21
19 -2 -19 4.88 1.7
19 19 -3 31.75 3.11
19 3 -19 21.8 2.95
19 3 -19 25.96 2.68
19 -3 -19 29.24 2.97
19 -3 -19 27.24 2.49
4 19 -19 0.46 1.63
19 19 -4 2.7 2.17
19 4 -19 -2.22 1.95
19 4 -19 -2.27 1.57
19 -4 -19 -0.41 2.09
19 -4 -19 2.22 1.62
5 19 -19 0.74 1.73
19 19 -5 -0.9 2.25
19 5 -19 1.86 2.13
19 5 -19 0.02 1.63
19 -5 -19 2.28 2.16
19 -5 -19 3.76 1.64
6 19 -19 2.02 1.72
19 19 -6 1.93 2.25
19 6 -19 0.28 2.09
19 6 -19 1.56 1.76
19 -6 -19 0.55 2.11
19 -6 -19 1.42 1.65
7 19 -19 1.88 1.71
19 19 -7 5.23 2.3
19 7 -19 3.74 2.12
19 7 -19 4 1.81
19 -7 -19 -1.49 2.17
19 -7 -19 2.86 1.62
19 19 -8 25.68 2.97
19 8 -19 29.04 2.93
19 8 -19 23.67 3.01
19 -8 -19 27.76 3.14
19 -8 -19 35.9 2.69
19 19 -9 4.43 2.18
19 9 -19 9.42 2.32
19 -9 -19 -2.42 2.73
19 10 -19 -0.15 2.8
0 -20 0 4.93 1.79
0 0 -20 5.63 1.05
20 0 0 3.85 1.06
1 0 -20 4.8 0.97
1 0 20 2.88 2.17
20 -1 0 2.12 0.97
20 -1 0 2.38 1.15
20 1 0 1.12 0.96
20 1 0 5.13 1.42
-1 0 20 1.97 2.24
0 -20 1 2.03 2.41
-1 0 -20 2.71 0.87
2 0 -20 8.72 1.26
20 -2 0 11.43 1.56
20 -2 0 8.62 1.1
20 2 0 11.2 1.46
2 0 20 10.19 2.64
0 -20 -2 12.47 1.88
0 -20 2 10.52 1.84
-2 0 -20 14.32 1.39
-2 0 20 9.51 1.84
20 2 0 10.6 1.54
20 3 0 0.5 1.23
20 -3 0 -0.05 0.93
20 3 0 -0.06 0.94
3 0 -20 0.26 1.37
3 0 -20 -0.2 0.87
0 -20 3 1.74 1.51
-3 0 -20 2.16 0.81
-3 0 20 -1.16 1.32
0 -20 -3 0.84 1.42
20 4 0 4.8 1.38
20 -4 0 2.47 1.13
4 0 -20 3.79 1.54
0 -20 -4 3.39 1.64
0 -20 4 2.46 1.54
-4 0 -20 3.09 0.84
-4 0 20 2.91 1.6
4 0 -20 2.56 1.03
20 -5 0 4.61 1.2
20 5 0 5.15 1.54
0 -20 5 4.98 1.46
-5 0 20 3.85 1.77
-5 0 -20 2.79 0.88
5 0 -20 4.36 1.12
0 -20 -5 1.8 1.59
5 0 -20 5.62 1.64
-6 0 20 1.93 1.53
-6 0 -20 0.23 0.79
6 0 -20 0.69 1.49
6 0 -20 0.77 0.98
0 -20 6 1.64 1.48
0 -20 -6 0.39 1.46
20 -6 0 1.34 1.12
20 6 0 1.42 1.08
-7 0 -20 1.42 0.84
7 0 -20 1.43 1.47
0 -20 7 0.93 1.64
20 -7 0 2.26 1.29
7 0 -20 3.82 1.18
-7 0 20 0.77 1.7
0 -20 -7 3.06 1.75
20 7 0 1.16 1.06
-8 0 20 3.38 1.74
0 -20 -8 4.3 1.74
20 8 0 4.14 1.38
20 -8 0 3.16 1.37
8 0 -20 2.12 1.19
8 0 -20 2.51 1.42
0 -20 8 3.36 1.87
8 0 -20 1.17 1.5
9 0 -20 1.12 1.33
0 -20 9 4.27 1.73
0 -20 -9 -0.77 1.73
-9 0 20 1.3 1.73
20 9 0 3.45 1.59
9 0 -20 3.18 1.64
9 0 -20 1 1.17
20 -9 0 -0.25 1.32
0 -20 -10 -2.11 1.52
10 0 -20 2.33 1.24
10 0 -20 0.05 1.64
20 10 0 2.23 1.62
0 -20 10 3.27 1.89
-10 0 20 1.93 2.01
20 -10 0 -0.49 1.22
10 0 -20 2.77 1.42
11 0 -20 1.65 1.3
20 11 0 2.22 1.79
11 0 -20 1.77 1.53
-11 0 20 -0.33 1.97
20 -11 0 2.94 1.47
0 -20 -11 1.24 1.96
0 -20 11 -1.63 2.01
0 -20 -12 3.31 2.11
12 0 -20 4.85 1.39
-12 0 20 4.99 2.32
12 0 -20 7.01 1.74
20 12 0 4.34 1.81
20 -12 0 6.09 1.58
0 -20 12 5.43 2.23
20 13 0 1.6 1.98
13 0 -20 -0.07 1.12
20 -13 0 -0.41 1.48
13 0 -20 0.52 1.32
0 -20 -13 2.3 2.93
0 -20 13 4.11 3.25
20 14 0 -0.57 2.02
14 0 -20 2.02 1.5
14 0 -20 -1.39 1.16
15 0 -20 7.97 1.65
15 0 -20 7 1.69
20 15 0 7.37 2.25
16 0 -20 0.26 1.6
16 0 -20 1.32 1.78
20 16 0 2.51 2.11
20 17 0 -0.57 2.23
17 0 -20 0.84 2.03
17 0 -20 1.81 1.6
18 0 -20 2.48 1.68
18 0 -20 2.28 2.11
19 0 -20 -1.41 1.55
19 0 -20 1.16 2.2
20 0 -1 3.1 1.39
0 -1 -20 3.64 0.86
0 1 20 2.95 1.61
20 0 1 3.2 1.03
20 0 -1 1.76 0.97
0 1 -20 5.34 1.04
20 0 1 3.18 1.37
0 -1 20 3.33 1.8
1 -20 0 4.87 1.79
1 -20 1 1.58 1.35
1 -1 20 0.26 1.49
-1 -1 -20 1.05 0.81
20 -1 1 -1.95 0.9
-1 -20 -1 -2.45 2.44
20 1 -1 2.63 1.27
1 1 -20 0.39 0.87
-1 1 20 0.25 1.63
20 -1 1 2.06 0.99
20 1 -1 1.63 0.95
20 1 1 0.21 2.3
1 -20 -1 -0.84 1.65
20 1 1 2.17 0.99
-1 1 -20 2.12 0.82
-1 -20 1 -0.33 1.59
1 -1 -20 -0.95 1.38
-1 -1 20 0.54 1.4
1 -1 -20 -0.26 0.81
20 -1 -1 0.56 0.95
2 1 -20 1.46 0.91
20 -2 1 -0.46 0.91
20 2 -1 2.33 1.24
-2 -1 -20 1.38 0.81
-2 1 20 2.25 1.6
1 -20 2 0.03 1.45
20 -2 1 0.01 0.97
-1 -20 -2 0.91 1.4
2 -1 20 1.91 1.54
20 2 -1 1.22 0.93
20 -2 -1 1.59 1.02
20 2 1 2.52 1.3
2 -1 -20 1.39 1.45
-1 -20 2 -0.68 1.31
20 -2 -1 4.49 1.22
-2 1 -20 0.63 0.81
-2 -1 20 0.41 1.31
2 -1 -20 0.83 0.84
20 2 1 2.56 1.07
1 -20 -2 1.01 1.34
1 -20 3 6.16 1.66
3 -1 20 7.45 1.57
-3 1 20 7.27 1.69
-3 -1 -20 7.55 1
20 -3 1 7.95 1.25
-1 -20 -3 8.09 1.64
3 1 -20 7.36 1.15
20 3 -1 11.17 1.42
20 3 -1 10.28 1.58
-3 1 -20 6.79 1.02
1 -20 -3 5.1 1.61
3 -1 -20 7.43 1.7
-3 -1 20 4.7 1.71
20 3 1 7.6 1.44
-1 -20 3 8.78 1.66
20 -3 -1 7.1 1.08
3 -1 -20 6.83 1.16
20 -3 -1 8.97 1.27
4 1 -20 -1.26 0.93
20 4 -1 1.58 1.27
-4 -1 -20 0.83 0.82
20 4 -1 0.73 0.93
4 1 -20 0.15 1.38
20 -4 1 1.99 1.15
1 -20 4 -0.09 1.51
-4 1 20 -0.16 1.52
-1 -20 -4 1.47 1.5
-1 -20 4 1.03 1.35
20 -4 -1 0.1 1
20 4 1 1.57 1.26
-4 -1 20 -2.4 1.23
4 -1 -20 -0.79 1.38
1 -20 -4 -0.06 1.5
4 -1 -20 -0.32 0.83
5 1 -20 3.94 1.09
-1 -20 -5 4.9 1.58
5 1 -20 4.72 1.56
-5 1 20 5.91 1.7
1 -20 5 5.66 1.61
20 -5 1 4.87 1.23
20 5 -1 8.77 1.36
1 -20 -5 8.42 1.8
-1 -20 5 6.06 1.57
5 -1 -20 5.84 1.62
20 -5 -1 4.99 1.3
5 -1 -20 7 1.27
-5 -1 20 6.29 1.65
20 5 1 4.81 1.52
6 1 -20 4.14 1.35
6 1 -20 5.52 1.61
20 -6 1 2.89 1.28
-1 -20 -6 1.67 1.64
6 1 -20 3.09 1.06
1 -20 6 4.67 1.58
-6 1 20 2.32 1.7
20 6 -1 3.76 1.19
6 -1 -20 4.37 1.59
20 -6 -1 1.42 1.11
-6 -1 20 0.82 1.62
1 -20 -6 2.4 1.5
-1 -20 6 -1.03 1.45
6 -1 -20 3.78 1.12
20 6 1 2.95 1.16
20 -7 1 1.84 1.18
-1 -20 -7 1.01 1.59
7 1 -20 1.19 1.58
7 1 -20 0.92 1.35
-7 1 20 1.7 1.48
20 7 -1 4.57 1.23
1 -20 7 3.06 1.79
7 1 -20 2.04 1.08
1 -20 -7 1.14 1.67
20 7 1 1.05 1.11
7 -1 -20 0.34 1.57
-1 -20 7 1.19 1.68
7 -1 -20 0.45 0.99
20 -7 -1 3.07 1.26
-7 -1 20 1.86 1.68
1 -20 8 0.62 1.69
-8 1 20 2.85 1.82
-1 -20 -8 2.54 1.81
8 1 -20 3.88 1.59
20 -8 1 0.25 1.08
8 1 -20 2.45 1.14
20 8 -1 2.34 1.45
8 1 -20 2.6 1.38
8 -1 -20 4.43 1.64
20 -8 -1 2.55 1.37
-1 -20 8 6.19 1.79
8 -1 -20 1.36 1.15
20 8 1 1.74 1.41
-8 -1 20 0.19 1.83
1 -20 -8 3.07 1.79
20 -9 1 4.43 1.39
9 1 -20 4.11 1.44
9 1 -20 3.06 1.18
-1 -20 -9 5.57 1.93
1 -20 9 4.58 1.69
9 1 -20 6.29 1.73
-9 1 20 2.02 1.88
20 9 -1 3.37 1.65
-1 -20 9 1.54 1.73
-9 -1 20 6.49 2.03
9 -1 -20 4.5 1.36
20 9 1 2.48 1.68
1 -20 -9 5.21 1.89
20 -9 -1 2.06 1.39
9 -1 -20 2.36 1.43
9 -1 -20 8.11 1.74
20 -10 1 -0.53 1.33
-1 -20 -10 -3.98 1.6
10 1 -20 2.99 1.51
10 1 -20 -1.43 1.1
10 1 -20 3.74 1.71
1 -20 10 1.02 1.92
-10 1 20 0.78 1.83
20 10 -1 2.17 1.56
10 -1 -20 0.86 1.69
-10 -1 20 3.33 1.9
10 -1 -20 3.01 1.31
10 -1 -20 1.04 1.53
20 -10 -1 0.49 1.25
-1 -20 10 -0.89 1.91
20 10 1 2.1 1.75
1 -20 -10 1.86 1.7
11 1 -20 7.62 1.81
1 -20 11 9.84 2.27
20 -11 1 5.05 1.6
20 11 -1 10.38 2.04
11 1 -20 8 1.6
-1 -20 -11 9.72 2.27
-1 -20 11 8.08 2.06
-11 -1 20 10.08 2.48
20 -11 -1 7.86 1.61
20 11 1 9.43 2.01
1 -20 -11 5.33 2.12
11 -1 -20 8.04 1.59
11 -1 -20 9.01 1.85
12 1 -20 -0.15 1.61
20 12 -1 1.77 1.74
12 1 -20 1.51 1.38
1 -20 12 2.35 2.13
-1 -20 -12 3.39 2.19
20 -12 1 3.86 1.52
1 -20 -12 5.08 2.21
12 -1 -20 1.83 1.12
20 -12 -1 3.39 1.51
-12 -1 20 -1.08 2.3
-1 -20 12 4.67 2.28
20 12 1 1.43 1.78
12 -1 -20 2.28 1.46
13 1 -20 1.93 1.45
1 -20 13 -2.91 3.06
-1 -20 -13 1.43 3.4
13 1 -20 3.14 1.78
20 13 -1 3.14 1.99
13 -1 -20 2.4 1.45
13 -1 -20 2.47 1.19
1 -20 -13 3.44 3.6
-1 -20 13 8.08 3.18
20 13 1 2.42 2.05
20 -13 -1 2.46 1.56
20 14 -1 5.41 2.18
14 1 -20 3.03 1.5
14 1 -20 5.63 1.38
20 14 1 2.47 1.99
14 -1 -20 1.28 1.42
14 -1 -20 2.19 1.16
20 -14 -1 1.67 1.58
15 1 -20 -2.64 1.36
15 1 -20 1.81 1.4
20 15 -1 2.5 1.86
15 -1 -20 -3.4 1.31
20 15 1 3.12 2.12
15 -1 -20 -3.07 1.24
16 1 -20 4.91 2.03
20 16 -1 3.85 2.2
16 1 -20 0.65 1.58
16 -1 -20 3.57 1.87
16 -1 -20 5.44 1.86
20 16 1 1.25 2.14
17 1 -20 -0.12 1.55
20 17 -1 2.72 2.32
17 1 -20 -0.08 1.99
17 -1 -20 0.87 1.44
17 -1 -20 0.59 2.09
20 18 -1 -1.43 2.31
18 1 -20 -2.47 2.07
18 1 -20 0.13 1.61
18 -1 -20 -0.59 1.56
18 -1 -20 0.48 2.07
19 1 -20 -0.6 1.52
19 1 -20 1.4 2.07
19 -1 -20 2.42 2.09
19 -1 -20 1.85 1.65
20 0 2 12.35 1.55
20 0 -2 10.71 1.55
0 -2 20 10.79 1.69
0 -2 -20 10.96 1.82
20 0 2 12.38 1.54
-2 -20 0 10.29 2.96
20 0 -2 10.94 1.36
2 -20 0 11.08 1.84
0 2 -20 7.77 1.14
0 -2 -20 12.24 1.27
20 1 -2 0.3 1.15
-1 -2 -20 0.27 1.31
20 1 -2 3.09 0.99
20 -1 2 3.28 0.88
-2 -20 -1 1.34 1.71
20 -1 2 1.28 0.99
-1 -2 -20 -0.61 0.74
2 -20 1 1.85 1.35
1 2 -20 3.12 1
1 -2 20 1.63 1.5
-1 2 -20 0.57 0.87
-1 -2 20 1.02 1.51
2 -20 -1 2.61 1.6
20 1 2 1.88 1.01
20 -1 -2 2.04 1.02
1 -2 -20 0.78 0.8
20 -1 -2 -0.52 1.25
-2 -20 1 2.24 1.79
1 -2 -20 0.98 1.31
20 -2 2 -2.09 0.96
2 -20 2 1.05 1.29
20 2 -2 1.58 0.98
2 2 -20 0.69 0.9
-2 -20 -2 0 1.44
-2 -2 -20 0.07 0.76
-2 -2 -20 1.19 1.33
20 2 -2 -0.38 1.13
2 -2 20 -0.41 1.44
2 -2 -20 -0.31 1.25
2 -20 -2 1.3 1.57
20 -2 -2 -0.51 2.35
20 2 2 2.46 1.25
-2 2 -20 -0.68 0.8
-2 -2 20 -0.15 1.5
-2 -20 2 -0.83 1.49
20 2 2 1.25 1.37
2 -2 -20 -0.02 0.85
20 -2 -2 -0.51 0.99
-3 -2 -20 -0.79 0.77
20 3 -2 0.8 0.92
-2 -20 -3 0.51 1.45
3 2 -20 -0.04 0.91
20 -3 2 -0.49 0.98
3 -2 20 -1.96 1.29
20 3 -2 0.35 1.23
2 -20 3 0.26 1.31
-2 -20 3 -1.38 1.5
-3 -2 20 2.09 1.48
3 -2 -20 -0.06 0.88
3 -2 -20 -0.62 1.34
2 -20 -3 0.48 1.35
20 3 2 1.59 1.27
20 -3 -2 -0.5 1.04
-2 -20 -4 3.39 1.64
20 4 -2 6.29 1.06
4 -2 20 4.51 1.48
4 2 -20 5.12 1.18
2 -20 4 5.56 1.6
20 -4 2 3.11 1.16
-4 -2 -20 2.74 0.84
20 4 -2 5.2 1.19
20 -4 -2 3.25 1.16
2 -20 -4 7.58 1.64
20 -4 -2 3.36 1.71
-2 -20 4 3.14 1.7
-4 -2 20 4.24 1.75
4 -2 -20 5.06 1.65
20 4 2 6.67 1.45
4 -2 -20 4.48 1.03
5 2 -20 1.82 1.14
20 -5 2 1.26 1.05
-5 2 20 3.29 1.49
20 5 -2 4.83 1.18
20 5 -2 5.47 1.04
5 2 -20 1.87 1.55
-2 -20 -5 0.81 1.59
2 -20 5 2.63 1.57
5 2 -20 3.3 1.33
-5 -2 20 3.14 1.71
2 -20 -5 6.41 1.61
20 5 2 3.39 1.39
5 -2 -20 4.47 1.11
20 -5 -2 3.32 1.16
5 -2 -20 2.24 1.6
-2 -20 5 3.01 1.72
20 6 -2 3.85 1.16
20 -6 2 1.1 1.19
6 2 -20 1.81 1.52
2 -20 6 0.28 1.62
6 2 -20 3.35 1.36
-2 -20 -6 3.93 1.75
6 2 -20 1.76 1.04
-6 -2 20 4.96 1.69
20 6 2 3.33 1.45
2 -20 -6 4.54 1.72
6 -2 -20 2.94 1.49
6 -2 -20 1.73 1.01
20 -6 -2 1.69 1.14
-2 -20 6 1.26 1.57
20 -7 2 3.63 1.31
7 2 -20 3.65 1.55
7 2 -20 2.76 1.19
7 2 -20 2.65 1.34
2 -20 7 4.9 1.77
-2 -20 -7 2.65 1.89
20 7 -2 4.32 1.22
-2 -20 7 3.56 1.56
7 -2 -20 5.31 1.72
-7 -2 20 4.59 1.81
20 7 2 2.82 1.23
20 -7 -2 5.11 1.26
7 -2 -20 2.28 1.04
2 -20 -7 5.67 1.65
8 2 -20 2.87 1.63
-2 -20 -8 -0.48 1.67
2 -20 8 -1.13 1.49
8 2 -20 1.5 1.37
8 2 -20 2.41 1.24
20 -8 2 3.47 1.33
20 8 -2 -0.94 1.41
20 -8 -2 1.48 1.31
8 -2 -20 1.82 1.59
20 8 2 2.35 1.33
2 -20 -8 0.18 1.58
-2 -20 8 -1.54 1.62
-8 -2 20 1.16 1.79
8 -2 -20 0.06 1.01
-9 -2 -20 2.48 1.86
9 2 -20 3.55 1.37
20 9 -2 4.13 1.64
-2 -20 -9 4.08 1.89
20 -9 2 2.83 1.35
2 -20 9 5.11 1.94
9 2 -20 2.77 1.66
9 2 -20 4.05 1.48
2 -20 -9 2.17 1.65
-2 -20 9 1.19 1.72
-9 -2 20 4.15 2.04
9 -2 -20 3.04 1.64
20 9 2 1.83 1.53
20 -9 -2 4.21 1.39
9 -2 -20 3.74 1.24
-2 -20 -10 -2.78 1.89
20 10 -2 0.33 1.57
2 -20 10 0.04 1.84
10 2 -20 -0.16 1.44
10 2 -20 -1.38 1.16
20 -10 2 -0.17 1.32
-10 -2 -20 -2.89 2.03
10 2 -20 1.24 1.72
10 -2 -20 1.3 1.72
2 -20 -10 -1.47 1.86
10 -2 -20 -1.84 1.14
-2 -20 10 3.33 1.8
20 -10 -2 -0.49 1.28
20 10 2 -0.26 1.59
10 -2 -20 0.13 1.39
-10 -2 20 -3.69 1.87
11 2 -20 6.67 1.81
2 -20 11 12.51 2.33
20 11 -2 10.5 1.99
-2 -20 -11 9.26 2.15
11 2 -20 8.8 1.58
11 -2 -20 11.14 1.48
-2 -20 11 3.4 2.15
20 -11 -2 9.01 1.67
2 -20 -11 9.61 2.1
20 11 2 9.86 2
11 -2 -20 6.78 1.51
-11 -2 20 5.72 2.26
2 -20 12 0.95 2.11
12 2 -20 1.63 1.33
-2 -20 -12 -1.37 1.96
20 12 -2 -1.95 1.86
12 2 -20 1.02 1.62
20 -12 -2 -1.11 1.42
-2 -20 12 5.97 2.19
2 -20 -12 -2.25 1.94
-12 -2 20 0.27 2.35
12 -2 -20 -0.45 1.02
12 -2 -20 2.65 1.36
20 12 2 0.08 1.75
13 2 -20 0.69 1.39
13 2 -20 0.25 1.75
20 13 -2 0.37 1.89
13 -2 -20 0.59 1.36
20 -13 -2 2.42 1.63
13 -2 -20 -0.15 1.07
20 13 2 1.82 2.04
14 2 -20 -0.11 1.82
20 14 -2 1.28 1.63
14 2 -20 -1.01 1.46
14 -2 -20 -0.16 1.44
14 -2 -20 1.32 1.23
20 -14 -2 -1.71 1.48
20 14 2 0.91 1.97
15 2 -20 1.25 1.72
15 2 -20 5.08 1.67
20 15 -2 3.14 1.74
15 -2 -20 2.6 1.49
15 -2 -20 3.35 1.59
20 15 2 3.93 2.16
20 16 -2 0.56 2.16
16 2 -20 5.2 1.75
16 2 -20 3.82 1.96
16 -2 -20 3.4 1.64
16 -2 -20 5.39 2.09
20 17 -2 -1.61 2.19
17 2 -20 0.63 1.98
17 2 -20 0.46 1.63
17 -2 -20 -0.5 1.5
17 -2 -20 -0.42 1.97
18 2 -20 0.32 1.62
18 2 -20 1.84 2.03
20 18 -2 0.13 2.24
18 -2 -20 0.33 2.02
18 -2 -20 0.11 1.45
19 2 -20 2.48 2.12
2 20 -19 2.22 1.52
19 2 -20 1.15 1.68
19 -2 -20 1.67 2.07
19 -2 -20 0.93 1.57
20 0 -3 0.44 1.19
0 -3 20 1.02 1.52
-3 -20 0 -1.43 1.79
0 -3 -20 0.36 0.78
20 0 3 1.4 1.04
20 0 3 0.18 0.95
3 -20 0 -0.57 1.3
0 3 -20 -1.07 0.79
20 0 -3 0.82 0.96
0 -3 -20 1.72 1.35
-1 -3 -20 9.52 1.74
1 3 -20 7.23 1.17
-1 -3 -20 6.15 0.94
3 -20 1 7.88 1.7
20 1 -3 8.69 1.19
20 1 -3 7.64 1.43
1 -3 20 6.33 1.63
20 -1 3 6.62 1.21
-3 -20 -1 4.42 1.59
-3 -20 1 8.08 1.64
20 -1 -3 9.06 1.44
1 -3 -20 7.57 1.7
20 -1 -3 7.67 1.26
3 -20 -1 6.29 1.7
-1 -3 20 7.4 1.69
20 1 3 10.76 1.33
1 -3 -20 6.9 1.03
20 2 -3 -1.28 1.2
-2 -3 -20 -1.18 0.74
-2 -3 -20 1.5 1.5
2 3 -20 1.7 1.01
20 2 -3 -0.7 0.89
3 -20 2 -0.87 1.4
20 -2 3 -0.51 0.97
-3 -20 -2 -1.08 1.48
2 -3 20 -0.98 1.31
20 -2 -3 0.37 1.19
20 -2 -3 1.45 1.08
3 -20 -2 0.93 1.39
20 2 3 -1.83 1.24
-2 -3 20 -0.47 1.45
2 -3 -20 -1.53 1.43
2 -3 -20 0.49 0.86
-3 -20 2 -0.07 1.33
20 3 -3 -2.06 1.13
-3 -20 -3 0.2 1.32
20 -3 3 1.87 1.06
20 3 -3 2.52 0.98
3 -20 3 0.59 1.42
-3 -3 -20 -1.99 0.76
3 3 -20 -1.07 0.88
-3 -3 -20 -1.1 1.29
3 3 -20 1.02 1.1
3 -3 20 1.12 1.38
3 -20 -3 -0.58 1.52
-3 -20 3 -2.02 1.37
3 -3 -20 -1.43 0.83
-3 -3 20 0.41 1.44
20 -3 -3 0.74 1.07
20 3 3 0.01 1.22
20 -3 -3 1.55 1.3
3 -3 -20 1.62 1.57
4 -3 20 13.52 1.82
20 4 -3 15.62 1.55
-3 -20 -4 18.22 2.12
4 3 -20 14.11 1.57
4 3 -20 16 1.79
20 -4 3 17.91 1.87
3 -20 4 15.59 1.97
-4 -3 -20 15.29 2.03
20 4 -3 12.82 1.48
-3 -20 4 11.46 1.9
20 -4 -3 14 1.64
20 4 3 13.82 1.69
3 -20 -4 14.04 1.99
4 -3 -20 14.4 1.52
-4 -3 20 14.23 2.12
20 -4 -3 15.38 1.95
4 -3 -20 16.38 2.33
3 -20 5 3.99 1.46
20 5 -3 1.83 0.98
-3 -20 -5 0.94 1.41
5 3 -20 1.21 0.98
5 3 -20 0.34 1.22
5 -3 20 -0.8 1.28
20 5 -3 1.65 0.94
-5 -3 -20 -1.4 1.5
20 -5 3 5.08 1.28
20 5 3 0.32 1.34
20 -5 -3 -0.7 1.49
5 -3 -20 -1.36 0.9
5 -3 -20 3.16 1.62
-5 -3 20 2.35 1.74
20 -5 -3 1.95 1.13
3 -20 -5 2.55 1.57
-3 -20 5 -0.32 1.62
3 -20 6 1.6 1.56
6 3 -20 -0.16 1.18
-3 -20 -6 -1.59 1.55
20 -6 3 0.78 1.22
20 6 -3 1.37 0.99
6 3 -20 1.02 1.46
6 3 -20 0.58 0.96
-6 -3 -20 1.04 1.58
3 -20 -6 -0.52 1.58
-3 -20 6 -1.38 1.63
-6 -3 20 -2.63 1.61
20 -6 -3 -0.87 1.1
20 6 3 -1.23 1.36
6 -3 -20 -0.69 1.47
6 -3 -20 0.77 1.01
-7 -3 -20 12.62 2.06
7 3 -20 10.75 1.63
7 3 -20 8.94 1.46
3 -20 7 12.65 2.04
20 7 -3 10.32 1.54
20 -7 3 11.46 1.56
7 3 -20 11.18 1.76
-3 -20 -7 12.29 1.95
7 -3 -20 10.1 1.83
-7 -3 20 11.28 2.06
3 -20 -7 12.35 2.06
-3 -20 7 11.37 1.91
7 -3 -20 9.22 1.27
20 7 3 12.5 1.81
20 -7 -3 9.9 1.57
-3 -20 -8 3.3 1.63
8 3 -20 5.25 1.67
-8 -3 -20 4.34 1.79
8 3 -20 3.85 1.44
20 -8 3 4.49 1.42
8 3 -20 3.28 1.27
20 8 -3 4.83 1.63
3 -20 8 3.73 1.78
3 -20 -8 3.77 1.91
-3 -20 8 6.31 1.72
8 -3 -20 3.6 1.22
20 8 3 3.76 1.48
20 -8 -3 3.12 1.41
-8 -3 20 3.71 1.72
8 -3 -20 1.19 1.6
9 3 -20 3.21 1.54
9 3 -20 4.04 1.35
-9 -3 -20 -1.75 1.84
20 9 -3 2.25 1.56
-3 -20 -9 5.01 1.8
9 3 -20 -1.22 1.6
3 -20 9 3.76 1.78
3 -20 -9 6.9 1.96
9 -3 -20 2.77 1.19
-9 -3 20 1.72 1.95
9 -3 -20 -0.17 1.62
-3 -20 9 -1.41 1.77
20 9 3 5.84 1.77
20 -9 -3 3.6 1.4
10 3 -20 5.54 2.56
20 10 -3 8.43 1.97
10 3 -20 6.67 1.67
10 3 -20 7.56 1.55
3 -20 10 7.66 2.08
-10 -3 -20 9.89 2.28
-3 -20 -10 5.62 2.01
20 10 3 6.81 1.94
-10 -3 20 5.96 2.2
20 -10 -3 6.91 1.58
10 -3 -20 8.54 1.32
10 -3 -20 7.1 1.9
-3 -20 10 10.8 2.21
10 -3 -20 6.71 1.43
3 -20 -10 5.93 1.96
11 3 -20 -1.13 1.22
3 -20 11 -4.1 1.85
-3 -20 -11 1.33 1.96
11 3 -20 0.17 1.52
20 11 -3 -0.1 1.67
3 -20 -11 1.43 2.03
20 11 3 -0.92 1.81
-11 -3 20 1.46 2.22
-3 -20 11 -0.98 2.05
11 -3 -20 1.35 1.34
20 -11 -3 -1.48 1.4
11 -3 -20 0.24 0.97
12 3 -20 2.94 1.51
-3 -20 -12 6.52 2.28
3 -20 12 5.4 2.23
20 12 -3 3.02 1.86
12 3 -20 4.55 1.84
20 12 3 2.17 1.99
-12 -3 20 6.76 2.5
3 -20 -12 0.79 2.14
12 -3 -20 3.76 1.22
-3 -20 12 3.13 2.29
20 -12 -3 0.57 1.41
12 -3 -20 1.6 1.36
13 3 -20 1.73 1.75
13 3 -20 2.89 1.49
20 13 -3 2.74 1.9
20 13 3 2.9 1.97
13 -3 -20 1.38 1.18
20 -13 -3 0.67 1.41
13 -3 -20 -0.32 1.31
14 3 -20 1.29 1.52
20 14 -3 -2.27 1.24
14 3 -20 0.18 1.77
14 -3 -20 -1.57 1.13
20 -14 -3 1.52 1.58
14 -3 -20 1.14 1.33
20 14 3 0.05 1.97
15 3 -20 2.39 1.91
15 3 -20 2.21 1.67
20 15 -3 -0.7 1.64
15 -3 -20 2.09 1.65
15 -3 -20 -1.21 1.55
20 -15 -3 -0.48 1.61
20 16 -3 5.88 2.43
16 3 -20 -1.92 1.52
16 3 -20 4.59 2.17
16 -3 -20 1.29 2.09
16 -3 -20 3.1 1.6
17 3 -20 2.59 2
17 3 -20 1.63 1.53
20 17 -3 4.37 2.28
17 -3 -20 1.32 2.12
17 -3 -20 3.75 1.61
18 3 -20 1.46 1.99
18 3 -20 1.19 1.63
20 18 -3 -1.78 2.31
3 20 -18 4.68 1.63
18 -3 -20 -1.39 1.43
18 -3 -20 2.54 2.17
3 20 -19 1.5 1.66
19 3 -20 -0.88 1.55
20 19 -3 -2.73 2.21
19 3 -20 -0.22 2.03
19 -3 -20 4.51 2.05
19 -3 -20 1.09 1.59
20 0 4 1.41 1.45
20 0 4 5.06 1.05
0 -4 -20 3.45 0.86
-4 -20 0 2.65 1.6
20 0 -4 3.75 1.33
4 -20 0 1.5 1.43
20 0 -4 3.62 1.12
0 -4 20 0.32 1.56
0 -4 -20 5.08 1.51
1 4 -20 0.86 0.9
1 -4 20 1.26 1.36
20 1 -4 -1.02 0.92
-4 -20 -1 0.9 1.39
-1 -4 -20 -1.57 1.38
1 4 -20 -1.17 1
-1 -4 -20 -0.02 0.75
4 -20 1 3.55 1.47
20 -1 4 0.78 0.97
20 1 -4 0.67 1.22
-4 -20 1 1.41 1.45
4 -20 -1 -0.35 1.44
1 -4 -20 2.41 1.6
1 -4 -20 0.51 0.77
20 -1 -4 1.28 1.01
-1 -4 20 -0.02 1.46
20 -1 -4 -0.31 1.13
-1 4 -20 0.78 0.96
20 2 -4 6.53 1.46
-4 -20 -2 7.27 1.73
20 -2 4 5.35 1.16
-2 -4 -20 6.61 0.93
-2 -4 -20 4.98 1.67
2 4 -20 4.86 1.04
2 -4 20 6.21 1.66
2 4 -20 6.15 1.2
4 -20 2 3.8 1.6
20 2 -4 6.09 1.17
20 -2 -4 3.96 1.29
-2 4 -20 6.24 0.92
20 2 4 8.2 1.51
4 -20 -2 7.66 1.6
20 -2 -4 4.7 1.18
2 -4 -20 6.79 0.99
2 -4 -20 5.79 1.74
-4 -20 2 5.13 1.6
-2 -4 20 7.1 1.74
3 -4 20 15.18 2.14
3 4 -20 15.7 1.69
4 -20 3 15.41 1.98
20 3 -4 12.52 1.51
-4 -20 -3 14.88 2.1
20 3 -4 13.8 1.51
3 4 -20 13.45 1.64
20 -3 4 13.95 1.51
-3 -4 -20 13.5 1.92
20 -3 -4 13.93 1.78
20 3 4 18.6 1.94
-4 -20 3 16.96 2.35
3 -4 -20 12.8 1.41
3 -4 -20 13.56 2
20 -3 -4 12.77 1.78
-3 -4 20 16.28 2.14
4 -20 -3 17.28 2.35
4 4 -20 12.23 1.49
20 4 -4 9.46 1.28
4 4 -20 12.68 1.69
4 -4 20 11.81 1.79
-4 -20 -4 15.36 2.16
4 -20 4 11.01 1.87
-4 -4 -20 12.1 1.94
20 -4 4 12.92 1.68
20 4 -4 12.85 1.56
20 4 4 13.23 1.7
-4 -4 20 12.72 2.04
4 -4 -20 12.35 1.48
4 -4 -20 16.51 2.29
4 -20 -4 11.83 1.9
20 -4 -4 11.69 1.5
-4 -20 4 8.71 1.79
20 -4 -4 13.61 1.69
20 5 -4 4.1 1.09
5 4 -20 3.42 1.17
4 -20 5 0.48 1.41
20 -5 4 1.05 1.11
20 5 -4 2.91 1.03
-5 -4 -20 4.02 1.67
-4 -20 -5 1.07 1.46
5 -4 20 1.73 1.41
5 4 -20 2.04 1.27
5 -4 -20 1.97 1.47
20 -5 -4 1.21 1.28
-5 -4 20 5.5 1.79
4 -20 -5 3.11 1.62
-4 -20 5 2.79 1.62
5 -4 -20 3.08 0.98
20 -5 -4 2.64 1.22
20 5 4 4.48 1.44
4 -20 6 3.18 1.68
6 4 -20 3.28 1.21
-6 -4 -20 2.49 1.72
6 4 -20 2.93 1.25
20 -6 4 1.87 1.16
20 6 -4 -0.18 0.96
-4 -20 -6 -2.4 1.6
20 6 -4 0.69 1.05
6 -4 20 3.05 1.43
20 6 4 4.67 1.5
-6 -4 20 2.51 1.61
20 -6 -4 2.25 1.27
6 -4 -20 0.99 1.5
4 -20 -6 3.23 1.65
6 -4 -20 1.8 0.98
-4 -20 6 3.9 1.63
7 4 -20 8.04 1.75
-4 -20 -7 11.43 1.9
-7 -4 -20 7.33 1.94
7 4 -20 9.34 1.5
7 4 -20 10.09 1.59
20 7 -4 8.29 1.64
4 -20 7 9.6 1.9
7 -4 -20 13.83 1.96
7 -4 -20 6 1.21
-7 -4 20 9.82 2.08
4 -20 -7 11.02 2.04
20 -7 -4 7.84 1.53
20 7 4 9.35 1.75
-4 -20 7 8.87 1.83
20 8 -4 6.63 1.65
-4 -20 -8 8.53 1.83
8 4 -20 2.97 1.27
4 -20 8 10.81 1.96
8 4 -20 5.05 1.75
8 4 -20 4.26 1.42
-8 -4 -20 5.39 1.96
8 -4 -20 5.37 1.23
8 -4 -20 5.61 1.71
20 -8 -4 3.18 1.38
4 -20 -8 4.81 1.91
20 8 4 5.7 1.73
-8 -4 20 7.45 2
-4 -20 8 2.84 1.77
4 -20 9 9.56 2.03
9 4 -20 6.56 1.49
20 9 -4 8.77 1.91
9 4 -20 5.53 1.6
-4 -20 -9 10.16 1.95
9 4 -20 8.81 1.86
-9 -4 -20 8.63 2.1
-9 -4 20 8.26 2.11
-4 -20 9 7.78 2.09
9 -4 -20 4.72 1.77
4 -20 -9 9.81 2.09
20 9 4 6.38 1.83
9 -4 -20 6.43 1.3
20 -9 -4 5.86 1.51
4 -20 10 3.28 2.02
10 4 -20 0.83 1.51
20 10 -4 0.61 1.57
-10 -4 -20 -1.89 2.07
-4 -20 -10 4.64 1.98
10 4 -20 2.12 1.35
-4 -20 10 -0.02 1.97
-10 -4 20 4.19 2.16
10 -4 -20 4.72 1.83
4 -20 -10 1.39 1.81
10 -4 -20 0.95 1.24
20 -10 -4 2.5 1.42
20 10 4 2.18 1.8
-4 -20 -11 9.8 2.19
4 -20 11 4.07 2.09
11 4 -20 3.49 1.44
11 4 -20 5.68 1.75
20 11 -4 6.71 1.93
-11 -4 20 7.36 2.35
4 -20 -11 5.59 2.18
11 -4 -20 6.99 1.4
11 -4 -20 3.63 1.15
20 -11 -4 4.95 1.54
20 11 4 6.16 1.9
-4 -20 11 5.71 2.15
20 12 -4 -1.79 1.79
-4 -20 -12 -3.79 2.14
4 -20 12 3.38 2.15
12 4 -20 -0.87 1.3
12 4 -20 0.12 1.66
12 -4 -20 -0.38 1.26
-12 -4 20 4.74 2.62
4 -20 -12 -2.39 2.09
20 12 4 1.89 1.83
20 -12 -4 0.73 1.44
-4 -20 12 0.91 2.33
12 -4 -20 1.7 1.2
20 13 -4 10.81 1.76
13 4 -20 9.51 1.76
13 4 -20 10.65 2.07
20 -13 -4 8.87 1.76
20 13 4 9.52 2.18
13 -4 -20 8.54 1.48
13 -4 -20 10 1.72
14 4 -20 12.78 1.84
14 4 -20 8.85 2.07
20 14 -4 13.16 1.89
20 -14 -4 11.93 1.9
14 -4 -20 13.29 1.91
14 -4 -20 9.03 1.63
15 4 -20 4.28 1.91
20 15 -4 2.21 1.74
15 4 -20 -0.56 2.47
15 -4 -20 -2.28 1.9
20 -15 -4 1.49 2.7
16 4 -20 4.94 1.72
4 20 -16 3.19 1.52
16 -4 -20 3.59 1.57
17 4 -20 2.1 1.7
17 4 -20 -0.5 1.99
4 20 -17 -1.6 1.54
20 17 -4 -0.33 2.15
17 -4 -20 -3.19 1.47
17 -4 -20 4.61 2.08
18 4 -20 0.67 2.02
4 20 -18 1.84 1.7
18 4 -20 2.44 1.73
20 18 -4 1.78 2.23
18 -4 -20 1.27 2.09
18 -4 -20 1.9 1.49
19 4 -20 0.58 1.67
4 20 -19 -0.27 1.71
19 4 -20 2.87 2.04
20 19 -4 3.84 2.25
19 -4 -20 1.65 2.1
19 -4 -20 2.9 1.68
0 -5 -20 6.04 1.6
0 -5 20 3.87 1.67
5 -20 0 3.37 1.62
20 0 -5 4.19 1.26
0 -5 -20 3.31 0.85
20 0 -5 3.52 1.12
-5 -20 0 4.9 1.59
5 -20 1 4.59 1.59
-1 -5 -20 6.38 1.74
1 -5 20 5.83 1.54
20 1 -5 4.71 1.19
1 5 -20 4.84 1.24
20 1 -5 5.16 1.44
-5 -20 -1 6.86 1.77
1 5 -20 2.5 1.05
-5 -20 1 5.54 1.68
5 -20 -1 3.71 1.59
1 -5 -20 4.27 1.66
1 -5 -20 8.22 1
20 -1 -5 5.99 1.36
-1 -5 20 8.29 1.82
20 -1 -5 3.87 1.21
2 -5 20 2.41 1.56
2 5 -20 4.15 1.19
20 2 -5 4.26 1.13
20 2 -5 4.03 1.14
-5 -20 -2 3.61 1.67
-2 -5 -20 1.38 1.61
2 5 -20 3.19 1.01
5 -20 2 0.85 1.41
-2 -5 20 3.37 1.73
-5 -20 2 3.41 1.57
20 -2 -5 2.68 1.3
2 -5 -20 1.63 1.6
5 -20 -2 2.44 1.54
20 2 5 3.2 1.39
20 -2 -5 3.24 1.2
2 -5 -20 4.73 0.92
3 5 -20 1.43 1.13
3 5 -20 1.63 1.07
20 3 -5 0.9 1.02
-3 -5 -20 0.82 1.45
20 3 -5 1.86 1.03
3 -5 20 1.26 1.4
5 -20 3 1.35 1.44
-5 -20 -3 0.19 1.56
20 3 5 2.22 1.34
3 -5 -20 1.98 0.91
-3 -5 20 -0.35 1.51
5 -20 -3 -0.66 1.46
20 -3 -5 1.54 1.1
20 -3 -5 1.59 1.22
-5 -20 3 -1.18 1.54
3 -5 -20 0.74 1.56
4 5 -20 4.39 1.2
20 4 -5 3.62 1.07
-5 -20 -4 3.69 1.67
4 5 -20 3.42 1.18
-4 -5 -20 3.73 1.73
5 -20 4 4.35 1.58
4 -5 20 5.22 1.61
20 4 -5 1.91 1.07
20 -4 -5 2.54 1.23
-4 -5 20 3.72 1.69
20 4 5 3.68 1.35
-5 -20 4 3.45 1.66
4 -5 -20 4.77 1.54
4 -5 -20 3.3 0.97
20 -4 -5 3.23 1.31
5 -20 -4 2.24 1.54
-5 -20 -5 1.71 1.67
5 5 -20 0.18 1.03
5 5 -20 0.22 1.15
5 -5 20 0.83 1.45
20 5 -5 -1.02 1
20 5 -5 -0.16 1
5 -20 5 -0.2 1.53
-5 -5 -20 -0.18 1.59
-5 -5 20 4.18 1.73
20 -5 -5 3.15 1.29
5 -5 -20 0.35 0.91
20 5 5 -1.48 1.34
-5 -20 5 2.59 1.46
20 -5 -5 1.73 1.32
5 -5 -20 2.41 1.59
5 -20 -5 -0.01 1.58
20 6 -5 6.09 1.43
-6 -5 -20 5.51 1.89
5 -20 6 8.7 1.8
20 6 -5 5.76 1.15
6 -5 20 4.04 1.57
6 5 -20 5.03 1.34
6 5 -20 5.51 1.41
-5 -20 -6 6.11 1.87
-5 -20 6 3.68 1.58
20 -6 -5 5.43 1.45
6 -5 -20 5.83 1.17
6 -5 -20 7.08 1.69
20 6 5 6.01 1.63
-6 -5 20 4.29 1.75
5 -20 -6 3.85 1.74
20 -6 -5 5.45 1.39
5 -20 7 6.88 1.78
-5 -20 -7 4.83 1.9
7 5 -20 3.79 1.26
20 7 -5 3.78 1.5
-7 -5 -20 5.98 1.79
20 7 -5 5.11 1.2
7 5 -20 4.96 1.44
7 -5 -20 6.23 1.19
-7 -5 20 2.58 1.89
20 7 5 6.1 1.69
7 -5 -20 3.18 1.71
-5 -20 7 4.27 1.74
5 -20 -7 9.65 1.91
20 -7 -5 5.14 1.39
8 5 -20 -0.7 1.3
-5 -20 -8 -0.04 1.79
8 5 -20 0.78 1.71
20 8 -5 1.17 1.63
8 5 -20 -0.17 1.15
5 -20 8 2.42 1.74
-8 -5 -20 0.1 1.91
20 8 5 -0.61 1.52
20 -8 -5 3.72 1.42
-5 -20 8 1.48 2.15
8 -5 -20 2.55 1.16
-8 -5 20 -1.68 1.95
8 -5 -20 1.42 1.71
5 -20 -8 4.61 1.81
9 5 -20 1.51 1.5
9 5 -20 3.28 1.35
9 5 -20 2.91 1.8
-9 -5 -20 5.86 2.21
5 -20 9 2.33 1.87
20 9 -5 3.1 1.71
-5 -20 -9 4.8 2.03
20 -9 -5 2.74 1.35
9 -5 -20 6.91 1.79
5 -20 -9 4.21 1.95
20 9 5 2.62 1.7
-5 -20 9 3.44 1.94
9 -5 -20 1.71 1.13
-9 -5 20 9.82 2.19
5 -20 10 2.34 1.91
10 5 -20 4.22 1.41
10 5 -20 2.07 1.66
-5 -20 -10 2.89 2.09
-10 -5 -20 3.43 2.3
20 10 -5 3.23 1.79
20 -10 -5 3.34 1.42
20 10 5 2.46 3.08
10 -5 -20 4 1.94
-10 -5 20 2.74 1.98
10 -5 -20 2.3 1.18
5 -20 -10 5.15 2
-5 -20 10 1.09 1.99
11 5 -20 2.31 1.69
11 5 -20 1.8 1.36
-5 -20 -11 2.36 2.07
20 11 -5 -0.22 1.82
5 -20 11 -1.98 2.01
11 -5 -20 1.74 1.22
-5 -20 11 -1.12 2.19
11 -5 -20 2.31 1.2
20 -11 -5 3.45 1.56
-11 -5 20 -1.16 2.3
5 -20 -11 -1.6 2.02
20 11 5 1.92 1.82
-5 -20 -12 -0.6 3.34
12 5 -20 4.13 1.78
12 5 -20 4.69 1.55
20 12 -5 5.78 1.61
-5 -20 12 7.09 3.44
12 -5 -20 5.31 1.23
20 -12 -5 6.25 1.65
12 -5 -20 3.48 1.34
13 5 -20 -0.81 1.69
20 13 -5 3.1 1.32
13 5 -20 0 1.44
20 -13 -5 1.4 1.46
13 -5 -20 -0.18 1.37
13 -5 -20 0.23 1.31
14 5 -20 0.94 1.53
20 14 -5 1.76 1.49
14 5 -20 1.44 1.86
5 20 -14 -0.85 1.58
14 -5 -20 0.53 1.86
20 -14 -5 -2.89 1.42
14 -5 -20 -0.8 1.4
5 20 -15 4.77 1.57
15 5 -20 6.57 1.99
20 15 -5 2.13 2
20 -15 -5 2.56 2.49
15 -5 -20 1.77 1.89
15 -5 -20 1.77 1.55
5 20 -16 -0.71 1.56
16 5 -20 3.65 2.61
16 5 -20 1.13 1.68
20 16 -5 2.03 3.28
16 -5 -20 -1.6 1.41
16 -5 -20 1.44 2.77
20 -16 -5 -0.35 1.52
17 5 -20 2.06 1.71
20 17 -5 4.28 2.35
5 20 -17 5.3 1.8
17 5 -20 3.05 2.01
17 -5 -20 2.16 1.97
17 -5 -20 0.66 1.49
18 5 -20 2 1.68
5 20 -18 1.69 1.77
18 5 -20 4.21 2.11
20 18 -5 4.87 2.29
18 -5 -20 2.42 1.64
18 -5 -20 -0.29 2.13
20 19 -5 1.57 2.25
19 5 -20 2.56 2.08
5 20 -19 -2.34 2.47
19 5 -20 -1.48 1.64
19 -5 -20 2.48 2.13
19 -5 -20 3.17 1.61
-6 -20 0 1.19 1.68
20 0 -6 0.68 1.23
20 0 -6 0.66 1.17
0 -6 20 1.02 1.54
6 -20 0 2.44 1.46
0 -6 -20 0.51 1.41
20 1 -6 3.21 1.17
-6 -20 -1 3.46 1.54
6 -20 1 1.72 1.44
1 -6 20 2.5 1.68
1 6 -20 5.31 1.24
-1 -6 -20 5.88 1.73
20 1 -6 2.7 1.09
20 -1 -6 2.03 1.3
1 -6 -20 1.15 1.56
1 -6 -20 3.68 0.85
-1 -6 20 2.14 1.7
20 -1 -6 2.01 1.12
6 -20 -1 2.55 1.49
-6 -20 1 6.08 1.72
2 6 -20 2.53 1.16
20 2 -6 3.17 1.1
6 -20 2 2.37 1.51
2 -6 20 2.44 1.58
-2 -6 -20 3.1 1.56
2 6 -20 1.87 1.01
-6 -20 -2 4.01 1.75
20 2 -6 4.87 1.16
2 -6 -20 2.89 0.88
-6 -20 2 1.1 1.58
20 -2 -6 0.88 1.06
20 2 6 1.71 1.33
2 -6 -20 2.95 1.68
6 -20 -2 3.42 1.55
20 -2 -6 2.89 1.33
-2 -6 20 0.54 1.44
3 -6 20 3.72 1.57
-6 -20 -3 -0.7 1.45
6 -20 3 -1.28 1.51
20 3 -6 0.78 1.05
20 3 -6 1.93 1.07
3 6 -20 -0.51 0.97
3 6 -20 -2.34 1.04
-3 -6 -20 -1.19 1.38
20 3 6 -0.52 1.3
3 -6 -20 -0.72 1.57
20 -3 -6 -1.4 0.99
3 -6 -20 0.33 0.88
6 -20 -3 2.92 1.51
-6 -20 3 1.92 1.63
-3 -6 20 0.43 1.71
20 -3 -6 0.29 1.22
4 6 -20 0.91 1.17
-6 -20 -4 3.79 1.62
4 6 -20 1.65 1.09
6 -20 4 1.03 1.53
4 -6 20 2.53 1.66
-4 -6 -20 1.79 1.63
20 4 -6 3.18 1.14
20 4 -6 2.69 1.12
6 -20 -4 3.82 1.64
20 4 6 1.73 1.4
-6 -20 4 3.13 1.64
4 -6 -20 4.3 1.64
20 -4 -6 2.83 1.26
20 -4 -6 3.39 1.32
4 -6 -20 1.72 0.91
-4 -6 20 4.53 1.64
-6 -20 -5 4.77 1.66
5 6 -20 5.69 1.32
5 6 -20 3.78 1.17
20 5 -6 5.37 1.18
20 5 -6 5.82 1.35
-5 -6 -20 6.8 1.89
6 -20 5 1.49 1.6
5 -6 20 4.83 1.53
5 -6 -20 9.3 1.89
20 -5 -6 6.63 1.44
20 -5 -6 5.17 1.36
5 -6 -20 6.86 1.11
6 -20 -5 1.95 1.66
-6 -20 5 2.38 1.74
20 5 6 6.24 1.54
-5 -6 20 5.34 1.81
6 -6 20 7.69 1.67
6 -20 6 5.8 1.79
-6 -6 -20 3.51 1.86
-6 -20 -6 6.29 1.96
6 6 -20 7.18 1.45
20 6 -6 9.08 1.27
20 6 -6 5.36 1.58
6 6 -20 7.54 1.42
20 -6 -6 11.05 1.56
20 -6 -6 8.47 1.61
6 -6 -20 6.25 1.18
6 -6 -20 6.82 1.77
-6 -6 20 5.86 2.04
-6 -20 6 4.81 1.83
6 -20 -6 8.16 1.84
20 6 6 9.89 1.73
7 6 -20 2.65 1.3
-7 -6 -20 -0.35 1.86
20 7 -6 1.44 1.53
7 -6 20 0.09 1.55
20 7 -6 3.64 1.15
-6 -20 -7 2.82 1.72
6 -20 7 1.04 1.62
7 6 -20 3.13 1.41
-7 -6 20 0.71 1.69
20 7 6 0.82 1.56
7 -6 -20 -1.73 1.66
-6 -20 7 2.06 1.6
20 -7 -6 1.75 1.41
20 -7 -6 3.81 1.58
6 -20 -7 -0.11 1.7
7 -6 -20 0.58 0.95
6 -20 8 1.07 1.65
-8 -6 -20 -2.08 1.82
8 6 -20 4.8 1.74
8 6 -20 0.56 1.2
20 8 -6 -1.44 1.48
8 6 -20 -1.14 1.41
-6 -20 -8 -0.34 1.9
20 -8 -6 2.27 1.38
-6 -20 8 1.34 1.84
-8 -6 20 -0.16 1.77
8 -6 -20 1.68 1.7
6 -20 -8 -0.45 1.8
20 8 6 -1.97 2.12
8 -6 -20 0.64 1.01
9 6 -20 0.61 1.51
9 6 -20 -0.71 1.2
-6 -20 -9 3.97 2.02
20 9 -6 0.89 1.65
-9 -6 -20 1.89 2.06
6 -20 9 3.66 1.86
9 6 -20 -1.82 1.76
-9 -6 20 -1.1 1.85
9 -6 -20 1.99 1.84
9 -6 -20 -1.29 0.98
-6 -20 9 4.77 2.1
6 -20 -9 3.99 1.95
20 -9 -6 0.09 1.3
20 10 -6 -0.94 1.71
-6 -20 -10 -3.38 1.96
10 6 -20 1.09 1.59
6 -20 10 0.06 1.97
10 6 -20 0.56 1.31
-10 -6 -20 -0.62 2.42
6 -20 -10 0.97 1.98
10 -6 -20 4.1 1.95
-6 -20 10 0.94 2.06
-10 -6 20 3.36 2.3
20 -10 -6 -1.49 1.29
10 -6 -20 -0.26 1.08
6 -20 11 0.13 2.07
20 11 -6 2.26 1.69
11 6 -20 1.66 1.7
6 20 -11 -2.03 1.16
-6 -20 -11 2.51 2.28
11 6 -20 2.33 1.41
20 -11 -6 0.31 1.39
11 -6 -20 1.4 1.26
6 -20 -11 2.64 2.21
-6 -20 11 5.36 2.2
-11 -6 20 -4.69 2.35
6 20 -12 1.84 1.33
12 6 -20 7.59 1.87
12 6 -20 6.74 1.6
20 12 -6 4.83 1.41
12 -6 -20 6.95 1.82
12 -6 -20 6.1 1.43
20 -12 -6 5.88 1.64
13 6 -20 0.83 1.79
6 20 -13 1.06 1.41
20 13 -6 -2.12 1.15
13 6 -20 0.41 1.45
20 -13 -6 -1.78 1.52
13 -6 -20 -1.19 1.26
13 -6 -20 0.03 1.82
14 6 -20 0.2 1.75
20 14 -6 0.9 1.59
14 6 -20 1.23 1.57
20 -14 -6 -2.97 1.43
14 -6 -20 -2.55 1.73
14 -6 -20 0.97 1.71
6 20 -15 4 1.71
15 6 -20 5.23 1.84
20 15 -6 8.6 2.34
15 6 -20 4.54 2.13
15 -6 -20 4.14 2.03
20 -15 -6 8.16 1.81
15 -6 -20 1.76 1.48
16 6 -20 1.5 2.04
20 16 -6 3.52 2.21
6 20 -16 5.68 1.75
16 6 -20 1.75 1.73
20 -16 -6 1.28 1.62
16 -6 -20 5.01 2.07
16 -6 -20 4.76 1.57
6 20 -17 3.65 1.76
17 6 -20 1.85 1.69
20 17 -6 5.12 2.26
17 6 -20 0.92 2.01
17 -6 -20 -1.17 1.99
17 -6 -20 2.69 1.64
20 18 -6 1.11 2.15
18 6 -20 0.19 1.63
18 6 -20 1.09 2.1
6 20 -18 5.68 1.85
18 -6 -20 0.55 1.54
18 -6 -20 1.26 2.14
19 6 -20 -1.59 2
19 6 -20 -2.45 1.87
20 19 -6 0.13 2.26
19 -6 -20 3.81 2.22
19 -6 -20 -1.92 1.51
0 -7 20 2.61 1.71
-7 -20 0 2.45 1.77
20 0 -7 3.21 1.18
20 0 -7 2.94 1.25
0 -7 -20 0.24 1.47
7 -20 0 1.33 1.51
-7 -20 -1 1.99 1.69
1 -7 20 2.82 1.64
20 1 -7 2.12 1.11
7 -20 1 1.69 1.51
20 1 -7 0.53 1.12
-1 -7 -20 -1.03 1.46
7 -20 -1 4.33 1.61
1 -7 -20 7.1 1.78
-1 -7 20 2.32 1.69
-7 -20 1 5.99 1.81
20 -1 -7 3.2 1.39
20 -1 -7 1.99 1.19
7 -20 2 0.75 1.48
2 7 -20 4.32 1.24
20 2 -7 4.69 1.19
-7 -20 -2 4.42 1.79
20 2 -7 3.66 1.21
2 -7 20 2.91 1.71
-2 -7 -20 0.1 1.5
-2 -7 20 9.96 1.97
20 -2 -7 4.67 1.41
7 -20 -2 3.7 1.57
2 -7 -20 4.83 1.73
-7 -20 2 2 1.7
20 -2 -7 2.68 1.27
-7 -20 -3 11.68 1.85
3 7 -20 12.74 1.72
20 3 -7 12.02 1.44
3 -7 20 14.72 1.95
-3 -7 -20 9.29 1.87
3 7 -20 10.17 1.51
20 3 -7 9.29 1.39
7 -20 3 9.16 1.73
-3 -7 20 9.13 1.9
20 -3 -7 12.16 1.65
7 -20 -3 11.26 1.8
20 -3 -7 11.83 1.63
3 -7 -20 9.4 1.11
-7 -20 3 9.57 1.93
3 -7 -20 12.52 1.99
20 4 -7 8.49 1.54
4 -7 20 8.57 1.84
20 4 -7 5.87 1.27
-4 -7 -20 13.27 1.98
-7 -20 -4 8.71 1.95
4 7 -20 6.95 1.39
7 -20 4 8.75 1.72
4 7 -20 10.38 1.44
-7 -20 4 10.6 1.99
7 -20 -4 8.07 1.85
20 -4 -7 8.98 1.56
-4 -7 20 9.61 1.95
4 -7 -20 7.29 1.05
20 -4 -7 5.64 1.42
4 -7 -20 8.43 1.95
-5 -7 -20 5.22 1.83
5 -7 20 4.13 1.69
-7 -20 -5 5.05 1.72
5 7 -20 5.24 1.32
20 5 -7 7.33 1.6
5 7 -20 3.51 1.35
7 -20 5 4.22 1.63
-7 -20 5 6.09 1.95
5 -7 -20 3.03 1.73
20 -5 -7 7.21 1.47
5 -7 -20 1.73 1.18
-5 -7 20 4.22 1.74
7 -20 -5 4.22 1.69
20 -5 -7 4.51 1.48
6 7 -20 1.98 1.18
-6 -7 -20 2.96 1.72
6 7 -20 2.25 1.29
20 6 -7 2.36 1.12
-7 -20 -6 -1.53 1.77
7 -20 6 2.93 1.71
20 6 -7 -1.25 1.44
6 -7 20 1.34 1.54
7 20 -6 0.42 1.25
-6 -7 20 -0.59 1.87
20 -6 -7 -0.16 1.28
7 -20 -6 1.23 1.73
6 -7 -20 -0.78 0.92
20 -6 -7 0.73 1.38
-7 -20 6 1.23 1.82
6 -7 -20 -0.04 1.77
7 7 -20 15.93 2.04
7 -20 7 12.66 2.01
7 -7 20 19.42 2.51
-7 -7 -20 13.9 2.3
20 7 -7 14.28 2.03
7 20 -7 13.58 1.9
7 7 -20 15.3 1.96
-7 -20 -7 15.15 2.32
20 7 -7 12.07 1.72
-7 -7 20 16.83 2.43
20 -7 -7 17.09 1.99
-7 -20 7 16.86 2.32
7 -20 -7 12.44 2.16
7 -7 -20 13.48 1.6
20 -7 -7 12 1.75
7 -7 -20 19.71 2.49
20 8 -7 3.98 1.72
7 20 -8 4.88 1.38
8 7 -20 2.5 1.31
-8 -7 -20 2.94 2.16
8 7 -20 3.4 1.49
-7 -20 -8 1.99 2.08
20 8 -7 5.44 1.23
8 7 -20 3.62 1.8
7 -20 8 6.83 1.96
8 -7 -20 5.91 1.89
-7 -20 8 4.72 1.94
7 -20 -8 3.28 1.85
20 -8 -7 3.71 1.54
-8 -7 20 5.66 2.1
8 -7 -20 5.21 1.21
9 7 -20 7.16 1.48
-7 -20 -9 9.92 2.28
9 7 -20 7.78 1.69
9 7 -20 8.36 2.01
7 -20 9 9.4 2.08
20 9 -7 6.81 1.9
-9 -7 -20 5.77 2.41
-7 -20 9 11.02 2.32
9 -7 -20 8.27 1.96
9 -7 -20 6.13 1.32
20 -9 -7 6.47 1.65
7 -20 -9 11.4 2.06
-9 -7 20 6.05 2.24
7 -20 10 1.12 2.01
20 10 -7 1.77 1.76
10 7 -20 0.61 1.35
-10 -7 -20 -1.05 4.07
-7 -20 -10 6.7 2.25
10 7 -20 1.45 1.63
-10 -7 20 0.6 2.3
-7 -20 10 -3.19 2.18
7 -20 -10 3.6 2.08
10 -7 -20 -0.03 2.23
20 -10 -7 1.02 1.46
10 -7 -20 1.38 1.2
20 11 -7 4.62 1.36
11 7 -20 5.64 1.81
7 20 -11 1.7 1.5
11 7 -20 4.97 1.61
20 -11 -7 6.19 1.63
11 -7 -20 2.28 1.3
12 7 -20 -2.2 1.29
7 20 -12 -2.01 1.48
12 7 -20 0.39 1.68
20 12 -7 -0.25 1.23
12 -7 -20 -0.29 1.26
12 -7 -20 1.08 1.84
20 -12 -7 1.5 1.63
13 7 -20 8.02 1.71
20 13 -7 8.46 1.69
13 7 -20 8.07 2
20 -13 -7 8.74 1.86
13 -7 -20 6.48 1.47
13 -7 -20 5.34 1.96
14 7 -20 9.14 2.11
7 20 -14 6.85 1.68
20 14 -7 8.56 2.08
14 -7 -20 4.01 2.02
14 -7 -20 5.67 1.84
7 20 -15 4.83 1.66
15 7 -20 0.76 1.69
20 -15 -7 -0.34 1.48
15 -7 -20 2.52 1.46
16 7 -20 -0.26 1.65
20 16 -7 1.87 2.15
7 20 -16 -2.58 1.74
16 7 -20 3.48 2.03
16 -7 -20 1.07 1.49
16 -7 -20 0.02 1.99
20 -16 -7 1.21 1.64
7 20 -17 -1.76 1.72
17 7 -20 1.86 1.67
20 17 -7 -0.01 2.13
17 7 -20 -1.96 2.06
17 -7 -20 0.6 2.13
17 -7 -20 0.82 1.68
20 -17 -7 1.07 1.66
20 18 -7 4.56 2.21
18 7 -20 -0.76 2.08
18 7 -20 3.99 1.72
18 -7 -20 2.04 2.12
18 -7 -20 0.28 1.58
20 19 -7 2.99 2.22
19 7 -20 -0.76 2.08
19 -7 -20 4.78 2.22
0 -8 20 1.56 1.75
0 -8 -20 2.35 1.68
-8 -20 0 5.05 1.88
20 0 -8 2.45 1.25
20 0 -8 3.05 1.2
8 -20 0 4.83 1.54
1 -8 20 5.56 1.81
20 1 -8 2.64 1.28
20 1 -8 3.29 1.24
8 -20 1 4.6 1.64
-1 -8 -20 4.78 1.66
-8 -20 -1 4.9 1.71
1 -8 -20 2.67 1.72
20 -1 -8 3.86 1.28
-1 -8 20 2.77 1.6
-8 -20 1 3.47 1.84
8 -20 -1 1.56 1.46
20 -1 -8 3.88 1.4
2 -8 20 -1.05 1.67
20 2 -8 -0.61 1.09
20 2 -8 0.9 1.22
8 -20 2 -1.32 1.51
-2 -8 -20 1.38 1.65
-8 -20 -2 2.64 1.81
20 -2 -8 1.63 1.23
-8 -20 2 3.26 1.82
-2 -8 20 2.6 1.81
8 -20 -2 1.99 1.59
2 -8 -20 1.59 1.74
20 -2 -8 0.97 1.36
3 -8 20 5.45 1.85
3 8 -20 3.51 1.24
20 3 -8 4.12 1.53
20 3 -8 4.37 1.27
-8 -20 -3 1.83 1.79
8 -20 3 4.52 1.72
3 8 -20 1.14 1.27
-3 -8 -20 2.09 1.78
20 -3 -8 2.16 1.41
20 -3 -8 4.51 1.39
3 -8 -20 3.85 1.74
-3 -8 20 3.29 1.87
8 -20 -3 5.34 1.7
-8 -20 3 4.09 1.85
4 8 -20 6.89 1.39
20 4 -8 3.75 1.63
4 8 -20 2.56 1.28
8 -20 4 8.68 1.71
-4 -8 -20 4.88 1.83
8 20 -4 2.65 1.39
-8 -20 -4 3.49 1.74
4 -8 20 3.45 1.65
20 4 -8 3.41 1.26
8 -20 -4 4.89 1.69
20 -4 -8 6.08 1.58
-8 -20 4 7.31 1.93
4 -8 -20 4.09 1.89
-4 -8 20 6.67 2.04
20 -4 -8 5.69 1.44
4 -8 -20 5.79 1.03
20 5 -8 2.06 1.46
5 -8 20 4.25 1.69
8 20 -5 -0.79 1.24
-8 -20 -5 2.38 1.79
-5 -8 -20 -3.05 1.67
20 5 -8 0.46 1.1
5 8 -20 1.69 1.26
8 -20 5 1.64 1.58
5 8 -20 1.05 1.3
-5 -8 20 0.79 1.91
20 -5 -8 0.25 1.39
-8 -20 5 2.66 1.83
5 -8 -20 0.84 0.95
20 -5 -8 -0.21 1.19
5 -8 -20 2.35 1.86
8 -20 -5 0.77 1.66
-6 -8 -20 2.13 1.95
8 -20 6 1.03 1.72
20 6 -8 -0.47 1.09
6 -8 20 2.17 1.72
-8 -20 -6 6.1 2.1
8 20 -6 1.61 1.29
6 8 -20 -1.16 1.1
20 6 -8 -0.67 1.57
6 8 -20 1.8 1.33
20 -6 -8 1.19 1.44
6 -8 -20 -0.69 1.79
-8 -20 6 -2.36 1.74
-6 -8 20 -1.96 1.76
20 -6 -8 0.32 1.37
6 -8 -20 0.58 0.95
8 -20 -6 3.13 1.79
7 8 -20 3.55 1.34
7 -8 20 -0.09 1.75
7 8 -20 5.43 1.49
20 7 -8 2.42 1.59
-8 -20 -7 1.18 1.84
-7 -8 -20 5.84 2.02
8 20 -7 4.77 1.47
20 7 -8 5.39 1.24
8 -20 7 2.72 1.86
7 -8 -20 3.22 1.07
-7 -8 20 6.05 2.2
7 -8 -20 3.22 1.83
20 -7 -8 4.73 1.58
8 -20 -7 4.21 1.82
-8 -20 7 1.67 1.9
20 -7 -8 5.04 1.53
-8 -8 -20 11.22 2.38
8 8 -20 10.06 1.65
20 8 -8 4.29 2
8 20 -8 7.37 1.82
-8 -20 -8 8.26 2.25
8 8 -20 4.77 1.48
20 8 -8 5.14 1.27
8 -20 8 5.71 1.99
20 -8 -8 4.98 1.71
-8 -8 20 8.13 2.29
20 -8 -8 7.44 1.62
-8 -20 8 4.9 2.07
8 -20 -8 4.6 2.08
8 -8 -20 6.7 1.24
8 -8 -20 7.4 2.02
8 20 -9 2.54 1.54
-8 -20 -9 -3.17 2.16
20 9 -8 -1.37 1.79
9 8 -20 -1.52 1.2
9 8 -20 0.67 1.57
8 -20 9 1.93 2.02
-9 -8 20 3.92 2.38
9 -8 -20 -0.3 1.95
-8 -20 9 -0.77 2.19
20 -9 -8 -0.49 1.45
9 -8 -20 -0.47 1.09
8 -20 -9 0.5 2.04
8 -20 10 6.14 2.61
-8 -20 -10 8.98 3.22
20 10 -8 0.84 1.32
10 8 -20 -0.43 1.33
10 8 -20 1.2 1.56
20 -10 -8 -0.97 1.38
8 -20 -10 -1.35 2.12
-10 -8 20 0.51 2.61
-8 -20 10 6.04 2.38
10 -8 -20 0.98 1.17
11 8 -20 6.71 1.79
20 11 -8 5.43 1.47
11 8 -20 4.97 1.57
11 -8 -20 3.93 1.32
20 -11 -8 5.06 1.52
12 8 -20 -0.56 1.39
20 12 -8 3.03 1.4
12 8 -20 1.68 1.74
20 -12 -8 -0.78 1.42
12 -8 -20 -1.16 1.81
12 -8 -20 -0.91 1.27
8 20 -13 3.72 2.17
13 8 -20 -1.01 1.69
13 8 -20 -0.52 1.5
20 13 -8 -1.25 1.53
20 -13 -8 -0.87 1.51
13 -8 -20 2.01 1.98
20 14 -8 -1.55 2.07
14 8 -20 3.97 1.68
14 8 -20 -0.5 2.75
8 20 -14 0.47 1.66
14 -8 -20 -1.97 1.36
20 -14 -8 0.93 1.53
14 -8 -20 0.32 2.01
15 8 -20 1.87 1.71
20 15 -8 4.82 2.26
15 8 -20 2.43 2.04
8 20 -15 2.22 1.77
15 -8 -20 3.3 1.52
15 -8 -20 4.17 2.09
16 8 -20 -0.38 2.05
8 20 -16 -0.49 1.8
20 16 -8 -0.49 2.12
16 8 -20 0.83 1.7
16 -8 -20 2.7 2.03
16 -8 -20 0.98 1.5
20 -16 -8 2.68 1.73
8 20 -17 -0.56 2.01
20 17 -8 -0.61 2.12
17 8 -20 0.92 1.66
17 8 -20 -0.85 2.03
17 -8 -20 1.7 2.19
17 -8 -20 -0.71 1.47
20 -17 -8 0.4 1.54
18 8 -20 4.37 1.81
18 8 -20 0.79 2.06
20 18 -8 -0.89 2.11
18 -8 -20 0.56 1.56
18 -8 -20 1.54 2.13
20 19 -8 5.83 2.94
19 8 -20 1.11 2.42
0 -9 20 5.72 1.94
9 -20 0 3.51 1.6
20 0 -9 0.23 1.19
-9 -20 0 1.69 1.83
20 0 -9 0.29 1.91
0 -9 -20 -0.3 1.71
-9 -20 -1 4.72 1.91
1 -9 20 4.13 1.81
20 1 -9 3.47 1.51
-1 -9 -20 6.08 1.82
20 1 -9 5.8 1.33
9 -20 1 6.96 1.62
1 -9 -20 1 1.73
-9 -20 1 2.92 1.87
20 -1 -9 2 1.47
9 -20 -1 1.61 1.59
20 -1 -9 3.25 1.3
-1 -9 20 3.83 1.85
-2 -9 -20 5.66 2.04
2 -9 20 6.71 1.9
20 2 -9 5.9 1.6
20 2 -9 4.44 1.34
9 -20 2 4.71 1.63
-9 -20 -2 6.28 1.91
-9 -20 2 5.93 1.83
-2 -9 20 3.41 1.93
20 -2 -9 6.86 1.4
2 -9 -20 7.31 2.02
20 -2 -9 4.57 1.53
9 -20 -2 5.16 1.6
-3 -9 -20 2.84 1.84
3 -9 20 2.1 1.78
9 -20 3 4.57 1.64
20 3 -9 2.12 1.56
9 20 -3 1.93 1.47
3 9 -20 1.8 1.18
20 3 -9 1.15 1.2
-9 -20 -3 7.47 2.04
-9 -20 3 -1.07 1.64
9 -20 -3 2.22 1.69
20 -3 -9 4.03 1.4
3 -9 -20 4.71 1.94
-3 -9 20 5.47 1.82
20 -3 -9 4.18 1.54
9 20 -4 5.79 1.5
-4 -9 -20 7.3 2
4 9 -20 10.49 1.86
-9 -20 -4 6.12 2.13
4 -9 20 4.31 1.81
20 4 -9 7.4 1.33
9 -20 4 8.71 1.79
4 9 -20 5.91 1.41
20 4 -9 7.21 1.69
20 -4 -9 8.93 1.68
4 -9 -20 7.76 1.97
-4 -9 20 10.69 2.16
-9 -20 4 5.22 1.93
20 -4 -9 6.05 1.53
9 -20 -4 3.96 1.75
5 9 -20 3.39 1.3
20 5 -9 2.26 1.22
-9 -20 -5 -0.55 2
9 20 -5 3.19 1.45
-5 -9 -20 6.41 2.11
20 5 -9 2.9 1.62
5 -9 20 2.89 1.78
9 -20 5 3.03 1.8
-9 -20 5 2.44 1.86
-5 -9 20 -2.8 1.8
5 -9 -20 2.77 1.01
20 -5 -9 3.36 1.45
20 -5 -9 4.84 1.55
5 -9 -20 2.59 1.88
9 -20 -5 2.42 1.72
9 20 -6 1.39 1.41
20 6 -9 1.4 1.22
-6 -9 -20 1.11 1.98
6 9 -20 3.8 1.39
-9 -20 -6 1.88 2.16
6 -9 20 -1.61 1.77
9 -20 6 5.13 1.86
6 9 -20 -1.61 1.18
20 6 -9 3.16 1.66
6 -9 -20 0.69 1.02
-6 -9 20 -1.82 1.98
20 -6 -9 1.31 1.28
9 -20 -6 0.09 1.72
20 -6 -9 2.64 1.58
6 -9 -20 -1.35 1.83
-9 -20 6 3.71 2.03
20 7 -9 8.92 1.45
-9 -20 -7 5.55 2.33
-7 -9 -20 9.33 2.25
9 -20 7 8.17 1.95
7 -9 20 8.45 1.94
9 20 -7 12.32 1.75
7 9 -20 9.2 1.58
7 9 -20 7.36 1.57
20 7 -9 6.54 1.97
20 -7 -9 8.36 1.69
7 -9 -20 3.7 1.98
-9 -20 7 4.15 2.19
9 -20 -7 5.67 1.96
7 -9 -20 5.2 1.18
20 -7 -9 9.73 1.85
-7 -9 20 10.52 2.3
-8 -9 -20 3.43 2.2
-9 -20 -8 -1.15 2.28
20 8 -9 0.37 1.69
9 -20 8 0.21 2.73
8 9 -20 1.75 1.3
20 8 -9 2.02 1.28
9 20 -8 0.47 1.52
8 9 -20 1.83 1.51
20 -8 -9 -1.07 1.69
8 -9 -20 2.25 2.06
20 -8 -9 2.37 1.48
9 -20 -8 3.19 2.05
8 -9 -20 1.26 1.1
-8 -9 20 0.75 2.36
-9 -20 8 -1.56 2.2
20 9 -9 8.2 1.53
9 9 -20 11.74 1.69
20 9 -9 8.89 1.71
-9 -20 -9 6.17 2.73
-9 -9 -20 3.27 2.59
9 20 -9 10.64 1.76
9 9 -20 8.44 1.72
-9 -20 9 6.98 2.51
9 -9 -20 5.84 1.3
20 -9 -9 10.53 1.85
9 -9 -20 10.24 2.37
-9 -9 20 10.94 2.6
9 -20 -9 9.11 2.26
10 9 -20 1.44 1.37
10 9 -20 2.49 1.69
20 10 -9 2.4 1.29
20 -10 -9 1.26 1.56
10 -9 -20 0.55 1.22
11 9 -20 4.68 1.64
11 9 -20 4.09 1.74
20 11 -9 3.65 1.39
20 -11 -9 3.22 1.64
11 -9 -20 5.55 1.88
20 12 -9 4.62 1.66
12 9 -20 3.91 1.6
12 9 -20 1.74 1.79
20 -12 -9 1.79 1.53
12 -9 -20 2.79 2.23
13 9 -20 4.12 2.61
13 9 -20 2.89 2
20 13 -9 2.6 1.94
13 -9 -20 2.33 1.47
13 -9 -20 3.16 1.96
20 -13 -9 1.64 2.66
14 9 -20 2.3 1.65
14 9 -20 -2.05 1.91
14 -9 -20 -0.56 1.44
14 -9 -20 2.29 3.27
20 -14 -9 -1.3 1.49
15 9 -20 1.76 2.08
20 15 -9 1.34 2.15
15 9 -20 3.18 1.65
20 -15 -9 0.51 1.52
15 -9 -20 5.54 1.56
15 -9 -20 0.79 2.01
20 16 -9 -1.42 2.1
16 9 -20 1.69 1.71
16 9 -20 4.17 2.08
20 -16 -9 3.67 1.72
16 -9 -20 2.46 2.21
16 -9 -20 -0.21 1.56
20 17 -9 -3.59 2.08
17 9 -20 1.22 1.7
17 9 -20 1.83 2.1
20 -17 -9 0.16 1.62
17 -9 -20 1.47 1.61
17 -9 -20 -1.9 2.16
18 9 -20 2.4 2.15
20 18 -9 5.03 2.36
18 -9 -20 6.69 2.28
0 -10 20 0.65 1.86
10 -20 0 -0.03 1.67
20 0 -10 -0.56 1.47
0 -10 -20 1.28 1.88
20 0 -10 -2.3 1.08
-10 -20 0 -2.68 2.02
-10 -20 -1 2.52 2.05
20 1 -10 -2.94 1.15
1 -10 20 0.66 1.78
-1 -10 -20 -2.2 1.86
20 1 -10 -0.52 1.41
10 -20 1 2.75 1.67
20 -1 -10 -0.38 1.48
-10 -20 1 -2.79 2.01
20 -1 -10 -1.36 1.19
1 -10 -20 0.21 1.71
-1 -10 20 -4.54 1.82
10 -20 -1 -1.93 1.66
20 2 -10 0.92 1.5
20 2 -10 -0.61 1.13
2 -10 20 0.66 1.83
-2 -10 -20 1.33 1.88
10 -20 2 0.1 1.69
-10 -20 -2 3.44 2.08
-2 -10 20 -1.06 1.81
-10 -20 2 3.23 1.99
20 -2 -10 3.07 1.38
20 -2 -10 -0.06 1.5
2 -10 -20 -1.3 1.84
10 -20 -2 1.81 1.73
3 -10 20 7.3 1.96
20 3 -10 8.04 1.46
3 10 -20 5.46 1.31
10 -20 3 4.94 1.78
10 20 -3 5.86 1.67
-10 -20 -3 11.51 2.31
-3 -10 -20 6.17 1.95
20 3 -10 5.57 1.74
10 -20 -3 7.19 1.91
20 -3 -10 7.78 1.65
-10 -20 3 7.95 2.17
-3 -10 20 12.52 2.24
20 -3 -10 8.87 1.65
3 -10 -20 7.4 2.09
20 4 -10 -1.2 1.19
20 4 -10 2.23 1.62
-10 -20 -4 -3.19 2.08
10 20 -4 -0.16 1.45
-4 -10 -20 -0.64 1.67
4 -10 20 -1.77 1.69
4 10 -20 0.38 1.1
20 -4 -10 -0.23 1.45
-4 -10 20 1.25 1.95
-10 -20 4 1.67 2.06
20 -4 -10 -0.58 1.2
4 -10 -20 -0.14 1.86
10 -20 -4 0.12 1.8
10 20 -5 5.15 1.59
5 -10 20 5.81 1.87
5 10 -20 3.27 1.35
20 5 -10 4.2 1.61
20 5 -10 4.11 1.35
-10 -20 -5 4.67 2.34
-5 -10 -20 1.6 1.97
-5 -10 20 1.37 2.05
-10 -20 5 4.29 2.14
10 -20 -5 8.88 1.98
20 -5 -10 3.92 1.68
5 -10 -20 5.09 2.04
20 -5 -10 2.25 1.35
6 10 -20 1.82 1.39
20 6 -10 -0.23 1.23
-10 -20 -6 -2.37 2.3
6 -10 20 0.66 1.9
-6 -10 -20 -3.87 1.9
6 10 -20 -1.08 1.29
20 6 -10 1.1 1.71
10 20 -6 1.39 1.51
-10 -20 6 2.31 2.15
20 -6 -10 0.33 1.59
-6 -10 20 -2.35 2.07
10 -20 -6 2.59 1.91
6 -10 -20 0.15 1.88
20 -6 -10 -1.79 1.23
7 10 -20 3.37 1.37
20 7 -10 1.6 1.3
7 -10 20 -0.38 2.6
7 10 -20 -1.43 1.37
20 7 -10 2.78 1.8
-7 -10 -20 7.55 2.37
10 20 -7 -0.06 1.49
20 -7 -10 2.97 1.71
7 -10 -20 3.37 1.13
-10 -20 7 4.07 2.28
20 -7 -10 1.83 1.54
7 -10 -20 4.45 2.07
-7 -10 20 0.17 2.21
10 -20 -7 0.58 2.04
20 8 -10 -0.82 1.64
8 10 -20 1.75 1.32
20 8 -10 -1.16 1.28
8 10 -20 0.92 1.49
10 20 -8 -0.42 1.56
-8 -10 -20 4.25 2.7
20 -8 -10 2.68 1.58
-8 -10 20 -2.6 2.48
8 -10 -20 2.73 1.18
20 -8 -10 -1.17 1.74
-10 -20 8 -1.98 2.64
8 -10 -20 -0.75 2.38
10 20 -9 0.39 1.57
20 9 -10 -0.19 1.39
9 10 -20 1.8 1.34
20 9 -10 3.36 1.31
9 10 -20 0.84 1.56
20 -9 -10 3.63 1.67
20 -9 -10 2.18 1.89
9 -10 -20 3.88 1.3
10 10 -20 -0.4 1.37
20 10 -10 1.85 1.3
10 10 -20 2.82 1.63
10 20 -10 -2.03 1.53
20 -10 -10 0.2 1.53
10 -10 -20 1.4 1.34
11 10 -20 1.36 1.59
11 10 -20 1.54 1.79
20 11 -10 4.66 1.53
20 -11 -10 2.41 1.72
11 -10 -20 4.12 2.3
20 12 -10 1.57 1.83
12 10 -20 0.23 1.96
12 -10 -20 -0.22 1.36
13 10 -20 1.51 2.09
20 13 -10 5.3 2.83
13 10 -20 2.17 1.59
20 -13 -10 3.95 1.7
13 -10 -20 1.78 1.48
14 10 -20 1.44 1.65
14 10 -20 1.9 2.07
20 14 -10 2.37 2.26
20 -14 -10 2.6 1.59
14 -10 -20 5.25 2.11
14 -10 -20 4.02 1.54
15 10 -20 -0.01 1.65
20 15 -10 3.77 2.25
15 10 -20 -2.54 2.02
15 -10 -20 2.19 1.55
20 -15 -10 -3.55 1.51
15 -10 -20 5.01 2.1
16 10 -20 1.53 1.72
16 10 -20 -2.84 2.09
20 16 -10 3.5 2.32
16 -10 -20 0.75 2.17
20 -16 -10 1.2 1.65
16 -10 -20 2.16 1.62
20 17 -10 -1.92 2.18
17 10 -20 -1.89 2.17
17 10 -20 1.68 2.04
17 -10 -20 -4.5 2.16
20 -17 -10 0.4 1.72
0 -11 -20 1.97 1.95
20 0 -11 1.96 1.96
20 0 -11 -1.14 1.18
0 -11 20 0.71 1.95
20 1 -11 8.82 1.79
-1 -11 -20 9.55 2.25
1 -11 20 7.52 2.21
20 1 -11 6.77 1.47
20 -1 -11 10.56 1.72
20 -1 -11 8.33 1.82
1 -11 -20 8.34 2.12
-1 -11 20 11.89 2.23
11 20 -2 11.42 1.95
-2 -11 -20 8.04 2.07
20 2 -11 7.66 1.77
2 -11 20 6.87 2.16
20 2 -11 10.64 1.63
20 -2 -11 10.82 1.86
20 -2 -11 8.87 1.71
-2 -11 20 7.18 2.23
2 -11 -20 7.7 2.25
20 3 -11 2.18 1.61
20 3 -11 0.98 1.4
3 -11 20 1.6 1.95
-3 -11 -20 4.25 2.15
11 20 -3 -0.75 1.52
3 -11 -20 4.49 2.09
20 -3 -11 0.27 1.55
20 -3 -11 1.74 1.42
-3 -11 20 -4.03 1.83
4 -11 20 0.58 1.96
-4 -11 -20 6.77 2.17
11 20 -4 6.59 1.77
4 11 -20 6.48 1.51
20 4 -11 6.32 1.52
20 4 -11 5.38 1.86
20 -4 -11 4.32 1.54
-4 -11 20 6.07 2.16
4 -11 -20 2.13 1.98
20 -4 -11 4.93 1.72
5 -11 20 3.53 2.07
5 11 -20 2.09 1.36
20 5 -11 1.43 1.6
11 20 -5 3.38 1.6
20 5 -11 0.55 1.24
-5 -11 -20 0.78 2.14
-5 -11 20 3.38 2.08
20 -5 -11 -0.17 1.32
20 -5 -11 3.67 1.68
5 -11 -20 3.6 2.1
11 20 -6 1.95 1.63
20 6 -11 2.21 1.8
20 6 -11 -0.48 1.29
6 -11 20 3.39 2.11
-6 -11 -20 1.9 2.26
6 11 -20 1.3 1.29
20 -6 -11 2.18 1.73
20 -6 -11 -1.44 1.32
-6 -11 20 1.58 2.2
6 -11 -20 4.59 2.13
11 20 -7 3.15 1.66
7 11 -20 5.08 1.85
20 7 -11 2.31 1.4
20 7 -11 4.86 1.88
7 11 -20 2.79 1.42
-7 -11 20 6.65 3.43
20 -7 -11 3.99 1.79
20 -7 -11 4.99 1.63
11 20 -8 5.17 1.7
20 8 -11 1.78 1.27
8 11 -20 4.68 1.46
20 8 -11 0.89 1.41
8 11 -20 4.33 1.68
20 -8 -11 4.96 1.91
20 -8 -11 5.81 1.69
20 9 -11 4.93 1.43
11 20 -9 4.32 1.69
9 11 -20 5.32 1.76
9 11 -20 4.64 1.61
20 9 -11 4.04 1.5
9 -11 -20 3.69 1.38
20 -9 -11 5.1 1.72
20 -9 -11 4.05 1.98
11 20 -10 3.56 1.71
10 11 -20 1.29 1.49
10 11 -20 2.33 1.74
20 10 -11 3.02 1.46
20 -10 -11 6.12 1.8
11 11 -20 -2.66 2.28
20 11 -11 -0.72 1.79
11 -11 -20 1.43 1.42
12 11 -20 3.87 2.01
20 12 -11 7.35 2.24
12 11 -20 3.21 1.57
20 -12 -11 3.85 1.57
12 -11 -20 0.03 1.43
13 11 -20 0.67 2
13 11 -20 0.57 1.61
20 13 -11 4.32 2.21
20 -13 -11 0.27 1.54
13 -11 -20 1.73 2.12
13 -11 -20 6.03 1.63
14 11 -20 1.17 2.07
20 14 -11 2.33 2.13
14 11 -20 1.52 1.71
14 -11 -20 3.45 1.66
14 -11 -20 3.43 2.13
20 -14 -11 1.93 1.62
15 11 -20 4.23 1.8
20 15 -11 2.89 2.18
15 11 -20 3.8 2.17
15 -11 -20 7.77 1.84
20 -15 -11 4.08 1.67
15 -11 -20 5.34 2.18
16 11 -20 0.39 2.19
20 16 -11 -2.65 2.07
16 11 -20 0.12 1.74
20 -16 -11 1.68 1.67
16 -11 -20 3.42 2.19
20 17 -11 -0.36 2.19
17 11 -20 3.58 3.35
20 0 -12 6.15 1.79
20 0 -12 6.95 1.53
0 -12 20 6 2.13
0 -12 -20 7.06 2.13
1 -12 20 3.92 2.18
20 1 -12 -1.25 1.24
-1 -12 -20 1.47 1.91
20 1 -12 1.81 1.66
20 -1 -12 0.31 1.37
20 -1 -12 0.71 1.62
-1 -12 20 3.24 2.01
1 -12 -20 0.68 2.08
-2 -12 -20 1.03 2.12
20 2 -12 -0.21 1.33
20 2 -12 1.64 1.62
2 -12 20 -1.2 2.07
12 20 -2 0.26 1.66
2 -12 -20 0.72 2.02
20 -2 -12 0.69 1.42
-2 -12 20 -2.43 1.96
20 -2 -12 -1 1.61
3 -12 20 2.84 2.15
20 3 -12 0.93 1.35
-3 -12 -20 2.66 2.13
12 20 -3 4 1.64
20 3 -12 4.2 1.8
20 -3 -12 5.24 1.81
3 -12 -20 1.79 1.96
-3 -12 20 4.92 2.31
20 -3 -12 5.02 1.59
20 4 -12 -1.62 1.28
20 4 -12 1 1.68
-4 -12 -20 0.36 2.21
12 20 -4 -0.07 1.72
4 -12 20 1.71 2.05
4 12 -20 0.28 1.28
20 -4 -12 1.67 1.45
4 -12 -20 0.98 2.13
20 -4 -12 1.72 1.66
-4 -12 20 1.31 2.16
20 5 -12 5.67 1.53
20 5 -12 4.53 1.87
12 20 -5 8.25 1.86
-5 -12 -20 3.11 3.55
5 12 -20 5.62 1.48
20 -5 -12 4.28 1.69
20 -5 -12 7.53 1.86
-5 -12 20 15 3.83
5 -12 -20 9.76 3.31
20 6 -12 4.65 1.55
6 12 -20 7.49 1.55
20 6 -12 7.21 1.94
12 20 -6 3.02 1.78
20 -6 -12 4.74 1.58
20 -6 -12 6.86 1.92
20 7 -12 -0.27 1.69
20 7 -12 0.41 1.33
12 20 -7 1.12 1.66
7 12 -20 1.79 1.45
20 -7 -12 1.82 1.79
20 -7 -12 0.82 1.46
20 8 -12 -1.63 1.24
20 8 -12 -2.07 1.46
8 12 -20 0.26 1.43
12 20 -8 1.27 1.74
20 -8 -12 1.36 1.47
20 -8 -12 1.83 1.92
9 12 -20 7.13 2.08
12 20 -9 2.4 1.7
9 12 -20 1.34 1.56
20 9 -12 1.35 1.57
20 -9 -12 2.36 1.58
20 -9 -12 4.5 2.05
20 10 -12 1.1 2.2
20 10 -12 0.73 1.81
11 12 -20 5.32 1.63
20 11 -12 6.71 2.23
11 12 -20 5.99 2.06
12 20 -11 3.86 1.82
20 -11 -12 1.63 1.57
20 12 -12 2.26 2.14
12 12 -20 1.52 1.6
12 12 -20 -4.84 1.93
20 -12 -12 -1.41 1.49
12 -12 -20 8.31 2.03
13 12 -20 0.75 1.6
13 12 -20 1.64 2.11
20 13 -12 -0.9 2.01
13 -12 -20 6.92 1.83
13 -12 -20 3.06 2.13
20 -13 -12 -1.43 1.52
14 12 -20 -0.86 1.68
20 14 -12 0.65 2.13
14 12 -20 0.25 2.1
14 -12 -20 -2.67 2.06
20 -14 -12 3.74 1.66
14 -12 -20 5.12 1.9
20 15 -12 -0.47 2.14
15 12 -20 1.37 1.78
15 12 -20 -1.33 2.09
20 -15 -12 -3.2 1.56
15 -12 -20 -2.1 2.12
20 16 -12 4.99 2.27
16 -12 -20 9.88 2.43
0 -13 -20 -1.08 2.63
0 -13 20 0.84 3.01
20 0 -13 -0.07 1.64
20 0 -13 0.33 1.37
1 -13 20 -1.93 2.94
20 1 -13 3.57 1.52
20 1 -13 1.65 1.81
20 -1 -13 4.35 1.8
-1 -13 20 5.16 3.07
1 -13 -20 0.41 3.14
20 -1 -13 0.42 1.4
13 20 -2 -2.01 1.7
20 2 -13 -0.26 1.72
20 2 -13 1.55 1.43
20 -2 -13 1.27 1.39
20 -2 -13 -0.77 1.73
13 20 -3 1.99 1.74
20 3 -13 1.54 1.75
20 3 -13 0.04 1.37
20 -3 -13 1.94 1.82
20 -3 -13 1.3 1.38
20 4 -13 8.5 1.97
20 4 -13 10.25 1.74
13 20 -4 10.75 1.98
4 13 -20 8.52 1.63
20 -4 -13 11.18 2.06
20 -4 -13 10.84 1.88
20 5 -13 1.05 1.84
5 13 -20 0.73 1.28
13 20 -5 3.61 1.86
20 5 -13 0.77 1.45
20 -5 -13 -0.75 1.42
20 -5 -13 1.07 1.81
20 6 -13 0.27 1.58
20 6 -13 0.32 1.38
13 20 -6 0.36 1.85
6 13 -20 -0.15 1.29
20 -6 -13 -2.18 1.76
20 -6 -13 -0.49 1.55
20 7 -13 8.89 1.64
13 20 -7 5.96 1.94
20 7 -13 9.09 1.76
7 13 -20 10.49 1.77
20 -7 -13 5.91 1.71
20 -7 -13 11.17 2.11
20 8 -13 -3.24 2.65
20 8 -13 0.6 1.55
8 13 -20 1.27 1.54
13 20 -8 -0.78 1.72
20 -8 -13 0.43 1.58
20 -8 -13 2.42 2.03
20 9 -13 -0.63 1.77
20 9 -13 2.57 1.63
9 13 -20 0.4 2.18
20 -9 -13 -2.58 3.35
20 -9 -13 4.24 2.85
10 13 -20 2.67 1.5
20 10 -13 2.19 2.55
13 20 -10 1.42 1.81
20 10 -13 1.47 1.74
20 -10 -13 2.02 2.52
20 -10 -13 0.23 1.7
13 20 -11 1.39 1.82
11 13 -20 0.5 1.55
20 11 -13 2.97 2.28
20 -11 -13 1.03 1.52
12 13 -20 2.29 1.61
20 12 -13 2.21 2.07
12 13 -20 -0.92 2.26
20 -12 -13 0.86 1.58
13 13 -20 4.08 2.12
20 13 -13 1.93 2.08
13 13 -20 2.07 1.71
13 -13 -20 4.15 2.22
20 -13 -13 -0.34 1.58
14 13 -20 5.46 2.14
14 13 -20 3.76 1.8
20 14 -13 0.75 2.22
20 -14 -13 2.68 1.66
14 -13 -20 3.85 2.28
20 15 -13 0.81 2.16
15 -13 -20 2.16 2.27
20 -15 -13 -1.51 2.57
20 0 -14 1.96 1.87
20 0 -14 -0.35 1.45
20 1 -14 3.22 1.57
20 1 -14 1.29 1.84
20 -1 -14 4.16 1.84
20 -1 -14 3.27 1.6
14 20 -2 -3.16 1.78
20 2 -14 0.78 1.82
20 2 -14 0.68 1.46
20 -2 -14 3.21 1.93
20 -2 -14 1.72 1.53
20 3 -14 1.52 1.5
20 3 -14 -2.1 1.77
14 20 -3 -1.98 1.79
20 -3 -14 1.79 1.81
20 -3 -14 1.63 1.44
20 4 -14 10.98 2.12
4 14 -20 9.17 1.66
14 20 -4 10.65 2.16
20 4 -14 12.85 1.9
20 -4 -14 12.64 2.11
20 -4 -14 9.05 1.76
5 14 -20 1.93 1.46
20 5 -14 0.04 1.9
14 20 -5 0.56 1.77
20 5 -14 0.04 1.5
20 -5 -14 1.45 1.89
20 -5 -14 0.54 1.53
6 14 -20 -1.09 1.5
20 6 -14 0.03 1.53
14 20 -6 0.62 1.97
20 -6 -14 -0.1 1.91
20 -6 -14 -1.76 1.45
20 7 -14 5.59 1.87
20 7 -14 7.82 1.92
14 20 -7 4.53 2.04
20 -7 -14 7.89 2.21
20 8 -14 -0.26 1.57
20 8 -14 -2.02 1.9
8 14 -20 2.37 1.5
20 -8 -14 2.98 2.94
20 -8 -14 2.57 1.63
9 14 -20 -1.62 1.47
14 20 -9 0.47 1.87
20 9 -14 -1.84 1.68
20 -9 -14 5.69 2.24
20 -9 -14 1.45 1.6
20 10 -14 5.64 2.2
10 14 -20 3.59 1.63
14 20 -10 5.74 2.02
20 10 -14 1.42 1.85
20 -10 -14 7.27 2.4
20 -10 -14 2.95 1.74
11 14 -20 1.67 1.67
14 20 -11 -0.12 1.93
20 11 -14 2.9 2.28
20 -11 -14 3.59 1.64
20 12 -14 -1.53 2.03
14 20 -12 1.07 2.79
12 14 -20 1.33 1.61
20 -12 -14 2.97 1.73
12 -14 -20 4.99 2.28
20 13 -14 0.17 2.1
13 14 -20 4.59 1.86
20 -13 -14 2.35 1.62
13 -14 -20 2.03 2.22
20 14 -14 -0.44 2.09
20 -14 -14 0.96 1.81
14 -14 -20 -0.27 2.29
20 15 -14 -0.52 2.68
20 0 -15 5.66 2.03
20 0 -15 6.5 1.72
20 1 -15 -1.59 1.55
20 1 -15 -0.89 1.85
20 -1 -15 -0.71 1.77
20 -1 -15 -0.58 1.49
15 20 -2 1.73 1.98
20 2 -15 2.12 1.52
20 2 -15 3.94 2
20 -2 -15 2.53 1.56
20 -2 -15 5.04 2.03
3 15 -20 -0.11 1.36
20 3 -15 0.35 1.8
20 3 -15 0.11 1.98
15 20 -3 -0.77 1.99
20 -3 -15 3.18 1.9
20 -3 -15 1.37 1.58
15 20 -4 0.19 1.97
20 4 -15 -0.05 1.91
20 -4 -15 3.5 2.05
20 -4 -15 1.17 1.92
20 5 -15 5.2 1.74
20 5 -15 4.35 2.03
5 15 -20 5.56 2.48
15 20 -5 6.73 2.14
20 -5 -15 4.13 2.01
20 6 -15 3.99 2
20 6 -15 4.42 1.68
6 15 -20 4.62 1.67
20 -6 -15 4.74 1.66
15 20 -7 -0.45 2.18
20 7 -15 -2.31 1.56
7 15 -20 1.1 1.5
20 -7 -15 5.04 2.14
20 -7 -15 -0.42 1.43
20 8 -15 0.7 1.65
8 15 -20 3.55 1.61
20 8 -15 3.36 2.21
15 20 -8 4.44 2.04
20 -8 -15 2.98 1.59
20 -8 -15 3.46 2.21
15 20 -9 2.03 2.01
20 9 -15 -0.88 1.74
9 15 -20 1.24 1.54
20 9 -15 1.49 2.14
20 -9 -15 3.28 1.69
20 -9 -15 5.53 2.29
20 10 -15 -2.46 1.86
10 15 -20 -2 1.49
15 20 -10 2.87 2.08
20 10 -15 -1.87 2.06
20 -10 -15 -0.42 2.32
20 -10 -15 -3.04 1.61
20 11 -15 5.89 2.29
11 15 -20 6.61 1.85
15 20 -11 2.83 2.05
20 -11 -15 3.67 1.67
15 20 -12 3.12 2.25
20 12 -15 3.91 2.24
12 15 -20 1.02 1.73
12 -15 -20 2.25 2.25
20 13 -15 0.87 2.16
13 -15 -20 -1.78 2.2
20 -13 -15 0.31 1.81
20 14 -15 3.91 2.49
20 0 -16 0.18 1.53
20 0 -16 -0.32 1.88
20 1 -16 2.31 1.75
20 1 -16 0.5 2.01
20 -1 -16 3.7 1.96
20 -1 -16 1.57 1.69
16 20 -2 3.53 2.2
20 2 -16 2.44 2.05
20 2 -16 4.37 1.65
20 -2 -16 4.56 2.22
20 -2 -16 6.28 1.7
20 3 -16 3.73 1.64
20 3 -16 -0.94 2.04
3 16 -20 1.82 1.5
16 20 -3 0.95 2.71
20 -3 -16 3.43 1.66
20 -3 -16 7.99 3.38
4 16 -20 1.57 1.46
20 4 -16 2.8 2.93
20 4 -16 2.42 1.67
20 -4 -16 0.76 1.68
20 -4 -16 3.49 3.46
5 16 -20 2.91 1.59
20 5 -16 4.05 1.68
16 20 -5 0.59 2.1
20 -5 -16 2.84 1.69
20 -5 -16 2.1 2.07
16 20 -6 3.2 2.07
6 16 -20 6.1 1.61
20 6 -16 1.16 2.13
20 6 -16 3.69 1.81
20 -6 -16 6.06 2.15
20 -6 -16 3.33 1.67
16 20 -7 1.57 2.09
20 7 -16 -2.84 1.6
20 7 -16 -0.1 1.95
7 16 -20 2.94 1.59
20 -7 -16 -0.28 1.56
20 -7 -16 0.56 2.16
20 8 -16 1.88 2.09
20 8 -16 -0.95 1.72
8 16 -20 -0.4 1.57
16 20 -8 1.14 2.07
20 -8 -16 0.09 1.57
20 -8 -16 2.49 2.21
16 20 -9 1.03 2.09
20 9 -16 1.69 2.21
9 16 -20 1.63 1.63
20 9 -16 0.66 1.83
20 -9 -16 6.28 2.35
20 -9 -16 5.95 1.77
10 16 -20 3.05 1.68
20 10 -16 1.82 2.22
20 10 -16 4.61 2.24
16 20 -10 -1.32 2.06
20 -10 -16 1.26 2.37
20 11 -16 0.31 2.13
16 20 -11 -2.87 1.98
11 16 -20 1.04 1.69
20 -11 -16 1.66 1.66
20 12 -16 9.96 2.3
12 -16 -20 3.55 2.55
20 13 -16 2.44 2.71
20 0 -17 -1.03 1.56
20 0 -17 -2.95 2.07
20 1 -17 -2.64 1.88
20 1 -17 0.59 1.59
20 -1 -17 4.53 1.64
20 -1 -17 3.01 2.05
20 2 -17 -0.82 1.62
20 2 -17 -2.15 1.88
20 -2 -17 -1.62 1.94
20 -2 -17 0.51 1.62
17 20 -3 -0.78 2.11
3 17 -20 2.49 1.5
20 3 -17 0.75 2.04
20 3 -17 -0.55 1.58
20 -3 -17 -0.51 1.63
20 -3 -17 6.23 2.11
4 17 -20 -0.03 1.44
17 20 -4 -0.14 2.15
20 4 -17 -0.43 1.66
20 4 -17 1.85 2.07
20 -4 -17 -1.76 1.55
20 -4 -17 2.63 2.02
5 17 -20 1.31 1.55
20 5 -17 3.08 2.05
20 5 -17 2.08 1.77
17 20 -5 0.12 2.14
20 -5 -17 2.24 1.7
20 -5 -17 5.23 2.18
17 20 -6 1.88 2.12
20 6 -17 -2.22 1.98
20 6 -17 -1.58 1.7
6 17 -20 2.98 1.61
20 -6 -17 3.25 2.19
20 7 -17 2.09 1.72
17 20 -7 0.3 2.11
20 7 -17 2.8 2.07
7 17 -20 0 1.54
20 -7 -17 -0.67 1.51
20 -7 -17 0.57 2.2
20 8 -17 -0.38 1.76
8 17 -20 2.22 1.66
17 20 -8 0.8 2.19
20 8 -17 1.55 2.12
20 -8 -17 0.66 1.59
20 -8 -17 4.76 2.31
20 9 -17 0.09 2.07
17 20 -9 2.78 2.68
20 9 -17 -1.68 2.08
9 17 -20 -2.44 1.61
20 -9 -17 3.72 1.84
20 -9 -17 3.82 2.34
20 10 -17 -1.44 2.18
17 20 -10 0.17 2.11
20 -10 -17 1.41 1.62
20 11 -17 1.01 2.14
20 0 -18 0.53 2.01
20 0 -18 -1.22 1.57
20 1 -18 -0.23 1.98
20 1 -18 -1.33 1.6
20 -1 -18 0.8 2.1
20 -1 -18 -0.45 1.47
20 2 -18 1.79 2.06
20 2 -18 1.86 1.7
2 18 -20 4.3 1.5
20 -2 -18 2.14 1.55
20 -2 -18 3.19 2.09
20 3 -18 1 2.02
20 3 -18 2.67 1.61
3 18 -20 1.38 1.53
20 -3 -18 1.56 1.7
20 -3 -18 2.07 2.1
18 20 -4 -3.68 2.15
20 4 -18 0.6 1.59
20 4 -18 1.6 2.18
4 18 -20 0.83 1.69
20 -4 -18 2.52 1.67
20 -4 -18 2.48 2.16
20 5 -18 -0.69 1.73
20 5 -18 3.87 2.13
18 20 -5 0.68 2.16
5 18 -20 1.85 1.67
20 -5 -18 7.38 2.25
20 -5 -18 2.79 1.61
20 6 -18 1.36 2.08
18 20 -6 -4.1 2.11
6 18 -20 -1.83 1.61
20 6 -18 -0.14 1.74
20 -6 -18 2.59 2.18
20 -6 -18 1.81 1.63
20 7 -18 2.41 2.18
7 18 -20 3.01 1.65
20 7 -18 2.75 1.79
18 20 -7 4.33 2.23
20 -7 -18 3.24 2.18
20 -7 -18 4.1 1.66
18 20 -8 -0.35 2.12
20 8 -18 0.1 2.12
20 -8 -18 7.76 1.78
20 -8 -18 1.99 2.24
18 20 -9 -0.75 2.43
20 9 -18 3.53 2.2
20 -9 -18 9.07 2.76
20 10 -18 -0.13 2.16
20 0 -19 -0.14 1.58
20 0 -19 0.39 2
20 1 -19 1.05 2.05
20 1 -19 -0.01 1.59
1 19 -20 1.04 1.45
20 -1 -19 0.15 1.55
20 -1 -19 -1.78 2.07
20 2 -19 0.22 1.64
2 19 -20 -1.07 1.56
20 2 -19 2.33 2.05
20 -2 -19 -0.75 1.58
20 -2 -19 1.55 1.99
3 19 -20 5.31 1.7
20 3 -19 -0.8 1.6
20 3 -19 -0.4 2
20 -3 -19 2.23 1.71
20 -3 -19 1.83 2.1
20 4 -19 2.87 1.7
20 4 -19 0.5 2.1
4 19 -20 3.36 1.71
20 -4 -19 4.04 2.18
20 -4 -19 4.2 1.71
19 20 -5 -3.55 2.24
5 19 -20 1.32 1.7
20 5 -19 -0.36 1.72
20 5 -19 -2.11 1.95
20 -5 -19 -0.94 2.16
20 -5 -19 -3.02 1.56
20 6 -19 -0.3 2.59
19 20 -6 1.05 2.17
20 6 -19 4 2.12
20 -6 -19 4.68 2.25
20 -6 -19 -1.44 1.48
19 20 -7 -1.26 2.11
20 7 -19 1.65 2.14
20 -7 -19 2.74 2.75
20 8 -19 1.14 2.17
20 0 -20 1.18 1.58
20 0 -20 1.6 2.19
20 1 -20 -1.41 2.08
20 1 -20 2.29 1.56
20 -1 -20 0.03 2.03
20 -1 -20 -0.71 1.64
20 2 -20 5.19 2.14
20 2 -20 -2.92 1.65
20 -2 -20 -3.68 2.12
20 -2 -20 4.1 1.86
20 3 -20 9.45 2.32
20 3 -20 2.8 2.59
20 -3 -20 5.36 2.2
20 -3 -20 3.41 1.88
20 4 -20 4.14 2.19
20 -4 -20 4.16 2.17
20 5 -20 -0.75 2.09
20 6 -20 -0.91 3.12
0 -21 0 22.19 2.51
0 0 -21 19.78 1.7
0 0 21 22.03 2.45
21 0 0 23.06 1.79
21 0 0 22.28 2.14
21 -1 0 0.58 1.31
21 1 0 0.34 0.93
21 1 0 0.71 1.31
21 -1 0 0.32 0.99
0 -21 -1 0.35 1.6
0 -21 1 -1.34 1.52
1 0 -21 0.63 0.94
-1 0 21 0.39 1.61
-1 0 -21 0.81 0.92
0 -21 2 -1.26 1.42
0 -21 -2 0.16 1.48
-2 0 21 1.74 1.72
2 0 -21 2.78 1.66
21 2 0 -0.71 0.96
-2 0 -21 2.89 0.91
2 0 -21 -1.63 0.88
21 -2 0 2.19 1.14
21 2 0 -0.07 1.32
0 -21 -3 2.42 1.55
-3 0 -21 2.42 0.95
-3 0 21 2.18 1.57
21 3 0 3.33 1.4
0 -21 3 0.58 1.5
3 0 -21 3.83 1.06
3 0 -21 3.79 1.56
21 -3 0 2.82 1.21
21 3 0 3.19 1.53
21 4 0 5.11 1.5
0 -21 4 4.32 1.71
4 0 -21 0.94 1
4 0 -21 4.3 1.8
21 -4 0 3.48 1.22
-4 0 21 3.73 1.82
0 -21 -4 2.71 1.53
5 0 -21 6.5 1.8
21 -5 0 6.92 1.4
0 -21 5 5.94 1.83
21 5 0 5.88 1.65
0 -21 -5 7.64 1.94
-5 0 21 7.55 1.95
5 0 -21 6.82 1.3
6 0 -21 4.7 1.3
-6 0 21 3.39 1.89
21 6 0 3.05 1.51
0 -21 6 2.51 1.71
6 0 -21 1.57 1.7
0 -21 -6 4.13 1.74
21 -6 0 3.6 1.34
21 7 0 2.41 1.64
7 0 -21 1.88 1.66
0 -21 7 0.1 1.73
7 0 -21 -0.82 0.98
21 -7 0 2.53 1.24
7 0 -21 0.61 1.48
-7 0 21 -0.95 1.72
0 -21 -7 0.52 1.84
21 8 0 -1.15 1.68
-8 0 21 -0.21 1.75
8 0 -21 1.11 1.18
21 -8 0 0.51 1.21
0 -21 -8 0.32 1.87
8 0 -21 -0.84 1.76
8 0 -21 0.25 1.53
0 -21 8 -0.69 1.78
9 0 -21 6.04 1.67
0 -21 9 8.42 2.23
-9 0 21 2.66 2.09
0 -21 -9 6.97 2.17
9 0 -21 3.4 1.38
21 9 0 3.29 1.81
9 0 -21 5.33 1.92
21 -9 0 2.97 1.43
21 -10 0 3.33 1.57
0 -21 10 -0.91 2.11
10 0 -21 5.58 1.69
0 -21 -10 1.33 1.97
10 0 -21 3.15 1.35
21 10 0 2.34 1.9
-10 0 21 0.83 2.19
21 11 0 20.56 2.46
11 0 -21 19.9 2.49
21 -11 0 21.88 2.47
11 0 -21 20.41 2.24
0 -21 -11 22.05 3.12
0 -21 11 23.62 3.35
12 0 -21 -0.33 1.65
12 0 -21 3 1.48
21 -12 0 -1.3 1.37
21 12 0 -0.35 1.89
13 0 -21 2.55 1.45
13 0 -21 0.99 1.73
21 13 0 1.15 2.07
14 0 -21 -1.08 1.6
14 0 -21 3.31 1.67
21 14 0 0.03 2.06
21 15 0 6.04 2.4
15 0 -21 3.1 2.1
15 0 -21 0.83 1.57
21 16 0 7.63 2.33
16 0 -21 8.13 1.75
16 0 -21 8.33 2.19
17 0 -21 1.48 2.07
17 0 -21 -1.44 1.51
18 0 -21 3.25 2.07
18 0 -21 3.11 1.7
19 0 -21 3.88 1.63
19 0 -21 -0.91 2.09
0 -1 -21 -0.05 0.89
21 0 -1 1.91 1.06
21 0 1 -0.83 0.95
0 -1 -21 -0.43 1.56
21 0 1 -1.93 1.23
21 0 -1 3.11 1.35
-1 -21 0 0.84 1.39
1 -21 0 -1.18 1.39
0 1 -21 -0.43 0.9
0 -1 21 2.19 1.6
-1 -1 -21 1.85 0.89
21 1 -1 5.09 1.4
21 -1 1 -0.29 1.34
21 1 -1 3.29 1.09
1 1 -21 1.89 0.96
1 -1 21 1.17 1.58
1 -21 1 2.01 1.64
-1 -21 -1 0.05 1.62
21 -1 1 1.53 1.07
21 -1 -1 2.91 1.34
-1 -1 21 2.36 1.75
1 -1 -21 1.91 0.91
21 1 1 3.51 1.36
21 1 1 2.62 1.04
21 -1 -1 1.57 1.1
1 -1 -21 0.43 1.39
-1 -21 1 3.34 1.64
1 -21 -1 2.67 1.7
-1 1 -21 1.52 0.98
21 2 -1 2.11 1.36
21 -2 1 0.74 1.03
2 -1 21 -1.98 1.44
-1 -21 -2 1.2 1.73
2 1 -21 -0.62 0.88
21 2 -1 0.59 0.97
1 -21 2 -1.33 1.57
-2 -1 -21 0.07 0.85
-2 1 -21 1.91 0.91
21 2 1 2.33 1
1 -21 -2 0.21 1.48
2 -1 -21 -0.1 1.44
21 2 1 -2.11 1.23
-1 -21 2 0.5 1.66
-2 -1 21 -0.81 1.65
21 -2 -1 -0.86 1.01
21 -2 -1 0.61 1.34
2 -1 -21 -0.44 0.91
-3 1 21 0.55 1.66
21 3 -1 3.33 1.03
3 1 -21 4.21 1.66
-1 -21 -3 2.52 1.73
21 -3 1 1.41 1.18
3 1 -21 1.05 1
-3 -1 -21 0.33 0.9
21 3 -1 1.93 1.38
1 -21 3 1.16 1.53
1 -21 -3 3.69 1.63
3 -1 -21 2.82 1.04
21 -3 -1 -0.73 1.04
21 3 1 2.09 1.47
3 -1 -21 1.16 1.55
-1 -21 3 2.17 1.68
-3 -1 21 1.05 1.73
-3 1 -21 4.03 0.96
21 4 -1 10.47 1.69
-4 -1 -21 5.61 1.05
4 1 -21 5.56 1.16
4 1 -21 6.67 1.78
1 -21 4 8.77 1.8
-1 -21 -4 6.05 1.83
-4 1 21 7.26 1.9
21 -4 1 7.68 1.44
-1 -21 4 6.59 1.73
21 4 1 6.74 1.58
-4 1 -21 7.54 1.08
1 -21 -4 5.96 1.68
4 -1 -21 8.27 1.3
-4 -1 21 12.03 2.06
21 -4 -1 8.3 1.38
4 -1 -21 8.38 1.83
-1 -21 -5 -1.51 1.62
5 1 -21 1.28 1.09
1 -21 5 0.61 1.53
21 -5 1 1.18 1.18
5 1 -21 1.39 1.67
-5 -1 -21 -0.56 0.91
21 5 -1 1.23 1.46
-5 1 21 1.9 1.57
5 1 -21 0.98 1.33
1 -21 -5 2.1 1.82
5 -1 -21 2.52 1.08
-1 -21 5 2.95 1.62
21 -5 -1 1.63 1.24
21 5 1 2.27 1.53
-5 1 -21 -0.11 0.89
5 -1 -21 5.86 1.77
-5 -1 21 0.11 1.67
21 -6 1 1.4 1.24
6 1 -21 3.05 1.52
-6 1 21 3.22 1.82
21 6 -1 4.3 1.62
6 1 -21 1.8 1.64
1 -21 6 -2.04 1.59
-1 -21 -6 3.68 1.72
6 1 -21 2.63 1.2
-6 -1 21 5.3 1.99
6 -1 -21 5.78 1.83
21 -6 -1 1.72 1.24
6 -1 -21 2.87 1.16
-1 -21 6 2.39 1.75
21 6 1 2.56 1.56
1 -21 -6 2.49 1.67
-6 1 -21 1.49 0.93
1 -21 7 3.15 1.78
7 1 -21 0.53 1.4
21 -7 1 -2.11 1.15
-7 1 21 2.5 1.85
7 1 -21 3.9 1.75
7 1 -21 2.35 1.22
-1 -21 -7 1.33 1.81
21 7 -1 -0.85 1.52
21 -7 -1 0.37 1.27
21 7 1 1.1 1.57
-7 1 -21 0.16 0.92
-1 -21 7 1.97 1.89
-7 -1 21 2.75 1.77
7 -1 -21 -1.51 1.01
1 -21 -7 2.09 1.94
7 -1 -21 -1.39 1.68
1 -21 8 2.11 1.97
21 -8 1 5.44 1.55
-1 -21 -8 4.81 2.07
8 1 -21 2.67 1.25
8 1 -21 6.54 1.7
21 8 -1 3.48 1.74
8 1 -21 8.16 1.9
21 8 1 4.81 1.73
8 -1 -21 5.13 1.86
8 -1 -21 5.66 1.36
-8 -1 21 3.67 2.05
8 -1 -21 3.47 1.64
1 -21 -8 4.29 2.03
-1 -21 8 2.15 1.97
21 -8 -1 2.03 1.37
9 1 -21 -1.04 2.37
-1 -21 -9 -2.25 1.77
21 9 -1 0.54 1.68
9 1 -21 -0.05 1.16
21 -9 1 -1.17 1.32
1 -21 9 1.89 2.09
9 1 -21 1.41 1.89
9 -1 -21 0.92 1.58
21 9 1 0.94 1.69
9 -1 -21 1.3 1.24
1 -21 -9 1.79 2.06
9 -1 -21 1.71 1.86
21 -9 -1 -0.03 1.3
-1 -21 9 2.09 2.09
-9 -1 21 3.42 2.23
10 1 -21 1.35 1.33
21 10 -1 2.41 1.9
1 -21 10 1.64 2.12
21 -10 1 -0.91 1.38
10 1 -21 -1.19 1.54
-1 -21 -10 -2.42 2.03
-10 -1 -21 -1.58 2.3
-10 -1 21 4 2.22
21 -10 -1 -1.55 1.32
21 10 1 2.44 1.79
1 -21 -10 0.98 2.05
10 -1 -21 0.47 1.57
-1 -21 10 3.29 2.13
21 -11 1 -0.5 1.47
-1 -21 -11 0.89 2.06
21 11 -1 0.06 1.81
11 1 -21 1.13 1.34
11 1 -21 -0.66 1.67
1 -21 11 2.69 2.3
21 11 1 -0.77 1.79
1 -21 -11 -3.03 2.09
11 -1 -21 -1.52 1.29
-11 -1 21 -4.27 2.39
-1 -21 11 4.53 2.4
21 -11 -1 -0.55 1.53
11 -1 -21 -0.28 1.67
21 12 -1 3.96 2.05
12 1 -21 4.38 1.89
12 1 -21 2.62 1.52
12 -1 -21 3.69 1.4
21 12 1 7.77 2.12
21 -12 -1 4.72 1.61
12 -1 -21 3.1 1.76
13 1 -21 -2.06 1.8
13 1 -21 -0.12 1.41
21 13 -1 0.53 1.94
13 -1 -21 -0.95 1.32
21 -13 -1 0.64 1.41
13 -1 -21 -1.55 1.35
21 13 1 -0.71 2.11
14 1 -21 -0.08 1.93
21 14 -1 -1.55 2.06
14 1 -21 -0.72 1.8
21 14 1 3 2.09
14 -1 -21 1.05 1.95
14 -1 -21 -0.98 1.44
15 1 -21 1.82 1.61
15 1 -21 0.68 2.22
21 15 -1 2.88 2.43
15 -1 -21 -0.12 2.04
15 -1 -21 1.11 1.55
21 15 1 3.78 2.31
21 16 -1 4.63 2.24
16 1 -21 -1.77 1.47
16 1 -21 0.93 1.96
21 16 1 4.03 2.39
16 -1 -21 2.73 1.54
16 -1 -21 1.97 2.03
17 1 -21 -0.44 1.61
21 17 -1 0.52 2.16
17 1 -21 1.64 2.14
17 -1 -21 -3.56 1.49
17 -1 -21 -3.26 2.03
18 1 -21 1.32 1.96
18 1 -21 -0.41 1.68
18 -1 -21 3 2.15
18 -1 -21 -1.15 1.48
19 1 -21 1.59 1.65
19 1 -21 4.49 2.09
19 -1 -21 1.22 1.5
19 -1 -21 4.69 2.25
2 -21 0 1.19 1.65
-2 -21 0 4.71 1.74
0 2 -21 2.13 0.98
21 0 2 1.69 1.31
21 0 -2 0.38 1.04
0 -2 -21 -0.64 0.83
0 -2 21 2.44 1.66
21 0 -2 1.49 1.24
0 -2 -21 -0.52 1.51
-1 -2 -21 0 1.54
2 -21 1 0.81 1.61
21 1 -2 1.61 1.34
1 2 -21 0.42 0.93
-2 -21 -1 1.25 1.55
1 -2 21 1.36 1.61
-1 -2 -21 -0.18 0.85
21 -1 2 -2.55 0.97
21 1 -2 -0.7 0.96
21 -1 -2 0.63 1.03
-1 -2 21 3.19 1.61
2 -21 -1 -1.1 1.55
21 -1 -2 -2.84 1.19
-2 -21 1 3.09 1.7
1 -2 -21 2.53 1.68
-1 2 -21 1.61 0.96
21 1 2 0.01 1.32
1 -2 -21 -1.48 0.86
2 -2 21 3.25 1.57
2 -21 2 0.67 1.64
-2 -21 -2 1.1 1.53
21 2 -2 0.23 0.99
-2 -2 -21 -0.53 0.84
-2 -2 -21 -2.99 1.55
21 2 -2 1.42 1.3
2 2 -21 -1.66 0.88
21 2 2 0.83 1.35
2 -2 -21 -0.97 1.58
21 -2 -2 0.94 1.11
-2 2 -21 0.53 0.9
2 -2 -21 1.6 0.93
-2 -21 2 0.75 1.49
21 -2 -2 -1.03 1.29
-2 -2 21 -1.83 1.43
2 -21 -2 -0.69 1.68
21 3 -2 -0.11 0.99
2 -21 3 1.35 1.65
3 2 -21 0.35 1.05
21 3 -2 2.19 1.4
-3 -2 -21 -0.68 1.63
-2 -21 -3 -0.27 1.64
3 -2 21 -0.59 1.44
-3 -2 -21 -0.87 0.88
21 -3 -2 2.42 1.38
3 -2 -21 3.51 1.07
21 3 2 -0.81 1.31
2 -21 -3 -0.6 1.7
3 -2 -21 0.65 1.67
21 -3 -2 0.82 1.11
-3 -2 21 0.79 1.7
-3 2 -21 -0.05 0.86
-2 -21 3 -0.14 1.63
21 4 -2 0.91 1
-4 -2 -21 -1.33 1.61
21 4 -2 2.5 1.45
4 2 -21 0.69 1.25
2 -21 4 0.73 1.65
-2 -21 -4 0.45 1.73
4 2 -21 -1.74 1.57
4 2 -21 -0.25 1.03
4 -2 -21 3.92 1.7
4 -2 -21 -0.07 0.94
2 -21 -4 1.46 1.71
-2 -21 4 -1.61 1.67
21 -4 -2 -0.55 1.12
21 4 2 0.39 1.4
-4 -2 21 1.47 1.5
2 -21 5 -1.17 1.69
21 -5 2 1.12 1.21
5 2 -21 1.16 1.05
-2 -21 -5 1.67 1.6
21 5 -2 3.53 1.41
5 2 -21 0.95 1.67
5 2 -21 1.38 1.27
-5 -2 -21 -1.3 1.53
5 -2 -21 0.09 1.56
2 -21 -5 -0.83 1.66
21 5 2 -0.11 1.48
21 -5 -2 -1.56 1.05
5 -2 -21 -0.47 0.97
-5 -2 21 -2.7 1.45
-2 -21 5 0.92 1.74
21 -6 2 1.98 1.24
6 2 -21 1.22 1.29
6 2 -21 1.01 1.75
2 -21 6 -1.9 1.72
21 6 -2 -0.59 2.05
-6 -2 -21 1.76 1.65
-2 -21 -6 -1.14 1.87
6 2 -21 0.09 1.1
6 -2 -21 0.84 0.97
6 -2 -21 1.47 1.67
-2 -21 6 -2.56 1.61
21 6 2 0.37 1.53
-6 -2 21 -3.29 1.81
21 -6 -2 -0.01 1.25
2 -21 -6 0.24 1.81
7 2 -21 1.11 1.45
-7 -2 -21 3.01 1.94
-2 -21 -7 -0.67 1.83
7 2 -21 1.07 1.18
21 7 -2 1.18 1.54
21 -7 2 0.77 1.32
2 -21 7 2.15 1.87
7 2 -21 0.83 1.73
-2 -21 7 -2.19 1.75
-7 -2 21 -0.06 1.87
2 -21 -7 -0.66 1.68
21 7 2 -0.56 1.49
21 -7 -2 -1.24 1.14
7 -2 -21 1.38 1.16
7 -2 -21 -1.11 1.65
-8 -2 -21 3.84 1.87
-2 -21 -8 0.73 1.91
2 -21 8 5.04 2
8 2 -21 2.02 1.52
21 8 -2 0.25 1.57
8 2 -21 0.35 1.71
21 -8 2 0.45 1.29
8 2 -21 -0.34 1.29
-8 -2 21 1.35 1.99
8 -2 -21 -0.48 1.03
2 -21 -8 -2.12 1.69
21 8 2 2 1.73
21 -8 -2 -1.69 1.16
-2 -21 8 2.69 1.78
8 -2 -21 0.81 1.73
9 2 -21 -0.77 1.9
21 9 -2 -0.59 1.67
9 2 -21 0.2 1.46
-9 -2 -21 -3.53 2.01
2 -21 9 1.38 1.88
21 -9 2 -0.49 1.25
-2 -21 -9 1.32 2.12
9 2 -21 -2.5 1.13
21 -9 -2 -0.04 1.39
21 9 2 0.19 1.74
2 -21 -9 -1.34 1.91
-9 -2 21 4.55 2.21
-2 -21 9 3.71 2.01
9 -2 -21 -2.85 1.37
9 -2 -21 0.65 1.2
9 -2 -21 -3 1.74
-10 -2 -21 0.72 2.27
10 2 -21 -2.05 1.21
21 10 -2 0.93 1.78
-2 -21 -10 0.53 2.08
10 2 -21 -0.39 1.55
2 -21 10 0.77 2.09
21 -10 -2 -0.93 1.41
-10 -2 21 -4.23 2.16
2 -21 -10 2.58 2.16
21 10 2 0.14 1.77
10 -2 -21 -0.92 1.24
10 -2 -21 0.15 1.5
-2 -21 10 1.66 2.15
11 2 -21 1.94 1.39
2 -21 11 3.28 2.3
21 11 -2 -1.21 1.76
11 2 -21 -1.23 1.71
-2 -21 -11 1.29 2.52
-11 -2 21 -1.64 3.25
11 -2 -21 2.61 1.36
2 -21 -11 4.08 2.43
-2 -21 11 3.04 2.33
21 11 2 5.8 1.98
11 -2 -21 -0.6 1.49
12 2 -21 1.32 1.44
12 2 -21 -2.77 1.61
21 12 -2 1.9 1.93
21 12 2 -0.58 1.96
21 -12 -2 3.41 1.56
12 -2 -21 2.08 1.19
12 -2 -21 -1.87 1.25
13 2 -21 0.4 1.73
13 2 -21 -0.39 1.48
21 13 -2 -0.46 2.1
13 -2 -21 0.73 1.3
21 13 2 0.69 2.09
21 -13 -2 0.02 1.63
13 -2 -21 0.09 1.28
14 2 -21 0.38 1.81
21 14 -2 -1.4 2.12
21 -14 -2 1.29 2.68
21 14 2 -0.19 1.98
14 -2 -21 -2.07 1.41
15 2 -21 -0.26 1.5
21 15 -2 -1.02 2.88
21 15 2 2.15 2.93
15 -2 -21 -0.31 1.49
15 -2 -21 1.24 2.54
16 2 -21 2.33 2.07
16 2 -21 -0.84 1.55
21 16 -2 -0.45 2.29
16 -2 -21 -0.31 1.46
16 -2 -21 -0.49 1.96
17 2 -21 -0.23 1.97
17 2 -21 0.87 1.6
21 17 -2 0.58 2.15
17 -2 -21 -1.62 1.53
17 -2 -21 1.84 2.02
2 21 -18 -1.86 1.55
18 2 -21 1.38 2.04
21 18 -2 0.24 2.33
18 2 -21 0.37 1.62
18 -2 -21 -0.92 2.02
18 -2 -21 0.24 1.52
19 2 -21 -0.13 2.03
19 2 -21 -0.39 1.62
19 -2 -21 0.57 2.01
19 -2 -21 -2.65 1.55
0 -3 21 -0.81 1.57
0 -3 -21 1.81 1.65
0 3 -21 3.95 1.12
21 0 3 2.51 1.16
0 3 -21 3.97 1.09
0 -3 -21 6.46 1.03
3 -21 0 3.72 1.56
21 0 -3 5.65 1.24
-3 -21 0 3.76 1.76
21 0 -3 0.82 1.35
-3 -21 -1 0.77 1.56
1 -3 21 3.01 1.65
1 3 -21 3.94 1.09
1 3 -21 3.79 1.2
21 1 -3 2.37 1.38
21 1 -3 3.98 1.14
-1 -3 -21 2.03 0.94
3 -21 1 2.31 1.65
-1 -3 -21 -1.16 1.55
21 -1 3 1.92 1.2
-1 -3 21 3.33 1.55
-3 -21 1 1.38 1.6
1 -3 -21 3.35 1.6
1 -3 -21 5.36 1.04
-1 3 -21 1.54 1
21 1 3 6.3 1.46
21 -1 -3 -0.52 1.34
3 -21 -1 5.28 1.81
21 -1 -3 2.63 1.15
21 -2 3 1.41 1.11
-2 -3 -21 2.37 1.68
-3 -21 -2 -2.31 1.63
2 3 -21 -0.74 1.09
2 -3 21 -0.97 1.57
21 2 -3 0.17 1.01
3 -21 2 -3.54 1.44
2 3 -21 -0.67 0.98
-2 -3 -21 1.95 0.89
21 2 -3 -1.72 1.28
3 -21 -2 -1.76 1.58
21 -2 -3 0.01 1.03
-2 -3 21 0.84 1.56
-2 3 -21 -1.55 0.85
21 2 3 -0.67 1.32
-3 -21 2 -1.37 1.62
2 -3 -21 0.97 1.54
21 -2 -3 -0.75 1.28
2 -3 -21 1.24 0.85
-3 -21 -3 1.11 1.74
3 3 -21 2.04 1.06
3 -21 3 2.42 1.6
21 3 -3 1.03 1.37
21 -3 3 1.22 1.19
-3 -3 -21 4.55 1.84
3 -3 21 0.57 1.62
21 3 -3 2.34 1.11
3 3 -21 1.94 1.23
-3 -3 21 1.25 1.73
-3 -21 3 0.91 1.75
21 -3 -3 1.08 1.22
21 3 3 -0.4 1.39
3 -3 -21 2.94 1.01
3 -21 -3 0.89 1.56
21 -3 -3 1.54 1.4
3 -3 -21 1.55 1.63
21 4 -3 3.92 1.12
21 -4 3 3.03 1.23
-3 -21 -4 5.94 1.84
3 -21 4 6.36 1.77
4 3 -21 3.97 1.14
21 4 -3 3.73 1.42
4 3 -21 1.73 1.25
-4 -3 -21 1.9 1.58
4 -3 21 3.26 1.55
-4 -3 21 1.55 1.59
21 -4 -3 2.89 1.18
21 4 3 2.23 1.51
4 -3 -21 1.16 0.97
21 -4 -3 1.66 1.44
-3 -21 4 1.4 1.77
4 -3 -21 2.23 1.74
3 -21 -4 -0.25 1.63
-3 -21 -5 4.44 1.64
5 3 -21 5.08 1.32
5 3 -21 5.69 1.42
5 3 -21 1.55 1.68
-5 -3 -21 1.43 1.71
21 -5 3 3.25 1.3
3 -21 5 0.86 1.63
21 5 -3 4.29 1.51
-5 -3 21 6.79 1.88
-3 -21 5 3.37 1.89
3 -21 -5 3.04 1.81
21 5 3 3.37 1.56
5 -3 -21 2.48 1.71
21 -5 -3 3.67 1.22
5 -3 -21 3.51 1.14
6 3 -21 3.97 1.46
6 3 -21 1.69 1.19
21 -6 3 4.69 1.36
3 -21 6 6.28 1.8
6 3 -21 2.69 1.66
-3 -21 -6 4.88 2.01
-6 -3 -21 7.19 1.99
21 6 -3 5.09 1.65
21 -6 -3 3.95 1.3
6 -3 -21 3.51 1.09
-3 -21 6 2.5 1.89
3 -21 -6 7.24 1.81
21 6 3 6.4 1.69
-6 -3 21 6.23 2.07
6 -3 -21 4.29 1.82
21 -7 3 4.21 1.38
-3 -21 -7 1.14 1.73
7 3 -21 1.26 1.17
21 7 -3 1.82 1.58
7 3 -21 3.23 1.43
3 -21 7 1.72 1.78
7 3 -21 0.96 1.67
-7 -3 -21 5.5 1.92
21 7 3 4.46 1.72
-7 -3 21 4.08 1.99
7 -3 -21 5.11 1.19
7 -3 -21 5.56 1.8
21 -7 -3 2.76 1.32
-3 -21 7 2.29 1.95
3 -21 -7 3.95 1.87
-3 -21 -8 2.74 1.77
8 3 -21 -0.18 1.28
-8 -3 -21 1.83 1.98
3 -21 8 -0.37 1.9
8 3 -21 1.66 1.48
21 8 -3 2.22 1.64
8 3 -21 4.13 1.87
8 -3 -21 2.72 1.23
-8 -3 21 4.25 2.08
21 -8 -3 2.91 1.44
21 8 3 3.41 1.76
8 -3 -21 1.66 1.78
3 -21 -8 6.51 2.08
-3 -21 8 6.18 2.04
3 -21 9 -2.7 1.99
9 3 -21 2.28 1.39
21 9 -3 1.76 1.73
9 3 -21 1.4 1.6
-3 -21 -9 -3.41 1.9
-9 -3 -21 5.57 2.23
9 3 -21 3.68 1.95
21 9 3 -0.65 1.72
-9 -3 21 -2.53 2.13
9 -3 -21 2.59 1.96
21 -9 -3 -0.13 1.4
-3 -21 9 4.56 1.94
9 -3 -21 -0.83 1.18
3 -21 -9 0.66 1.97
10 3 -21 -0.23 1.31
10 3 -21 2.16 1.59
-10 -3 -21 1.33 2.32
-3 -21 -10 3.28 2.17
3 -21 10 4 2.24
21 10 -3 2.04 1.73
-10 -3 21 3.62 2.23
3 -21 -10 1.42 2.07
10 -3 -21 1.44 1.39
10 -3 -21 1.12 1.27
21 10 3 3.82 1.89
-3 -21 10 1.06 2.31
21 -10 -3 1.43 1.48
11 3 -21 7.22 1.57
21 11 -3 6.57 2.05
11 3 -21 8.79 1.93
11 -3 -21 1.92 1.33
21 11 3 7.69 2.1
21 -11 -3 4.57 1.58
11 -3 -21 6.32 1.32
12 3 -21 4.62 1.53
12 3 -21 1.38 1.78
21 12 -3 1.14 1.98
21 -12 -3 -1.37 1.49
21 12 3 3.04 2.06
12 -3 -21 1.98 1.38
12 -3 -21 1 1.21
21 13 -3 0.5 2.01
13 3 -21 -0.73 1.43
13 3 -21 0.09 1.76
13 -3 -21 -0.87 1.31
21 -13 -3 0.78 1.64
13 -3 -21 1.04 1.34
21 13 3 0.67 2
14 3 -21 1.47 1.87
21 14 -3 0.01 1.99
14 -3 -21 0.22 1.57
15 3 -21 0.96 1.57
15 -3 -21 2.16 1.46
16 3 -21 -2.13 1.86
21 16 -3 -0.29 2.3
16 3 -21 -0.59 1.57
16 -3 -21 -0.75 2.02
16 -3 -21 1.64 1.47
21 17 -3 4.28 2.3
3 21 -17 -0.45 1.56
17 3 -21 0.89 1.65
17 3 -21 2.39 2.11
17 -3 -21 0.68 2.1
17 -3 -21 1.25 1.51
3 21 -18 -2.14 1.67
21 18 -3 -0.03 2.25
18 3 -21 -1.44 2.02
18 3 -21 -1.24 1.58
18 -3 -21 3.79 2.15
18 -3 -21 -2.07 1.42
19 3 -21 4.25 2.16
19 -3 -21 3.59 2.14
19 -3 -21 1.08 2.14
0 4 -21 2.75 1.11
21 0 -4 5.21 1.47
21 0 -4 5.2 1.32
0 4 -21 3.49 1
0 -4 21 4.19 1.77
0 -4 -21 4.77 1.79
4 -21 0 2.76 1.69
0 -4 -21 3.08 0.95
-4 -21 0 5.51 1.78
21 1 -4 8.36 1.34
-4 -21 -1 6.3 1.74
1 4 -21 8.55 1.34
21 1 -4 8.29 1.66
1 4 -21 7.13 1.31
-1 -4 -21 6.76 0.98
1 -4 21 9.45 1.94
-1 -4 -21 9.37 1.84
4 -21 1 8.58 1.93
21 -1 -4 8.44 1.62
-1 4 -21 10.43 1.34
1 -4 -21 11.52 1.39
1 -4 -21 6.74 1.9
-1 -4 21 11.37 1.95
21 1 4 6.84 1.72
21 -1 -4 9.77 1.46
-4 -21 1 5.04 1.66
-1 4 -21 5.95 1.13
4 -21 -1 11.44 1.96
2 4 -21 0.24 0.99
4 -21 2 -1.26 1.53
-4 -21 -2 -2.51 1.63
21 2 -4 0.76 1.4
21 2 -4 -0.6 1.03
2 -4 21 1.88 1.68
2 4 -21 0.41 1.11
-2 -4 -21 -1.83 1.48
21 -2 -4 1.9 1.39
-2 -4 21 -1.42 1.52
2 -4 -21 1.37 0.92
-4 -21 2 1.55 1.67
21 2 4 5.52 1.45
21 -2 -4 3.09 1.21
4 -21 -2 0.23 1.54
2 -4 -21 0.02 1.66
3 4 -21 0.34 1.24
-4 -21 -3 2.15 1.77
21 3 -4 3.91 1.16
3 -4 21 5.39 1.72
21 3 -4 2.74 1.49
3 4 -21 2.25 1.11
-3 -4 -21 3.31 1.77
4 -21 3 3.49 1.54
3 -4 -21 2.25 1.03
-3 -4 21 2.08 1.85
-4 -21 3 1.17 1.73
3 -4 -21 3.71 1.82
4 -21 -3 3.82 1.62
21 3 4 2.66 1.47
21 -3 -4 4.01 1.35
21 -3 -4 2.74 1.45
-4 -21 -4 11.51 2.05
4 -4 21 7.87 1.75
21 4 -4 5.1 1.18
4 -21 4 7.74 1.82
-4 -4 -21 3.33 1.78
21 4 -4 8.01 1.63
4 4 -21 5.41 1.35
4 4 -21 7.04 1.45
4 -4 -21 5.51 1.07
21 -4 -4 7.03 1.53
-4 -21 4 7.5 1.94
21 -4 -4 5.37 1.39
4 -4 -21 7.05 1.83
21 4 4 7.28 1.63
4 -21 -4 2.09 1.75
-4 -4 21 5.07 1.87
-5 -4 -21 6.01 1.91
-4 -21 -5 4.08 1.74
5 -4 21 6.05 1.69
5 4 -21 6.21 1.46
21 5 -4 5.91 1.66
4 -21 5 6.07 1.84
21 5 -4 5.77 1.19
5 4 -21 4.55 1.33
5 -4 -21 5.91 1.15
21 -5 -4 5.3 1.38
5 -4 -21 3.66 1.8
-5 -4 21 5.82 1.96
4 -21 -5 4.13 1.92
-4 -21 5 6.16 1.91
21 5 4 5.25 1.6
4 -21 6 3.34 1.77
21 6 -4 2.56 1.56
-4 -21 -6 2.4 1.93
6 4 -21 2.85 1.43
6 4 -21 2 1.19
-6 -4 -21 3.08 1.91
6 4 -21 4.66 1.8
6 -4 -21 1.66 1.02
-4 -21 6 6.79 1.96
21 6 4 3.42 1.66
6 -4 -21 4.59 1.8
-6 -4 21 2.55 1.99
21 -6 -4 3.91 1.34
4 -21 -6 3.95 1.75
-7 -4 -21 -1.07 1.81
4 -21 7 -1.12 1.79
-4 -21 -7 0.61 1.68
7 4 -21 1.44 1.82
21 7 -4 1.22 1.71
7 4 -21 -1.04 1.31
7 4 -21 0.55 1.16
21 -7 -4 -0.93 1.27
4 -21 -7 1.15 1.87
-7 -4 21 0.33 1.69
21 7 4 0.68 1.67
7 -4 -21 0.4 1.02
7 -4 -21 -1.05 1.72
-4 -21 7 -1.95 1.83
8 4 -21 1.24 1.82
8 4 -21 2.33 1.48
4 -21 8 1.76 1.96
21 8 -4 0.24 1.61
-8 -4 -21 0.75 2.07
-4 -21 -8 0.1 1.75
8 4 -21 1.93 1.38
8 -4 -21 1.68 1.14
21 8 4 1.42 1.78
4 -21 -8 0.64 1.95
-4 -21 8 3.25 1.93
8 -4 -21 0.42 1.88
21 -8 -4 -0.24 1.27
-8 -4 21 3.54 2.12
21 9 -4 0.59 1.69
-9 -4 -21 1.35 2.29
-4 -21 -9 -1.68 1.95
9 4 -21 -0.97 1.43
9 4 -21 3.15 1.96
4 -21 9 2.35 2
9 4 -21 0.41 1.34
4 -21 -9 2.52 2.09
9 -4 -21 2.88 1.96
21 9 4 0.67 1.76
21 -9 -4 -1.48 1.26
9 -4 -21 0.94 1.22
-9 -4 21 -1.24 2.1
-4 -21 9 0.2 1.85
10 4 -21 6.48 1.81
-10 -4 -21 6.11 2.88
4 -21 10 9.07 2.26
10 4 -21 6.18 1.55
-4 -21 -10 3.55 2.32
21 10 -4 7.42 2.01
-4 -21 10 4.91 2.21
10 -4 -21 3.04 1.16
21 10 4 5.93 2.12
4 -21 -10 7.07 2.22
21 -10 -4 5.4 1.6
10 -4 -21 5.62 1.39
-10 -4 21 1.65 2.43
11 4 -21 1.52 1.69
21 11 -4 2.6 1.93
11 4 -21 1.59 1.4
21 11 4 0.84 1.91
21 -11 -4 0.27 1.54
11 -4 -21 2.57 1.36
11 -4 -21 1.66 1.12
12 4 -21 7.22 1.72
21 12 -4 6.96 2.12
12 4 -21 6.82 1.95
12 -4 -21 4.94 1.32
21 12 4 7.14 2.17
21 -12 -4 5.79 1.71
12 -4 -21 3.58 1.43
13 4 -21 -0.17 1.46
13 4 -21 0.22 1.72
21 13 -4 -0.63 2.03
13 -4 -21 -0.45 1.35
21 -13 -4 -1.88 1.39
13 -4 -21 2.08 1.36
14 4 -21 -0.74 1.84
21 14 -4 1.52 2.04
14 4 -21 2.81 2.04
14 -4 -21 1.6 1.93
21 -14 -4 1.11 2.01
14 -4 -21 1.77 1.51
4 21 -15 1.6 1.58
15 4 -21 4.38 1.73
15 4 -21 1.43 2.18
21 15 -4 3.1 4.37
15 -4 -21 0.94 1.43
15 -4 -21 -2.79 2.55
21 -15 -4 1.41 1.62
16 4 -21 1.53 1.92
21 16 -4 2.59 2.36
4 21 -16 4.25 1.7
16 4 -21 0.02 1.59
16 -4 -21 0.7 2.02
16 -4 -21 -2.35 1.4
4 21 -17 -0.31 1.74
17 4 -21 1.59 1.96
21 17 -4 3.52 2.27
17 -4 -21 0.1 1.98
17 -4 -21 0.44 1.43
18 4 -21 -0.95 1.7
18 4 -21 2.19 2.08
21 18 -4 1.03 2.21
18 -4 -21 0.61 2.04
18 -4 -21 1.83 1.68
19 4 -21 1.35 2.09
19 -4 -21 1.67 2.18
21 0 -5 7.86 1.4
21 0 -5 7.49 1.57
0 -5 -21 5.78 1.68
0 5 -21 3.87 1.13
0 5 -21 10.79 1.86
0 -5 21 8 1.92
5 -21 0 6.85 1.8
-5 -21 0 9.01 1.91
-1 -5 -21 2.18 1.69
21 1 -5 1.75 1.12
1 -5 21 2.11 1.71
5 -21 1 0.34 1.59
-5 -21 -1 0.38 1.7
1 5 -21 3.47 1.22
1 5 -21 2.79 1.13
21 1 -5 1.04 1.44
-5 -21 1 3.38 1.87
-1 -5 21 -2.07 1.65
1 -5 -21 1 0.92
21 -1 -5 1.86 1.19
21 -1 -5 1.72 1.34
1 -5 -21 2.88 1.84
5 -21 -1 0.03 1.6
2 5 -21 2.34 1.17
21 2 -5 -0.28 1.05
2 5 -21 1.29 1.1
21 2 -5 -0.56 1.37
-2 -5 -21 0.9 1.53
2 -5 21 3.43 1.75
-5 -21 -2 -2.01 1.45
5 -21 2 1.26 1.68
21 -2 -5 -0.33 1.35
-2 -5 21 2.22 1.86
-5 -21 2 -0.54 1.71
21 -2 -5 0.81 1.14
21 2 5 0.43 1.43
2 -5 -21 -0.83 0.89
2 -5 -21 3.11 1.71
5 -21 -2 -0.8 1.61
3 5 -21 2.88 1.13
21 3 -5 5.42 1.48
3 5 -21 3.34 1.31
-3 -5 -21 3.1 1.8
3 -5 21 3.76 1.71
21 3 -5 1.08 1.11
5 -21 3 6.96 1.86
-5 -21 -3 5.83 1.74
21 3 5 0.92 1.49
21 -3 -5 3.52 1.28
-3 -5 21 4.48 1.9
3 -5 -21 4 1.04
3 -5 -21 0.02 1.73
-5 -21 3 4.44 1.71
5 -21 -3 5.12 1.76
21 -3 -5 3.25 1.43
4 5 -21 1.72 1.28
4 5 -21 7.14 1.46
21 4 -5 4.95 1.23
-5 -21 -4 3.34 1.74
4 -5 21 8.91 1.77
-4 -5 -21 5.04 1.94
21 4 -5 4.5 1.71
5 -21 4 6.69 1.84
-5 -21 4 6.03 1.82
21 -4 -5 6.63 1.57
21 -4 -5 5.65 1.51
-4 -5 21 3.56 1.96
4 -5 -21 5.22 1.03
4 -5 -21 2 1.71
5 -21 -4 3.12 1.86
21 4 5 6.51 1.68
5 -5 21 8.75 1.83
5 5 -21 7.46 1.51
5 -21 5 8.64 2.02
21 5 -5 6.74 1.26
-5 -21 -5 2.5 1.84
-5 -5 -21 8.73 2.18
21 5 -5 9.86 1.85
5 5 -21 8.52 1.51
21 -5 -5 7.3 1.52
21 5 5 9.61 1.77
21 -5 -5 8.38 1.63
5 -5 -21 10.23 2.03
-5 -5 21 9.78 2.21
5 -21 -5 13.18 2.17
5 -5 -21 9.89 1.31
-5 -21 5 9.74 2
6 5 -21 2.16 1.29
-5 -21 -6 7.95 2.09
21 6 -5 5.13 1.73
21 6 -5 1.21 1.18
6 -5 21 -0.67 1.59
5 -21 6 1.26 1.85
-6 -5 -21 5.48 2.08
6 5 -21 6.45 1.55
21 -6 -5 3.29 1.42
-5 -21 6 2.38 1.72
6 -5 -21 6.05 1.87
-6 -5 21 4.04 2.03
21 6 5 2.74 1.64
6 -5 -21 2.38 1.09
5 -21 -6 1.89 1.89
7 5 -21 1.38 1.78
-7 -5 -21 2.96 2.05
-5 -21 -7 3.82 2.1
5 -21 7 3.06 1.95
7 5 -21 2.14 1.31
21 7 -5 3.3 1.65
7 5 -21 1.12 1.43
5 -21 -7 2.54 1.92
21 7 5 4.54 1.77
-7 -5 21 2.36 2.06
7 -5 -21 4.37 1.21
21 -7 -5 3.93 1.38
7 -5 -21 0.8 1.73
-5 -21 7 4.49 1.91
8 5 -21 4.29 1.91
8 5 -21 3.67 1.38
5 -21 8 2.71 2.09
-8 -5 -21 2.94 2.25
-5 -21 -8 3.14 2.12
21 8 -5 4.32 1.84
8 5 -21 5.35 1.82
21 -8 -5 3.45 1.52
-8 -5 21 2.6 2.12
-5 -21 8 1.67 1.97
5 -21 -8 4.05 2.06
8 -5 -21 2.86 1.94
8 -5 -21 0.9 1.17
21 8 5 2.66 1.81
5 -21 9 2.36 2.12
-5 -21 -9 -1.16 2.16
9 5 -21 0.3 1.17
9 5 -21 2.42 2.47
-9 -5 -21 0.57 2.28
9 5 -21 1.94 1.57
21 9 -5 -0.09 1.78
21 -9 -5 -0.46 1.23
9 -5 -21 0.32 1.18
5 -21 -9 1.02 1.98
9 -5 -21 -0.53 1.96
-5 -21 9 5.13 2.28
21 9 5 3.28 1.85
-9 -5 21 -2.01 2.18
10 5 -21 0.71 1.37
5 -21 10 6.34 2.55
-5 -21 -10 3.89 2.54
10 5 -21 1.82 1.64
21 10 -5 2.16 1.98
5 -21 -10 4.89 2.3
10 -5 -21 1.18 1.2
-5 -21 10 5.98 2.59
21 -10 -5 3.52 1.58
-10 -5 21 -0.38 2.75
21 10 5 1.56 1.98
11 5 -21 10.35 1.99
21 11 -5 7.85 2.06
11 5 -21 8.8 1.68
21 -11 -5 9.25 1.83
11 -5 -21 8.38 1.49
11 -5 -21 6.39 1.43
21 12 -5 -1.75 1.92
12 5 -21 -1.13 1.4
12 5 -21 0.97 1.73
12 -5 -21 0.48 1.19
21 -12 -5 -0.19 1.59
12 -5 -21 0.02 1.29
21 13 -5 0.51 1.82
5 21 -13 0.1 1.52
13 5 -21 1.06 1.81
13 5 -21 1.94 1.56
13 -5 -21 0.32 1.67
21 -13 -5 -1.99 1.54
5 21 -14 4.03 1.6
14 5 -21 -1.51 2.06
14 5 -21 -0.22 1.63
21 14 -5 0.67 2.13
21 -14 -5 0.55 1.74
14 -5 -21 0.18 1.87
14 -5 -21 -0.69 1.39
15 5 -21 1.8 1.64
5 21 -15 2.1 1.72
15 5 -21 0.32 1.89
21 15 -5 -0.72 2.23
21 -15 -5 1.58 1.64
15 -5 -21 0.27 1.38
15 -5 -21 0.54 2.03
21 16 -5 6.32 2.33
5 21 -16 5.16 1.94
16 5 -21 3.66 2.05
16 5 -21 4.62 1.69
16 -5 -21 4.36 1.58
16 -5 -21 7.09 2.13
17 5 -21 1.11 1.99
17 5 -21 1.08 1.69
21 17 -5 1.19 2.3
5 21 -17 -0.74 1.84
17 -5 -21 1.99 2.07
17 -5 -21 0.45 1.51
21 18 -5 2.13 2.3
18 5 -21 -0.05 1.73
18 5 -21 0.32 2.03
18 -5 -21 3.37 2.1
18 -5 -21 2.99 1.63
19 5 -21 0.04 2.08
21 19 -5 2.31 2.28
19 -5 -21 -0.47 2.78
0 -6 -21 1.82 1.55
21 0 -6 2.55 1.43
0 -6 21 1.3 1.76
6 -21 0 4.13 1.77
21 0 -6 -0.73 1.08
-6 -21 0 1.88 1.84
-1 -6 -21 0.82 1.71
1 -6 21 -0.26 1.74
1 6 -21 2.34 1.16
-6 -21 -1 4.32 1.76
6 -21 1 4.53 1.82
21 1 -6 3.59 1.31
21 1 -6 2.69 1.43
6 -21 -1 3.5 1.76
21 -1 -6 2.26 1.21
-1 -6 21 5.87 1.95
-6 -21 1 4.5 1.71
21 -1 -6 2.7 1.42
1 -6 -21 3.14 1.84
21 2 -6 1.39 1.5
2 6 -21 -0.04 1.04
2 6 -21 0.61 1.2
-6 -21 -2 2.48 1.89
21 2 -6 -1.81 1.05
-2 -6 -21 0.3 1.74
2 -6 21 -0.48 1.65
6 -21 2 1.76 1.69
2 -6 -21 -1.92 1.59
2 -6 -21 0.99 0.93
21 -2 -6 2.09 1.23
21 -2 -6 0.41 1.41
6 -21 -2 0.53 1.63
-2 -6 21 -1.63 1.73
-6 -21 2 -0.86 1.72
3 -6 21 7.89 1.88
3 6 -21 3.26 1.33
6 -21 3 1.89 1.7
21 3 -6 4.9 2.47
21 3 -6 4.62 1.26
-6 -21 -3 5.12 1.93
3 6 -21 4.03 1.27
-3 -6 -21 4.92 1.7
21 -3 -6 4.36 1.54
3 -6 -21 5.91 1.05
6 -21 -3 5.27 1.8
21 -3 -6 4.77 1.33
-3 -6 21 3.93 1.96
-6 -21 3 1.54 1.91
3 -6 -21 10.53 2
6 -21 4 1.27 1.74
21 4 -6 3.47 1.57
-6 -21 -4 3.33 1.86
-4 -6 -21 -1.14 1.85
4 -6 21 4.71 1.65
4 6 -21 5.71 1.39
21 4 -6 2.42 1.19
4 6 -21 1.37 1.15
4 -6 -21 4.6 1.11
6 -21 -4 2.15 1.77
21 -4 -6 1.97 1.33
4 -6 -21 5.39 1.88
-4 -6 21 4.09 1.85
-6 -21 4 5.26 2
21 -4 -6 4.68 1.53
6 -21 5 2.54 1.79
-6 -21 -5 3.98 2.03
5 6 -21 5.35 1.36
5 -6 21 3.6 1.71
21 5 -6 3.93 1.63
-5 -6 -21 3.28 1.98
5 6 -21 2.9 1.37
21 5 -6 0.85 1.17
5 -6 -21 2.54 1.05
21 -5 -6 5.31 1.57
6 -21 -5 1.03 1.89
21 -5 -6 3.52 1.44
-6 -21 5 7.12 2.14
-5 -6 21 3.82 1.94
5 -6 -21 1.15 1.78
6 6 -21 0.44 1.33
21 6 -6 1.04 1.7
6 -21 6 3.23 1.77
-6 -21 -6 5.05 2.05
6 -6 21 0.32 1.65
-6 -6 -21 -2.9 1.95
6 6 -21 -1.81 1.14
21 6 -6 -0.2 1.14
-6 -21 6 -0.04 1.86
21 -6 -6 0.45 1.4
6 -6 -21 2.38 1.9
6 -6 -21 0 1
21 -6 -6 0.58 1.99
6 -21 -6 -1.39 1.91
-6 -6 21 -0.67 2.03
7 6 -21 -0.06 1.22
-6 -21 -7 -0.88 1.83
-7 -6 -21 2.32 2.11
21 7 -6 2.36 1.65
7 6 -21 4.71 1.87
6 -21 7 4.76 1.88
7 6 -21 1.89 1.51
21 -7 -6 1.87 1.37
6 -21 -7 -0.68 1.93
-6 -21 7 4.94 2.21
-7 -6 21 2.02 2.17
7 -6 -21 4.87 1.93
7 -6 -21 0.31 1.11
8 6 -21 0.05 1.27
6 -21 8 -0.26 2.04
8 6 -21 2.67 2.03
-8 -6 -21 -0.21 2.1
8 6 -21 1.22 1.53
21 8 -6 0.9 1.7
-6 -21 -8 -2.83 2.06
8 -6 -21 -0.02 1.06
-6 -21 8 -1.86 1.98
21 -8 -6 1.48 1.46
8 -6 -21 -1.18 1.94
-8 -6 21 2.16 2.24
6 -21 -8 -1.58 1.96
21 9 -6 3.33 1.8
-6 -21 -9 -0.19 2.11
-9 -6 -21 4.23 2.39
9 6 -21 2.07 1.6
9 6 -21 2.67 1.46
6 -21 9 1.98 2.04
6 -21 -9 1.66 2.11
9 -6 -21 2.52 2.16
-9 -6 21 3.92 2.31
21 -9 -6 1.79 1.41
9 -6 -21 1.92 1.26
-6 -21 9 -0.33 2.2
21 10 -6 2.71 1.97
10 6 -21 2.19 1.47
10 6 -21 1.01 1.66
10 -6 -21 1.31 1.25
21 -10 -6 0.04 1.47
11 6 -21 7.44 1.88
11 6 -21 6.11 1.63
21 11 -6 4.67 2.13
21 -11 -6 7.04 1.78
11 -6 -21 5.74 1.72
11 -6 -21 5.28 1.29
12 6 -21 -1.11 1.37
12 6 -21 3.11 1.83
21 12 -6 1.36 1.76
12 -6 -21 2.22 1.49
21 -12 -6 1.93 1.68
12 -6 -21 1.68 1.44
6 21 -13 -0.79 1.68
21 13 -6 1.26 1.97
13 6 -21 1.35 1.78
13 -6 -21 1.86 1.93
13 -6 -21 0.47 1.55
6 21 -14 2.91 1.8
14 6 -21 0.93 3.43
14 6 -21 1.11 1.61
21 -14 -6 -2.37 1.39
14 -6 -21 -2.27 1.34
21 15 -6 1.12 2.15
15 6 -21 -3.18 1.6
15 6 -21 0.51 1.92
6 21 -15 -0.5 1.76
21 -15 -6 0.68 1.68
15 -6 -21 1.42 1.48
15 -6 -21 -0.74 1.94
6 21 -16 2.98 1.91
21 16 -6 1.08 2.33
16 6 -21 2.3 1.79
16 6 -21 3.62 2.03
16 -6 -21 3.92 1.59
16 -6 -21 2.18 2.02
21 -16 -6 2.21 1.55
17 6 -21 -0.35 2.04
17 6 -21 -0.91 1.69
21 17 -6 2.16 2.26
17 -6 -21 -0.81 2.02
17 -6 -21 0.46 1.52
18 6 -21 -1.02 2.05
18 6 -21 3.37 1.84
21 18 -6 0.12 2.19
18 -6 -21 1.09 2.23
18 -6 -21 1.32 2.05
0 -7 -21 -2.03 1.65
-7 -21 0 5.09 1.94
21 0 -7 -0.11 1.37
0 -7 21 0.2 1.89
7 -21 0 3.97 1.68
21 0 -7 0.16 1.2
-1 -7 -21 -2.54 1.69
1 7 -21 -0.76 1.05
1 -7 21 2.27 1.73
21 1 -7 0.5 1.47
-7 -21 -1 3.68 1.89
21 1 -7 -0.23 1.15
7 -21 1 2.75 1.72
1 -7 -21 1.33 1.82
-1 -7 21 -1.04 1.9
7 -21 -1 -0.35 1.66
21 -1 -7 -0.58 1.13
21 -1 -7 1.54 1.49
-7 -21 1 -2.56 1.63
-2 -7 -21 -4.07 1.7
2 -7 21 0.34 1.79
7 -21 2 0.65 1.67
21 2 -7 -0.9 1.42
21 2 -7 -0.26 1.08
-7 -21 -2 2.78 1.95
2 7 -21 -0.64 1
-2 -7 21 -2.18 1.84
-7 -21 2 -3.17 1.83
2 -7 -21 -0.05 1.59
7 -21 -2 1.78 1.66
21 -2 -7 -1.63 1.21
21 -2 -7 0.54 1.41
3 -7 21 2.45 1.87
21 3 -7 2.9 1.5
3 7 -21 2.4 1.22
21 3 -7 4.53 1.31
-7 -21 -3 4.07 2.06
-3 -7 -21 -1.83 1.79
3 7 -21 2.82 1.3
7 -21 3 2.27 1.79
21 -3 -7 4.21 1.34
3 -7 -21 4.43 1.75
-3 -7 21 4.75 1.84
21 -3 -7 3.54 1.51
7 -21 -3 4.05 1.7
3 -7 -21 3.31 1.16
-7 -21 3 3.1 2.02
21 4 -7 3.48 1.53
4 -7 21 1.57 1.81
7 -21 4 -0.75 1.78
4 7 -21 1.43 1.3
-7 -21 -4 3.63 1.98
-4 -7 -21 1.62 1.89
21 4 -7 1.85 1.25
4 7 -21 1.6 1.3
-7 -21 4 0.26 1.95
7 -21 -4 2.44 1.73
4 -7 -21 -1.54 0.96
4 -7 -21 -2.26 1.75
-4 -7 21 3.42 1.99
21 -4 -7 1.09 1.45
21 -4 -7 1.23 1.28
21 5 -7 1.91 1.23
21 5 -7 1.88 1.55
-5 -7 -21 2.96 2.03
5 -7 21 2.71 1.84
5 7 -21 2.59 1.4
-7 -21 -5 3.6 2.01
7 -21 5 4.61 1.8
5 7 -21 2.42 1.32
5 -7 -21 2.83 1.92
21 -5 -7 4.03 1.58
-7 -21 5 5.53 2.06
21 -5 -7 3.02 1.46
7 -21 -5 3.26 1.74
5 -7 -21 0.6 1.02
-5 -7 21 0.16 1.96
6 7 -21 4.47 1.46
6 -7 21 3.86 1.9
21 6 -7 1.58 1.71
7 -21 6 5.05 1.95
6 7 -21 1.54 1.47
21 6 -7 2.24 1.24
-6 -7 -21 3.08 2.01
-7 -21 -6 7.93 2.13
21 -6 -7 4.7 1.7
7 -21 -6 0.92 1.87
6 -7 -21 2.54 1.89
-7 -21 6 0.32 2.07
21 -6 -7 1.79 1.46
-6 -7 21 -0.59 2.04
6 -7 -21 0.13 1.04
-7 -21 -7 0.73 2.14
-7 -7 -21 -1.67 2.26
7 7 -21 1.9 1.49
7 -21 7 1.68 2.03
21 7 -7 -0.07 1.68
7 7 -21 1.06 1.26
21 7 -7 0.59 1.27
-7 -21 7 -0.46 2.16
-7 -7 21 1.14 2.14
7 -7 -21 2.77 1.16
7 -21 -7 1.83 1.94
7 -7 -21 0.84 1.95
21 -7 -7 1.69 1.33
-8 -7 -21 -2.6 2.27
8 7 -21 1.82 2.02
-7 -21 -8 1.39 2.33
8 7 -21 0.85 1.49
21 8 -7 2.15 1.81
8 7 -21 1.32 1.25
-8 -7 21 1.06 2.36
21 -8 -7 2.17 1.5
7 -21 -8 1.79 2.11
8 -7 -21 2.97 1.24
8 -7 -21 -1 2.05
-7 -21 8 0.77 2.23
9 7 -21 2.84 1.63
9 7 -21 1.1 1.4
21 9 -7 -0.91 1.7
21 -9 -7 1.58 1.48
9 -7 -21 2.12 1.28
21 10 -7 -0.29 1.88
10 7 -21 -0.89 1.65
10 7 -21 1.55 1.48
10 -7 -21 -1.29 1.23
21 -10 -7 -1.07 1.34
11 7 -21 2.81 1.8
21 11 -7 -0.66 1.87
11 7 -21 2.2 1.5
11 -7 -21 2.63 1.37
21 -11 -7 1.29 1.49
11 -7 -21 1.79 1.38
21 12 -7 5.84 1.89
12 7 -21 2.33 1.68
12 7 -21 3.58 1.87
12 -7 -21 4.85 2.1
21 -12 -7 6.87 1.77
21 13 -7 -1.54 1.96
13 7 -21 3.02 1.59
13 7 -21 -1.87 2.56
21 -13 -7 0.27 1.57
13 -7 -21 0.58 1.97
14 7 -21 0.98 1.89
14 7 -21 -2.44 1.61
21 14 -7 0.08 2.3
21 -14 -7 -1.9 1.49
14 -7 -21 -0.43 1.36
14 -7 -21 -1.18 2.02
21 15 -7 1.05 2.25
15 7 -21 2.38 1.78
15 7 -21 0.68 1.97
21 -15 -7 3.47 1.63
15 -7 -21 0.47 1.97
15 -7 -21 2.91 1.54
21 16 -7 0.65 2.18
16 7 -21 -2.02 1.69
16 7 -21 0.41 2.09
21 -16 -7 -0.78 1.57
16 -7 -21 -0.6 1.54
16 -7 -21 1.4 2.01
21 17 -7 4.22 2.23
17 7 -21 2.23 1.72
17 7 -21 -1.3 2.08
17 -7 -21 1.49 2.21
17 -7 -21 2.26 1.65
21 18 -7 -1.62 2.18
18 7 -21 -0.83 2.11
18 -7 -21 -1.83 2.13
-8 -21 0 -1.39 2.01
0 -8 -21 4.52 1.89
21 0 -8 0.61 1.46
0 -8 21 -2.14 1.8
8 -21 0 -1.28 1.71
21 0 -8 1.2 1.23
-8 -21 -1 9.07 2.04
21 1 -8 3.6 1.3
-1 -8 -21 3.08 1.96
21 1 -8 3.26 1.66
1 -8 21 2.79 1.92
8 -21 1 6.01 1.82
-1 -8 21 3.88 2.05
21 -1 -8 5.2 1.44
1 -8 -21 6.95 1.97
8 -21 -1 5.02 1.81
-8 -21 1 0.55 2.06
21 -1 -8 5 1.65
-8 -21 -2 3.62 2.04
2 8 -21 -1.98 1
2 -8 21 2.26 1.87
8 -21 2 1.11 1.75
21 2 -8 2.33 1.54
21 2 -8 -0.15 1.2
-2 -8 -21 4.26 1.96
8 -21 -2 -0.11 1.74
-2 -8 21 -0.31 1.9
21 -2 -8 0.6 1.46
-8 -21 2 1.01 1.83
2 -8 -21 -2.77 1.58
21 3 -8 1.5 1.57
8 -21 3 3.74 1.84
-8 -21 -3 4.63 2.15
3 -8 21 2.25 1.93
3 8 -21 -0.08 1.14
-3 -8 -21 1.53 1.96
21 3 -8 5.51 1.37
-8 -21 3 3.99 2.03
21 -3 -8 2.14 1.59
-3 -8 21 1.71 1.8
8 -21 -3 3.23 1.82
21 -3 -8 1.8 1.34
3 -8 -21 -0.41 1.66
4 -8 21 3.3 1.85
8 -21 4 -0.37 1.81
21 4 -8 3.67 1.33
4 8 -21 1.47 1.3
4 8 -21 1.37 1.33
21 4 -8 1.16 1.59
-4 -8 -21 7.72 1.91
-8 -21 -4 0.57 2.06
4 -8 -21 4.58 2.05
21 -4 -8 1.17 1.34
21 -4 -8 4.53 1.58
-4 -8 21 -0.18 2.01
-8 -21 4 4.66 2.1
8 -21 -4 -0.2 1.85
5 8 -21 4.78 1.87
8 -21 5 3.04 1.87
21 5 -8 3.33 1.76
-5 -8 -21 5.61 2.19
-8 -21 -5 3.12 2.12
5 -8 21 0.03 1.95
5 8 -21 4.37 1.36
21 5 -8 3.88 1.31
21 -5 -8 3.44 1.8
21 -5 -8 3.71 1.56
5 -8 -21 2.78 1.97
-8 -21 5 2.11 2.07
5 -8 -21 2 1.07
8 -21 -5 -1.04 1.82
-5 -8 21 1.88 2.1
6 8 -21 2.43 1.37
21 6 -8 -2 1.62
6 8 -21 0.3 1.43
6 -8 21 -1.17 1.95
8 -21 6 2.82 2.01
21 6 -8 1.86 1.26
-8 -21 -6 5.27 2.21
-6 -8 -21 3.45 2.16
21 -6 -8 -0.02 1.61
21 -6 -8 2.9 1.49
-6 -8 21 1.4 2.14
6 -8 -21 0.12 1.06
6 -8 -21 2.88 2.01
8 -21 -6 1.06 1.98
-8 -21 6 -1.59 2.1
21 7 -8 1.38 1.67
21 7 -8 3.79 1.37
7 8 -21 3.3 1.37
7 8 -21 1.95 1.51
-8 -21 -7 5.13 2.44
8 -21 7 4.45 2.12
21 -7 -8 1.06 1.75
7 -8 -21 -2.58 1.92
21 -7 -8 3.05 1.52
-7 -8 21 2.84 2.22
-8 -21 7 6.78 2.33
8 -21 -7 5.96 2.1
7 -8 -21 1.14 1.17
8 8 -21 2.04 1.52
8 8 -21 0.98 1.28
21 8 -8 -0.1 1.73
21 -8 -8 0.83 1.43
-8 -8 21 2.44 3.67
8 -8 -21 1.16 1.21
9 8 -21 2.11 1.57
21 9 -8 -1.14 1.94
9 8 -21 -1.55 1.31
21 -9 -8 -0.63 1.47
9 -8 -21 1.37 1.26
21 10 -8 1.08 1.99
10 8 -21 2.97 1.45
10 8 -21 3.1 1.71
10 -8 -21 0.89 1.28
21 -10 -8 1.74 1.61
11 8 -21 1.76 1.79
21 11 -8 3.11 1.67
11 8 -21 5.07 1.66
11 -8 -21 -1.53 2.15
21 -11 -8 2.99 1.65
21 12 -8 0.45 1.92
12 8 -21 3.96 2.01
12 -8 -21 0.18 1.37
12 -8 -21 0.59 1.98
13 8 -21 2.01 1.97
13 8 -21 2.02 1.6
21 -13 -8 0.44 1.54
13 -8 -21 -0.26 1.4
14 8 -21 4.01 1.73
21 14 -8 1.23 2.16
14 8 -21 0.73 1.94
14 -8 -21 2.4 2.12
21 -14 -8 -1 1.61
14 -8 -21 4.17 1.57
21 15 -8 0.46 2.29
15 8 -21 -1.02 1.6
15 8 -21 -0.27 2.08
15 -8 -21 0.39 2.08
21 -15 -8 2.09 1.66
15 -8 -21 3.59 1.58
16 8 -21 2.95 1.79
21 16 -8 0.7 2.2
16 8 -21 4.02 2.06
16 -8 -21 2.57 1.6
21 -16 -8 -0.99 1.57
16 -8 -21 0.62 2.17
17 8 -21 1.61 1.81
21 17 -8 2.01 2.21
17 8 -21 2.07 2.09
17 -8 -21 5.68 2.21
21 18 -8 -0.56 2.75
0 -9 21 1.85 2.01
21 0 -9 1.47 1.54
-9 -21 0 2.22 2.19
21 0 -9 4.28 1.45
9 -21 0 3.29 1.83
0 -9 -21 1.79 1.71
21 1 -9 1.57 1.29
1 -9 21 -2.4 1.92
-1 -9 -21 -1.41 1.86
-9 -21 -1 4.94 2.18
21 1 -9 1.29 1.58
9 -21 1 -1.13 1.9
-9 -21 1 2.69 2.14
21 -1 -9 -0.1 1.5
21 -1 -9 0.02 1.19
-1 -9 21 -0.5 2.03
1 -9 -21 1.02 1.97
9 -21 -1 3.2 1.9
21 2 -9 -0.19 1.22
21 2 -9 1.39 1.83
2 -9 21 3.21 1.97
2 9 -21 -1.26 1.11
9 -21 2 -1.65 1.84
-9 -21 -2 3.42 2.21
-2 -9 -21 2.39 1.87
-2 -9 21 0.53 1.94
-9 -21 2 -0.24 2.14
9 -21 -2 -1.62 1.81
21 -2 -9 -0.56 1.54
2 -9 -21 2.33 1.82
21 -2 -9 -1.46 1.24
21 3 -9 -0.65 1.61
3 -9 21 3.36 2.01
-9 -21 -3 7.3 2.31
3 9 -21 -0.49 1.19
-3 -9 -21 1.36 2.05
9 -21 3 2.76 1.94
21 3 -9 0.8 1.22
-9 -21 3 2.42 2.19
-3 -9 21 -2.83 2.01
21 -3 -9 0.57 1.33
3 -9 -21 -4.74 1.86
9 -21 -3 -0.21 1.82
21 -3 -9 0.86 1.66
-9 -21 -4 -1.58 2.28
4 -9 21 6.21 2.03
-4 -9 -21 6.15 2.12
4 9 -21 1.89 1.31
9 -21 4 1.63 1.95
21 4 -9 -1.44 1.64
21 4 -9 -0.34 1.25
21 -4 -9 1.56 1.59
21 -4 -9 1.26 1.38
-9 -21 4 4.84 2.16
9 -21 -4 3.25 1.97
4 -9 -21 -1.65 1.93
-4 -9 21 -1.73 1.82
-5 -9 -21 6 2.2
5 9 -21 0.41 1.33
21 5 -9 2.7 1.68
9 -21 5 2.05 2.07
-9 -21 -5 6.41 2.35
21 5 -9 1.14 1.27
5 -9 21 2.74 2.04
21 -5 -9 0.3 1.59
-5 -9 21 -4.15 2.38
-9 -21 5 6.47 2.19
5 -9 -21 0.98 2.02
9 -21 -5 2.12 2.03
21 -5 -9 3.57 1.44
9 -21 6 6.87 3.11
6 9 -21 4.67 2.84
21 6 -9 4.42 1.4
21 6 -9 1.66 1.76
6 9 -21 2.25 1.38
-9 -21 -6 -3.25 2.32
6 -9 21 1.9 2.08
-6 -9 -21 2.26 2.31
6 -9 -21 3.63 2.16
21 -6 -9 2.82 1.73
-9 -21 6 3.74 2.32
9 -21 -6 6.52 2.23
-6 -9 21 2.17 2.31
21 -6 -9 4.57 1.64
21 7 -9 -0.27 1.8
7 9 -21 -1.4 1.53
7 9 -21 0.51 1.31
21 7 -9 -1.87 1.26
21 -7 -9 0.5 1.76
-7 -9 21 -2.99 3.34
21 -7 -9 0.57 1.4
7 -9 -21 -1.08 1.15
21 8 -9 2.52 1.86
9 21 -8 -0.23 1.52
8 9 -21 -1.18 1.52
21 8 -9 2.75 1.71
8 9 -21 1.41 1.34
21 -8 -9 -0.44 1.52
8 -9 -21 -0.38 1.17
9 9 -21 -0.41 1.35
21 9 -9 1.61 1.85
9 9 -21 3.2 1.67
21 -9 -9 -0.71 1.56
9 -9 -21 1.34 1.27
10 9 -21 2.98 1.47
21 10 -9 0.74 1.63
10 9 -21 1.25 1.68
21 -10 -9 -1.22 1.48
21 11 -9 -0.23 1.75
11 9 -21 0.99 1.76
11 -9 -21 4.21 1.49
21 12 -9 -0.64 2.2
12 9 -21 0.85 1.57
12 9 -21 2.65 2.16
21 -12 -9 1.76 1.65
12 -9 -21 0.51 1.51
12 -9 -21 1.03 2.13
21 13 -9 -1.93 2.23
13 9 -21 1.5 1.71
13 9 -21 -3.41 1.91
13 -9 -21 -1.92 1.47
13 -9 -21 0.19 2.22
21 -13 -9 -0.97 1.54
14 9 -21 -0.37 2
14 9 -21 1.06 1.7
21 14 -9 3.12 2.16
14 -9 -21 0.89 2.04
21 -14 -9 0.26 1.63
14 -9 -21 -3.03 1.49
15 9 -21 0.8 2.12
15 9 -21 1.18 1.67
21 15 -9 -2.36 2.18
21 -15 -9 -1.17 1.48
15 -9 -21 -0.46 1.57
15 -9 -21 -2.03 2.02
16 9 -21 0.46 1.74
21 16 -9 5.27 2.27
16 9 -21 -1.73 2
16 -9 -21 1.33 1.7
16 -9 -21 0.12 2.1
21 -16 -9 2.45 1.63
21 17 -9 5.69 2.34
17 9 -21 -0.59 2.3
17 -9 -21 -0.65 2.16
0 -10 -21 2.01 1.9
-10 -21 0 1.75 2.29
21 0 -10 1.79 1.66
21 0 -10 4.08 1.45
0 -10 21 0.4 2.07
-1 -10 -21 0.86 1.92
21 1 -10 1.23 1.37
21 1 -10 2.74 1.69
1 -10 21 0.58 2.04
1 -10 -21 1.5 2.09
-10 -21 1 0.32 2.27
-1 -10 21 1.45 2.02
21 -1 -10 2.65 1.42
21 -1 -10 2.66 1.67
2 -10 21 -1.39 1.98
-2 -10 -21 -0.87 2.09
-10 -21 -2 -1.11 2.36
21 2 -10 1.3 1.63
2 10 -21 -1.79 1.05
21 2 -10 -1.03 1.28
-2 -10 21 0.07 2.07
21 -2 -10 1.12 1.44
21 -2 -10 1.14 1.62
-10 -21 2 3.42 2.35
2 -10 -21 1.44 2.04
21 3 -10 -0.42 1.61
-10 -21 -3 -3.23 2.71
21 3 -10 0.39 1.37
-3 -10 -21 -1.65 2.09
3 -10 21 0.42 2.03
3 10 -21 1.52 1.21
21 -3 -10 3.45 1.52
21 -3 -10 0.89 1.59
3 -10 -21 -0.09 2.05
-10 -21 3 6 2.35
-3 -10 21 1.97 2.38
21 4 -10 3.31 1.77
4 10 -21 6.5 1.44
4 -10 21 4.41 2.14
21 4 -10 4.21 1.46
-4 -10 -21 9.01 2.4
4 -10 -21 8.34 2.23
21 -4 -10 3.08 1.57
-4 -10 21 13.39 2.65
21 -4 -10 5.88 1.8
-10 -21 4 5.76 2.38
-5 -10 -21 -0.13 2.95
5 -10 21 -0.91 2.4
5 10 -21 0.06 1.2
21 5 -10 1.91 1.38
21 5 -10 0.76 1.8
21 -5 -10 1.44 1.71
21 -5 -10 1.06 1.41
5 -10 -21 1.98 2.56
-5 -10 21 3.96 2.63
6 10 -21 0.61 1.31
21 6 -10 -0.69 1.68
10 21 -6 -0.83 1.56
21 6 -10 0.74 1.35
21 -6 -10 1.06 1.79
21 -6 -10 1.65 1.39
7 10 -21 1.41 1.61
21 7 -10 -1.15 1.37
7 10 -21 1.03 1.39
21 7 -10 0.18 1.85
10 21 -7 -2.62 1.54
21 -7 -10 -3.44 1.79
21 -7 -10 1.24 1.52
8 10 -21 4.35 1.69
21 8 -10 5.62 1.59
8 10 -21 3.07 1.44
10 21 -8 3.15 1.66
21 8 -10 0.15 1.89
21 -8 -10 2.87 1.73
21 -8 -10 1.68 2.5
21 9 -10 -1.76 1.68
9 10 -21 -0.69 1.31
9 10 -21 3.44 1.72
21 -9 -10 0.19 1.45
10 10 -21 -2.45 2.22
10 10 -21 -0.6 2.91
21 10 -10 -2.53 1.64
10 -10 -21 -0.46 1.39
21 -10 -10 -0.02 2.2
21 11 -10 3.94 2.05
11 10 -21 2.32 1.66
11 10 -21 -2.47 2.09
21 -11 -10 2.49 1.61
11 -10 -21 0.44 1.49
21 12 -10 7.54 2.41
12 10 -21 5.16 1.71
12 10 -21 3.59 2.04
21 -12 -10 4.05 1.7
12 -10 -21 7.45 2.62
12 -10 -21 3.84 1.54
13 10 -21 0.05 1.68
21 13 -10 1.35 2.23
13 10 -21 -0.64 1.99
13 -10 -21 2.19 2.08
21 -13 -10 -0.81 1.43
13 -10 -21 -3.65 1.52
21 14 -10 -1.11 2.08
14 10 -21 1.78 1.71
14 10 -21 0.5 1.94
21 -14 -10 2.94 1.64
14 -10 -21 2.93 1.62
14 -10 -21 0.6 2.12
15 10 -21 4.01 2.2
21 15 -10 2.52 2.19
15 10 -21 -0.56 1.72
15 -10 -21 3.83 2.16
21 -15 -10 1.13 1.56
15 -10 -21 2.86 1.81
16 10 -21 0.79 2.18
16 10 -21 -1.11 2.27
21 16 -10 -1.55 2.12
16 -10 -21 4.35 2.25
21 -16 -10 1.49 1.76
0 -11 -21 19.44 2.55
21 0 -11 21.83 2.59
21 0 -11 17.04 2.19
0 -11 21 22.95 3.19
21 1 -11 2.29 1.67
-1 -11 -21 0.61 2.17
21 1 -11 0.49 1.4
1 -11 21 2.31 2.23
21 -1 -11 0.26 1.69
1 -11 -21 -1.9 2.14
21 -1 -11 0.65 1.43
-1 -11 21 2.9 2.31
-2 -11 -21 5.33 2.55
21 2 -11 -0.4 1.37
2 -11 21 -3.27 2.5
21 2 -11 0.15 1.63
2 -11 -21 5.09 2.38
21 -2 -11 -0.63 1.46
21 -2 -11 -1.48 1.61
-2 -11 21 1.45 2.41
21 3 -11 5.49 1.49
21 3 -11 6.57 1.86
3 11 -21 5.31 1.47
21 -3 -11 4.68 1.6
21 -3 -11 6.06 1.86
21 4 -11 3.91 1.74
4 11 -21 0.93 1.31
21 4 -11 0.26 1.37
21 -4 -11 0.3 1.73
21 -4 -11 -1.51 1.4
21 5 -11 10.7 1.65
5 11 -21 11.77 1.78
21 5 -11 11.04 2.09
11 21 -5 9.27 1.87
21 -5 -11 7.22 1.98
21 -5 -11 8.06 1.7
21 6 -11 7.58 1.55
21 6 -11 6.88 1.93
6 11 -21 5.98 1.55
11 21 -6 8.2 1.81
21 -6 -11 6.16 1.71
21 -6 -11 8.14 1.97
11 21 -7 1.13 1.69
21 7 -11 1.35 2.01
7 11 -21 2.98 1.46
21 7 -11 0.09 1.47
21 -7 -11 -0.1 1.86
21 -7 -11 -0.12 1.53
8 11 -21 2.08 1.49
11 21 -8 -0.93 1.68
21 8 -11 1.61 2.01
21 -8 -11 5.11 2.28
21 -8 -11 3.38 1.81
21 9 -11 2.01 1.82
21 10 -11 0.31 2.02
10 11 -21 -2.55 1.83
10 11 -21 0.5 1.5
21 -10 -11 0 1.65
11 11 -21 16.65 2.24
21 11 -11 16.48 3.22
11 11 -21 17.34 2.34
21 -11 -11 16.69 2.12
12 11 -21 1.27 1.61
12 11 -21 -2.37 1.98
21 12 -11 -1.7 2.15
12 -11 -21 -1.65 1.87
21 -12 -11 -1.82 1.49
12 -11 -21 1.89 2.14
13 11 -21 -0.4 1.64
13 11 -21 -4.38 2.1
21 13 -11 1.04 2.16
21 -13 -11 2.83 1.65
13 -11 -21 0.82 2.15
13 -11 -21 5.04 1.81
21 14 -11 -1.69 2.12
14 11 -21 3.59 1.79
14 11 -21 -0.38 2.14
21 -14 -11 3.8 1.66
14 -11 -21 -4.13 2.12
15 11 -21 -0.75 2.14
21 15 -11 0.05 2.19
15 11 -21 1.05 1.76
15 -11 -21 -1 2.16
21 16 -11 9.89 2.35
21 0 -12 0.76 1.78
21 0 -12 1.35 1.37
21 1 -12 6.12 1.92
21 1 -12 5.23 1.65
21 -1 -12 6.01 1.66
21 -1 -12 5.82 1.84
21 2 -12 0.95 1.74
21 2 -12 2.01 1.48
21 -2 -12 -1.42 1.73
21 -2 -12 0.36 1.55
21 3 -12 4.22 1.85
3 12 -21 0.73 1.38
21 3 -12 2.72 1.45
21 -3 -12 1.38 1.87
21 -3 -12 4.89 1.71
4 12 -21 5.42 1.58
21 4 -12 5.95 2
21 4 -12 4.56 1.58
21 -4 -12 7.43 2
21 -4 -12 6.01 1.71
12 21 -5 -1.21 1.72
21 5 -12 -1.38 1.38
21 5 -12 0.38 1.81
5 12 -21 2.13 1.44
21 -5 -12 -1.46 1.33
21 -5 -12 0.85 1.85
21 6 -12 -1.36 1.76
12 21 -6 -0.86 1.68
6 12 -21 2.25 1.42
21 6 -12 2.54 1.76
21 -6 -12 2.28 1.9
21 -6 -12 3 1.68
12 21 -7 4.23 1.83
7 12 -21 4.97 1.54
21 7 -12 4.16 2.03
21 7 -12 3.54 2.08
21 -7 -12 5.45 1.82
21 -7 -12 6.12 2.14
21 8 -12 0.7 1.98
21 8 -12 2.14 1.55
21 -8 -12 3.1 3.4
12 21 -9 0.57 1.83
9 12 -21 -1.22 1.41
21 9 -12 -1.41 2.16
21 -9 -12 0.82 1.6
21 10 -12 4.44 2.74
10 12 -21 2.67 1.57
21 -10 -12 5.14 1.77
11 12 -21 -0.26 1.5
21 11 -12 2.3 2.15
21 -11 -12 -1.21 1.47
12 12 -21 -0.64 3.03
21 12 -12 4.94 2.2
12 12 -21 4.45 1.63
21 -12 -12 -0.21 1.61
12 -12 -21 2.74 2.15
13 12 -21 3.42 1.75
13 12 -21 -0.08 2.09
21 13 -12 0.86 2.23
21 -13 -12 0.95 1.54
13 -12 -21 2.65 2.17
14 12 -21 2.03 1.77
21 14 -12 0.49 2.18
14 -12 -21 -0.4 2.17
21 -14 -12 3.1 1.65
21 15 -12 5.47 2.33
15 -12 -21 2.07 2.39
21 0 -13 1.25 1.79
21 0 -13 0.73 1.5
21 1 -13 0.86 1.5
21 1 -13 1.77 1.87
21 -1 -13 -0.17 1.82
21 -1 -13 1.03 1.48
21 2 -13 2.08 1.86
21 2 -13 -0.63 1.47
21 -2 -13 1.14 1.81
21 -2 -13 2.22 1.59
21 3 -13 1.66 1.54
3 13 -21 1.29 1.31
21 3 -13 2.62 1.89
21 -3 -13 0.21 1.5
21 -3 -13 -0.2 1.82
21 4 -13 2.8 1.68
21 4 -13 0.77 1.89
4 13 -21 0.56 1.41
21 -4 -13 2.89 1.88
21 -4 -13 -1.53 1.35
5 13 -21 0.08 1.35
13 21 -5 0.06 1.85
21 5 -13 -0.18 1.84
21 -5 -13 -0.33 1.53
21 -5 -13 0.76 1.9
13 21 -6 -0.14 1.98
21 6 -13 0.99 1.54
21 6 -13 2.39 2
21 -6 -13 -2.62 2.42
21 7 -13 -0.86 1.54
7 13 -21 0.16 1.5
13 21 -7 -4.33 2.85
21 7 -13 2.58 2.2
21 -7 -13 2.14 1.7
21 -7 -13 3.64 2.77
21 8 -13 2.56 1.67
8 13 -21 -1.48 1.45
13 21 -8 -2.85 1.9
21 -8 -13 -0.63 1.64
21 -8 -13 3.95 2.12
9 13 -21 -0.67 1.51
13 21 -9 -3.07 1.84
21 9 -13 -0.35 1.88
21 9 -13 -1.85 2.06
21 -9 -13 2.11 1.7
10 13 -21 0.92 1.46
21 10 -13 -1.66 2.06
13 21 -10 -2.16 1.95
21 -10 -13 0.22 1.64
21 11 -13 1.01 2.21
11 13 -21 1.46 1.61
21 -11 -13 1.72 1.6
21 12 -13 3.25 2.17
12 13 -21 2.31 1.69
12 -13 -21 4.3 2.24
21 -12 -13 1.33 1.61
21 13 -13 3.72 2.23
13 13 -21 7.21 1.93
21 -13 -13 1.67 1.59
13 -13 -21 -1.45 2.19
21 14 -13 -0.59 2.22
14 -13 -21 2.79 2.26
21 0 -14 -0.86 1.79
21 0 -14 0 1.84
21 1 -14 -2.08 1.94
21 -1 -14 -0.34 2.41
21 -1 -14 -1.97 1.8
21 2 -14 7.2 2.07
21 -2 -14 3.91 2.91
21 -2 -14 1.45 1.97
21 3 -14 -1.39 1.88
21 3 -14 0.66 1.99
21 -3 -14 1.47 1.91
21 4 -14 2.19 1.99
21 4 -14 -0.7 1.58
4 14 -21 -0.04 1.62
21 -4 -14 -1.32 1.91
21 -4 -14 2.98 2.34
21 5 -14 -0.41 1.49
21 5 -14 -2.08 1.97
5 14 -21 -0.51 1.39
21 -5 -14 -0.53 1.55
6 14 -21 -0.85 1.49
21 6 -14 1.17 1.63
14 21 -6 -1.11 1.92
21 -6 -14 -0.17 2.03
21 -6 -14 -1.84 1.51
21 7 -14 -1.26 2.14
7 14 -21 1.37 1.5
21 7 -14 -0.75 1.64
14 21 -7 -3.76 1.84
21 -7 -14 3.64 1.74
21 -7 -14 2.25 2.16
14 21 -8 1.84 1.97
21 8 -14 2.7 1.78
8 14 -21 0.91 1.56
21 8 -14 -0.36 2.06
21 -8 -14 5.71 2.25
21 -8 -14 2.16 1.72
9 14 -21 -0.15 1.44
21 9 -14 0.16 1.86
14 21 -9 -1.2 2
21 9 -14 -0.73 2.05
21 -9 -14 -0.43 1.64
21 -9 -14 8.73 3.64
10 14 -21 -0.63 1.57
14 21 -10 -0.42 2
21 10 -14 3.27 2.17
21 -10 -14 -1.44 1.59
21 11 -14 -1.8 2.15
11 14 -21 2.63 1.65
21 -11 -14 -0.56 1.62
12 14 -21 -1.44 1.72
21 12 -14 1.43 2.13
21 -12 -14 0.9 1.6
12 -14 -21 0.2 2.17
21 13 -14 1.71 2.16
13 -14 -21 -2.32 2.2
21 0 -15 4.68 2.96
21 0 -15 3.17 1.65
21 1 -15 1.72 3.17
21 1 -15 0.48 1.6
21 -1 -15 2.02 1.7
21 2 -15 -2.99 1.54
2 15 -21 0.37 1.29
21 -2 -15 3.67 1.78
3 15 -21 -0.83 1.31
21 3 -15 0.32 1.52
21 -3 -15 2.48 2.55
21 -3 -15 0.81 1.68
21 4 -15 0.28 3.36
21 4 -15 -2.61 1.54
4 15 -21 3.45 1.61
21 -4 -15 0.74 1.61
21 -4 -15 4.66 2.1
21 5 -15 -3.54 1.52
5 15 -21 -2.02 1.43
21 5 -15 1.52 2.04
15 21 -5 -1.9 2.01
21 -5 -15 -2.17 1.53
21 -5 -15 -1.53 1.99
21 6 -15 -1.6 1.7
21 6 -15 0.43 2.12
15 21 -6 1.38 2
6 15 -21 0.27 1.45
21 -6 -15 2.61 1.62
21 -6 -15 4.18 2.18
21 7 -15 -2.55 2.09
15 21 -7 -1.34 1.97
21 7 -15 1.85 1.8
7 15 -21 1.19 1.55
21 -7 -15 0.13 1.68
21 -7 -15 3.47 2.28
21 8 -15 -0.73 2.09
21 8 -15 2.59 1.83
15 21 -8 -0.66 2.01
8 15 -21 0.47 1.46
21 -8 -15 7.32 2.33
21 -8 -15 3.21 1.8
15 21 -9 -4.08 2.03
9 15 -21 -2.62 1.46
21 9 -15 -2.31 2.06
21 9 -15 -1.04 1.88
21 -9 -15 -0.75 1.72
21 -9 -15 8.81 2.99
21 10 -15 3.77 2.29
15 21 -10 0.93 2.03
10 15 -21 1.09 1.64
21 -10 -15 3.72 1.69
21 11 -15 3.77 2.17
11 15 -21 -0.83 1.69
21 -11 -15 -0.13 1.59
21 12 -15 2.72 2.24
12 -15 -21 5.01 2.75
21 0 -16 7.23 2.15
21 0 -16 4.03 1.66
21 1 -16 -0.83 1.51
21 1 -16 1.68 2.01
21 -1 -16 2.45 2.04
21 -1 -16 -0.01 1.6
21 2 -16 0.58 1.62
2 16 -21 -1.1 1.37
21 2 -16 -1.69 2.02
21 -2 -16 -4.21 1.92
21 -2 -16 1.64 1.69
21 3 -16 2.23 2.06
3 16 -21 -1.01 1.36
21 3 -16 1.93 1.61
21 -3 -16 -0.7 1.97
21 -3 -16 -0.84 1.54
21 4 -16 0.62 2.02
4 16 -21 3.18 1.58
21 4 -16 0.62 1.62
21 -4 -16 0.62 2.02
21 -4 -16 2.71 1.65
21 5 -16 1.01 1.71
16 21 -5 0.07 2.2
21 5 -16 2.9 2.09
5 16 -21 3.12 1.6
21 -5 -16 4.77 1.81
21 -5 -16 1.29 2.1
16 21 -6 -3.12 2.11
21 6 -16 3.32 1.8
21 6 -16 3.56 2.09
21 -6 -16 2.31 1.63
21 -6 -16 2.42 2.22
21 7 -16 0.99 2.19
16 21 -7 -1.03 2.08
21 7 -16 4.38 1.79
7 16 -21 0 1.55
21 -7 -16 -2.16 1.57
21 -7 -16 2.66 2.23
21 8 -16 1.57 2.31
16 21 -8 -0.84 2.07
21 8 -16 3.32 1.84
8 16 -21 4.13 1.67
21 -8 -16 10.97 2.42
21 -8 -16 3.67 1.77
21 9 -16 -0.35 2.19
9 16 -21 -1.29 1.61
21 -9 -16 -2.4 1.61
21 10 -16 -1.65 2.08
21 -10 -16 -0.23 1.64
21 11 -16 5.74 2.27
21 0 -17 -0.66 1.6
21 0 -17 -0.58 2.07
1 17 -21 -0.23 1.4
21 1 -17 3.48 2.03
21 1 -17 1.64 1.71
21 -1 -17 2.3 2.06
21 -1 -17 0.91 1.67
21 2 -17 -1.49 1.55
2 17 -21 1.29 1.5
21 2 -17 0.04 2
21 -2 -17 -1.08 2.13
21 -2 -17 -1.73 1.58
3 17 -21 4.27 1.54
21 3 -17 0.86 2.01
21 3 -17 2.64 1.73
21 -3 -17 0.37 2.17
21 -3 -17 1.22 1.67
21 4 -17 -0.19 2.18
21 4 -17 1.77 1.65
4 17 -21 -2.97 1.44
21 -4 -17 -0.06 1.71
21 -4 -17 -0.72 2.14
21 5 -17 0.96 1.74
5 17 -21 1.76 1.57
21 5 -17 0.91 2.05
21 -5 -17 2.74 2.13
21 -5 -17 -2.82 1.59
21 6 -17 -0.01 2.13
6 17 -21 -1.32 1.54
21 6 -17 1.34 1.81
21 -6 -17 0.59 1.62
21 -6 -17 2.05 2.23
7 17 -21 3.19 1.61
17 21 -7 1.17 2.14
21 7 -17 2.1 2.29
21 7 -17 1.11 2.16
21 -7 -17 2.27 2.22
21 -7 -17 1.45 1.7
17 21 -8 -4.91 2.05
8 17 -21 -0.2 2
21 8 -17 0.86 2.13
21 -8 -17 4.01 1.84
21 9 -17 -0.14 2.19
21 10 -17 2.64 2.39
21 0 -18 -1.33 1.65
21 0 -18 3.92 2.16
21 1 -18 -0.63 1.59
1 18 -21 -1.07 1.32
21 1 -18 -2.27 1.97
21 -1 -18 5.43 1.81
21 -1 -18 0.37 2.07
21 2 -18 -0.1 2.02
21 2 -18 0.45 1.63
2 18 -21 0 1.42
21 -2 -18 0.09 1.55
21 -2 -18 -0.37 2.15
3 18 -21 0.51 1.56
21 3 -18 -0.91 1.67
21 3 -18 0.84 2.05
21 -3 -18 -2.1 1.56
21 -3 -18 -4.48 2.12
21 4 -18 4.11 2.16
4 18 -21 0.57 1.6
21 4 -18 -0.44 1.65
21 -4 -18 -0.4 2.19
21 -4 -18 -3.98 1.57
21 5 -18 -0.61 2.13
21 5 -18 5.6 2.03
5 18 -21 3.24 1.65
21 -5 -18 3.34 2.23
21 -5 -18 -0.31 1.56
21 6 -18 2.88 2.23
21 -6 -18 3.22 1.71
21 -6 -18 3.8 2.37
21 7 -18 3.89 2.22
21 8 -18 -2.43 2.16
0 19 -21 0.03 1.46
21 0 -19 3.97 1.76
21 0 -19 2.3 2.15
1 19 -21 1.21 1.58
21 1 -19 1.76 1.68
21 1 -19 2.81 2.05
21 -1 -19 -0.59 2.09
21 -1 -19 0.54 1.65
21 2 -19 4.75 2.13
21 2 -19 0.57 2.11
21 -2 -19 0.29 2.1
21 -2 -19 1.05 1.68
21 3 -19 2.51 2.11
21 -3 -19 -1.14 2.04
21 -3 -19 -1.88 2.16
21 4 -19 0.53 2.16
21 -4 -19 -1.52 2.79
21 5 -19 2.22 2.11
21 6 -19 0.69 3.61
0 -22 0 39.21 3.15
0 0 -22 42.52 2.26
0 0 -22 43.89 2.99
22 0 0 43.21 2.34
22 0 0 35.17 2.59
22 1 0 1.73 1.49
22 -1 0 -1.34 2.11
22 1 0 1.96 1.14
-1 0 -22 1.16 0.99
0 -22 -1 1.01 1.88
0 -22 1 -0.78 1.82
1 0 -22 2.28 1.01
1 0 -22 2.37 1.86
22 -1 0 2.04 1.18
2 0 -22 -2.37 1.78
22 -2 0 0.85 1.15
2 0 -22 -0.26 0.97
0 -22 2 -2.42 1.69
-2 0 -22 1.92 1.01
-2 0 22 0.15 1.64
0 -22 -2 2 1.85
22 2 0 1.66 1.19
22 2 0 0.26 1.46
3 0 -22 2.36 1.05
-3 0 -22 4.26 1.09
3 0 -22 5.48 1.95
0 -22 3 1.55 1.9
22 -3 0 4.73 1.33
0 -22 -3 6.72 2.02
-3 0 22 1.82 1.94
22 3 0 3.67 1.62
4 0 -22 1.21 1.04
-4 0 22 -0.4 1.87
22 4 0 4.84 1.64
22 -4 0 3.1 1.37
-4 0 -22 -0.3 1
4 0 -22 0.43 1.83
0 -22 -4 1.29 1.89
0 -22 4 3.61 1.91
-5 0 -22 63.27 2.64
5 0 -22 62.5 3.02
-5 0 22 62.22 3.82
0 -22 -5 60.15 3.53
0 -22 5 62.56 3.75
22 -5 0 59.41 3.09
22 5 0 69.54 3.32
22 -6 0 20.22 2.17
22 6 0 24.86 2.72
6 0 -22 21.16 2.78
0 -22 -6 29.92 3.02
-6 0 22 24.61 3.03
6 0 -22 19.77 2.01
6 0 -22 24.66 2.4
0 -22 6 24.22 2.77
7 0 -22 -0.72 1.48
7 0 -22 0.43 1.28
0 -22 -7 -1.87 1.95
22 7 0 1.09 1.78
-7 0 22 1.14 2.05
22 -7 0 -1.21 1.21
0 -22 7 -0.63 1.82
7 0 -22 -1.15 1.88
8 0 -22 4.89 1.39
8 0 -22 2.67 2.04
-8 0 22 0.45 2.03
22 8 0 2.97 1.88
0 -22 8 3.5 2.14
8 0 -22 2.65 1.59
22 -8 0 0.88 1.39
0 -22 -8 2.61 2.13
9 0 -22 -0.43 2.88
9 0 -22 3.69 1.75
0 -22 9 7.49 2.4
22 -9 0 5.57 1.6
0 -22 -9 1.21 2.2
9 0 -22 3.8 1.43
22 9 0 2.33 1.88
10 0 -22 2.23 1.44
10 0 -22 6.18 1.83
22 -10 0 4.76 1.67
22 10 0 7.4 2.07
11 0 -22 28.68 2.68
11 0 -22 26.46 2.44
22 -11 0 31.93 2.69
12 0 -22 1.84 1.8
12 0 -22 0.81 1.45
22 12 0 1.8 2.11
13 0 -22 8.09 2.07
22 13 0 5.64 2.19
13 0 -22 2.39 1.72
14 0 -22 4.22 1.58
15 0 -22 0.91 2
15 0 -22 -0.92 1.5
22 15 0 -3.15 2.22
16 0 -22 21.84 2.78
16 0 -22 21.29 2.43
22 16 0 21.43 2.85
17 0 -22 -0.01 1.59
17 0 -22 1.81 2.14
18 0 -22 -1.39 1.62
18 0 -22 3.82 2.07
22 0 1 2.38 1.54
22 0 1 0.16 1.09
22 0 -1 -0.16 1.08
-1 -22 0 0.89 1.6
0 1 -22 0.97 0.99
22 0 -1 2.16 1.53
1 -22 0 1.25 1.61
0 -1 -22 -2.04 1.69
0 -1 22 0.95 1.66
0 -1 -22 0.44 0.89
22 1 -1 2.62 1.55
1 1 -22 -0.28 0.99
22 1 -1 -1.05 1.06
1 -22 1 1.55 1.81
22 -1 1 0.09 1.13
-1 -1 -22 0.08 0.92
-1 -1 -22 1.06 1.64
-1 -22 -1 0.89 1.66
22 1 1 -0.12 1.11
-1 -22 1 1.48 1.91
1 -1 -22 0.99 0.96
1 -22 -1 1.03 1.84
-1 -1 22 2.15 1.81
22 -1 -1 1.59 1.54
22 1 1 1.85 1.55
-1 1 -22 -0.67 0.97
22 -1 -1 0.91 1.11
1 -1 -22 1.62 1.85
22 -2 1 -0.56 1.08
22 2 -1 -0.16 1.04
-2 -1 -22 -0.03 0.93
2 1 -22 -1.81 1.01
-2 -1 -22 1.31 1.64
-1 -22 -2 2.31 1.88
1 -22 2 -0.63 1.79
2 1 -22 -2.69 1.77
22 2 -1 0.56 1.54
2 -1 -22 -1.9 1.74
22 -2 -1 -1.35 1.06
-2 -1 22 0.85 1.82
-2 1 -22 0.74 0.97
22 2 1 1.7 1.52
-1 -22 2 -1.09 1.65
1 -22 -2 0.09 1.9
2 -1 -22 3.15 1.1
3 1 -22 -1.92 1
-3 -1 -22 -1.75 0.94
-3 -1 -22 -1.01 1.64
22 3 -1 -1.67 1.5
3 1 -22 -0.89 1.72
-1 -22 -3 1.22 1.92
22 -3 1 -0.85 1.13
1 -22 3 6.18 2.05
-1 -22 3 -1.13 1.72
-3 1 -22 0.88 1
1 -22 -3 -1.02 1.8
3 -1 -22 -1.46 1.68
-3 -1 22 1.73 1.72
22 -3 -1 0.22 1.15
3 -1 -22 0.69 1.05
22 3 1 -1.77 1.45
-4 -1 -22 4.64 1.4
22 -4 1 4.14 1.31
-1 -22 -4 0.39 1.79
-4 -1 -22 4.54 2.5
4 1 -22 4.97 1.21
4 1 -22 5.3 1.48
22 4 -1 4.95 1.72
4 1 -22 8.54 2.03
1 -22 4 6.35 2.06
4 -1 -22 5.61 1.27
-1 -22 4 5.54 1.88
1 -22 -4 4.05 2.06
-4 1 -22 6.17 1.11
22 -4 -1 4.81 1.36
22 4 1 7.37 1.72
4 -1 -22 4.53 1.97
-4 -1 22 2.58 2
-5 -1 -22 2.12 2.02
5 1 -22 6.62 1.59
22 5 -1 4.87 1.7
1 -22 5 3.42 1.93
-1 -22 -5 8.28 2.05
5 1 -22 2.03 1.92
5 1 -22 5.61 1.35
22 -5 1 2.36 1.34
-5 -1 22 0.6 2.06
22 -5 -1 3.44 1.41
22 5 1 4.16 1.78
1 -22 -5 7.03 2.03
5 -1 -22 5.86 1.98
5 -1 -22 3.13 1.14
-1 -22 5 6.35 2.05
6 1 -22 -0.65 1.92
22 6 -1 1.43 1.71
6 1 -22 1.78 1.44
6 1 -22 -1.1 1.13
-1 -22 -6 -1.49 1.74
22 -6 1 0.86 1.31
-6 -1 -22 2.23 2.15
1 -22 6 1.78 2.02
-1 -22 6 -1.76 1.85
22 6 1 -1.63 1.6
6 -1 -22 -2.2 1.81
22 -6 -1 1.71 1.31
1 -22 -6 -2.55 1.93
6 -1 -22 0.27 1.12
-6 -1 22 5.66 2.14
-6 1 -22 4.04 1.1
7 1 -22 5.11 1.43
1 -22 7 9.28 2.21
22 7 -1 7.88 1.85
7 1 -22 9.38 2.15
-7 -1 -22 6.33 2.24
-1 -22 -7 5.46 2.16
7 1 -22 6.66 1.71
22 -7 1 7.35 1.68
22 7 1 6.05 1.88
-7 -1 22 7.48 2.17
7 -1 -22 4.28 1.98
7 -1 -22 7.3 1.45
22 -7 -1 6.11 1.52
1 -22 -7 5.88 2.26
7 -1 -22 5.86 1.76
-1 -22 7 3.85 2.14
8 1 -22 6.97 2.13
8 1 -22 2.91 1.39
-8 -1 -22 0.66 2.31
1 -22 8 4.52 2.21
8 1 -22 3.75 1.77
-1 -22 -8 8.6 2.35
22 8 -1 1.5 1.82
22 -8 1 4.57 1.51
-1 -22 8 3.25 2.23
8 -1 -22 2.03 1.25
22 -8 -1 3.89 1.48
1 -22 -8 5.23 2.26
-8 -1 22 -0.18 2.18
8 -1 -22 5.36 1.71
8 -1 -22 3.54 2.11
22 8 1 2.89 1.92
9 1 -22 6.92 3.29
-1 -22 -9 -2.02 2.49
9 1 -22 0.33 1.36
1 -22 9 1.41 2.44
9 1 -22 1.74 1.61
22 -9 1 0.52 1.37
22 9 -1 1.5 1.82
22 -9 -1 -0.04 1.32
9 -1 -22 1.74 1.67
-9 -1 22 0.07 2.64
1 -22 -9 -1.07 2.23
-1 -22 9 7.42 2.65
22 9 1 -1.16 1.93
9 -1 -22 0.05 1.24
22 -10 1 0.02 1.46
22 10 -1 1.8 1.86
10 1 -22 -0.19 1.65
10 1 -22 2.5 1.37
22 -10 -1 0.47 1.53
22 10 1 1.31 1.97
10 -1 -22 2.37 1.79
10 -1 -22 -1.75 1.33
22 11 -1 6.36 2.19
11 1 -22 1.49 1.86
11 1 -22 0.03 1.39
11 -1 -22 1.22 1.44
22 -11 -1 2.35 1.59
22 11 1 -0.41 2.01
11 -1 -22 1.9 1.88
22 12 -1 3.54 2.07
12 1 -22 1.18 1.56
12 1 -22 -1.65 1.83
12 -1 -22 2.53 1.93
22 -12 -1 1.4 1.68
22 12 1 3.01 2.23
12 -1 -22 2.46 1.51
13 1 -22 3.27 1.85
13 1 -22 -1.27 1.88
22 13 -1 1.64 2.26
13 -1 -22 0.04 1.9
22 13 1 -0.31 2.09
13 -1 -22 0.18 1.44
22 14 -1 2.26 3.08
14 1 -22 0.49 2.66
14 -1 -22 2.16 3.16
22 14 1 -1.05 2.77
14 -1 -22 0.77 1.5
15 1 -22 0.12 2.03
15 1 -22 -0.27 1.55
22 15 -1 5.77 2.31
15 -1 -22 1.34 1.97
22 15 1 3.39 2.26
15 -1 -22 2.12 1.63
16 1 -22 3.67 2.03
16 1 -22 -0.22 1.58
22 16 -1 1.1 2.24
16 -1 -22 1.95 2.1
16 -1 -22 3.33 1.56
17 1 -22 2.42 2.11
17 1 -22 -1.09 1.54
17 -1 -22 0.29 1.64
17 -1 -22 3.11 2.14
18 1 -22 2.94 1.71
18 1 -22 0.67 2.04
18 -1 -22 0.92 1.64
18 -1 -22 2.88 2.14
0 -2 -22 -0.18 1.83
22 0 -2 3.49 1.55
22 0 -2 0.65 1.12
0 -2 -22 2.54 1.02
2 -22 0 1.89 1.88
0 2 -22 -0.45 0.95
-2 -22 0 0.12 1.77
0 -2 22 0.95 1.76
22 0 2 4.43 1.31
22 1 -2 1.64 1.46
-1 -2 -22 0.23 0.97
-1 -2 -22 3.72 1.86
22 1 -2 1.32 1.13
22 -1 2 1.15 1.21
2 -22 1 -1.85 1.79
1 2 -22 0.39 1.06
-2 -22 -1 3.59 1.85
1 -2 22 -1.84 1.74
-1 -2 22 4.17 1.91
2 -22 -1 1.47 1.73
1 -2 -22 2.67 1.05
22 1 2 2.16 1.52
22 -1 -2 4.39 1.55
22 -1 -2 -0.34 1.1
1 -2 -22 3.22 1.78
-1 2 -22 0.28 0.98
2 2 -22 0.09 1.21
-2 -2 -22 6.28 1.9
2 -2 22 3.29 1.79
-2 -22 -2 0.12 1.8
22 2 -2 1.76 1.16
2 -22 2 2.16 1.85
22 2 -2 0.13 1.48
2 2 -22 0.27 1.01
-2 -2 -22 1.61 0.98
22 -2 2 3.69 1.32
-2 -2 22 2.83 1.95
2 -2 -22 2.54 1.07
-2 -22 2 -2.28 1.81
2 -22 -2 1.42 1.85
22 -2 -2 6.81 1.62
22 2 2 -0.44 1.53
22 -2 -2 0.23 1.1
2 -2 -22 -2.85 1.67
-2 2 -22 2.92 1.07
-3 -2 -22 10.46 2.13
22 3 -2 6.92 1.26
2 -22 3 7.53 2.11
3 2 -22 6.75 1.96
3 2 -22 7.12 1.5
3 2 -22 5.99 1.26
22 -3 2 6.93 1.42
22 3 -2 6.39 1.67
-2 -22 -3 6.12 2
2 -22 -3 4.78 2.07
3 -2 -22 7.34 2.02
22 3 2 5.48 1.65
22 -3 -2 6.11 1.41
3 -2 -22 2.84 1.12
-3 -2 22 7.94 1.96
2 -22 4 1.44 1.93
4 2 -22 4.92 1.92
-4 -2 -22 0.61 1.73
22 4 -2 1.71 1.76
22 -4 2 5.43 1.42
4 2 -22 3.87 1.45
4 2 -22 1.39 1.1
-2 -22 -4 1.65 2.02
-4 -2 22 2.43 2.01
2 -22 -4 1.12 1.79
-4 2 -22 3.59 1.05
22 -4 -2 1.77 1.3
4 -2 -22 2.99 1.88
4 -2 -22 3.25 1.2
22 4 2 2.25 1.59
-2 -22 4 2.68 1.84
5 2 -22 4.83 1.27
-2 -22 -5 4.89 2.04
2 -22 5 5.31 2.03
22 -5 2 4.02 1.42
5 2 -22 3.19 1.5
22 5 -2 2.61 1.72
-5 -2 -22 2.89 1.96
5 2 -22 5.3 2
-2 -22 5 4.21 1.95
22 5 2 3.22 1.72
22 -5 -2 2.56 1.31
2 -22 -5 4.61 2.09
5 -2 -22 3.5 1.96
-5 -2 22 0.67 2.05
-5 2 -22 0.94 1.03
22 6 -2 0.91 1.67
-2 -22 -6 0.58 2.05
22 -6 2 1.25 1.38
2 -22 6 -2.85 2.08
6 2 -22 -1.67 1.84
6 2 -22 -0.18 1.44
-6 -2 -22 -0.1 1.96
6 2 -22 -0.21 1.19
6 -2 -22 -1.32 1.92
-2 -22 6 -3.07 1.84
2 -22 -6 -1.82 1.83
-6 -2 22 -2.48 2.08
-6 2 -22 1.1 1.02
22 6 2 -2.51 1.72
6 -2 -22 -1.35 1.1
22 -6 -2 -1.03 1.21
7 2 -22 4.23 2.07
22 -7 2 4.69 1.46
2 -22 7 6.58 2.17
22 7 -2 4.8 1.76
-2 -22 -7 8.13 2.26
7 2 -22 3.09 1.61
-7 -2 -22 1.42 2.12
7 2 -22 5.69 1.41
22 7 2 7.19 1.92
-7 2 -22 5.18 1.08
7 -2 -22 8.37 2.06
-7 -2 22 1.94 2.04
7 -2 -22 4.79 1.35
2 -22 -7 9.7 2.22
-2 -22 7 5.19 2.21
22 -7 -2 6.61 1.53
22 8 -2 -0.1 1.72
8 2 -22 -2.98 1.98
-8 -2 -22 3.27 2.24
8 2 -22 -0.14 1.54
-2 -22 -8 -0.03 2.2
22 -8 2 1.86 1.42
8 2 -22 -1.53 1.14
2 -22 8 -2.42 2.11
8 -2 -22 0.21 1.65
-2 -22 8 -0.98 2.03
22 -8 -2 -1.91 1.3
8 -2 -22 -0.1 2.05
22 8 2 0.81 1.85
-8 -2 22 -0.72 2.19
8 -2 -22 -0.03 1.18
2 -22 -8 -2.29 1.98
2 -22 9 3.56 2.55
22 9 -2 1.15 1.75
-2 -22 -9 1.45 3.65
9 2 -22 -0.38 1.3
9 2 -22 0.23 1.66
22 -9 -2 0.5 1.46
-9 -2 22 1.01 3.89
-2 -22 9 2.1 2.52
2 -22 -9 3.3 3.06
9 -2 -22 -0.22 1.63
9 -2 -22 3.22 1.33
22 9 2 0.57 1.88
10 2 -22 2.67 1.7
10 2 -22 0.86 1.34
22 10 -2 -0.02 1.97
22 10 2 0.41 2
10 -2 -22 0.5 1.72
10 -2 -22 -0.13 1.31
22 -10 -2 0.53 1.44
11 2 -22 0.22 1.8
22 11 -2 0.16 1.95
11 2 -22 1.33 1.4
11 -2 -22 2.21 1.81
22 -11 -2 2.22 1.72
22 11 2 0.44 2.12
11 -2 -22 1.07 1.36
22 12 -2 -0.07 1.95
12 2 -22 0.62 1.56
12 2 -22 1.58 1.8
22 12 2 1.41 2.14
12 -2 -22 2.2 1.69
22 -12 -2 -1.46 1.53
12 -2 -22 -1.6 1.62
13 2 -22 3.21 1.88
22 13 -2 -0.94 2.07
13 2 -22 0.15 1.54
13 -2 -22 0.3 1.38
22 -13 -2 2.04 1.8
13 -2 -22 0.89 1.9
22 13 2 3 2.23
14 2 -22 4.41 1.69
22 14 -2 5.2 3.02
14 2 -22 2.48 2.22
14 -2 -22 1.35 2.56
14 -2 -22 2.57 1.76
22 14 2 2.1 2.3
15 2 -22 -1 1.83
22 15 -2 1.72 2.28
15 2 -22 0.45 1.66
15 -2 -22 0.07 1.99
15 -2 -22 -0.81 1.41
16 2 -22 0.31 2.04
22 16 -2 2.1 2.19
16 2 -22 -3.1 1.41
16 -2 -22 1.33 1.56
16 -2 -22 3.25 2.03
22 17 -2 -1.09 2.2
17 2 -22 0.14 1.97
17 2 -22 0.27 1.64
2 22 -17 2.88 2.2
17 -2 -22 3.27 1.57
17 -2 -22 2.41 2.05
18 2 -22 -1.22 1.9
18 2 -22 -0.85 2.04
18 -2 -22 0.83 2.13
18 -2 -22 -0.62 2.3
3 -22 0 5.73 1.9
0 3 -22 5.21 1.28
0 -3 -22 -0.3 1.74
0 -3 22 4.2 1.88
0 -3 -22 2.03 0.96
-3 -22 0 1.76 1.95
0 3 -22 3.31 1.11
22 0 -3 2.42 1.19
22 0 -3 5.02 1.52
3 -22 1 -3.59 1.74
1 3 -22 0.59 1.2
22 -1 3 -1.84 1.07
22 1 -3 0.68 1.15
1 -3 22 2.43 1.89
-1 -3 -22 -0.16 1.73
1 3 -22 0.96 1.04
22 1 -3 1.73 1.52
-1 -3 -22 -0.37 0.95
-3 -22 -1 0.69 1.73
-3 -22 1 -0.14 1.73
1 -3 -22 -1.96 1.9
-1 -3 22 3.86 1.87
-1 3 -22 3.69 1.11
-1 3 -22 1.48 1.24
22 -1 -3 0.51 1.14
1 -3 -22 -0.53 0.96
3 -22 -1 3.96 1.91
22 -1 -3 0.58 1.47
2 3 -22 5.18 1.26
22 -2 3 5.96 1.28
2 -3 22 6.5 1.94
2 3 -22 8.75 1.42
3 -22 2 5.8 1.98
22 2 -3 8.85 1.67
22 2 -3 5.78 1.26
-3 -22 -2 4.22 1.82
-2 -3 -22 6.72 2.02
22 2 3 10.63 1.74
22 -2 -3 6.59 1.63
-2 3 -22 4.13 1.13
-3 -22 2 4.17 2.07
22 -2 -3 6.17 1.36
2 -3 -22 6.01 1.13
2 -3 -22 5.16 2.03
-2 -3 22 6.23 2.12
3 -22 -2 7.4 2.01
-3 -3 -22 4.02 1.81
3 3 -22 4.9 1.43
3 -3 22 3.87 1.75
3 -22 3 8.14 2.05
-3 -22 -3 4.78 1.92
22 3 -3 8.86 1.79
22 3 -3 7.63 1.28
3 3 -22 5.79 1.24
22 -3 3 6.38 1.36
-3 3 -22 2.05 1.05
-3 -22 3 5.46 1.88
3 -22 -3 2.45 1.92
3 -3 -22 6.02 2.01
3 -3 -22 4.77 1.15
22 -3 -3 6.1 1.81
-3 -3 22 7.1 1.92
22 -3 -3 6.83 1.4
22 3 3 3.9 1.62
22 4 -3 1.48 1.83
22 -4 3 0.11 1.19
4 3 -22 -0.22 1.13
3 -22 4 1.78 1.85
4 3 -22 0.06 1.81
-4 -3 -22 0.12 1.89
22 4 -3 0.88 1.55
-3 -22 -4 -0.56 1.83
4 3 -22 -2.27 1.32
22 4 3 1.36 1.59
-3 -22 4 1.37 1.98
4 -3 -22 1.39 1.1
4 -3 -22 -2.99 1.67
22 -4 -3 -1.05 1.17
3 -22 -4 0.36 1.88
-4 3 -22 -1.15 0.97
-4 -3 22 2.78 1.98
-5 -3 -22 6.89 2.11
5 3 -22 5.17 1.36
5 3 -22 7.84 2.03
-3 -22 -5 6.39 2.12
5 3 -22 3.93 1.55
3 -22 5 3.94 1.99
22 5 -3 5.45 1.85
-3 -22 5 9.58 2.16
5 -3 -22 2.89 1.2
5 -3 -22 3.66 1.95
22 -5 -3 3.73 1.34
3 -22 -5 4.46 2.03
22 5 3 4.95 1.76
-5 -3 22 3.03 2.09
-5 3 -22 3.49 1.07
-6 -3 -22 5.57 2.19
22 6 -3 4.68 1.93
3 -22 6 7.24 2.11
6 3 -22 0.91 1.84
6 3 -22 4.35 1.33
-3 -22 -6 2.18 1.98
6 3 -22 2.34 1.53
6 -3 -22 5.91 2.08
3 -22 -6 2.34 2.14
22 -6 -3 2.81 1.36
22 6 3 4.75 1.9
6 -3 -22 2.54 1.83
-3 -22 6 4.2 2.14
-6 -3 22 0.72 2.14
22 7 -3 4.49 1.82
3 -22 7 1.41 2.06
-7 -3 -22 6.62 2.21
7 3 -22 6.11 1.68
-3 -22 -7 8.86 2.1
7 3 -22 4.14 1.35
7 3 -22 6.06 2.08
7 -3 -22 3.51 2.07
-7 -3 22 6.99 2.3
3 -22 -7 9.11 2.21
22 -7 -3 4.56 1.5
22 7 3 6.63 1.89
-3 -22 7 1.88 2.21
7 -3 -22 3.85 1.34
3 -22 8 8.8 2.28
-8 -3 -22 6.95 2.42
8 3 -22 9.26 1.81
8 3 -22 7.28 2.2
22 8 -3 5.32 1.88
8 3 -22 7.13 1.56
-3 -22 -8 4.32 2.23
22 8 3 6.42 1.95
8 -3 -22 8.51 1.48
-3 -22 8 4.59 2.32
8 -3 -22 10.43 2.24
-8 -3 22 7.6 2.2
3 -22 -8 6.34 2.2
22 -8 -3 6.2 1.59
9 3 -22 1.21 1.36
9 3 -22 2.97 1.71
22 9 -3 3.18 1.97
9 -3 -22 1.56 1.75
22 9 3 1.91 2.02
22 -9 -3 3.57 1.63
9 -3 -22 2.33 1.35
22 10 -3 1.02 1.87
10 3 -22 -0.54 1.64
10 -3 -22 0.79 1.67
10 -3 -22 -0.27 1.33
22 10 3 -0.23 1.98
22 -10 -3 -1.09 1.5
22 11 -3 -0.99 2
11 3 -22 1.78 1.5
11 3 -22 0.69 1.86
22 11 3 2.76 2.07
11 -3 -22 -0.95 1.38
22 -11 -3 1.32 1.51
11 -3 -22 3.78 1.49
12 3 -22 0.07 1.73
12 3 -22 2.14 1.75
22 12 -3 2.07 2.04
22 12 3 1.68 2.09
12 -3 -22 1.87 1.62
22 -12 -3 1.92 1.76
13 3 -22 3.99 1.59
22 13 -3 -1.24 2.09
13 3 -22 4.23 2.23
13 -3 -22 2.97 1.53
13 -3 -22 2.73 1.98
22 -13 -3 0.46 1.68
14 3 -22 1.45 1.57
22 14 -3 3.62 2.39
14 3 -22 1.64 2.09
14 -3 -22 1.89 1.51
22 -14 -3 0.95 1.7
14 -3 -22 3.56 2.01
22 15 -3 0.99 2.23
3 22 -15 -4.14 1.57
15 3 -22 1.38 1.96
15 3 -22 0.98 1.62
15 -3 -22 0.53 1.45
15 -3 -22 -0.67 2.06
22 16 -3 0.97 2.21
16 3 -22 -0.16 1.64
3 22 -16 1.13 1.7
16 3 -22 3.16 1.94
16 -3 -22 2.55 2.11
16 -3 -22 -3.03 1.45
17 3 -22 0.33 1.71
22 17 -3 -0.65 2.21
17 3 -22 1.26 1.98
17 -3 -22 -1.1 2.09
17 -3 -22 2.56 1.62
18 3 -22 1.76 2.01
18 -3 -22 1.09 2.14
-4 -22 0 0.85 1.93
0 -4 -22 -0.67 1.83
4 -22 0 -0.12 1.81
0 -4 -22 1.17 1.1
0 -4 22 2.18 1.82
0 4 -22 0.89 1.29
0 4 -22 4.67 1.19
22 0 -4 2.96 1.29
22 0 -4 0.3 1.51
-4 -22 -1 5.07 1.92
-1 -4 -22 3.4 1.98
22 1 -4 5.99 1.37
1 4 -22 2.93 1.08
4 -22 1 3.42 1.83
22 1 -4 5.62 1.63
1 4 -22 4.75 1.37
1 -4 22 2.27 1.92
1 -4 -22 5.05 1.88
-4 -22 1 2.7 2.07
22 -1 -4 3.59 1.29
-1 -4 22 1.09 1.89
22 -1 -4 3.83 1.58
-1 4 -22 3.84 1.12
1 -4 -22 4.62 1.08
4 -22 -1 4.17 1.96
4 -22 2 4.96 1.91
22 2 -4 -0.37 1.49
-2 -4 -22 1.15 2.04
-4 -22 -2 3.82 1.76
2 4 -22 4.04 1.38
2 -4 22 6.98 2.02
2 4 -22 1.86 1.23
22 2 -4 3.97 1.31
2 -4 -22 1.2 1.88
22 2 4 -0.4 1.81
4 -22 -2 0.35 1.85
-2 -4 22 2.95 1.98
-2 4 -22 2.05 1.12
2 -4 -22 0.24 1.02
22 -2 -4 1.93 1.28
-4 -22 2 1.7 2.01
22 -2 -4 3.43 1.6
22 3 -4 0.87 1.56
-3 -4 -22 1.86 2.03
-4 -22 -3 3.04 1.85
3 -4 22 2.97 1.81
3 4 -22 0.88 1.31
22 3 -4 1.72 1.22
4 -22 3 1.39 1.89
3 4 -22 1.95 1.18
-3 4 -22 -0.84 0.94
4 -22 -3 1.33 1.84
22 3 4 0.71 1.61
-3 -4 22 -0.06 1.93
22 -3 -4 0.87 1.57
3 -4 -22 0.91 1.04
3 -4 -22 5.17 1.89
22 -3 -4 1.78 1.24
-4 -22 3 0.01 1.8
22 4 -4 15.92 1.94
4 -22 4 12.07 2.26
-4 -4 -22 14.38 2.39
4 -4 22 23.12 2.68
-4 -22 -4 16.74 2.39
4 4 -22 21.47 2.04
22 4 -4 16.61 2.3
4 4 -22 14.53 1.92
4 -4 -22 18.78 2.39
22 4 4 18.51 2.42
-4 -22 4 19.53 2.64
-4 -4 22 14.79 2.39
4 -22 -4 20.84 2.48
4 -4 -22 18.47 1.78
22 -4 -4 17.95 2.07
-4 -22 -5 0.48 2.02
22 5 -4 4.14 1.85
5 4 -22 2.15 1.47
5 4 -22 1.31 1.2
-5 -4 -22 2.21 2.02
4 -22 5 0.1 1.97
5 4 -22 0.4 1.88
-4 -22 5 2.58 1.99
-5 -4 22 7.4 2.13
5 -4 -22 2.71 1.16
4 -22 -5 2.73 1.91
22 -5 -4 2.61 1.41
22 5 4 1.98 1.74
5 -4 -22 3.74 1.96
6 4 -22 0.8 1.5
4 -22 6 -0.52 1.88
-4 -22 -6 4.11 2.08
6 4 -22 3 1.23
22 6 -4 1.2 1.79
6 4 -22 4.2 2
-6 -4 -22 3.95 2.26
6 -4 -22 3.94 2.04
22 -6 -4 0.35 1.32
6 -4 -22 1.96 1.19
-4 -22 6 2.57 2.02
22 6 4 2.92 1.78
-6 -4 22 1.46 2.08
4 -22 -6 4.25 2.13
-4 -22 -7 17.8 2.48
22 7 -4 11.89 2.17
7 4 -22 12.72 1.85
-7 -4 -22 11.45 2.56
7 4 -22 11.7 2.22
7 4 -22 9.99 1.67
22 7 4 13.32 2.13
7 -4 -22 12.61 1.58
-7 -4 22 12.37 2.54
7 -4 -22 12.38 2.22
4 -22 -7 12.81 2.48
22 -7 -4 10.95 1.78
-4 -22 7 11.9 2.49
4 -22 8 1.14 2.26
8 4 -22 3.7 2.41
-4 -22 -8 -1.1 2.31
22 8 -4 3.49 1.87
8 4 -22 0.34 1.3
8 4 -22 0.42 1.6
-8 -4 -22 -1.21 2.58
22 8 4 4.76 1.94
-4 -22 8 -3.24 2.26
8 -4 -22 2.86 2.44
22 -8 -4 3.56 1.56
4 -22 -8 1.9 2.16
-8 -4 22 2 2.41
8 -4 -22 1.72 1.31
9 4 -22 -1.9 1.24
9 4 -22 2.36 1.75
22 9 -4 -0.29 1.76
9 -4 -22 0.45 1.2
22 9 4 -0.75 1.96
9 -4 -22 2.43 1.72
22 -9 -4 1.78 1.45
22 10 -4 3.36 2.07
10 4 -22 3.52 1.78
10 4 -22 1.68 1.41
22 -10 -4 3.46 1.64
10 -4 -22 2.8 1.34
10 -4 -22 3.76 1.29
22 10 4 2.58 2.08
11 4 -22 1.32 1.6
11 4 -22 2.02 1.76
22 11 -4 1.14 1.97
11 -4 -22 0.27 1.32
22 11 4 -1.16 2.14
22 -11 -4 0.15 1.41
11 -4 -22 -0.72 1.32
22 12 -4 3.46 2.14
12 4 -22 2.88 1.93
12 -4 -22 2.69 1.75
12 -4 -22 4.77 1.74
4 22 -13 3.14 1.65
22 13 -4 5.5 3.01
13 4 -22 4.13 1.65
13 -4 -22 3.73 1.53
13 -4 -22 4.19 2.3
22 -13 -4 6.99 1.89
4 22 -14 2.2 1.67
22 14 -4 -0.42 2.23
14 4 -22 4.07 1.98
14 4 -22 -0.72 1.53
14 -4 -22 0.96 2.08
14 -4 -22 0.3 1.44
22 -14 -4 -1.33 1.6
15 4 -22 1.71 1.7
4 22 -15 3.73 1.83
22 15 -4 4.39 2.28
15 4 -22 2.95 2.02
15 -4 -22 4.96 1.65
15 -4 -22 4.15 2.05
16 4 -22 0.05 1.62
4 22 -16 4.66 2.13
22 16 -4 -1.26 2.18
16 4 -22 3.23 2.07
16 -4 -22 0.5 2.07
16 -4 -22 -3.36 1.39
22 17 -4 -5.26 2.19
17 4 -22 1.77 1.62
17 4 -22 1.37 1.97
17 -4 -22 0.12 2.07
22 18 -4 -0.17 2.22
18 4 -22 3.11 2.13
18 -4 -22 0.11 2.04
-5 -22 0 59.14 3.56
0 5 -22 61.3 2.88
22 0 -5 63.24 3.21
5 -22 0 58.02 3.62
22 0 -5 62.35 3.03
1 5 -22 4.87 1.28
22 1 -5 3.09 1.6
22 1 -5 5.49 1.39
-1 -5 -22 5.37 1.91
-5 -22 -1 5.45 2.08
5 -22 1 0.39 1.91
1 -5 22 4.48 1.94
1 -5 -22 2.68 1.93
-5 -22 1 4.98 2.11
-1 5 -22 3.05 1.18
-1 -5 22 3.58 1.98
22 -1 -5 4.74 1.65
22 -1 -5 5.05 1.43
5 -22 -1 6.83 1.96
5 -22 2 3.38 1.91
22 2 -5 4.43 1.3
2 5 -22 4.69 1.39
-5 -22 -2 3.07 2.04
-2 -5 -22 1.41 1.99
2 -5 22 4.62 1.93
22 2 -5 1.57 1.57
2 5 -22 2.68 1.29
22 -2 -5 4.53 1.42
5 -22 -2 4.37 1.97
-2 -5 22 4.4 2.05
2 -5 -22 3.3 1.05
-5 -22 2 3.3 2
22 -2 -5 3.83 1.61
-2 5 -22 1.68 1.08
2 -5 -22 1.48 2.02
3 -5 22 5.79 1.95
-5 -22 -3 5.58 2.17
3 5 -22 5.69 1.4
22 3 -5 5.4 1.78
22 3 -5 5.54 1.3
5 -22 3 8.1 2.09
3 5 -22 6.61 1.33
-3 -5 -22 3.13 2.01
3 -5 -22 5.87 1.2
5 -22 -3 4.62 1.97
22 -3 -5 3.45 1.42
3 -5 -22 6.85 2.04
-5 -22 3 5.37 2.08
-3 -5 22 4.74 2.12
22 3 5 2.24 1.72
22 -3 -5 7.02 1.73
4 5 -22 3.24 1.45
22 4 -5 2.73 1.27
-5 -22 -4 1.99 2.07
-4 -5 -22 3.32 1.88
5 -22 4 2.72 1.99
4 -5 22 -0.72 1.86
4 5 -22 1.45 1.25
22 4 -5 -0.81 1.56
22 -4 -5 1.29 1.31
-4 -5 22 0.89 2.11
22 4 5 1.5 1.73
5 -22 -4 -0.37 1.89
4 -5 -22 0.78 1.02
4 -5 -22 4.54 2.02
-5 -22 4 4.83 2.06
22 -4 -5 0.43 1.63
22 5 -5 34.57 2.3
5 5 -22 36.19 2.46
-5 -22 -5 44.95 3.15
5 -22 5 44.97 3.25
22 5 -5 36.73 2.81
-5 -5 -22 32.12 3.09
22 5 5 36.47 2.86
5 -5 -22 37.51 3.27
-5 -22 5 34.89 3.27
22 -5 -5 37.42 2.56
-5 -5 22 32.04 3.41
22 6 -5 22.98 2.6
6 5 -22 24.15 2.37
-6 -5 -22 20.9 2.69
6 5 -22 18.77 2.11
5 -22 6 22.81 2.99
6 5 -22 24.02 3.07
-5 -22 -6 15.54 2.69
-5 -22 6 23.39 2.85
22 6 5 22.86 2.32
6 -5 -22 22.9 3.12
-6 -5 22 21.1 2.85
6 -5 -22 22.1 1.96
22 -6 -5 17.13 2.21
5 -22 -6 22.94 3.2
5 -22 7 0.8 2.11
7 5 -22 3.98 1.36
22 7 -5 4.27 1.85
7 5 -22 3.75 1.62
-5 -22 -7 6.65 2.32
7 5 -22 2.53 2.11
-7 -5 -22 0.95 2.34
22 -7 -5 2.21 1.47
7 -5 -22 2.13 1.22
-7 -5 22 2.72 2.11
7 -5 -22 1.9 2.11
5 -22 -7 5.47 2.25
-5 -22 7 1.56 1.94
22 7 5 3.12 1.94
8 5 -22 14.48 2.01
8 5 -22 18.23 2.19
22 8 -5 17.72 2.34
22 -8 -5 13.18 1.95
22 8 5 20.31 2.46
8 -5 -22 16.63 1.79
22 9 -5 2.52 1.91
9 5 -22 3.85 1.72
9 5 -22 1.41 1.46
9 -5 -22 2.21 1.35
22 -9 -5 5.18 1.67
10 5 -22 2.88 1.77
10 5 -22 -0.57 1.39
22 10 -5 1.75 1.98
10 -5 -22 2.02 1.34
10 -5 -22 2.35 1.29
22 -10 -5 1.47 1.59
22 11 -5 30.93 3.12
11 5 -22 33.37 2.8
11 5 -22 33.73 2.7
11 -5 -22 35.45 2.53
22 -11 -5 33.85 2.72
12 5 -22 2.61 1.95
12 5 -22 2.17 1.86
22 12 -5 2.85 2.2
12 -5 -22 1.2 1.42
12 -5 -22 1.12 1.74
22 -12 -5 -1.69 1.91
13 5 -22 0.36 1.54
13 5 -22 0.62 1.96
22 -13 -5 -0.51 1.66
13 -5 -22 -0.05 1.48
14 5 -22 1.41 1.9
22 14 -5 1.06 2.09
14 5 -22 2.82 1.75
14 -5 -22 1.03 1.48
22 -14 -5 2.58 1.71
14 -5 -22 1.84 2.06
15 5 -22 2.69 1.72
15 5 -22 -3.83 1.89
22 15 -5 1.96 2.22
15 -5 -22 -1 1.45
22 -15 -5 -1.61 1.59
15 -5 -22 1.79 2.08
16 5 -22 11.25 1.85
22 16 -5 11.95 2.57
16 5 -22 17.06 2.45
16 -5 -22 17.19 2.32
16 -5 -22 20.73 2.49
22 17 -5 5.45 2.28
17 5 -22 0.95 1.63
17 5 -22 5.69 2.13
17 -5 -22 4.94 1.82
17 -5 -22 1.27 2.11
22 18 -5 0.39 2.54
18 -5 -22 1.1 3.13
0 -6 22 26.66 2.99
22 0 -6 25.86 2.47
0 6 -22 19.07 1.88
6 -22 0 24.35 3.06
22 0 -6 25.84 2.22
-6 -22 0 28.53 3.19
0 -6 -22 23.3 2.71
1 -6 22 1.34 1.96
22 1 -6 -0.03 1.55
6 -22 1 -1.04 1.84
1 6 -22 1.47 1.19
-6 -22 -1 2.4 1.98
22 1 -6 1.44 1.25
-6 -22 1 1.41 1.96
-1 6 -22 -0.46 1.05
22 -1 -6 2.07 1.32
-1 -6 22 -0.3 2.01
22 -1 -6 -0.91 1.49
1 -6 -22 -0.21 1.95
6 -22 -1 -0.99 1.92
2 6 -22 -0.1 1.23
22 2 -6 -0.09 1.2
22 2 -6 -2.01 1.56
-2 -6 -22 -2.85 1.78
2 -6 22 0.52 1.85
-6 -22 -2 -1.3 1.87
6 -22 2 -0.88 1.88
2 -6 -22 2.11 1.96
6 -22 -2 4.03 2.02
22 -2 -6 0.03 1.33
-2 -6 22 -0.6 1.98
22 -2 -6 -1.33 1.51
-6 -22 2 -1.53 2.07
-6 -22 -3 5.52 2.05
-3 -6 -22 2.98 2.1
22 3 -6 1.03 1.22
3 -6 22 3.8 1.89
3 6 -22 1.51 1.19
6 -22 3 1.09 1.92
3 6 -22 5.18 1.44
22 3 -6 2.53 1.64
22 -3 -6 2.94 1.68
-6 -22 3 4.19 2.06
6 -22 -3 4 2.02
3 -6 -22 2.07 1.97
-3 -6 22 -0.58 2.08
22 -3 -6 3.35 1.41
6 -22 4 2.83 1.87
4 6 -22 3.19 1.25
-4 -6 -22 6.96 2.11
22 4 -6 0.84 1.65
4 -6 22 3.31 1.95
-6 -22 -4 1.5 2.18
22 4 -6 1.18 1.25
4 6 -22 3.18 1.44
-6 -22 4 3.53 2.01
6 -22 -4 1.02 1.99
22 -4 -6 2.17 1.37
-4 -6 22 -1.57 1.86
22 -4 -6 1.9 1.69
4 -6 -22 5.06 2.08
5 6 -22 23.28 2.17
22 5 -6 20.69 2.02
-5 -6 -22 23.94 2.82
-6 -22 -5 21.18 2.7
5 -6 22 23.2 2.94
22 5 -6 20.46 2.51
5 6 -22 18.26 2.23
6 -22 5 20.11 2.84
6 -22 -5 19.09 2.44
22 -5 -6 22.91 2.28
5 -6 -22 21.46 2.96
5 -6 -22 20 1.89
-6 -22 5 22.01 3.16
-5 -6 22 26.65 2.93
-6 -6 -22 10.18 2.4
6 -22 6 10.36 2.22
6 6 -22 5.28 1.66
22 6 -6 10.89 2.02
6 6 -22 8.37 2.17
-6 -22 -6 7.75 2.32
6 6 -22 6.15 1.48
6 -22 -6 12.52 2.38
6 -6 -22 9.44 2.36
-6 -22 6 6.75 2.41
6 -6 -22 4.75 1.26
22 -6 -6 6.71 1.61
-6 -6 22 0.29 2.28
-6 -22 -7 3.44 3.34
22 7 -6 7.92 1.96
7 6 -22 5.74 1.66
7 6 -22 6.33 1.51
-6 -22 7 10.64 3.8
6 -22 -7 9.1 3.49
22 -7 -6 7.42 1.66
-7 -6 22 8.68 3.69
7 -6 -22 2.41 1.26
7 -6 -22 8 3.15
8 6 -22 4.48 1.46
22 8 -6 6.87 2.03
8 6 -22 2.19 1.68
8 -6 -22 0.24 1.24
22 -8 -6 3.74 1.59
22 9 -6 3.06 1.87
9 6 -22 0.16 1.35
9 6 -22 1.77 1.66
22 -9 -6 0.06 1.48
9 -6 -22 0.22 1.37
10 6 -22 1.34 1.73
10 6 -22 -0.39 1.38
22 10 -6 -1.2 1.98
22 -10 -6 0.79 1.58
10 -6 -22 0.06 1.27
10 -6 -22 0.32 1.44
11 6 -22 12.27 2.13
11 6 -22 16.26 2.78
22 11 -6 13.82 2.36
11 -6 -22 16.56 2.14
22 -11 -6 13.66 2.97
11 -6 -22 10.93 2.12
12 6 -22 1.49 1.6
22 12 -6 -0.46 2.23
12 -6 -22 1.23 1.96
22 -12 -6 -0.34 1.53
12 -6 -22 -1.4 1.4
13 6 -22 4.41 1.92
22 13 -6 1.01 2.3
13 6 -22 4.62 1.67
22 -13 -6 -3.41 1.42
13 -6 -22 -2.32 1.35
13 -6 -22 0.92 2.14
14 6 -22 2.35 2.03
14 6 -22 2.45 1.77
22 14 -6 1.84 2.16
14 -6 -22 -0.67 1.48
14 -6 -22 1.16 1.98
22 -14 -6 0.01 1.72
22 15 -6 0.26 2.32
15 6 -22 0.18 1.62
15 6 -22 1.54 1.99
15 -6 -22 2.2 1.49
15 -6 -22 2.33 2.08
22 -15 -6 -1.27 1.57
16 6 -22 5.51 2.44
16 6 -22 5.08 1.77
22 16 -6 6.22 2.34
16 -6 -22 4.84 2.15
16 -6 -22 6.46 1.67
22 17 -6 1.82 2.19
17 6 -22 -3.78 2.12
17 6 -22 0.87 2.06
17 -6 -22 2.11 2.13
0 7 -22 0.19 1.15
0 -7 -22 0.62 1.98
7 -22 0 4.87 1.98
0 -7 22 -3.53 1.89
22 0 -7 4.04 1.74
-7 -22 0 -1.94 2.12
22 0 -7 -0.07 1.28
-1 -7 -22 10.59 2.35
1 -7 22 7.03 2.09
1 7 -22 6.75 1.43
22 1 -7 7.13 1.47
22 1 -7 6.75 1.8
7 -22 1 9.61 2.1
-7 -22 -1 9.39 2.26
22 -1 -7 6.22 1.76
7 -22 -1 7.69 2.12
22 -1 -7 6.97 1.52
-1 -7 22 7.74 2.23
-7 -22 1 8.04 2.21
1 -7 -22 5.09 2.03
2 -7 22 6.87 2.19
-7 -22 -2 6.46 2.2
-2 -7 -22 5.32 2.23
2 7 -22 5.86 1.38
22 2 -7 5.47 1.74
7 -22 2 4.23 2.05
22 2 -7 3.92 1.38
22 -2 -7 4.24 1.66
22 -2 -7 4.81 1.48
-2 -7 22 7.4 2.35
-7 -22 2 5.83 2.26
7 -22 -2 1.81 2.04
2 -7 -22 8.29 2.21
22 3 -7 5.66 1.8
22 3 -7 5.48 1.36
3 7 -22 2.3 1.3
7 -22 3 2.01 2.08
-3 -7 -22 1.57 2.08
3 -7 22 3.52 1.94
-7 -22 -3 0.79 2.17
7 -22 -3 2.72 2.03
3 -7 -22 5.75 1.97
-7 -22 3 2.64 2.02
22 -3 -7 5.67 1.68
22 -3 -7 4.24 1.49
-3 -7 22 8.38 2.23
4 -7 22 12.23 2.24
-7 -22 -4 12.93 2.45
22 4 -7 10.07 1.58
-4 -7 -22 12.59 2.48
4 7 -22 12.47 1.75
22 4 -7 11.05 2.03
4 7 -22 12.57 1.76
7 -22 4 12.28 2.3
7 -22 -4 5.37 2.18
-4 -7 22 14.62 2.51
4 -7 -22 15.28 2.5
22 -4 -7 11.9 1.81
-7 -22 4 15.24 2.5
22 -4 -7 14.21 1.95
-7 -22 -5 1.96 2.34
5 -7 22 4.54 2.08
22 5 -7 1.95 1.79
5 7 -22 3.8 1.46
-5 -7 -22 -2.34 2.21
5 7 -22 4.81 1.58
22 5 -7 0.03 1.28
7 -22 5 3.05 2.18
5 -7 -22 0.5 2.16
-5 -7 22 -0.01 2.25
22 -5 -7 3.86 1.8
7 -22 -5 2.88 2.07
22 -5 -7 3.74 1.53
-7 -22 5 6.24 2.29
5 -7 -22 1.01 1.15
6 7 -22 8.16 1.72
22 6 -7 4.19 1.46
6 7 -22 6.48 1.54
22 6 -7 8.34 1.98
22 -6 -7 4.45 1.57
6 -7 -22 6.34 1.3
6 -7 -22 3.88 2.79
7 7 -22 10.64 1.78
22 7 -7 9.43 2.08
7 7 -22 6.03 1.58
22 -7 -7 7.58 1.71
7 -7 -22 8.65 1.37
22 8 -7 0.93 1.96
8 7 -22 0.19 1.6
8 7 -22 -0.78 1.36
22 -8 -7 1.69 1.55
8 -7 -22 2.02 1.31
9 7 -22 4.7 1.52
22 9 -7 0.76 1.83
9 7 -22 5.48 1.77
9 -7 -22 3.51 1.42
22 -9 -7 1.41 1.44
10 7 -22 4.1 1.59
10 7 -22 6.98 1.89
22 10 -7 4.29 2.06
22 -10 -7 2.08 1.62
11 7 -22 1.47 1.91
11 7 -22 2.93 2.74
22 11 -7 1.33 2.18
11 -7 -22 0.14 1.92
11 -7 -22 -1.11 1.37
22 -11 -7 1.65 1.9
12 7 -22 5.71 1.68
12 7 -22 5.61 2.02
22 -12 -7 9.47 1.91
12 -7 -22 4.13 1.55
13 7 -22 4.13 1.99
22 13 -7 2.08 2.25
13 7 -22 5.64 1.7
13 -7 -22 2.7 1.49
13 -7 -22 -2.1 2.07
22 -13 -7 1.11 1.58
22 14 -7 -0.86 2.12
14 7 -22 -1.19 1.92
14 7 -22 1.79 1.64
14 -7 -22 3.56 2.1
22 -14 -7 1.85 1.67
14 -7 -22 2.59 1.62
22 15 -7 4.8 2.29
15 7 -22 8.79 2.13
15 7 -22 5.7 1.85
22 -15 -7 8.33 1.91
15 -7 -22 5.83 2.12
15 -7 -22 7.31 1.77
22 16 -7 5.01 2.23
16 7 -22 0.29 1.65
16 7 -22 -2.02 2.04
16 -7 -22 -0.24 2.09
22 17 -7 2.39 2.29
17 -7 -22 3.23 2.17
0 8 -22 0.55 1.2
0 -8 22 4.85 2.18
8 -22 0 1.96 2.07
22 0 -8 0.35 1.36
0 -8 -22 1.9 2.11
-8 -22 0 3.43 2.33
22 0 -8 2.36 1.68
22 1 -8 1.81 1.38
1 -8 22 1.29 2.07
8 -22 1 8.14 2.14
22 1 -8 4.72 1.8
-8 -22 -1 3.11 2.34
1 8 -22 3.23 1.29
-1 -8 -22 8.24 2.38
8 -22 -1 2.51 2.03
1 -8 -22 1.15 2.07
22 -1 -8 3.36 1.4
22 -1 -8 2.18 1.68
-1 -8 22 5.21 2.23
-8 -22 1 7.45 2.34
22 2 -8 -3.1 1.25
-2 -8 -22 1 2.2
2 8 -22 -1.72 1.12
-8 -22 -2 5.57 2.24
22 2 -8 0.74 1.64
2 -8 22 -2.28 2.11
8 -22 2 2.34 2.08
-2 -8 22 2.44 2.19
22 -2 -8 0.18 1.67
8 -22 -2 4.49 2.08
22 -2 -8 -1.07 1.37
2 -8 -22 -2.43 2.07
-8 -22 2 -3.23 2.21
-8 -22 -3 7.69 2.32
8 -22 3 5.8 2.17
3 -8 22 5.38 2.26
-3 -8 -22 1.74 2.18
22 3 -8 6.72 1.89
22 3 -8 7.77 1.52
3 8 -22 7.64 1.55
-3 -8 22 5.72 2.35
8 -22 -3 3.56 2.09
22 -3 -8 5.87 1.82
22 -3 -8 9.6 1.63
-8 -22 3 8.26 2.4
3 -8 -22 8.25 2.29
-8 -22 -4 -0.82 2.59
22 4 -8 -0.1 1.37
4 8 -22 0.93 1.35
22 4 -8 0.91 1.73
-4 -8 -22 2.03 2.34
4 -8 22 4.19 2.2
8 -22 4 3.1 2.36
-4 -8 22 0.35 2.25
-8 -22 4 0.27 2.36
22 -4 -8 2.47 1.45
4 -8 -22 3.72 2.22
8 -22 -4 0.31 2.3
22 -4 -8 1.58 1.74
5 8 -22 15.74 2.13
22 5 -8 15.59 2.08
22 5 -8 18.15 2.27
22 -5 -8 21.33 2.33
22 -5 -8 19.71 2.61
6 8 -22 2.54 1.38
6 8 -22 3.96 1.6
22 6 -8 1.19 1.77
22 6 -8 0.63 1.42
22 -6 -8 2.18 1.59
22 -6 -8 4.8 2.38
22 7 -8 1.37 1.91
7 8 -22 0.37 1.39
7 8 -22 4.29 1.62
22 -7 -8 0.8 1.52
7 -8 -22 -0.56 1.29
22 8 -8 0.76 1.9
8 8 -22 1.02 1.62
8 8 -22 -0.07 1.35
8 -8 -22 -2.03 1.67
22 -8 -8 -0.28 1.4
22 9 -8 3.9 2.08
9 8 -22 -1.12 1.64
9 8 -22 1.13 1.47
22 -9 -8 -1.15 1.48
22 10 -8 0.15 2.04
10 -8 -22 -1.22 1.34
22 11 -8 4.59 2.7
11 8 -22 2.96 1.6
11 8 -22 4.88 1.94
11 -8 -22 3.84 1.51
22 -11 -8 5.68 1.83
11 -8 -22 5.82 2.74
12 8 -22 0.45 1.9
22 12 -8 1.73 2.16
12 8 -22 -1.95 1.56
12 -8 -22 4.58 2.08
22 -12 -8 2.98 1.75
12 -8 -22 4 1.57
13 8 -22 3.07 1.68
13 8 -22 0.45 1.89
22 13 -8 0.21 2.24
22 -13 -8 -1.9 1.55
13 -8 -22 -2.72 1.97
13 -8 -22 1.35 1.57
14 8 -22 2.1 1.63
14 8 -22 3.11 2.11
22 14 -8 1.45 2.23
14 -8 -22 1.65 2.1
14 -8 -22 -1.74 1.59
22 -14 -8 -1.31 1.46
15 8 -22 0.01 1.62
22 15 -8 4.96 2.29
15 8 -22 1.44 2.05
22 -15 -8 -1.19 1.63
15 -8 -22 -3.07 2.04
15 -8 -22 -0.79 1.63
16 8 -22 1.95 1.94
22 16 -8 10.47 2.37
16 8 -22 1.92 2.13
16 -8 -22 5.89 2.24
22 -16 -8 3.18 1.95
9 -22 0 3.89 3.13
0 -9 22 4.53 2.39
0 -9 -22 3.73 2.33
22 0 -9 1.08 1.41
22 0 -9 3.23 1.8
1 9 -22 2.69 1.26
22 1 -9 -1.98 1.63
-9 -22 -1 3.59 3.65
22 1 -9 0.67 1.4
-1 -9 -22 -1.81 2.25
1 -9 22 4.33 2.31
-9 -22 1 1.31 3.73
22 -1 -9 0.95 1.71
22 -1 -9 -0.43 1.33
1 -9 -22 0.82 2.73
-1 -9 22 0.04 2.25
22 2 -9 -0.84 1.36
-2 -9 -22 2.82 3.52
2 9 -22 -0.97 1.15
2 -9 22 1.32 2.72
22 2 -9 0.96 1.78
22 -2 -9 -1.03 1.62
2 -9 -22 -1.46 2.5
-2 -9 22 4.04 3.05
22 -2 -9 -2.41 1.27
22 3 -9 2.43 1.84
22 3 -9 3.66 1.44
3 9 -22 2.89 1.34
22 -3 -9 3.74 1.57
22 -3 -9 1.56 1.78
22 4 -9 -0.97 1.36
22 4 -9 1.31 1.8
4 9 -22 -0.09 1.29
22 -4 -9 -1.49 1.43
22 -4 -9 1.05 1.77
5 9 -22 3.98 1.47
22 5 -9 2.04 1.94
22 5 -9 2.14 1.5
22 -5 -9 6.28 1.85
22 -5 -9 4.58 1.9
22 6 -9 -0.32 1.87
6 9 -22 0.14 1.34
22 6 -9 -1.05 1.44
22 -6 -9 2.58 1.63
22 -6 -9 3.85 1.94
7 9 -22 3.05 1.45
22 7 -9 2.15 1.96
7 9 -22 0.67 1.98
22 -7 -9 1.13 1.58
22 8 -9 0.43 1.99
8 9 -22 -0.74 1.75
8 9 -22 0.8 1.4
22 -8 -9 0.23 1.57
22 9 -9 3.28 2.16
9 -9 -22 4.63 1.49
10 9 -22 1.03 1.61
22 10 -9 -0.75 2.17
10 9 -22 5.54 1.88
10 -9 -22 4.06 1.58
22 -10 -9 1.5 1.57
22 11 -9 2.37 2.52
11 9 -22 3.05 1.88
11 9 -22 -2.68 1.34
22 -11 -9 1.71 1.58
11 -9 -22 1.67 1.56
11 -9 -22 2.68 2.35
12 9 -22 -0.27 1.58
22 12 -9 -0.87 2.08
12 9 -22 -1.51 1.97
12 -9 -22 1.83 1.57
12 -9 -22 -0.66 2.05
22 -12 -9 0.05 1.62
13 9 -22 -0.5 1.63
13 9 -22 -1.54 2.02
22 13 -9 0.15 2.18
22 -13 -9 2.03 1.77
13 -9 -22 0.99 1.62
13 -9 -22 -0.54 2.08
14 9 -22 0.31 2.12
22 14 -9 4.72 2.28
14 9 -22 -0.51 1.65
14 -9 -22 0.79 2
14 -9 -22 -2.56 1.75
15 9 -22 -2.95 1.58
22 15 -9 1.62 2.24
15 9 -22 0.83 2.02
15 -9 -22 -2.01 2.13
22 -15 -9 2.65 2.27
22 16 -9 0.35 2.16
16 -9 -22 0.16 2.34
22 0 -10 3.61 1.8
22 0 -10 4.33 1.56
22 1 -10 1.24 1.42
1 10 -22 -0.68 1.13
22 1 -10 1.39 1.77
22 -1 -10 2.4 1.81
22 -1 -10 -0.23 1.44
22 2 -10 -0.63 1.38
22 2 -10 -1.58 1.74
2 10 -22 0.73 1.23
22 -2 -10 0.28 1.48
22 -2 -10 0.8 1.71
22 3 -10 1.1 1.87
22 3 -10 0.86 1.78
3 10 -22 -0.74 1.24
22 -3 -10 -1.62 1.33
22 -3 -10 1.38 1.79
22 4 -10 6.24 1.66
22 4 -10 5.28 1.92
4 10 -22 0.75 1.3
22 -4 -10 3.65 1.88
22 -4 -10 4.99 1.67
22 5 -10 2.51 1.92
22 5 -10 2.95 1.59
5 10 -22 1.39 1.34
22 -5 -10 2.07 1.89
22 -5 -10 5.02 1.71
22 6 -10 -0.24 2.58
6 10 -22 0.09 1.32
22 6 -10 -1.43 1.91
22 -6 -10 2.59 1.7
22 -6 -10 2.55 1.94
7 10 -22 2.97 1.49
22 7 -10 4.19 2
22 7 -10 3.88 1.76
22 -7 -10 3.96 1.7
22 8 -10 1.15 2.08
22 9 -10 2.27 2.27
9 10 -22 2.09 2.68
9 10 -22 0.99 1.44
22 -9 -10 1.67 1.73
22 10 -10 2.92 2.73
10 10 -22 1.21 2.3
10 10 -22 4.04 1.61
22 -10 -10 -0.62 1.6
22 11 -10 1.99 2.11
11 10 -22 0.41 1.94
11 10 -22 -1.8 1.39
11 -10 -22 4.83 2.19
22 -11 -10 0.61 1.58
12 10 -22 4.08 2.13
22 12 -10 5.89 2.25
12 10 -22 4.21 1.67
12 -10 -22 1.8 2.04
22 -12 -10 3.37 1.77
13 10 -22 -0.91 1.69
22 13 -10 -1.27 2.26
13 10 -22 -3.16 2.02
22 -13 -10 2.38 1.67
13 -10 -22 1.24 2.04
13 -10 -22 -5.64 2.23
22 14 -10 1.06 2.13
14 10 -22 0.63 1.66
14 10 -22 -0.46 2.09
14 -10 -22 1.85 2.1
22 15 -10 2.8 2.24
15 -10 -22 3.57 2.22
22 0 -11 34.36 2.92
22 0 -11 28.8 3.35
22 1 -11 0.71 1.87
22 1 -11 2.35 1.52
1 11 -22 -0.01 1.22
22 -1 -11 -0.56 1.57
22 -1 -11 2.42 1.89
22 2 -11 -1.24 1.74
2 11 -22 -1.09 1.28
22 2 -11 2.26 1.53
22 -2 -11 1.11 1.87
22 -2 -11 -1.24 1.43
22 3 -11 3.3 1.89
22 3 -11 3.16 1.57
3 11 -22 2.34 1.34
22 -3 -11 -1.7 1.44
22 -3 -11 3.37 1.89
22 4 -11 1.98 1.84
22 4 -11 1.79 1.67
4 11 -22 -1.54 1.27
22 -4 -11 -0.75 1.84
22 -4 -11 0.54 1.59
22 5 -11 32.98 2.97
5 11 -22 31 2.52
22 -5 -11 29.7 2.92
22 6 -11 12.38 2.32
6 11 -22 11.46 3
22 6 -11 15.25 1.93
22 7 -11 2.09 1.72
22 7 -11 -0.32 1.99
7 11 -22 0.05 1.75
22 -7 -11 2.58 2.22
22 -7 -11 2.6 1.77
8 11 -22 0.64 1.46
22 8 -11 5.53 2.95
22 -8 -11 5.9 1.84
22 9 -11 0.03 2.31
9 11 -22 0.35 1.45
22 -9 -11 -3.6 1.6
10 11 -22 -0.47 1.48
22 10 -11 5.24 2.24
22 -10 -11 -3.05 1.58
22 11 -11 19.67 2.64
11 11 -22 25.99 2.47
22 -11 -11 23 2.5
11 -11 -22 27.47 3
12 11 -22 -0.42 1.56
22 12 -11 1.19 2.28
22 -12 -11 1.7 1.6
12 -11 -22 4.15 2.11
22 13 -11 -2.73 2.05
13 11 -22 0.02 1.62
13 -11 -22 5.41 2.16
22 -13 -11 2.71 1.67
22 14 -11 -1.2 2.26
14 11 -22 -2.63 2.15
14 -11 -22 1.77 2.17
22 15 -11 0.6 2.32
22 0 -12 1.42 1.89
22 0 -12 -0.99 1.64
22 1 -12 2.06 1.96
1 12 -22 2.97 1.41
22 1 -12 3.01 1.8
22 -1 -12 4.36 1.99
22 -1 -12 0.77 1.59
2 12 -22 0.66 1.31
22 2 -12 -1.61 1.89
22 -2 -12 0.58 1.89
22 -2 -12 1.79 1.66
3 12 -22 -0.48 1.39
22 3 -12 2.75 1.91
22 -3 -12 -1.9 2.05
22 -3 -12 -1.22 1.87
22 4 -12 6.91 2.02
22 4 -12 4.67 1.72
22 -4 -12 7.4 2.2
22 5 -12 1.86 1.58
5 12 -22 0.82 2.39
22 5 -12 0.26 2.06
22 -5 -12 2 2.04
6 12 -22 0.1 1.45
22 6 -12 -2.99 2.03
22 6 -12 -0.06 1.57
22 -6 -12 -0.69 1.54
22 -6 -12 -3.54 2.05
22 7 -12 7.6 1.83
7 12 -22 5.09 1.58
22 -7 -12 8.54 2.3
22 -7 -12 8.83 2
22 8 -12 3.61 2.15
8 12 -22 1.2 1.48
22 -8 -12 1.77 1.66
22 9 -12 -2.62 2.09
9 12 -22 -1.23 1.4
22 -9 -12 -1.92 1.56
10 12 -22 4.27 1.7
22 10 -12 7.28 2.33
22 -10 -12 2.36 1.65
11 12 -22 -0.28 1.5
22 11 -12 2.16 2.15
11 -12 -22 0.86 2.09
22 -11 -12 -0.18 1.52
22 12 -12 -3.97 2.07
12 12 -22 -3.07 1.51
12 -12 -22 4.87 2.29
22 -12 -12 0.57 1.66
22 13 -12 -5.04 2.14
13 12 -22 2 1.76
13 -12 -22 0.7 2.25
22 -13 -12 2.8 1.68
22 14 -12 0.93 2.24
22 0 -13 7.52 1.86
22 0 -13 5.63 2.16
22 1 -13 2.97 1.98
22 1 -13 -2.36 1.65
1 13 -22 -0.15 1.55
22 -1 -13 -0.45 1.6
22 -1 -13 1.45 2.08
2 13 -22 -0.12 1.41
22 2 -13 2.17 1.65
22 2 -13 1.15 1.97
22 -2 -13 3.38 1.74
22 3 -13 0.9 1.65
22 3 -13 -1.07 2.07
3 13 -22 0.43 1.43
22 -3 -13 -0.88 1.57
4 13 -22 5.18 1.6
22 4 -13 2.53 1.62
22 -4 -13 1.55 1.66
22 -4 -13 3.73 2.23
5 13 -22 1.7 1.49
22 5 -13 0.06 1.6
22 -5 -13 -0.29 1.56
22 -5 -13 -0.46 2.05
22 6 -13 0.68 1.67
22 6 -13 -0.93 2.09
6 13 -22 2.67 1.45
22 -6 -13 0.67 2.14
22 -6 -13 -0.1 1.71
22 7 -13 0.65 2.1
22 7 -13 2.5 1.77
7 13 -22 2.17 1.48
22 -7 -13 3.38 1.74
22 -7 -13 3.32 2.3
22 8 -13 0.36 2.15
8 13 -22 -1.33 1.47
22 -8 -13 -0.2 1.67
22 9 -13 2.38 2.23
9 13 -22 0.89 1.47
22 -9 -13 -1.44 1.57
22 10 -13 0.73 2.23
10 13 -22 -0.18 1.53
22 -10 -13 -0.28 1.65
22 11 -13 1.84 2.17
11 13 -22 -0.81 1.48
11 -13 -22 5.25 2.22
22 -11 -13 0.03 1.59
12 13 -22 -0.61 1.91
22 12 -13 0.99 2.16
12 -13 -22 -2.34 2.12
22 -12 -13 0.62 1.69
22 13 -13 7.92 2.29
22 0 -14 5.44 2.18
22 0 -14 5.71 1.79
22 1 -14 1.44 1.63
22 1 -14 1.07 2.14
1 14 -22 -2.65 1.23
22 -1 -14 -0.99 1.55
22 -1 -14 -1.12 1.98
22 2 -14 1.97 1.67
2 14 -22 2.37 1.41
22 2 -14 -0.26 2.06
22 -2 -14 -0.19 1.66
22 -2 -14 3.18 2.07
22 3 -14 1.39 1.63
22 3 -14 2.16 2.03
3 14 -22 3.24 1.56
22 -3 -14 1.91 2.1
22 -3 -14 2.03 1.81
4 14 -22 1.58 1.46
22 4 -14 1.06 1.62
22 4 -14 2.66 2.15
22 -4 -14 1.83 2.13
22 -4 -14 0.88 1.66
22 5 -14 3.31 2.08
22 5 -14 -0.41 1.66
5 14 -22 1.47 1.42
22 -5 -14 2.71 2.11
22 -5 -14 3.63 1.66
22 6 -14 0.68 1.73
6 14 -22 3.14 1.57
22 6 -14 2.92 2.15
22 -6 -14 0.64 2.17
22 -6 -14 1.69 1.76
22 7 -14 -0.51 2.13
7 14 -22 2.74 1.57
22 7 -14 -2.61 1.79
22 -7 -14 -1.07 2.22
22 -7 -14 2.52 1.77
22 8 -14 1.06 2.25
8 14 -22 2 1.47
22 -8 -14 -0.97 1.65
22 9 -14 2.54 2.26
9 14 -22 3.18 1.59
22 -9 -14 -1.5 1.63
10 14 -22 2.18 1.68
22 10 -14 3.22 2.31
22 -10 -14 -1.18 1.61
11 14 -22 -0.06 2.2
22 11 -14 6.4 2.24
11 -14 -22 2.11 2.28
22 -11 -14 -1.03 1.53
22 12 -14 -0.6 2.17
22 0 -15 3.33 1.74
22 0 -15 0.42 2.02
22 1 -15 0.86 2.06
22 1 -15 3.43 1.72
1 15 -22 1.3 1.35
22 -1 -15 6.83 2.13
22 -1 -15 0.32 1.67
22 2 -15 -0.06 2.04
2 15 -22 -0.98 1.44
22 2 -15 1.74 1.72
22 -2 -15 2.69 2.16
22 -2 -15 1.11 1.71
22 3 -15 0.55 1.64
3 15 -22 4.38 1.49
22 3 -15 1.59 2.08
22 -3 -15 -1.57 1.63
22 -3 -15 1.23 2.11
22 4 -15 5.11 1.71
4 15 -22 1.84 1.46
22 4 -15 4.78 2.18
22 -4 -15 2.41 1.64
22 -4 -15 4.19 2.17
22 5 -15 -0.29 2.07
5 15 -22 1.55 1.46
22 5 -15 -1.43 1.66
22 -5 -15 2.77 1.71
22 -5 -15 0.42 2.21
6 15 -22 1.15 1.5
22 6 -15 -2.46 2.09
22 6 -15 -0.42 1.73
22 -6 -15 5.38 1.87
7 15 -22 2.06 1.6
22 7 -15 3.32 1.91
22 7 -15 4.47 2.24
22 -7 -15 3.86 1.83
22 -7 -15 6.13 2.32
8 15 -22 -0.92 1.41
22 8 -15 4.07 2.24
22 -8 -15 2.67 1.73
22 9 -15 1.41 2.26
9 15 -22 0.49 1.56
22 -9 -15 1.43 1.63
22 10 -15 4.59 2.26
22 -10 -15 0.78 2.2
22 11 -15 0.09 2.25
0 16 -22 16.05 2.12
22 0 -16 25.66 2.56
22 0 -16 23.93 2.95
1 16 -22 -0.53 1.33
22 1 -16 4.65 2.13
22 1 -16 3.92 1.76
22 -1 -16 4.07 1.78
22 -1 -16 4.35 2.18
22 2 -16 -2.27 2.05
2 16 -22 0.96 1.43
22 2 -16 0.5 1.7
22 -2 -16 2.56 2.15
22 -2 -16 -0.1 1.67
3 16 -22 0.55 1.49
22 3 -16 1.02 2.09
22 3 -16 -2.63 1.64
22 -3 -16 -2.01 2.14
22 -3 -16 1.95 1.71
4 16 -22 0.56 1.5
22 4 -16 4.1 2.07
22 4 -16 1.12 1.75
22 -4 -16 1.4 2.17
22 -4 -16 -0.95 1.49
5 16 -22 11.66 1.76
22 5 -16 17.71 2.47
22 5 -16 8.83 1.95
22 -5 -16 11.13 1.95
22 -5 -16 15.62 2.48
6 16 -22 6.99 1.68
22 6 -16 5.24 2.34
22 6 -16 6.19 2.43
22 -6 -16 5.03 2.33
22 -6 -16 7.93 1.93
7 16 -22 0.99 1.55
22 7 -16 0.07 2.16
22 -7 -16 4.65 1.91
22 8 -16 5.65 2.27
22 -8 -16 2.92 1.74
22 9 -16 1.5 2.18
22 0 -17 1.74 1.73
0 17 -22 1.82 1.35
22 0 -17 -0.53 2.08
22 1 -17 2.33 1.67
1 17 -22 -0.33 1.4
22 1 -17 0.04 2.14
22 -1 -17 0.84 1.73
22 -1 -17 4.3 2.24
22 2 -17 0.1 2.06
22 2 -17 0.51 1.73
2 17 -22 1.99 1.51
22 -2 -17 -1.2 1.72
22 -2 -17 -0.33 2.16
22 3 -17 0.51 2.04
22 3 -17 1.16 1.73
3 17 -22 0.11 1.5
22 -3 -17 0.3 2.2
22 -3 -17 -1.46 1.6
22 4 -17 0.65 1.9
22 4 -17 0.78 2.17
4 17 -22 0.66 1.54
22 -4 -17 -1.69 2.11
22 -4 -17 1.08 1.68
22 5 -17 4.7 2.24
5 17 -22 4.7 1.6
22 -5 -17 4.59 1.79
22 -5 -17 -0.45 2.28
22 6 -17 -1.43 2.16
22 -6 -17 1.31 1.94
22 7 -17 3.44 2.26
22 0 -18 2.86 2.15
0 18 -22 -2.9 1.49
22 0 -18 1.66 2.14
22 1 -18 0.73 2.16
1 18 -22 -0.95 1.86
-1 18 -22 -0.57 1.42
22 -1 -18 1.92 2.23
22 -1 -18 4.48 2.37
22 2 -18 -2.36 2.03
22 -2 -18 -1.16 2.12
22 -2 -18 0.98 2.39
22 3 -18 2.61 2.12
22 -3 -18 -1.26 2.67
22 4 -18 3.56 2.16
22 5 -18 -0.76 2.29
0 -23 0 -2.96 1.78
0 0 -23 0.54 1.05
0 0 -23 0.54 1.92
23 0 0 1.58 1.24
23 1 0 7.74 1.82
23 1 0 9.57 1.88
1 0 -23 9.44 2.41
23 -1 0 6.97 1.45
0 -23 1 4.6 2.16
1 0 -23 7.55 1.27
-1 0 -23 11.34 2.3
0 -23 -1 11.27 2.23
-1 0 -23 7.21 1.25
23 -2 0 -0.15 1.26
-2 0 -23 0.4 1.05
-2 0 -23 2.27 2.08
0 -23 -2 1.07 2.05
23 2 0 2.8 1.71
0 -23 2 -0.36 2.03
2 0 -23 -2.73 2.01
2 0 -23 3.6 1.2
0 -23 3 6.3 2.12
-3 0 -23 0.11 1.88
23 3 0 0.21 1.67
-3 0 -23 -1.79 1.07
0 -23 -3 3.68 1.98
23 -3 0 -1.21 1.24
3 0 -23 0.81 1.99
3 0 -23 0.88 1.19
-4 0 -23 2.92 1.45
4 0 -23 2.4 1.6
23 4 0 1.95 1.76
4 0 -23 3.45 1.27
23 -4 0 -0.43 1.27
-4 0 -23 2.61 2.22
4 0 -23 3.53 2.17
0 -23 4 5.15 2.2
0 -23 -4 4.95 2.27
0 -23 -5 0.47 2.22
-5 0 -23 -0.42 2.19
5 0 -23 0.44 1.59
0 -23 5 1.49 2.14
23 5 0 -1.65 1.71
5 0 -23 -3.23 2.03
5 0 -23 0.35 1.21
23 -5 0 -2.59 1.21
6 0 -23 5.46 3.35
23 6 0 -2.75 1.74
6 0 -23 0.7 1.28
0 -23 -6 -0.03 2.31
0 -23 6 2.44 3.08
23 -6 0 -0.29 1.36
6 0 -23 0.52 1.58
-6 0 -23 -1.22 2.52
23 7 0 0.75 1.91
7 0 -23 3.51 1.35
23 -7 0 5.54 1.6
7 0 -23 2.18 1.68
8 0 -23 -0.27 1.7
23 8 0 -0.5 1.94
23 -8 0 0.85 1.57
8 0 -23 -2.02 1.24
23 -9 0 6.23 1.76
23 9 0 11.63 2.28
9 0 -23 12.01 2.04
9 0 -23 9.56 1.68
23 10 0 3.22 2.06
10 0 -23 -0.45 1.37
23 -10 0 -1.18 1.54
10 0 -23 -0.13 1.75
23 11 0 0.32 2.14
11 0 -23 -0.44 1.78
11 0 -23 -0.97 1.83
12 0 -23 6.23 1.64
23 13 0 -0.37 2.23
13 0 -23 0.82 1.46
13 0 -23 3.09 1.88
23 14 0 -1.12 2.2
14 0 -23 2.52 2.01
14 0 -23 -2.68 1.41
23 15 0 8.34 2.38
15 0 -23 6.41 2.23
15 0 -23 5.59 1.75
16 0 -23 1.2 1.51
16 0 -23 3.3 2.04
17 0 -23 2.63 2.1
23 0 -1 6.79 1.4
23 0 -1 7.36 2.15
0 1 -23 5.66 2.15
0 -1 -23 9.61 1.37
1 -23 0 6.64 2.09
0 -1 -23 10.96 2.24
23 0 1 11.63 1.54
0 1 -23 7.26 1.28
-1 -23 0 8.79 2.28
-1 -1 -23 6.93 2.2
1 -23 1 5.24 2.22
-1 -1 -23 6.36 1.24
-1 -23 -1 7.73 2.06
23 1 -1 3.05 1.73
1 1 -23 3.97 2.14
1 1 -23 5.42 1.24
23 -1 1 7.17 1.49
23 1 -1 4.64 1.3
1 -1 -23 7.86 1.29
-1 -23 1 2.97 2.21
23 1 1 1.76 1.83
23 -1 -1 5.22 1.4
1 -1 -23 5.51 2.18
1 -23 -1 7.25 2.19
-1 1 -23 4.78 1.21
-1 -23 -2 1.77 1.79
-2 -1 -23 3.25 1.1
-2 -1 -23 2.75 2.03
1 -23 2 2.92 2.19
23 -2 1 -0.69 1.26
2 1 -23 1.25 1.14
2 1 -23 4.02 2.1
23 2 -1 2.66 1.76
2 1 -23 1.45 1.72
2 -1 -23 -1.59 2.06
23 2 1 1.44 1.73
23 -2 -1 0.82 1.3
2 -1 -23 4.65 1.28
1 -23 -2 3.59 2.11
-2 1 -23 1.94 1.1
-1 -23 2 1.72 2.01
-1 -23 -3 -0.63 2
1 -23 3 -0.02 2.07
3 1 -23 1.7 1.49
23 3 -1 0.51 1.65
3 1 -23 0.95 1.13
3 1 -23 -1.32 1.98
-3 -1 -23 7.81 2.14
23 -3 1 3.13 1.42
23 -3 -1 2.16 1.37
3 -1 -23 3.56 2.1
-3 -1 23 4.31 2.22
1 -23 -3 0.59 1.86
3 -1 -23 0.2 1.15
23 3 1 0.09 1.72
-3 1 -23 3.24 1.14
-1 -23 3 2.14 2.16
23 -4 1 5.92 1.5
4 1 -23 2.41 2.1
-1 -23 -4 2.02 2.31
4 1 -23 4.34 1.56
4 1 -23 3.15 1.19
1 -23 4 6.85 2.16
-4 -1 -23 1.73 2.14
23 4 -1 6.72 1.85
-4 1 -23 0.15 1.12
4 -1 -23 -1.78 2.03
4 -1 -23 4.06 1.32
23 -4 -1 2.8 1.41
-1 -23 4 3.42 2.03
23 4 1 4.53 1.82
1 -23 -4 3.69 2.2
-4 -1 23 0.99 2
5 1 -23 15.42 2
23 5 -1 14.59 2.13
1 -23 5 10.78 2.49
-5 -1 -23 13.1 2.54
5 1 -23 12.39 2.54
-1 -23 -5 4.65 2.35
5 1 -23 14.4 1.94
23 -5 1 16.82 2.21
5 -1 -23 13.32 1.64
1 -23 -5 14.68 2.72
-1 -23 5 10.49 2.4
23 -5 -1 13.05 1.78
5 -1 -23 9.76 2.2
-5 -1 23 11.84 2.53
23 5 1 12.58 2.12
-5 1 -23 10.55 1.4
6 1 -23 9.4 1.83
23 6 -1 10.67 2.08
-6 -1 -23 12.52 3.85
6 1 -23 13.85 3.55
23 -6 1 9.68 1.68
-1 -23 -6 14.64 2.55
1 -23 6 3.76 2.63
6 1 -23 11.74 1.63
6 -1 -23 11.8 1.96
6 -1 -23 9.24 1.57
-6 -1 23 7.68 2.29
1 -23 -6 7.64 3.06
23 -6 -1 5.23 1.45
-1 -23 6 10.82 2.7
6 -1 -23 5.67 2.59
23 6 1 9.38 2.04
23 7 -1 0.22 1.92
23 -7 1 0.6 1.46
7 1 -23 -3.83 1.47
7 1 -23 -0.54 1.33
23 7 1 -1.56 1.82
23 -7 -1 -0.89 1.31
7 -1 -23 1.91 1.28
7 -1 -23 0.15 1.56
23 8 -1 3.93 2.07
23 -8 1 4.75 1.61
8 1 -23 6.49 1.51
8 1 -23 6.98 1.87
23 8 1 2.89 2.07
8 -1 -23 7.2 1.89
8 -1 -23 5.45 1.49
23 -8 -1 6.45 1.69
23 9 -1 -0.37 1.93
9 1 -23 2.57 1.41
9 1 -23 -0.48 1.7
23 -9 -1 -0.39 1.54
23 9 1 4.04 2.16
9 -1 -23 -0.08 1.38
9 -1 -23 -0.11 1.75
10 1 -23 2.99 1.55
10 1 -23 2.68 1.84
23 10 -1 0.57 2
23 10 1 2.46 2.08
10 -1 -23 2.08 1.8
10 -1 -23 3.01 1.61
23 -10 -1 3.09 1.68
11 1 -23 3.2 1.84
11 1 -23 4 1.93
23 11 -1 3.21 2.14
23 -11 -1 3.88 2.12
11 -1 -23 3.05 1.93
23 11 1 7.65 2.3
11 -1 -23 5.99 1.73
12 1 -23 4.32 1.57
12 -1 -23 5.14 1.6
23 13 -1 0 2.16
13 1 -23 -1.36 1.95
13 1 -23 -0.04 1.51
13 -1 -23 0.87 1.92
23 13 1 2.1 2.3
13 -1 -23 0.45 1.53
23 14 -1 -0.95 2.15
14 1 -23 -0.6 1.46
14 1 -23 0.06 2.03
14 -1 -23 1.81 1.98
23 14 1 0.26 2.25
14 -1 -23 1.94 1.55
15 1 -23 4.69 1.64
23 15 -1 1.42 2.33
15 1 -23 5.41 2.06
15 -1 -23 3.69 1.63
15 -1 -23 5.9 2.2
16 1 -23 2.53 2
16 1 -23 -1.03 1.46
23 16 -1 0.7 2.35
16 -1 -23 3.05 2.22
16 -1 -23 0.35 2.03
17 1 -23 3.57 2.09
17 -1 -23 2.8 2.15
-2 -23 0 -3.16 1.96
23 0 -2 -2.25 1.66
2 -23 0 -2.31 2.01
0 -2 23 -2.27 1.89
23 0 -2 0.04 1.19
0 -2 -23 1.36 1.1
0 2 -23 4.57 1.46
0 -2 -23 1.44 2.14
0 2 -23 2.31 1.29
1 2 -23 2.39 1.38
-2 -23 -1 -0.24 2.07
23 -1 2 -1.41 1.21
2 -23 1 -2.8 1.98
1 2 -23 2.66 2.02
1 2 -23 0.49 1.08
-1 -2 -23 2.53 2.06
23 1 -2 -0.09 2.58
-1 -2 -23 2.41 1.1
23 1 -2 -0.25 1.19
-1 2 -23 4.31 1.39
-1 -2 23 1.56 2.03
1 -2 -23 -0.2 2.05
-1 2 -23 3.61 1.19
23 -1 -2 -1.01 2.34
2 -23 -1 1.63 2.1
23 -1 -2 -0.12 1.2
1 -2 -23 -1.19 1.04
-2 -23 1 -0.53 1.9
2 2 -23 8.37 2.16
-2 -2 -23 6.24 2.24
23 -2 2 7.72 1.51
2 2 -23 10.82 1.5
23 2 -2 12.36 1.96
-2 -23 -2 11.87 2.31
2 -23 2 12.01 2.22
2 2 -23 9.41 1.62
23 2 -2 8.98 1.41
2 -2 -23 9.91 1.39
-2 -23 2 7.2 2.45
-2 -2 23 9.59 2.29
23 2 2 10.57 2.4
2 -2 -23 11.97 2.42
23 -2 -2 10.41 1.55
-2 2 -23 12.21 1.71
2 -23 -2 9.98 2.26
23 -3 2 3.36 1.33
-2 -23 -3 5.98 2.29
2 -23 3 5.55 2.27
3 2 -23 4.02 1.22
23 3 -2 4.97 1.86
-3 -2 -23 2.61 2.17
3 2 -23 7.05 1.6
3 2 -23 4.65 2.06
23 -3 -2 2.95 1.39
-3 2 -23 5.33 1.22
-2 -23 3 9.3 2.19
23 3 2 6.69 1.88
-3 -2 23 6.8 2.32
2 -23 -3 3.95 2.17
3 -2 -23 3.85 2.05
3 -2 -23 5.21 1.24
-2 -23 -4 2.48 2.17
-4 -2 -23 2.99 2.06
4 2 -23 2.77 1.28
2 -23 4 5.34 2.19
23 -4 2 2.3 1.34
4 2 -23 5.21 1.57
4 2 -23 1.63 2.12
23 4 -2 3.69 1.78
-2 -23 4 6.91 2.41
4 -2 -23 1.59 1.2
-4 2 -23 3.78 1.16
4 -2 -23 -0.12 2.04
2 -23 -4 -1.29 2.16
23 -4 -2 1.63 1.36
23 4 2 2.99 1.85
-4 -2 23 2.83 2.01
23 5 -2 0.5 1.73
23 -5 2 0.08 1.26
2 -23 5 4.64 2.19
5 2 -23 -1.82 2.11
-5 -2 -23 3.38 2.31
-2 -23 -5 -3.72 2.23
5 2 -23 -1.08 1.56
5 2 -23 1.99 1.27
-5 2 -23 1.85 1.15
23 -5 -2 1.7 1.42
5 -2 -23 2.48 2.14
2 -23 -5 -3.58 2.08
-2 -23 5 0.52 2.16
23 5 2 3.22 1.88
5 -2 -23 1.73 1.23
-5 -2 23 2.4 2.2
-6 -2 -23 3.15 3.78
23 -6 2 0.23 1.36
23 6 -2 -0.98 1.82
6 2 -23 -3.9 2.91
6 2 -23 3.24 1.64
2 -23 6 0.05 3.32
-2 -23 -6 -2.56 3.02
6 2 -23 0.93 1.33
6 -2 -23 0.78 1.29
-6 2 -23 1.05 1.17
6 -2 -23 -2.89 3.32
2 -23 -6 -3.94 2.38
23 6 2 -0.18 1.84
23 -6 -2 -1.57 1.35
7 2 -23 1.95 1.69
7 2 -23 2.22 1.38
23 7 -2 6.07 2.06
7 -2 -23 3.77 1.42
23 -7 -2 5.94 1.64
7 -2 -23 4.52 1.86
23 7 2 5.45 1.97
8 2 -23 6.35 1.59
8 2 -23 5.44 1.85
23 8 -2 4.87 2.08
23 8 2 6.68 2.19
8 -2 -23 7.52 1.88
23 -8 -2 4.77 1.71
8 -2 -23 7.96 1.5
23 9 -2 3.29 2.04
9 2 -23 7.13 1.87
9 2 -23 5.93 1.64
9 -2 -23 2.74 1.41
9 -2 -23 6.83 1.86
23 -9 -2 2.44 1.52
23 9 2 4.97 2.14
10 2 -23 0.7 1.49
23 10 -2 -2 2.05
10 2 -23 0.66 1.78
23 -10 -2 2.07 1.88
23 10 2 -1.21 2.09
10 -2 -23 -1.74 1.74
11 2 -23 -1.02 1.83
11 2 -23 1.56 1.61
23 11 -2 -1.37 2.15
11 -2 -23 3.26 1.96
23 -11 -2 1.67 1.8
11 -2 -23 4.18 1.55
23 11 2 1.25 2.34
12 2 -23 2.66 1.61
12 2 -23 -0.07 2.54
23 12 2 3.68 2.57
23 -12 -2 1.33 1.65
12 -2 -23 -0.29 1.43
23 13 -2 2.26 2.26
13 2 -23 4.1 1.66
13 2 -23 -0.87 1.91
23 13 2 -0.57 2.32
13 -2 -23 1.75 1.54
13 -2 -23 -0.95 1.93
14 2 -23 -2.7 1.96
23 14 -2 2.63 2.28
14 2 -23 -1.37 1.51
14 -2 -23 1.78 1.97
14 -2 -23 0.82 1.45
15 2 -23 1.52 2.05
15 2 -23 -0.61 1.51
23 15 -2 4.07 2.32
15 -2 -23 3.08 2.04
15 -2 -23 2.27 1.57
23 16 -2 -0.78 2.36
16 2 -23 -1.41 1.6
16 2 -23 2.17 2.02
16 -2 -23 -0.75 1.99
16 -2 -23 -0.46 1.54
17 2 -23 -0.01 1.96
17 -2 -23 -0.05 2.03
0 3 -23 -0.04 1.34
0 3 -23 2.2 1.16
0 -3 23 0.05 2.01
-3 -23 0 0.69 2.05
0 -3 -23 1.11 1.22
3 -23 0 -3.87 1.9
23 0 -3 -1.19 1.22
0 -3 -23 2.53 2.17
23 0 -3 3.93 1.73
-3 -23 -1 0.7 2.07
3 -23 1 -0.42 2.01
23 1 -3 2.76 1.27
23 1 -3 3.51 1.73
1 -3 23 0.2 1.94
1 3 -23 1.18 1.12
-1 -3 -23 1.87 2.21
1 3 -23 0.8 1.41
-1 3 -23 0.01 1.14
1 -3 -23 -0.12 2.06
1 -3 -23 1.21 1.13
3 -23 -1 1.81 2.04
-1 -3 23 3.29 2.07
-3 -23 1 2.64 2.09
23 -1 -3 5.2 1.83
23 -1 -3 -1.79 1.2
23 2 -3 4.69 1.34
2 3 -23 3.37 1.23
-2 -3 -23 5.24 2.44
3 -23 2 5.83 2.14
23 2 -3 4.62 1.84
-3 -23 -2 3.17 2.15
2 3 -23 -0.05 1.46
2 -3 -23 6.38 1.25
-3 -23 2 6.96 2.23
2 -3 -23 3.8 2.09
23 -2 -3 4.8 1.42
-2 3 -23 4.18 1.2
3 -23 -2 4.69 2.11
-2 -3 23 2.88 2.2
-3 -3 -23 11.24 2.44
-3 -23 -3 9.87 2.48
3 -23 3 11.59 2.22
3 3 -23 9.43 1.69
3 3 -23 3.68 2.16
3 3 -23 7.04 1.47
23 3 -3 6.56 1.87
3 -3 -23 5.45 2.15
23 -3 -3 6.65 1.74
-3 -23 3 9.32 2.36
3 -3 -23 9.04 1.35
-3 3 -23 9.29 1.39
-3 -3 23 8.49 2.38
23 3 3 7.9 1.92
3 -23 -3 11.74 2.21
4 3 -23 14.28 2.28
4 3 -23 10.17 1.57
23 4 -3 12.37 2.1
-4 -3 -23 12.82 2.51
-3 -23 -4 12.94 2.48
3 -23 4 12.08 2.36
4 3 -23 17.06 2.26
4 -3 -23 11.96 1.53
-4 -3 23 10.87 2.53
-4 3 -23 15.83 1.83
-3 -23 4 8.61 2.49
23 4 3 11.88 2.04
23 -4 -3 9.51 1.61
4 -3 -23 17.68 2.53
3 -23 -4 12.51 2.37
3 -23 5 -4.04 2.14
-3 -23 -5 -4.28 2.25
5 3 -23 4.39 2.2
-5 -3 -23 -2.36 2.27
5 3 -23 0.26 1.5
23 5 -3 2.81 1.9
5 3 -23 2.15 1.3
-3 -23 5 0.73 2.17
-5 3 -23 -0.17 1.09
5 -3 -23 1.62 2.17
-5 -3 23 -3.54 2.15
3 -23 -5 3.49 2.21
23 -5 -3 -1.58 1.39
5 -3 -23 2.56 1.24
23 5 3 0.84 1.8
23 6 -3 5.76 1.97
6 3 -23 5.91 1.46
6 3 -23 3.55 1.68
23 -6 -3 5.42 1.57
23 6 3 7.06 2.04
6 -3 -23 6.24 1.41
-6 3 -23 5.83 1.24
7 3 -23 7.52 1.79
23 7 -3 8.41 2.11
7 3 -23 10.02 1.66
-7 3 -23 5.54 1.67
23 7 3 8.46 2.11
23 -7 -3 5.03 1.55
7 -3 -23 4.98 1.35
8 3 -23 -1.09 1.29
23 8 -3 3.05 2.06
8 3 -23 0.24 1.63
23 -8 -3 0.1 1.43
8 -3 -23 1.41 1.36
8 -3 -23 0.7 1.74
23 8 3 0.64 2.02
23 9 -3 0.52 2.03
9 3 -23 1.5 1.73
9 3 -23 0.45 1.49
9 -3 -23 1.8 1.42
9 -3 -23 0.98 1.82
23 -9 -3 4.46 1.63
23 9 3 1.47 2.15
10 3 -23 2.34 2.08
23 10 -3 0.34 2.08
10 3 -23 3.83 1.89
23 10 3 0.92 2.06
23 -10 -3 1.11 2.13
10 -3 -23 0.58 1.87
11 3 -23 2.87 1.66
23 11 -3 1.23 2.14
11 3 -23 -1.03 2.13
11 -3 -23 -3.37 1.34
11 -3 -23 -0.64 1.91
23 -11 -3 0.1 1.69
23 11 3 1.62 2.94
12 3 -23 6.95 2.13
12 3 -23 5.94 1.74
23 12 -3 5.12 3.01
23 -12 -3 7.44 1.89
12 -3 -23 5.03 2.64
12 -3 -23 4.17 1.5
23 13 -3 4.09 2.33
13 3 -23 4.27 2
13 3 -23 1.98 1.57
13 -3 -23 2.56 1.99
13 -3 -23 4.01 1.58
23 -13 -3 1.64 1.66
14 3 -23 8.09 2.02
14 3 -23 3 1.71
23 14 -3 4.38 2.29
14 -3 -23 1.96 2.13
14 -3 -23 4.88 1.62
15 3 -23 1.95 1.58
15 3 -23 3.23 1.98
23 15 -3 2.8 2.3
15 -3 -23 4.38 1.58
15 -3 -23 2.66 2.06
16 3 -23 2.49 2.04
23 16 -3 0.6 2.35
16 3 -23 -0.06 1.59
16 -3 -23 3.71 2.24
23 17 -3 2.74 2.24
17 3 -23 2.48 2.16
17 -3 -23 -0.45 2.11
0 4 -23 3.2 1.2
4 -23 0 3.62 2.1
23 0 -4 6.1 1.77
-4 -23 0 1.79 2.24
0 -4 23 3.73 2.18
23 0 -4 0.72 1.28
0 -4 -23 3.23 2.18
23 1 -4 2.95 1.33
1 -4 23 1.8 2.05
4 -23 1 4.75 2.17
-4 -23 -1 0.18 2.22
1 4 -23 2.97 1.19
-1 -4 -23 6.6 2.09
23 1 -4 5.51 1.74
-4 -23 1 5.98 2.07
-1 4 -23 4.36 1.26
23 -1 -4 1.74 1.3
23 -1 -4 8.28 1.83
4 -23 -1 4.38 2.16
1 -4 -23 -0.12 2.13
-1 -4 23 1.2 2.12
-4 -23 -2 4.18 2.25
2 4 -23 2.74 1.26
2 4 -23 1.82 1.56
4 -23 2 3.57 2.21
2 -4 23 3.51 2.07
23 2 -4 4.11 1.31
-2 -4 -23 7.92 2.1
23 2 -4 7.09 1.86
-4 -23 2 2.44 2.2
4 -23 -2 0.9 2.16
2 -4 -23 2.08 1.13
-2 -4 23 4.87 2.21
2 -4 -23 4.13 2.22
23 -2 -4 6.71 1.81
23 -2 -4 3.85 1.41
-2 4 -23 3.29 1.24
4 -23 3 11.6 2.29
-4 -23 -3 12.37 2.56
-3 -4 -23 11.44 2.47
3 4 -23 7.73 1.46
23 3 -4 9.31 1.49
23 3 -4 14.93 2.07
3 4 -23 12.66 1.72
3 -4 -23 8.51 2.35
-4 -23 3 17.14 2.59
-3 4 -23 11.72 1.51
4 -23 -3 12.66 2.41
3 -4 -23 12.85 1.78
-3 -4 23 14.3 2.4
23 -3 -4 12.94 1.71
4 4 -23 -0.43 2.11
4 4 -23 -1.12 1.46
4 4 -23 -1.02 1.17
23 4 -4 1.26 1.78
-4 -4 -23 3.29 2.16
-4 -23 -4 -1.53 2.03
23 -4 -4 -1.22 1.27
-4 4 -23 2.5 1.11
4 -4 -23 0.15 1.19
-4 -4 23 5.06 2.4
23 4 4 -1.79 1.85
-4 -23 4 1.42 2.37
4 -4 -23 0.8 2.16
4 -23 -4 -0.7 2.08
5 4 -23 12.58 1.83
5 4 -23 10.32 1.59
23 5 -4 13.36 2.15
4 -23 5 18.49 4
23 5 4 12.72 2.16
-5 4 -23 10.36 1.42
5 -4 -23 15.18 1.9
23 -5 -4 12.03 1.73
4 -23 -5 15.09 3.95
-5 -4 23 13.36 4.14
5 -4 -23 16.07 3.98
23 6 -4 4.22 1.9
6 4 -23 0.19 1.51
6 4 -23 1.89 1.36
23 -6 -4 1.91 1.48
23 6 4 0.71 1.92
-6 4 -23 -1.45 1.12
6 -4 -23 -0.45 1.21
23 7 -4 4.2 1.95
7 4 -23 0.56 1.35
7 4 -23 0.77 1.57
23 -7 -4 -0.46 1.51
23 7 4 -1.99 1.9
-7 4 -23 -0.73 1.16
7 -4 -23 -0.39 1.32
23 8 -4 4.59 2.05
8 4 -23 5.76 1.77
8 4 -23 4.6 1.61
8 -4 -23 4.25 1.4
23 8 4 6.44 2.16
-8 4 -23 3.71 1.48
23 -8 -4 6.26 1.72
9 4 -23 0.34 1.69
9 4 -23 3.74 1.58
23 9 -4 3.61 2.03
23 9 4 0.51 2.14
9 -4 -23 0.6 1.83
23 -9 -4 3.19 1.66
9 -4 -23 0.51 1.85
23 10 -4 1.42 2.14
10 4 -23 0.07 1.76
10 -4 -23 3.88 1.91
10 -4 -23 -1.59 1.4
11 4 -23 5.75 1.67
23 11 -4 5.37 2.9
11 -4 -23 3.92 1.56
23 -11 -4 2.84 1.67
11 -4 -23 0.81 2.07
23 12 -4 -0.26 2.41
12 4 -23 0.81 1.89
12 4 -23 1.85 1.52
12 -4 -23 0.22 1.45
12 -4 -23 3.59 1.94
23 -12 -4 2.42 1.71
13 4 -23 0.92 1.62
13 4 -23 5.31 2.03
23 13 -4 -1.02 2.18
13 -4 -23 1.17 1.49
23 -13 -4 -0.88 1.69
13 -4 -23 2.24 2.09
14 4 -23 3.98 1.66
23 14 -4 -0.15 2.27
14 4 -23 3.32 1.98
14 -4 -23 0.93 1.54
14 -4 -23 3.46 2.04
15 4 -23 0.44 1.58
15 4 -23 0.04 1.98
23 15 -4 1.43 2.35
15 -4 -23 3.66 2.14
15 -4 -23 -1.5 1.43
16 4 -23 -0.26 1.62
16 4 -23 1.34 2
23 16 -4 -0.52 2.2
16 -4 -23 3.58 2.2
23 17 -4 7.89 2.62
17 -4 -23 -0.67 2.57
5 -23 0 2.42 2.18
23 0 -5 1.08 1.69
23 0 -5 -0.64 1.23
0 -5 -23 -3.7 2.15
0 -5 23 -0.27 2.19
0 5 -23 0.63 1.25
-5 -23 0 1.29 2.06
5 -23 1 15.95 2.47
23 1 -5 11.15 2
-1 -5 -23 9.37 2.41
1 5 -23 11.54 1.59
1 -5 23 17.39 2.47
23 1 -5 12.21 1.63
-5 -23 -1 10.53 2.48
23 -1 -5 14.77 2.05
1 -5 -23 9.17 2.35
5 -23 -1 12.19 2.35
-1 5 -23 16.86 1.94
-1 -5 23 11.38 2.32
-5 -23 1 10.49 2.47
23 -1 -5 12.38 1.69
-5 -23 -2 -4.1 2.18
5 -23 2 -1.01 2.15
-2 -5 -23 2.81 2.3
23 2 -5 3.73 1.76
2 5 -23 0.06 1.19
2 -5 23 2.72 2.14
23 2 -5 2.2 1.35
5 -23 -2 5.36 2.17
2 -5 -23 0.64 2.14
-5 -23 2 3.18 2.29
-2 -5 23 0.99 2.12
23 -2 -5 2.71 1.43
-2 5 -23 -0.06 1.12
23 -2 -5 1.95 1.81
23 3 -5 -0.41 1.32
-5 -23 -3 -3.26 2.21
3 -5 23 -0.93 2.05
3 5 -23 0.32 1.78
-3 -5 -23 -1.97 2.06
23 3 -5 0.26 1.74
5 -23 3 -2.46 2.1
3 5 -23 2.24 1.29
3 -5 -23 1.76 1.22
-5 -23 3 0.4 2.26
23 -3 -5 1.15 1.34
23 -3 -5 -2.87 1.77
-3 -5 23 -1.14 3.75
5 -23 -3 4.53 2.24
-3 5 -23 -0.2 1.1
3 -5 -23 2.84 2.26
4 5 -23 11.43 1.8
4 5 -23 13.76 1.92
23 4 -5 13.44 2.12
23 4 -5 18.67 2.25
4 -5 -23 10.73 1.47
-4 5 -23 12.08 1.51
4 -5 -23 12.16 3.35
5 -23 -4 15.14 3.85
23 -4 -5 12.43 1.8
5 5 -23 2.89 1.44
23 5 -5 9.26 2.04
5 5 -23 6.73 1.66
-5 5 -23 4.23 1.28
23 -5 -5 3.84 1.62
5 -5 -23 4.07 1.29
23 6 -5 2.31 1.96
6 5 -23 2.53 1.58
6 5 -23 2.89 1.31
6 -5 -23 -0.51 1.26
23 -6 -5 1.17 1.45
7 5 -23 9.88 1.64
23 7 -5 8.45 2.21
7 5 -23 11.04 1.88
23 -7 -5 7.91 1.74
7 -5 -23 8.67 1.56
8 5 -23 -0.15 1.34
23 8 -5 2.76 2.04
8 5 -23 -0.31 1.63
23 -8 -5 -0.35 1.59
8 -5 -23 0.78 1.47
9 5 -23 1.7 1.78
9 5 -23 -0.03 1.59
23 9 -5 -0.38 1.96
23 -9 -5 2.86 1.84
9 -5 -23 2.67 1.85
23 10 -5 5.41 2.24
10 5 -23 7.57 2.95
10 5 -23 3.29 1.59
23 -10 -5 5.63 1.91
10 -5 -23 5.15 1.92
10 -5 -23 5.73 1.55
11 5 -23 2.82 1.7
11 5 -23 2.62 1.92
23 -11 -5 -1.51 1.5
11 -5 -23 0.44 1.46
23 12 -5 1.38 2.15
12 5 -23 1.83 1.63
12 5 -23 4.65 2.01
23 -12 -5 2.58 1.68
12 -5 -23 2.56 1.52
12 -5 -23 1.97 2.11
13 5 -23 1.43 1.95
13 5 -23 3.45 1.64
23 13 -5 1.52 2.33
23 -13 -5 2.76 1.83
13 -5 -23 0.67 1.97
13 -5 -23 -0.79 1.5
14 5 -23 -2.45 1.96
23 14 -5 0.5 2.31
14 5 -23 -2.76 1.51
23 -14 -5 -1.49 1.61
14 -5 -23 3.09 2.14
15 5 -23 4.96 2.03
23 15 -5 5.7 2.31
15 5 -23 4.56 1.74
15 -5 -23 0.6 2.17
16 5 -23 1.82 1.95
16 5 -23 0.77 1.85
23 16 -5 1.9 2.25
16 -5 -23 4.46 2.16
23 0 -6 1.44 1.41
0 6 -23 1.4 1.18
-6 -23 0 1.16 2.64
0 -6 23 0.85 2.36
6 -23 0 -0.31 2.29
0 -6 -23 4.32 2.37
23 0 -6 -1.47 1.76
23 1 -6 9.76 1.63
1 -6 23 9.55 2.45
-6 -23 -1 12.49 3.3
23 1 -6 7.33 1.91
-1 -6 -23 4.53 2.35
6 -23 1 5.21 2.42
1 6 -23 8.77 1.5
23 -1 -6 9.47 1.67
6 -23 -1 15 3.16
-1 -6 23 13.86 2.51
1 -6 -23 9.42 2.66
-1 6 -23 7.19 1.39
-6 -23 1 12.26 2.84
23 -1 -6 6.29 1.95
23 2 -6 -1.81 1.75
-2 -6 -23 -2.27 3
2 -6 23 -0.99 3.36
23 2 -6 1.13 1.39
2 6 -23 -0.49 1.22
2 -6 -23 -2.78 2.88
23 -2 -6 -0.64 1.35
-2 6 -23 -0.9 1.11
-2 -6 23 -4.3 2.37
23 -2 -6 -0.32 1.81
23 3 -6 5.63 1.52
23 3 -6 3.79 1.87
3 6 -23 8.72 1.53
-3 6 -23 3.22 1.25
23 -3 -6 9.07 2.05
23 -3 -6 2.96 1.45
4 6 -23 2.61 1.25
4 6 -23 1.15 1.53
23 4 -6 3.4 1.89
23 4 -6 2.03 1.46
23 -4 -6 1.74 1.51
23 5 -6 5.11 1.95
5 6 -23 1.85 1.59
5 6 -23 0.26 1.26
23 -5 -6 3.47 1.49
5 -6 -23 2.58 1.28
6 6 -23 -0.48 1.29
23 6 -6 1.16 2.01
6 6 -23 1.53 1.63
23 -6 -6 -0.92 1.43
6 -6 -23 2.06 1.3
7 6 -23 2.81 1.65
7 6 -23 3.56 1.41
23 7 -6 2.87 2.08
7 -6 -23 0.91 1.75
23 -7 -6 -0.47 1.51
8 6 -23 2.56 1.61
23 8 -6 -2.3 1.92
8 6 -23 2.05 1.72
23 -8 -6 2.84 1.73
23 9 -6 2.12 2.06
9 6 -23 4.63 2.75
9 -6 -23 2.88 1.44
10 6 -23 3.05 1.57
10 6 -23 4.87 2.13
23 10 -6 3.28 2.45
23 -10 -6 4.03 1.78
10 -6 -23 4.93 1.56
10 -6 -23 5.87 2.1
11 6 -23 2.91 1.88
23 11 -6 -1.6 2.06
11 6 -23 1.17 1.5
11 -6 -23 -0.58 1.46
23 -11 -6 0.02 1.55
11 -6 -23 -0.12 2.05
23 12 -6 3.57 2.15
12 6 -23 4.12 1.95
12 6 -23 1.79 1.65
12 -6 -23 -1.47 2.06
23 -12 -6 -1.95 1.47
12 -6 -23 1.1 1.46
23 13 -6 0.17 2.16
13 6 -23 -0.38 1.56
13 6 -23 1.78 1.98
13 -6 -23 -3.14 1.49
13 -6 -23 -2.08 1.96
23 -13 -6 0.16 1.69
14 6 -23 -0.52 1.94
14 6 -23 2.3 1.72
23 14 -6 1.85 2.23
23 -14 -6 -0.69 1.65
14 -6 -23 1.51 2.13
14 -6 -23 1.89 1.54
15 6 -23 1.62 2.04
15 6 -23 0.31 1.67
23 15 -6 2.95 2.33
15 -6 -23 0.76 2.18
23 16 -6 -4.55 2.09
16 -6 -23 6.49 2.22
23 0 -7 2.78 1.81
23 0 -7 1.51 1.43
0 7 -23 -1.54 1.11
1 7 -23 2.72 1.36
23 1 -7 0.75 1.37
23 1 -7 -0.69 1.71
23 -1 -7 -1.19 1.38
23 -1 -7 0.64 1.74
-1 7 -23 1.29 1.2
23 2 -7 3.58 1.95
23 2 -7 3.39 1.46
2 7 -23 3.2 1.38
23 -2 -7 6.45 1.63
23 -2 -7 7.55 1.93
-2 7 -23 2.08 1.25
3 7 -23 3.47 1.34
23 3 -7 6.41 1.52
23 3 -7 8.79 1.98
23 -3 -7 4.03 1.96
23 -3 -7 8.9 1.74
23 4 -7 -2.91 1.8
4 7 -23 0.37 1.28
23 4 -7 -0.2 1.43
23 -4 -7 -0.54 1.93
23 -4 -7 0.08 1.49
23 5 -7 7.78 2.37
5 7 -23 12.99 1.78
23 5 -7 11.89 2.28
23 -5 -7 9.88 1.81
6 7 -23 5.57 1.65
23 6 -7 3.19 2.04
6 7 -23 0.53 1.38
23 -6 -7 2.15 1.59
7 7 -23 2 1.38
23 7 -7 3.68 2.1
7 7 -23 7.51 1.77
7 -7 -23 4.08 1.81
23 -7 -7 1.68 1.66
23 8 -7 9.91 2.15
8 -7 -23 9.05 1.56
23 9 -7 0.99 2.13
9 7 -23 1.97 1.56
9 7 -23 5.11 1.92
9 -7 -23 3.22 1.54
23 -9 -7 1.22 1.68
10 7 -23 -0.4 1.81
10 7 -23 0.5 1.42
10 -7 -23 -0.6 1.4
23 -10 -7 -3.5 1.48
11 7 -23 2.16 1.89
11 7 -23 0.73 1.5
23 11 -7 2.61 2.23
23 -11 -7 0.94 1.75
11 -7 -23 4.83 2.08
11 -7 -23 2.3 1.54
12 7 -23 3.97 1.96
12 7 -23 0.85 1.6
23 12 -7 2.79 2.32
12 -7 -23 0.16 1.51
12 -7 -23 -2.52 2.03
23 -12 -7 -0.94 1.6
13 7 -23 1.06 1.62
23 13 -7 2.35 2.38
13 7 -23 2.84 1.98
23 -13 -7 -0.09 1.65
13 -7 -23 0.19 1.65
13 -7 -23 2.15 2.07
14 7 -23 5.66 2.07
14 7 -23 2.07 1.61
23 14 -7 2.39 2.2
14 -7 -23 2.07 2.12
23 -14 -7 1.46 1.68
14 -7 -23 4.04 1.94
15 7 -23 -2.04 2.1
23 15 -7 0.81 2.24
15 7 -23 1.46 1.62
15 -7 -23 1.19 2.07
23 -15 -7 1.16 1.66
23 16 -7 -1.4 2.33
16 -7 -23 0.54 3.03
23 0 -8 -0.39 1.76
0 8 -23 1 1.18
23 0 -8 -0.21 1.39
23 1 -8 6.1 2.03
23 1 -8 7.19 1.96
1 8 -23 5.63 1.45
23 -1 -8 5.74 1.91
-1 8 -23 2.49 1.25
23 -1 -8 8.26 1.65
2 8 -23 5.77 1.46
23 2 -8 5.83 1.66
23 2 -8 4.16 2
23 -2 -8 6.5 1.75
23 -2 -8 5.8 1.95
-2 8 -23 6.93 1.36
23 3 -8 -1.55 1.81
23 3 -8 1.87 1.48
3 8 -23 -1.16 1.16
23 -3 -8 2.76 1.59
23 -3 -8 -0.56 1.88
23 4 -8 4.41 1.92
23 4 -8 7.25 1.67
4 8 -23 6.51 1.5
23 -4 -8 6.77 1.78
23 -4 -8 7.44 2.07
5 8 -23 0.5 1.36
23 5 -8 -1.49 1.91
23 -5 -8 -0.04 1.58
6 8 -23 0.05 1.41
23 6 -8 3.71 2.02
23 -6 -8 -1.31 1.52
23 7 -8 9.79 2.26
23 8 -8 3.02 2.12
8 8 -23 0.94 1.52
8 8 -23 0.34 1.75
23 -8 -8 1.19 1.63
9 8 -23 -0.36 1.79
9 8 -23 4.32 1.65
23 -9 -8 2 1.6
9 -8 -23 2.22 1.66
10 8 -23 2.49 1.53
23 10 -8 1.56 2.24
10 8 -23 7.17 1.99
10 -8 -23 -0.46 1.52
23 -10 -8 4.38 1.79
10 -8 -23 4.4 2.08
11 8 -23 -3.62 1.53
23 11 -8 1.06 2.13
11 8 -23 3.31 1.93
23 -11 -8 0.67 1.68
11 -8 -23 1.07 1.97
11 -8 -23 1.73 1.61
12 8 -23 4.2 1.69
23 12 -8 1.73 2.23
12 8 -23 3.36 1.95
12 -8 -23 1.97 1.67
23 -12 -8 1.91 1.71
12 -8 -23 2.56 2.18
13 8 -23 3.18 2.08
23 13 -8 4.48 2.34
13 8 -23 1.47 1.63
13 -8 -23 0.72 2.17
13 -8 -23 0.29 2.07
23 -13 -8 -3.15 1.51
14 8 -23 -4.52 2
23 14 -8 1.22 2.25
14 8 -23 1.97 1.7
23 -14 -8 2.91 1.7
14 -8 -23 -0.76 1.99
23 15 -8 -2.01 2.23
15 -8 -23 2.54 2.12
23 0 -9 8.82 1.75
0 9 -23 8.18 1.47
23 0 -9 13.39 2.12
23 1 -9 1.89 1.45
23 1 -9 -1.56 1.84
1 9 -23 1.33 1.35
23 -1 -9 1.15 1.56
-1 9 -23 -0.58 1.13
23 -1 -9 1.31 1.88
2 9 -23 5.31 1.53
23 2 -9 3.11 1.54
23 2 -9 3.76 1.96
23 -2 -9 1.45 1.91
23 -2 -9 4.61 1.63
23 3 -9 3.55 1.76
3 9 -23 0.43 1.28
23 3 -9 -0.14 1.94
23 -3 -9 3.35 1.74
23 -3 -9 -0.46 1.88
23 4 -9 -0.02 1.91
4 9 -23 3.84 1.48
23 -4 -9 2 1.97
23 -4 -9 0.48 1.62
23 5 -9 2.21 2
23 5 -9 -0.15 1.53
5 9 -23 2.47 1.44
23 -5 -9 -0.58 2
23 6 -9 -2.13 1.95
7 9 -23 1.43 1.43
23 7 -9 4.05 2.25
23 -7 -9 1.89 1.67
8 9 -23 1.29 1.47
23 -8 -9 1.59 1.65
23 9 -9 0.5 2.13
9 9 -23 0.62 1.53
23 -9 -9 -0.41 1.56
10 9 -23 0.11 1.97
10 9 -23 0.94 1.53
23 10 -9 1.95 2.18
23 -10 -9 2.62 1.77
10 -9 -23 1.79 2
11 9 -23 4.12 2.12
23 11 -9 2.45 2.27
11 9 -23 2.57 1.58
11 -9 -23 3.76 2.23
23 -11 -9 2.05 1.75
12 9 -23 4.27 1.71
23 12 -9 2.74 2.23
12 9 -23 -0.38 2.01
23 -12 -9 1.26 1.76
12 -9 -23 -1.82 1.99
23 13 -9 5.64 2.35
13 9 -23 -0.07 1.66
13 9 -23 3.37 2.13
13 -9 -23 2.94 2.09
23 -13 -9 -0.48 1.59
23 14 -9 2.15 2.23
14 9 -23 3.95 1.99
14 -9 -23 6.17 2.16
23 -14 -9 3.09 1.84
23 15 -9 -1.53 2.46
23 0 -10 0.72 1.82
23 0 -10 1.73 1.94
0 10 -23 0.55 1.32
1 10 -23 1.73 1.28
23 1 -10 2.29 2.41
23 1 -10 0.73 1.89
23 -1 -10 -0.4 1.93
23 -1 -10 1.37 1.8
-1 10 -23 1.31 1.33
23 2 -10 2.4 2.01
2 10 -23 0.47 1.4
23 -2 -10 1.6 2.23
23 -2 -10 -2.18 1.86
3 10 -23 0.96 1.58
23 3 -10 2.27 2.59
23 3 -10 0.86 1.93
23 -3 -10 0.28 2.1
23 4 -10 0.3 1.93
23 4 -10 -1.23 1.58
5 10 -23 4.68 1.53
23 5 -10 5.19 2.14
23 5 -10 7.13 1.79
23 -5 -10 5.39 1.95
23 -5 -10 5.71 2.24
23 6 -10 3.47 2.52
23 6 -10 0.63 2.03
6 10 -23 3.69 1.44
23 -6 -10 -0.11 1.64
7 10 -23 -1.81 1.33
23 7 -10 0.16 3.83
23 -7 -10 1.86 1.72
23 8 -10 6.41 2.21
8 10 -23 2.31 1.49
23 -8 -10 1.91 1.66
9 10 -23 -1.32 1.51
23 9 -10 3.8 2.24
23 -9 -10 2.24 1.71
23 10 -10 -1.71 2.15
10 10 -23 -1.77 1.43
23 -10 -10 0.74 1.66
11 10 -23 4.19 1.7
23 11 -10 3.29 2.24
23 -11 -10 1.36 1.68
11 -10 -23 3.42 2.15
23 12 -10 0.94 2.27
12 10 -23 8.01 1.84
23 -12 -10 3.05 1.74
12 -10 -23 7.47 2.21
13 10 -23 -1.12 1.65
23 13 -10 -1.49 2.23
13 -10 -23 1.23 2.08
23 14 -10 0.56 2.18
14 -10 -23 0.05 2.37
0 11 -23 2.34 2.44
23 0 -11 -0.05 1.96
23 0 -11 -1.02 1.57
1 11 -23 2.08 2.29
23 1 -11 3.57 1.74
23 1 -11 6.74 2.11
23 -1 -11 2.33 2.28
23 -1 -11 3.66 1.82
-1 11 -23 0.92 1.5
23 2 -11 1.58 2.09
2 11 -23 1.47 1.72
23 2 -11 -0.62 1.6
23 -2 -11 -1.51 1.62
23 3 -11 2.09 2.39
23 3 -11 -0.88 1.58
3 11 -23 0.27 1.41
23 -3 -11 -1.99 3.48
23 -3 -11 -0.25 1.55
4 11 -23 3.44 1.47
23 4 -11 3.76 1.72
23 -4 -11 4.11 1.8
23 -4 -11 4.09 2.21
5 11 -23 1.19 1.41
23 5 -11 1.54 1.74
23 -5 -11 1.62 1.67
23 -5 -11 -2.37 2.16
6 11 -23 -0.95 1.43
23 6 -11 -1.38 1.92
23 6 -11 -2.21 1.73
23 -6 -11 -0.53 1.66
7 11 -23 3.39 1.52
23 7 -11 3.37 2.25
23 -7 -11 5.02 1.77
23 8 -11 2.09 2.13
8 11 -23 -2.75 1.32
23 -8 -11 -0.36 1.58
9 11 -23 2.58 1.59
23 9 -11 3.17 2.22
23 -9 -11 2.95 1.68
23 10 -11 5.37 2.35
10 11 -23 1.36 1.54
23 -10 -11 2.21 1.69
11 11 -23 -2.46 1.53
23 11 -11 -1.62 2.19
23 -11 -11 -0.2 1.57
11 -11 -23 1.7 2.08
23 12 -11 2.2 2.2
12 11 -23 5.95 1.76
23 -12 -11 -2.6 1.5
12 -11 -23 6.44 2.21
23 13 -11 -0.67 2.18
13 -11 -23 2.26 2.12
23 0 -12 0.78 2.58
23 0 -12 6.88 1.82
0 12 -23 4.56 1.37
23 1 -12 2.65 2.67
23 1 -12 4.96 1.75
1 12 -23 2.13 1.33
23 -1 -12 2.67 1.64
23 -1 -12 5.43 2.17
2 12 -23 2.21 1.4
23 2 -12 -1.25 1.57
23 2 -12 -1.89 2.52
23 -2 -12 3.63 1.66
23 -2 -12 1.35 2.09
23 3 -12 7.76 2.25
3 12 -23 3.14 1.42
23 3 -12 2.04 1.73
23 -3 -12 8.18 2.22
23 -3 -12 7.74 1.87
23 4 -12 1.92 2.06
4 12 -23 2.37 1.45
23 4 -12 -2.6 1.66
23 -4 -12 0.6 2.16
23 -4 -12 1.86 1.75
23 5 -12 3.54 1.86
5 12 -23 1.44 1.49
23 5 -12 2.81 2.16
23 -5 -12 4.4 1.84
23 -5 -12 2.8 2.25
23 6 -12 0.18 2.15
6 12 -23 1.83 1.44
23 6 -12 -2.95 1.82
23 -6 -12 1.54 1.79
23 -6 -12 6.03 3.2
7 12 -23 2.85 1.49
23 7 -12 0.44 2.09
23 -7 -12 0.62 1.59
8 12 -23 2.1 1.42
23 8 -12 3.83 2.35
23 -8 -12 3.19 1.74
23 9 -12 -0.09 2.17
9 12 -23 -1.69 1.49
23 -9 -12 3.12 1.74
23 10 -12 5.27 2.28
10 12 -23 1.36 1.54
23 -10 -12 4.78 1.78
23 11 -12 1.33 2.26
11 12 -23 2.52 1.64
23 -11 -12 4.11 1.76
11 -12 -23 5.66 2.23
23 12 -12 3.17 2.3
12 -12 -23 3.98 2.19
23 0 -13 -0.6 1.62
23 0 -13 -1.47 2.01
0 13 -23 1.67 1.35
1 13 -23 -1 1.3
23 1 -13 1.52 1.66
23 1 -13 -2.54 2.02
23 -1 -13 1.85 2.09
23 -1 -13 -1.44 1.6
-1 13 -23 -2.6 1.17
23 2 -13 -0.06 1.66
2 13 -23 1.86 1.41
23 2 -13 1.39 2.04
23 -2 -13 0.91 1.5
23 -2 -13 1.84 2.1
3 13 -23 0.13 1.43
23 3 -13 2.42 1.78
23 3 -13 5.15 2.12
23 -3 -13 6.39 2.24
23 -3 -13 2.47 1.76
23 4 -13 -1.17 2.14
23 4 -13 -0.97 1.71
4 13 -23 0.48 1.4
23 -4 -13 1.03 2.21
23 -4 -13 1.03 1.67
23 5 -13 -1.83 1.81
23 5 -13 1.53 2.1
5 13 -23 3.49 1.52
23 -5 -13 3.07 1.75
23 -5 -13 3.19 2.3
23 6 -13 -4.71 1.83
6 13 -23 1.27 1.4
23 6 -13 2.54 2.14
23 -6 -13 1.44 1.72
23 -6 -13 7.1 2.57
23 7 -13 2.14 2.2
7 13 -23 -1.27 1.41
23 -7 -13 3.18 1.8
23 8 -13 -4.73 2.06
8 13 -23 -0.92 1.51
23 -8 -13 -2.11 1.73
23 9 -13 6.63 2.3
9 13 -23 4.55 1.59
23 -9 -13 2.99 1.67
23 10 -13 2.1 2.17
10 13 -23 -3.44 1.45
23 -10 -13 -0.34 1.6
23 11 -13 -2.51 2.17
11 -13 -23 0.76 2.16
23 0 -14 -0.43 2.11
23 0 -14 -0.77 1.67
0 14 -23 -0.25 1.32
1 14 -23 -0.13 1.29
23 1 -14 0.73 2.09
23 1 -14 1.42 1.7
23 -1 -14 0.57 2.19
-1 14 -23 2.11 1.43
23 2 -14 2.15 2.11
2 14 -23 1.95 1.49
23 2 -14 2.53 1.83
23 -2 -14 3.71 2.22
23 -2 -14 0.37 1.59
23 3 -14 2.29 1.83
23 3 -14 4.8 2.18
3 14 -23 1.4 1.43
23 -3 -14 3.81 2.31
23 -3 -14 4.61 1.81
23 4 -14 5.04 1.88
4 14 -23 2.77 1.49
23 4 -14 1.77 2.2
23 -4 -14 6.75 2.34
23 -4 -14 1.84 1.77
23 5 -14 -3.54 2.07
5 14 -23 -0.64 1.41
23 5 -14 -4.34 1.86
23 -5 -14 0.52 1.77
23 -5 -14 -0.33 2.33
6 14 -23 2.09 1.53
23 6 -14 1.14 2.13
23 6 -14 -0.89 2.29
23 -6 -14 5.67 1.86
23 -6 -14 5.86 2.43
23 7 -14 3.26 2.3
7 14 -23 -0.9 1.43
23 -7 -14 2.88 1.82
23 8 -14 -0.32 2.2
8 14 -23 -0.66 1.45
23 -8 -14 -3.55 1.62
9 14 -23 3.56 2.08
23 9 -14 3.74 2.22
23 -9 -14 1.25 1.65
23 10 -14 3.69 2.24
10 -14 -23 8.52 2.56
23 0 -15 6.25 2.24
23 0 -15 5.7 1.84
0 15 -23 1.5 1.48
23 1 -15 3.49 1.84
23 1 -15 1.72 2.14
1 15 -23 4.08 1.51
-1 15 -23 3.2 1.36
23 -1 -15 2.56 1.72
23 -1 -15 4.08 2.26
2 15 -23 0.89 1.47
23 2 -15 0.86 2.1
23 2 -15 0.33 1.83
23 -2 -15 -0.91 1.6
23 -2 -15 2.87 2.24
23 3 -15 5.73 2.24
3 15 -23 1.98 1.48
23 3 -15 1.06 1.84
23 -3 -15 4.45 2.29
23 -3 -15 1.69 1.76
23 4 -15 0.03 1.84
4 15 -23 0.78 1.46
23 4 -15 1.46 2.19
23 -4 -15 4.15 2.34
23 -4 -15 0.32 1.7
23 5 -15 2.52 2.16
5 15 -23 4.8 1.59
23 -5 -15 4.62 2.36
23 -5 -15 3 1.79
6 15 -23 2.08 1.58
23 6 -15 2.81 2.18
23 -6 -15 0.13 1.83
23 7 -15 0.68 2.19
7 15 -23 -0.85 1.56
23 -7 -15 -0.22 1.73
23 8 -15 0.35 2.29
23 9 -15 3.64 2.61
0 16 -23 1.98 1.44
23 0 -16 2.99 2.21
23 0 -16 2.02 1.79
1 16 -23 2.98 1.53
23 1 -16 -0.28 2.13
23 1 -16 -0.95 1.73
-1 16 -23 -0.68 1.26
23 -1 -16 1.9 1.73
23 -1 -16 0.89 2.16
2 16 -23 -0.04 1.36
23 2 -16 -1.13 2.07
23 2 -16 0.21 2.38
23 -2 -16 2.84 2.24
23 -2 -16 0.32 1.67
-2 16 -23 -0.62 1.31
23 3 -16 -0.22 2.13
3 16 -23 0.39 1.42
23 -3 -16 2.35 2.26
23 -3 -16 2.62 1.74
4 16 -23 2.15 1.52
23 4 -16 -0.84 2.14
23 -4 -16 9.19 3.04
23 -4 -16 -1.05 1.73
5 16 -23 -0.97 1.96
23 5 -16 -1.54 2.11
23 -5 -16 5.82 2.06
23 6 -16 3.46 2.26
23 7 -16 0.26 2.4
23 0 -17 -1.13 2.23
23 1 -17 5.4 2.21
23 -1 -17 5.66 2.83
23 2 -17 2.39 2.19
23 3 -17 1.71 2.18
23 4 -17 -0.19 2.75
0 0 -24 18.74 2.07
24 -1 0 4.31 1.48
1 0 -24 4.83 1.42
-1 0 -24 2.96 1.27
24 2 0 -0.06 1.94
2 0 -24 4.88 1.41
-2 0 -24 2.52 1.33
24 -2 0 0.97 1.43
2 0 -24 2.97 1.58
24 -3 0 0.5 1.47
24 3 0 0.72 1.95
3 0 -24 1.22 1.31
3 0 -24 3.4 1.65
4 0 -24 2.44 1.35
4 0 -24 0.15 1.56
24 4 0 0.09 1.93
24 -4 0 3.68 1.58
5 0 -24 7.17 1.82
24 -5 0 6.11 1.7
24 5 0 5.94 2.07
5 0 -24 4.15 1.44
6 0 -24 5.86 1.51
24 -6 0 5.43 1.63
24 6 0 3.91 2.05
6 0 -24 4.38 1.74
7 0 -24 2.49 1.73
7 0 -24 1.76 1.44
24 -7 0 1.07 1.74
24 7 0 0.14 2.03
24 8 0 2.96 2.15
8 0 -24 3.44 1.86
9 0 -24 0.57 1.49
24 9 0 4.73 3.73
9 0 -24 0.23 1.91
10 0 -24 2.15 2.7
24 10 0 2.24 2.39
10 0 -24 4.31 1.55
11 0 -24 1.98 1.94
11 0 -24 1.68 1.61
24 11 0 6.57 2.3
12 0 -24 -0.31 1.56
24 12 0 0.53 2.34
12 0 -24 2.02 1.96
24 13 0 -0.66 2.26
13 0 -24 0.89 1.98
13 0 -24 1.42 1.61
14 0 -24 2.39 2.01
14 0 -24 3.14 1.58
24 14 0 0.47 2.3
15 0 -24 -0.98 1.95
15 0 -24 0.42 1.57
16 0 -24 4.08 2.3
0 -1 -24 1.65 1.24
0 1 -24 1.98 1.55
24 0 -1 2.42 1.37
0 1 -24 -0.5 1.12
1 1 -24 5.53 1.62
24 1 -1 3.69 1.98
24 -1 1 2.08 2.06
1 1 -24 3.64 1.31
-1 -1 -24 8.21 1.38
-1 1 -24 3.84 1.29
-1 1 -24 6.13 1.63
24 -1 -1 2.45 1.44
1 -1 -24 3.39 1.26
2 1 -24 0.36 1.25
24 -2 1 0.44 1.4
24 2 -1 0.73 1.89
2 1 -24 2.81 1.58
-2 1 -24 0.39 1.18
24 -2 -1 -1.17 1.31
2 -1 -24 1.99 1.3
3 1 -24 -0.39 1.52
24 3 -1 0.42 1.91
3 1 -24 0.04 1.36
24 -3 1 -1.35 1.34
24 3 1 -1.8 1.94
-3 1 -24 -2.43 1.19
3 -1 -24 0.17 1.3
24 -3 -1 -1 1.32
24 -4 1 3.88 1.5
4 1 -24 4.37 1.67
4 1 -24 3.16 1.41
24 4 -1 3.7 2.03
4 -1 -24 1.73 1.69
24 4 1 1.4 2.02
24 -4 -1 -0.95 1.35
4 -1 -24 2.9 1.39
5 1 -24 -0.02 1.59
24 -5 1 0.21 1.44
5 1 -24 0.88 1.32
24 5 -1 1.47 2.03
24 5 1 -1.62 1.94
24 -5 -1 -2.73 1.29
5 -1 -24 1.04 1.33
5 -1 -24 0.69 1.69
6 1 -24 -1.64 1.29
24 -6 1 0.88 1.44
6 1 -24 0.3 1.66
24 6 -1 -1.81 2
6 -1 -24 -1.36 1.33
24 -6 -1 -0.1 1.47
24 6 1 1.94 2.04
6 -1 -24 -0.17 1.62
7 1 -24 3.04 1.79
24 7 -1 1.26 2.04
7 1 -24 1.89 1.47
24 -7 -1 4.42 1.78
24 7 1 2.65 2.15
7 -1 -24 5.4 1.83
7 -1 -24 1.41 1.82
24 8 -1 0.06 2.17
8 1 -24 -3.32 1.66
24 8 1 1.44 2.1
8 -1 -24 -2.07 1.82
8 -1 -24 -1.45 2.2
9 1 -24 -0.01 1.96
24 9 -1 4.23 2.84
9 1 -24 1.86 1.6
9 -1 -24 4.47 2.02
24 9 1 -0.5 3.41
9 -1 -24 -0.05 1.37
24 -9 -1 0.48 1.64
10 1 -24 5.13 2.49
24 10 -1 7.15 2.67
10 1 -24 3.88 1.61
24 -10 -1 6.27 1.76
10 -1 -24 1.52 3.26
10 -1 -24 5.92 1.63
24 10 1 5.21 2.43
24 11 -1 2.49 2.37
11 1 -24 0.75 1.91
11 1 -24 0.73 1.51
24 11 1 -1.44 2.21
11 -1 -24 -0.03 1.52
11 -1 -24 -1.06 1.96
12 1 -24 0.93 1.94
24 12 -1 2.54 2.3
12 1 -24 2.33 1.59
12 -1 -24 2.2 1.84
24 12 1 -0.35 2.22
12 -1 -24 -0.08 2.05
13 1 -24 0.28 1.94
13 1 -24 2.91 1.64
24 13 -1 -0.35 2.23
13 -1 -24 4.9 2.06
13 -1 -24 -2.4 1.45
24 13 1 1.59 2.41
24 14 -1 -1.81 2.26
14 1 -24 -1.19 1.48
14 1 -24 -1.74 1.93
14 -1 -24 0.12 2.02
14 -1 -24 2.33 1.56
15 1 -24 -2.24 1.53
24 15 -1 1.44 2.38
15 1 -24 0.87 2.06
15 -1 -24 0.77 1.79
15 -1 -24 -0.65 1.97
16 1 -24 2.86 2.92
16 -1 -24 0.65 2.29
0 2 -24 3.34 1.95
0 2 -24 4.23 1.28
24 0 -2 6.39 3.38
24 0 -2 2.16 1.42
24 1 -2 1.07 1.72
24 1 -2 -1.93 1.87
1 2 -24 2.29 1.53
1 2 -24 1.8 1.26
1 -2 -24 0.43 1.25
24 -1 -2 2.21 1.4
-1 2 -24 -1.45 1.14
2 2 -24 2.49 1.32
2 2 -24 0.4 1.55
24 2 -2 3.49 1.93
2 -2 -24 1.84 1.29
-2 2 -24 3.9 1.33
24 -2 -2 5.55 1.55
3 2 -24 14.59 1.77
24 3 -2 18.94 2.34
3 2 -24 14.38 1.93
-3 2 -24 12.84 1.59
3 -2 -24 12.66 1.63
24 3 2 18.12 3.27
24 -3 -2 15.28 2.14
24 4 -2 2.51 1.95
4 2 -24 1.3 1.29
4 2 -24 1.07 1.62
24 4 2 4.1 2.02
24 -4 -2 2.42 1.64
4 -2 -24 2.26 1.37
-4 2 -24 -2.41 1.23
24 5 -2 3.48 1.97
5 2 -24 3.54 1.64
5 2 -24 4.35 1.38
24 -5 -2 0.2 1.44
24 5 2 5.59 2.1
5 -2 -24 4.65 1.45
24 6 -2 -1.41 1.99
6 2 -24 3.18 1.73
6 2 -24 3.61 1.45
24 6 2 2.46 2.1
24 -6 -2 0.04 1.48
6 -2 -24 4.99 1.84
6 -2 -24 2.92 1.48
7 2 -24 -0.84 1.52
7 2 -24 -1.88 1.67
24 7 -2 -0.53 1.95
7 -2 -24 3.71 1.89
24 -7 -2 -0.24 1.6
24 7 2 -0.41 2.08
24 8 -2 9.26 2.34
8 2 -24 13.79 2.07
24 8 2 11.05 2.44
8 -2 -24 12.83 2.1
8 -2 -24 10.75 1.79
9 2 -24 4.71 1.59
24 9 -2 1.48 3.64
9 -2 -24 -0.57 1.96
9 -2 -24 -0.12 1.45
24 -9 -2 -0.27 1.61
24 10 -2 -0.21 2.32
10 2 -24 1.83 1.84
24 10 2 -3.38 2.17
24 -10 -2 -3.16 1.5
10 -2 -24 0.09 1.5
10 -2 -24 -1.19 4.05
24 11 -2 3.03 2.25
11 2 -24 3.1 2.01
11 2 -24 2.77 1.58
11 -2 -24 2.86 1.46
24 11 2 1.04 2.33
24 -11 -2 -0.06 1.6
11 -2 -24 1.3 1.95
24 12 -2 2.55 2.26
12 2 -24 -0.49 1.92
12 2 -24 3.91 1.53
12 -2 -24 1.66 1.48
12 -2 -24 1.3 1.95
13 2 -24 5.1 2.06
13 2 -24 0.18 1.6
24 13 -2 1.9 2.3
13 -2 -24 3.92 2.14
13 -2 -24 4.28 1.61
24 14 -2 1.03 2.27
14 2 -24 9.03 2.9
14 2 -24 4 1.65
14 -2 -24 3.72 1.65
14 -2 -24 6.59 2.12
15 2 -24 -0.27 1.59
24 15 -2 -1.88 2.21
15 2 -24 -0.69 1.95
15 -2 -24 0.58 2.01
16 -2 -24 2.51 2.97
24 0 -3 0.04 1.95
0 3 -24 1.16 1.2
24 0 -3 1.14 1.4
24 1 -3 0.46 1.37
1 3 -24 -1.55 1.21
24 1 -3 -0.7 1.93
24 -1 -3 2.18 1.44
-1 3 -24 1.24 1.23
24 2 -3 17.32 2.32
2 3 -24 13.31 1.84
2 3 -24 13.03 1.72
24 -2 -3 15.6 1.9
2 -3 -24 15.41 2.02
-2 3 -24 16.55 2
3 3 -24 18.9 2.1
3 3 -24 21.19 2.38
24 3 -3 25.73 2.66
24 -3 -3 19.75 2.32
3 -3 -24 18.3 2.02
-3 3 -24 18.62 2.07
24 4 -3 -1.03 1.95
4 3 -24 -0.16 1.61
4 3 -24 1.97 1.26
4 -3 -24 2.42 1.34
-4 3 -24 1.21 1.26
24 -4 -3 0.54 1.35
24 4 3 2.77 2.13
5 3 -24 -0.85 1.62
24 5 -3 1.92 1.94
5 3 -24 1.03 1.36
-5 3 -24 2.63 1.48
24 -5 -3 1.7 1.53
5 -3 -24 0.67 1.37
24 5 3 -3.29 2.07
24 6 -3 2.43 2.02
6 3 -24 0.18 1.34
6 3 -24 -0.51 1.6
6 -3 -24 -1.8 1.81
24 6 3 -0.53 2.11
24 -6 -3 -0.67 1.5
7 3 -24 -1.44 1.56
7 3 -24 1.27 1.67
24 7 -3 3.69 2.07
24 -7 -3 0.2 2.32
7 -3 -24 1.03 1.89
24 7 3 -0.06 2.23
8 3 -24 35.07 3.21
24 8 -3 30.69 3.17
8 3 -24 24.15 2.84
24 8 3 33.03 4.42
8 -3 -24 28.99 2.9
8 -3 -24 26.35 2.39
9 3 -24 3.57 3.3
9 3 -24 5 1.56
24 9 -3 -0.82 3.95
9 -3 -24 4.76 2.56
9 -3 -24 1.1 1.47
24 9 3 6.62 2.91
24 -9 -3 0.4 1.58
24 10 -3 2.86 2.2
10 3 -24 2.61 1.45
10 3 -24 -0.68 1.82
24 -10 -3 1.6 1.73
10 -3 -24 1.6 2.03
10 -3 -24 -0.94 1.4
11 3 -24 2.97 1.6
11 3 -24 7.86 2.07
24 11 -3 5.5 2.33
24 -11 -3 6.29 1.74
11 -3 -24 1.86 2.03
11 -3 -24 5.58 1.61
12 3 -24 -0.2 1.87
24 12 -3 0.77 2.14
12 3 -24 3.24 1.62
24 -12 -3 1.27 1.77
12 -3 -24 1.74 1.48
12 -3 -24 2.17 2.1
13 3 -24 8.46 2.1
13 3 -24 6.19 1.76
24 13 -3 7.58 2.48
13 -3 -24 2.62 2.02
13 -3 -24 6.84 1.69
14 3 -24 3.06 1.62
24 14 -3 8.35 2.38
14 3 -24 6.81 2.1
14 -3 -24 5.04 1.74
14 -3 -24 5.95 2.07
15 3 -24 0.52 1.8
15 3 -24 -4.08 1.97
24 15 -3 0.77 2.26
15 -3 -24 2.9 2.15
24 0 -4 3.47 2
0 4 -24 3.57 1.34
24 0 -4 3.51 1.44
1 4 -24 5.36 1.36
24 1 -4 2.91 1.95
24 1 -4 1.45 1.38
24 -1 -4 4.04 2.05
-1 4 -24 4 1.35
24 -1 -4 2.17 1.39
24 2 -4 -1.34 1.43
24 2 -4 3.26 1.9
2 4 -24 0.31 1.22
24 -2 -4 -1.23 1.32
-2 4 -24 -0.3 1.27
24 3 -4 4.2 2.03
3 4 -24 0.23 1.28
3 4 -24 1.33 1.56
3 -4 -24 1.96 1.83
-3 4 -24 3.41 1.29
24 -3 -4 2.17 1.42
4 4 -24 7.08 1.5
24 4 -4 12.2 2.29
4 4 -24 10.3 1.79
4 -4 -24 11.6 1.84
-4 4 -24 10.44 1.54
24 -4 -4 9.06 1.7
24 5 -4 -2.13 1.92
5 4 -24 1.38 1.36
5 4 -24 -1.85 1.6
-5 4 -24 7.32 2.33
24 -5 -4 -2.15 1.42
6 4 -24 2.01 1.46
6 4 -24 4.62 1.68
24 6 -4 0.01 1.95
-6 4 -24 2.1 1.64
24 -6 -4 0.44 1.64
6 -4 -24 -2.23 2.12
7 4 -24 6.42 1.97
24 7 -4 5.22 2.22
7 -4 -24 3.07 1.95
7 -4 -24 2.64 1.5
24 8 -4 3.56 2.32
8 4 -24 -0.52 1.45
8 -4 -24 -1.62 1.36
8 -4 -24 0.55 1.89
24 -8 -4 0.01 1.55
9 4 -24 4.06 1.94
9 4 -24 4.83 1.59
24 -9 -4 0.01 1.47
9 -4 -24 2.73 1.5
10 4 -24 1.41 1.58
10 4 -24 6 1.96
24 10 -4 3 2.21
10 -4 -24 2.84 2.07
24 -10 -4 5.68 1.78
10 -4 -24 4.95 1.56
24 11 -4 -0.93 2.15
11 4 -24 -0.67 1.49
11 4 -24 0.96 1.86
24 -11 -4 1.2 1.72
11 -4 -24 0.53 1.47
11 -4 -24 1.68 2.03
24 12 -4 0.53 2.18
12 4 -24 4.6 1.68
12 4 -24 5.3 2.06
12 -4 -24 2.93 2.03
24 -12 -4 4.23 1.82
12 -4 -24 1.46 1.56
24 13 -4 4.24 2.35
13 4 -24 2.67 1.93
13 -4 -24 -0.3 1.97
13 -4 -24 3.61 1.64
14 4 -24 -1.31 1.55
14 4 -24 3.63 2
24 14 -4 -0.49 2.24
14 -4 -24 0.03 2.03
14 -4 -24 -4.37 2.09
24 15 -4 6.22 2.42
15 4 -24 0.06 2.72
15 -4 -24 2.18 2.03
24 0 -5 6.53 1.62
24 0 -5 4.86 2.06
0 5 -24 4.75 1.36
24 1 -5 1.38 1.45
24 1 -5 3.22 1.97
1 5 -24 1.34 1.26
-1 5 -24 -0.17 1.49
24 -1 -5 -0.31 1.42
24 -1 -5 4.17 2
2 5 -24 1.73 1.37
24 2 -5 3.24 1.48
24 2 -5 7.36 2.06
-2 5 -24 3.19 1.42
24 -2 -5 3.08 1.52
3 5 -24 1.02 1.27
24 3 -5 1.08 1.95
-3 5 -24 3.85 1.4
24 -3 -5 1.14 1.42
24 4 -5 -0.66 1.94
4 5 -24 -0.5 2.18
4 5 -24 0.88 1.23
24 -4 -5 0.21 1.46
-4 5 -24 1.65 1.33
5 5 -24 1.75 1.42
5 5 -24 -1.95 1.62
24 5 -5 3.75 2.1
24 -5 -5 2.09 1.6
5 -5 -24 -0.55 1.71
24 6 -5 5.98 2.15
6 5 -24 -0.66 2.1
6 -5 -24 -2.47 1.36
-6 5 -24 1.97 1.29
7 5 -24 1.73 1.84
24 7 -5 0.61 2.12
-7 5 -24 -0.81 1.28
24 -7 -5 -1.89 1.6
7 -5 -24 -0.77 1.35
8 5 -24 3.26 1.86
8 5 -24 2.26 1.43
24 -8 -5 2.13 1.61
8 -5 -24 3.74 2.41
8 -5 -24 5.59 1.53
9 5 -24 1.58 1.52
24 9 -5 2.56 2.29
9 5 -24 0.37 1.84
24 -9 -5 -0.33 1.53
9 -5 -24 0.58 1.5
9 -5 -24 0.26 2.17
24 10 -5 -1.39 2.15
10 5 -24 4.12 1.9
10 5 -24 1.52 1.57
10 -5 -24 5.38 2.06
24 -10 -5 -3.25 1.53
10 -5 -24 0.48 1.55
11 5 -24 3.95 1.61
11 5 -24 3.16 1.97
24 11 -5 1.21 2.11
11 -5 -24 -2.69 1.88
24 -11 -5 2.32 1.75
11 -5 -24 -0.7 1.51
12 5 -24 5.11 1.78
24 12 -5 1.9 2.15
12 5 -24 1.19 1.91
12 -5 -24 0.66 2.05
24 -12 -5 -0.76 1.65
12 -5 -24 -1.1 1.51
13 5 -24 1.27 1.58
24 13 -5 1.09 2.25
13 5 -24 -0.26 1.96
13 -5 -24 -2.43 1.54
24 -13 -5 -3.2 1.57
13 -5 -24 -2.25 1.96
14 5 -24 -3.42 1.95
14 5 -24 0.93 1.68
24 14 -5 -2.06 2.16
14 -5 -24 2.52 2.14
24 15 -5 4.27 2.23
15 -5 -24 3.52 2.1
24 0 -6 2.28 1.46
24 0 -6 3.16 1.93
0 6 -24 3.57 1.34
24 1 -6 2.47 1.95
24 1 -6 3.26 1.56
1 6 -24 0.11 1.26
24 -1 -6 1.32 1.97
-1 6 -24 1.24 1.24
24 -1 -6 -0.3 1.47
24 2 -6 2.89 2
2 6 -24 4.18 1.38
24 2 -6 2.29 2.04
-2 6 -24 3.64 1.31
24 -2 -6 4.26 2.06
24 -2 -6 2.19 1.52
24 3 -6 3.97 2.01
3 6 -24 2.67 1.38
24 -3 -6 2.75 1.56
-3 6 -24 1.49 1.31
24 4 -6 5.83 2.07
4 6 -24 0.59 1.36
24 -4 -6 1.9 1.59
5 6 -24 0.63 1.54
24 5 -6 0.87 2.06
-5 6 -24 -1.06 1.43
6 6 -24 3.93 2.15
6 6 -24 2.55 2.03
24 6 -6 4.96 2.13
24 -6 -6 2.6 2.04
-6 6 -24 0.89 1.35
24 7 -6 2.93 2.81
7 6 -24 2.86 1.76
7 6 -24 1.38 1.53
-7 6 -24 -1.87 1.28
7 -6 -24 -0.76 1.5
24 -7 -6 -0.22 1.57
24 8 -6 3.09 2.87
8 6 -24 1.7 1.72
8 6 -24 -0.06 1.48
24 -8 -6 1.52 1.59
8 -6 -24 -0.81 1.51
-8 6 -24 2.4 1.41
9 6 -24 1.8 1.88
9 6 -24 -2.49 1.48
24 9 -6 0.15 2.12
24 -9 -6 -0.56 1.58
9 -6 -24 2.42 1.51
9 -6 -24 0.36 1.99
10 6 -24 0.54 1.57
10 6 -24 3 1.87
24 10 -6 3.48 2.23
10 -6 -24 2.89 2.05
10 -6 -24 -0.81 1.51
24 -10 -6 2.02 1.7
24 11 -6 -0.99 2.28
11 6 -24 2.4 1.95
11 6 -24 0.08 1.52
24 -11 -6 -1.1 1.52
11 -6 -24 1.13 1.56
11 -6 -24 -2.02 1.96
12 6 -24 -0.52 1.92
24 12 -6 0.16 2.16
12 6 -24 -0.19 1.5
12 -6 -24 2.13 2.07
12 -6 -24 0.18 1.64
24 -12 -6 3.33 1.72
13 6 -24 1.37 1.95
24 13 -6 -2.73 2.08
13 6 -24 0.75 1.59
24 -13 -6 -3.65 1.52
13 -6 -24 0.86 2.09
14 6 -24 2.28 1.87
24 14 -6 -0.58 2.24
14 -6 -24 1.56 2.11
24 15 -6 4.09 2.86
15 -6 -24 0.99 2.97
0 7 -24 -0.45 1.22
24 0 -7 -0.21 2.01
24 0 -7 3.8 2.09
1 7 -24 -0.16 1.26
24 1 -7 2.82 2
-1 7 -24 3.72 1.43
24 -1 -7 -1.13 1.99
24 -1 -7 1.35 2.08
24 2 -7 -1.58 1.9
2 7 -24 0.85 1.39
24 -2 -7 -0.46 2
-2 7 -24 -2.46 1.37
24 -2 -7 -3.22 2.02
24 3 -7 -0.26 1.78
3 7 -24 0.75 1.36
24 3 -7 0.76 1.98
24 4 -7 5.67 2.19
-4 7 -24 3.61 2.28
5 7 -24 2.37 2.09
24 5 -7 5.41 2.24
-5 7 -24 -1.12 1.22
24 -5 -7 0 1.6
6 7 -24 0.22 1.39
24 6 -7 1.56 2.8
24 -6 -7 1.78 1.54
-6 7 -24 0.37 1.3
7 7 -24 4.37 1.53
24 7 -7 2.14 4.34
24 -7 -7 4.57 1.64
8 7 -24 -0.58 1.83
24 8 -7 0.88 2.2
8 7 -24 2.87 1.6
24 -8 -7 -0.95 1.67
24 9 -7 -0.26 2.11
9 7 -24 1.44 1.52
9 7 -24 -3.36 1.81
9 -7 -24 4.18 2.14
24 -9 -7 4.63 1.76
10 7 -24 2.39 1.93
24 10 -7 3.71 2.25
10 7 -24 3.88 1.65
24 -10 -7 4.95 1.74
10 -7 -24 6.38 1.77
10 -7 -24 4.2 2.21
11 7 -24 5.65 1.7
24 11 -7 -1.39 2.11
11 7 -24 -1.77 1.9
11 -7 -24 -0.21 2
11 -7 -24 -2.08 1.65
24 -11 -7 -1.56 1.51
12 7 -24 -0.74 1.63
24 12 -7 1.2 2.16
12 7 -24 3.71 1.94
24 -12 -7 4.46 1.81
12 -7 -24 1.41 2.09
24 13 -7 1.86 2.22
13 7 -24 4.35 1.65
13 7 -24 5.78 3.18
13 -7 -24 2.01 2.09
24 -13 -7 3.39 1.76
24 14 -7 1.9 2.26
14 -7 -24 -0.28 2.16
24 0 -8 4.5 2.03
24 0 -8 -0.56 2.05
24 1 -8 0.1 1.68
24 1 -8 0.51 2.06
24 -1 -8 1.75 2.51
24 -1 -8 -1.25 2.31
24 2 -8 9.36 2.26
24 2 -8 9.05 1.78
24 -2 -8 11.47 2.93
-2 8 -24 5.73 2.19
24 3 -8 27.2 2.98
24 3 -8 29.59 2.65
24 -3 -8 24.68 2.72
24 -3 -8 28.03 3.49
-3 8 -24 25.26 2.28
4 8 -24 0.6 1.36
24 4 -8 0.77 2.48
24 4 -8 -1.33 1.88
-4 8 -24 -0.26 1.26
24 -4 -8 0.06 1.61
5 8 -24 2.15 1.43
24 -5 -8 2.64 1.72
-5 8 -24 -1.9 1.23
24 6 -8 4.36 3.4
6 8 -24 -0.74 1.38
24 -6 -8 0.44 1.63
7 8 -24 1.92 1.47
24 7 -8 1.58 2.21
24 -7 -8 0.41 1.67
24 8 -8 23.62 3.09
8 8 -24 20.15 2.44
24 -8 -8 26.7 2.65
9 8 -24 3.29 1.65
24 9 -8 2.59 2.25
9 -8 -24 3.25 2.15
24 -9 -8 1.94 1.71
24 10 -8 -0.15 2.13
10 8 -24 -0.92 1.55
24 -10 -8 0.98 1.62
10 -8 -24 -2.28 1.98
11 8 -24 5.01 1.71
24 11 -8 1.64 2.3
11 8 -24 7 2.09
11 -8 -24 2.97 2.09
24 -11 -8 1.89 1.67
12 8 -24 1.48 1.64
24 12 -8 -0.98 2.27
12 -8 -24 1.35 2.22
24 -12 -8 -1.92 1.49
13 8 -24 11.5 2.12
24 13 -8 11.36 2.46
13 -8 -24 11.66 2.27
24 -13 -8 15.56 2.21
24 14 -8 9.83 3.04
14 -8 -24 12.2 3.26
24 0 -9 2.04 1.71
0 9 -24 4.52 1.43
24 1 -9 1.77 1.72
1 9 -24 -0.12 1.3
24 -1 -9 -0.2 3.31
-1 9 -24 0.63 1.23
24 -1 -9 2.52 1.63
2 9 -24 -0.85 1.37
24 2 -9 2.56 1.71
24 -2 -9 -2.72 2.12
24 -2 -9 2.57 1.7
-2 9 -24 -0.05 1.27
3 9 -24 3.59 1.46
24 3 -9 3.21 1.78
24 -3 -9 5.22 2.27
-3 9 -24 3.29 1.34
24 -3 -9 2.99 1.76
24 4 -9 2.3 1.84
24 4 -9 1.73 2.62
4 9 -24 2.09 1.42
-4 9 -24 2 1.34
24 -4 -9 4.6 1.76
24 5 -9 2.38 2.28
5 9 -24 0.01 1.35
24 -5 -9 0.54 1.56
6 9 -24 -0.13 1.35
24 6 -9 2.04 2.15
24 -6 -9 2.4 1.6
7 9 -24 1.7 1.45
24 7 -9 4.76 2.3
24 -7 -9 -2.8 1.5
8 9 -24 3.86 1.55
24 8 -9 5.86 2.21
24 -8 -9 0.49 1.66
9 9 -24 2 1.52
24 9 -9 -1.53 2.13
24 -9 -9 -0.4 1.65
10 9 -24 0.07 1.53
24 10 -9 0.22 2.17
24 -10 -9 0.22 1.65
10 -9 -24 5.27 2.17
11 9 -24 2.85 1.69
24 11 -9 3.16 2.26
11 -9 -24 0.77 2.17
24 -11 -9 2.45 1.79
24 12 -9 1.16 2.3
12 9 -24 2.4 1.68
12 -9 -24 -4.94 2
24 13 -9 -3.31 2.14
13 -9 -24 1.13 2.11
24 0 -10 8.89 2.31
24 0 -10 5.19 1.78
0 10 -24 6.33 1.53
24 1 -10 5.2 2.21
24 1 -10 5.99 1.78
1 10 -24 4.44 1.47
24 -1 -10 2.9 1.79
24 -1 -10 5.18 2.22
-1 10 -24 3.45 1.42
24 2 -10 -1.6 2.08
24 2 -10 0.75 1.67
2 10 -24 -2.25 1.25
24 -2 -10 1.16 2.14
24 -2 -10 2.95 1.69
-2 10 -24 2.1 1.32
24 3 -10 -2.25 2.03
3 10 -24 -1 1.27
24 3 -10 0.67 1.77
24 -3 -10 -4.43 2.1
-3 10 -24 -2.24 1.18
24 -3 -10 1.51 1.7
24 4 -10 1.58 2.1
24 4 -10 4.37 1.9
4 10 -24 5.36 1.5
24 -4 -10 4.99 1.72
24 -4 -10 3.1 2.97
5 10 -24 -2.43 1.36
24 5 -10 2.24 2.12
24 -5 -10 -0.2 1.57
24 6 -10 2.81 2.18
6 10 -24 -1.56 1.36
24 -6 -10 1.69 1.64
7 10 -24 1.09 1.4
24 7 -10 5.25 2.31
24 -7 -10 -1.41 1.67
24 8 -10 -2.43 2.13
8 10 -24 0.64 1.53
24 -8 -10 -0.15 1.66
24 9 -10 0.5 2.18
9 10 -24 -0.92 1.53
24 -9 -10 1.67 1.67
24 10 -10 7.63 2.31
10 10 -24 6.16 1.66
24 -10 -10 9.65 1.91
10 -10 -24 9.87 2.33
11 10 -24 0.91 1.61
24 11 -10 0.27 2.16
24 -11 -10 1.5 1.71
11 -10 -24 1.35 2.14
24 12 -10 -1.81 2.17
12 -10 -24 -0.3 2.1
0 11 -24 2.83 1.35
24 0 -11 2.43 1.73
24 0 -11 4.93 2.21
1 11 -24 1.49 1.42
24 1 -11 3.85 2.25
24 1 -11 2.07 1.74
24 -1 -11 -0.78 2.12
24 -1 -11 1.98 1.79
-1 11 -24 2.76 1.32
2 11 -24 1.84 1.46
24 2 -11 1.59 2.12
24 2 -11 5.99 1.82
24 -2 -11 2.31 1.83
-2 11 -24 1.56 1.37
24 -2 -11 1.86 2.24
24 3 -11 5.76 1.86
24 3 -11 0.11 2.18
3 11 -24 4.4 1.49
24 -3 -11 2.5 2.33
-3 11 -24 3.41 1.4
24 -3 -11 7.42 1.95
4 11 -24 0.52 1.49
24 4 -11 2.12 1.84
24 4 -11 0.32 2.1
24 -4 -11 -0.13 1.63
24 -4 -11 1.43 2.35
5 11 -24 0.99 1.44
24 5 -11 2.51 2.17
24 -5 -11 0.02 1.64
24 6 -11 3.19 2.21
24 -6 -11 -0.45 1.64
24 7 -11 3.85 2.28
7 11 -24 -0.06 1.34
24 -7 -11 2.64 1.79
8 11 -24 1.49 1.52
24 8 -11 5.69 2.26
24 -8 -11 1.3 1.67
9 11 -24 -0.34 1.56
24 9 -11 -0.2 2.22
24 -9 -11 0.84 1.63
24 10 -11 2.82 2.28
10 11 -24 2.4 1.51
10 -11 -24 2.07 2.19
24 -10 -11 2.55 1.75
24 11 -11 0.2 2.17
11 -11 -24 2.67 2.12
0 12 -24 1.07 1.32
24 0 -12 2.65 2.21
24 0 -12 -0.36 1.79
24 1 -12 2.09 1.79
24 1 -12 3.76 2.24
1 12 -24 1.82 1.42
24 -1 -12 -1.19 2.18
-1 12 -24 -0.58 1.26
24 -1 -12 1.98 1.76
2 12 -24 0.23 1.34
24 2 -12 -0.5 2.13
24 2 -12 0.59 1.73
24 -2 -12 1.04 1.77
24 -2 -12 -4.84 2.11
-2 12 -24 -0.2 1.31
24 3 -12 3.56 2.24
24 3 -12 1.89 1.78
3 12 -24 -1.74 1.35
24 -3 -12 1.65 1.8
24 -3 -12 -3.51 2.26
-3 12 -24 -1.81 1.31
24 4 -12 3.32 2.23
24 4 -12 -1.18 1.8
4 12 -24 2.27 1.41
24 -4 -12 1.01 2.35
24 -4 -12 1.66 1.79
5 12 -24 0.07 1.39
24 5 -12 2.17 2.23
24 5 -12 -6.84 2.76
24 -5 -12 -1.2 1.69
6 12 -24 0 1.38
24 6 -12 2 2.29
24 -6 -12 -2.62 1.71
24 7 -12 1.3 2.15
7 12 -24 1.14 1.47
24 -7 -12 3.25 1.74
8 12 -24 1.65 1.5
24 8 -12 1.55 2.26
24 -8 -12 -1.17 1.61
9 12 -24 1.16 1.54
24 9 -12 -0.99 2.08
24 -9 -12 1.77 1.62
24 10 -12 0.06 2.16
10 -12 -24 1.05 2.1
0 13 -24 0.88 1.34
24 0 -13 -0.68 2.15
24 0 -13 2.26 1.84
24 1 -13 0.88 2.21
24 1 -13 2.17 1.75
1 13 -24 -1.44 1.35
24 -1 -13 -2.54 2.18
24 -1 -13 1.83 1.77
-1 13 -24 0.46 1.25
24 2 -13 1.75 2.27
2 13 -24 3.09 1.48
24 2 -13 4.38 1.84
-2 13 -24 1.65 1.38
24 -2 -13 -0.39 2.25
24 -2 -13 3.66 1.91
3 13 -24 4.03 1.43
24 3 -13 5.92 2.31
24 3 -13 6.06 1.9
24 -3 -13 4.42 2.29
24 -3 -13 4.88 1.87
-3 13 -24 2.91 1.38
4 13 -24 0.48 1.37
24 4 -13 0.95 2.17
24 4 -13 -2.61 1.86
24 -4 -13 2.08 2.35
24 -4 -13 2.95 1.8
5 13 -24 0.38 1.5
24 5 -13 1.98 2.12
24 -5 -13 0.38 1.72
24 6 -13 0.26 2.13
6 13 -24 0.5 1.45
24 -6 -13 -0.56 1.7
24 7 -13 2.56 2.28
7 13 -24 -2.79 1.34
24 -7 -13 0.54 1.77
24 8 -13 15.34 2.42
8 13 -24 10.19 2.05
24 -8 -13 9.39 2.03
24 9 -13 1.46 2.19
24 0 -14 3.57 1.86
0 14 -24 1.82 1.4
24 0 -14 4.12 2.28
24 1 -14 -1.2 2.16
1 14 -24 -0.3 1.32
24 1 -14 4.13 1.81
24 -1 -14 3.1 2.25
24 -1 -14 1.71 1.77
-1 14 -24 -0.02 1.3
24 2 -14 6.04 2.33
24 2 -14 4.02 1.83
2 14 -24 4.24 1.45
24 -2 -14 1.8 2.26
24 -2 -14 6.52 1.98
-2 14 -24 0.31 1.31
24 3 -14 4.77 2.26
3 14 -24 7.02 1.62
24 -3 -14 1.03 2.31
24 -3 -14 2.96 1.82
-3 14 -24 1.93 1.37
4 14 -24 0.61 1.43
24 4 -14 3.33 2.23
24 -4 -14 2.21 1.86
5 14 -24 2.26 1.38
24 5 -14 3.35 2.22
24 -5 -14 1.26 1.77
24 6 -14 -0.55 2.1
24 -6 -14 -0.39 1.87
24 7 -14 2.3 2.28
24 8 -14 14.24 3.95
24 0 -15 -0.94 2.19
0 15 -24 5.03 1.55
1 15 -24 -1.71 1.58
24 1 -15 0.17 2.22
24 -1 -15 2.01 2.29
-1 15 -24 -0.54 1.31
24 2 -15 0.99 2.34
2 15 -24 -0.48 1.41
-2 15 -24 -0.91 1.34
24 -2 -15 -0.5 2.62
24 3 -15 2.96 2.22
3 15 -24 -0.13 1.62
-3 15 -24 -0.64 1.52
24 4 -15 3.05 2.2
24 5 -15 3.2 2.26
0 0 -25 -0.89 2.07
0 0 -25 3.15 1.74
1 0 -25 4.28 1.74
25 -2 0 4 1.89
2 0 -25 7.84 1.79
3 0 -25 4.28 1.77
3 0 -25 8.04 1.82
25 -3 0 4.97 1.82
25 -4 0 6.58 1.7
4 0 -25 1.86 1.64
4 0 -25 6.17 1.8
25 -5 0 -2 1.48
5 0 -25 2.79 1.46
5 0 -25 0.08 2.13
6 0 -25 2.38 1.49
25 -6 0 -1.23 1.51
25 6 0 2.66 2.79
7 0 -25 2.51 1.93
25 7 0 3.05 2.23
7 0 -25 -0.3 1.46
8 0 -25 3.33 1.94
25 8 0 7 2.42
8 0 -25 9.95 1.71
9 0 -25 4.36 1.53
9 0 -25 10.59 2.08
25 9 0 7.12 2.36
10 0 -25 2.74 2
25 10 0 4.89 2.34
10 0 -25 3.17 1.62
25 11 0 0.81 2.38
11 0 -25 -0.49 1.89
11 0 -25 -2.5 1.47
12 0 -25 -1.27 1.53
25 12 0 -0.48 2.22
12 0 -25 -0.38 1.98
13 0 -25 3.43 1.67
13 0 -25 4.85 2.08
14 0 -25 4.98 2.09
1 1 -25 2.95 1.77
-1 1 -25 1.03 2.15
1 -1 -25 -0.9 1.73
2 1 -25 5.49 1.81
-2 1 -25 2.22 1.61
2 -1 -25 5.4 1.74
2 -1 -25 3.81 1.74
25 -2 -1 7 2.2
3 1 -25 -0.78 1.82
25 3 -1 2.25 2.77
3 -1 -25 2.45 1.54
3 -1 -25 4.26 1.78
25 -3 -1 1.88 1.76
4 1 -25 4.96 2.18
4 1 -25 1.49 1.52
4 -1 -25 0.34 1.76
4 -1 -25 4.15 1.55
25 -4 -1 3.8 1.72
5 1 -25 1.16 1.42
25 -5 -1 2.11 1.66
5 -1 -25 1.83 1.46
25 5 1 2.79 3.49
5 -1 -25 2.43 1.97
6 1 -25 2.81 1.57
25 6 -1 -2.15 2.62
6 1 -25 1.16 3.21
25 -6 -1 1.93 1.62
25 6 1 -0.56 2.28
6 -1 -25 0.16 1.45
7 1 -25 2.3 1.5
7 1 -25 -0.6 1.8
25 7 -1 5.57 2.28
7 -1 -25 1.06 1.45
25 7 1 3.8 2.29
25 -7 -1 2.68 1.62
7 -1 -25 2.22 2.11
8 1 -25 1.63 1.49
25 8 -1 1.28 2.3
8 1 -25 2.81 1.92
25 8 1 2.42 2.25
8 -1 -25 0.26 1.53
25 -8 -1 0.15 1.62
8 -1 -25 5.08 1.97
25 9 -1 3.91 2.29
9 1 -25 -1.88 1.49
9 1 -25 1.47 1.92
9 -1 -25 -0.8 1.81
9 -1 -25 1.82 1.53
25 9 1 -0.61 2.29
25 10 -1 0.75 2.27
10 1 -25 -0.02 1.87
10 1 -25 -0.41 1.51
10 -1 -25 0.24 1.54
25 10 1 2.07 2.28
10 -1 -25 -0.25 1.88
11 1 -25 -0.4 1.51
11 1 -25 -2.55 1.9
25 11 -1 -0.02 2.3
11 -1 -25 -1.07 1.95
25 11 1 4.7 2.42
11 -1 -25 -3.17 1.43
25 12 -1 0.05 2.26
12 1 -25 2.21 1.59
12 1 -25 4.28 2.07
12 -1 -25 3.17 2.04
12 -1 -25 1.5 1.57
13 1 -25 1.74 1.58
13 1 -25 -1.21 1.95
25 13 -1 -1.01 2.34
13 -1 -25 -2.28 1.69
13 -1 -25 0.71 2.02
14 1 -25 4.26 2.22
14 -1 -25 -0.26 2.03
25 -1 -2 2.23 2.03
-1 2 -25 1.09 2.28
2 2 -25 7.84 2.64
25 2 -2 4.44 3.29
25 -2 -2 -0.37 1.83
2 -2 -25 0.27 1.67
-2 2 -25 1.56 1.31
3 2 -25 2.68 2.8
3 2 -25 0.24 2.57
25 3 -2 1.54 2.69
3 -2 -25 3.5 1.45
-3 2 -25 -1.22 1.33
25 -3 -2 -1.15 1.58
4 2 -25 4.11 1.51
25 -4 -2 -0.41 1.43
4 -2 -25 1.07 1.81
4 -2 -25 3.4 1.45
5 2 -25 -1.08 1.36
25 5 2 -1.04 2.43
5 -2 -25 -0.06 1.98
25 -5 -2 -1.42 1.45
5 -2 -25 -0.93 1.42
6 2 -25 -2.37 1.34
25 6 -2 -2.98 2.52
6 2 -25 0.04 1.78
6 -2 -25 -1.1 1.41
25 6 2 -3.1 2.25
25 -6 -2 1.44 1.61
7 2 -25 5.67 1.85
7 2 -25 4.66 1.57
25 7 -2 5.92 2.23
25 7 2 4.84 2.44
7 -2 -25 4.4 1.58
7 -2 -25 6.4 2.05
25 -7 -2 3.75 1.74
25 8 -2 -1.64 2.21
8 2 -25 -2.21 1.5
8 2 -25 2.62 1.92
8 -2 -25 -1.46 1.93
25 -8 -2 1.39 1.65
25 8 2 2.76 2.4
8 -2 -25 0.45 1.46
9 2 -25 1.72 1.48
25 9 -2 1.05 2.27
9 2 -25 -0.16 1.88
9 -2 -25 -0.68 1.52
25 -9 -2 2.75 1.73
25 9 2 -0.45 2.28
9 -2 -25 -0.03 1.94
10 2 -25 1.27 1.53
10 2 -25 1 1.88
25 10 -2 3.86 2.29
10 -2 -25 -1.31 1.97
10 -2 -25 -1.39 1.51
11 2 -25 -1.5 1.45
25 11 -2 -1.88 2.29
11 2 -25 -0.56 1.99
11 -2 -25 0.9 1.97
11 -2 -25 -0.33 1.62
25 12 -2 7.72 2.5
12 2 -25 6.09 2.06
12 2 -25 4.32 1.63
12 -2 -25 4.59 1.7
12 -2 -25 3.81 2.12
13 2 -25 3.07 1.94
13 2 -25 0.06 1.59
25 13 -2 0.72 2.27
13 -2 -25 1.22 2.08
25 14 -2 -1.83 2.28
14 -2 -25 0.79 2.06
25 0 -3 7.47 1.77
0 3 -25 6.87 2.33
25 -1 -3 1.22 1.64
-1 3 -25 2.17 1.72
25 2 -3 0.24 2.85
-2 3 -25 -1 1.34
25 -2 -3 0.19 1.75
25 3 -3 21.08 4.14
3 3 -25 13.58 2.07
-3 3 -25 12.18 1.65
25 -3 -3 14.34 1.95
4 3 -25 -0.51 1.4
4 3 -25 3.32 2.37
25 -4 -3 1.71 1.57
-4 3 -25 1.05 1.39
4 -3 -25 -1.13 1.39
5 3 -25 3.53 1.46
5 3 -25 -1.97 1.8
25 -5 -3 0.46 1.54
5 -3 -25 3.73 1.56
5 -3 -25 -1.09 2.13
6 3 -25 2.13 1.83
6 3 -25 0.78 1.45
25 6 -3 0.13 2.24
25 -6 -3 -3.08 1.45
6 -3 -25 -0.19 1.5
25 7 -3 0.48 2.19
7 3 -25 5.72 1.86
7 3 -25 1.51 1.45
25 -7 -3 2.65 1.53
7 -3 -25 0.38 1.5
7 -3 -25 3.07 2.03
8 3 -25 8.62 2.04
8 3 -25 10.94 1.85
25 8 -3 12.03 2.53
25 -8 -3 11.68 1.98
8 -3 -25 8.07 1.75
8 -3 -25 12.16 2.19
9 3 -25 -0.12 1.89
25 9 -3 -3.84 2.24
9 3 -25 3.17 1.61
9 -3 -25 1.17 1.95
9 -3 -25 0.01 1.52
25 -9 -3 0.09 1.68
25 10 -3 -0.15 2.3
10 3 -25 -0.7 1.94
10 -3 -25 -3.32 1.98
25 -10 -3 -0.4 1.55
10 -3 -25 0.82 1.58
11 3 -25 3.37 2.1
25 11 -3 3.79 2.31
11 -3 -25 4.46 2.09
11 -3 -25 1.64 1.66
12 3 -25 3.11 1.99
25 12 -3 -2.12 2.28
12 3 -25 -0.13 1.56
12 -3 -25 -0.33 1.6
12 -3 -25 2.68 2.04
25 13 -3 1.22 2.23
13 3 -25 2.85 1.68
13 3 -25 8.43 2.05
13 -3 -25 8.26 2.14
25 14 -3 9.76 2.7
14 -3 -25 7.9 2.23
25 0 -4 3.45 1.67
0 4 -25 4.74 1.56
1 4 -25 -0.24 1.57
-1 4 -25 0.49 1.32
25 -1 -4 0.66 1.61
2 4 -25 4.43 1.45
25 -2 -4 2.27 1.63
-2 4 -25 3.85 1.4
3 4 -25 0.21 1.37
25 -3 -4 -2.17 1.54
-3 4 -25 -0.62 1.33
4 4 -25 1.43 1.37
-4 4 -25 -0.57 1.38
25 -4 -4 1.47 1.59
5 4 -25 4.04 1.52
25 5 -4 3.58 2.54
5 4 -25 0.35 1.74
-5 4 -25 -0.25 1.43
25 -5 -4 0.14 1.59
6 4 -25 -1.97 1.73
25 6 -4 4.19 2.89
6 4 -25 -0.73 1.46
6 -4 -25 -2.59 1.49
25 -6 -4 0.68 1.58
6 -4 -25 -1.25 1.95
7 4 -25 7.21 1.94
25 7 -4 4.68 2.34
7 4 -25 3.5 1.56
7 -4 -25 5.31 2.07
7 -4 -25 -1.3 1.48
25 -7 -4 3.43 1.61
25 8 -4 -3.08 2.17
8 4 -25 -1.73 1.8
8 4 -25 -0.93 1.5
8 -4 -25 1.67 1.57
8 -4 -25 -0.79 1.86
25 -8 -4 -3.17 1.43
9 4 -25 3.61 1.94
25 9 -4 4.67 2.34
9 4 -25 0.52 1.55
25 -9 -4 5.12 1.84
9 -4 -25 7.06 1.64
9 -4 -25 -0.32 1.98
10 4 -25 1.93 1.58
10 4 -25 3.22 1.92
25 10 -4 3.72 2.4
10 -4 -25 1.53 1.95
25 -10 -4 0.59 1.67
10 -4 -25 2.94 1.64
11 4 -25 2.93 1.62
11 4 -25 3.64 1.96
25 11 -4 1.84 2.27
11 -4 -25 -0.36 1.97
25 -11 -4 0.34 1.64
11 -4 -25 2.1 1.66
12 4 -25 5.67 2
12 4 -25 2.12 1.59
25 12 -4 3.65 2.38
12 -4 -25 1.74 2
25 13 -4 -0.71 2.17
13 4 -25 -0.94 1.9
13 -4 -25 1.83 2.11
14 -4 -25 -3.9 3.03
25 0 -5 1.43 2.95
0 5 -25 1.4 1.37
25 0 -5 -2.41 1.52
25 1 -5 -4.53 4.04
25 1 -5 -1.34 1.57
1 5 -25 -2.24 1.28
-1 5 -25 -1.08 1.26
25 -1 -5 0 1.55
2 5 -25 -0.98 1.31
-2 5 -25 0.82 1.32
25 -2 -5 -0.46 1.51
3 5 -25 0.39 1.3
25 3 -5 3.31 3.16
-3 5 -25 4.31 1.37
25 -3 -5 3.43 1.64
25 4 -5 3.07 2.39
4 5 -25 1.08 1.39
-4 5 -25 2.37 1.4
25 -4 -5 0.24 1.56
5 5 -25 1.21 1.4
25 5 -5 1.56 2.18
-5 5 -25 1.36 1.42
25 -5 -5 1.25 1.63
25 6 -5 0.91 2.23
6 5 -25 -0.24 1.44
25 -6 -5 -1.02 1.55
-6 5 -25 -0.49 1.5
7 5 -25 3.19 1.76
25 7 -5 1.9 2.24
7 5 -25 -0.86 1.36
25 -7 -5 1.93 1.69
7 -5 -25 -0.37 1.89
8 5 -25 1.67 1.82
25 8 -5 -2.73 2.22
8 5 -25 -0.74 1.38
8 -5 -25 2.42 1.7
25 -8 -5 -1.82 1.59
8 -5 -25 0.8 2.02
9 5 -25 4.42 1.94
9 5 -25 1.71 1.58
25 9 -5 -3.86 2.18
9 -5 -25 1.59 1.96
9 -5 -25 -2.66 1.59
25 -9 -5 -2.58 1.49
10 5 -25 5.13 1.9
10 5 -25 0.3 1.51
25 10 -5 0.59 2.33
10 -5 -25 -1.34 1.94
25 -10 -5 2.45 1.76
10 -5 -25 4.27 1.71
25 11 -5 1.27 2.2
11 5 -25 0.28 1.5
11 5 -25 -0.44 1.9
11 -5 -25 -3.08 1.88
25 -11 -5 3.54 1.77
12 5 -25 0.73 2.1
12 5 -25 0.72 1.56
25 12 -5 -0.2 2.34
25 -12 -5 1.4 1.62
12 -5 -25 1.25 2.12
25 13 -5 1.18 2.23
13 -5 -25 2.87 2.06
0 6 -25 0.77 1.32
25 0 -6 -0.92 1.61
25 0 -6 4.5 2.32
25 1 -6 2.6 2.33
1 6 -25 -1.26 1.31
25 1 -6 -0.55 1.6
25 -1 -6 -2.25 1.59
-1 6 -25 -0.82 1.34
2 6 -25 -1.08 1.28
25 2 -6 -0.09 2.17
25 -2 -6 -2.98 1.47
-2 6 -25 -0.43 1.28
25 3 -6 -1.8 2.15
3 6 -25 0.56 1.31
25 -3 -6 -1.41 1.51
-3 6 -25 0.38 1.3
25 4 -6 -2.26 2.13
4 6 -25 1.36 1.31
-4 6 -25 -0.64 1.35
25 -4 -6 1.33 1.64
5 6 -25 -1.34 1.34
25 5 -6 -2.09 2.23
25 -5 -6 0.33 1.62
-5 6 -25 3.34 1.4
25 6 -6 -2.17 2.22
6 6 -25 3.35 1.54
25 -6 -6 -2.75 1.56
7 6 -25 -2.17 1.36
25 7 -6 -0.8 2.16
25 -7 -6 0.37 1.71
7 -6 -25 3.03 2.02
25 8 -6 3.16 2.25
8 6 -25 -0.03 1.5
8 -6 -25 -1.91 1.87
25 -8 -6 1.12 1.69
9 6 -25 1.54 1.58
9 6 -25 1.02 1.92
25 9 -6 -3.11 2.26
9 -6 -25 0.23 1.95
25 -9 -6 0.23 1.56
10 6 -25 -0.19 1.91
10 6 -25 4.21 1.59
25 10 -6 -1.23 2.21
25 -10 -6 0.59 1.66
10 -6 -25 -0.27 1.98
11 6 -25 1.88 1.53
11 6 -25 -1.38 2.44
25 11 -6 -0.71 2.19
25 -11 -6 -0.11 1.72
11 -6 -25 -0.8 1.98
12 6 -25 -0.11 1.59
25 12 -6 -0.42 2.19
12 -6 -25 -0.51 2.05
25 -12 -6 -3.68 1.64
25 13 -6 0.66 2.32
13 -6 -25 1.4 2.11
25 0 -7 2.08 1.66
0 7 -25 0.78 1.39
1 7 -25 -1.14 1.28
25 1 -7 3.42 1.68
25 1 -7 5.15 2.27
25 -1 -7 6.17 2.36
25 -1 -7 3 1.67
-1 7 -25 3.14 1.39
25 2 -7 2.9 1.76
25 2 -7 10.09 2.33
2 7 -25 0.88 1.4
25 -2 -7 1.02 1.6
-2 7 -25 2.57 1.34
25 3 -7 7.23 2.33
3 7 -25 0.52 1.4
-3 7 -25 3.04 1.35
25 -3 -7 -1.67 1.49
25 4 -7 3.78 2.25
4 7 -25 2.82 1.46
25 -4 -7 4.66 1.73
-4 7 -25 4.55 1.48
25 5 -7 -2.73 2.19
5 7 -25 1.31 1.43
25 -5 -7 -1.22 1.53
-5 7 -25 2.82 1.47
6 7 -25 2.78 1.46
25 6 -7 -1.6 2.24
-6 7 -25 3.34 1.47
25 -6 -7 1.34 1.67
7 7 -25 4.41 1.64
25 7 -7 0.58 2.22
-7 7 -25 8.04 1.58
25 -7 -7 4.25 1.71
25 8 -7 1.67 2.26
8 -7 -25 -0.03 1.98
25 -8 -7 -1.48 1.56
25 9 -7 0.9 2.27
9 7 -25 1.05 1.53
25 -9 -7 2.75 1.71
9 -7 -25 4.16 2.11
10 7 -25 1.2 1.58
25 10 -7 -0.52 2.19
25 -10 -7 -1.12 1.58
10 -7 -25 -1.25 1.97
11 7 -25 5.08 1.61
25 11 -7 -2.71 2.21
25 -11 -7 1.46 1.76
11 -7 -25 3.26 2.08
25 12 -7 6.99 2.37
12 -7 -25 0.84 2.12
25 0 -8 6.34 1.79
0 8 -25 4.8 1.47
25 0 -8 12.81 2.43
25 1 -8 3.4 1.76
25 1 -8 3 2.3
1 8 -25 0.9 1.33
-1 8 -25 1.65 1.35
25 -1 -8 6.94 2.34
25 -1 -8 1.16 1.67
2 8 -25 1.52 1.42
25 2 -8 1.49 1.76
25 2 -8 3.12 2.23
-2 8 -25 -0.64 1.32
25 -2 -8 1.54 1.67
25 3 -8 19.75 2.58
-3 8 -25 17.41 2.09
25 -3 -8 12.84 2.02
25 4 -8 0.58 2.28
4 8 -25 -1.04 1.29
-4 8 -25 1.8 1.36
25 -4 -8 -1.44 1.56
25 5 -8 1.21 2.22
5 8 -25 2.64 1.46
25 -5 -8 -0.43 1.66
-5 8 -25 3.19 1.4
25 6 -8 1.01 2.27
6 8 -25 1.47 1.43
25 -6 -8 -1.47 1.64
-6 8 -25 0.12 1.34
7 8 -25 1.69 1.49
25 7 -8 2.83 2.29
25 -7 -8 -2.44 1.63
-7 8 -25 -1.05 1.39
8 8 -25 8.76 1.77
25 8 -8 8.71 2.4
25 -8 -8 13.77 2.05
8 -8 -25 10.2 2.23
-8 8 -25 6.89 2.55
25 9 -8 3.02 2.24
9 8 -25 1.23 1.53
9 -8 -25 3.37 2.05
25 -9 -8 2.43 1.71
25 10 -8 -0.52 2.23
10 8 -25 5.41 1.66
25 -10 -8 -0.75 1.62
10 -8 -25 0.29 2.06
11 8 -25 1.75 1.97
25 11 -8 0.82 2.31
11 -8 -25 -0.68 2.13
25 -11 -8 3.16 2.04
25 12 -8 4.31 2.74
12 -8 -25 -0.28 2.25
25 0 -9 11.22 1.88
25 0 -9 6.97 2.41
0 9 -25 6.49 1.46
25 1 -9 0.83 2.22
1 9 -25 1.58 1.38
25 1 -9 2.71 1.8
-1 9 -25 4.93 1.47
25 -1 -9 1.29 2.28
25 -1 -9 2.26 1.69
2 9 -25 2.08 1.4
25 2 -9 2.65 1.86
25 2 -9 5.86 2.37
25 -2 -9 0.99 2.47
-2 9 -25 1.77 1.39
25 -2 -9 1.86 1.68
25 3 -9 5.54 2.29
3 9 -25 2.49 1.42
-3 9 -25 1.99 1.35
25 -3 -9 1.66 1.72
25 4 -9 5.53 2.32
4 9 -25 0.95 1.4
-4 9 -25 1.95 1.36
25 -4 -9 1.93 1.71
25 5 -9 2.62 2.32
5 9 -25 -1.93 1.34
25 -5 -9 -0.33 1.67
-5 9 -25 1.55 1.32
25 6 -9 -0.67 2.3
6 9 -25 2.18 1.43
-6 9 -25 1.41 1.39
25 -6 -9 0.09 1.56
7 9 -25 1.17 1.39
25 7 -9 2.42 2.37
25 -7 -9 0.29 1.69
-7 9 -25 0.47 1.43
8 9 -25 -1.8 1.38
25 8 -9 2.16 2.33
8 -9 -25 1.41 2.02
25 -8 -9 -0.98 1.69
9 9 -25 1.51 1.52
25 9 -9 1.2 2.19
9 -9 -25 3.27 2.13
25 -9 -9 1.23 1.7
10 9 -25 0.04 1.71
25 10 -9 1.98 2.2
25 -10 -9 2.3 1.83
10 -9 -25 0.13 2.15
25 11 -9 4.84 2.28
11 -9 -25 1.39 2.12
25 0 -10 3.97 1.86
25 0 -10 -0.86 2.28
0 10 -25 2.16 1.44
25 1 -10 -3.96 2.16
25 1 -10 -1.64 1.84
1 10 -25 -2.73 1.31
25 -1 -10 2.13 2.33
25 -1 -10 -3.2 1.68
-1 10 -25 1.35 1.48
25 2 -10 0.63 1.96
25 2 -10 -3.51 2.16
2 10 -25 -0.36 1.32
-2 10 -25 3.49 1.41
25 -2 -10 -1.08 1.66
25 -2 -10 1.09 2.35
25 3 -10 5.05 2.33
25 3 -10 2.93 2.25
3 10 -25 1.29 1.39
25 -3 -10 0.9 1.69
-3 10 -25 -0.04 1.32
4 10 -25 -1.16 1.39
25 4 -10 2.65 2.37
-4 10 -25 2.69 1.32
25 -4 -10 3.52 1.8
25 5 -10 4.84 2.39
5 10 -25 -1.37 1.27
-5 10 -25 0.12 1.4
25 -5 -10 2.12 1.71
6 10 -25 -0.14 1.35
25 6 -10 3.18 2.38
-6 10 -25 -2.29 1.36
25 -6 -10 -0.35 1.59
25 7 -10 -0.98 2.3
7 10 -25 -0.35 1.42
25 -7 -10 -3.08 1.61
-7 10 -25 -2.68 1.86
8 10 -25 2.43 1.45
25 8 -10 0.01 2.26
25 -8 -10 2.72 1.86
9 10 -25 -0.12 1.51
25 9 -10 -2.14 2.2
25 -9 -10 -0.04 1.82
9 -10 -25 1.58 2.14
25 10 -10 1.89 2.17
10 -10 -25 0.03 2.07
25 0 -11 -0.19 1.9
0 11 -25 -2.32 1.29
25 0 -11 -0.77 2.24
1 11 -25 0.08 1.32
25 1 -11 2.74 2.31
25 1 -11 1.91 1.9
25 -1 -11 -1.08 1.8
-1 11 -25 3.04 1.45
25 -1 -11 3.2 2.36
25 2 -11 0.01 1.93
25 2 -11 -4.45 2.15
2 11 -25 1.87 1.46
25 -2 -11 1.37 1.78
25 -2 -11 -0.13 2.43
-2 11 -25 2.29 1.39
3 11 -25 4 1.44
25 3 -11 4.14 2.32
25 3 -11 6.01 2.36
-3 11 -25 4.51 1.43
25 -3 -11 3.18 1.77
25 4 -11 4.78 2.34
4 11 -25 0.96 1.42
25 -4 -11 1.53 1.7
-4 11 -25 1.01 1.32
5 11 -25 1.41 1.37
25 5 -11 5.09 2.42
-5 11 -25 -0.56 1.3
25 -5 -11 -0.24 1.69
6 11 -25 0.87 1.42
25 6 -11 0.18 2.29
-6 11 -25 -1.17 1.47
25 -6 -11 -1.79 1.62
7 11 -25 3.14 1.56
25 7 -11 -0.21 2.27
25 -7 -11 -1.19 1.66
25 8 -11 2.57 2.26
8 11 -25 -0.65 1.61
25 -8 -11 1.52 2.82
25 9 -11 3.35 2.28
9 -11 -25 4.03 2.18
25 0 -12 1.21 1.89
0 12 -25 1.24 1.33
25 0 -12 1.48 2.25
1 12 -25 0.39 1.34
25 1 -12 3.44 2.31
25 1 -12 8.25 2.1
25 -1 -12 4.85 2.36
25 -1 -12 4.47 1.93
-1 12 -25 3.51 1.49
2 12 -25 4.93 1.49
25 2 -12 0.85 2.19
-2 12 -25 9.43 1.55
25 -2 -12 7.17 2.53
25 -2 -12 6.87 1.95
3 12 -25 3.38 1.41
25 3 -12 -0.14 2.29
-3 12 -25 1.9 1.3
25 -3 -12 -1.77 1.71
4 12 -25 1.94 1.42
25 4 -12 6.3 2.35
-4 12 -25 0.7 1.29
25 -4 -12 -0.17 1.74
25 5 -12 2.07 2.25
5 12 -25 -0.29 1.35
25 -5 -12 2.47 1.77
-5 12 -25 0.12 1.64
25 6 -12 5.48 2.32
6 12 -25 -0.99 1.52
25 -6 -12 -0.86 2.07
25 7 -12 4.85 2.32
25 8 -12 4.15 3.71
0 13 -25 4.82 1.51
25 0 -13 2.39 2.38
25 1 -13 1.09 2.28
1 13 -25 0.08 1.36
-1 13 -25 -1.28 1.29
25 -1 -13 0.29 3.52
25 2 -13 0.01 2.29
2 13 -25 -1.68 1.31
25 -2 -13 2.97 2.85
-2 13 -25 2.6 1.46
25 3 -13 9.36 2.39
3 13 -25 4.12 1.39
-3 13 -25 0.28 1.74
25 4 -13 3.79 2.3
4 13 -25 3.08 1.55
25 5 -13 1.49 2.34
25 6 -13 2.68 2.91
1 0 -26 -0.99 2.16
2 0 -26 0.34 1.82
2 0 -26 2.25 1.61
3 0 -26 -1.85 1.81
3 0 -26 -0.52 1.54
4 0 -26 7 1.92
4 0 -26 9.22 1.76
5 0 -26 -0.27 1.84
5 0 -26 2.12 1.56
6 0 -26 2.11 1.84
26 6 0 -2.87 2.38
6 0 -26 2.06 1.54
7 0 -26 -0.16 1.89
7 0 -26 4.84 1.64
26 7 0 1.38 2.49
8 0 -26 2.93 1.91
26 8 0 2.46 2.45
8 0 -26 1.47 1.59
9 0 -26 0.11 1.64
9 0 -26 -1.71 1.98
26 9 0 1.59 2.37
26 10 0 2.64 2.34
10 0 -26 0.27 1.64
10 0 -26 -0.66 1.94
11 0 -26 2.14 1.99
26 11 0 -0.53 2.42
12 0 -26 5.39 3.02
0 1 -26 -2.17 1.5
0 -1 -26 6.01 2.01
1 1 -26 0.32 1.51
1 -1 -26 0.7 1.77
2 1 -26 4.23 1.57
2 -1 -26 -0.24 1.78
3 1 -26 1.58 1.53
3 1 -26 2.37 1.79
3 -1 -26 5.21 1.63
3 -1 -26 5.97 1.87
26 -3 -1 3.55 1.79
4 1 -26 1.45 1.61
4 1 -26 1.39 1.78
4 -1 -26 0.42 1.84
26 -4 -1 -0.54 1.64
4 -1 -26 3.18 1.61
5 1 -26 3.03 1.54
5 1 -26 -1.79 1.8
26 5 -1 10.4 2.52
5 -1 -26 -1.31 1.84
26 -5 -1 0.29 1.67
5 -1 -26 3 1.62
26 6 -1 7.76 2.43
6 1 -26 0.82 1.8
6 1 -26 1.64 1.58
6 -1 -26 2.27 1.58
26 6 1 -0.6 3.47
6 -1 -26 1.3 1.86
7 1 -26 4.7 1.62
7 1 -26 1.84 1.89
26 7 -1 4.85 2.37
26 7 1 -4.29 2.37
7 -1 -26 -1.54 1.6
7 -1 -26 1.87 1.89
8 1 -26 3.74 1.66
8 1 -26 3.49 1.96
26 8 -1 4.61 2.44
8 -1 -26 1.62 1.91
8 -1 -26 0 1.64
26 8 1 2.56 2.42
9 1 -26 1.39 1.56
26 9 -1 1.2 2.3
9 1 -26 -1.24 1.92
9 -1 -26 2.21 1.94
26 9 1 0.8 2.48
9 -1 -26 -0.46 1.61
26 10 -1 3.53 2.38
10 1 -26 0.47 1.6
10 1 -26 5.47 1.99
10 -1 -26 0.52 1.97
10 -1 -26 2.73 1.67
11 1 -26 1.17 2.51
11 1 -26 2.22 2.01
26 11 -1 3.8 2.32
11 -1 -26 0.67 1.94
12 -1 -26 2.07 2.39
0 2 -26 3.73 1.66
1 2 -26 -0.47 1.57
1 -2 -26 1.55 1.81
-1 2 -26 2.33 1.6
2 2 -26 0.07 1.47
26 -2 -2 3.7 2.58
2 -2 -26 4.82 1.89
3 2 -26 5.49 1.58
26 -3 -2 -0.26 1.76
3 -2 -26 1.79 1.83
4 2 -26 1.92 1.77
26 4 -2 3.94 2.39
4 2 -26 3.94 1.56
4 -2 -26 2.18 1.84
26 -4 -2 -0.01 1.75
26 5 -2 -0.26 2.33
5 2 -26 3.28 1.86
5 2 -26 -0.93 1.5
5 -2 -26 -0.81 1.65
26 -5 -2 2.42 1.73
5 -2 -26 1.61 1.9
6 2 -26 1.76 1.6
26 6 -2 -0.13 2.32
6 2 -26 -3.17 1.83
6 -2 -26 -3.42 1.91
6 -2 -26 1.17 1.64
26 -6 -2 -2.37 1.61
7 2 -26 2.58 1.65
7 2 -26 1.13 1.88
26 7 -2 2.85 2.32
26 -7 -2 1.91 1.7
7 -2 -26 3.46 1.99
7 -2 -26 0.78 1.64
8 2 -26 -0.61 1.85
26 8 -2 3.53 2.42
8 2 -26 1.35 1.54
8 -2 -26 -1.54 1.61
8 -2 -26 -0.84 1.92
9 2 -26 3.48 2
9 2 -26 1.91 1.6
26 9 -2 3.18 2.4
9 -2 -26 -1.53 1.61
9 -2 -26 1.71 1.97
10 2 -26 0.31 1.57
10 2 -26 0.45 1.93
26 10 -2 -1.42 2.24
10 -2 -26 2.27 2.18
11 2 -26 1.56 2.34
26 11 -2 2.38 2.36
11 2 -26 0.67 2.08
11 -2 -26 4.97 2.12
12 -2 -26 -0.4 2.11
0 3 -26 0.69 1.44
-1 3 -26 6.21 1.55
2 3 -26 4.91 1.55
-2 3 -26 -0.62 1.43
26 3 -3 -0.66 2.39
3 3 -26 -0.47 1.46
3 -3 -26 1.05 1.85
26 -3 -3 -3.16 1.54
26 4 -3 0.2 2.38
4 3 -26 4.14 1.55
26 -4 -3 2.48 1.67
4 -3 -26 2.97 1.88
26 5 -3 -0.06 2.32
5 3 -26 2.07 1.54
5 -3 -26 1.91 1.88
26 -5 -3 0.75 1.74
6 3 -26 -3.29 1.79
26 6 -3 -3.56 2.29
6 3 -26 3.24 1.53
6 -3 -26 1.74 1.95
26 -6 -3 4.03 1.73
7 3 -26 1.28 1.88
7 3 -26 0.5 1.56
26 7 -3 -0.72 2.36
7 -3 -26 2.66 2
7 -3 -26 -1.3 1.62
26 -7 -3 2.34 1.74
8 3 -26 3.96 1.59
8 3 -26 2.5 1.95
26 8 -3 -0.39 2.32
8 -3 -26 0.21 1.72
8 -3 -26 -1.71 1.89
26 -8 -3 2.43 1.74
9 3 -26 5.04 1.95
9 3 -26 1.16 1.6
26 9 -3 7.1 2.39
9 -3 -26 1.05 1.99
26 10 -3 5.45 2.34
10 3 -26 2.98 1.93
10 3 -26 1.66 1.59
10 -3 -26 2.62 2.02
26 11 -3 0.25 2.24
11 -3 -26 1.76 2.01
12 -3 -26 -2.98 2.42
0 4 -26 1.82 1.42
1 4 -26 -0.62 1.34
-1 4 -26 1.94 1.42
26 -1 -4 -0.43 1.93
26 2 -4 1.65 3.85
2 4 -26 1.13 1.48
-2 4 -26 -0.7 1.42
26 -2 -4 1.15 1.72
3 4 -26 2.91 1.55
26 3 -4 5.04 2.43
26 -3 -4 1.41 1.69
-3 4 -26 1.62 1.54
4 4 -26 2.86 1.58
26 4 -4 2.88 2.34
4 -4 -26 1.94 1.95
5 4 -26 1.46 1.43
26 5 -4 -0.14 2.27
5 -4 -26 1.58 1.95
6 4 -26 5.2 1.57
26 6 -4 4.69 2.4
26 -6 -4 2.01 1.67
6 -4 -26 3.87 2.02
26 7 -4 1.18 2.31
7 4 -26 1.7 1.57
7 -4 -26 4.82 2.01
26 -7 -4 3.74 1.84
26 8 -4 1.25 2.37
8 4 -26 5.9 1.92
8 4 -26 1.99 1.52
8 -4 -26 -0.55 2.04
26 -8 -4 1.74 1.79
9 4 -26 0.16 1.5
9 4 -26 3.37 1.92
26 9 -4 -1.74 2.3
26 -9 -4 -2.31 1.61
9 -4 -26 1.37 2.08
10 4 -26 1.32 1.62
26 10 -4 1.14 2.32
10 -4 -26 -0.6 1.94
26 11 -4 1.58 2.37
11 -4 -26 2.88 2.03
0 5 -26 0.17 1.35
1 5 -26 0.44 1.36
26 -1 -5 3.14 1.81
-1 5 -26 -2.56 1.37
26 2 -5 -0.5 2.34
2 5 -26 -3.25 1.31
26 -2 -5 3.75 1.82
-2 5 -26 0.87 1.41
3 5 -26 -1.12 1.36
26 3 -5 4.73 2.46
-3 5 -26 0.55 1.49
26 -3 -5 -1.44 1.68
4 5 -26 3.99 1.57
26 4 -5 8.44 2.47
26 -4 -5 0.7 1.72
-4 5 -26 -0.53 1.54
26 5 -5 0.25 2.38
5 5 -26 2.22 1.51
5 -5 -26 -0.65 1.92
26 -5 -5 0.06 1.68
26 6 -5 4.16 2.4
6 -5 -26 5.38 2.01
26 7 -5 1.94 2.38
7 5 -26 0.1 1.43
26 -7 -5 -0.57 1.59
7 -5 -26 2.64 2.12
26 8 -5 1.19 2.32
8 5 -26 2.45 1.65
8 -5 -26 3.96 2.03
26 -8 -5 3.32 1.81
9 5 -26 -0.68 1.59
26 9 -5 -0.25 2.34
9 -5 -26 -2.02 1.95
26 -9 -5 -1.69 1.71
10 5 -26 -3.74 1.57
26 10 -5 0.98 2.33
26 -10 -5 -1.94 2.1
10 -5 -26 1.11 2.02
26 11 -5 0.83 2.65
11 -5 -26 -2.83 1.98
26 0 -6 0.28 2
0 6 -26 1.16 1.39
26 1 -6 0.26 3.39
1 6 -26 1.13 1.36
-1 6 -26 -0.01 1.36
26 -1 -6 -0.58 1.8
26 2 -6 2.03 2.43
2 6 -26 2.26 1.43
-2 6 -26 1.45 1.43
26 -2 -6 -0.57 1.7
26 3 -6 -0.54 2.39
26 -3 -6 2.29 1.69
-3 6 -26 1.61 1.49
26 4 -6 7.09 2.44
4 6 -26 5.54 1.54
-4 6 -26 5.03 1.59
26 -4 -6 4.3 1.74
5 6 -26 2.61 1.92
26 5 -6 2.82 2.4
26 -5 -6 -2.13 1.7
-5 6 -26 -0.97 1.85
6 6 -26 0.03 1.42
26 6 -6 4.53 2.38
26 -6 -6 2.95 1.79
6 -6 -26 2.83 1.99
7 6 -26 1.62 1.56
26 7 -6 0.46 2.3
26 -7 -6 0.41 1.64
7 -6 -26 4.94 2.04
26 8 -6 -1.07 2.31
8 6 -26 2.5 1.52
8 -6 -26 0.79 2.04
26 -8 -6 -1.78 1.58
26 9 -6 -1.09 2.24
9 6 -26 -0.58 1.48
9 -6 -26 -0.96 2.16
26 -9 -6 3.21 1.83
26 10 -6 -1.23 2.22
10 -6 -26 3.78 2.14
11 -6 -26 1.59 2.48
26 0 -7 3.94 1.87
0 7 -26 1.45 1.42
26 1 -7 2.41 2.49
-1 7 -26 1.53 1.38
26 -1 -7 1.2 1.81
2 7 -26 0.33 1.36
26 2 -7 0.37 2.44
26 -2 -7 0.87 1.7
-2 7 -26 0.73 1.42
3 7 -26 1.68 1.42
26 3 -7 6.09 2.57
-3 7 -26 2.72 1.53
26 -3 -7 2.83 1.82
26 4 -7 1.82 2.38
4 7 -26 0.31 1.38
26 -4 -7 1.51 1.75
-4 7 -26 1 1.47
26 5 -7 0.55 2.41
5 7 -26 4.79 1.49
-5 7 -26 1.86 1.56
26 -5 -7 0.1 1.71
6 7 -26 2.14 1.57
26 6 -7 5.18 2.37
26 -6 -7 3.01 1.78
6 -7 -26 4.84 2.08
26 7 -7 6.21 2.38
7 7 -26 -2.96 1.41
7 -7 -26 -0.08 1.98
26 -7 -7 -2.24 1.63
8 7 -26 2.22 1.64
26 8 -7 3.52 2.3
26 -8 -7 -2.78 1.56
8 -7 -26 -1.2 2.05
26 9 -7 -0.03 2.29
9 7 -26 3.59 1.77
9 -7 -26 0.21 2.05
26 -9 -7 -4.58 2.24
26 10 -7 -2.92 3.57
10 -7 -26 3.18 2.12
0 8 -26 1.16 1.45
26 0 -8 -0.38 1.79
1 8 -26 1.05 1.4
26 1 -8 5.06 2.5
-1 8 -26 3.33 1.48
26 -1 -8 1.38 1.8
26 2 -8 -2.86 2.36
2 8 -26 3.34 1.5
-2 8 -26 0.35 1.43
26 -2 -8 -1.79 1.68
3 8 -26 1.83 1.38
26 3 -8 -0.49 2.37
26 -3 -8 -2.35 1.66
-3 8 -26 2.19 1.43
4 8 -26 2.94 1.45
26 4 -8 1.83 2.38
26 -4 -8 3.45 1.82
-4 8 -26 1.83 1.5
26 5 -8 -1.39 2.31
5 8 -26 1.21 1.4
-5 8 -26 -0.58 1.86
26 -5 -8 1.18 1.74
26 6 -8 4.47 2.38
6 8 -26 -0.39 1.49
26 -6 -8 -0.06 1.73
7 8 -26 -2.25 1.59
26 7 -8 2.08 2.34
7 -8 -26 -0.3 1.98
26 -7 -8 0.33 1.78
26 8 -8 5.78 2.38
8 -8 -26 3.11 2.02
26 9 -8 0.96 2.61
9 -8 -26 2.44 2.17
26 0 -9 3.19 1.92
26 0 -9 5.38 2.65
26 1 -9 4.92 2.52
1 9 -26 0.12 1.41
26 -1 -9 0.11 1.81
-1 9 -26 2.69 1.42
26 2 -9 1.91 2.48
2 9 -26 -0.6 1.43
-2 9 -26 1.22 1.44
26 -2 -9 1.66 1.75
3 9 -26 3.41 1.44
26 3 -9 1.72 2.42
-3 9 -26 1.25 1.43
26 -3 -9 0.75 1.75
26 4 -9 0.21 2.39
4 9 -26 -0.07 1.32
26 -4 -9 1.42 1.73
-4 9 -26 2.88 1.41
26 5 -9 -5.01 2.31
5 9 -26 3.24 1.5
26 -5 -9 0.55 1.85
26 6 -9 2.36 2.38
6 9 -26 0.81 1.45
26 -6 -9 -1.71 1.72
26 7 -9 0.29 2.26
7 9 -26 -3.05 1.51
7 -9 -26 3.48 2.08
26 8 -9 8.91 2.74
8 -9 -26 6.1 2.17
0 10 -26 2.33 1.4
26 0 -10 5.09 2.75
26 1 -10 10.78 2.57
1 10 -26 4.28 1.47
-1 10 -26 3.87 1.46
26 -1 -10 5.01 2.4
2 10 -26 -0.15 1.34
26 2 -10 6.75 2.43
26 -2 -10 -0.56 2.02
-2 10 -26 2.05 1.45
3 10 -26 -0.04 1.3
26 3 -10 2.9 2.45
26 -3 -10 1.09 1.92
-3 10 -26 0.57 1.53
26 4 -10 -1.11 2.32
4 10 -26 -2.44 1.41
26 -4 -10 0.21 2.15
26 5 -10 -4.47 2.3
5 10 -26 1.46 1.4
26 6 -10 2.03 2.5
6 10 -26 1.17 2.58
7 -10 -26 2.85 2.13
0 11 -26 -0.48 1.46
1 11 -26 0.94 1.48
-1 11 -26 -2.87 1.7
2 11 -26 2.5 1.48
26 3 -11 3.36 3.83
3 11 -26 2.38 1.55
4 0 -27 5.83 2.19
4 0 -27 1.28 1.87
5 0 -27 11.67 2.06
5 0 -27 9.01 1.92
6 0 -27 15.43 2.18
7 0 -27 3.39 1.93
8 0 -27 5.95 2.12
2 -1 -27 -0.26 2.7
3 1 -27 0.87 1.74
3 -1 -27 3.78 1.89
4 1 -27 4.11 1.74
4 -1 -27 4.21 1.97
5 1 -27 2.83 2.31
5 1 -27 4.18 1.73
5 -1 -27 -0.52 1.81
6 1 -27 -0.17 1.76
6 1 -27 1.23 1.86
6 -1 -27 -2.77 1.84
7 1 -27 2.38 2.01
7 -1 -27 6.56 2.03
8 -1 -27 1.62 1.93
1 2 -27 2.25 2.26
1 -2 -27 -1.39 1.97
2 2 -27 2.35 1.68
2 -2 -27 1.12 1.91
3 2 -27 1.54 1.69
3 -2 -27 -0.38 1.9
4 2 -27 0.44 1.64
4 -2 -27 0.49 1.92
5 2 -27 4.84 1.75
5 -2 -27 -1.39 1.9
6 2 -27 -1.76 1.62
27 6 -2 0.93 3.62
6 -2 -27 1.72 1.91
7 2 -27 4.58 2.2
27 7 -2 -0.63 3.6
7 -2 -27 -0.92 1.91
8 -2 -27 5.8 2.02
9 -2 -27 3.81 2.83
0 3 -27 6.33 1.85
0 -3 -27 13.85 2.1
1 3 -27 -1.94 1.64
1 -3 -27 4.34 1.93
2 3 -27 -2.21 1.59
2 -3 -27 1.06 1.94
3 3 -27 -0.04 1.67
3 -3 -27 6.44 1.97
4 3 -27 -4.01 1.58
27 -4 -3 1.02 1.98
4 -3 -27 -2.2 1.86
5 3 -27 3.54 1.64
27 -5 -3 -0.64 2.03
5 -3 -27 -1.06 1.92
6 3 -27 4.97 1.71
27 6 -3 6.45 2.58
6 -3 -27 0.87 1.94
27 -6 -3 1.19 2.57
7 3 -27 3.67 1.92
27 7 -3 1.19 3.13
7 -3 -27 2.88 2.02
8 -3 -27 1.79 1.99
9 -3 -27 6.41 2.89
0 4 -27 4.09 1.76
1 4 -27 6.88 1.82
-1 4 -27 5.02 1.83
1 -4 -27 6.06 1.9
2 4 -27 2.2 1.67
2 -4 -27 4.63 1.96
3 4 -27 2.85 1.55
3 -4 -27 -0.67 1.94
27 -3 -4 6.75 2.52
4 4 -27 3.13 1.66
4 -4 -27 1.98 1.97
27 -4 -4 3.33 2.31
27 5 -4 4.74 2.42
5 4 -27 -3.83 1.48
5 -4 -27 0.55 1.95
27 -5 -4 -1.76 2.08
6 4 -27 0.58 1.64
27 6 -4 2.84 2.54
6 -4 -27 -2.18 1.94
27 7 -4 0.66 2.84
7 4 -27 4.3 2.29
7 -4 -27 3.31 2.02
8 -4 -27 -1.41 1.87
0 5 -27 9.21 1.74
1 5 -27 4.86 1.68
-1 5 -27 1.2 1.63
2 5 -27 4.57 1.66
3 5 -27 0.41 1.55
27 -3 -5 -3.38 2.68
3 -5 -27 1.91 2.08
4 5 -27 0.44 1.53
27 4 -5 1.29 2.6
4 -5 -27 1.82 1.95
27 5 -5 6.98 2.64
5 5 -27 10.3 1.76
5 -5 -27 12.44 2.2
6 5 -27 4.75 1.81
27 6 -5 2.62 3.11
6 -5 -27 5.17 2.06
7 -5 -27 -1.61 1.98
8 -5 -27 -0.95 2.1
0 6 -27 18.06 2.33
1 6 -27 -1.75 1.47
-1 6 -27 -0.28 1.61
2 6 -27 -1.56 1.51
3 6 -27 1.83 1.56
27 4 -6 3.34 2.87
4 -6 -27 5.25 2.04
27 5 -6 4.73 3.9
5 6 -27 2.53 1.55
5 -6 -27 5.59 2.05
6 -6 -27 8.58 2.13
7 -6 -27 2.73 2.06
0 7 -27 -2.49 1.63
1 7 -27 0.55 1.44
2 7 -27 1.99 1.52
3 7 -27 1.56 1.6
4 7 -27 3.64 2.04
5 -7 -27 0.26 2.05
6 -7 -27 1.27 2.1
7 -7 -27 0.62 2.81
5 -8 -27 4.74 2.11
6 -8 -27 6.24 3.07
