#------------------------------------------------------------------------------
#$Date: 2019-10-29 23:39:13 +0200 (Tue, 29 Oct 2019) $
#$Revision: 220465 $
#$URL: file:///home/coder/svn-repositories/cod/cif/4/00/30/4003046.cif $
#------------------------------------------------------------------------------
#
# This file is available in the Crystallography Open Database (COD),
# http://www.crystallography.net/
#
# All data on this site have been placed in the public domain by the
# contributors.
#
data_4003046
loop_
_publ_author_name
'Ayoub, Ghada'
'Karadeniz, Bahar'
'Howarth, Ashlee J.'
'Farha, Omar K.'
'\/Dilovi\'c, Ivica'
'Germann, Luzia S.'
'Dinnebier, Robert E.'
'U\<zarevi\'c, Krunoslav'
'Fri\<s\<ci\'c, Tomislav'
_publ_section_title
;
 Rational Synthesis of Mixed-Metal Microporous Metal--Organic Frameworks
 with Controlled Composition Using Mechanochemistry
;
_journal_issue                   15
_journal_name_full               'Chemistry of Materials'
_journal_page_first              5494
_journal_paper_doi               10.1021/acs.chemmater.9b01068
_journal_volume                  31
_journal_year                    2019
_chemical_formula_moiety         'C8 H12 Ni O10, 2(H2 O)'
_chemical_formula_sum            'C8 H16 Ni O12'
_chemical_formula_weight         362.92
_space_group_crystal_system      triclinic
_space_group_IT_number           2
_space_group_name_Hall           '-P 1'
_space_group_name_H-M_alt        'P -1'
_symmetry_space_group_name_Hall  '-P 1'
_symmetry_space_group_name_H-M   'P -1'
_atom_sites_solution_hydrogens   mixed
_audit_creation_method           SHELXL-2014/7
_cell_angle_alpha                89.144(5)
_cell_angle_beta                 87.701(6)
_cell_angle_gamma                67.707(6)
_cell_formula_units_Z            2
_cell_length_a                   6.9497(5)
_cell_length_b                   8.6455(5)
_cell_length_c                   12.4065(9)
_cell_measurement_reflns_used    764
_cell_measurement_temperature    293(2)
_cell_measurement_theta_max      75.1770
_cell_measurement_theta_min      7.7330
_cell_volume                     689.16(9)
_computing_cell_refinement       'CrysAlisPro 1.171.38.46 (Rigaku OD, 2015)'
_computing_data_collection       'CrysAlisPro 1.171.38.46 (Rigaku OD, 2015)'
_computing_data_reduction        'CrysAlisPro 1.171.38.46 (Rigaku OD, 2015)'
_computing_structure_refinement  'SHELXL-2014/7 (Sheldrick, 2014)'
_computing_structure_solution    'ShelXT (Sheldrick, 2015)'
_diffrn_ambient_temperature      293(2)
_diffrn_detector_area_resol_mean 10.4323
_diffrn_measured_fraction_theta_full 0.996
_diffrn_measured_fraction_theta_max 0.996
_diffrn_measurement_device       'four-circle diffractometer'
_diffrn_measurement_device_type  'Xcalibur, Ruby, Nova'
_diffrn_measurement_method       '\w scans'
_diffrn_radiation_type           CuK\a
_diffrn_radiation_wavelength     1.54184
_diffrn_reflns_av_R_equivalents  0.0426
_diffrn_reflns_av_unetI/netI     0.0544
_diffrn_reflns_Laue_measured_fraction_full 0.996
_diffrn_reflns_Laue_measured_fraction_max 0.996
_diffrn_reflns_limit_h_max       8
_diffrn_reflns_limit_h_min       -7
_diffrn_reflns_limit_k_max       10
_diffrn_reflns_limit_k_min       -7
_diffrn_reflns_limit_l_max       14
_diffrn_reflns_limit_l_min       -14
_diffrn_reflns_number            5148
_diffrn_reflns_point_group_measured_fraction_full 0.996
_diffrn_reflns_point_group_measured_fraction_max 0.996
_diffrn_reflns_theta_full        66.994
_diffrn_reflns_theta_max         66.994
_diffrn_reflns_theta_min         3.565
_diffrn_source                   'micro-focus sealed X-ray tube'
_diffrn_source_type              'Nova (Cu) X-ray Source'
_exptl_absorpt_coefficient_mu    2.652
_exptl_absorpt_correction_T_max  1.00000
_exptl_absorpt_correction_T_min  0.12860
_exptl_absorpt_correction_type   multi-scan
_exptl_absorpt_process_details
;
CrysAlisPro 1.171.38.46 (Rigaku Oxford Diffraction, 2015)
Empirical absorption correction using spherical harmonics,
 implemented in SCALE3 ABSPACK scaling algorithm.
;
_exptl_crystal_colour            green
_exptl_crystal_density_diffrn    1.749
_exptl_crystal_description       prism
_exptl_crystal_F_000             376
_exptl_crystal_size_max          0.25
_exptl_crystal_size_mid          0.20
_exptl_crystal_size_min          0.20
_refine_diff_density_max         0.856
_refine_diff_density_min         -0.567
_refine_diff_density_rms         0.113
_refine_ls_extinction_method     none
_refine_ls_goodness_of_fit_ref   1.062
_refine_ls_hydrogen_treatment    mixed
_refine_ls_matrix_type           full
_refine_ls_number_parameters     240
_refine_ls_number_reflns         2454
_refine_ls_number_restraints     18
_refine_ls_restrained_S_all      1.057
_refine_ls_R_factor_all          0.0548
_refine_ls_R_factor_gt           0.0494
_refine_ls_shift/su_max          0.000
_refine_ls_shift/su_mean         0.000
_refine_ls_structure_factor_coef Fsqd
_refine_ls_weighting_details
'w=1/[\s^2^(Fo^2^)+(0.0852P)^2^] where P=(Fo^2^+2Fc^2^)/3'
_refine_ls_weighting_scheme      calc
_refine_ls_wR_factor_gt          0.1289
_refine_ls_wR_factor_ref         0.1355
_reflns_Friedel_coverage         0.000
_reflns_number_gt                2139
_reflns_number_total             2454
_reflns_threshold_expression     'I > 2\s(I)'
_cod_data_source_file            cm9b01068_si_002.cif
_cod_data_source_block           nidhta
_cod_database_code               4003046
_shelx_shelxl_version_number     2014/7
_shelx_space_group_comment
;
The symmetry employed for this shelxl refinement is uniquely defined
by the following loop, which should always be used as a source of
symmetry information in preference to the above space-group names.
They are only intended as comments.
;
_shelx_res_file
;

    shelx.res created by SHELXL-2014/7

TITL nidhta_1_a.res in P-1
CELL  1.54184   6.9497   8.6455  12.4065   89.144   87.701   67.707
ZERR     2.00   0.0005   0.0005   0.0009    0.005    0.006    0.006
LATT   1
SFAC  C    H    NI   O
UNIT  16 32 2 24
MERG   2
OMIT    -1.00 134.00
DFIX 0.84 0.0001 O1w H1wa
DFIX 0.84 0.0001 O1w H1wb
DFIX 1.33 0.0001 h1wa H1wb
DFIX 0.84 0.0001 O2w H2wa
DFIX 0.84 0.0001 O2w H2wb
DFIX 1.33 0.0001 h2wa H2wb
DFIX 0.84 0.0001 O3w H3wa
DFIX 0.84 0.0001 O3w H3wb
DFIX 1.33 0.0001 h3wa H3wb
DFIX 0.84 0.0001 O4w H4wa
DFIX 0.84 0.0001 O4w H4wb
DFIX 1.33 0.0001 h4wa H4wb
DFIX 0.84 0.0001 O5w H5wa
DFIX 0.84 0.0001 O5w H5wb
DFIX 1.33 0.0001 h5wa H5wb
DFIX 0.84 0.0001 O6w H6wa
DFIX 0.84 0.0001 O6w H6wb
DFIX 1.33 0.0001 h6wa H6wb
FMAP   2
PLAN   20
ACTA
BOND   $H
LIST   4
L.S.  40
WGHT    0.085200
FVAR       6.16363
C11   1    0.488032    0.917126    0.405765    11.00000    0.03301    0.03037 =
         0.02210   -0.00070    0.00035   -0.01686
C12   1    0.395966    1.092254    0.412970    11.00000    0.03158    0.03005 =
         0.02365    0.00381   -0.00264   -0.01401
C13   1    0.592087    0.826977    0.493895    11.00000    0.03400    0.02620 =
         0.02760    0.00243   -0.00324   -0.01301
AFIX  43
H13   2    0.654263    0.711040    0.490006    11.00000   -1.20000
AFIX   0
C14   1    0.471733    0.826724    0.307669    11.00000    0.03454    0.03387 =
         0.02391   -0.00021   -0.00139   -0.01733
C21   1    0.902211    0.083659    0.407568    11.00000    0.02717    0.03025 =
         0.02110    0.00377   -0.00366   -0.00820
C22   1    0.909220    0.174411    0.498565    11.00000    0.02916    0.02444 =
         0.02617    0.00269   -0.00224   -0.00735
C23   1    1.005541    0.091075    0.589226    11.00000    0.02996    0.02936 =
         0.02127   -0.00020   -0.00308   -0.00912
AFIX  43
H23   2    1.009291    0.152304    0.649552    11.00000   -1.20000
AFIX   0
C24   1    0.796734    0.168078    0.307921    11.00000    0.03079    0.02874 =
         0.02562    0.00428   -0.00405   -0.00836
NI1   3    0.528562    0.497859    0.207669    11.00000    0.03479    0.02446 =
         0.01992    0.00309   -0.00602   -0.00840
O1W   4    0.261764    0.506113    0.290517    11.00000    0.04234    0.02936 =
         0.02851    0.00215    0.00110   -0.01134
O2W   4    0.521928    0.306635    0.107670    11.00000    0.04045    0.03066 =
         0.02274    0.00320   -0.00827   -0.01055
O3W   4    0.784491    0.499625    0.117721    11.00000    0.04168    0.04312 =
         0.04077   -0.00087    0.00151   -0.01783
O4W   4    0.340184    0.681549    0.106057    11.00000    0.04230    0.02996 =
         0.02309    0.00437   -0.00725   -0.01209
AFIX   6
O5W   4    0.902299    0.773926    0.125739    11.00000    0.04523    0.04243 =
         0.04989   -0.00326   -0.00660   -0.01446
O6W   4    0.832264    0.780327   -0.089187    11.00000    0.07869    0.04948 =
         0.04462    0.00733   -0.01717   -0.02450
AFIX   0
O11   4    0.546394    0.670338    0.310000    11.00000    0.04819    0.02763 =
         0.02777   -0.00235   -0.00867   -0.01186
O12   4    0.383297    0.912275    0.226887    11.00000    0.06321    0.03258 =
         0.02385    0.00396   -0.01279   -0.01791
O13   4    0.289801    1.185723    0.328987    11.00000    0.05655    0.03141 =
         0.02718    0.00539   -0.01399   -0.01732
AFIX 147
H13O  2    0.291975    1.123783    0.279143    11.00000   -1.50000
AFIX   0
O21   4    0.710188    0.326508    0.312459    11.00000    0.04806    0.02740 =
         0.02663    0.00627   -0.01434   -0.00745
O22   4    0.795133    0.085042    0.226840    11.00000    0.06140    0.03055 =
         0.02632    0.00134   -0.01720   -0.00281
O23   4    0.822477    0.344871    0.502919    11.00000    0.05728    0.02650 =
         0.02714    0.00330   -0.01363   -0.00558
AFIX 147
H23O  2    0.762998    0.381271    0.446806    11.00000   -1.50000
AFIX   0
H2WB  2    0.412683    0.286813    0.106553    11.00000    0.04805
H4WB  2    0.376443    0.679001    0.040489    11.00000    0.07221
H4WA  2    0.350936    0.768071    0.130182    11.00000    0.07893
H5WA  2    1.031083    0.748306    0.116391    11.00000    0.08318
H5WB  2    0.860828    0.863521    0.161049    11.00000    0.06347
H2WA  2    0.603039    0.229175    0.144966    11.00000    0.06631
H1WA  2    0.251108    0.550319    0.351445    11.00000    0.04634
H3WA  2    0.813221    0.574005    0.148046    11.00000    0.05891
H1WB  2    0.260959    0.410742    0.303584    11.00000    0.05973
H3WB  2    0.894924    0.414126    0.118659    11.00000    0.07422
H6WA  2    0.862118    0.778528   -0.024118    11.00000    0.07554
H6WB  2    0.802622    0.880002   -0.108509    11.00000    0.15691
HKLF    4

REM  nidhta_1_a.res in P-1
REM R1 =  0.0494 for    2139 Fo > 4sig(Fo)  and  0.0548 for all    2454 data
REM    240 parameters refined using     18 restraints

END

WGHT      0.0855      0.0000

REM Highest difference peak  0.856,  deepest hole -0.567,  1-sigma level  0.113
Q1    1   0.3987  0.4988  0.2627  11.00000  0.05    0.86
Q2    1   0.6559  0.5013  0.1531  11.00000  0.05    0.81
Q3    1   0.4088  0.4548  0.1891  11.00000  0.05    0.51
Q4    1   0.4677  0.5943  0.3162  11.00000  0.05    0.44
Q5    1   0.4375  0.6351  0.3837  11.00000  0.05    0.43
Q6    1   0.2929  0.4891  0.2186  11.00000  0.05    0.38
Q7    1   0.5841  0.3920  0.1028  11.00000  0.05    0.36
Q8    1   1.0007  0.2118  0.6829  11.00000  0.05    0.34
Q9    1   0.7312  0.5997  0.2268  11.00000  0.05    0.34
Q10   1   0.4749  0.9966  0.4069  11.00000  0.05    0.31
Q11   1   0.8120  0.6309  0.2381  11.00000  0.05    0.29
Q12   1   0.7726  0.5379  0.1965  11.00000  0.05    0.29
Q13   1   0.3215  0.8804  0.2196  11.00000  0.05    0.29
Q14   1   0.4330  0.6308  0.2096  11.00000  0.05    0.28
Q15   1   0.3892  0.6460 -0.0332  11.00000  0.05    0.28
Q16   1   0.6761  0.6386  0.5012  11.00000  0.05    0.27
Q17   1   0.3783  0.3782  0.1292  11.00000  0.05    0.27
Q18   1   0.5405  1.1195  0.3859  11.00000  0.05    0.27
Q19   1   0.1089  0.5229  0.3386  11.00000  0.05    0.25
Q20   1   0.8259  0.4198 -0.0052  11.00000  0.05    0.25
;
_shelx_res_checksum              27067
_shelx_hkl_file
;
   0   0   1 27342.2 1061.49  25
   0   0   2 126982. 4704.27  25
   0   0   3 51375.7 2095.21  25
   0   0   4 1959.81 224.531   1
   0   0   5 76098.9 3124.96   1
   0   0   6 692.849 172.915   1
   0   0   7 19073.3 1191.45   1
   0   0   7 21283.8 1386.27  24
   0   0   8 988.980 275.026  24
   0   0   9 43588.4 2586.77  24
   0   0  10 171332. 6436.09  17
   0   0  10 152223. 7110.69  24
   0   0 -10 159874. 6471.94   2
   0   0 -10 159556. 6475.66   3
   0   0 -11 61764.1 2924.22   2
   0   0  11 65023.5 2899.50  17
   0   0 -11 61191.4 2906.41   3
   0   0  12 1632.24 305.195  17
   0   0 -12 1911.50 327.796   3
   0   0 -12 1983.04 361.761   2
   0   0  13 1322.62 269.080  17
   0   0 -13 1488.97 294.231   2
   0   0  14 1189.47 226.647  17
   0   0 -14 1414.87 258.217   2
   0   0  15 384.345 100.310  17
   0   0 -15 398.025 111.674   2
   0   1 -15 424.356 113.206   2
   0  -1  15 349.738 107.421  17
   0  -1  14 1093.81 214.993  17
   0   1 -14 855.675 210.643   2
   0   1 -13 5227.80 570.308   2
   0  -1  13 5310.23 530.190  17
   0   1 -12 31674.7 1806.97   2
   0  -1  12 33889.7 1748.81  17
   0   1 -12 31468.5 1757.94   3
   0  -1  11 13794.1 970.759  17
   0   1 -11 13017.1 1006.64   3
   0   1 -11 12525.5 999.152   2
   0   1 -10 11736.3 917.995   3
   0  -1  10 12849.2 890.738  17
   0  -1  10 10990.7 1152.36  24
   0   1 -10 10536.1 891.141   2
   0  -1   9 25271.9 1746.48  24
   0   1  -9 19522.5 2038.68  23
   0  -1   8 457.504 201.881  24
   0  -1   8 1232.15 309.260   1
   0  -1   7 12042.5 970.161   1
   0  -1   6 11882.4 871.972   1
   0   1  -5 24054.0 1228.96  19
   0  -1   4 4513.79 328.052  25
   0  -1   3 30631.3 1250.67  25
   0  -1   2 35531.2 1398.28  25
   0   1  -2 41090.2 1735.04  23
   0   1  -1 155663. 5932.16  23
   0   1   0 21244.3 1111.39  19
   0   1   0 26733.4 1049.86  24
   0   1   1 152401. 5718.11  19
   0   1   1 156106. 5727.62  24
   0   1   2 86379.9 3215.46   1
   0   1   2 87842.0 3401.41  24
   0   1   3 20377.8 1116.16  24
   0   1   3 21165.1 915.862   1
   0   1   4 29421.7 1493.72  24
   0   1   4 28610.1 1266.42   1
   0   1   5 20543.2 1244.47  24
   0   1   5 18943.8 983.421   1
   0   1   6 32317.1 1827.96  24
   0   1   7 4658.64 624.374  24
   0   1   8 14463.4 1237.76  24
   0   1   9 1311.93 407.029  24
   0  -1 -10 13134.4 946.275   3
   0   1  10 13737.7 939.162  17
   0   1  10 13512.0 1352.08  24
   0   1  11 2394.57 372.335  17
   0  -1 -11 2054.06 343.610   3
   0  -1 -12 24059.4 1379.10   3
   0   1  12 23272.9 1378.31  17
   0  -1 -12 24974.5 1451.58   2
   0  -1 -13 619.360 196.828   2
   0   1  13 795.090 196.375  17
   0  -1 -14 3020.93 366.628   2
   0   1  14 2813.69 327.069  17
   0  -1 -15 311.628 97.9621   2
   0   1  15 211.950 76.2636  17
   0  -1 -15 257.192 62.6834   7
   0   2 -15 4614.26 375.509   2
   0  -2  15 5452.47 392.495  17
   0  -2  14 6788.96 543.148  17
   0   2 -14 7282.29 598.954   2
   0  -2  13 23.9276 58.9070  17
   0   2 -13-16.7202 90.3862   2
   0  -2  12 13432.0 906.087  17
   0   2 -12 11942.0 760.527  14
   0   2 -12 12803.9 1005.57   2
   0   2 -11 864.842 240.639   3
   0   2 -11 594.849 155.066  14
   0   2 -11 887.727 257.339   2
   0  -2  11 540.643 185.767  17
   0   2 -10 2559.72 430.468   2
   0   2 -10 1779.49 298.329  14
   0   2 -10 1902.56 708.901  23
   0  -2  10 2347.50 359.322  17
   0   2 -10 3095.15 435.610   3
   0   2  -9 552.528 196.157   2
   0  -2   9 478.642 247.904   1
   0   2  -9 2.69739 56.1495  23
   0   2  -9 79.9085 95.5483   3
   0   2  -9 200.326 108.533  21
   0  -2   8 6497.87 775.710   1
   0   2  -8 9096.59 1269.73  23
   0  -2   7 2504.07 446.214   1
   0   2  -7 4043.91 773.369  23
   0   2  -6 29504.1 2118.14  23
   0   2  -5 297447. 11882.9  23
   0   2  -5 301539. 11419.8  19
   0   2  -4 76896.3 3616.34  23
   0  -2   4 76178.1 2914.62  25
   0   2  -4 77238.0 3390.30  19
   0   2  -3 20201.4 1289.83  19
   0   2  -3 24573.9 1508.19  23
   0  -2   3 23135.4 970.688  25
   0   2  -2 182924. 7332.36  19
   0  -2   2 190466. 6885.69  25
   0   2  -1 1195.20 236.462  19
   0   2  -1 790.979 167.458  24
   0   2   0-18.5509 68.3311  19
   0   2   0 104.197 67.8419  24
   0   2   0 62.6963 86.7598  18
   0   2   1 5680.49 488.484  18
   0   2   1 5873.93 518.736  19
   0   2   1 5262.01 449.703  24
   0   2   2 94844.4 3799.54  24
   0   2   2 91996.5 3804.02  19
   0   2   3 23291.6 1282.98  24
   0   2   4 15100.6 1022.84  24
   0   2   5 304902. 11667.6  24
   0   2   6 22394.6 1502.48  24
   0   2   7 10212.9 1010.03  24
   0   2   8 2480.20 523.660  24
   0   2   9 3271.32 616.891  24
   0  -2 -10 1700.17 296.999   3
   0   2  10 944.835 254.571   6
   0   2  10 1632.86 290.326  17
   0   2  10 2157.47 530.286  24
   0   2  11 125.686 93.8356  17
   0  -2 -11-36.0032 69.9993   3
   0   2  12 12649.7 887.210  17
   0  -2 -12 13732.5 902.983   3
   0   2  13 798.562 190.752  17
   0  -2 -13 1038.67 234.972   2
   0  -2 -14 6658.50 540.418   2
   0  -2 -15 4387.76 344.527   2
   0  -3  14 10049.0 625.767  17
   0   3 -14 9272.75 659.410   2
   0   3 -13 54.9767 98.2141   2
   0  -3  13 8.31642 62.3524  17
   0   3 -12 5492.43 475.714  14
   0   3 -12 6155.27 664.688   2
   0  -3  12 5554.87 567.189  17
   0   3 -11 2257.53 323.219  14
   0   3 -11 3209.10 484.050   2
   0  -3  11 2770.53 387.088  17
   0  -3  10 4584.48 507.669  17
   0   3 -10 4428.88 595.753   2
   0   3 -10 3769.39 446.218  14
   0   3  -9 594.859 174.735  14
   0  -3   9 433.944 235.513   1
   0   3  -9 428.601 162.719   3
   0   3  -9 878.676 258.638   2
   0   3  -8 10684.5 1567.64  23
   0  -3   8 9826.15 1057.70   1
   0   3  -8 12475.4 969.989   2
   0  -3   7 12604.0 1152.33   1
   0   3  -7 13358.0 1611.12  23
   0   3  -6 3889.07 566.957  19
   0   3  -6 4111.77 796.566  23
   0   3  -5 27487.8 1744.09  19
   0   3  -5 27465.1 2068.02  23
   0   3  -4 31563.8 1902.73  19
   0  -3   3 10802.1 563.555  25
   0   3  -3 8950.64 890.744  19
   0   3  -2 92488.8 4160.81  19
   0  -3   2 93628.6 3559.30  25
   0   3  -1 385.896 174.610  19
   0   3  -1 318.958 123.375  24
   0   3   0 144017. 5731.57  18
   0   3   0 157686. 5971.50  19
   0   3   1-55.2135 100.481  18
   0   3   1-70.6456 87.3958  19
   0   3   1 10.1866 86.0141  24
   0   3   2 50242.8 2477.30  24
   0   3   2 51415.6 2492.93  19
   0   3   3 18549.1 1241.48  24
   0   3   4 1712.29 351.963  24
   0   3   5 16410.8 1249.01  24
   0   3   6 558.939 234.591  24
   0   3   7 13681.4 1270.26  24
   0   3   8 1723.70 506.470  24
   0   3   9 4281.71 578.966   6
   0   3   9 6007.13 905.944  24
   0   3  10 7039.69 750.796   6
   0   3  11 799.714 227.496  22
   0  -3 -13 1900.32 295.798   2
   0  -3 -14 5615.33 453.572   2
   0   4 -14 1017.23 141.726  12
   0   4 -14 1220.49 175.712   2
   0   4 -13 2378.31 330.369   2
   0  -4  13 2727.94 301.379  17
   0   4 -12 16611.2 983.785  14
   0   4 -12 16324.9 1146.85   2
   0   4 -11 6241.71 573.616  14
   0  -4  11 7889.58 647.552  17
   0   4 -11 6714.92 723.234   2
   0   4 -10 1391.40 269.328  14
   0   4 -10 1508.14 364.088   2
   0  -4  10 1858.90 293.372  17
   0   4  -9 14976.9 1183.15   2
   0  -4   9 17225.8 1000.14  17
   0   4  -8 162.899 87.1783  14
   0  -4   8 434.276 237.059   1
   0   4  -7 8104.96 765.421   2
   0  -4   7 7692.16 913.782   1
   0   4  -7 7500.51 619.667  14
   0   4  -6 2049.87 480.488  19
   0   4  -5 3432.41 614.444  19
   0   4  -4 7688.72 915.013  19
   0   4  -3 24677.1 1738.92  19
   0  -4   2 27243.3 1269.54  25
   0   4  -2 25770.7 1774.72  19
   0   4  -2 27422.8 1847.26  18
   0   4  -1 73456.3 3430.37  19
   0   4  -1 74797.9 3529.82  18
   0   4   0 6728.90 795.242  18
   0   4   0 6329.52 694.115  24
   0   4   1 110046. 5047.15  24
   0   4   1 123763. 5174.05  19
   0   4   2 43559.1 2389.94  19
   0   4   2 40513.0 2378.71  24
   0   4   3 18239.6 1433.14  24
   0   4   4 252.507 148.108  24
   0   4   5 2179.75 480.854  24
   0   4   6 112.603 139.716  24
   0   4   7 1032.15 295.603   6
   0   4   7 1228.63 393.499  24
   0   4   8 3752.22 394.966  15
   0   4   8 4033.54 736.564  24
   0   4   8 3313.43 521.784   6
   0   4   9 2752.29 484.432   6
   0   4  10 1616.31 324.133  22
   0   4  11 2065.32 362.159  22
   0   4  12 13371.0 900.543  22
   0  -4 -13 152.272 91.4647   2
   0  -4 -14 1457.88 180.312   2
   0   5 -13 498.552 104.490  12
   0   5 -13 556.709 131.852   2
   0   5 -12 6654.69 544.739  12
   0   5 -12 7656.82 630.942   2
   0   5 -11 4258.50 527.748   2
   0   5 -11 3864.09 465.488  12
   0   5 -11 4851.65 463.570  14
   0   5 -10 26230.6 1430.77  14
   0   5 -10 26490.6 1663.92   2
   0   5  -9 11457.6 842.724  14
   0   5  -9 13397.7 1094.09   2
   0   5  -8 83.1532 127.057   2
   0   5  -8 111.853 84.8160  14
   0   5  -7 1083.95 290.508   2
   0   5  -7 868.811 195.198  14
   0  -5   7 850.437 320.349   1
   0   5  -7 807.137 176.093  13
   0   5  -6 26391.2 1400.83  14
   0   5  -6 25649.5 1365.10  13
   0   5  -6 30980.1 2254.91  19
   0   5  -6 28295.2 1630.07   2
   0  -5   6 26859.0 1966.25   1
   0  -5   5 20159.0 1656.67   1
   0   5  -5 23028.1 1902.12  19
   0   5  -5 22980.3 1403.45   2
   0   5  -4 1655.64 455.224  19
   0   5  -4 1460.05 443.404  18
   0   5  -3 17763.3 1614.19  18
   0   5  -3 18584.8 1631.24  19
   0   5  -2 64944.5 3649.09  18
   0   5  -2 66453.1 3612.79  19
   0   5  -1 2084.99 429.376  24
   0   5  -1 2811.55 563.411  19
   0   5  -1 1804.69 496.377  18
   0   5   0 139592. 5999.61  24
   0   5   0 131353. 6327.23  18
   0   5   0 144411. 6472.38  19
   0   5   1 914.676 304.447  24
   0   5   1 921.170 314.344  19
   0   5   2 40176.5 2544.32  24
   0   5   3 13844.5 1392.23  24
   0   5   4 548.839 287.227  24
   0   5   5 45808.4 2966.35  24
   0   5   6 13233.1 1104.34   6
   0   5   6 13104.8 1040.22  22
   0   5   6 12850.2 933.645  11
   0   5   7 2710.94 700.407  24
   0   5   7 1860.73 310.259  11
   0   5   7 1829.11 377.135  22
   0   5   7 2300.59 437.364   6
   0   5   8 2474.00 470.997   6
   0   5   8 2072.72 384.229  22
   0   5   9 5960.68 666.746  22
   0   5  10 10452.1 870.123  22
   0   5  11 1633.75 305.717  22
   0   5  12 3873.40 405.386  22
   0  -5 -13 14.3770 35.3082   2
   0   6 -12 2708.18 232.292   8
   0   6 -12 3351.15 279.193  12
   0   6 -11 1073.70 199.616  12
   0   6 -11 870.095 206.744   2
   0   6 -10 14931.3 996.207  12
   0   6 -10 14595.3 1057.02   2
   0   6  -9 958.101 263.001   2
   0   6  -9 963.367 259.041  12
   0   6  -9 1054.54 216.360  14
   0   6  -8 5368.16 650.863   2
   0   6  -8 5329.12 619.423  12
   0   6  -8 5888.18 485.132  13
   0   6  -8 5605.48 529.049  14
   0   6  -7 6677.21 691.287  12
   0   6  -7 5950.16 521.143  13
   0   6  -7 6280.27 562.568  14
   0   6  -7 6244.05 707.474   2
   0   6  -6 38561.3 1988.79  12
   0   6  -6 36399.4 2039.68   2
   0   6  -6 34380.0 1718.99  13
   0   6  -6 35343.5 1752.46  14
   0   6  -5 35168.6 1910.52   2
   0   6  -5 36758.9 1842.01  12
   0   6  -5 30561.0 1555.19  14
   0   6  -5 33823.1 2582.97  18
   0  -6   5 29616.5 2188.45   1
   0   6  -5 27374.9 1529.37  13
   0   6  -5 34415.3 2592.57  19
   0   6  -4 17915.5 1783.27  19
   0   6  -4 19202.7 1199.51  12
   0  -6   4 14296.5 1409.42   1
   0   6  -4 18465.4 1779.86  18
   0   6  -4 19166.1 1277.94   2
   0   6  -4 16160.3 973.668  14
   0   6  -4 15980.4 995.105  13
   0   6  -3 823.466 375.298  18
   0  -6   3 476.305 228.711   1
   0   6  -3 859.247 188.178  13
   0   6  -3 955.886 270.132   2
   0   6  -3 1125.17 453.643  19
   0   6  -3 583.283 187.225  12
   0   6  -2 20719.5 1935.50  18
   0   6  -2 20935.7 1120.58  13
   0   6  -2 17289.5 1185.80  12
   0   6  -2 17812.6 1259.21   2
   0  -6   2 18404.5 1477.83   1
   0   6  -1 82.1342 107.819   2
   0   6  -1-111.032 117.394   9
   0   6  -1 26.8636 49.7900  13
   0   6  -1-9.05164 86.1835  10
   0   6  -1 245.944 224.232  19
   0   6   0 66264.4 3009.09   9
   0   6   0 70483.2 2860.70  13
   0   6   1 94.7656 59.9938  13
   0   6   1 97.4329 105.848  10
   0   6   2 5327.48 598.084  22
   0   6   2 6375.69 657.564  10
   0   6   2 6791.42 965.321  24
   0   6   2 7095.71 529.004  13
   0   6   3 1486.10 457.389  24
   0   6   3 574.491 199.720  22
   0   6   3 1038.52 253.284  10
   0   6   3 825.837 230.931  11
   0   6   4 3103.65 436.556  11
   0   6   4 3533.24 470.096  10
   0   6   4 2547.94 424.643  22
   0   6   5 31274.6 1673.18  10
   0   6   5 28859.7 1769.39  22
   0   6   5 28230.0 1668.82  11
   0   6   6 22391.1 1423.82  11
   0   6   6 23182.7 1560.83  22
   0   6   7 7702.66 799.271  22
   0   6   7 8897.64 753.079  11
   0   6   8 2691.56 366.654  11
   0   6   8 2553.65 434.695  22
   0   6   9 1917.86 344.230  22
   0   6  10 15725.7 1053.63  22
   0   6  11 116.685 91.3799  22
   0   6  12 2952.40 279.120  22
   0   7 -11 2843.12 272.025   2
   0   7 -11 2327.85 184.998   8
   0   7 -10 3769.69 404.322   2
   0   7  -9 1982.83 333.042   2
   0   7  -9 2040.91 309.052  12
   0   7  -8 107.747 66.4708  13
   0   7  -8 254.274 150.238   2
   0   7  -8 178.012 125.072  12
   0   7  -7 6844.09 674.201  12
   0   7  -7 6684.55 713.507   2
   0   7  -7 6644.08 516.342  13
   0   7  -6 2624.91 323.531  13
   0   7  -6 2822.05 459.669   2
   0   7  -6 3690.37 494.532  12
   0   7  -5 17687.2 1200.84   2
   0   7  -5 17691.7 1164.48  12
   0   7  -5 13789.2 899.419  13
   0   7  -5 13650.3 1024.97  10
   0   7  -4 1294.51 236.980  13
   0   7  -4 1458.81 310.420  10
   0   7  -4 1103.47 289.216   2
   0   7  -3 3791.72 491.082   9
   0   7  -3 4192.88 548.565  10
   0   7  -3 4406.02 565.942   2
   0   7  -3 4529.36 460.698  13
   0   7  -2 8471.69 774.019   9
   0   7  -2 8857.01 823.012  10
   0   7  -2 9582.18 704.237  13
   0   7  -1 523.695 145.495  13
   0   7  -1 511.016 178.510   9
   0   7  -1 370.211 184.736  10
   0   7  -1 659.241 195.762  11
   0   7   0 63493.3 2834.10   9
   0   7   0 56254.9 2810.07  10
   0   7   0 61447.2 2600.72  13
   0   7   0 52703.5 2696.95  11
   0   7   1 374.226 177.448  10
   0   7   1 596.767 160.696  13
   0   7   1 164.022 135.540  11
   0   7   1 285.161 164.909   9
   0   7   2 9588.68 865.845  10
   0   7   2 9026.89 835.519  11
   0   7   2 12209.5 752.236  13
   0   7   2 10143.2 846.002  22
   0   7   3 6864.31 698.600  10
   0   7   3 6640.13 705.953  22
   0   7   3 6986.18 715.141  11
   0   7   4 1028.77 270.165  11
   0   7   4 1036.56 287.428  22
   0   7   4 1181.08 269.705  10
   0   7   5 3399.64 517.764  22
   0   7   5 3711.70 490.646  11
   0   7   5 4667.92 507.638  10
   0   7   6 807.972 218.800  11
   0   7   6 808.304 255.692  22
   0   7   6 718.766 190.154  10
   0   7   7 2108.38 329.792  11
   0   7   7 2024.99 381.605  22
   0   7   8 894.964 189.725  11
   0   7   8 759.688 225.367  22
   0   7   9 1220.58 261.213  22
   0   7  10 10508.9 709.834  22
   0   7  11 3577.73 297.171  22
   0   8  -8 243.776 96.2696   9
   0   8  -8 86.6943 40.6344   8
   0   8  -7 1782.94 203.897  13
   0   8  -7 1369.23 162.720   8
   0   8  -7 2061.06 293.571   9
   0   8  -6 1783.27 229.084  13
   0   8  -6 2963.84 372.073   9
   0   8  -5 9324.61 726.022  10
   0   8  -5 10615.1 673.275  13
   0   8  -4 3269.09 349.139  13
   0   8  -4 2581.41 374.109  10
   0   8  -4 3018.32 398.233   9
   0   8  -3 5499.42 473.976  13
   0   8  -3 5257.01 552.681   9
   0   8  -3 4191.65 518.748  10
   0   8  -2 3109.07 450.002  10
   0   8  -2 4173.50 417.059  13
   0   8  -2 3923.70 483.705   9
   0   8  -1 3677.23 485.459  10
   0   8  -1 5077.43 444.095  13
   0   8  -1 3952.37 494.350   9
   0   8  -1 3507.71 431.983  11
   0   8   0 497.330 189.124  10
   0   8   0 342.986 117.333  13
   0   8   0 295.538 148.748   9
   0   8   0 291.952 161.432  11
   0   8   1 1393.61 307.243  11
   0   8   1 1921.17 254.723  13
   0   8   1 1714.51 333.621  10
   0   8   2 3784.22 482.852  11
   0   8   2 3634.49 471.977  10
   0   8   3 5755.45 580.070  10
   0   8   3 5427.33 590.002  11
   0   8   3 5847.47 567.810  22
   0   8   4 620.673 187.117  10
   0   8   4 454.743 189.864  11
   0   8   4 683.924 206.979  22
   0   8   5 14269.7 1010.80  22
   0   8   5 14281.9 967.748  11
   0   8   5 15432.4 931.520  10
   0   8   6 200.080 108.857  11
   0   8   6-12.5347 82.2084  22
   0   8   7 535.232 150.668  11
   0   8   7 454.871 143.942  22
   0   8   8 567.619 110.631  11
   0   8   8 565.140 145.643  22
   0   8   9 39.1462 44.1038  22
   0   9  -6 62.6957 45.9869   9
   0   9  -5 644.735 141.257   9
   0   9  -4 7036.08 444.197  13
   0   9  -4 5457.43 448.076  10
   0   9  -4 6477.16 514.681   9
   0   9  -3 999.825 194.206  10
   0   9  -3 1239.95 212.726   9
   0   9  -3 1277.78 171.490  13
   0   9  -2 5739.53 399.634  13
   0   9  -2 4025.34 429.788  10
   0   9  -1 48.3855 60.8920  11
   0   9  -1 0.51475 71.3994  10
   0   9   0 2066.21 303.796  10
   0   9   0 2177.57 283.088  11
   0   9   1 141.587 88.4338  11
   0   9   1 41.8006 81.1083  10
   0   9   2 2345.06 303.349  10
   0   9   2 2207.90 302.076  11
   0   9   3 1582.09 253.515  11
   0   9   3 1824.75 256.572  10
   0   9   4 1315.16 211.026  11
   0   9   5 1801.79 229.678  11
   0   9   6 1608.51 187.203  11
  -1   9   4 130.674 64.6762  11
  -1   9   3 2687.64 272.733  11
  -1   9   2 388.157 113.400  11
  -1   9   2 410.671 104.419  10
  -1   9   1 2285.51 256.311  11
  -1   9   1 2029.25 243.418  10
  -1   9   0 2996.67 280.904  11
  -1   9   0 3437.52 332.245  10
  -1   9  -1 199.776 87.0502  10
  -1   9  -2 6000.89 466.591  10
  -1   9  -3 3620.44 329.091  10
  -1   9  -4 2862.20 255.000  10
  -1   8   7 726.599 127.461  11
  -1   8   7 543.116 115.378  22
  -1   8   6 90.2681 70.8149  11
  -1   8   6 92.1503 73.2638  22
  -1   8   5 2750.21 327.338  22
  -1   8   5 3509.92 380.771  11
  -1   8   4 81.3983 86.1252  11
  -1   8   4 155.275 82.9870  10
  -1   8   3 82.5019 83.9883  10
  -1   8   3-40.1280 82.5796  11
  -1   8   2 11.3875 77.5197  10
  -1   8   2 64.4546 86.3617  11
  -1   8   1 529.893 174.572  10
  -1   8   1 587.162 181.598  11
  -1   8   0 78.1188 87.5224  11
  -1   8   0 216.873 120.218  10
  -1   8  -1 697.964 203.626  10
  -1   8  -1 640.315 189.667   9
  -1   8  -1 418.299 150.528  11
  -1   8  -2 4805.86 505.714   9
  -1   8  -2 4606.37 521.916  10
  -1   8  -3 3745.37 467.647  10
  -1   8  -3 3920.62 454.796   9
  -1   8  -4 1705.25 274.174   9
  -1   8  -4 1568.91 283.493  10
  -1   8  -5 13793.4 876.921   9
  -1   8  -5 12965.9 844.641  10
  -1   8  -6 261.543 112.708   9
  -1   8  -6 126.627 73.0340  10
  -1   8  -7 1337.75 210.606   9
  -1   8  -8 462.218 109.100   9
  -1   7  10 155.492 65.3623  22
  -1   7   9 3301.25 351.485  22
  -1   7   8 6559.86 480.541  11
  -1   7   8 5579.55 535.894  22
  -1   7   7 11650.7 788.741  11
  -1   7   7 10554.9 832.550  22
  -1   7   6 3112.82 435.028  22
  -1   7   6 2768.51 383.325  11
  -1   7   5 18572.0 1201.57  11
  -1   7   5 18989.2 1272.10  22
  -1   7   5 19352.4 1105.79  10
  -1   7   4 9.42288 101.629  11
  -1   7   4 214.323 128.137  10
  -1   7   4 241.711 173.835  22
  -1   7   3 1054.85 275.937  11
  -1   7   3 1439.85 292.315  10
  -1   7   2 2350.45 400.169  11
  -1   7   2 2755.91 417.659  10
  -1   7   1 111.552 91.3462  11
  -1   7   1 88.7758 117.739  10
  -1   7   1 63.2349 135.138   9
  -1   7   1 130.495 73.1270  13
  -1   7   0 616.546 217.034  10
  -1   7   0 579.323 145.033  13
  -1   7   0 447.935 169.698  11
  -1   7   0 819.320 227.073   9
  -1   7  -1-15.6558 74.3238  11
  -1   7  -1 46.2155 58.2724  13
  -1   7  -1-168.564 127.238   9
  -1   7  -1-157.833 148.342  10
  -1   7  -2 36997.8 1805.96  11
  -1   7  -2 29897.9 1788.65   9
  -1   7  -2 39877.1 1715.02  13
  -1   7  -2 29031.1 1851.02  10
  -1   7  -3 671.205 213.555   9
  -1   7  -3 593.384 211.579  10
  -1   7  -3 799.302 173.298  13
  -1   7  -4 17831.6 1274.32   9
  -1   7  -4 26858.4 1255.01  13
  -1   7  -4 24258.5 1106.03   8
  -1   7  -4 19889.0 1390.17  10
  -1   7  -5 35716.8 1579.60  13
  -1   7  -5 33745.9 1836.65  10
  -1   7  -5 32240.8 1471.89   8
  -1   7  -6 3372.88 333.194  13
  -1   7  -6 3128.50 306.320   8
  -1   7  -6 3723.59 446.160  10
  -1   7  -6 3324.60 453.616   2
  -1   7  -7 3523.42 315.271  13
  -1   7  -7 3709.26 389.756  10
  -1   7  -7 3049.30 423.938   2
  -1   7  -7 2848.99 281.447   8
  -1   7  -8 120.255 96.9165   2
  -1   7  -8 86.6287 47.3212   8
  -1   7  -9 473.698 91.6079   8
  -1   7  -9 421.772 135.837   2
  -1   7 -10 1121.64 160.554   9
  -1   7 -10 1154.16 121.942   8
  -1   6  11 89.3503 68.6138  22
  -1   6  10 5278.68 504.019  22
  -1   6   9 146.866 118.218  22
  -1   6   8 3899.84 504.384  22
  -1   6   8 4475.44 464.601  11
  -1   6   7 474.358 190.552  22
  -1   6   7 515.153 176.045  11
  -1   6   6 464.285 175.731  11
  -1   6   6 311.268 178.101  22
  -1   6   5 4055.43 470.501  10
  -1   6   5 3391.51 505.453  22
  -1   6   4 849.746 241.279  22
  -1   6   4 975.210 230.975  10
  -1   6   3 1262.92 286.168  10
  -1   6   3 1317.70 294.237  22
  -1   6   2 7893.90 744.868   9
  -1   6   2 8039.44 574.119  13
  -1   6   2 6032.91 663.099  10
  -1   6   2 8575.16 1240.46  24
  -1   6   1 1463.77 226.165  13
  -1   6   1 1422.46 303.681  10
  -1   6   1 2297.90 602.807  24
  -1   6   1 1460.65 313.846   9
  -1   6   0 14016.0 844.190  13
  -1   6   0 15190.8 1081.81   9
  -1   6  -1 175.691 119.056   9
  -1   6  -1 343.913 111.536  13
  -1   6  -2 9091.12 890.284   2
  -1   6  -2 12082.0 768.428  13
  -1   6  -3 5917.94 494.802  13
  -1   6  -3 3931.64 508.125  12
  -1   6  -3 4499.80 889.232  18
  -1   6  -3 3742.42 534.038   2
  -1   6  -4 1889.75 350.380  12
  -1   6  -4 2762.38 333.883  13
  -1   6  -4 1949.09 363.400   2
  -1   6  -5 5150.65 611.298   2
  -1   6  -5 5583.21 489.561  13
  -1   6  -5 4965.05 574.164  12
  -1   6  -6-79.0231 63.3646  13
  -1   6  -6 66.6180 91.1550  12
  -1   6  -6 136.920 128.519   2
  -1   6  -7 3003.09 458.133   2
  -1   6  -7 3456.79 476.198  12
  -1   6  -7 3552.02 355.673  13
  -1   6  -8 1960.78 355.650   2
  -1   6  -8 1781.87 329.842  12
  -1   6  -9 7225.99 667.983  12
  -1   6  -9 6642.17 649.323   2
  -1   6 -10 3524.62 316.854   8
  -1   6 -10 3489.26 410.756  12
  -1   6 -10 3342.63 406.638   2
  -1   6 -11 1785.79 244.846  12
  -1   6 -11 2190.58 207.558   8
  -1   6 -11 1776.86 250.484   2
  -1   5  12 3748.86 364.434  22
  -1   5  11 14.2000 73.1430  22
  -1   5  10 18549.8 1211.07  22
  -1   5   9 2078.45 409.256   6
  -1   5   9 1662.87 348.211  22
  -1   5   8 2982.19 513.658   6
  -1   5   8 4679.66 441.920  15
  -1   5   7 1522.66 287.933  11
  -1   5   7 1813.57 274.322  15
  -1   5   7 1336.77 344.169   6
  -1   5   6-156.778 137.101   6
  -1   5   5 3063.09 511.806   6
  -1   5   5 4431.83 868.089  24
  -1   5   4 1534.80 293.165  10
  -1   5   4 1768.78 504.081  24
  -1   5   4 1821.90 377.126   6
  -1   5   3 21715.5 2028.83  24
  -1   5   2 3849.57 767.957  24
  -1   5   1 30054.0 2306.94  24
  -1   5   0 85040.2 4458.80  24
  -1   5  -1-26.5676 90.4483  24
  -1   5  -2 6453.77 988.811  18
   1  -5   2 8966.55 880.520   1
   1  -5   3 20180.2 1503.41   1
  -1   5  -3 16964.1 1666.87  18
  -1   5  -4 806.931 218.924   2
  -1   5  -4 189.603 201.461  18
  -1   5  -4 402.506 161.778  12
   1  -5   4 881.230 299.107   1
  -1   5  -4 696.142 162.155  13
  -1   5  -4 617.136 149.105  14
   1  -5   5 403.780 235.501   1
  -1   5  -5 462.549 137.624  14
  -1   5  -5 209.731 145.455   2
  -1   5  -5 320.118 117.244  13
  -1   5  -5 288.211 138.370  12
  -1   5  -5-72.7185 156.680  18
   1  -5   6 261.244 180.954   1
  -1   5  -6-7.46790 83.7693  14
  -1   5  -6 104.009 110.196  12
  -1   5  -6 95.6612 64.3159  13
  -1   5  -6 108.712 117.253   2
  -1   5  -7 22147.4 1481.04   2
  -1   5  -7 21294.5 1424.93  12
  -1   5  -8 493.903 195.339  12
  -1   5  -8 738.038 233.405   2
  -1   5  -8 676.788 183.399  14
  -1   5  -9 10961.1 932.243  12
  -1   5  -9 11526.4 951.275   2
  -1   5 -10 6793.23 686.338   2
  -1   5 -10 7883.08 731.302  12
  -1   5 -11 595.312 183.692   2
  -1   5 -11 630.606 186.715  12
  -1   5 -12 1233.83 213.353   2
  -1   5 -12 1436.63 172.377   8
  -1   5 -12 1231.91 207.376  12
  -1   5 -13 295.112 72.4149  12
   1  -4 -13 1690.83 222.191   2
  -1   4  13 1253.93 187.252  22
  -1   4  12 786.803 189.220  22
  -1   4  11 189.607 134.801  22
  -1   4  10 15249.9 1198.00   6
  -1   4   9 16300.9 985.624  15
  -1   4   9 14083.6 1204.10   6
  -1   4   8 2942.28 361.741  15
  -1   4   8 2322.76 467.563   6
  -1   4   7 45203.2 2540.02   6
  -1   4   7 48864.3 2204.11  15
  -1   4   7 51905.6 3269.20  24
  -1   4   6 3559.27 525.214   6
  -1   4   6 3998.64 738.580  24
  -1   4   5 5850.97 907.075  24
  -1   4   4 333.341 211.158  24
  -1   4   3 23491.8 1896.58  24
  -1   4   2 3104.12 647.851  24
  -1   4   1 3654.59 646.100  24
  -1   4   0 93717.7 4603.90  24
   1  -4   0 100109. 4262.02   1
   1  -4   1 257.279 118.961   1
  -1   4  -1 123.764 151.212  18
  -1   4  -1-55.6465 109.405  24
  -1   4  -2 48621.5 2978.88  18
   1  -4   2 61101.4 2777.15   1
  -1   4  -3 27972.7 2019.39  18
   1  -4   3 33031.7 1876.66   1
   1  -4   4 63989.9 3061.06   1
  -1   4  -4 50591.4 3129.65  18
   1  -4   5 23869.8 1699.02   1
   1  -4   6 6485.87 849.962   1
  -1   4  -6 4640.49 558.971   2
  -1   4  -6 5942.79 515.429  14
  -1   4  -7 24773.3 1574.66   2
  -1   4  -7 26630.3 1420.72  14
  -1   4  -8 224.408 199.209   2
  -1   4  -8 303.367 124.637  14
  -1   4  -9 3797.48 444.717  14
  -1   4  -9 3906.24 551.362   2
  -1   4 -10 1659.18 283.998  14
  -1   4 -10 1604.15 340.318   2
  -1   4 -11 2207.52 381.576   2
  -1   4 -12 587.823 183.630   2
  -1   4 -13 185.110 93.9820  12
  -1   4 -13 145.431 103.370   2
  -1   4 -13 129.865 45.5700   8
   1  -3 -14 924.030 150.533   2
  -1   3  13 855.350 174.900  22
   1  -3 -13 1107.30 213.344   2
  -1   3  12 327.130 158.795  22
  -1   3  11 527.293 206.488   6
  -1   3  10 511.317 213.115   6
  -1   3   9-113.924 154.514   6
  -1   3   9-5.83675 59.7648  15
  -1   3   8 14578.4 1165.55   6
  -1   3   8 12789.3 1396.05  24
  -1   3   8 13650.8 882.205  15
  -1   3   7 12829.5 1310.46  24
  -1   3   6 9043.40 1034.08  24
  -1   3   5 53083.7 2940.77  24
  -1   3   4 1482.68 367.043  24
  -1   3   3 411.409 178.839  24
  -1   3   2 3276.74 556.929  24
   1  -3  -1 43634.5 1944.53   1
  -1   3   1 47628.6 2484.56  24
  -1   3   0 13392.6 1088.86  24
  -1   3   0 10349.9 950.229  18
   1  -3   1 4152.16 455.089   1
  -1   3  -1 2957.33 502.936  24
  -1   3  -1 4107.72 574.203  19
  -1   3  -1 3116.57 486.367  18
  -1   3  -2 71674.3 3628.06  18
   1  -3   2 84457.9 3438.26   1
  -1   3  -2 75866.8 3677.11  19
   1  -3   3 59875.9 2740.70   1
  -1   3  -3 55631.6 2884.60  19
  -1   3  -4 108875. 4674.61  19
   1  -3   4 98272.0 4454.54   1
   1  -3   5 67315.8 3252.07   1
   1  -3   6 3560.61 561.056   1
   1  -3   7 2764.64 520.494   1
   1  -3   8 6030.85 532.284  17
   1  -3   8 6337.77 860.976   1
  -1   3  -8 5595.98 638.920   2
  -1   3  -8 6194.23 545.333  14
  -1   3  -9 1260.97 241.170  14
   1  -3   9 1292.47 410.703   1
  -1   3  -9 1604.78 315.543   2
   1  -3   9 1307.10 246.044  17
   1  -3  10 6744.60 600.829  17
  -1   3 -10 5970.22 561.581  14
  -1   3 -10 5715.27 670.592   2
  -1   3 -11 549.460 166.232  14
   1  -3  11 496.453 164.251  17
  -1   3 -11 563.630 214.310   2
  -1   3 -12 12275.8 958.046   2
   1  -3  12 11978.5 801.366  17
   1  -3  13 891.250 178.744  17
  -1   3 -13 811.537 200.115   2
   1  -3  14 6730.73 449.867  17
  -1   3 -14 6497.40 489.417   2
   1  -2 -14 5989.09 478.137   2
   1  -2 -13 2054.48 308.586   2
   1  -2 -13 2066.43 252.513   3
   1  -2 -12 9164.38 682.693   3
  -1   2  11-67.2155 115.257   6
   1  -2 -11 118.576 107.191   3
  -1   2  10 2791.14 466.764   6
  -1   2   9 4709.72 617.767   6
  -1   2   9 4130.07 779.498  24
   1  -2  -9 4145.54 390.792  21
  -1   2   9 4373.45 453.244  15
  -1   2   8 33681.9 2248.98  24
  -1   2   7 69321.6 3588.44  24
  -1   2   6 471.462 207.656  24
  -1   2   5 173453. 7116.82  24
  -1   2   4 18312.4 1273.14  24
  -1   2   3 13708.6 1037.98  24
   1  -2  -2 4960.77 298.178   1
  -1   2   2 5636.26 596.210  24
   1  -2  -1 27790.2 1251.62   1
  -1   2   1 30063.1 1610.18  24
   1  -2   0 3051.39 317.864   1
  -1   2   0 2771.10 352.738  18
  -1   2   0 2977.07 399.901  24
  -1   2  -1 63.6478 75.0757  19
  -1   2  -1-42.6782 75.1236  18
   1  -2   1 12.9708 46.2414   1
  -1   2  -1 95.2422 93.9373  24
   1  -2   2 413940. 14814.6   1
  -1   2  -2 385682. 14957.1  19
   1  -2   3 137583. 5518.94   1
  -1   2  -3 142160. 5633.97  19
  -1   2  -4 136478. 5339.67  19
   1  -2   4 125203. 5268.99   1
  -1   2  -5 156429. 6908.52  23
   1  -2   5 160257. 6434.29   1
  -1   2  -6 33459.0 2419.73  23
   1  -2   6 38489.3 2109.31   1
  -1   2  -7 5211.83 884.582  23
   1  -2   7 5104.28 672.420   1
  -1   2  -8 12137.6 1511.78  23
   1  -2   8 10275.6 1112.66   1
   1  -2   9 3227.01 391.618  17
   1  -2   9 2196.24 517.261   1
  -1   2  -9 3345.61 468.782   2
  -1   2  -9 2590.13 336.243  14
  -1   2  -9 2415.38 725.584  23
  -1   2  -9 2842.58 332.148   7
  -1   2 -10 1.58627 39.1925  14
  -1   2 -10 231.629 155.276   2
   1  -2  10 24.0705 86.7656  17
  -1   2 -10 40.8698 62.2935   7
  -1   2 -11 3218.04 372.329   7
  -1   2 -11 3689.55 398.429  14
   1  -2  11 3312.42 423.561  17
  -1   2 -11 3232.90 533.235   2
  -1   2 -12 12972.7 806.619   7
   1  -2  12 14325.1 934.226  17
  -1   2 -12 15183.1 1127.89   2
   1  -2  13 51.7023 71.8992  17
  -1   2 -13 64.5351 88.9348   2
  -1   2 -14 10392.9 726.147   2
   1  -2  14 10000.2 650.373  17
   1  -1 -15 3144.44 286.480   2
   1  -1 -14 232.741 103.640   2
   1  -1 -13 1837.55 307.653   2
   1  -1 -13 1614.26 259.461   3
  -1   1  13 1231.96 228.545  17
   1  -1 -12 353.009 151.750   2
   1  -1 -12 350.091 137.915   3
  -1   1  12 258.814 124.010  17
   1  -1 -11 178.988 116.991   3
  -1   1  11 162.713 114.783  17
  -1   1  10 14125.1 1384.71  24
  -1   1  10 12200.5 1029.52   6
   1  -1 -10 15740.1 885.565  21
  -1   1  10 14587.2 948.875  17
  -1   1   9 16092.7 1016.87  15
  -1   1   9 14635.8 1382.72  24
  -1   1   8 21809.2 1608.57  24
  -1   1   7 25851.2 1694.58  24
  -1   1   6 675.778 221.043  24
  -1   1   5 1451.30 290.819  24
  -1   1   4 27062.3 1482.51  24
  -1   1   4 26399.0 1525.78  25
  -1   1   3 11828.1 849.336  25
  -1   1   3 12386.2 836.866  24
  -1   1   2 2388.76 319.886  24
  -1   1   2 2285.84 307.129  25
  -1   1   1 24135.6 1206.64  25
   1  -1  -1 24214.1 1064.94   1
  -1   1   1 25128.1 1253.63  24
  -1   1   0 30259.0 1465.29  24
  -1   1   0 28869.5 1338.84  25
   1  -1   0 29075.7 1299.71   1
  -1   1  -1 52315.5 2578.17  24
   1  -1   1 55346.3 2237.32   1
   1  -1   2 154319. 5882.20   1
   1  -1   3 86875.7 3495.87   1
  -1   1  -3 82964.7 3672.11  23
   1  -1   4 151.103 86.5028   1
  -1   1  -4 140.194 135.021  23
   1  -1   5 88704.3 3865.28   1
  -1   1  -5 93020.5 4140.66  23
   1  -1   6 132.382 108.294   1
  -1   1  -6-126.820 130.608  23
  -1   1  -7 3502.03 643.694  23
   1  -1   7 3843.30 569.580   1
   1  -1   8 4699.49 690.451   1
  -1   1  -8 4932.03 922.570  23
  -1   1  -9 3878.95 464.948   3
  -1   1  -9 4536.81 527.044   2
  -1   1  -9 3435.42 783.978  23
   1  -1   9 3148.03 616.630   1
   1  -1   9 4254.43 444.580  17
   1  -1  10 187.878 148.945  24
  -1   1 -10 51.5284 86.2615   2
  -1   1 -10 158.170 193.510  23
   1  -1  10 271.873 130.496  17
   1  -1  11 2723.17 392.218  17
  -1   1 -11 3138.68 473.318   2
   1  -1  12 15114.4 1062.07  17
  -1   1 -12 16826.5 1192.25   2
  -1   1 -13 1515.88 312.843   2
  -1   1 -13 1503.30 221.456   7
   1  -1  13 1743.63 298.350  17
  -1   1 -14 8529.44 518.593   7
  -1   1 -14 9356.11 699.126   2
   1  -1  14 9193.34 647.762  17
   1  -1  15 8989.98 537.238  17
  -1   1 -15 7048.54 477.286   2
   1   0 -15 66.3409 55.5412   2
  -1   0  15 79.1567 47.2522  17
  -1   0  14 117.928 82.5392  17
   1   0 -14 82.3103 90.3095   2
   1   0 -13 375.886 135.465   3
  -1   0  13 657.166 177.047  17
   1   0 -13 292.110 143.641   2
   1   0 -12 21731.8 1293.77   3
   1   0 -12 21219.9 1323.76   2
  -1   0  12 21717.2 1272.10  17
   1   0 -11 166.530 121.448   2
  -1   0  11 119.252 104.425  17
   1   0 -11 170.039 111.353   3
   1   0 -11 69.5292 66.4208  21
  -1   0  10 43284.2 2761.99  24
  -1   0  10 48998.7 2270.97  17
   1   0 -10 48281.8 2125.73  21
  -1   0   9 24482.9 1777.96  24
   1   0  -9 27101.3 1321.93  21
  -1   0   8 19278.3 1417.14  24
  -1   0   7 11484.5 965.437  24
  -1   0   6 240.125 139.139  25
  -1   0   6 78.4003 76.4859  24
  -1   0   5 3138.28 433.289  25
  -1   0   5 3536.07 422.445  24
  -1   0   4 1827.41 326.826  24
  -1   0   4 2102.32 337.313  25
  -1   0   3 8634.74 628.118  25
  -1   0   3 7871.47 575.574  24
  -1   0   2 115635. 4526.68  24
  -1   0   2 121761. 4564.81  25
  -1   0   1 13017.1 666.105  25
   1   0  -1 12644.9 687.676   1
  -1   0   1 12094.0 654.370  24
  -1   0   0 188968. 7666.62  25
  -1   0   0 213510. 7766.42  24
   1   0   0 209968. 7793.71   1
   1   0   1 600.231 133.307   1
  -1   0  -1 614.040 85.8410  25
   1   0   2 230191. 8451.04   1
  -1   0  -2 219381. 8178.84  25
   1   0   3 4506.25 435.411   1
   1   0   4 62179.7 2715.35   1
   1   0   5 26978.4 1469.15   1
   1   0   6 182.836 106.091   1
   1   0   7 28158.0 1720.95   1
   1   0   8 22377.2 1569.14   1
   1   0  10 8963.88 1121.77  24
  -1   0 -10 9254.55 788.467   3
  -1   0 -10 6677.01 1230.55  23
  -1   0 -10 9651.86 818.538   2
   1   0  10 9447.02 762.375  17
   1   0  11 7501.63 693.902  17
  -1   0 -11 7520.81 740.578   2
   1   0  12 3344.80 450.910  17
  -1   0 -12 3568.40 492.823   2
  -1   0 -13 1292.96 296.348   2
   1   0  13 1028.46 235.128  17
  -1   0 -14 246.457 87.7497   7
  -1   0 -14 186.433 99.2219   2
   1   0  14 130.228 96.1970  17
  -1   0 -15 1100.55 126.425   7
   1   0  15 1369.74 195.934  17
  -1   0 -15 1170.81 177.760   2
   1   1 -15 239.754 84.3840   2
  -1  -1  15 173.911 73.5205  17
   1   1 -14 3047.01 363.496   2
  -1  -1  14 2596.92 315.569  17
   1   1 -13-30.0406 51.6390   3
  -1  -1  13-9.72002 86.0255  17
   1   1 -13-149.677 118.252   2
  -1  -1  12 22079.1 1297.17  17
   1   1 -12 20926.8 1336.74   2
   1   1 -12 21780.4 1328.92   3
   1   1 -11 1336.83 281.026   3
   1   1 -11 1409.19 223.708  21
   1   1 -11 1112.34 263.421   2
  -1  -1  11 1281.18 267.228  17
   1   1 -10 45174.2 2250.29   3
   1   1 -10 45240.5 2013.76  21
   1   1 -10 44329.1 2234.39   2
   1   1  -9 2325.24 302.810  21
   1   1  -9 2572.37 380.330   2
  -1  -1   8 18817.6 1370.19  24
  -1  -1   7 8199.25 769.213  24
  -1  -1   7 8367.18 795.922  25
  -1  -1   6 2833.88 381.266  24
  -1  -1   6 2425.07 376.792  25
  -1  -1   5 17170.3 1050.56  25
  -1  -1   5 16226.7 981.031  24
  -1  -1   4 43491.8 1930.20  25
  -1  -1   4 40800.6 1847.66  24
  -1  -1   3 41365.8 1826.06  25
  -1  -1   3 42402.1 1755.79  24
  -1  -1   2 95985.0 3666.31  25
  -1  -1   2 94357.6 3544.15  24
  -1  -1   1 17644.5 781.009  25
  -1  -1   1 16481.9 676.756  24
   1   1   0 188625. 7135.83   1
  -1  -1   0 187924. 6881.59  25
   1   1   1 8070.50 548.541   1
   1   1   2 84364.4 3385.40   1
   1   1   3 20941.0 1074.36   1
   1   1   3 18337.4 751.998  19
   1   1   4 22965.0 1259.46   1
   1   1   5 12581.3 898.194   1
   1   1   6 1588.81 312.000   1
   1   1   7 48000.1 2459.15   1
   1   1   8 877.588 291.200  24
   1   1   9 30234.1 2156.49  24
   1   1  10 22155.0 1884.78  24
   1   1  10 21356.1 1281.13  17
  -1  -1 -10 20995.9 1288.58   3
   1   1  11 4675.80 539.329  17
  -1  -1 -11 4599.92 555.016   2
  -1  -1 -11 4018.22 496.699   3
   1   1  12 4838.49 540.783  17
  -1  -1 -12 5227.74 586.840   2
   1   1  13 689.509 200.939  17
  -1  -1 -13 608.361 181.778   2
   1   1  14 474.657 161.612  17
  -1  -1 -14 495.434 145.850   2
   1   1  15 129.605 73.9695  17
  -1  -1 -15 46.1343 34.5915   7
  -1  -1 -15 65.5245 56.3737   2
  -1  -2  15 2204.72 232.434  17
   1   2 -15 1777.69 215.781   2
  -1  -2  14 1105.06 206.432  17
   1   2 -14 911.972 199.606   2
  -1  -2  13 2292.27 346.413  17
   1   2 -13 2327.51 359.405   2
  -1  -2  12 61.7655 95.7813  17
   1   2 -12 138.467 66.6194  14
   1   2 -12 145.840 130.531   2
   1   2 -12 251.979 131.381   3
   1   2 -11 911.314 252.683   2
  -1  -2  11 961.550 225.110  17
   1   2 -11 1251.99 284.596   3
   1   2 -11 891.862 179.620  21
   1   2 -10 16503.7 1149.36   3
   1   2 -10 16544.0 1156.82   2
   1   2 -10 15591.2 907.097  21
   1   2  -9 2152.30 367.743   2
   1   2  -9 1316.06 530.442  23
   1   2  -9 2430.40 313.242  21
   1   2  -9 2399.76 382.214   3
   1   2  -8 11709.2 1493.51  23
  -1  -2   8 11854.6 1057.09   1
   1   2  -7 46055.6 3069.36  23
  -1  -2   6 9684.19 764.604  25
  -1  -2   6 11141.1 789.127  24
   1   2  -5 350.361 214.805  23
  -1  -2   5 631.986 162.145  25
   1   2  -4 297.242 161.958  23
  -1  -2   4 433.517 123.255  25
  -1  -2   3 425.052 107.618  25
   1   2  -3 189.291 132.408  23
  -1  -2   2 29638.6 1319.23  25
   1   2  -2 32210.7 1695.28  23
  -1  -2   1 50.6884 48.8058  25
   1   2   0 97930.1 3634.74  24
   1   2   1 9172.75 621.023  18
   1   2   1 8901.90 535.005  24
   1   2   2 23654.6 1352.96   1
   1   2   2 27193.7 1262.34  24
   1   2   3 190159. 7502.22   1
   1   2   3 195057. 7236.28  19
   1   2   4 1953.90 313.910  24
   1   2   4 2602.51 384.178   1
   1   2   5 28366.2 1606.68  24
   1   2   5 25068.6 1535.45   1
   1   2   6 731.865 247.753  24
   1   2   7 17277.2 1352.49  24
   1   2   8 1287.24 386.031  24
   1   2   9 1983.44 494.569  24
   1   2   9 1795.49 300.866  17
  -1  -2 -10 5256.98 527.672   3
   1   2  10 4864.55 527.806  17
   1   2  10 5140.63 861.700  24
   1   2  11 867.356 248.451  17
  -1  -2 -11 957.772 219.761   3
  -1  -2 -12 11727.7 883.278   2
   1   2  12 9760.84 805.465  17
  -1  -2 -13 9133.94 720.207   2
   1   2  13 8175.45 678.116  17
  -1  -2 -14 10133.0 691.078   2
   1   2  14 10369.7 691.615  17
  -1  -2 -15 4117.40 280.520   7
  -1  -2 -15 3408.41 281.095   2
   1   3 -14 3559.45 373.979   2
  -1  -3  14 4344.00 389.931  17
   1   3 -13 62.2122 72.0735   2
  -1  -3  13-47.6002 75.3149  17
   1   3 -13 55.9946 50.5339  14
  -1  -3  12 2576.67 369.588  17
   1   3 -12 2419.65 304.054  14
   1   3 -12 2522.77 401.388   2
   1   3 -11 38.0138 55.9218  14
  -1  -3  11 56.4492 96.9848  17
   1   3 -11-70.5931 78.2751   3
   1   3 -11-1.71381 91.8667   2
   1   3 -10 11288.6 912.986   3
   1   3 -10 11089.7 960.272   2
   1   3 -10 10771.8 704.887  21
   1   3  -9 21453.4 2395.36  23
   1   3  -9 20706.9 1077.27  21
   1   3  -9 21366.8 1299.44   3
  -1  -3   9 15822.0 1472.36   1
   1   3  -9 21082.4 1390.59   2
   1   3  -8 16954.9 2040.75  23
   1   3  -7 147053. 7416.87  23
   1   3  -6 967.093 364.984  19
   1   3  -6 1786.27 544.128  23
  -1  -3   5 79180.7 3270.19  25
   1   3  -5 72999.3 4093.57  23
   1   3  -4 5826.39 825.167  23
  -1  -3   4 6884.91 533.890  25
   1   3  -3 11189.6 1106.28  23
  -1  -3   3 10027.9 630.166  25
  -1  -3   2 3689.39 323.372  25
  -1  -3   1 179.415 75.1430  25
   1   3  -1 148.313 57.8734  24
   1   3   0 69034.1 3052.79  18
   1   3   0 68272.4 2757.06  24
   1   3   1 7647.54 545.009  24
   1   3   1 6398.86 626.474  18
   1   3   1 6622.67 648.268  19
   1   3   2 305786. 11872.5  19
   1   3   2 319032. 11696.5  24
   1   3   3 88065.6 3632.57  19
   1   3   3 83191.6 3644.53  24
   1   3   4 224136. 8382.55  19
   1   3   4 218839. 8666.83  24
   1   3   5 95532.6 4252.75  24
   1   3   6 1774.62 405.245  24
   1   3   7 7531.44 876.527  24
   1   3   8 660.959 286.445  24
   1   3   9 366.139 165.804  17
   1   3   9 382.687 223.533  24
   1   3  10-32.1664 93.0572  17
   1   3  11 14998.0 1009.73  17
   1   3  12 3929.72 451.272  17
  -1  -3 -13 687.537 172.632   2
   1   3  13 403.076 141.141  17
  -1  -3 -14 11866.4 710.281   2
  -1  -3 -15 2217.17 180.578   7
  -1  -4  14 982.562 154.128  17
   1   4 -14 713.139 142.228   2
   1   4 -13 464.125 109.634  14
  -1  -4  13 628.157 158.174  17
   1   4 -13 580.336 161.977   2
  -1  -4  12 2372.11 336.439  17
   1   4 -12 2445.72 305.026  14
   1   4 -12 2316.37 374.305   2
  -1  -4  11 1613.26 300.981  17
   1   4 -11 2024.74 385.445   2
   1   4 -11 1798.80 295.334  14
   1   4 -10 2866.87 403.974  14
   1   4 -10 3629.99 544.625   2
   1   4  -9-163.152 141.786   2
   1   4  -9-15.1473 49.5103   3
   1   4  -8 14623.2 1143.77   2
   1   4  -8 14621.4 968.689   3
   1   4  -6 314.737 228.325  19
   1   4  -5 46009.5 2841.69  19
  -1  -4   4 5039.25 479.218  25
   1   4  -4 4672.00 738.473  19
   1   4  -3 56.8782 123.318  19
  -1  -4   3 107.223 62.0930  25
  -1  -4   2 1791.02 240.250  25
   1   4  -2 1474.63 367.454  19
   1   4  -1 15237.7 1198.85  18
  -1  -4   1 12333.4 775.136  25
   1   4  -1 14365.7 1221.43  19
   1   4  -1 13351.1 808.008  24
   1   4   0 21092.2 1550.70  19
   1   4   0 23902.1 1544.06  18
   1   4   0 24090.3 1273.49  24
   1   4   1 1596.86 281.827  24
   1   4   1 1654.32 358.400  19
   1   4   1 1420.69 338.033  18
   1   4   2 47601.0 2545.04  19
   1   4   2 50341.7 2418.03  24
   1   4   3 52545.1 2645.67  19
   1   4   3 53496.5 2638.76  24
   1   4   4 41167.3 2105.80  19
   1   4   4 40313.3 2240.26  24
   1   4   5 76006.6 3675.97  24
   1   4   6 2850.20 530.823  24
   1   4   7 794.346 293.680  24
   1   4   8 4158.67 710.892  24
   1   4   8 2956.25 431.648  22
   1   4   9 2610.67 400.852  22
   1   4  10 1620.30 325.299  22
   1   4  11 201.058 128.239  22
   1   4  12 11104.7 746.420   5
  -1  -4 -13 1208.45 207.802   2
  -1  -4 -14 7164.56 451.142   2
  -1  -5  13-31.6740 44.5126  17
   1   5 -13-67.1236 65.5210   2
  -1  -5  12 7488.96 550.814  17
   1   5 -12 6897.67 511.716  14
   1   5 -12 5823.17 560.256   2
   1   5 -12 5195.88 470.972  12
   1   5 -11 1720.47 332.355   2
  -1  -5  11 1758.35 272.323  17
   1   5 -11 1494.54 262.273  14
  -1  -5  10 7486.29 632.144  17
   1   5 -10 7459.55 781.893   2
   1   5 -10 6597.54 623.280  14
   1   5  -9 14011.0 1136.40   2
   1   5  -9 11228.6 875.958  14
   1   5  -8 10368.7 954.142   2
   1   5  -8 9398.12 725.182  13
   1   5  -8 8469.63 726.732  14
   1   5  -7 14979.6 1137.91   2
   1   5  -7 12339.2 886.283  13
   1   5  -6 812.555 230.403   2
   1   5  -6 488.895 160.914  13
   1   5  -5 24774.5 2041.91  19
   1   5  -4 485.473 285.838  19
   1   5  -3 9409.77 1144.11  19
   1   5  -2 39163.6 2582.71  19
   1   5  -2 40223.2 2556.00  18
  -1  -5   2 39158.6 1868.16  25
   1   5  -1 18051.1 1572.12  19
   1   5  -1 18713.9 1550.20  18
  -1  -5   1 19368.8 1142.54  25
   1   5   0 46139.0 2684.79  19
   1   5   0 42151.3 2613.51  18
   1   5   1 8814.21 985.247  19
   1   5   1 10151.5 875.409  24
   1   5   2 47910.6 2736.32  19
   1   5   2 48114.6 2558.38  24
   1   5   3 16563.8 1340.19  24
   1   5   3 15810.8 1341.86  19
   1   5   4 4068.31 650.509  24
   1   5   5 29178.6 2058.23  24
   1   5   6 26247.6 1927.87  24
   1   5   6 20340.0 1358.38  22
   1   5   7 8305.27 801.570  22
   1   5   7 8745.38 754.707   5
   1   5   8 591.997 183.319   5
   1   5   8 579.917 202.370  22
   1   5   9 11766.8 947.916  22
   1   5   9 10904.1 820.185   5
   1   5  10 947.369 210.803   5
   1   5  10 1395.58 292.933  22
   1   5  11 707.312 186.773  22
   1   5  11 339.710 120.811   5
   1   5  12 5067.26 466.281  22
  -1  -5 -13 722.845 139.406   2
   1   6 -12 5846.15 474.467   2
   1   6 -11 54.4453 64.4286  12
   1   6 -11 8.46363 88.0866   2
   1   6 -11-16.1120 42.0483  14
   1   6 -10 13678.0 1031.61   2
   1   6 -10 12113.0 869.594  12
   1   6 -10 13858.5 885.269  14
   1   6  -9 11998.1 843.676  14
   1   6  -9 12075.2 914.304  12
   1   6  -9 11918.6 762.874  13
   1   6  -9 12764.0 1053.13   2
   1   6  -8 7609.63 622.481  13
   1   6  -8 7791.07 653.439  14
   1   6  -8 7969.66 735.287  12
   1   6  -8 7279.31 796.448   2
   1   6  -7 739.349 226.742   2
   1   6  -7 464.462 152.148  14
   1   6  -7 482.973 152.663  13
   1   6  -7 295.388 160.297  12
   1   6  -6 93.3874 86.2485  14
   1   6  -6-52.7877 94.0985  12
   1   6  -6-16.5561 57.7012  13
   1   6  -5 661.785 216.416   2
   1   6  -5 432.377 135.816  14
   1   6  -5 1040.48 425.432  19
   1   6  -5 511.712 185.965  12
   1   6  -5 702.074 176.830  13
   1   6  -5 420.820 301.874  18
   1   6  -4 1748.18 306.863  12
   1   6  -4 1010.57 488.756  18
   1   6  -4 1540.01 333.321   2
   1   6  -4 1566.27 517.640  19
   1   6  -4 1444.19 229.715  14
   1   6  -4 1548.05 265.586  13
   1   6  -3 1506.52 491.905  18
   1   6  -3 1749.45 511.858  19
   1   6  -3 1511.29 255.341  13
   1   6  -2 28825.8 2304.86  19
   1   6  -2 31144.1 2345.17  18
   1   6  -1 13820.5 1449.59  19
  -1  -6   1 13084.8 966.772  25
   1   6  -1 11377.8 1367.26  18
   1   6   0 77700.8 4333.41  19
  -1  -6   0 84771.0 3702.28  25
   1   6   1 10236.7 1195.13  19
   1   6   2 31008.0 2250.12  19
   1   6   3-67.7936 83.3040  11
   1   6   3 148.373 145.739  19
   1   6   4 1134.33 259.517  10
   1   6   4 786.437 207.554  11
   1   6   4 1044.50 262.313  22
   1   6   4 939.976 225.369   5
   1   6   5 215.368 129.587  11
   1   6   5 43.6783 115.089  10
   1   6   5 117.339 128.813  22
   1   6   5-8.02526 83.1212   5
   1   6   5 92.6290 189.163  24
   1   6   6-76.6432 105.861  10
   1   6   6 68.8588 66.1154  11
   1   6   6 182.031 151.601  22
   1   6   6 70.7263 65.3947   5
   1   6   7 6939.21 636.169  11
   1   6   7 7077.17 753.549  22
   1   6   7 6432.15 624.408   5
   1   6   8 6058.82 549.014  11
   1   6   8 5541.71 645.615  22
   1   6   8 4646.41 496.076   5
   1   6   9 11504.8 924.258  22
   1   6   9 9555.36 709.610   5
   1   6  10 4867.83 539.920  22
   1   6  10 4270.34 397.445   5
   1   6  11 267.692 123.929  22
   1   6  12 1505.17 209.707  22
   1   7 -11 124.606 78.4116   2
   1   7 -10 7412.09 541.353  12
   1   7 -10 11098.6 756.126   2
   1   7  -9 391.949 126.648  14
   1   7  -9 419.078 167.697   2
   1   7  -9 696.152 136.504  13
   1   7  -9 432.108 136.113  12
   1   7  -8 2818.93 323.611  13
   1   7  -8 2686.54 440.580   2
   1   7  -8 2762.50 335.814  14
   1   7  -8 2457.02 364.585  12
   1   7  -7 1471.48 332.208   2
   1   7  -7 1295.52 265.405  12
   1   7  -7 1441.10 245.069  13
   1   7  -7 1557.89 253.423  14
   1   7  -6 42.4879 100.628   2
   1   7  -6-34.5999 55.4980  14
   1   7  -6-21.4089 95.9597  12
   1   7  -6-140.525 101.100  13
   1   7  -5 1364.65 329.012   2
   1   7  -5 1081.98 199.809  14
   1   7  -5 864.042 205.283  13
   1   7  -5 1328.40 276.949  12
   1   7  -4 1384.51 333.228   2
   1   7  -4 1403.79 290.190  12
   1   7  -4 1256.63 235.690  13
   1   7  -4 1357.16 271.939  10
   1   7  -3 364.603 138.186  13
   1   7  -3 441.035 184.719   2
   1   7  -3 475.953 173.583  10
   1   7  -2 9112.79 798.350  10
   1   7  -2 10578.1 1368.62  19
   1   7  -2 8881.45 757.945   9
   1   7  -2 8286.08 814.421   2
   1   7  -2 9282.93 1325.90  18
   1   7  -2 8726.58 670.689  13
   1   7  -1 289.583 263.135  19
   1   7  -1 591.484 196.077   9
   1   7  -1 541.949 200.469  10
   1   7  -1 334.762 149.752  11
   1   7  -1 561.771 148.129  13
   1   7   0 14690.1 1600.55  19
   1   7   0 12616.1 969.616  10
   1   7   0 12740.6 821.449  13
   1   7   0 14186.9 1002.77   9
   1   7   0 11329.3 894.979  11
   1   7   1 247.711 136.063  11
  -1  -7  -1-60.3527 103.979  25
   1   7   1 234.172 123.829  22
   1   7   1 360.898 158.227  10
   1   7   1 221.312 108.902   9
   1   7   1 195.684 92.2559  13
   1   7   1-148.051 205.018  19
   1   7   2 10443.3 908.330  22
   1   7   2 11214.9 918.895  11
   1   7   2 11641.0 926.673  10
   1   7   2 13678.6 803.149  13
   1   7   3 2769.64 431.375  22
   1   7   3 2703.48 409.132  10
   1   7   3 2661.16 413.077  11
   1   7   4 3937.08 548.342  22
   1   7   4 4439.94 527.426  10
   1   7   4 3725.71 498.984  11
   1   7   4 3833.90 479.437   5
   1   7   5 5737.37 592.239   5
   1   7   5 7680.22 690.925  10
   1   7   5 6065.60 705.368  22
   1   7   5 6628.39 660.373  11
   1   7   6 1690.63 322.898  11
   1   7   6 1498.91 349.438  22
   1   7   6 1517.04 281.941   5
   1   7   7 1996.79 380.961  22
   1   7   7 1988.42 314.093   5
   1   7   7 2375.15 360.222  11
   1   7   8 4703.60 448.653   5
   1   7   8 6274.42 529.684  11
   1   7   8 5322.96 609.580  22
   1   7   9 682.881 215.418  22
   1   7  10 1401.64 251.719  22
   1   7  11 980.910 171.227  22
   1   8  -9 358.664 130.450   2
   1   8  -8 4238.89 482.161   2
   1   8  -8 4445.92 344.949  13
   1   8  -7 20641.6 1291.18   2
   1   8  -7 18564.5 999.713  13
   1   8  -7 19752.9 1094.32   9
   1   8  -6 2130.81 320.676   9
   1   8  -6 1544.65 328.779   2
   1   8  -6 1654.24 244.423  13
   1   8  -5 15666.7 988.095   9
   1   8  -5 16867.6 1152.65   2
   1   8  -4 9523.45 755.406  10
   1   8  -4 10366.5 720.346  13
   1   8  -4 10964.4 812.870   9
   1   8  -4 10836.4 941.763   2
   1   8  -3 2949.57 419.199  10
   1   8  -3 2972.81 356.974  13
   1   8  -3 3369.92 427.222   9
   1   8  -2 358.749 162.710  10
   1   8  -2 666.019 191.837   9
   1   8  -2 436.047 136.686  13
   1   8  -1 89.8986 92.2989  10
   1   8  -1 44.0776 57.9050  13
   1   8  -1-3.65512 65.6388  11
   1   8  -1 266.485 120.934   9
   1   8   0 2924.18 338.699  13
   1   8   0 2618.29 408.437  10
   1   8   0 3572.29 458.271   9
   1   8   0 2830.97 396.585  11
   1   8   1 1216.88 269.098  11
   1   8   1 1172.92 243.288  22
   1   8   1 997.560 262.383  10
   1   8   1 1114.41 201.568  13
   1   8   2 15412.2 1100.41  10
   1   8   2 14590.5 1046.59  22
   1   8   2 15223.1 1107.84  11
   1   8   3 12248.0 921.007  10
   1   8   3 11870.6 923.257  22
   1   8   3 11560.2 923.359  11
   1   8   4 14383.2 998.256  10
   1   8   4 12986.1 977.871  11
   1   8   4 13390.3 1019.61  22
   1   8   5 17414.9 1192.81  22
   1   8   5 17336.2 1120.92  11
   1   8   6 255.366 141.804  11
   1   8   6 173.443 137.170  22
   1   8   7 4016.34 474.619  22
   1   8   7 4291.56 421.778  11
   1   8   8 1756.39 285.234  22
   1   8   8 1625.60 217.850  11
   1   8   9 17.6378 75.9366  22
   1   8  10-19.3320 38.6376  22
   1   9  -7 4861.06 314.526  13
   1   9  -6 848.099 134.893  13
   1   9  -5 1708.39 214.637  13
   1   9  -4 141.896 77.4142  10
   1   9  -4 324.955 117.356   9
   1   9  -4 410.150 106.617  13
   1   9  -3-23.9135 66.7218  10
   1   9  -3-169.315 86.9638   9
   1   9  -3-13.8079 51.5506  13
   1   9  -2 239.936 67.0397  10
   1   9  -2 264.524 87.6632  13
   1   9  -1 640.232 163.082  11
   1   9  -1 709.860 197.706  10
   1   9  -1 693.140 136.801  13
   1   9   0 3209.40 302.007  13
   1   9   0 2995.34 389.660  10
   1   9   0 2824.27 354.635  11
   1   9   1 382.669 158.691  10
   1   9   1 292.181 132.552  11
   1   9   1 232.383 81.1682  13
   1   9   2 3832.04 436.952  11
   1   9   2 3925.77 444.898  10
   1   9   3 8015.87 603.379  22
   1   9   3 9411.13 691.764  10
   1   9   3 8638.90 681.989  11
   1   9   4 1426.39 249.459  11
   1   9   4 1259.28 224.212  22
   1   9   5 1228.66 215.896  11
   1   9   5 1228.27 219.471  22
   1   9   6 1058.94 179.729  11
   1   9   6 1371.16 210.569  22
   1   9   7 213.338 76.5834  11
   1   9   7 293.734 88.0508  22
   1   9   8 33.2322 35.2528  22
   1  10  -1 455.159 113.650  10
   1  10   1 613.936 121.441  11
   1  10   2 5042.09 378.871  11
   1  10   3 3493.54 298.758  11
   1  10   4 4261.73 314.629  11
  -2   8   5 5661.58 405.525  11
  -2   8   4 187.235 83.7500  11
  -2   8   3 1123.47 209.687  11
  -2   8   3 918.017 152.279  10
  -2   8   2 1307.49 233.422  11
  -2   8   2 1044.69 180.966  10
  -2   8   1-40.5590 66.6917  11
  -2   8   1-22.0615 62.8909  10
  -2   8   0 229.108 104.224  10
  -2   8   0 549.314 139.859  11
  -2   8  -1 576.199 130.297  11
  -2   8  -1 481.911 143.715  10
  -2   8  -2 3103.57 359.341  10
  -2   8  -3 29.8195 75.8500  10
  -2   8  -3 112.679 79.5964   9
  -2   8  -4 1629.08 242.843  10
  -2   8  -4 1243.38 198.159   9
  -2   8  -5 8810.99 533.234  10
  -2   8  -5 6006.10 476.440   9
  -2   8  -6 180.664 63.2017   9
  -2   7   8 1067.04 153.549  22
  -2   7   7 4250.05 381.862  22
  -2   7   7 5111.98 400.731  11
  -2   7   6 3999.43 404.869  11
  -2   7   6 3656.19 376.516  22
  -2   7   5 7229.97 620.696  11
  -2   7   4 47.2903 67.4045  10
  -2   7   4-142.332 105.808  11
  -2   7   3 1259.68 300.480  11
  -2   7   3 1386.83 246.234  10
  -2   7   2 1242.48 250.969  10
  -2   7   2 858.469 264.436  11
  -2   7   1 1695.10 321.855  11
  -2   7   1 1939.91 339.245  10
  -2   7   0 2245.09 375.636  10
  -2   7   0 2524.39 387.919   9
  -2   7   0 2403.61 373.687  11
  -2   7  -1 210.909 113.181  11
  -2   7  -1 281.649 156.215  10
  -2   7  -1 255.580 131.226   9
  -2   7  -2 9898.81 863.729  10
  -2   7  -2 10537.1 820.093   9
  -2   7  -3 5043.94 579.683  10
  -2   7  -3 3542.32 441.204   9
  -2   7  -4 10196.4 764.459   9
  -2   7  -4 9025.38 542.626   8
  -2   7  -5 2934.85 374.648   9
  -2   7  -5 2517.14 240.089   8
  -2   7  -6-100.284 95.3215  10
  -2   7  -6 91.2505 79.6769   9
  -2   7  -6-40.9848 34.0928   8
  -2   7  -7 721.259 113.245   8
  -2   7  -7 1038.52 178.365  10
  -2   7  -7 1051.67 202.238   9
  -2   7  -8 109.836 41.3545   8
  -2   7  -8 57.9193 56.8411   9
  -2   7  -9 222.080 67.2556   9
  -2   6  10 964.779 160.868  22
  -2   6   9 343.125 126.486  22
  -2   6   8 1920.29 301.252  22
  -2   6   8 2172.21 276.596  11
  -2   6   7 8329.54 662.344  11
  -2   6   7 7454.32 680.771  22
  -2   6   6 827.726 212.577  11
  -2   6   6 537.548 210.995  22
  -2   6   5 8785.52 794.850  22
  -2   6   4-0.60243 86.0628  10
  -2   6   4-147.066 124.390  22
  -2   6   3 5875.59 606.005  10
  -2   6   2 4002.59 513.228  10
  -2   6   1 25855.3 1649.18  10
  -2   6   1 33902.0 1817.80   9
  -2   6   0 221.691 150.696   9
  -2   6  -1 507.509 188.665   9
  -2   6  -2 8118.40 757.873   9
  -2   6  -2 8748.40 626.031  13
  -2   6  -3 3822.70 495.705   9
  -2   6  -3 4705.94 387.458   8
  -2   6  -3 5092.60 449.385  13
  -2   6  -4 13036.6 770.672   8
  -2   6  -4 14652.2 850.112  13
  -2   6  -5 5806.98 459.088   8
  -2   6  -5 6386.07 658.436   2
  -2   6  -5 6078.35 490.281  13
  -2   6  -5 6337.25 639.774  12
  -2   6  -6 2762.86 298.039   8
  -2   6  -6 3043.06 433.837   2
  -2   6  -6 2860.45 414.557  12
  -2   6  -7 5225.83 563.555   2
  -2   6  -7 6573.33 468.022   8
  -2   6  -7 5728.43 589.383  12
  -2   6  -8 34.1714 78.5896   2
  -2   6  -8-16.1170 36.5938   8
  -2   6  -8 83.9482 92.7592  12
  -2   6  -9 6135.96 537.865   2
  -2   6  -9 7258.31 603.719  12
  -2   6 -10 2735.63 225.017   8
  -2   5  11 564.302 150.078  22
  -2   5  10 1329.91 250.286  22
  -2   5   9 646.603 141.852  15
  -2   5   9 414.249 182.621   6
  -2   5   9 243.626 151.403  22
  -2   5   8 8483.87 601.799  15
  -2   5   8 6545.61 727.884   6
  -2   5   8 6723.04 588.971  11
  -2   5   7 7294.21 806.290   6
  -2   5   7 9803.72 687.852  15
  -2   5   6 9439.51 935.908   6
  -2   5   6 11331.5 777.019  15
  -2   5   5 15473.3 952.285  15
  -2   5   5 12608.3 1109.45   6
  -2   5   4 435.121 193.947   6
  -2   5   4 571.645 173.740  15
  -2   5   3 8790.20 779.930  10
  -2   5   3 10662.2 763.254  15
  -2   5   3 11171.9 1499.63  24
  -2   5   2 21183.0 1324.48   9
  -2   5   2 19115.1 1156.04  15
  -2   5   2 21464.9 2160.51  24
  -2   5   1 9231.72 799.272   9
  -2   5   1 8193.67 670.850  15
  -2   5   1 8492.79 1299.61  24
  -2   5   0 1920.61 292.669  15
  -2   5   0 2137.26 274.786  13
  -2   5   0 1767.12 335.366   9
  -2   5   0 2230.50 606.316  24
  -2   5  -1 162.188 86.0822  13
  -2   5  -1 186.587 104.824  15
  -2   5  -1-109.819 111.116   9
  -2   5  -2 54.9220 60.0861  15
  -2   5  -2 253.908 157.851   2
  -2   5  -2 138.024 68.5377   8
  -2   5  -2 163.789 76.6113  13
  -2   5  -3 10402.2 664.926   8
  -2   5  -3 11077.8 757.895  15
  -2   5  -3 11702.7 731.646  13
  -2   5  -3 10718.4 884.398  12
  -2   5  -3 9818.70 866.586   2
  -2   5  -4 21203.2 1138.06  13
   2  -5   4 23234.8 1889.42   1
  -2   5  -4 20327.7 1099.35   8
  -2   5  -4 23143.2 1424.23   2
  -2   5  -4 21198.5 1191.64  15
  -2   5  -4 24762.2 1418.42  12
  -2   5  -5 78034.0 3354.31   8
  -2   5  -5 82630.1 3453.66  15
  -2   5  -5 90861.9 3720.62  12
  -2   5  -5 91421.6 3806.00   2
  -2   5  -5 81050.9 3372.95  13
  -2   5  -6 2314.92 399.983   2
  -2   5  -6 1761.08 276.298  15
  -2   5  -6 2239.65 279.398  13
  -2   5  -6 1842.79 341.746  12
  -2   5  -7 35422.1 1698.12  15
  -2   5  -7 34426.2 1886.45   2
  -2   5  -7 31832.4 1821.54  12
  -2   5  -8 6333.57 552.870  15
  -2   5  -8 6408.24 659.008  12
  -2   5  -8 6401.88 654.153   2
  -2   5  -9 13122.9 988.194  12
  -2   5  -9 13404.7 974.977   2
  -2   5  -9 14340.8 893.819  15
  -2   5 -10 747.317 182.505   2
  -2   5 -10 641.220 140.508  15
  -2   5 -10 860.223 154.753   8
  -2   5 -10 774.718 200.509  12
  -2   5 -11 372.607 108.315   2
  -2   5 -11 461.928 95.8891   8
  -2   5 -11 317.442 84.0545  15
  -2   5 -11 364.133 131.543  12
  -2   5 -12-25.5807 22.2555   8
  -2   5 -12-8.14043 32.0762  12
  -2   4  12 3947.66 378.934  22
  -2   4  11 44.5008 92.8869  22
  -2   4  11 19.3203 98.6855   6
  -2   4  10 2561.53 421.763   6
  -2   4   9 355.145 192.254   6
  -2   4   9 481.138 152.211  15
  -2   4   8-19.9272 116.900   6
  -2   4   8 5.09091 74.7659  15
  -2   4   7 29183.1 1526.49  15
  -2   4   7 27132.5 1813.58   6
  -2   4   6 39465.0 1919.08  15
  -2   4   6 37417.6 2222.98   6
  -2   4   6 41819.4 3024.87  24
  -2   4   5 23593.2 2127.74  24
  -2   4   5 22339.5 1525.90   6
  -2   4   5 21974.0 1259.56  15
  -2   4   4 108.628 96.2318  15
  -2   4   4 23.0571 148.640  24
  -2   4   3 48814.4 3288.28  24
  -2   4   2 29225.0 2366.79  24
  -2   4   1 17344.3 1705.43  24
  -2   4   0 6512.42 999.326  24
  -2   4  -1 808.630 365.953  24
   2  -4   2 3375.53 549.555   1
   2  -4   3 537.131 228.755   1
  -2   4  -3 844.928 321.621  18
  -2   4  -4 80218.1 3304.99  12
  -2   4  -4 76425.8 3927.86  18
  -2   4  -5 1347.35 307.223   2
  -2   4  -5 959.405 175.592  13
   2  -4   5 623.899 291.876   1
  -2   4  -5 1196.68 267.040  12
   2  -4   6 5154.33 833.848   1
  -2   4  -6 4595.98 534.906  12
  -2   4  -6 4306.86 537.910   2
  -2   4  -7 28163.2 1647.44   2
  -2   4  -8 409.065 163.006   2
  -2   4  -9 22072.8 1387.84   2
  -2   4 -10 221.145 133.905   2
  -2   4 -10 524.120 194.801  12
  -2   4 -11 321.501 124.877   2
  -2   4 -11 569.237 123.888   8
  -2   4 -11 422.104 183.987  12
  -2   4 -12 191.411 62.3151   8
  -2   4 -12 86.3261 80.8750  12
  -2   4 -13 12.6218 38.7677  12
   2  -3 -13 2832.49 276.722   2
  -2   3  13 1843.92 231.002  22
  -2   3  12 321.088 138.456  22
  -2   3  11 696.510 233.198   6
  -2   3  10 1901.55 400.912   6
  -2   3  10 2008.60 318.847  15
  -2   3   9 446.164 170.472  15
  -2   3   9 377.559 226.236   6
  -2   3   8 4213.11 470.777  15
  -2   3   8 4109.11 616.696   6
  -2   3   7 9884.71 762.594  15
  -2   3   7 10471.0 977.110   6
  -2   3   7 9683.90 1260.47  24
  -2   3   6 2523.04 438.372   6
  -2   3   6 2237.60 571.917  24
  -2   3   6 2177.68 325.862  15
  -2   3   5 26080.4 2099.69  24
  -2   3   4 23.5087 75.6745  24
  -2   3   3 39354.6 2635.34  24
  -2   3   2 18150.3 1604.72  24
  -2   3   1 6877.85 903.933  24
  -2   3   0 34100.4 2263.92  24
   2  -3   0 36816.1 1957.98   1
   2  -3   1 2204.32 389.848   1
  -2   3  -1 1896.55 452.135  24
  -2   3  -2 9789.23 961.597  18
   2  -3   2 10219.2 943.713   1
   2  -3   3 40502.1 2428.30   1
  -2   3  -3 52522.2 2626.87  18
  -2   3  -4 9860.01 977.043  18
   2  -3   4 8168.19 906.371   1
   2  -3   5 18360.0 1487.35   1
  -2   3  -5 18769.5 1523.66  18
   2  -3   6 5731.01 828.663   1
  -2   3  -7 17372.7 1142.13   2
  -2   3  -7 15540.7 936.985   7
   2  -3   7 16030.7 1525.32   1
   2  -3   8 996.892 371.955   1
  -2   3  -8 1405.17 291.733   2
  -2   3  -8 1307.81 230.709   7
  -2   3  -9 659.881 210.319   2
  -2   3  -9 422.599 137.542   7
  -2   3 -10 20119.1 1306.80   2
   2  -3  11 3138.56 358.593  17
  -2   3 -11 2989.78 416.999   2
  -2   3 -12 5020.14 374.104   8
  -2   3 -12 4493.32 480.675   2
   2  -3  12 5141.11 434.013  17
  -2   3 -13 209.711 90.5282   2
  -2   3 -13 6.12509 64.3112  12
  -2   3 -14 3578.25 293.467  12
   2  -2 -14 229.123 75.3506   2
   2  -2 -13 94.4415 45.0098   3
   2  -2 -13 57.8098 70.1155   2
  -2   2  13 10.7054 66.3267  22
  -2   2  12 338.901 171.626   6
   2  -2 -12 329.975 110.867   3
  -2   2  11 610.826 239.792   6
  -2   2  10 4462.90 626.633   6
  -2   2  10 4327.25 479.368  15
  -2   2   9 1546.88 378.788   6
  -2   2   9 1588.34 294.895  15
   2  -2  -9 1258.14 193.487  21
  -2   2   8 25073.8 1654.24   6
   2  -2  -8 25106.3 1207.46  21
  -2   2   8 25345.4 1398.40  15
  -2   2   8 23980.4 1990.45  24
  -2   2   7 33962.7 2376.22  24
  -2   2   6 2156.94 485.852  24
  -2   2   5 41029.6 2534.62  24
  -2   2   4 4087.72 660.275  24
  -2   2   3 4445.71 674.818  24
  -2   2   2 1384.17 363.192  24
   2  -2  -1 25013.0 1335.28   1
  -2   2   1 24460.6 1650.06  24
  -2   2   0 226.668 155.840  24
   2  -2   0 438.136 153.126   1
  -2   2  -1 11787.8 905.828  18
   2  -2   1 14160.3 1003.78   1
  -2   2  -1 15876.0 1306.52  24
  -2   2  -2 62413.1 2708.60  18
   2  -2   2 50257.4 2647.44   1
  -2   2  -3 14590.8 1026.48  18
   2  -2   3 11212.3 965.102   1
   2  -2   4 26225.2 1658.32   1
   2  -2   5 71497.5 3510.08   1
   2  -2   6-30.7306 77.6494   1
   2  -2   7 21292.6 1710.64   1
   2  -2   8 383.793 136.916  17
  -2   2  -8 957.414 224.804   2
   2  -2   8 587.381 294.625   1
  -2   2  -8 814.352 173.884  14
  -2   2  -8 698.425 164.248   7
   2  -2   9 3518.50 420.569  17
  -2   2  -9 3176.75 369.615   7
  -2   2  -9 3764.63 486.257   2
   2  -2   9 3050.16 684.523   1
  -2   2 -10 328.825 127.219   7
   2  -2  10 380.723 155.828  17
  -2   2 -10 318.720 159.298   2
   2  -2  11 3881.56 443.644  17
  -2   2 -11 3415.33 385.816   7
  -2   2 -11 3531.68 495.866   2
   2  -2  12 3454.01 389.185  17
  -2   2 -12 3018.15 283.515   8
  -2   2 -12 3673.16 472.875   2
  -2   2 -12 3445.78 358.479   7
  -2   2 -13 754.146 181.346   2
   2  -2  13 795.138 164.904  17
   2  -2  14 3999.16 328.623  17
   2  -1 -14 817.088 155.547   2
   2  -1 -13 587.197 143.165   3
   2  -1 -13 500.901 152.959   2
   2  -1 -12-101.451 99.5188   2
   2  -1 -12-7.89718 24.2029   3
  -2   1  12-18.8685 75.5015   6
  -2   1  11 554.286 179.056   6
   2  -1 -11 417.796 116.836  21
  -2   1  10 2909.03 401.153  15
  -2   1  10 2371.95 444.061   6
   2  -1 -10 2616.18 298.139  21
   2  -1  -9 1738.07 235.398  21
  -2   1   9 1873.50 390.458   6
  -2   1   9 1509.29 286.703  15
  -2   1   9 1369.94 407.182  24
  -2   1   8 14163.2 1379.61  24
   2  -1  -8 16382.5 897.118  21
  -2   1   8 18035.7 1243.51   6
  -2   1   8 15300.2 1009.27  15
  -2   1   7 108468. 5038.61  24
  -2   1   6 78513.8 3815.39  24
  -2   1   5 89657.5 3984.71  24
  -2   1   5 77612.1 3922.08  25
  -2   1   4 4123.75 569.916  25
  -2   1   4 4931.96 630.231  24
  -2   1   3 14975.4 1108.47  25
  -2   1   3 16817.0 1220.93  24
  -2   1   2 1929.24 320.917  25
   2  -1  -2 1747.79 262.736   1
  -2   1   2 2038.08 375.402  24
  -2   1   1 25573.8 1534.84  24
   2  -1  -1 26538.3 1393.42   1
  -2   1   1 27292.9 1450.60  25
   2  -1   0 120.501 81.8765   1
  -2   1   0 234.727 111.776  25
  -2   1   0 145.255 106.304  24
  -2   1  -1 20792.8 1348.08  24
  -2   1  -1 22066.9 1108.38  25
   2  -1   1 21007.0 1226.08   1
   2  -1   2 77764.8 3312.94   1
  -2   1  -2 79319.7 3122.87  18
  -2   1  -2 71113.0 2905.39  25
   2  -1   3 10430.7 851.034   1
   2  -1   4 351950. 13421.0   1
   2  -1   5 14113.8 1139.30   1
   2  -1   6-23.6062 59.7233   1
  -2   1  -6-66.2077 104.971  23
   2  -1   7 22965.5 1752.80   1
  -2   1  -7 24500.6 1926.31  23
   2  -1   8 2044.67 496.363   1
   2  -1   9 1330.26 437.436   1
  -2   1  -9 907.335 191.724   7
   2  -1   9 1299.08 248.821  17
  -2   1  -9 1305.85 303.156   2
  -2   1 -10 576.719 168.530   7
   2  -1  10 705.031 200.558  17
  -2   1 -10 675.260 217.487   2
  -2   1 -11 7293.54 608.744   7
   2  -1  11 7241.95 668.910  17
  -2   1 -11 7884.16 745.462   2
  -2   1 -12 3652.75 395.723   7
   2  -1  12 2923.45 404.001  17
  -2   1 -12 3439.14 464.119   2
  -2   1 -13 175.939 81.9111   7
   2  -1  13 92.9095 97.0399  17
  -2   1 -13 187.010 106.819   2
   2  -1  14 10020.4 634.683  17
  -2   1 -14 9521.12 550.311   7
   2   0 -14 1303.38 213.738   2
   2   0 -14 1528.68 208.658   3
  -2   0  13 3666.30 375.447  17
   2   0 -13 4398.71 468.197   2
   2   0 -13 4505.25 444.855   3
  -2   0  12 327.744 130.985  17
   2   0 -12 400.419 155.495   3
   2   0 -12 223.424 143.440   2
   2   0 -11 922.270 177.373  21
  -2   0  11 857.986 204.999  17
   2   0 -11 596.478 211.357   2
   2   0 -10 1036.53 195.394  21
  -2   0   9-37.6461 90.1831  15
   2   0  -9 243.655 102.312  21
  -2   0   9 234.895 187.089   6
  -2   0   8 9031.45 967.163  24
  -2   0   7 1140.84 317.909  24
  -2   0   7 928.963 310.002  25
  -2   0   6 145.296 117.058  25
  -2   0   6 128.042 104.875  24
  -2   0   5 100360. 4516.38  25
  -2   0   5 104791. 4416.41  24
  -2   0   4 1309.84 289.326  25
  -2   0   4 1314.11 275.055  24
  -2   0   3 82841.6 3639.68  25
  -2   0   3 87254.0 3665.04  24
  -2   0   2 123.005 85.5228  24
  -2   0   2 162.397 95.2710  25
  -2   0   1 39167.4 1894.53  24
  -2   0   1 39168.7 1804.75  25
   2   0  -1 39093.5 1926.80   1
   2   0   0 11884.4 832.858   1
  -2   0   0 10172.4 756.668  24
  -2   0   0 10888.0 674.088  25
  -2   0  -1 21168.7 1045.92  25
   2   0   1 23886.9 1299.07   1
  -2   0  -2 416.088 91.3762  25
   2   0   2 268.799 136.714   1
  -2   0  -3 9642.81 517.112  25
   2   0   3 9099.64 785.880   1
   2   0   4 4785.77 577.762   1
  -2   0  -4 5302.64 521.561  23
  -2   0  -5 123392. 5103.64  23
   2   0   5 118550. 5222.98   1
   2   0   6 18391.6 1386.86   1
  -2   0  -6 16714.7 1304.09  23
   2   0   7 54127.0 3011.28   1
  -2   0  -7 53975.4 3002.26  23
   2   0   8 782.174 356.734   1
   2   0   9 4916.01 509.250  17
   2   0   9 4466.98 785.862   1
   2   0  10 42180.7 2121.39  17
  -2   0 -10 43348.2 2184.40   2
   2   0  11 2679.96 404.485  17
  -2   0 -11 3100.30 451.683   2
   2   0  12 5800.17 601.042  17
  -2   0 -12 6789.88 578.993   7
  -2   0 -12 6388.91 652.781   2
  -2   0 -13 602.758 153.936   7
   2   0  13 267.070 149.050  17
  -2   0 -13 427.893 158.658   2
   2   0  14 861.096 187.504  17
  -2   0 -14 953.329 165.034   7
   2   0  15 2771.36 270.800  17
   2   1 -14 251.224 94.3503   3
  -2  -1  14 167.455 77.7791  17
   2   1 -14 287.045 111.337   2
  -2  -1  13 1045.18 204.655  17
   2   1 -13 1099.93 223.813   3
   2   1 -13 1204.18 251.614   2
  -2  -1  12 67302.7 2984.62  17
   2   1 -12 67601.7 3106.68   2
   2   1 -12 66419.7 3047.56   3
   2   1 -12 71089.0 2837.56  21
   2   1 -11 8737.76 752.633   3
   2   1 -11 8833.01 622.541  21
   2   1 -11 8339.08 766.224   2
   2   1 -10 13150.3 987.050   2
   2   1 -10 13314.9 823.777  21
   2   1  -9 7111.07 642.506   2
   2   1  -9 6863.38 536.828  21
  -2  -1   8 5970.26 810.317  25
  -2  -1   7 1687.54 408.252  25
  -2  -1   7 1979.17 356.433  24
  -2  -1   6 242.189 145.483  25
  -2  -1   6 54.5340 76.8063  24
  -2  -1   5 46795.4 2214.35  24
  -2  -1   5 49805.9 2448.21  25
  -2  -1   4 864.640 219.611  25
  -2  -1   4 755.261 172.846  24
  -2  -1   3 132139. 5113.47  24
  -2  -1   3 129082. 5208.84  25
  -2  -1   2 475065. 17322.6  24
  -2  -1   2 469068. 17394.9  25
  -2  -1   1 999999. 34830.2  24
   2   1  -1 908848. 35102.0   1
   2   1   0 229.049 132.566   1
  -2  -1   0 264.397 90.3050  25
  -2  -1  -1 3556.87 299.327  25
   2   1   1 3993.65 480.499   1
   2   1   2 6.18746 74.5872   1
  -2  -1  -2 80.8269 47.5838  25
  -2  -1  -2 22.3933 19.0280  23
  -2  -1  -3 5362.96 373.360  25
   2   1   3 6242.54 625.341   1
  -2  -1  -4 5129.09 361.473  25
   2   1   4 5499.09 628.352   1
   2   1   5 31748.5 1878.14   1
  -2  -1  -5 30276.0 1351.70  25
   2   1   6 43931.4 2509.79   1
   2   1   7 120167. 5460.83   1
   2   1   8 3160.07 604.244   1
   2   1   9 185492. 7245.40  17
   2   1  10 24471.5 2035.91  24
   2   1  10 20828.8 1291.19  17
  -2  -1 -10 20548.8 1288.62   2
   2   1  11 3415.68 454.788  17
  -2  -1 -11 2770.76 415.337   2
   2   1  12 50.6627 88.1056  17
  -2  -1 -12 134.090 99.2544   2
   2   1  13 659.675 194.073  17
  -2  -1 -13 946.693 223.020   2
  -2  -1 -14 194.560 91.3732   7
   2   1  14 79.9938 83.1999  17
   2   1  15 266.310 89.4453  17
  -2  -1 -15 198.711 59.8584   7
  -2  -2  14 276.476 102.132  17
   2   2 -14 73.8565 65.8815   2
   2   2 -13 9746.46 721.313   3
  -2  -2  13 9479.05 701.188  17
   2   2 -13 10358.5 781.735   2
   2   2 -12 2063.92 327.428   3
   2   2 -12 2186.95 263.365  21
  -2  -2  12 1841.37 305.359  17
   2   2 -12 1476.99 307.741   2
   2   2 -11 1610.37 324.876   2
   2   2 -11 2033.10 352.711   3
   2   2 -11 1920.44 259.390  21
   2   2 -10 7682.06 731.318   2
   2   2 -10 7526.37 572.723  21
   2   2  -9 5662.95 474.058  21
   2   2  -9 5649.43 594.540   2
   2   2  -9 5579.23 1089.20  23
   2   2  -8 10890.7 1458.50  23
  -2  -2   7 2053.28 417.935  25
  -2  -2   6 142.714 120.941  25
  -2  -2   5 38785.8 2024.67  25
  -2  -2   4 8.03303 55.0688  25
  -2  -2   4 22.3734 33.9999  24
  -2  -2   3 30189.5 1485.25  25
  -2  -2   3 26333.3 1152.21  24
   2   2  -3 27903.0 1644.94  23
  -2  -2   2 242.367 103.812  25
   2   2  -2 260.024 129.284  23
  -2  -2   1 101396. 3957.79  25
   2   2  -1 98483.6 4106.66  23
  -2  -2   0 41437.7 1798.30  25
   2   2   1 1109.32 267.486   1
  -2  -2  -1 660.038 139.273  25
  -2  -2  -2 5452.66 417.175  25
   2   2   2 5107.71 618.849   1
   2   2   3 9181.35 884.404   1
   2   2   4 1381.21 353.109   1
   2   2   5 146118. 6364.78   1
   2   2   6 1662.92 417.454   1
   2   2   7 86030.9 4348.00   1
   2   2   8 24864.9 1864.89  24
   2   2   9 2492.72 377.369  17
   2   2   9 1849.42 517.211  24
  -2  -2 -10 19351.3 1224.87   2
   2   2  10 19606.8 1258.47  17
   2   2  11 3692.13 489.471  17
  -2  -2 -11 3773.37 476.595   2
   2   2  12 960.059 239.992  17
  -2  -2 -12 590.503 196.161   2
  -2  -2 -13 283.334 118.137   2
   2   2  13 244.898 136.795  17
  -2  -2 -14 844.268 151.195   7
   2   2  14 1052.66 212.835  17
   2   2  15 6955.75 471.536  17
  -2  -2 -15 7915.71 424.965   7
  -2  -3  14 1834.98 234.202  17
   2   3 -14 1703.83 236.610   2
   2   3 -13 65.3897 49.1066  14
  -2  -3  13 43.3833 73.0484  17
   2   3 -13 28.6206 80.6139   2
  -2  -3  12 488.740 158.598  17
   2   3 -12 428.469 167.672   2
   2   3 -12 436.381 148.258   3
   2   3 -11 107.223 125.785   2
   2   3 -11 76.5561 92.5930   3
   2   3 -11 68.7985 60.5977  21
   2   3 -10 1032.62 254.717   3
   2   3 -10 1048.30 194.576  21
   2   3 -10 1287.10 302.438   2
   2   3  -9 861.354 246.252   2
   2   3  -9 90.0750 93.7108   3
   2   3  -9 677.386 400.273  23
   2   3  -9 158.492 87.2940  21
   2   3  -8 9358.19 810.499   2
   2   3  -8 8252.57 1378.10  23
   2   3  -8 8723.31 607.050  21
   2   3  -7 128818. 6671.26  23
  -2  -3   6 69474.0 3242.41  25
   2   3  -6 67151.9 4031.62  23
  -2  -3   5 139384. 5685.56  25
   2   3  -5 136999. 6444.90  23
   2   3  -4 12943.0 1242.62  23
  -2  -3   4 11915.8 881.585  25
  -2  -3   3 26980.1 1425.78  25
   2   3  -3 25525.4 1772.62  23
  -2  -3   2 58.4319 64.7846  25
  -2  -3   1 15707.4 899.420  25
   2   3   0 5232.73 521.501  18
  -2  -3   0 6338.14 488.729  25
   2   3   0 5783.30 316.702  24
   2   3   1 8415.91 686.399  18
  -2  -3  -1 7758.46 587.802  25
   2   3   1 8828.96 558.492  24
   2   3   2 68921.3 2924.51  24
   2   3   3 68288.4 2888.68  24
   2   3   3 58143.3 3136.66   1
   2   3   4 309948. 11501.4  19
   2   3   4 306569. 11644.3  24
   2   3   4 296615. 12059.3   1
   2   3   5 17105.9 1241.95  24
   2   3   5 18836.6 1494.31   1
   2   3   6 1870.12 396.037  24
   2   3   7 14323.5 1257.75  24
   2   3   8 22.3579 64.4725  24
   2   3   9 361.482 164.589  17
   2   3   9 424.527 230.629  24
   2   3  10 1813.31 342.095  17
  -2  -3 -11 4390.90 486.788   2
   2   3  11 3539.68 473.334  17
   2   3  12 7614.09 684.503  17
  -2  -3 -12 7796.73 641.241   2
  -2  -3 -13-10.2747 47.3728   2
   2   3  13-4.52936 67.2417  17
   2   3  14 9407.14 631.371  17
  -2  -3 -15 617.081 88.4744   7
  -2  -4  14 1344.23 180.510  17
   2   4 -14 1253.45 176.004   2
  -2  -4  13 158.518 108.069  17
   2   4 -13 206.041 94.9598   2
   2   4 -13 144.013 62.6162  14
  -2  -4  12 1105.71 223.229  17
   2   4 -12 985.448 248.439   2
   2   4 -12 1077.30 203.336  14
   2   4 -11 142.422 124.351   2
   2   4 -11 66.2123 93.6081   3
   2   4 -11 96.1358 64.9611  21
   2   4 -10 2288.20 424.332   2
   2   4 -10 2179.63 343.084   3
   2   4 -10 2151.43 272.762  21
   2   4  -9 185.572 157.850   2
   2   4  -9-21.5606 41.8726   3
   2   4  -9 139.984 81.6416  21
   2   4  -8 24492.1 2664.24  23
   2   4  -8 25363.7 1451.63   3
   2   4  -8 26731.2 1302.59  21
   2   4  -8 26067.6 1616.13   2
   2   4  -7 18424.4 2139.40  23
   2   4  -6 1361.66 550.040  23
  -2  -4   5 57576.2 2821.90  25
   2   4  -5 61829.7 3775.42  23
  -2  -4   4 8032.14 703.576  25
  -2  -4   3 9986.90 744.933  25
  -2  -4   2 999.067 198.608  25
  -2  -4   1 22605.9 1212.94  25
   2   4   0 2081.46 384.422  18
  -2  -4   0 2601.90 331.875  25
   2   4   1 845.827 263.300  18
   2   4   1 1552.39 211.211  24
   2   4   2 48926.4 2243.06  24
   2   4   3 51888.8 2734.89  19
   2   4   3 49922.3 2454.66  24
   2   4   4 8033.01 791.129  24
   2   4   5 47534.1 2565.30  24
   2   4   6 1976.48 423.582  24
   2   4   7 8924.52 999.991  24
   2   4   8 1351.20 280.566  17
   2   4   8 1570.45 440.964  24
   2   4   8 1433.72 275.633  22
   2   4   9 10081.7 828.723  17
   2   4  10 376.163 170.861  17
   2   4  11 1490.17 287.504  17
   2   4  12 9062.96 719.411  17
  -2  -4 -12 9069.53 657.122   2
   2   4  13 287.913 106.612   5
   2   4  13 200.149 95.9775  17
   2   4  14 1395.45 166.200   5
  -2  -5  13 3131.13 300.581  17
   2   5 -13 3071.96 252.977  14
   2   5 -13 2465.28 281.795   2
   2   5 -12 707.914 184.501   2
  -2  -5  12 954.135 193.854  17
   2   5 -12 818.740 162.615  14
   2   5 -11 2527.79 385.009   2
   2   5 -11 2101.06 313.490  14
   2   5 -10 5878.47 665.151   2
   2   5  -9 6515.01 603.243  13
   2   5  -9 5743.78 683.677   2
   2   5  -8 4442.99 536.966  13
   2   5  -8 5089.78 632.438   2
   2   5  -7 14615.3 1064.68  13
   2   5  -7 16882.7 1201.38   2
   2   5  -6 2609.18 693.832  19
   2   5  -6 3611.83 485.693   2
   2   5  -6 3009.71 418.295  13
   2   5  -5 5148.68 967.156  19
   2   5  -4 482.791 262.367  19
  -2  -5   4 377.764 176.147  25
  -2  -5   3 16417.4 1052.24  25
  -2  -5   2 3229.42 393.438  25
   2   5  -2 3019.91 584.212  18
   2   5  -1 15091.0 1318.83  18
  -2  -5   1 14347.8 952.197  25
   2   5   0 61707.8 3491.98  19
  -2  -5   0 64847.8 2862.75  25
   2   5   0 61229.6 3283.31  18
   2   5   1 767.047 303.037  19
  -2  -5  -1 1093.09 253.330  25
   2   5   2 12579.9 1249.86  19
   2   5   3 12385.6 1207.51  19
   2   5   3 12245.2 992.073  24
   2   5   4 10712.4 1012.30  24
   2   5   5 22685.9 1688.28  24
   2   5   6 230.196 168.590  24
   2   5   7 23334.1 1801.13  24
   2   5   7 18789.8 1269.38  22
   2   5   8 527.757 210.293  22
   2   5   9 301.100 149.097  22
   2   5  10 11185.6 852.572  22
   2   5  10 9857.90 808.453   5
   2   5  11 3403.88 407.611   5
   2   5  12 536.125 133.354   5
   2   5  13 108.842 56.5809   5
   2   6 -12 8630.32 598.233   2
  -2  -6  12 8235.08 545.251  17
   2   6 -11 45.0009 76.5594   2
  -2  -6  11-11.4200 56.1398  17
   2   6 -11 33.5493 48.4953  14
   2   6 -10 3545.84 404.930  14
   2   6 -10 3614.37 476.117   2
   2   6  -9 2309.84 399.344   2
   2   6  -9 2681.66 348.262  13
   2   6  -9 2351.46 348.536  14
   2   6  -8-22.9588 80.4426  13
   2   6  -8 217.859 150.143   2
   2   6  -7 23412.5 1403.57  13
   2   6  -7 23949.0 1547.45   2
   2   6  -6 20120.2 2084.15  19
   2   6  -6 17919.8 1196.84  13
   2   6  -6 19314.9 1312.39   2
   2   6  -5 23997.2 2264.82  19
   2   6  -5 24101.2 1485.62   2
   2   6  -5 21954.5 1348.90  13
   2   6  -4 210.252 276.282  19
   2   6  -4 79.4842 222.547  18
   2   6  -4 117.990 94.3151   2
   2   6  -4 80.7473 91.1351  13
   2   6  -3 41972.4 3015.28  19
   2   6  -3 38511.3 2732.65  18
   2   6  -2 30915.4 2465.85  19
   2   6  -2 32208.1 2322.54  18
  -2  -6   2 29298.0 1671.91  25
   2   6  -1 8509.69 1183.53  19
   2   6  -1 7274.70 1006.13  18
  -2  -6   1 7317.80 694.494  25
   2   6   0 1124.27 393.803  19
   2   6   0 608.216 316.336  18
  -2  -6   0 853.830 225.255  25
   2   6   1 19.2247 84.4154  19
  -2  -6  -1 10.7825 69.3648  25
   2   6   2 3312.24 656.386  19
   2   6   3 1161.09 403.077  19
   2   6   4 81925.0 3334.28  10
   2   6   4 71770.7 3391.33  22
   2   6   4 74390.8 3309.54   5
   2   6   4 74056.8 3261.46  11
   2   6   5 1345.83 244.179  11
   2   6   5 1458.54 296.476   5
   2   6   5 1313.01 320.427  22
   2   6   6 2122.02 336.688  11
   2   6   6 2117.04 412.320  22
   2   6   6 2180.54 378.948   5
   2   6   7 28496.6 1681.98   5
   2   6   7 30194.2 1566.00  11
   2   6   7 28899.6 1741.52  22
   2   6   8 1732.98 332.255   5
   2   6   8 2082.26 385.370  22
   2   6   9 5091.58 581.611  22
   2   6   9 4879.04 529.279   5
   2   6  10-113.631 100.211  22
   2   6  10-90.8018 87.7806   5
   2   6  11 127.915 79.6104  22
   2   6  11 15.6228 55.8610   5
   2   6  12-19.4794 40.9953   5
   2   7 -11-14.9847 54.8997   2
   2   7 -11 23.0209 27.5191  14
   2   7 -10 671.372 172.984   2
   2   7 -10 985.033 170.949  14
   2   7  -9 51.2897 96.8891   2
   2   7  -9-23.0609 44.6575  13
   2   7  -9 26.5159 64.5619  14
   2   7  -8 9072.77 685.899  14
   2   7  -8 9291.16 823.474   2
   2   7  -8 9254.13 682.246  13
   2   7  -7 14585.3 950.083  13
   2   7  -7 13953.1 916.293  14
   2   7  -7 14146.6 1083.73   2
   2   7  -6 8631.47 670.444  14
   2   7  -6 9265.30 741.029  13
   2   7  -6 8640.71 820.989   2
   2   7  -5 24336.2 1302.30  14
   2   7  -5 26106.2 1587.64   2
   2   7  -5 24229.0 1393.14  13
   2   7  -4 2759.46 441.695   2
   2   7  -4 2793.71 388.476  13
   2   7  -3 10859.3 1455.89  19
   2   7  -3 9837.16 1402.35  18
   2   7  -3 9176.66 832.614   2
   2   7  -3 9015.84 724.141  13
   2   7  -2 20344.1 1989.71  19
   2   7  -2 18019.5 1131.68  10
   2   7  -2 21217.0 1983.52  18
   2   7  -2 17417.7 1074.60  13
   2   7  -2 17668.6 1075.73  11
   2   7  -2 17779.2 1239.26   2
   2   7  -1 1905.54 575.586  19
   2   7  -1 2479.81 641.890  18
   2   7  -1 1956.11 304.244  22
   2   7  -1 2279.32 353.213  10
  -2  -7   1 2449.37 425.227  25
   2   7  -1 2447.10 317.948  13
   2   7  -1 2570.41 359.014  11
   2   7   0-33.0616 85.1723  11
   2   7   0 282.717 144.702  22
   2   7   0-64.0889 117.202  19
   2   7   0-116.617 104.687  10
   2   7   0 232.936 91.6899  13
  -2  -7   0 161.612 108.231  25
   2   7   1 144.549 100.089  11
   2   7   1 356.837 241.108  19
   2   7   1 206.542 141.832  10
  -2  -7  -1 376.436 165.908  25
   2   7   1 316.610 117.512  13
   2   7   1 269.635 133.131  22
   2   7   2 217.720 131.679  11
   2   7   2 326.998 241.025  19
   2   7   2 93.2098 111.677  10
  -2  -7  -2 172.714 144.146  25
   2   7   2 168.382 138.012  22
   2   7   2 136.901 108.044   5
   2   7   3 3613.17 467.828  10
   2   7   3 3006.62 439.893   5
   2   7   3 3165.99 460.235  22
  -2  -7  -3 3635.36 556.710  25
   2   7   3 3696.42 478.298  11
   2   7   4 20936.6 1249.10  10
   2   7   4 17495.5 1161.97  11
   2   7   4 16961.7 1174.49   5
   2   7   4 17105.5 1243.72  22
   2   7   5 52998.8 2593.82   5
   2   7   5 54159.0 2703.03  22
   2   7   5 52699.7 2514.87  11
   2   7   6 3509.81 526.284  22
   2   7   6 3124.64 451.465   5
   2   7   6 3772.87 455.492  11
   2   7   7 18772.6 1307.95  22
   2   7   7 17683.4 1196.75   5
   2   7   7 20310.7 1175.45  11
   2   7   8 3794.16 500.253  22
   2   7   8 3175.27 409.863   5
   2   7   8 3542.89 392.140  11
   2   7   9 8634.71 715.947  22
   2   7   9 7654.94 607.086   5
   2   7  10 3008.74 354.113  22
   2   7  10 2589.16 288.058   5
   2   7  11 6.43546 42.2586  22
   2   7  11 48.1616 44.2937   5
   2   8  -9 1634.41 251.640   2
   2   8  -9 1582.76 168.763  13
   2   8  -8 3185.43 405.538   2
   2   8  -8 3937.68 348.922  14
   2   8  -8 3535.57 328.263  13
   2   8  -7 20726.3 1046.32  14
   2   8  -7 18290.9 1045.61  13
   2   8  -7 19240.3 1225.19   2
   2   8  -6 4364.76 542.349   2
   2   8  -6 5305.18 440.441  14
   2   8  -6 4694.84 457.422  13
   2   8  -5 5251.15 618.074   2
   2   8  -5 5072.92 496.775  13
   2   8  -4-79.5871 98.5576   2
   2   8  -4 45.6545 68.0301  13
   2   8  -3 1712.78 289.174  10
   2   8  -3 1513.55 257.468  13
   2   8  -2 6386.82 612.652  10
   2   8  -2 6607.87 558.589  13
   2   8  -2 6769.91 576.587  11
   2   8  -1 14479.6 1002.65  10
   2   8  -1 13513.5 862.130  13
   2   8  -1 13119.6 905.695  11
   2   8   0 4169.26 500.498  10
   2   8   0 4505.62 428.911  13
   2   8   0 4320.39 504.189  22
   2   8   0 3972.58 472.921  11
   2   8   1-151.853 121.850  11
   2   8   1-38.0749 101.953  10
   2   8   1 54.0153 84.9485  22
   2   8   1 145.459 87.8283  13
   2   8   2 11559.2 883.292  10
   2   8   2 9555.57 808.319  22
   2   8   2 11573.0 891.201  11
   2   8   3 4451.54 524.583  10
   2   8   3 3794.88 492.628  22
   2   8   3 3844.82 493.038  11
   2   8   4 5303.65 604.128  22
   2   8   4 5699.36 586.659  11
   2   8   5 1563.58 288.071  11
   2   8   5 1886.92 359.342  22
   2   8   6 413.615 152.643  11
   2   8   6 372.857 174.525  22
   2   8   7 4587.48 526.495  22
   2   8   7 5125.29 475.825  11
   2   8   8-79.9769 91.4111  22
   2   8   8 25.0091 41.6073  11
   2   8   9 11252.5 722.472  22
   2   8  10 1274.10 171.609  22
   2   9  -8 1257.92 124.358  13
   2   9  -7 11719.2 627.705  13
   2   9  -6 939.049 159.080  13
   2   9  -5 6195.54 475.178  13
   2   9  -4 41.7228 63.9692  13
   2   9  -3 778.337 172.406  10
   2   9  -3 829.593 169.289  13
   2   9  -2 3232.94 379.152  10
   2   9  -2 3244.17 332.753  13
   2   9  -1 2990.01 387.070  10
   2   9  -1 2420.82 282.523  13
   2   9  -1 2698.32 327.449  11
   2   9   0 3327.61 409.596  10
   2   9   0 3043.47 306.286  13
   2   9   0 2951.36 365.038  11
   2   9   1 319.772 138.387  11
   2   9   1 227.370 125.947  10
   2   9   1 28.9810 50.1559  22
   2   9   1 274.344 90.4337  13
   2   9   2 10341.0 773.388  10
   2   9   2 9643.20 699.062  22
   2   9   2 9415.10 746.171  11
   2   9   3 6487.81 565.356  22
   2   9   3 7037.90 614.620  11
   2   9   4 9059.09 691.153  22
   2   9   4 9203.58 698.483  11
   2   9   5 4745.92 474.361  22
   2   9   5 5205.34 472.371  11
   2   9   6-9.54243 59.7961  11
   2   9   6 68.4135 67.8281  22
   2   9   7 668.120 145.383  22
   2   9   8-3.57717 33.5021  22
   2  10  -5 8401.59 453.854  13
   2  10  -4 689.716 109.748  13
   2  10  -3 1443.74 168.793  13
   2  10  -2 817.848 121.391  13
   2  10  -1 24.3945 29.6282  13
   2  10   0-49.8863 36.0652  13
   2  10   2 3107.21 314.255  11
   2  10   3 580.378 109.859  22
   2  10   3 824.462 152.832  11
   2  10   4 1132.77 150.225  22
   2  10   5 6137.29 373.429  22
  -3   7   6 34.5427 35.9092  11
  -3   7   5 358.807 101.324  11
  -3   7   4 261.334 115.935  11
  -3   7   3 559.142 145.412  11
  -3   7   2-78.0085 79.2161  11
  -3   7   2 34.8096 67.2771  10
  -3   7   1 420.827 145.844  11
  -3   7   1 105.331 80.3286  10
  -3   7   0 3216.40 364.794  10
  -3   7   0 3519.68 394.505  11
  -3   7  -1 371.994 117.623  11
  -3   7  -1 628.553 174.097  10
  -3   7  -2 6816.68 572.536  10
  -3   7  -3 2817.19 366.040  10
  -3   7  -3 2074.66 276.904   9
  -3   7  -4 5262.20 477.689  10
  -3   7  -4 2999.68 328.662   9
  -3   7  -5 1557.93 241.080  10
  -3   7  -5 1021.17 172.400   9
  -3   7  -6 123.104 58.7039   9
  -3   7  -6 16.0861 49.5617  10
  -3   6   8 2830.63 257.682  22
  -3   6   7 713.978 144.251  11
  -3   6   7 533.420 128.856  22
  -3   6   6 2903.06 267.552  15
  -3   6   6 2425.40 298.083  22
  -3   6   6 2603.65 316.515  11
  -3   6   5 2981.75 296.066  15
  -3   6   4 159.854 90.8578  15
  -3   6   3 4260.80 437.791  10
  -3   6   3 4571.30 411.948  15
  -3   6   2 1036.45 228.867  10
  -3   6   2 957.811 188.946  15
  -3   6   1 1981.26 328.225  10
  -3   6   1 2247.61 294.884  15
  -3   6   0 4947.36 562.930  10
  -3   6   0 6740.13 641.267   9
  -3   6   0 5245.36 486.024  15
  -3   6  -1 10837.7 847.196   9
  -3   6  -1 9770.01 700.331  15
  -3   6  -2 5091.09 544.976   9
  -3   6  -2 4908.94 456.072  15
  -3   6  -3 497.280 166.490   9
  -3   6  -3 384.652 105.942   8
  -3   6  -3 340.997 119.107  15
  -3   6  -4 8087.39 679.458   9
  -3   6  -4 8677.48 537.631   8
  -3   6  -4 8367.79 595.441  15
  -3   6  -5 20.9622 80.8163   9
  -3   6  -5 40.9637 31.8144   8
  -3   6  -5 58.2464 63.3457  15
  -3   6  -6 183.041 82.1662   9
  -3   6  -6 134.223 59.1683   8
  -3   6  -6 137.843 76.3338  15
  -3   6  -7 1537.57 237.418   9
  -3   6  -7 1209.24 155.129   8
  -3   6  -8 67.6055 58.7807  10
  -3   6  -8 173.247 84.5799   9
  -3   6  -8 156.189 55.9618   8
  -3   6  -9 216.938 76.3057   9
  -3   6  -9 169.615 46.8405   8
  -3   5  10 79.8657 60.7403  22
  -3   5   9 43.1016 69.1275  22
  -3   5   8 130.851 79.2322  11
  -3   5   8 65.9740 63.3077  15
  -3   5   8 81.8370 82.9265  22
  -3   5   8 69.3484 99.1961   6
  -3   5   7 342.456 109.216  15
  -3   5   7 176.953 130.432   6
  -3   5   7 319.181 141.147  22
  -3   5   6 652.938 163.340  15
  -3   5   6 275.124 142.632   6
  -3   5   6 456.383 181.958  22
  -3   5   5 6667.10 709.709   6
  -3   5   5 7905.78 604.794  15
  -3   5   4 261.772 125.956  15
  -3   5   3 23849.7 1335.87  15
  -3   5   2 5478.76 592.983  10
  -3   5   2 6130.01 582.881  15
  -3   5   1 10319.2 864.101   9
  -3   5   1 9348.96 760.906  15
  -3   5   0 3076.18 447.666   9
  -3   5   0 3431.12 422.999  15
  -3   5  -1-66.7044 100.391  15
  -3   5  -1 162.204 147.037   9
  -3   5  -1 78.3497 53.5201   8
  -3   5  -2 839.920 209.414  15
  -3   5  -2 1050.04 255.838   9
  -3   5  -2 1054.70 174.722   8
  -3   5  -3 247.076 123.948   9
  -3   5  -3 296.707 123.954  15
  -3   5  -3 191.577 85.7796   8
  -3   5  -4 544.627 128.088   8
  -3   5  -4 579.626 172.428  15
  -3   5  -5 3269.74 330.452   8
  -3   5  -5 3494.26 394.933  15
  -3   5  -5 3880.38 493.323  12
  -3   5  -6 612.818 164.642  15
  -3   5  -6 534.402 127.993   8
  -3   5  -6 762.541 225.864  12
  -3   5  -7 15369.7 876.602   8
  -3   5  -7 17093.6 1094.98  12
  -3   5  -8 238.130 94.7830  15
  -3   5  -8 246.528 87.0044   8
  -3   5  -8 417.609 143.268  12
  -3   5  -9 13706.9 701.562   8
  -3   5  -9 13792.6 763.423  15
  -3   5  -9 11727.7 802.750  12
  -3   5 -10 288.297 71.0915   8
  -3   5 -10 190.754 59.7989  15
   3  -4 -11 941.730 140.588   2
  -3   4  11 1043.28 183.369  22
  -3   4  10 590.209 182.217   6
  -3   4   9 0.42256 68.3346  15
  -3   4   9 9.92206 94.6284   6
  -3   4   8 411.168 138.321  15
  -3   4   8 244.594 168.599   6
  -3   4   7 186.829 109.408  15
  -3   4   7 26.9702 116.235   6
  -3   4   6 1355.30 256.082  15
  -3   4   6 1231.99 326.226   6
  -3   4   5 14784.1 982.519  15
  -3   4   5 15223.3 1220.03   6
  -3   4   4 2495.54 362.891  15
  -3   4   4 2568.96 464.843   6
  -3   4   3 41373.0 2049.37  15
  -3   4   3 40694.9 3175.27  24
  -3   4   2 4931.77 532.224   9
  -3   4   2 5793.48 577.326  15
  -3   4   2 6131.09 1138.65  24
  -3   4   1 29867.4 1674.07   9
  -3   4   1 33407.1 1709.50  15
  -3   4   1 31860.8 2736.47  24
  -3   4   0 5664.33 581.356   9
  -3   4   0 4787.42 409.714   8
  -3   4   0 5992.87 574.950  15
  -3   4  -1 782.357 213.953   9
  -3   4  -1 935.109 169.203   8
  -3   4  -1 1097.81 226.017  15
  -3   4  -2 159.752 96.8582  15
  -3   4  -2 87.1062 63.4181   8
  -3   4  -3 338.499 95.5592   8
  -3   4  -3 388.151 140.174  15
  -3   4  -3 510.206 178.908  12
  -3   4  -4 138.750 73.5826   8
  -3   4  -4 48.5099 79.2862  12
   3  -4   4-64.6149 181.785   1
  -3   4  -4 162.469 106.860  15
  -3   4  -5 6607.34 526.589   8
  -3   4  -5 7474.22 641.540  15
  -3   4  -6 14446.6 863.883   8
  -3   4  -6 16315.8 1012.11  15
  -3   4  -6 14313.3 1064.24  12
  -3   4  -7 14978.6 868.312   8
  -3   4  -7 14467.3 981.864  15
  -3   4  -7 13935.0 1024.37  12
  -3   4  -8 128.261 91.1072  15
  -3   4  -8-2.74717 46.7059   8
  -3   4  -8-17.0964 71.0659  12
  -3   4  -9 14399.1 802.744   8
  -3   4  -9 13697.6 873.158  15
  -3   4  -9 12665.2 914.291  12
  -3   4 -10 2290.73 249.317   8
  -3   4 -10 2029.38 267.692  15
  -3   4 -10 1890.75 292.258  12
  -3   4 -11 35.9503 46.8273  15
  -3   4 -11 38.4086 34.7835   8
  -3   4 -11 85.2574 62.9911  12
  -3   4 -12 375.218 93.6422  12
  -3   3  12 2814.17 308.090  22
   3  -3 -12 3212.22 275.896   2
  -3   3  11 297.818 143.810   6
  -3   3  10 4784.83 446.758  15
  -3   3  10 4138.23 548.990   6
  -3   3   9 2746.97 472.962   6
  -3   3   9 2909.56 373.996  15
  -3   3   8 10433.1 772.738  15
  -3   3   8 8272.05 892.406   6
  -3   3   7 127.150 112.697  15
  -3   3   7 242.489 169.030   6
   3  -3  -6 3589.91 375.147  16
  -3   3   6 4026.01 463.355  15
  -3   3   6 3348.01 543.642   6
  -3   3   5 9727.59 1320.13  24
   3  -3  -5 8685.84 628.342  16
  -3   3   5 9111.68 732.598  15
  -3   3   5 9493.43 893.974   6
  -3   3   4 2643.37 366.710  15
  -3   3   4 2354.49 407.720   6
  -3   3   4 1832.91 568.100  24
  -3   3   3 31195.3 1622.41  15
  -3   3   3 28825.7 2429.84  24
  -3   3   2 20743.2 1952.42  24
  -3   3   1 31127.1 2444.25  24
  -3   3   0 10290.0 1290.14  24
   3  -3   2 8141.06 1025.40   1
   3  -3   3 10611.6 1199.45   1
  -3   3  -4 11074.2 685.233   8
   3  -3   4 9857.63 1191.47   1
  -3   3  -4 9679.39 740.901  15
  -3   3  -4 10490.9 861.153  12
  -3   3  -5 2034.21 267.736   8
   3  -3   5 1725.48 508.405   1
  -3   3  -5 1872.77 327.465  12
  -3   3  -6 12582.9 779.499   8
   3  -3   6 12447.3 1404.86   1
  -3   3  -6 12159.0 928.646  12
  -3   3  -7 14482.0 856.521   8
  -3   3  -7 13149.6 997.138  12
  -3   3  -8 1283.39 217.880   8
  -3   3  -9 7526.19 561.227   8
  -3   3 -10 518.300 127.245   8
  -3   3 -10 390.492 160.884  12
  -3   3 -11 35.5422 42.4917   8
  -3   3 -11 9.42218 41.8337  12
  -3   3 -12 829.275 109.977   8
  -3   3 -12 919.866 183.546  12
  -3   3 -13 559.901 100.156  15
   3  -2 -13 590.742 102.501   2
  -3   2  13 523.681 109.775  22
   3  -2 -12-61.3930 43.1712   3
  -3   2  12 69.4750 103.534   6
   3  -2 -12-41.7813 57.0759   2
  -3   2  11-53.6545 136.535   6
  -3   2  10 316.902 150.145  15
  -3   2  10 439.222 194.905   6
  -3   2   9-191.999 164.026   6
  -3   2   9 41.9380 99.2514  15
  -3   2   8 2184.69 334.969  15
  -3   2   8 1809.02 400.681   6
   3  -2  -7 3657.07 402.691  16
  -3   2   7 3511.61 437.877  15
  -3   2   7 4119.51 595.483   6
  -3   2   7 3773.86 783.836  24
   3  -2  -6 5944.08 522.091  16
  -3   2   6 5577.16 559.601  15
  -3   2   6 7726.73 764.701   6
  -3   2   6 5977.98 996.216  24
  -3   2   5 12754.0 1432.80  24
  -3   2   4 1243.15 421.562  24
  -3   2   3 3406.15 680.210  24
  -3   2   2 22139.9 1841.95  24
  -3   2   1 276.311 201.400  24
   3  -2   0 24448.4 1638.71   1
  -3   2   0 21398.4 1770.77  24
   3  -2   1 1102.19 337.263   1
   3  -2   2 28467.7 1977.84   1
   3  -2   3-48.9181 72.7518   1
   3  -2   4 6614.74 899.165   1
   3  -2   5 13109.6 1339.59   1
  -3   2  -6 510.227 133.463   8
  -3   2  -6 453.033 138.378   7
   3  -2   6 865.129 331.678   1
  -3   2  -7 14803.7 856.053   8
   3  -2   7 14924.8 1548.58   1
  -3   2  -7 13959.6 911.131   7
  -3   2  -8 6079.05 494.418   8
  -3   2  -8 6181.93 553.947   7
  -3   2  -9 20582.1 1082.20   8
  -3   2  -9 19370.1 1169.41   7
  -3   2 -10 8164.94 567.010   8
  -3   2 -10 7660.75 625.502   7
   3  -2  11 9247.96 687.111  17
  -3   2 -11 10010.2 623.179   8
   3  -2  12 9888.25 651.586  17
  -3   2 -13 253.523 98.1392  12
   3  -1 -13 3383.16 295.823   3
   3  -1 -13 2936.22 290.115   2
   3  -1 -12 1029.66 191.167   3
  -3   1  12 858.934 215.836   6
   3  -1 -12 954.298 195.494   2
  -3   1  11 438.148 171.926   6
   3  -1 -11 626.212 167.407   2
  -3   1  10 6047.22 578.506  15
  -3   1  10 5823.18 709.333   6
   3  -1 -10 6014.30 443.252  21
  -3   1   9-139.760 106.551  15
  -3   1   9-4.98198 81.4220   6
   3  -1  -9 52.2870 61.7473  21
  -3   1   8 13405.3 941.574  15
  -3   1   8 14627.4 1137.89   6
   3  -1  -8 12786.1 757.874  21
   3  -1  -7 17612.4 1077.49  16
  -3   1   7 19765.0 1177.01  15
   3  -1  -7 18136.3 964.431  21
  -3   1   7 18143.9 1682.46  24
  -3   1   6 12525.7 1306.06  24
  -3   1   5 29308.6 2067.89  24
  -3   1   5 25552.1 1934.41  25
  -3   1   4 341.547 184.182  25
  -3   1   4 617.099 264.709  24
  -3   1   3 45207.1 2610.25  24
  -3   1   3 38216.6 2326.65  25
  -3   1   2 2444.87 444.011  25
  -3   1   2 3250.09 572.110  24
   3  -1  -1 36947.4 2070.06   1
  -3   1   1 35146.1 2008.21  25
  -3   1   1 34125.8 2176.27  24
   3  -1   0 45811.8 2445.33   1
  -3   1   0 41536.2 2516.02  24
  -3   1   0 47123.6 2344.27  25
   3  -1   1 28414.4 1805.10   1
  -3   1  -1 28477.4 1571.79  25
   3  -1   2 78777.3 3820.45   1
   3  -1   3 5083.18 711.937   1
   3  -1   4 22195.5 1702.43   1
   3  -1   5 4487.32 726.008   1
   3  -1   6 2717.03 585.878   1
  -3   1  -7 894.742 189.629   7
   3  -1   7 189.219 187.392   1
   3  -1   8 4876.95 511.902  17
  -3   1  -8 4975.08 420.888   8
   3  -1   8 4757.49 867.669   1
  -3   1  -8 6161.02 529.695   7
   3  -1   9 12588.5 911.816  17
  -3   1  -9 12501.0 755.391   8
  -3   1  -9 13911.9 885.953   7
   3  -1  10 3322.64 424.019  17
  -3   1 -10 3012.25 309.773   8
  -3   1 -10 3253.30 392.440   7
   3  -1  11 14035.9 953.927  17
  -3   1 -11 14418.2 917.428   7
   3  -1  12 8357.01 656.440  17
  -3   1 -12 9034.32 649.299   7
   3  -1  13 365.658 109.155  17
   3  -1  14 243.852 75.4031  17
  -3   1 -14 592.564 111.828  12
   3   0 -14-0.42821 22.5259   3
   3   0 -13 578.951 136.359   2
   3   0 -13 620.236 139.155   3
   3   0 -12 1992.61 294.300   3
   3   0 -12 2124.12 313.083   2
   3   0 -11 281.410 138.792   2
  -3   0  11 117.431 128.454   6
   3   0 -11 250.552 93.7667  21
   3   0 -10 9189.35 753.131   2
  -3   0  10 8164.88 711.479  15
  -3   0  10 9267.50 885.694   6
   3   0 -10 8842.88 599.612  21
  -3   0   9 227.049 119.798  15
  -3   0   9 102.848 113.872   6
   3   0  -9 309.460 102.799  21
  -3   0   8 1604.30 287.265  15
  -3   0   8 1632.11 335.730   6
   3   0  -8 1559.83 230.203  21
   3   0  -7 4545.14 450.402  16
  -3   0   7 3061.58 644.037  25
  -3   0   6-9.94076 105.609  25
  -3   0   6 126.900 135.963  24
  -3   0   5 179.489 165.499  25
  -3   0   5 93.5734 105.089  24
  -3   0   4 2075.70 413.677  25
  -3   0   4 1977.54 424.359  24
  -3   0   3 31101.2 1847.34  25
  -3   0   3 32796.2 1961.75  24
  -3   0   2 5315.24 592.544  25
  -3   0   2 5601.44 666.702  24
   3   0  -2 4748.52 584.841   1
  -3   0   1 27713.7 1551.58  25
  -3   0   1 25811.3 1676.34  24
   3   0  -1 29455.2 1807.40   1
   3   0   0 91346.3 4070.66   1
  -3   0   0 80586.6 3883.73  24
  -3   0   0 85043.8 3617.20  25
  -3   0  -1 204.757 104.260  25
   3   0   1 247.874 144.064   1
   3   0   2 10228.0 984.350   1
  -3   0  -2 11792.5 775.165  25
   3   0   3 30974.2 1955.99   1
   3   0   4 6850.28 841.830   1
   3   0   5 7582.92 955.727   1
   3   0   6 26.8898 96.5209   1
   3   0   7 35537.9 2545.87   1
  -3   0  -8-40.5875 47.0263   7
   3   0   8-15.6568 63.3698  17
   3   0   8-66.9448 165.006   1
   3   0   9 7618.25 679.074  17
   3   0   9 7067.23 1105.27   1
  -3   0  -9 7884.26 630.489   7
   3   0  10 22034.6 1320.86  17
  -3   0 -10 21685.6 1231.53   7
   3   0  11 6591.15 637.134  17
  -3   0 -11 6919.86 588.940   7
   3   0  12 9287.32 755.685  17
  -3   0 -12 9940.00 714.609   7
  -3   0 -13 253.713 100.791   7
   3   0  13 174.293 100.394  17
   3   0  14 8433.80 578.850  17
  -3   0 -14 9771.25 552.737   7
   3   1 -14 1757.05 200.726   3
  -3  -1  13 8516.58 573.299  17
   3   1 -13 9697.32 665.487   2
  -3  -1  12 7630.81 586.247  17
   3   1 -12 8296.13 669.941   3
   3   1 -12 8536.35 552.065  21
   3   1 -12 7994.34 663.325   2
   3   1 -11 614.875 209.811   2
   3   1 -11 609.171 149.581  21
  -3  -1  10 6028.46 673.018   6
   3   1 -10 5661.68 475.808  21
   3   1 -10 4985.80 553.295   2
  -3  -1   9 83.7931 95.8312  15
   3   1  -9-86.6421 85.1382   2
  -3  -1   9 199.138 142.699   6
   3   1  -9-17.6805 60.0004  21
  -3  -1   8-23.3848 146.839  25
  -3  -1   8 272.894 117.271  15
   3   1  -8 290.522 127.160   2
   3   1  -8 313.983 109.193  21
  -3  -1   7 30.7407 86.5454  25
  -3  -1   6 3825.75 634.966  25
  -3  -1   5 37959.0 2295.65  25
  -3  -1   5 40007.9 2126.85  24
  -3  -1   4 590.580 235.164  25
  -3  -1   4 504.853 177.992  24
  -3  -1   3 218179. 8523.46  25
  -3  -1   3 214169. 8433.13  24
  -3  -1   2 68505.2 3041.37  25
  -3  -1   2 65259.2 3019.84  24
  -3  -1   1 35991.0 1837.14  25
  -3  -1   1 35855.9 1904.34  24
   3   1  -1 38252.6 2176.09   1
  -3  -1   0 12152.7 831.097  25
   3   1   0 12831.1 1180.12   1
   3   1   1 14972.2 1254.72   1
  -3  -1  -1 13471.2 851.059  25
   3   1   2 24873.8 1692.66   1
  -3  -1  -2 23779.5 1226.81  25
  -3  -1  -3 23030.8 1165.93  25
   3   1   3 22821.8 1641.16   1
   3   1   4 11556.6 1152.51   1
   3   1   5 24906.0 1886.59   1
   3   1   6 10796.6 1233.63   1
   3   1   7 126234. 6156.13   1
   3   1   8 761.736 354.049   1
   3   1   8 1244.58 249.607  17
   3   1   9 25244.2 1469.95  17
   3   1  10 201.799 132.621  17
   3   1  11 1085.01 251.193  17
  -3  -1 -11 1231.67 239.998   7
   3   1  12 1635.96 313.351  17
  -3  -1 -12 1403.94 248.880   7
   3   1  13 1.70750 75.4253  17
  -3  -1 -13 76.8138 73.6653   7
   3   1  14 1455.64 230.575  17
  -3  -1 -14 1401.27 187.313   7
  -3  -2  14 1537.81 165.121  17
  -3  -2  13 7640.31 549.976  17
   3   2 -13 9563.65 629.867   3
   3   2 -13 7859.02 601.570   2
  -3  -2  12 11214.7 783.631  17
   3   2 -12 12403.7 852.965   3
   3   2 -12 12439.4 875.395   2
   3   2 -12 13365.6 749.540  21
   3   2 -11 1149.61 265.104   2
   3   2 -11 1505.36 233.350  21
   3   2 -10-98.0417 109.578   2
   3   2 -10 369.100 118.118  21
   3   2  -9 49.5989 70.6746   2
   3   2  -9-22.6479 44.9538  21
  -3  -2   8-210.021 182.280  25
   3   2  -8 463.962 162.806   2
   3   2  -8-54.6537 136.257  23
   3   2  -8 303.202 118.263  21
  -3  -2   7 4.11645 39.5384  25
   3   2  -7 416.965 288.686  23
   3   2  -6 5625.68 873.567  23
  -3  -2   6 6302.80 788.166  25
  -3  -2   5 87031.0 4070.33  25
  -3  -2   4 536.475 219.944  25
   3   2  -4 750.733 262.257  23
  -3  -2   3 195284. 7798.50  25
   3   2  -3 196039. 7870.61  23
  -3  -2   2 55232.9 2640.68  25
   3   2  -2 55574.9 2616.00  23
  -3  -2   1 46808.8 2242.51  25
  -3  -2   0 2725.15 373.070  25
   3   2   0 2332.08 483.629   1
   3   2   1 954.709 335.828   1
  -3  -2  -1 1508.39 262.439  25
  -3  -2  -2 3075.32 356.414  25
   3   2   2 3188.82 591.567   1
   3   2   3 3692.12 654.946   1
  -3  -2  -3 3090.64 351.614  25
   3   2   4 4023.69 698.710   1
  -3  -2  -4 3571.62 373.582  25
   3   2   5 13573.3 1395.07   1
  -3  -2  -5 14319.5 867.186  25
   3   2   6 28308.7 2198.26   1
   3   2   7 55193.5 3467.38   1
   3   2   8 201.636 129.276  17
   3   2   8-159.334 166.608   1
   3   2   9 38631.7 2031.20  17
   3   2  10 2108.15 365.751  17
   3   2  11 837.417 252.313  17
   3   2  12 806.939 238.968  17
  -3  -2 -12 1131.38 215.175   7
  -3  -2 -13 87.9530 63.0432   7
   3   2  13-57.5361 89.3534  17
   3   2  14 108.809 81.3985  17
  -3  -2 -14 149.405 60.9103   7
  -3  -3  14 96.4411 45.7839  17
  -3  -3  13 26.0542 62.6896  17
   3   3 -13 59.4667 66.3881   2
   3   3 -13-31.6173 52.7880   3
   3   3 -13 62.9008 42.0974  14
   3   3 -12 4151.98 424.461   3
   3   3 -12 3765.39 439.178   2
   3   3 -12 4028.44 350.834  21
   3   3 -11 244.731 136.102   3
   3   3 -11 393.205 159.871   2
   3   3 -11 391.735 125.574  21
   3   3 -10 2557.26 397.816   2
   3   3 -10 2877.26 333.102  21
   3   3  -9 2129.51 350.269   2
   3   3  -9 2157.46 294.229  21
   3   3  -8 5703.43 1109.19  23
   3   3  -8 6455.97 640.510   2
   3   3  -8 6162.50 509.277  21
   3   3  -7 1264.30 487.751  23
  -3  -3   7 970.167 320.742  25
   3   3  -7 1160.11 205.563  21
  -3  -3   6 434.686 205.358  25
   3   3  -6 119.386 283.335  23
  -3  -3   5 8793.67 905.457  25
   3   3  -5 9800.08 1159.51  23
  -3  -3   4 473.538 191.642  25
   3   3  -4 415.863 226.316  23
  -3  -3   3 8559.72 801.087  25
   3   3  -3 7919.39 904.936  23
  -3  -3   2 18911.0 1236.06  25
  -3  -3   1 66855.4 2978.84  25
   3   3   0 46351.2 2101.89  18
  -3  -3   0 50598.4 2245.35  25
  -3  -3  -1 10902.1 757.261  25
  -3  -3  -2 47765.5 2141.66  25
   3   3   2 43679.5 2700.28   1
  -3  -3  -3 22083.8 1229.69  25
   3   3   3 23295.1 1840.68   1
  -3  -3  -4 579.516 163.170  25
   3   3   4 539.574 311.501   1
  -3  -3  -5 10535.9 785.964  25
   3   3   5 10483.6 1298.40   1
  -3  -3  -6 5424.62 548.694  25
   3   3   6 6552.39 1006.37   1
   3   3   8 350.760 178.165  17
   3   3   8 269.264 227.780  24
   3   3   9 23353.4 1475.41  17
   3   3  10 17754.5 1231.42  17
   3   3  11 3149.68 460.418  17
   3   3  12 23529.2 1417.58  17
   3   3  13 656.224 193.208  17
  -3  -3 -13 573.672 131.806   7
   3   3  14 3531.13 356.020  17
  -3  -3 -14 3416.01 279.239   7
  -3  -4  13 2288.42 259.527  17
   3   4 -13 1810.14 191.335  14
   3   4 -13 1655.14 214.054   2
  -3  -4  12 638.276 160.204  17
   3   4 -12 477.024 149.308   2
   3   4 -12 332.702 113.179   3
   3   4 -12 404.417 94.8870  21
   3   4 -11 851.871 227.444   2
   3   4 -11 1004.85 203.624   3
   3   4 -11 1301.02 197.153  21
   3   4 -10 14229.7 953.090   3
   3   4 -10 13371.8 1022.15   2
   3   4 -10 15644.5 870.110  21
   3   4  -9 3693.26 493.443   2
   3   4  -9 4144.79 473.784   3
   3   4  -9 4231.86 405.883  21
   3   4  -8 25017.3 2659.44  23
   3   4  -8 25422.4 1544.08   2
   3   4  -8 26467.2 1325.12  21
   3   4  -7 15615.0 1938.73  23
   3   4  -7 16404.6 931.891  21
  -3  -4   6 1992.19 435.957  25
   3   4  -6 1897.06 611.315  23
  -3  -4   5 10509.5 993.448  25
  -3  -4   4 2447.77 439.087  25
  -3  -4   3 13551.4 1047.41  25
  -3  -4   2 1905.97 334.969  25
  -3  -4   1 71380.7 3047.80  25
   3   4  -1 62462.6 3128.07  18
  -3  -4   0 37462.1 1877.63  25
   3   4   0 36631.0 1959.47  18
  -3  -4  -1 26619.0 1488.43  25
  -3  -4  -2 79337.4 3463.96  25
  -3  -4  -3 4130.98 505.331  25
   3   4   3 4990.82 564.754  24
  -3  -4  -4 10134.4 841.597  25
   3   4   4 9464.77 904.638  24
  -3  -4  -5 1347.83 292.496  25
   3   4   5 1497.18 333.391  24
  -3  -4  -6 1463.46 307.908  25
   3   4   6 1327.59 381.436  24
   3   4   7 1387.15 389.718  24
   3   4   7 1845.91 329.889  17
   3   4   8 313.008 141.591  17
   3   4   8 235.374 170.096  24
   3   4   9 17197.6 1236.69  17
   3   4  10 309.366 153.658  17
   3   4  11 6288.35 668.032  17
   3   4  12 2717.98 384.475  17
  -3  -4 -13 1041.29 159.956   7
   3   4  13 817.704 192.995  17
   3   4  14 457.648 95.3725   5
  -3  -4 -14 438.584 83.2358   7
  -3  -5  13 1426.38 180.191  17
   3   5 -13 1456.15 150.175  14
   3   5 -12 49.9443 62.2343   2
  -3  -5  12 80.5728 74.8596  17
   3   5 -12 118.257 61.6265  14
   3   5 -11 267.358 129.706   2
   3   5 -11 212.312 70.9959  21
   3   5 -10 255.150 117.068  13
   3   5 -10 114.063 119.369   2
   3   5 -10 403.850 109.969  21
   3   5  -9 79.5502 123.817   2
   3   5  -9 137.992 109.179  13
   3   5  -9 20.7959 49.7685  21
   3   5  -8 5.60540 84.6755   2
   3   5  -8 116.319 81.3252  21
   3   5  -7 8762.09 615.723  21
  -3  -5   5 13683.7 1163.80  25
  -3  -5   4 621.903 229.846  25
  -3  -5   3 8747.33 814.575  25
   3   5  -2 9615.28 1072.06  18
  -3  -5   2 10979.4 884.281  25
  -3  -5   1 2778.20 400.990  25
   3   5  -1 2260.73 461.877  18
   3   5   0 15319.6 1273.90  18
  -3  -5   0 15176.2 1085.19  25
  -3  -5  -1 346.044 160.952  25
  -3  -5  -2 20709.1 1381.77  25
   3   5   3 2379.80 552.573  19
  -3  -5  -3 2475.11 428.017  25
  -3  -5  -4 13714.2 1113.43  25
  -3  -5  -5 10752.3 981.083  25
   3   5   6 350.180 128.843  11
   3   5   6 158.191 117.710  17
  -3  -5  -6 102.308 104.332  25
   3   5   6 5.50728 87.5731  22
   3   5   7 10682.9 920.524  17
  -3  -5  -7 11006.0 1002.97  25
   3   5   7 12503.3 1266.05  24
   3   5   7 9792.25 812.014  22
   3   5   8 6950.73 713.006  17
   3   5   8 4712.33 526.765  22
   3   5   9 9613.19 867.870  17
   3   5  10 13622.6 1028.76  17
   3   5  11 7454.43 671.503  17
   3   5  11 6802.59 624.256   5
   3   5  12 7558.76 595.273  17
   3   5  12 8709.70 633.148   5
  -3  -5 -13 362.765 82.1216   7
   3   5  13 313.435 94.2522   5
  -3  -6  12 3770.56 326.591  17
   3   6 -12 4549.32 316.003  14
   3   6 -11 266.270 115.599   2
   3   6 -11 463.448 115.470  14
   3   6 -10 1994.80 310.004   2
   3   6 -10 2321.90 270.158  13
   3   6  -9 217.706 135.823   2
   3   6  -9 204.248 113.470  13
   3   6  -8 1593.98 314.246   2
   3   6  -8 1415.56 291.189  13
   3   6  -7 804.235 232.071   2
   3   6  -7 675.207 220.225  13
   3   6  -6 8604.47 805.354  13
   3   6  -5 13581.2 1823.04  19
   3   6  -5 15949.4 1118.41  13
   3   6  -4 769.501 399.870  19
   3   6  -4 960.297 406.006  18
  -3  -6   4 193.826 133.518  25
   3   6  -4 156.581 88.5146  22
   3   6  -3 51980.1 3351.39  18
  -3  -6   3 54341.3 2830.00  25
   3   6  -2 5812.88 942.212  18
  -3  -6   2 7010.35 726.621  25
   3   6  -1 7943.45 1024.29  18
  -3  -6   1 7969.19 777.773  25
   3   6   0 14036.8 1573.50  19
  -3  -6   0 15021.1 1140.47  25
   3   6   1 345.760 253.556  19
  -3  -6  -1 564.573 222.107  25
   3   6   2 1644.61 505.463  19
  -3  -6  -2 1755.95 381.118  25
   3   6   3 334.448 130.623  11
  -3  -6  -3 277.993 164.666  25
   3   6   3 428.617 191.385  22
   3   6   3 378.419 147.847   5
  -3  -6  -4 15908.5 1267.36  25
   3   6   4 13296.0 1004.74  22
   3   6   4 12498.1 938.275   5
   3   6   4 14172.5 930.355  11
   3   6   5 361.810 138.494  11
  -3  -6  -5 468.270 212.159  25
   3   6   5 358.136 170.788  22
   3   6   5 133.670 115.804   5
  -3  -6  -6 6856.15 817.038  25
   3   6   6 5980.45 648.622  22
   3   6   6 6691.05 683.408   5
   3   6   6 6351.18 580.084  11
   3   6   7 8726.06 797.580  22
   3   6   7 10607.9 889.769   5
   3   6   7 10939.4 768.819  11
   3   6   8 1052.59 266.227   5
   3   6   8 1234.79 273.284  22
   3   6   9 4498.17 485.676  22
   3   6   9 4274.34 512.249   5
   3   6  10 6117.63 525.661  22
   3   6  10 6360.31 593.183   5
   3   6  11 833.013 191.119   5
   3   6  12 1494.57 205.616   5
   3   7 -11 30.0361 34.0189  14
  -3  -7  10 2293.20 260.949  17
   3   7 -10 2202.18 269.509   2
   3   7 -10 2750.14 274.068  14
   3   7 -10 2115.17 205.670  13
   3   7  -9 124.261 74.3353  14
   3   7  -9 131.360 74.3744  13
   3   7  -8 218.286 133.886   2
   3   7  -8 221.384 122.746  14
   3   7  -8 278.877 119.373  13
   3   7  -7 148.710 105.809   2
   3   7  -7 72.9770 82.6732  13
   3   7  -6 14.4942 42.2517   2
   3   7  -6-67.8956 112.288  13
   3   7  -5 4204.09 522.550  13
   3   7  -4 567.709 192.543  13
   3   7  -3 35937.0 2776.64  18
   3   7  -3 38945.6 1764.32  22
   3   7  -3 36595.2 1935.76  13
   3   7  -2 6665.22 587.603  20
   3   7  -2 6547.37 1153.69  19
   3   7  -2 6389.61 1026.52  18
   3   7  -2 5822.17 577.285  13
   3   7  -2 5534.07 516.797  22
  -3  -7   2 5855.86 723.655  25
   3   7  -2 7126.66 608.311  11
   3   7  -1 15003.3 950.154  20
   3   7  -1 13693.9 916.659  10
   3   7  -1 15428.1 1778.33  19
   3   7  -1 13267.2 909.526  13
   3   7  -1 13172.3 895.384  22
  -3  -7   1 14194.6 1161.03  25
   3   7  -1 15297.6 990.857  11
   3   7   0 11063.5 800.491  20
   3   7   0 11696.7 820.670  10
   3   7   0 11592.5 1464.18  19
   3   7   0 11399.5 790.090  13
  -3  -7   0 12481.1 1069.33  25
   3   7   0 10258.6 801.076  22
   3   7   0 12340.7 884.635  11
   3   7   1 1008.85 237.670  11
   3   7   1 1120.17 235.173  20
   3   7   1 1359.84 506.938  19
   3   7   1 1385.13 255.504  10
   3   7   1 1302.16 264.061  22
  -3  -7  -1 1505.32 364.402  25
   3   7   2 3552.05 441.332  10
   3   7   2 2995.12 685.011  19
   3   7   2 3355.85 433.308   5
  -3  -7  -2 3450.58 554.622  25
   3   7   2 3185.48 428.725  22
   3   7   2 3334.37 440.449  11
   3   7   3 1150.36 244.558  11
  -3  -7  -3 1281.49 341.188  25
   3   7   3 763.692 214.567  22
   3   7   3 820.381 226.101   5
   3   7   4 31.7145 74.2092  11
   3   7   4-89.8612 116.355  22
   3   7   4 165.065 121.624   5
   3   7   5 6853.59 703.905  22
   3   7   5 7343.89 709.212   5
   3   7   5 6742.48 626.339  11
   3   7   6 840.886 228.051  11
   3   7   6 1035.50 273.566  22
   3   7   6 888.636 249.289   5
   3   7   7 31361.6 1799.93  22
   3   7   7 32073.8 1828.82   5
   3   7   7 36925.7 1737.09  11
   3   7   8-38.5625 89.3586  22
   3   7   8 337.313 151.387   5
   3   7   9 7534.14 619.262  22
   3   7   9 8024.70 658.757   5
   3   7  10 583.464 140.512  22
   3   7  10 822.947 175.105   5
   3   7  11 304.699 94.2400   5
   3   8  -9 131.268 56.6392  14
   3   8  -9 153.955 55.4029  13
   3   8  -8 36.7410 44.6521  14
   3   8  -8 62.0347 56.3437  13
   3   8  -7 2040.73 310.806   2
   3   8  -7 2364.29 280.126  14
   3   8  -7 2315.66 300.405  13
   3   8  -6 74.1340 69.1377   2
   3   8  -6 19.9720 44.0374  14
   3   8  -6-7.12524 61.1709  13
   3   8  -5 7330.71 639.456  13
   3   8  -4 279.534 131.665  13
   3   8  -3 14305.0 945.595  13
   3   8  -2 3988.15 399.340  22
   3   8  -2 3385.25 399.788  13
   3   8  -1 4923.83 504.723  10
   3   8  -1 4332.50 458.102  22
   3   8  -1 4472.61 445.971  13
   3   8  -1 4983.43 504.180  11
   3   8   0 1788.67 311.133  11
   3   8   0 1852.03 301.262  10
   3   8   0 1798.59 267.072  13
   3   8   0 1382.69 265.441  22
   3   8   1-165.101 123.638  11
   3   8   1-132.858 109.148  10
   3   8   1-52.4857 79.7823  22
   3   8   2 778.888 233.239  11
   3   8   2 698.188 203.208  22
   3   8   3 220.433 135.180  11
   3   8   3 96.1490 108.405  22
   3   8   4 1313.69 271.616  11
   3   8   4 1355.19 286.352  22
   3   8   4 1318.80 293.667   5
   3   8   5 7930.21 723.574  22
   3   8   5 8141.65 735.998   5
   3   8   5 7727.13 660.952  11
   3   8   6 138.319 114.061  11
   3   8   6-56.4611 105.632  22
   3   8   6 40.0618 95.9582   5
   3   8   7 16146.4 1041.53  22
   3   8   7 16499.5 1059.02   5
   3   8   8 601.044 156.921  22
   3   8   8 850.815 188.158   5
   3   8   9 4660.00 394.934  22
   3   8   9 4417.41 396.915   5
   3   8  10 24.9324 39.9491  22
   3   9  -8 4080.73 265.267  13
   3   9  -7 1586.21 191.820  13
   3   9  -6 482.902 117.695  13
   3   9  -5 10633.3 693.458  13
   3   9  -4 452.208 129.632  13
   3   9  -3 2161.62 283.426  13
   3   9  -2 747.883 161.415  13
   3   9  -1 2849.74 311.663  13
   3   9  -1 2913.39 332.017  22
   3   9   0 1594.28 219.925  13
   3   9   0 1665.93 256.301  22
   3   9   1 129.113 122.107  11
   3   9   1 66.3724 82.4752  22
   3   9   2 9416.11 707.281  22
   3   9   2 10803.9 790.145  11
   3   9   3 99.1597 118.768  11
   3   9   3 145.167 103.277  22
   3   9   4 3324.18 398.156  22
   3   9   4 4201.03 445.053  11
   3   9   5 363.550 142.252  22
   3   9   6 2419.10 306.843  22
   3   9   7 110.308 77.5137  22
   3   9   8-13.0354 42.9088  22
   3  10  -5 807.016 119.076  13
   3  10  -4 74.3494 49.3051  13
   3  10  -3 159.649 66.7416  13
   3  10  -2 1373.16 166.578  13
   3  10  -1 2037.75 202.224  13
   3  10   1 229.269 76.5414  22
   3  10   2 4435.17 353.635  22
   3  10   3 1402.41 190.439  22
   3  10   4 325.373 95.3194  22
   3  10   5 1797.10 199.799  22
   3  10   6 83.7760 46.2658  22
  -4   6   5-30.9514 47.3217  11
  -4   6   4 58.3184 52.9344  11
  -4   6   4 106.201 50.1516  15
  -4   6   3 367.789 88.4805  15
  -4   6   2 1760.73 206.389  15
  -4   6   1 5157.51 420.396  10
  -4   6   1 5113.24 386.916  15
  -4   6   0 7114.18 524.753  10
  -4   6   0 5268.77 408.055  15
  -4   6  -1 2787.11 323.361  10
  -4   6  -1 1887.64 228.634  15
  -4   6  -2 18255.0 980.352  10
  -4   6  -2 12988.3 757.134  15
  -4   6  -3-47.5210 68.6369  10
  -4   6  -3 113.033 61.5037  15
  -4   6  -4 101.776 92.0785  10
  -4   6  -4-24.5856 42.6644  15
  -4   6  -5-54.7997 61.4758  10
  -4   6  -5 2.18686 33.0097   9
  -4   6  -5-1.99463 22.4316  15
  -4   6  -6 18.9366 46.4187  10
  -4   5   8 2833.34 219.250  15
  -4   5   7 254.241 87.7375  11
  -4   5   7 194.528 76.5359  22
  -4   5   6 268.070 92.0363  15
  -4   5   5 350.161 117.330  15
  -4   5   4 202.644 100.384  15
  -4   5   3 8313.31 632.158  15
  -4   5   2 5565.85 518.094  15
  -4   5   1 4095.38 470.041  10
  -4   5   1 4227.66 454.853  15
  -4   5   0 6372.77 575.821  15
  -4   5  -1 2346.94 331.538   9
  -4   5  -1 1829.24 290.925  15
  -4   5  -2 15969.1 993.522   9
  -4   5  -2 15776.7 977.188  15
  -4   5  -3 165.042 104.177   9
  -4   5  -3-105.101 91.2050  15
  -4   5  -4 1820.42 285.114   9
  -4   5  -4 2105.26 239.672   8
  -4   5  -4 1955.36 282.569  15
  -4   5  -5-22.0893 39.3670   8
  -4   5  -5-153.891 90.1298  15
  -4   5  -6 718.352 148.676  15
  -4   5  -6 929.809 190.182   9
  -4   5  -6 799.782 134.931   8
  -4   5  -7 171.430 62.2206   8
  -4   5  -7 135.185 73.5168  15
  -4   5  -8 3252.67 280.601   9
  -4   5  -8 3000.69 247.122   8
  -4   4  10 928.596 141.708  22
  -4   4   9 1522.30 240.331   6
  -4   4   9 1342.12 207.143  22
  -4   4   8 3236.89 405.367   6
  -4   4   8 4939.58 399.356  15
  -4   4   7 7502.95 553.480  15
  -4   4   7 5381.13 573.329   6
  -4   4   6 2197.57 300.794  15
  -4   4   6 1415.05 297.130   6
  -4   4   5 3389.52 400.776  15
  -4   4   5 2871.12 444.512   6
  -4   4   4 71.8123 103.913  15
  -4   4   4 100.280 130.254   6
  -4   4   3 15956.7 1060.68  15
  -4   4   2 1717.87 318.140  15
  -4   4   1 3111.83 438.534  15
  -4   4   0 2569.34 370.772   9
  -4   4   0 2542.92 394.740  15
  -4   4  -1 1170.22 250.794   9
  -4   4  -1 1012.44 236.069  15
  -4   4  -2 2494.87 365.699   9
  -4   4  -2 2595.09 297.995   8
  -4   4  -2 2864.09 387.191  15
  -4   4  -3 21588.3 1258.39   9
  -4   4  -3 21622.0 1123.96   8
  -4   4  -3 21981.6 1274.73  15
  -4   4  -4 35659.7 1835.67   9
  -4   4  -4 37355.6 1671.70   8
  -4   4  -4 37164.1 1830.78  15
  -4   4  -5 4021.56 366.875   8
  -4   4  -5 3396.16 411.116  15
  -4   4  -6 6109.62 471.224   8
  -4   4  -6 6659.81 567.396  15
  -4   4  -7 16496.4 877.194   8
  -4   4  -7 16918.9 1013.37  15
  -4   4  -8 574.521 120.194   8
  -4   4  -8 524.754 139.214  15
  -4   4  -9 1333.03 164.903   8
  -4   4  -9 1424.62 208.972  15
  -4   4 -10 100.556 41.4646   8
  -4   4 -10 94.4875 58.2912  15
  -4   3  11 28.6497 46.9160   6
  -4   3  11 211.171 83.4065  22
  -4   3  10 727.359 185.090   6
  -4   3   9 1324.76 207.318  15
  -4   3   9 989.935 252.854   6
  -4   3   8 15542.9 916.810  15
  -4   3   8 13972.1 1090.12   6
  -4   3   7 5981.63 547.051  15
  -4   3   7 6835.28 735.247   6
   4  -3  -6 3280.41 349.471  16
  -4   3   6 3367.88 404.848  15
  -4   3   6 3349.89 507.496   6
   4  -3  -5 3734.56 387.810  16
  -4   3   5 4605.85 484.449  15
  -4   3   5 3970.42 553.454   6
   4  -3  -4 996.873 193.140  16
  -4   3   4 1030.78 243.219  15
  -4   3   4 1094.12 296.361   6
  -4   3   3 23003.2 1394.73  15
  -4   3   3 26122.9 1583.36   6
  -4   3   2 2111.60 353.274  15
  -4   3   1 4767.72 539.455  15
  -4   3   0 4756.01 531.377  15
  -4   3  -1 1221.51 203.509   8
  -4   3  -1 1452.87 281.579  15
  -4   3  -2 14392.1 855.057   8
  -4   3  -2 14938.9 1007.42  15
  -4   3  -3 27391.4 1341.08   8
  -4   3  -3 26813.0 1485.63  15
  -4   3  -4 116.760 95.2877  15
  -4   3  -4 189.302 88.2174   8
  -4   3  -5 1122.82 197.256   8
  -4   3  -5 1056.42 228.732  15
  -4   3  -5 1567.08 288.016  12
  -4   3  -6 5039.27 430.879   8
  -4   3  -6 4967.71 511.879  15
  -4   3  -6 4175.79 492.673  12
  -4   3  -7 7647.15 540.651   8
  -4   3  -7 7465.98 636.040  15
  -4   3  -7 6335.83 597.920  12
  -4   3  -8 1335.53 201.089   8
  -4   3  -8 1278.39 248.994  15
  -4   3  -8 835.362 206.710  12
  -4   3  -9 874.666 151.408   8
  -4   3  -9 817.408 178.335  15
  -4   3  -9 654.485 168.356  12
  -4   3 -10 510.276 103.507   8
  -4   3 -10 462.371 127.738  15
  -4   3 -10 212.981 91.6627  12
  -4   3 -11 206.863 58.5463   8
  -4   3 -11 102.056 50.8768  12
  -4   2  12 1836.04 214.449  22
  -4   2  11 799.235 190.004   6
   4  -2 -11 673.175 109.888   3
  -4   2  10 4342.20 388.124  15
  -4   2  10 4543.49 538.181   6
  -4   2   9-42.5929 59.9296  15
  -4   2   9-13.2216 128.209   6
  -4   2   8 2119.74 305.102  15
  -4   2   8 1845.29 394.267   6
   4  -2  -7 1821.72 282.929  16
  -4   2   7 2016.34 303.840  15
  -4   2   7 1449.09 366.711   6
  -4   2   6 828.303 203.961  15
   4  -2  -6 834.664 198.183  16
  -4   2   6 775.768 273.956   6
   4  -2  -5 1027.22 201.507  16
  -4   2   5 1031.42 229.954  15
  -4   2   5 1019.95 288.518   6
   4  -2  -4 4128.43 428.922  16
  -4   2   4 3802.10 437.008  15
  -4   2   4 4447.62 561.977   6
  -4   2   4 3573.00 784.945  24
  -4   2   3 568.866 161.611  15
  -4   2   3 887.222 367.569  24
  -4   2   2 13463.1 908.504  15
  -4   2   2 12406.6 1557.87  24
  -4   2   1 29345.7 1525.43  15
  -4   2   1 27152.7 2390.90  24
  -4   2   0 33174.9 1521.75   8
  -4   2   0 33402.1 1696.17  15
  -4   2  -1 853.817 202.837  15
  -4   2  -1 1123.58 188.446   8
   4  -2   2 57102.2 3543.54   1
  -4   2  -2 53434.9 2243.44   8
  -4   2  -2 48350.7 2348.44  15
   4  -2   3 2431.76 642.635   1
  -4   2  -3 3190.16 333.910   8
  -4   2  -3 2460.39 350.278  15
   4  -2   4 7773.14 1153.02   1
  -4   2  -4 7770.37 563.122   8
  -4   2  -4 5692.47 557.233  15
  -4   2  -5 45.5049 54.2551   8
  -4   2  -5 12.0072 52.3854  15
  -4   2  -6 1808.49 250.171   8
  -4   2  -7 228.580 90.0692   8
  -4   2  -7 73.1205 116.681  12
  -4   2  -8 2345.91 273.924   8
  -4   2  -8 2199.89 333.744  12
  -4   2  -9 21591.7 1283.44  12
  -4   2  -9 25022.6 1164.58   8
  -4   2 -10 1273.15 175.956   8
  -4   2 -10 608.324 169.951  12
  -4   2 -11 6200.03 379.682   8
  -4   2 -11 6744.83 515.325  15
  -4   2 -11 5228.81 444.574  12
  -4   2 -12 7035.80 490.380  15
   4  -1 -12 49.3236 52.5611   3
  -4   1  12 21.2278 42.1759   6
  -4   1  11 2898.49 396.415   6
  -4   1  10 11707.8 742.950  15
  -4   1  10 11804.9 970.970   6
   4  -1 -10 11497.0 599.987  21
  -4   1   9-20.4189 89.6736  15
  -4   1   9-37.2538 115.664   6
   4  -1  -9 94.7075 49.3397  21
  -4   1   8 8189.80 664.409  15
  -4   1   8 9049.95 887.731   6
   4  -1  -7 6986.36 611.069  16
  -4   1   7 6060.75 572.322  15
  -4   1   7 7428.55 777.605   6
   4  -1  -6 188.718 117.486  16
  -4   1   6 135.512 97.8077  15
   4  -1  -5 224.041 103.955  16
  -4   1   5 20.2544 72.4394  15
  -4   1   5 182.913 184.724  24
  -4   1   4 171.424 161.207  25
  -4   1   4 32.3545 129.536  24
  -4   1   4-29.8454 74.3699  15
  -4   1   3 4414.83 732.637  25
  -4   1   3 5328.58 863.281  24
  -4   1   2 4349.25 694.329  25
  -4   1   2 4656.03 819.660  24
  -4   1   1 28631.2 1972.62  25
  -4   1   1 29895.1 2290.20  24
   4  -1   0 27020.4 2078.59   1
   4  -1   1 13475.7 1442.02   1
   4  -1   2 48913.6 3170.72   1
   4  -1   3 6609.10 1062.56   1
   4  -1   4 9894.12 1299.23   1
   4  -1   5 1353.06 468.919   1
  -4   1  -5 1839.44 247.851   8
   4  -1   6 399.812 285.435   1
  -4   1  -6 609.878 139.872   8
  -4   1  -7 652.999 141.710   8
  -4   1  -7 693.004 178.716   7
  -4   1  -8 2203.83 262.298   8
  -4   1  -8 1991.68 317.515   7
  -4   1  -9 3347.55 315.927   8
  -4   1  -9 3390.21 409.051   7
   4  -1  10 1251.17 239.722  17
  -4   1 -10 1352.93 181.452   8
   4  -1  11 6741.86 554.446  17
  -4   1 -13 95.4376 52.3198  15
   4   0 -13 262.587 69.8627   3
   4   0 -12 2295.85 263.082   3
  -4   0  12 1262.92 207.719   6
  -4   0  11 2300.23 362.978   6
   4   0 -11 2439.64 234.039  21
  -4   0  10 9630.52 690.865  15
  -4   0  10 10101.8 891.089   6
   4   0 -10 9711.16 588.788  21
  -4   0   9 857.531 195.744  15
  -4   0   9 626.049 225.422   6
   4   0  -9 705.075 144.899  21
  -4   0   8 36887.2 1848.66  15
   4   0  -8 36021.7 1663.94  21
   4   0  -7 508.172 163.511  16
  -4   0   7 651.310 179.592  15
   4   0  -7 680.116 138.729  21
   4   0  -6 1029.36 218.519  16
  -4   0   6 960.924 218.515  15
  -4   0   6 699.546 309.400  25
   4   0  -6 884.281 162.283  21
   4   0  -5 1386.45 242.165  16
  -4   0   5 674.285 311.988  25
  -4   0   4-44.2070 90.2435  25
  -4   0   4 425.975 223.957  24
  -4   0   3 463.269 234.234  25
  -4   0   3 1118.94 347.953  24
  -4   0   2 10527.5 1018.69  25
  -4   0   2 10511.8 1157.91  24
  -4   0   1 22404.8 1543.11  25
   4   0  -1 22855.0 1778.54   1
  -4   0   0 22818.8 1517.57  25
   4   0   0 22992.5 1882.74   1
   4   0   1 24173.5 1947.44   1
  -4   0  -1 24274.3 1531.67  25
   4   0   2 80521.7 4308.26   1
   4   0   3 37978.5 2649.42   1
   4   0   4 811.438 358.686   1
   4   0   5 2872.48 699.812   1
   4   0   6 455.425 284.040   1
  -4   0  -6 330.832 94.8228   8
  -4   0  -6 354.956 124.269   7
   4   0   7 1232.73 494.837   1
   4   0   7 1130.66 265.260  17
  -4   0  -7 1137.65 178.999   8
  -4   0  -7 1093.51 219.974   7
   4   0   8-52.7907 107.760  17
  -4   0  -8 89.5929 76.9427   7
   4   0   9 9989.81 813.943  17
  -4   0  -9 9912.44 748.154   7
  -4   0 -10 668.380 173.522   7
   4   0  10 519.088 177.608  17
   4   0  11 7081.10 629.831  17
  -4   0 -11 6840.89 581.024   7
   4   0  12 8802.46 648.866  17
  -4   0 -12 7846.43 588.112   7
   4   0  13 1997.35 243.352  17
   4   1 -13 416.144 97.8235   3
   4   1 -12 5744.33 474.052   3
   4   1 -12 6029.28 395.273  21
  -4  -1  11 347.720 154.537   6
   4   1 -11 240.940 85.0109  21
  -4  -1  10 3573.19 504.642   6
   4   1 -10 3654.08 353.453  21
  -4  -1   9 953.433 207.389  15
  -4  -1   9 1298.60 301.569   6
   4   1  -9 991.218 189.176  21
  -4  -1   8 446.878 153.541  15
   4   1  -8 381.694 123.115  21
   4   1  -7 5317.23 523.584  16
  -4  -1   7 6071.11 551.967  15
  -4  -1   7 5116.28 890.461  25
   4   1  -7 5187.50 447.991  21
   4   1  -6 7822.69 633.464  16
  -4  -1   6 8212.15 661.195  15
  -4  -1   6 7391.84 1032.29  25
   4   1  -6 7881.86 563.313  21
  -4  -1   5 7217.63 960.223  25
  -4  -1   4 1186.49 369.937  25
  -4  -1   3 3205.79 536.914  25
  -4  -1   2 36106.9 2082.49  25
  -4  -1   1 11194.0 952.371  25
   4   1  -1 9757.85 1146.85   1
  -4  -1   0 34134.3 1913.38  25
   4   1   0 37478.6 2561.29   1
   4   1   1 1954.68 532.688   1
  -4  -1  -1 1667.41 325.107  25
   4   1   2 18918.8 1721.24   1
  -4  -1  -2 19685.8 1234.55  25
   4   1   3 22362.4 1925.80   1
   4   1   4 42330.1 2928.53   1
   4   1   5 2280.58 616.412   1
   4   1   6 4815.90 934.041   1
   4   1   7 3126.93 448.748  17
  -4  -1  -7 3231.05 370.218   7
   4   1   7 4031.14 886.675   1
   4   1   8 3252.98 461.694  17
  -4  -1  -8 3709.56 407.517   7
   4   1   8 3359.06 844.998   1
   4   1   9 34436.2 1880.32  17
  -4  -1  -9 35996.2 1764.81   7
   4   1  10 2000.67 348.405  17
  -4  -1 -10 2020.22 301.592   7
   4   1  11 7736.94 687.824  17
  -4  -1 -11 6820.13 581.413   7
   4   1  12 7687.85 664.237  17
  -4  -1 -12 7869.69 590.885   7
   4   1  13 16.7709 44.4934  17
  -4  -1 -13-41.5729 48.7655   7
   4   2 -13 23390.2 1092.66   3
  -4  -2  12 263.913 89.0475  17
   4   2 -12 426.738 129.290   3
   4   2 -12 380.333 96.1289  21
   4   2 -11 1547.91 220.915  21
   4   2 -10 5711.65 479.460  21
  -4  -2   9 42.2141 96.1220   6
   4   2  -9 52.0674 63.1433  21
   4   2  -8 1066.56 200.771  21
  -4  -2   7 1743.78 510.158  25
   4   2  -7 1920.20 274.722  21
   4   2  -6 2397.88 330.772  16
  -4  -2   6 3027.08 637.648  25
   4   2  -6 3455.05 360.774  21
  -4  -2   5 7867.76 987.382  25
  -4  -2   4 444.104 208.054  25
  -4  -2   3 227957. 9285.27  25
  -4  -2   2 82998.2 3910.61  25
  -4  -2   1 9926.77 912.928  25
   4   2   0 15135.9 1471.79   1
  -4  -2   0 13254.9 1059.39  25
  -4  -2  -1 4993.87 573.974  25
   4   2   1 5012.82 867.769   1
  -4  -2  -2 2721.33 405.165  25
   4   2   2 2643.51 640.167   1
  -4  -2  -3 5493.64 568.789  25
   4   2   3 5924.80 958.140   1
   4   2   4 18846.5 1871.26   1
   4   2   5 3379.34 781.234   1
   4   2   6 16026.0 1851.43   1
   4   2   7 30489.1 2787.86   1
   4   2   7 32962.6 1858.76  17
  -4  -2  -7 35660.0 1654.70   7
   4   2   8 52867.3 2585.90  17
  -4  -2  -8 52612.0 2334.80   7
   4   2   8 48100.3 3698.99   1
   4   2   9 12532.9 970.222  17
  -4  -2  -9 11280.9 793.643   7
   4   2  10 4756.61 563.420  17
  -4  -2 -10 5007.83 488.818   7
   4   2  11 412.507 164.880  17
  -4  -2 -11 189.644 113.103   7
   4   2  12 27.8549 88.7545  17
  -4  -2 -12 11.2335 56.0539   7
   4   2  13 33.6741 67.3042  17
  -4  -2 -13 57.9796 53.9722   7
   4   2  14 3365.86 301.875  17
  -4  -3  13 26.2427 32.7454  17
   4   3 -13 103.936 47.1050   3
  -4  -3  12 6006.72 466.601  17
   4   3 -12 7004.95 519.437   3
   4   3 -12 7735.14 463.447  21
   4   3 -11 2215.81 303.891   3
   4   3 -11 2608.08 276.766  21
   4   3 -10 11422.8 740.713  21
   4   3  -9 396.823 132.824  21
   4   3  -8 762.668 176.216  21
  -4  -3   7 3416.89 667.264  25
   4   3  -7 4544.41 439.689  21
  -4  -3   6 210.136 155.385  25
   4   3  -6 521.076 143.899  21
  -4  -3   5 1393.88 397.050  25
  -4  -3   4 835.552 284.690  25
  -4  -3   3 821.654 285.844  25
  -4  -3   2 62935.8 3191.72  25
  -4  -3   1 39598.0 2198.18  25
  -4  -3   0 26788.5 1621.49  25
  -4  -3  -1 7643.90 719.359  25
  -4  -3  -2 6917.65 662.718  25
   4   3   2 6536.18 1000.48   1
   4   3   3 5377.85 950.254   1
  -4  -3  -3 5179.67 565.613  25
  -4  -3  -4 39960.4 2051.71  25
   4   3   4 42338.5 3071.00   1
   4   3   5 12173.4 1581.92   1
   4   3   6 3652.94 482.405  17
   4   3   6 3364.02 853.875   1
   4   3   7 19366.2 1305.28  17
  -4  -3  -7 19257.2 1054.66   7
   4   3   7 18211.5 2035.61   1
   4   3   8 9593.35 860.035  17
  -4  -3  -8 8051.59 617.369   7
   4   3   9 21999.5 1430.40  17
  -4  -3  -9 20021.0 1137.85   7
   4   3  10 255.517 160.471  17
  -4  -3 -10 37.9114 64.1485   7
   4   3  11 2595.01 425.951  17
  -4  -3 -11 2317.75 304.214   7
   4   3  12 2731.06 388.314  17
  -4  -3 -12 2233.03 278.073   7
   4   3  13 46.9422 77.8353  17
  -4  -3 -13 72.5163 50.5516   7
   4   3  14 13020.0 684.337  17
   4   3  14 11973.7 627.682   5
  -4  -4  13 795.058 115.324  17
  -4  -4  12 1155.94 177.782  17
   4   4 -12 1086.01 162.864   3
   4   4 -12 1277.54 152.741  21
   4   4 -11 1597.95 231.293   3
   4   4 -11 1596.67 204.591  21
   4   4 -10 8012.59 620.790   3
   4   4 -10 8543.82 587.595  21
   4   4  -9 3148.22 352.885  21
   4   4  -8 36993.3 1748.91  21
   4   4  -7 120.542 106.497  21
  -4  -4   6 2654.06 536.798  25
   4   4  -6 2691.10 307.366  22
   4   4  -6 2436.80 311.637  21
  -4  -4   5 2213.43 490.327  25
   4   4  -5 2705.06 307.166  22
   4   4  -5 2750.36 331.988  21
  -4  -4   4 678.253 267.160  25
  -4  -4   3 1433.52 376.049  25
  -4  -4   2 5593.80 714.092  25
  -4  -4   1 14716.7 1169.09  25
  -4  -4   0 37387.4 2059.25  25
  -4  -4  -1 9099.63 820.545  25
  -4  -4  -2 112655. 4777.86  25
  -4  -4  -3 22760.5 1422.01  25
  -4  -4  -4 447.709 184.676  25
  -4  -4  -5 63.9191 70.5779  25
   4   4   6 140.312 135.479  17
   4   4   6 446.395 219.165  24
   4   4   7 244.287 152.805  17
   4   4   7-34.5947 115.854  24
   4   4   8-152.980 154.003  17
   4   4   9 11860.3 1037.52  17
   4   4  10 3322.67 488.715  17
  -4  -4 -10 3075.52 341.470   7
   4   4  11 12073.8 927.623  17
  -4  -4 -11 10855.4 701.973   7
   4   4  12 11072.2 827.766  17
  -4  -4 -12 10839.5 654.674   7
   4   4  13 2665.81 312.768  17
  -4  -4 -13 2674.58 241.128   7
   4   4  13 2868.49 296.349   5
  -4  -5  12 368.980 105.372  17
   4   5 -12 396.933 87.8420  14
   4   5 -11 2581.11 233.666  21
   4   5 -10 5700.70 510.390  13
   4   5 -10 7906.42 496.917  21
   4   5  -9 626.295 141.215  21
   4   5  -8 2441.20 300.286  21
   4   5  -7 6957.92 548.563  21
  -4  -5   6-73.0441 135.163  25
   4   5  -6 238.895 98.5342  22
   4   5  -6 67.5737 65.7347  21
   4   5  -5 931.737 191.072  21
  -4  -5   5 763.884 286.358  25
   4   5  -5 552.309 143.887  22
   4   5  -4 70.6061 64.9321  21
  -4  -5   4-72.7160 87.6102  25
   4   5  -4-156.770 101.323  20
   4   5  -4 33.3141 59.3702  22
  -4  -5   3 6789.75 821.993  25
  -4  -5   2 2835.84 510.187  25
  -4  -5   1 32553.8 1979.41  25
  -4  -5   0 35744.9 2073.80  25
  -4  -5  -1 4859.51 623.490  25
  -4  -5  -2 50533.5 2643.53  25
  -4  -5  -3 17251.8 1300.98  25
   4   5   4 1428.55 305.035  17
  -4  -5  -4 1614.25 365.930  25
   4   5   5-66.7241 79.1293   5
   4   5   5-189.955 133.580  17
  -4  -5  -5 23.4891 86.4703  25
   4   5   5 113.728 96.9508  22
   4   5   6 113.744 130.097  17
  -4  -5  -6 188.294 128.910  25
   4   5   6 187.645 109.338  22
   4   5   7-6.56631 86.5891  17
   4   5   8 4732.00 632.863  17
   4   5   9 8661.79 840.403  17
   4   5  10 4945.58 581.155  17
  -4  -5 -10 4848.40 403.635   7
   4   5  11 9773.11 766.495  17
  -4  -5 -11 9514.91 580.054   7
   4   5  11 8808.37 693.962   5
   4   5  12 9137.05 649.628  17
  -4  -5 -12 8754.24 510.711   7
   4   5  12 9413.64 627.411   5
   4   5  13 50.1976 41.5860   5
  -4  -6  12 1199.17 155.227  17
   4   6 -12 3141.45 207.213  14
   4   6 -11 827.413 139.485  14
   4   6 -10 5828.05 442.554  13
   4   6  -9 261.669 107.514  13
   4   6  -8 3840.58 479.574  13
   4   6  -8 5144.90 398.260  21
   4   6  -7 939.747 169.837  21
   4   6  -6 124.085 69.7488  22
   4   6  -6 224.010 87.4445  21
   4   6  -5 368.998 118.182  22
   4   6  -5 467.531 128.284  21
   4   6  -4 268.781 105.378  22
  -4  -6   4 146.556 127.841  25
   4   6  -3 105.621 93.6478  20
  -4  -6   3-24.6084 131.153  25
   4   6  -3 69.9789 83.2725  22
   4   6  -2 20910.9 1238.14  20
  -4  -6   2 21067.3 1555.03  25
   4   6  -2 20995.2 1167.63  22
   4   6  -1 34454.6 1818.40  20
   4   6  -1 36546.3 1779.72  22
  -4  -6   1 40264.1 2284.56  25
   4   6   0 21087.0 1231.74  22
  -4  -6   0 21640.5 1582.67  25
  -4  -6  -1 2856.83 521.613  25
   4   6   1 3007.63 401.993  22
   4   6   1 2675.31 366.135   5
   4   6   2 17583.4 1848.00  19
  -4  -6  -2 24316.3 1664.61  25
   4   6   2 21779.6 1289.27  22
   4   6   2 20119.2 1231.76   5
   4   6   3 658.261 218.450  17
  -4  -6  -3 1210.39 341.533  25
   4   6   3 1130.00 244.288  22
   4   6   3 774.278 214.495   5
   4   6   4 2650.14 420.528  17
  -4  -6  -4 3129.08 537.753  25
   4   6   4 2852.90 402.300  22
   4   6   4 2997.68 407.378   5
   4   6   5 2825.56 451.863  17
   4   6   5 3115.02 432.092  22
   4   6   5 3523.22 456.105   5
   4   6   6 974.869 259.332   5
   4   6   6 1115.48 293.324  17
   4   6   6 841.574 215.211  22
   4   6   7 1899.19 340.438   5
   4   6   7 1483.78 322.226  17
   4   6   7 1284.23 247.849  22
   4   6   8 3319.49 474.640  17
   4   6   8 2646.20 340.230  22
   4   6   8 2597.41 393.155   5
   4   6   9 14726.6 1036.72  17
   4   6   9 14382.5 999.583   5
   4   6  10 12.3940 48.7409  17
   4   6  10 174.847 106.003   5
   4   6  11 1379.81 213.577  17
   4   6  11 1471.66 235.523   5
   4   6  12 3805.37 323.963   5
   4   7 -11 216.337 53.7484  14
   4   7 -10 954.524 143.351  14
   4   7 -10 788.036 114.845  13
   4   7  -9 980.823 170.703  14
   4   7  -9 868.592 157.378  13
   4   7  -8 8907.04 673.218  13
   4   7  -7 1107.82 248.548  13
   4   7  -6 2693.11 407.287  13
   4   7  -5 6269.64 484.764  22
   4   7  -5 6021.87 670.467  13
   4   7  -4 177.207 92.7606  22
   4   7  -4 179.282 124.387  13
   4   7  -3 22680.5 1265.83  20
   4   7  -3 20260.1 1128.23  22
   4   7  -3 19402.4 1317.41  13
   4   7  -2 1084.63 231.547  20
   4   7  -2 903.552 205.733  22
   4   7  -2 629.185 200.012  13
   4   7  -1 689.770 189.616  20
   4   7  -1 761.610 203.373  22
   4   7  -1 421.690 150.659  13
   4   7   0 2383.55 354.905  20
   4   7   0 2626.73 361.682  22
   4   7   0 2668.36 347.709  13
   4   7   1 1157.24 251.475  20
   4   7   1 1875.34 576.452  19
   4   7   1 1629.15 298.749  22
   4   7   2 11419.3 875.193  22
   4   7   2 11845.3 888.337   5
   4   7   3 21512.4 1311.85  22
   4   7   3 21266.6 1308.64   5
   4   7   4 2461.30 375.318  22
   4   7   4 2392.83 383.038   5
   4   7   5 3740.39 468.288  22
   4   7   5 3693.78 481.732   5
   4   7   6 2003.87 332.644  22
   4   7   6 2533.36 392.369   5
   4   7   7 6291.31 565.266  22
   4   7   7 6551.31 646.047   5
   4   7   8 113.895 77.3832  22
   4   7   8 1.24819 80.0961   5
   4   7   9 16.6290 48.6035  22
   4   7   9 70.8548 83.9040   5
   4   7  10 400.154 124.905   5
   4   7  11 159.254 76.9661   5
   4   8  -9 3073.35 240.508  14
   4   8  -9 2927.25 234.402  13
   4   8  -8 7070.23 466.376  14
   4   8  -8 7406.65 495.515  13
   4   8  -7 8698.91 581.594  14
   4   8  -7 9473.43 654.819  13
   4   8  -6 2360.95 341.383  13
   4   8  -5 6931.56 640.480  13
   4   8  -4 262.353 92.0806  22
   4   8  -4 470.164 154.614  13
   4   8  -3 11560.0 894.959  13
   4   8  -3 14116.3 821.590  22
   4   8  -2 1440.77 248.148  22
   4   8  -2 1537.60 268.961  13
   4   8  -1 1297.20 247.533  20
   4   8  -1 1218.68 231.510  13
   4   8  -1 1373.20 247.152  22
   4   8   0 2578.43 346.952  20
   4   8   0 2139.63 296.922  13
   4   8   0 2293.87 323.417  22
   4   8   1 477.300 157.692  20
   4   8   1 572.914 172.608  22
   4   8   2 776.812 205.162  20
   4   8   2 1094.83 241.225  22
   4   8   3 25940.3 1445.78  20
   4   8   3 26395.6 1452.66  22
   4   8   4 23694.3 1367.02  20
   4   8   4 24653.2 1396.72  22
   4   8   4 25663.2 1455.30   5
   4   8   5 1638.97 302.360  22
   4   8   5 1561.99 302.102   5
   4   8   6 1427.85 268.756  22
   4   8   6 1415.24 274.267   5
   4   8   7 7185.08 569.797  22
   4   8   7 7429.76 629.618   5
   4   8   8 211.556 96.3335  22
   4   8   8 164.549 95.7771   5
   4   8   9 2215.56 224.540  22
   4   8   9 2460.19 280.125   5
   4   8  10 451.101 104.972   5
   4   9  -7-39.1396 42.0501  13
   4   9  -6 134.882 73.3507  13
   4   9  -5 152.831 81.0622  13
   4   9  -4 167.670 87.9257  13
   4   9  -3 7884.33 597.875  13
   4   9  -3 9168.61 548.116  22
   4   9  -2 1045.57 182.196  13
   4   9  -2 952.915 174.930  22
   4   9  -1 7671.12 556.104  13
   4   9  -1 8857.77 601.589  22
   4   9   0 7502.62 520.873  13
   4   9   0 7939.90 589.546  22
   4   9   1 1786.05 255.882  20
   4   9   1 1597.83 253.426  22
   4   9   2 11672.5 738.894  20
   4   9   2 9769.16 710.638  22
   4   9   3 23.0320 71.4486  22
   4   9   4 81.0763 83.9408  22
   4   9   5 217.494 121.765  22
   4   9   6 246.091 101.177  22
   4   9   7 777.756 143.914  22
   4   9   8 3942.28 285.241  22
   4  10  -5 136.227 49.2904  13
   4  10  -4 273.916 72.3017  13
   4  10  -3 927.390 134.242  13
   4  10  -2 2974.26 248.427  13
   4  10  -1 4568.53 308.883  13
   4  10  -1 4759.76 322.470  22
   4  10   0 7929.51 481.138  22
   4  10   1 814.017 142.417  22
   4  10   2 10723.0 620.219  22
   4  10   3 21.0070 48.8487  22
   4  10   4 115.359 66.8251  22
   4  10   5 58.0334 43.7090  22
   4  10   6 80.2972 38.6819  22
  -5   5   5 139.946 56.6581  11
  -5   5   5 272.688 62.7547  15
  -5   5   4 119.081 48.6358  15
  -5   5   3 362.662 91.8177  15
  -5   5   2 19.5235 43.9315  15
  -5   5   1 3548.07 320.805  15
  -5   5   0 50.1062 57.8189  15
  -5   5  -1 1198.67 194.448  10
  -5   5  -1 1496.60 204.598  15
  -5   5  -2 1686.93 241.720  10
  -5   5  -2 2209.67 247.856  15
  -5   5  -3 511.744 118.356  15
  -5   5  -4 734.920 132.634  15
  -5   5  -5 143.806 56.6989  15
  -5   5  -6 248.360 79.8784  10
  -5   4   7 348.562 86.7338  15
  -5   4   6 3002.91 289.448  15
  -5   4   5 4011.03 371.809  15
  -5   4   4 1473.03 238.717  15
  -5   4   3 2873.94 348.142  15
  -5   4   2 44.1786 91.7363  15
   5  -4  -1 23.9245 41.1191  16
  -5   4   1 232.201 127.981  15
  -5   4   0 861.705 207.266  15
  -5   4  -1 149.523 84.6417  15
  -5   4  -2 5706.39 524.784  15
  -5   4  -3 177.521 107.983  15
  -5   4  -4 8570.69 632.986  15
  -5   4  -5 2644.87 307.020  15
  -5   4  -6 6999.53 514.057  15
  -5   4  -7 1042.76 167.456  15
  -5   4  -8 2633.19 237.193  15
  -5   3   9 76.3514 61.5328   6
  -5   3   9-67.9323 49.5491  22
  -5   3   8 886.304 144.162  15
  -5   3   8 536.134 143.007   6
  -5   3   7 2773.16 296.864  15
  -5   3   7 2564.62 338.376   6
  -5   3   6 7896.37 563.481  15
  -5   3   6 5496.64 566.319   6
   5  -3  -5 2282.99 260.551  16
  -5   3   5 2435.07 322.743  15
  -5   3   5 2023.49 339.896   6
   5  -3  -4 1092.97 188.097  16
  -5   3   4 1282.22 248.807  15
  -5   3   4 963.009 237.951   6
   5  -3  -3 2592.81 304.432  16
  -5   3   3 2894.21 391.858  15
  -5   3   2 895.461 238.332  15
  -5   3   1 262.106 140.040  15
  -5   3   0 719.294 213.032  15
  -5   3  -1 99.8403 114.050  15
  -5   3  -2 6244.66 593.373  15
  -5   3  -3 683.331 184.978  15
  -5   3  -4 23588.0 1303.91  15
  -5   3  -5 645.624 144.049   8
  -5   3  -5 671.238 180.557  15
  -5   3  -6 4085.37 365.236   8
  -5   3  -6 3982.27 415.430  15
  -5   3  -7 3089.23 295.320   8
  -5   3  -7 3276.53 365.860  15
  -5   3  -8 501.161 138.487  15
  -5   3  -9 24.0246 43.8672  15
  -5   3 -10 39.9524 35.6701  15
  -5   2  10 2890.50 321.842   6
  -5   2   9 2030.24 220.803  15
  -5   2   9 1998.23 319.560   6
  -5   2   8 4252.91 370.178  15
  -5   2   8 4477.40 525.906   6
  -5   2   7 44.3612 64.2676  15
  -5   2   7 13.8848 83.8962   6
   5  -2  -6 3451.54 369.832  16
  -5   2   6 3119.15 354.005  15
  -5   2   6 3031.08 457.325   6
   5  -2  -5 1834.86 277.956  16
  -5   2   5 1519.86 256.293  15
  -5   2   5 1725.01 337.719   6
   5  -2  -4 154.223 97.2513  16
  -5   2   4-19.1269 74.9953  15
  -5   2   4 226.508 132.773   6
  -5   2   3 4596.53 486.460  15
  -5   2   3 4712.40 556.936   6
  -5   2   2 8.22628 108.651  15
  -5   2   1 1356.02 283.852  15
  -5   2   0 580.329 193.184  15
  -5   2  -1 8465.56 722.937  15
  -5   2  -2 2214.79 334.260  15
   5  -2   3 2107.12 287.324   4
  -5   2  -3 2931.44 350.829   8
  -5   2  -3 2684.23 365.658  15
   5  -2   4 12449.1 849.415   4
  -5   2  -4 15664.6 898.753   8
  -5   2  -4 14249.4 936.928  15
   5  -2   5 922.992 211.385   4
  -5   2  -5 1113.13 200.270   8
  -5   2  -5 973.992 216.975  15
  -5   2  -6 2974.41 321.958   8
  -5   2  -6 3084.77 381.639  15
  -5   2  -7 5578.85 436.765   8
  -5   2  -7 5119.68 516.077  15
  -5   2  -8 22.6902 36.3950   8
  -5   2  -8-67.7589 70.7470  15
  -5   2  -9 0.39977 44.8580  15
   5  -2  10 225.505 81.2004   4
  -5   2 -10 213.063 81.9672  15
  -5   2 -11 600.757 105.161  15
   5  -1 -11 169.254 49.6208   3
  -5   1  11 38.0931 67.4859   6
  -5   1  10 1656.62 293.180   6
  -5   1   9 49.0069 53.9172  15
  -5   1   9 111.240 127.355   6
  -5   1   8 7152.16 530.327  15
  -5   1   8 8706.38 813.830   6
   5  -1  -7 594.064 167.467  16
  -5   1   7 595.573 148.752  15
  -5   1   7 1065.46 288.354   6
   5  -1  -6 2453.92 334.348  16
  -5   1   6 2144.35 297.055  15
  -5   1   6 2910.26 461.212   6
   5  -1  -5 1754.63 283.244  16
  -5   1   5 1673.10 262.047  15
   5  -1  -4 157.551 96.7463  16
  -5   1   4 161.592 91.8760  15
  -5   1   3 1983.29 296.933  15
  -5   1   2 3662.07 417.158  15
   5  -1  -1 4187.69 433.863   4
  -5   1   1 4491.62 469.820  15
   5  -1   0 6214.78 544.583   4
  -5   1   0 6350.27 577.867  15
   5  -1   1 3688.62 414.913   4
  -5   1  -1 3746.91 426.786  15
   5  -1   2 11818.9 850.733   4
  -5   1  -2 13825.5 913.620  15
   5  -1   2 14511.0 1859.18   1
   5  -1   3 106.794 77.3315   4
  -5   1  -3 187.013 89.7005   8
  -5   1  -4 14182.2 854.915   8
  -5   1  -4 11688.2 854.602  15
  -5   1  -5 5327.54 461.307   8
  -5   1  -5 4555.62 481.777  15
  -5   1  -6 3739.54 366.013   8
  -5   1  -6 3409.00 405.037  15
  -5   1  -7 9095.44 607.790   8
  -5   1  -7 9031.29 707.677  15
  -5   1  -8 2103.58 245.291   8
  -5   1  -8 2067.88 305.365  15
  -5   1  -9 9221.26 563.540   8
  -5   1  -9 9549.86 686.709  15
  -5   1 -10-54.8806 66.8125  15
  -5   1 -11 5572.31 414.512  15
   5  -1  12 980.905 128.248   4
  -5   0  11 1063.52 196.447   6
  -5   0  10 5412.00 561.680   6
   5   0 -10 5098.47 319.498  21
  -5   0   9-5.66837 45.1526  15
  -5   0   9-35.1996 113.175   6
   5   0  -9 137.773 56.4509  21
  -5   0   8 10870.2 737.870  15
   5   0  -8 12369.9 670.313  21
   5   0  -7 803.888 195.560  16
  -5   0   7 867.079 187.488  15
  -5   0   7 881.662 265.485   6
   5   0  -7 743.560 139.530  21
   5   0  -6 4195.47 453.884  16
  -5   0   6 3781.56 403.934  15
   5   0  -6 4140.10 344.207  21
   5   0  -5 446.436 147.126  16
  -5   0   5 376.568 130.051  15
   5   0  -4 5233.35 498.748  16
  -5   0   4 4994.17 473.044  15
  -5   0   4 4028.62 781.500  25
   5   0  -3 207.937 103.182   4
  -5   0   3 174.325 94.3065  15
  -5   0   3 84.5834 183.240  25
   5   0  -2 1360.08 245.315   4
  -5   0   2 992.571 203.617  15
  -5   0   2 974.147 339.049  25
   5   0  -1 14625.1 935.736   4
  -5   0   1 15202.1 915.468  15
  -5   0   1 13754.4 1319.84  25
   5   0   0 4909.20 486.151   4
  -5   0   0 5007.99 467.858  15
   5   0   0 4665.50 883.148   1
   5   0   1 9033.24 709.538   4
  -5   0  -1 8669.20 655.367  15
   5   0   1 8942.76 1346.82   1
   5   0   2 32476.3 1680.81   4
  -5   0  -2 30081.4 1564.48  15
   5   0   2 31534.3 2750.74   1
  -5   0  -3 407.558 158.195  15
   5   0   3 414.099 318.888   1
  -5   0  -4 482.712 129.324   8
  -5   0  -4 218.104 120.417  15
  -5   0  -5 155.194 85.1193   8
  -5   0  -5 279.367 117.622  15
  -5   0  -6 192.490 87.1766   8
  -5   0  -6 307.926 123.575  15
  -5   0  -7 371.202 109.593   8
  -5   0  -7 292.068 123.413  15
  -5   0  -8 2616.91 276.522   8
   5   0  10 163.642 109.025  17
  -5   0 -10-36.1748 59.0806  15
  -5   0 -11 4067.23 361.696  15
  -5   0 -12 1457.25 168.592  15
   5   1 -12 482.405 94.0782   3
  -5  -1  11 928.081 180.735   6
   5   1 -11 1671.24 167.079  21
  -5  -1  10 4081.83 477.817   6
   5   1 -10 4708.26 349.472  21
  -5  -1   9 168.943 82.5850  15
  -5  -1   9 76.1845 107.454   6
   5   1  -9 66.6892 59.5853  21
  -5  -1   8 7998.75 616.751  15
   5   1  -8 8758.07 587.384  21
   5   1  -7 1307.98 247.281  16
  -5  -1   7 1594.18 258.717  15
   5   1  -7 1630.40 223.977  21
   5   1  -6 59.4541 72.5415  16
  -5  -1   6 115.738 83.5144  15
   5   1  -6-45.9254 56.6420  21
   5   1  -5 3784.66 426.142  16
  -5  -1   5 3641.34 409.325  15
   5   1  -5 4177.20 383.020  21
   5   1  -4 118.819 69.5802  21
   5   1  -4-41.9958 71.7697  16
  -5  -1   4 145.197 86.2068  15
  -5  -1   4 21.8355 154.552  25
   5   1  -3 1193.68 204.835  21
   5   1  -3 1419.85 248.420   4
  -5  -1   3 1299.49 385.297  25
   5   1  -2 116.443 79.7636   4
  -5  -1   2 214.946 153.053  25
  -5  -1   1 11080.7 1120.28  25
   5   1   0 5616.64 989.507   1
  -5  -1   0 5780.30 747.025  25
   5   1   1 3225.61 774.400   1
   5   1   2 46092.3 2202.03   4
   5   1   2 41271.8 3196.66   1
   5   1   3 239.991 248.092   1
  -5  -1  -4 16100.5 993.951  15
   5   1   4 16654.1 1973.54   1
   5   1   5 8149.10 781.457  17
  -5  -1  -5 9126.10 702.129  15
   5   1   6 7760.16 754.107  17
   5   1   7 3073.38 443.763  17
  -5  -1  -7 2592.58 355.938   7
   5   1   8 149.148 119.396  17
  -5  -1  -8 156.093 87.8605   7
   5   1   9 11893.9 902.087  17
  -5  -1  -9 11177.0 793.563   7
   5   1  10 179.319 126.741  17
   5   1  11 4689.84 461.384  17
  -5  -1 -11 4287.28 371.813  15
   5   1  12 1646.93 225.499  17
  -5  -1 -12 1498.81 174.654  15
   5   2 -12 259.388 74.9489   3
   5   2 -11 474.902 100.669  21
  -5  -2  10 454.858 154.507   6
   5   2 -10 490.084 117.765  21
  -5  -2   9 113.875 102.891   6
   5   2  -9 81.6107 72.3848  21
   5   2  -8 8261.98 595.924  21
   5   2  -7 1555.78 241.790  21
   5   2  -6 14377.4 961.444  16
   5   2  -6 15172.4 898.647  21
   5   2  -5 20430.3 1184.13  16
  -5  -2   5 23432.6 1989.67  25
   5   2  -5 19946.9 1115.98  21
   5   2  -4 3221.21 380.291  16
  -5  -2   4 3453.46 700.941  25
   5   2  -4 3009.30 352.595  21
   5   2  -3 8996.06 715.800   4
  -5  -2   3 9594.04 1111.27  25
   5   2  -3 9826.47 691.905  21
   5   2  -2 413.927 140.302   4
  -5  -2   2 481.521 234.265  25
  -5  -2   1 81.2155 119.083  25
  -5  -2   0 2035.34 451.619  25
   5   2   1 635.377 405.429   1
  -5  -2  -1 290.157 163.854  25
   5   2   2 3338.35 786.770   1
   5   2   3 2145.27 344.261   4
   5   2   3 1700.04 588.368   1
   5   2   4 57955.5 2879.79  17
   5   2   4 62731.1 4232.37   1
   5   2   5 13916.6 1127.08  17
  -5  -2  -5 14105.0 891.344   7
   5   2   5 15279.2 1980.71   1
   5   2   6 26298.5 1671.69  17
  -5  -2  -6 26703.6 1410.21   7
   5   2   6 30304.3 2897.98   1
   5   2   7 10468.8 936.334  17
  -5  -2  -7 10691.2 752.980   7
   5   2   8 294.211 165.609  17
  -5  -2  -8 304.358 121.062   7
   5   2   9 568.368 219.110  17
  -5  -2  -9 789.381 191.551   7
   5   2  10 477.747 181.463  17
  -5  -2 -10 402.157 134.783   7
   5   2  11 800.545 209.649  17
  -5  -2 -11 979.800 189.070   7
   5   2  12 1005.33 191.525  17
   5   2  13 439.308 97.1131  17
   5   3 -12 40.7607 32.4598   3
   5   3 -12 34.5405 31.8951  21
   5   3 -11-1.74131 33.3063   3
   5   3 -11-3.11412 34.2425  21
   5   3 -10 375.528 99.6334  21
  -5  -3   9-0.59692 58.5831   6
   5   3  -9 125.953 73.1771  21
   5   3  -8 6112.91 512.207  21
   5   3  -7 1691.30 258.876  21
   5   3  -6 26046.7 1354.85  21
   5   3  -5 14740.6 937.122  16
  -5  -3   5 16235.2 1612.56  25
   5   3  -5 14733.4 918.526  21
   5   3  -4 3376.28 391.560  16
  -5  -3   4 4244.13 765.856  25
   5   3  -4 3994.39 370.609  22
   5   3  -4 3733.94 408.797  21
   5   3  -3 6679.65 613.894   4
   5   3  -3 6847.90 565.444  16
  -5  -3   3 7042.58 952.591  25
   5   3  -3 8435.17 551.839  22
   5   3  -3 7408.33 599.713  21
   5   3  -2 165.557 99.3322  21
   5   3  -2 118.310 86.8342   4
  -5  -3   2 420.033 230.318  25
  -5  -3   1 2006.73 456.385  25
  -5  -3   0 543.084 240.337  25
  -5  -3  -1 667.400 258.616  25
  -5  -3  -2 9363.50 939.825  25
   5   3   3 534.369 202.637  17
   5   3   3 462.494 148.287   4
   5   3   3 437.500 342.660   1
   5   3   4 46170.7 2199.98   4
   5   3   4 45424.1 2390.77  17
   5   3   4 46518.8 3558.09   1
   5   3   5 4112.33 571.558  17
   5   3   5 3669.10 946.119   1
   5   3   6 10301.2 960.610  17
  -5  -3  -6 12041.4 792.941   7
   5   3   6 10107.0 1610.19   1
   5   3   7 4756.04 628.435  17
  -5  -3  -7 5943.17 513.957   7
  -5  -3  -8 1020.12 203.809   7
   5   3   8 949.197 264.222  17
   5   3   9-14.7393 80.1852  17
  -5  -3  -9 90.1358 74.6323   7
   5   3  10 85.0076 99.0518  17
  -5  -3 -10-6.79514 55.6872   7
   5   3  11 627.990 191.216  17
  -5  -3 -11 718.273 151.620   7
   5   3  12 1205.86 221.311  17
   5   3  13 4.48560 37.3381  17
   5   4 -11 467.013 105.768   3
   5   4 -11 476.464 95.4227  21
   5   4 -10 7326.38 541.818   3
   5   4 -10 7854.31 508.080  21
   5   4  -9 476.905 125.483  21
   5   4  -8 5822.38 492.436  21
   5   4  -7 2992.33 349.183  21
   5   4  -6 1709.73 266.638  21
   5   4  -5 481.617 140.319  21
   5   4  -5 710.762 172.819  22
   5   4  -4 914.093 204.159  21
  -5  -4   4 709.609 314.853  25
   5   4  -4 1148.21 201.813  22
   5   4  -3 3785.22 411.687  20
  -5  -4   3 3616.36 687.530  25
   5   4  -3 3904.51 379.939  22
   5   4  -3 3643.76 407.536  21
   5   4  -2 116.335 81.0506  21
   5   4  -2 64.0094 72.7157  20
   5   4  -2 201.015 104.702   4
  -5  -4   2-73.2501 162.814  25
   5   4  -2 152.999 81.5457  22
   5   4  -1 8918.09 690.481   4
  -5  -4   1 7733.17 946.544  25
   5   4  -1 8288.98 572.004  22
   5   4  -1 7916.92 639.163  21
  -5  -4   0 23065.5 1644.52  25
   5   4   0 19712.0 1161.64  21
   5   4   1 7304.73 710.365  17
  -5  -4  -1 8414.07 902.015  25
   5   4   2 28942.5 1725.58  17
  -5  -4  -2 34054.0 2022.89  25
   5   4   3 2902.50 373.305   4
   5   4   3 2728.65 438.713  17
  -5  -4  -3 3284.60 526.155  25
   5   4   4 13855.0 911.919   4
   5   4   4 12813.7 1040.32  17
   5   4   5 898.312 278.864  17
   5   4   5 853.039 201.306   4
   5   4   6 743.327 271.378  17
   5   4   6 1046.19 244.480   4
   5   4   7 4037.38 464.906   4
   5   4   7 3271.07 514.849  17
   5   4   8 674.772 241.130  17
  -5  -4  -8 560.590 141.628   7
   5   4   9 9273.14 858.743  17
  -5  -4  -9 9671.68 639.389   7
   5   4  10 1337.44 297.684  17
  -5  -4 -10 980.173 173.664   7
   5   4  11 11587.4 822.451  17
  -5  -4 -11 10173.6 611.121   7
   5   4  11 10117.7 692.457   5
   5   4  12 2176.28 282.191  17
   5   4  12 1472.56 199.311   5
   5   5 -11 2817.45 214.362  21
   5   5 -10 7757.72 585.075  13
   5   5 -10 11931.0 591.913  21
   5   5  -9 338.775 97.9319  21
   5   5  -8 12499.0 756.168  21
   5   5  -7 2255.04 288.558  21
   5   5  -6 1105.76 203.773  22
   5   5  -6 943.201 193.491  21
   5   5  -5-100.824 82.1829  21
   5   5  -5-65.9900 64.2618  22
   5   5  -4 503.456 149.999  21
   5   5  -4 587.681 156.741  22
   5   5  -3 890.653 190.711  21
   5   5  -3 748.879 187.168  20
  -5  -5   3 1138.44 377.908  25
   5   5  -3 1127.97 210.596  22
   5   5  -2 1745.35 283.482  21
   5   5  -2 1775.85 291.102  20
  -5  -5   2 1267.33 384.907  25
   5   5  -2 1998.89 283.435  22
   5   5  -1 15100.4 985.680   4
   5   5  -1 15239.7 1009.39  20
  -5  -5   1 18006.3 1520.42  25
   5   5  -1 17245.0 973.762  22
   5   5  -1 15920.6 1003.82  21
   5   5   0 3615.30 416.952   4
  -5  -5   0 4682.26 719.416  25
   5   5   0 4694.43 439.686  22
   5   5   0 4407.62 468.226  21
   5   5   1 12594.3 802.409  22
   5   5   1 10610.8 814.701  21
   5   5   2 6791.45 727.669  17
  -5  -5  -2 8082.94 918.901  25
   5   5   2 7581.10 592.215  22
   5   5   3-20.2427 95.3438  17
  -5  -5  -3 154.245 146.397  25
   5   5   3 106.684 79.6734  22
   5   5   4 3165.10 483.992  17
  -5  -5  -4 3508.94 589.893  25
   5   5   4 3666.90 395.459  22
   5   5   5 18.4323 90.9674   5
   5   5   5 227.120 165.891  17
   5   5   6 882.021 204.701   5
   5   5   6 491.209 219.514  17
   5   5   7 2336.03 367.836   5
   5   5   7 2200.84 425.279  17
   5   5   8 2605.10 381.239   5
   5   5   8 2527.56 434.133  17
   5   5   9 708.705 203.313   5
   5   5   9 721.348 229.949  17
   5   5  10 154.061 107.538   5
   5   5  10 136.324 122.438  17
   5   5  11 609.004 147.735   5
   5   5  11 580.939 169.352  17
   5   5  12 349.209 104.911  17
   5   5  12 271.977 80.1395   5
  -5  -6  11 31.3602 31.9509  17
   5   6 -11 68.3024 34.2756  14
   5   6 -10 1002.62 154.661  13
   5   6 -10 1522.92 146.370  21
   5   6  -9 262.736 110.089  13
   5   6  -9 470.147 99.3789  21
   5   6  -8 9405.42 581.461  21
   5   6  -7 903.018 167.373  21
   5   6  -6 3137.09 329.302  22
   5   6  -6 2707.56 311.650  21
   5   6  -5 2398.39 299.355  22
   5   6  -5 2316.34 294.116  21
   5   6  -4-89.1273 73.6891  21
   5   6  -4 137.916 91.0442  22
   5   6  -3 697.091 175.812  21
   5   6  -3 797.425 212.375  20
   5   6  -3 1006.24 203.143  22
   5   6  -2 7186.71 649.477  20
   5   6  -2 7037.13 598.729  22
   5   6  -2 6946.61 597.787  21
   5   6  -1 1648.66 278.288  21
   5   6  -1 1618.41 297.981  20
   5   6  -1 1869.41 293.172  22
   5   6   0 7775.63 717.872  20
  -5  -6   0 10271.8 1136.94  25
   5   6   0 9647.17 725.987  22
   5   6   0 8811.05 712.189  21
   5   6   1 1843.80 313.416  21
  -5  -6  -1 2466.44 537.597  25
   5   6   1 2177.26 335.860  22
   5   6   2 17325.5 1082.79  22
   5   6   3 361.412 147.048  22
   5   6   3 197.466 104.732   5
   5   6   4 8861.90 859.384  17
   5   6   4 10225.0 752.571  22
   5   6   4 9676.07 751.345   5
   5   6   5 3250.84 507.007  17
   5   6   5 3543.00 402.422  22
   5   6   5 4038.19 463.411   5
   5   6   6 2044.39 383.105  17
   5   6   6 1827.30 276.264  22
   5   6   6 1951.71 335.677   5
   5   6   7 6796.14 726.509  17
   5   6   7 7406.47 662.359   5
   5   6   8 57.3293 117.536  17
   5   6   8 5.41633 83.5916   5
   5   6   9 8847.65 744.671  17
   5   6   9 9213.96 694.098   5
   5   6  10 33.6407 61.9778  17
   5   6  10 23.1836 61.5333   5
   5   6  11 2925.90 295.605  17
   5   6  11 3693.33 317.906   5
   5   7 -10 1015.35 125.872  14
   5   7  -9 657.795 123.472  13
   5   7  -8 4634.59 428.937  13
   5   7  -7 35.5036 80.2222  13
   5   7  -6 6048.90 439.005  22
   5   7  -6 4867.20 555.289  13
   5   7  -5 6240.38 473.509  22
   5   7  -5 5619.75 624.459  13
   5   7  -4 509.810 133.391  22
   5   7  -4 512.504 127.669  21
   5   7  -3 2326.52 307.469  22
   5   7  -3 1933.71 265.638  21
   5   7  -2 752.426 168.928  21
   5   7  -2 716.633 200.699  20
   5   7  -2 671.591 194.688  22
   5   7  -2 762.276 213.285  13
   5   7  -1 1873.49 271.606  21
   5   7  -1 1820.41 329.410  20
   5   7  -1 1709.25 285.271  22
   5   7  -1 1396.17 281.578  13
   5   7   0 650.801 161.937  21
   5   7   0 776.561 219.896  20
   5   7   0 493.912 163.563  22
   5   7   1 2647.76 400.981  20
   5   7   1 2894.61 387.862  22
   5   7   1 2283.45 323.356  21
   5   7   2 12166.3 862.919  22
   5   7   2 10177.2 767.835  21
   5   7   3 2692.03 370.963  22
   5   7   3 2426.93 353.382   5
   5   7   3 2471.35 344.659  21
   5   7   4 4860.41 509.088  22
   5   7   4 5115.35 518.927   5
   5   7   5 942.790 202.014  22
   5   7   5 1062.32 238.988   5
   5   7   6 1459.68 241.349  22
   5   7   6 1706.56 303.219   5
   5   7   7 165.894 81.4560  22
   5   7   7-80.3406 91.4897   5
   5   7   8 55.1999 75.6212   5
   5   7   9 1126.60 201.888   5
   5   7  10 3.93825 29.4688   5
   5   8  -8 1199.41 137.980  14
   5   8  -8 1395.92 177.275  13
   5   8  -7 817.622 134.309  14
   5   8  -7 931.135 169.451  13
   5   8  -6 1232.14 225.980  13
   5   8  -5 6678.93 451.755  22
   5   8  -5 5720.59 562.135  13
   5   8  -4 354.670 108.276  22
   5   8  -4 413.186 148.553  13
   5   8  -3 1630.70 241.409  22
   5   8  -3 1461.64 286.303  13
   5   8  -2-49.1333 62.6961  22
   5   8  -2 81.4827 98.7668  13
   5   8  -1 1348.18 268.251  20
   5   8  -1 1728.45 260.336  22
   5   8  -1 1359.17 256.574  13
   5   8   0 159.933 102.428  20
   5   8   0 83.2484 96.2445  22
   5   8   1-374.024 79.3286  20
   5   8   1-21.0212 74.3337  22
   5   8   2 5904.71 582.140  20
   5   8   2 5903.65 542.753  22
   5   8   3 1462.96 278.517  20
   5   8   3 1598.70 275.155  22
   5   8   4 12790.8 900.757  20
   5   8   4 13639.8 867.641  22
   5   8   5 6688.90 543.326  22
   5   8   5 6919.20 595.645   5
   5   8   6 6088.96 475.412  22
   5   8   6 5908.43 532.646   5
   5   8   7 1340.58 188.336  22
   5   8   7 1562.56 249.543   5
   5   8   8 172.626 61.4186  22
   5   8   8 292.006 106.343   5
   5   8   9 31.9100 32.3517  20
   5   8   9 4.57136 32.9065   5
   5   9  -7 1008.79 122.032  13
   5   9  -6 1408.49 177.070  13
   5   9  -5 2474.31 268.764  13
   5   9  -4 357.951 84.5265  22
   5   9  -4 169.686 78.9048  13
   5   9  -3 1311.84 176.346  22
   5   9  -3 1370.60 209.544  13
   5   9  -2 52.5078 46.4716  22
   5   9  -2 20.7698 37.0496  13
   5   9  -1 32.8115 61.8010  13
   5   9  -1 167.293 79.3242  22
   5   9   0 1155.24 193.601  22
   5   9   1 461.017 137.415  20
   5   9   1 488.137 132.630  22
   5   9   2 5068.24 455.212  20
   5   9   2 4967.59 433.663  22
   5   9   3 110.657 70.4182  20
   5   9   3 8.70980 75.6233  22
   5   9   4 9354.46 622.791  20
   5   9   4 8444.85 595.160  22
   5   9   5 3017.85 308.098  20
   5   9   5 3549.97 327.792  22
   5   9   6 2614.33 255.010  20
   5   9   6 3529.00 294.007  22
   5   9   7 1795.94 175.302  22
   5  10  -3 305.450 63.9543  13
   5  10  -2 97.8299 39.2622  22
   5  10  -1 721.147 108.291  22
   5  10   0 2760.52 240.906  22
   5  10   1 1713.50 188.670  22
   5  10   2 2677.46 243.954  22
   5  10   3 273.713 77.9706  22
   5  10   4 1137.00 145.510  22
   5  10   5 550.717 88.6819  22
  -6   4   3 4.23737 27.6312  15
  -6   4   2 42.0665 40.4659  15
  -6   4   1 1656.81 185.450  15
  -6   4   0 86.2279 55.7989  15
  -6   4  -1 1692.07 194.491  15
  -6   4  -2 55.9734 51.0034  15
  -6   4  -3 15.0442 37.0744  15
  -6   4  -4 613.997 104.975  15
  -6   3   6 3374.80 251.229  15
  -6   3   5 3864.78 307.292  15
  -6   3   4 929.572 157.620  15
   6  -3  -3 2185.20 216.452  16
  -6   3   3 2887.73 292.927  15
   6  -3  -2-42.6917 42.6057  16
  -6   3   2 43.2945 59.6229  15
   6  -3  -1-6.50602 30.9878  16
  -6   3   1 5.67630 74.2001  15
  -6   3   0 851.879 177.619  15
  -6   3  -1 4190.13 401.781  15
  -6   3  -2 15420.5 890.039  15
  -6   3  -3 6411.30 499.821  15
  -6   3  -4 9858.96 634.951  15
  -6   3  -5 792.330 147.450  15
  -6   3  -6 8759.69 535.250  15
  -6   3  -7 1651.61 179.238  15
  -6   2   7-74.2198 47.7627  15
  -6   2   7-35.4461 59.9651   6
  -6   2   6 5243.84 386.577  15
  -6   2   6 4543.18 443.374   6
   6  -2  -5 4071.45 347.067  16
  -6   2   5 3751.26 349.897  15
  -6   2   5 3640.99 411.311   6
   6  -2  -4 2311.44 271.447  16
  -6   2   4 2259.52 282.040  15
  -6   2   4 1909.12 295.469   6
   6  -2  -3 3307.91 340.678  16
  -6   2   3 3445.84 367.317  15
   6  -2  -2 219.501 91.2276  16
  -6   2   2 173.619 106.340  15
  -6   2   1 2.13592 70.7401  15
  -6   2   0-42.9342 87.5761  15
  -6   2  -1 7371.23 616.382  15
  -6   2  -2 5336.79 503.594  15
  -6   2  -3 147.156 104.987  15
  -6   2  -4 7119.27 564.256  15
   6  -2   5 767.397 143.548   4
  -6   2  -5 801.375 174.671  15
   6  -2   6 3927.34 332.759   4
  -6   2  -6 4031.25 376.090  15
   6  -2   7 841.980 136.326   4
  -6   2  -7 1247.19 183.334  15
  -6   2  -8-39.7266 45.3163  15
  -6   1   9 141.366 73.3219   6
  -6   1   8 1475.50 166.172  15
  -6   1   8 2067.99 292.403   6
  -6   1   7 93.1736 57.5396  15
  -6   1   7 10.9096 98.3197   6
   6  -1  -6 2875.45 313.812  16
  -6   1   6 2215.35 259.676  15
  -6   1   6 2868.03 398.254   6
   6  -1  -5 153.185 91.4444  16
  -6   1   5 202.834 88.7871  15
  -6   1   5 116.739 125.198   6
   6  -1  -4 302.527 121.131  16
  -6   1   4 161.094 93.2492  15
  -6   1   4 495.828 166.505   6
   6  -1  -3 12017.9 803.055  16
  -6   1   3 10719.7 754.728  15
  -6   1   3 12623.2 910.197   6
  -6   1   2 550.820 163.075  15
  -6   1   2 460.232 177.458   6
   6  -1  -1 4796.12 440.615   4
  -6   1   1 5503.23 532.999  15
   6  -1   0 1177.51 211.779   4
  -6   1   0 1612.33 286.531  15
   6  -1   1 2073.94 276.201   4
  -6   1  -1 2370.68 347.147  15
   6  -1   2 4156.99 415.118   4
  -6   1  -2 5651.61 541.355  15
   6  -1   3 393.093 131.717   4
  -6   1  -3 330.532 135.487  15
   6  -1   4 1309.61 224.800   4
  -6   1  -4 1701.84 266.344  15
   6  -1   5 242.046 106.545   4
  -6   1  -5 135.093 96.6665  15
   6  -1   6 127.493 86.8237   4
  -6   1  -6 80.5387 68.9212  15
   6  -1   7 11297.1 741.418   4
  -6   1  -7 11854.0 725.650  15
   6  -1   8 6903.12 509.262   4
  -6   1  -8 6801.54 489.029  15
   6  -1   9 4004.86 329.909   4
  -6   1  -9 3811.19 312.096  15
  -6   0   9 130.113 92.0834   6
  -6   0   8 1986.12 209.929  15
  -6   0   8 3269.92 423.270   6
  -6   0   7 656.896 132.288  15
  -6   0   7 931.558 253.775   6
   6   0  -6 816.675 182.045  16
  -6   0   6 633.815 134.614  15
  -6   0   6 1041.22 264.011   6
   6   0  -5 2562.76 333.668  16
  -6   0   5 2112.63 276.408  15
   6   0  -4 5726.48 522.900  16
  -6   0   4 5281.68 464.277  15
   6   0  -3 1138.92 228.464  16
  -6   0   3 1122.75 212.695  15
   6   0  -2 295.149 133.178   4
  -6   0   2 426.783 135.267  15
   6   0  -1 6751.89 610.661   4
  -6   0   1 7828.26 631.646  15
   6   0   0 876.865 201.931   4
  -6   0   0 1028.76 232.313  15
   6   0   1 330.576 123.965   4
  -6   0  -1 254.138 141.175  15
   6   0   2 4366.58 478.966   4
  -6   0  -2 5136.35 523.569  15
   6   0   3-61.7529 68.2664   4
  -6   0  -3 84.5611 84.2648  15
   6   0   4 2608.48 378.279   4
  -6   0  -4 3528.56 410.317  15
   6   0   5 212.717 126.305   4
  -6   0  -5 183.121 97.0192  15
   6   0   6 7421.95 654.209   4
  -6   0  -6 7704.62 603.053  15
   6   0   7 1292.59 250.540   4
  -6   0  -7 1369.17 222.126  15
   6   0   8 424.398 140.406   4
  -6   0  -8 412.159 117.136  15
   6   0   9 7509.47 544.269   4
  -6   0  -9 7160.95 484.568  15
   6   0  10 53.6217 55.6670   4
  -6   0 -10 85.6586 47.2071  15
  -6  -1  10 1282.96 190.669   6
  -6  -1   9 2986.01 369.382   6
   6   1  -9 2530.45 197.868  21
  -6  -1   8 100.186 100.508   6
   6   1  -8 10.7689 36.5265  21
  -6  -1   7 122.948 69.3487  15
  -6  -1   7 109.103 127.073   6
   6   1  -7 119.384 60.6770  21
   6   1  -6 2904.78 349.645  16
  -6  -1   6 2598.28 285.661  15
   6   1  -6 2788.57 274.126  21
   6   1  -5 1913.70 292.727  16
  -6  -1   5 1716.66 242.812  15
   6   1  -5 1719.85 219.756  21
   6   1  -4 696.622 181.419  16
  -6  -1   4 675.199 157.730  15
   6   1  -4 685.993 139.555  21
   6   1  -3 12350.1 883.745   4
   6   1  -3 12918.2 864.695  16
   6   1  -3 12538.1 740.752  21
   6   1  -2 50.0914 79.0782   4
   6   1  -1 4343.78 482.427   4
   6   1   0 628.738 186.479   4
   6   1   1 6816.03 640.471   4
   6   1   2 3954.43 486.077   4
   6   1   3 183.216 133.608   4
   6   1   4 4165.01 512.558   4
  -6  -1  -4 3875.99 434.784  15
   6   1   5 396.979 161.311   4
  -6  -1  -5 447.393 145.892  15
   6   1   6 5818.14 602.349   4
  -6  -1  -6 5767.44 509.910  15
   6   1   7 9731.97 766.042   4
  -6  -1  -7 9202.08 646.910  15
   6   1   8 2469.27 340.361   4
  -6  -1  -8 2186.08 269.924  15
   6   1   9 5513.82 479.146   4
  -6  -1  -9 5106.95 383.300  15
   6   1  10 4.50427 43.4433   4
   6   1  11 2371.36 222.169   4
  -6  -2  10 101.184 67.0570   6
   6   2 -10 298.935 66.3938  21
  -6  -2   9 787.437 189.444   6
   6   2  -9 764.871 123.774  21
  -6  -2   8 5426.86 557.934   6
   6   2  -8 5553.02 413.168  21
   6   2  -7 4.21623 38.2188  21
   6   2  -6 9288.75 699.495  16
   6   2  -6 9643.16 636.347  21
   6   2  -5 3879.24 427.234  16
   6   2  -5 3477.97 363.577  21
   6   2  -4 122.511 82.7798  21
   6   2  -4 34.4599 64.9633  16
   6   2  -3 15851.8 1084.01   4
   6   2  -3 18830.1 1096.45  16
   6   2  -3 18825.3 1045.77  21
   6   2  -2 325.342 114.762  21
   6   2  -2 155.181 105.216   4
   6   2  -1 2092.03 340.191   4
   6   2  -1 2296.78 302.734  21
   6   2   0 228.826 103.550  21
   6   2   0 205.381 119.036   4
   6   2   1-26.8293 66.6812  21
   6   2   1 27.3186 86.2249   4
   6   2   2 13280.4 951.655   4
   6   2   2 11871.6 811.830  21
   6   2   3 3356.45 451.587   4
   6   2   3 3011.65 431.458  17
   6   2   3 2614.54 341.817  21
   6   2   4 8310.13 736.614   4
   6   2   4 6436.54 673.682  17
   6   2   5 1069.76 253.788  17
   6   2   5 1191.82 278.559   4
   6   2   6 2540.99 375.807   4
   6   2   6 1909.04 352.450  17
   6   2   7 16213.2 1041.65   4
   6   2   7 13555.1 1019.08  17
   6   2   8 7782.00 630.219   4
   6   2   8 6144.59 601.465  17
   6   2   9 3391.16 371.083   4
   6   2   9 2958.93 373.487  17
   6   2  10 196.633 89.4602  17
   6   2  10 212.356 83.9869   4
   6   2  11 2720.06 233.590   4
   6   2  11 1237.79 172.450  17
   6   3 -10 10.4708 30.4027   3
   6   3 -10-1.70387 21.9610  21
  -6  -3   9 36.3915 62.7122   6
   6   3  -9 127.878 65.1630  21
   6   3  -8 3759.20 340.211  21
   6   3  -7 970.978 176.174  21
   6   3  -6 8750.11 623.622  21
   6   3  -5 22405.9 1260.65  16
   6   3  -5 22873.9 1210.46  21
   6   3  -4 38301.1 1848.95  16
   6   3  -4 37155.3 1800.29  21
   6   3  -3 4302.85 451.696  16
   6   3  -3 4567.75 464.524  21
   6   3  -2 167.518 105.939  21
   6   3  -2 327.158 143.406   4
   6   3  -2 105.483 86.1269  16
   6   3  -2 176.215 73.4937  22
   6   3  -1 264.372 109.403  21
   6   3  -1 282.873 134.619   4
   6   3  -1 238.883 94.6046  22
   6   3   0 242.160 112.166  21
   6   3   0 486.713 169.056   4
   6   3   0 663.857 141.232  22
   6   3   1 13.8886 56.7426  21
   6   3   1-41.2959 58.1506   4
   6   3   2 6497.07 606.714   4
   6   3   2 6158.87 595.830  21
   6   3   3 166.241 135.504  17
   6   3   3 128.145 80.2812   4
   6   3   4 16888.2 1106.38   4
   6   3   4 18036.8 1291.84  17
   6   3   5 3117.56 415.755   4
   6   3   5 3008.91 477.342  17
   6   3   6 23193.0 1344.58   4
   6   3   6 21545.2 1456.80  17
   6   3   7 8269.41 682.958   4
   6   3   7 7158.01 729.353  17
   6   3   8 8037.15 638.290   4
   6   3   8 6985.36 676.221  17
   6   3   9 1097.31 244.528  17
   6   3   9 1266.06 219.797   4
   6   3  10 76.5512 75.3294  17
   6   3  10 64.3077 51.1677   4
   6   3  11 63.0681 53.6042  17
   6   3  11 69.2363 32.8983   4
   6   4 -10 73.7185 36.2289  21
   6   4  -9 43.7053 52.5215  21
   6   4  -8 4003.51 349.782  21
   6   4  -7 249.176 95.4947  21
   6   4  -6 4616.43 430.857  21
   6   4  -5 1719.93 267.994  21
   6   4  -4 2131.19 307.538  21
   6   4  -3 30538.8 1418.40  22
   6   4  -3 27278.4 1486.79  21
   6   4  -2 316.662 127.587  21
   6   4  -2 240.646 97.0725  20
   6   4  -2 300.740 137.317   4
   6   4  -2 481.728 131.046  22
   6   4  -1 1516.61 283.886  21
   6   4  -1 1722.48 278.512  20
   6   4  -1 1616.13 304.524   4
   6   4  -1 1947.17 251.129  22
   6   4   0 3.69831 47.3621  21
   6   4   0-24.9438 56.2658  20
   6   4   0-114.102 89.0604   4
   6   4   0 27.1124 53.8059  22
   6   4   1-125.211 97.7944  21
   6   4   1 26.7974 59.6910  20
   6   4   1 7.97952 73.3360   4
   6   4   1 57.1699 63.9650  22
   6   4   2 5677.76 551.880   4
   6   4   2 5745.47 592.388  21
   6   4   3 2547.12 355.209   4
   6   4   3 2643.71 458.810  17
   6   4   4 14172.3 943.269   4
   6   4   4 14050.8 1124.70  17
   6   4   5 2845.62 377.916   4
   6   4   5 2474.13 439.278  17
   6   4   6 6261.51 568.477   4
   6   4   6 4925.51 628.169  17
   6   4   7 24040.3 1296.22   4
   6   4   7 21871.8 1440.75  17
   6   4   8 4232.25 415.938   4
   6   4   8 3955.17 500.130  17
   6   4   9 648.731 193.588  17
   6   4   9 527.702 123.687   4
   6   4  10 6.77297 59.3929  17
   6   4  11 309.593 98.9248  17
   6   5 -10 3706.35 242.803  21
   6   5  -9 2030.71 202.418  21
   6   5  -8 232.237 85.7830  21
   6   5  -7 49.6898 59.0794  21
   6   5  -6 3787.24 370.857  21
   6   5  -5 1417.88 231.605  21
   6   5  -4 2894.20 334.204  22
   6   5  -4 2088.89 301.699  21
   6   5  -3 9159.05 637.441  22
   6   5  -3 7849.06 643.331  21
   6   5  -2 1022.71 224.859  21
   6   5  -2 589.021 171.907  20
   6   5  -2 1003.50 191.728  22
   6   5  -1 5801.95 579.586   4
   6   5  -1 5540.17 550.267  20
   6   5  -1 6163.31 497.360  22
   6   5  -1 5569.22 550.704  21
   6   5   0 4027.45 469.643   4
   6   5   0 3816.79 460.941  20
   6   5   0 4279.58 407.525  22
   6   5   0 3902.29 461.934  21
   6   5   1 7976.47 718.058  20
   6   5   1 9359.14 736.220   4
   6   5   1 9758.77 656.550  22
   6   5   1 9048.42 746.269  21
   6   5   2 2443.47 345.543   4
   6   5   2 2787.37 322.551  22
   6   5   2 2516.03 378.126  21
   6   5   3 101.301 93.5456   4
   6   5   3-111.666 76.1200  22
   6   5   4 858.523 253.793  17
   6   5   4 1324.17 240.936   4
   6   5   5 11.1119 70.7148  17
   6   5   6 2158.40 396.417  17
   6   5   7 6016.76 646.992  17
   6   5   8 1493.88 298.298  17
   6   5   9 8180.38 664.961  17
   6   5   9 7488.40 510.470   5
   6   5  10 70.2304 72.3428  17
   6   5  10-15.0690 38.6280   5
   6   5  11 2140.25 234.116  17
   6   6  -9 555.764 114.914  13
   6   6  -9 947.270 114.053  21
   6   6  -8 2054.66 278.381  13
   6   6  -8 2740.16 244.468  21
   6   6  -7 239.240 90.1816  21
   6   6  -6 1909.06 245.208  21
   6   6  -5 2199.78 279.854  22
   6   6  -5 1847.07 257.698  21
   6   6  -4 7232.90 554.089  22
   6   6  -4 6298.53 530.557  21
   6   6  -3 2312.09 307.509  22
   6   6  -3 1923.45 287.072  21
   6   6  -2-148.117 97.3376  21
   6   6  -2-91.5494 82.1753  20
   6   6  -2 121.994 98.7131  22
   6   6  -1 5901.94 577.466  20
   6   6  -1 6885.94 562.165  22
   6   6  -1 5740.42 552.671  21
   6   6   0 2753.79 389.376  20
   6   6   0 3168.31 370.066  22
   6   6   0 3057.15 395.039  21
   6   6   1-38.2271 88.9522  21
   6   6   1 41.7105 88.9759  20
   6   6   1-27.5018 68.5678  22
   6   6   2 9312.74 661.555  22
   6   6   2 7195.02 654.465  21
   6   6   3-35.4080 69.8970  21
   6   6   3 12.5477 36.8313  22
   6   6   4 502.647 134.749  22
   6   6   6 3598.16 489.354  17
   6   6   7 416.375 162.795  17
   6   6   7 366.049 125.182   5
   6   6   8 1270.77 258.908  17
   6   6   8 1315.19 203.353   5
   6   6   9 7997.63 618.492  17
   6   6   9 8005.96 503.388   5
   6   7  -8 868.718 155.535  13
   6   7  -7 486.079 142.966  13
   6   7  -7 674.007 111.851  21
   6   7  -6 1798.07 290.801  13
   6   7  -6 2186.31 223.341  21
   6   7  -5 1281.91 190.091  22
   6   7  -5 784.084 207.011  13
   6   7  -5 996.223 162.203  21
   6   7  -4 807.774 165.830  22
   6   7  -4 630.298 142.803  21
   6   7  -3 15118.6 898.122  22
   6   7  -3 14874.0 872.122  21
   6   7  -2 1110.18 212.779  21
   6   7  -2 1039.38 232.857  20
   6   7  -2 1252.26 222.772  22
   6   7  -1 3056.64 399.186  20
   6   7  -1 3650.26 399.619  22
   6   7  -1 2527.37 354.754  13
   6   7  -1 3027.77 361.032  21
   6   7   0 336.593 120.302  21
   6   7   0 329.348 143.504  20
   6   7   0 352.698 135.305  22
   6   7   1 1349.32 244.614  21
   6   7   1 995.875 245.052  20
   6   7   1 1426.89 247.995  22
   6   7   2 1818.67 320.248  20
   6   7   2 2573.47 330.134  22
   6   7   2 2343.56 324.526  21
   6   7   3-22.5273 63.5712  21
   6   7   3-22.8511 65.6183  20
   6   7   3 79.9392 68.7751  22
   6   7   4 6017.21 473.260  22
   6   7   4 5241.81 497.475  21
   6   7   5 751.052 170.406  21
   6   7   5 815.034 152.515  22
   6   7   5 699.093 161.487   5
   6   7   6 1407.85 230.155  21
   6   7   6 1331.87 179.642  22
   6   7   6 1807.25 245.948   5
   6   7   7 10253.5 634.718   5
   6   7   7 9084.95 633.963  21
   6   7   8 3103.14 285.213   5
   6   7   8 2646.82 277.769  21
   6   7   9 400.734 86.9988  21
   6   7   9 469.934 88.1195   5
   6   8  -7 124.759 55.7953  13
   6   8  -6 4056.15 361.730  13
   6   8  -5 4718.53 429.086  13
   6   8  -4 2066.57 227.985  22
   6   8  -4 1539.38 251.854  13
   6   8  -3 696.371 139.226  22
   6   8  -3 622.565 159.060  13
   6   8  -2 944.723 175.168  22
   6   8  -2 803.966 177.198  13
   6   8  -1 24.6546 71.6826  20
   6   8  -1 1.21370 69.1885  22
   6   8   0 186.416 84.4779  21
   6   8   0 1.57797 79.1553  20
   6   8   0 8.11477 63.2076  22
   6   8   1 5786.74 533.722  20
   6   8   1 6248.78 507.823  22
   6   8   1 5791.46 455.853  21
   6   8   2 2268.66 322.066  20
   6   8   2 2480.65 302.145  22
   6   8   2 1939.60 257.162  21
   6   8   3-25.3523 55.6169  21
   6   8   3 7.30077 59.7826  22
   6   8   4 9069.89 679.834  20
   6   8   4 9996.25 610.419  22
   6   8   4 9068.64 593.876  21
   6   8   5 1600.83 254.334  20
   6   8   5 1841.37 213.620  22
   6   8   5 1546.53 207.155  21
   6   8   6 2724.42 309.808  20
   6   8   6 2753.49 235.344  22
   6   8   6 2210.51 234.131  21
   6   8   7 1158.16 180.110  20
   6   8   8 376.049 84.4749  20
   6   9  -5 2746.13 222.128  13
   6   9  -4 769.138 121.402  13
   6   9  -3 1567.06 171.429  22
   6   9  -3 1389.96 172.689  13
   6   9  -2 88.3176 53.9254  22
   6   9  -2-35.1414 28.6237  13
   6   9  -1 80.0648 42.2036  22
   6   9   0 31.0585 50.7359  22
   6   9   1 5281.27 435.195  20
   6   9   1 5143.53 392.878  22
   6   9   2 22194.2 1104.52  20
   6   9   2 21322.6 1043.39  22
   6   9   3 3901.53 358.630  20
   6   9   3 4096.87 329.606  22
   6   9   4 4727.30 384.039  20
   6   9   4 5016.49 354.083  22
   6   9   5 803.868 137.598  20
   6   9   5 1044.68 130.252  22
   6  10   0 501.891 78.7156  22
   6  10   1 920.635 113.935  22
   6  10   2 10.2494 23.4982  22
   7  -2  -3 137.262 44.8079  16
  -7   2   3 50.2100 37.5155  15
   7  -2  -2 54.4378 38.6342  16
  -7   2   2 18.8327 29.6313  15
   7  -2  -1 869.427 122.165  16
  -7   2   1 874.031 129.915  15
   7  -2   0 126.851 51.2986  16
  -7   2   0 140.991 57.2179  15
   7  -2   1 1798.84 183.855  16
  -7   2  -1 1538.02 184.164  15
  -7   2  -2 3134.74 264.483  15
  -7   2  -3 1612.81 176.987  15
  -7   2  -4 1033.79 129.760  15
  -7   1   5 899.915 113.047  15
   7  -1  -4 700.479 122.647  16
  -7   1   4 535.465 107.215  15
   7  -1  -3 1822.95 216.071  16
  -7   1   3 1648.11 196.354  15
   7  -1  -2 84.1330 65.4558  16
  -7   1   2-65.3738 56.5733  15
   7  -1  -1 3001.45 299.610  16
  -7   1   1 3014.27 304.324  15
  -7   1   0 397.437 117.990  15
  -7   1  -1 1238.99 202.690  15
   7  -1   2 54.0543 38.2427   4
  -7   1  -2 65.4134 56.8380  15
   7  -1   3 411.812 92.7945   4
  -7   1  -3 441.556 112.146  15
   7  -1   4 805.415 130.972   4
  -7   1  -4 1139.32 167.861  15
   7  -1   5 314.619 79.5604   4
  -7   1  -5 182.001 72.3884  15
  -7   1  -6 928.863 123.528  15
  -7   0   7-44.0537 56.0731   6
  -7   0   6 167.317 88.2589   6
   7   0  -5 574.942 122.820  16
  -7   0   5 411.324 92.4452  15
  -7   0   5 504.443 156.004   6
   7   0  -4 1266.35 202.251  16
  -7   0   4 1045.13 158.811  15
  -7   0   4 1298.74 234.887   6
   7   0  -3 9687.84 632.101  16
  -7   0   3 7758.04 528.053  15
  -7   0   3 8203.71 647.522   6
   7   0  -2 105.275 75.6400  16
  -7   0   2-5.04797 51.8789  15
  -7   0   2 86.2391 81.2578   6
  -7   0   1 6704.75 515.541  15
   7   0   0 952.377 179.957   4
  -7   0   0 1623.29 247.958  15
   7   0   1 781.009 163.269   4
  -7   0  -1 948.254 186.620  15
   7   0   2 302.478 105.050   4
  -7   0  -2 611.627 155.463  15
   7   0   3 315.867 108.656   4
  -7   0  -3 273.773 103.521  15
   7   0   4 542.426 136.596   4
  -7   0  -4 843.000 163.030  15
   7   0   5 23.7506 52.1983   4
  -7   0  -5 51.4434 63.3839  15
   7   0   6 4708.90 384.771   4
  -7   0  -6 4950.42 356.664  15
   7   0   7 1259.29 169.592   4
   7   0   8 2859.82 229.006   4
  -7  -1   8-64.2235 52.1464   6
  -7  -1   7 103.407 79.3628   6
  -7  -1   6 278.753 128.893   6
   7   1  -5 340.673 108.820  16
  -7  -1   5 364.401 141.487   6
   7   1  -4 1550.49 241.214  16
   7   1  -3 4763.59 451.084  16
   7   1  -2 961.308 202.948  16
   7   1  -1 8490.20 667.461   4
   7   1   0 1420.13 263.541   4
   7   1   1 1768.93 287.039   4
   7   1   2 37.3732 82.2653   4
   7   1   3 131.647 107.892   4
   7   1   4 443.553 140.398   4
   7   1   5 0.47102 56.0528   4
   7   1   6 655.514 153.738   4
   7   1   7 696.581 147.072   4
   7   1   8 2644.71 257.067   4
   7   1   9 3620.35 262.800   4
  -7  -2   8 76.5665 64.1932   6
  -7  -2   7 652.894 163.918   6
   7   2  -7 583.034 91.1012  21
   7   2  -6 262.587 70.0251  21
   7   2  -5 1299.33 209.717  16
   7   2  -5 1434.04 175.282  21
   7   2  -4 1110.55 205.301  16
   7   2  -4 971.925 155.541  21
   7   2  -3 5067.32 461.679  16
   7   2  -3 4508.12 364.276  21
   7   2  -2 990.653 164.994  21
   7   2  -2 1006.55 199.891  16
   7   2  -1 8083.45 685.536   4
   7   2  -1 8102.06 620.250  16
   7   2  -1 7190.64 511.459  21
   7   2   0 685.600 143.172  21
   7   2   0 693.509 203.668   4
   7   2   1 4313.38 492.305   4
   7   2   1 4049.04 369.449  21
   7   2   2 1501.91 216.724  21
   7   2   2 1506.16 290.868   4
   7   2   3-83.8528 59.8041  21
   7   2   3 25.4112 84.2789   4
   7   2   4 2689.84 364.524   4
   7   2   4 2149.39 262.512  21
   7   2   5-67.6141 81.2363   4
   7   2   6 1463.36 241.288   4
   7   2   7 3481.73 346.375   4
   7   2   8 2781.16 276.272   4
   7   2   9 2804.60 241.714   4
  -7  -3   8 966.653 164.294   6
   7   3  -8 1434.99 142.868  21
  -7  -3   7-167.896 94.9132   6
   7   3  -7-42.0975 41.6588  21
   7   3  -6 4254.01 339.266  21
   7   3  -5 985.557 167.985  21
   7   3  -4 1062.17 188.793  16
   7   3  -4 934.352 170.628  21
   7   3  -3 2043.16 275.097  16
   7   3  -3 2215.65 276.420  21
   7   3  -2-33.2973 61.4515  21
   7   3  -2-13.0626 61.3421  16
   7   3  -1 306.246 120.389  21
   7   3  -1 239.811 145.840   4
   7   3  -1 162.573 87.5144  16
   7   3   0 392.047 125.688  21
   7   3   0 113.657 102.983   4
   7   3   1 1707.28 259.214  21
   7   3   1 1533.66 287.083   4
   7   3   2 1639.85 266.103  21
   7   3   2 1979.88 322.099   4
   7   3   3 2686.19 365.500   4
   7   3   3 2669.75 337.434  21
   7   3   4 7853.63 651.093   4
   7   3   4 7317.66 583.739  21
   7   3   5 112.696 76.0924  21
   7   3   5-84.3834 90.1932   4
   7   3   6 2186.79 299.869   4
   7   3   6 2043.87 269.478  21
   7   3   7 161.613 76.8013  21
   7   3   7 234.298 92.9093   4
   7   3   8 229.750 70.3897  21
   7   3   8-7.34276 39.8210   4
   7   3   9 105.940 48.8470   4
  -7  -4   8 501.164 102.984   6
   7   4  -8 1145.31 132.650  21
   7   4  -7 305.332 82.7126  21
   7   4  -6 3386.89 307.214  21
   7   4  -5 568.806 136.316  21
   7   4  -4 1058.57 190.997  21
   7   4  -3 2117.46 284.878  21
   7   4  -2 492.280 154.690  21
   7   4  -1 2227.67 345.176   4
   7   4  -1 2892.15 359.848  21
   7   4   0 689.697 174.834  21
   7   4   0 397.807 153.068   4
   7   4   1 1811.17 300.525   4
   7   4   1 2441.79 348.464  21
   7   4   2 2595.20 348.967   4
   7   4   2 2697.93 375.985  21
   7   4   3 1747.41 294.430  21
   7   4   3 1587.65 267.003   4
   7   4   4 2220.55 314.865   4
   7   4   4 2411.97 340.872  21
   7   4   5 20.5238 66.3030  21
   7   4   5-90.1733 85.6020   4
   7   4   6 867.637 188.428  21
   7   4   6 829.984 169.422   4
   7   4   7-0.74719 34.1740  21
   7   4   7 88.4925 66.8209   4
   7   4   8 168.804 73.2814  21
   7   4   8 8.43272 32.3978   4
   7   4   9 1340.53 156.268  21
   7   5  -8 48.8833 33.6483  21
   7   5  -7 81.5984 48.7131  21
   7   5  -6-54.7929 49.5165  21
   7   5  -5 2156.39 251.710  21
   7   5  -4 2394.28 286.364  21
   7   5  -3 4950.55 451.063  21
   7   5  -2 429.767 138.477  21
   7   5  -1 16570.7 960.744  20
   7   5  -1 17832.7 913.180  22
   7   5  -1 15136.2 990.153  21
   7   5   0 786.157 207.092  21
   7   5   0 432.129 138.896  20
   7   5   0 432.359 153.019   4
   7   5   1 2448.65 343.574   4
   7   5   1 2948.83 360.239  20
   7   5   1 3224.70 310.140  22
   7   5   1 2845.08 387.670  21
   7   5   2 2631.36 349.091  20
   7   5   2 2166.89 313.198   4
   7   5   2 2709.48 376.530  21
   7   5   3-90.4937 97.3023  21
   7   5   3 44.4747 62.2707  20
   7   5   3-138.914 88.0631   4
   7   5   4 12.8379 46.3589  20
   7   5   4 75.1993 51.0874   4
   7   5   5 373.143 133.648  21
   7   5   5 284.723 109.396   4
   7   5   6 1630.68 218.542   4
   7   5   6 1586.46 249.215  21
   7   5   7 1366.29 210.276  21
   7   5   8 2470.64 252.672  21
   7   5   9 4925.84 329.960  21
   7   6  -7 91.8243 59.0483  13
   7   6  -7 13.1716 31.5260  21
   7   6  -6 76.4544 54.7301  21
   7   6  -5 59.4243 51.9073  21
   7   6  -4 2266.44 261.903  21
   7   6  -3 4205.76 389.679  21
   7   6  -2 903.791 177.904  21
   7   6  -2 1089.93 188.666  22
   7   6  -1 7650.62 604.352  20
   7   6  -1 8485.53 572.376  22
   7   6  -1 7527.77 600.925  21
   7   6   0 316.967 120.351  21
   7   6   0 276.929 125.919  20
   7   6   0 454.784 121.270  22
   7   6   1 48.2765 71.9700  21
   7   6   1 65.4592 67.0820  20
   7   6   1 166.876 74.8938  22
   7   6   2 189.790 102.651  21
   7   6   2 9.01409 51.2785  20
   7   6   2 141.531 69.9618  22
   7   6   3-40.3633 72.8375  21
   7   6   3-43.3079 58.8606  20
   7   6   3 6.89747 39.6735  22
   7   6   4 4.31886 65.0869  21
   7   6   4 47.2471 69.8293  20
   7   6   5 29.3405 67.2355  21
   7   6   5-43.8646 59.8622  20
   7   6   6 3380.44 344.699  21
   7   6   7 765.530 143.623  21
   7   6   8 193.226 69.8925  21
   7   6   8-137.568 40.5087  20
   7   7  -6 180.118 70.1689  13
   7   7  -6 409.376 74.3635  21
   7   7  -5 393.180 114.428  13
   7   7  -5 505.329 95.7811  21
   7   7  -4 407.813 128.081  13
   7   7  -4 556.612 108.669  21
   7   7  -3 6347.13 545.570  13
   7   7  -3 7878.62 515.488  21
   7   7  -2 42.6486 59.3039  21
   7   7  -2 193.661 88.5265  22
   7   7  -2 110.318 66.7365  13
   7   7  -1 6942.85 493.835  22
   7   7  -1 5410.12 447.709  21
   7   7   0 1644.27 247.243  20
   7   7   0 1930.83 240.666  22
   7   7   0 1497.53 221.673  21
   7   7   1 1196.72 199.243  21
   7   7   1 1180.89 211.611  20
   7   7   1 1400.52 200.460  22
   7   7   2 174.856 83.5273  21
   7   7   2 121.069 80.0238  20
   7   7   2 130.943 68.7063  22
   7   7   3 317.364 106.801  21
   7   7   3 319.733 120.790  20
   7   7   3 372.986 93.6779  22
   7   7   4 949.336 174.496  21
   7   7   4 898.434 182.510  20
   7   7   4 906.646 129.634  22
   7   7   5-65.1715 57.7222  21
   7   7   5-9.98658 51.8734  20
   7   7   6 3053.19 304.380  20
   7   7   6 3289.91 300.144  21
   7   7   7 2318.34 234.857  20
   7   7   7 2687.82 236.567  21
   7   8  -4 280.063 71.5072  13
   7   8  -3 1172.32 159.018  13
   7   8  -3 1718.70 155.614  21
   7   8  -2 241.828 87.7569  22
   7   8  -2 186.526 61.4962  21
   7   8  -1 2711.69 256.222  22
   7   8  -1 2117.29 208.469  21
   7   8   0-91.5947 55.4934  21
   7   8   0 63.9939 58.8966  22
   7   8   1 2666.45 286.003  20
   7   8   1 2807.78 260.896  22
   7   8   1 2569.74 243.584  21
   7   8   2-14.8210 41.3027  21
   7   8   2 7.98717 48.5911  20
   7   8   2 43.1536 45.4131  22
   7   8   3 66.7806 51.7549  21
   7   8   3 74.8996 59.8528  20
   7   8   3 0.20426 28.0765  22
   7   8   4 373.328 84.9430  21
   7   8   4 327.945 96.1201  20
   7   8   4 347.026 73.1426  22
   7   8   5 128.252 50.3481  21
   7   8   5 167.348 69.2363  20
   7   8   6 38.2420 32.1764  20
   7   9  -1 262.086 63.3309  22
   7   9   0 493.609 86.5649  22
   7   9   1 688.540 100.242  22
   7   9   2 3621.64 243.284  22
   8   0  -1 2018.40 180.193  16
   8   0   0 184.940 57.1607  16
   8   0   1 3698.91 263.390  16
   8   0   2 449.146 79.7411  16
   8   1  -2 192.384 68.9569  16
   8   1  -1 1734.27 201.929  16
   8   1   0 1098.81 160.446  16
   8   1   1 2263.54 228.952  16
   8   1   2 260.744 74.1835   4
   8   1   2 336.339 83.1001  16
   8   1   3 611.662 111.605   4
   8   1   3 575.850 101.459  16
   8   1   4 778.850 120.186   4
  -8  -2   4 861.738 149.722   6
  -8  -2   3 941.903 159.142   6
   8   2  -2 33.3943 44.8178  16
   8   2  -1 3080.93 287.544  16
   8   2   0 213.409 79.8980  16
   8   2   1 142.490 86.7317   4
   8   2   1 189.113 65.8855  16
   8   2   2 1310.18 199.450   4
   8   2   2 1070.11 152.373  16
   8   2   3 654.347 137.896   4
   8   2   3 399.889 86.9424  16
   8   2   4 994.821 157.435   4
   8   2   4 453.180 81.7958  16
   8   2   5-20.6555 38.9537   4
   8   2   6 2385.62 205.976   4
  -8  -3   5 849.657 151.514   6
   8   3  -4 760.580 90.6110  21
   8   3  -3 123.264 47.3382  21
   8   3  -2 172.660 62.0961  16
   8   3  -2 225.780 61.1808  21
   8   3  -1 1494.75 161.652  21
   8   3   0 1146.59 146.030  21
   8   3   1 9111.03 640.607   4
   8   3   1 8326.03 482.175  21
   8   3   2 858.416 127.146  21
   8   3   2 791.367 173.662   4
   8   3   3 280.584 71.7207  21
   8   3   3 316.223 108.610   4
   8   3   4 1001.19 170.526   4
   8   3   5 626.400 122.003   4
   8   3   6 2029.37 197.602   4
   8   4  -5 3772.90 246.614  21
   8   4  -4 3447.03 257.205  21
   8   4  -3 20.1701 41.3617  21
   8   4  -2 240.415 74.6867  21
   8   4  -1 1378.68 183.302  21
   8   4   0 145.699 72.2784  21
   8   4   1 6653.78 463.918  21
   8   4   2 5421.64 457.600   4
   8   4   2 6109.35 430.860  21
   8   4   3 1078.28 183.718   4
   8   4   3 1151.01 167.957  21
   8   4   4 3660.55 332.060   4
   8   4   4 3912.34 308.964  21
   8   4   5 2033.05 217.793   4
   8   4   5 2128.72 200.625  21
   8   4   6 5414.78 342.534   4
   8   5  -5 3958.54 262.145  21
   8   5  -4 2688.61 230.591  21
   8   5  -3 39.8081 37.3791  21
   8   5  -2 145.009 67.3533  21
   8   5  -1 1397.29 194.413  21
   8   5   0 730.733 148.456  21
   8   5   1 6046.03 458.569  21
   8   5   2 1034.68 177.745  21
   8   5   3 1108.35 173.714  21
   8   5   4 1845.49 213.674  21
   8   5   5 605.234 107.841  21
   8   5   6 5256.67 323.328  21
   8   6  -4 399.508 79.3179  21
   8   6  -3 744.012 120.656  13
   8   6  -3 3226.23 233.764  21
   8   6  -2 20.4930 41.2042  21
   8   6  -1 5036.41 374.038  21
   8   6   0 473.186 113.072  21
   8   6   1 185.534 77.0357  21
   8   6   2 437.115 112.535  21
   8   6   3 203.994 76.3813  21
   8   6   4 341.151 87.6368  21
   8   6   5 49.0693 38.6118  21
   8   7  -2 96.9544 41.6237  21
   8   7  -1 1814.34 174.600  21
   8   7   0 1885.74 186.183  21
   8   7   1 3066.55 251.048  21
   8   7   2 494.931 95.2592  21
   8   7   3-34.1273 34.9745  21
   8   7   4 457.246 80.4781  21
   0   0   0    0.00    0.00   0

TITL NiDHTA_1 in P-1
REM P-1 (#2 in standard setting)
CELL 1.54184   6.949690   8.645524  12.406540  89.1441  87.7006  67.7069
ZERR    2.00   0.000526   0.000463   0.000923   0.0053   0.0061   0.0060
LATT  1
SFAC C H O Ni
UNIT 16.00 26.00 20.00 2.00
TREF
HKLF 4
END
;
_shelx_hkl_checksum              50572
loop_
_space_group_symop_operation_xyz
'x, y, z'
'-x, -y, -z'
loop_
_atom_site_label
_atom_site_type_symbol
_atom_site_fract_x
_atom_site_fract_y
_atom_site_fract_z
_atom_site_U_iso_or_equiv
_atom_site_adp_type
_atom_site_occupancy
_atom_site_site_symmetry_order
_atom_site_calc_flag
_atom_site_refinement_flags_posn
_atom_site_refinement_flags_adp
C11 C 0.4880(4) 0.9171(3) 0.4058(2) 0.0271(5) Uani 1 1 d . .
C12 C 0.3960(4) 1.0923(3) 0.4130(2) 0.0277(5) Uani 1 1 d . .
C13 C 0.5921(4) 0.8270(3) 0.4939(2) 0.0288(5) Uani 1 1 d . .
H13 H 0.6543 0.7110 0.4900 0.035 Uiso 1 1 calc R U
C14 C 0.4717(4) 0.8267(4) 0.3077(2) 0.0295(6) Uani 1 1 d . .
C21 C 0.9022(4) 0.0837(3) 0.4076(2) 0.0269(5) Uani 1 1 d . .
C22 C 0.9092(4) 0.1744(3) 0.4986(2) 0.0274(5) Uani 1 1 d . .
C23 C 1.0055(4) 0.0911(3) 0.5892(2) 0.0274(5) Uani 1 1 d . .
H23 H 1.0093 0.1523 0.6496 0.033 Uiso 1 1 calc R U
C24 C 0.7967(4) 0.1681(3) 0.3079(2) 0.0292(6) Uani 1 1 d . .
Ni1 Ni 0.52856(7) 0.49786(5) 0.20767(3) 0.0271(2) Uani 1 1 d . .
O1W O 0.2618(3) 0.5061(2) 0.29052(13) 0.0342(4) Uani 1 1 d D .
O2W O 0.5219(3) 0.3066(2) 0.10767(14) 0.0320(4) Uani 1 1 d D .
O3W O 0.7845(3) 0.4996(2) 0.11772(17) 0.0414(5) Uani 1 1 d D .
O4W O 0.3402(3) 0.6815(2) 0.10606(13) 0.0321(4) Uani 1 1 d D .
O5W O 0.9023(3) 0.7739(2) 0.12574(12) 0.0463(6) Uani 1 1 d DG .
O6W O 0.8323(5) 0.7803(3) -0.08919(13) 0.0572(7) Uani 1 1 d DG .
O11 O 0.5464(3) 0.6703(2) 0.31000(16) 0.0350(5) Uani 1 1 d . .
O12 O 0.3833(4) 0.9123(3) 0.22689(16) 0.0397(5) Uani 1 1 d . .
O13 O 0.2898(4) 1.1857(3) 0.32899(17) 0.0379(5) Uani 1 1 d . .
H13O H 0.2920 1.1238 0.2791 0.057 Uiso 1 1 calc R U
O21 O 0.7102(3) 0.3265(2) 0.31246(16) 0.0358(5) Uani 1 1 d . .
O22 O 0.7951(4) 0.0850(3) 0.22684(17) 0.0433(5) Uani 1 1 d . .
O23 O 0.8225(4) 0.3449(2) 0.50292(17) 0.0397(5) Uani 1 1 d . .
H23O H 0.7630 0.3813 0.4468 0.060 Uiso 1 1 calc R U
H2WB H 0.4127(3) 0.2868(5) 0.1066(6) 0.048(11) Uiso 1 1 d D .
H4WB H 0.3764(13) 0.6790(6) 0.04049(17) 0.072(15) Uiso 1 1 d D .
H4WA H 0.3509(9) 0.7681(3) 0.1302(3) 0.079(16) Uiso 1 1 d D .
H5WA H 1.0311(3) 0.7483(8) 0.1164(7) 0.083(17) Uiso 1 1 d D .
H5WB H 0.8608(8) 0.8635(4) 0.1610(4) 0.063(14) Uiso 1 1 d D .
H2WA H 0.6030(5) 0.2292(5) 0.1450(4) 0.066(14) Uiso 1 1 d D .
H1WA H 0.2511(14) 0.5503(4) 0.35144(19) 0.046(11) Uiso 1 1 d D .
H3WA H 0.8132(8) 0.5740(3) 0.1480(5) 0.059(13) Uiso 1 1 d D .
H1WB H 0.2610(9) 0.4107(3) 0.3036(4) 0.060(13) Uiso 1 1 d D .
H3WB H 0.8949(6) 0.4141(3) 0.1187(8) 0.074(15) Uiso 1 1 d D .
H6WA H 0.8621(13) 0.7785(6) -0.0241(2) 0.076(15) Uiso 1 1 d D .
H6WB H 0.803(2) 0.8800(3) -0.1085(3) 0.16(3) Uiso 1 1 d D .
loop_
_atom_site_aniso_label
_atom_site_aniso_U_11
_atom_site_aniso_U_22
_atom_site_aniso_U_33
_atom_site_aniso_U_23
_atom_site_aniso_U_13
_atom_site_aniso_U_12
C11 0.0330(13) 0.0304(13) 0.0221(12) -0.0007(10) 0.0004(10) -0.0169(11)
C12 0.0316(13) 0.0300(13) 0.0236(12) 0.0038(10) -0.0026(10) -0.0140(11)
C13 0.0340(13) 0.0262(12) 0.0276(13) 0.0024(10) -0.0032(10) -0.0130(11)
C14 0.0345(14) 0.0339(14) 0.0239(13) -0.0002(11) -0.0014(10) -0.0173(12)
C21 0.0272(12) 0.0303(13) 0.0211(12) 0.0038(10) -0.0037(9) -0.0082(10)
C22 0.0292(13) 0.0244(12) 0.0262(13) 0.0027(10) -0.0022(10) -0.0073(10)
C23 0.0300(13) 0.0294(13) 0.0213(12) -0.0002(10) -0.0031(10) -0.0091(11)
C24 0.0308(13) 0.0287(13) 0.0256(13) 0.0043(11) -0.0040(10) -0.0084(11)
Ni1 0.0348(3) 0.0245(3) 0.0199(3) 0.00309(18) -0.00602(19) -0.0084(2)
O1W 0.0423(11) 0.0294(10) 0.0285(10) 0.0022(8) 0.0011(8) -0.0113(8)
O2W 0.0405(11) 0.0307(10) 0.0227(9) 0.0032(8) -0.0083(8) -0.0105(8)
O3W 0.0417(12) 0.0431(12) 0.0408(12) -0.0009(9) 0.0015(9) -0.0178(10)
O4W 0.0423(11) 0.0300(10) 0.0231(9) 0.0044(7) -0.0072(8) -0.0121(8)
O5W 0.0452(13) 0.0424(13) 0.0499(14) -0.0033(10) -0.0066(10) -0.0145(10)
O6W 0.0787(19) 0.0495(14) 0.0446(14) 0.0073(11) -0.0172(13) -0.0245(13)
O11 0.0482(12) 0.0276(10) 0.0278(10) -0.0023(8) -0.0087(8) -0.0119(9)
O12 0.0632(14) 0.0326(10) 0.0238(10) 0.0040(8) -0.0128(9) -0.0179(10)
O13 0.0565(13) 0.0314(10) 0.0272(10) 0.0054(8) -0.0140(9) -0.0173(9)
O21 0.0481(12) 0.0274(10) 0.0266(10) 0.0063(8) -0.0143(8) -0.0074(9)
O22 0.0614(14) 0.0306(10) 0.0263(10) 0.0013(8) -0.0172(9) -0.0028(10)
O23 0.0573(13) 0.0265(10) 0.0271(10) 0.0033(8) -0.0136(9) -0.0056(9)
loop_
_atom_type_symbol
_atom_type_description
_atom_type_scat_dispersion_real
_atom_type_scat_dispersion_imag
_atom_type_scat_source
C C 0.0181 0.0091 'International Tables Vol C Tables 4.2.6.8 and 6.1.1.4'
H H 0.0000 0.0000 'International Tables Vol C Tables 4.2.6.8 and 6.1.1.4'
Ni Ni -3.0029 0.5091 'International Tables Vol C Tables 4.2.6.8 and 6.1.1.4'
O O 0.0492 0.0322 'International Tables Vol C Tables 4.2.6.8 and 6.1.1.4'
loop_
_geom_angle_atom_site_label_1
_geom_angle_atom_site_label_2
_geom_angle_atom_site_label_3
_geom_angle
_geom_angle_site_symmetry_1
_geom_angle_site_symmetry_3
C13 C11 C12 118.8(3) . .
C13 C11 C14 119.6(2) . .
C12 C11 C14 121.5(2) . .
O13 C12 C13 118.7(2) . 2_676
O13 C12 C11 120.8(3) . .
C13 C12 C11 120.5(3) 2_676 .
C12 C13 C11 120.7(3) 2_676 .
C12 C13 H13 119.6 2_676 .
C11 C13 H13 119.6 . .
O11 C14 O12 124.0(3) . .
O11 C14 C11 117.7(2) . .
O12 C14 C11 118.3(3) . .
C22 C21 C23 118.8(2) . 2_756
C22 C21 C24 121.8(2) . .
C23 C21 C24 119.4(3) 2_756 .
O23 C22 C23 117.4(2) . .
O23 C22 C21 122.8(2) . .
C23 C22 C21 119.8(2) . .
C22 C23 C21 121.5(3) . 2_756
C22 C23 H23 119.3 . .
C21 C23 H23 119.3 2_756 .
O22 C24 O21 123.4(2) . .
O22 C24 C21 120.8(2) . .
O21 C24 C21 115.8(2) . .
O11 Ni1 O21 85.61(8) . .
O11 Ni1 O1W 89.02(8) . .
O21 Ni1 O1W 91.36(8) . .
O11 Ni1 O3W 91.46(8) . .
O21 Ni1 O3W 92.17(8) . .
O1W Ni1 O3W 176.46(7) . .
O11 Ni1 O4W 91.80(8) . .
O21 Ni1 O4W 177.32(7) . .
O1W Ni1 O4W 87.92(7) . .
O3W Ni1 O4W 88.55(7) . .
O11 Ni1 O2W 176.38(7) . .
O21 Ni1 O2W 90.77(7) . .
O1W Ni1 O2W 91.09(7) . .
O3W Ni1 O2W 88.65(7) . .
O4W Ni1 O2W 91.82(7) . .
Ni1 O1W H1WA 110.9(7) . .
Ni1 O1W H1WB 112.9(4) . .
H1WA O1W H1WB 104.683(18) . .
Ni1 O2W H2WB 119.1(5) . .
Ni1 O2W H2WA 94.5(4) . .
H2WB O2W H2WA 104.683(18) . .
Ni1 O3W H3WA 102.9(5) . .
Ni1 O3W H3WB 118.4(6) . .
H3WA O3W H3WB 104.683(19) . .
Ni1 O4W H4WB 118.6(5) . .
Ni1 O4W H4WA 101.9(3) . .
H4WB O4W H4WA 104.683(18) . .
H5WA O5W H5WB 104.683(19) . .
H6WA O6W H6WB 104.683(18) . .
C14 O11 Ni1 131.89(18) . .
C12 O13 H13O 109.5 . .
C24 O21 Ni1 131.86(18) . .
C22 O23 H23O 109.5 . .
loop_
_geom_bond_atom_site_label_1
_geom_bond_atom_site_label_2
_geom_bond_distance
_geom_bond_site_symmetry_2
C11 C13 1.391(4) .
C11 C12 1.405(4) .
C11 C14 1.487(4) .
C12 O13 1.366(3) .
C12 C13 1.380(4) 2_676
C13 C12 1.380(4) 2_676
C13 H13 0.9300 .
C14 O11 1.251(3) .
C14 O12 1.269(4) .
C21 C22 1.397(4) .
C21 C23 1.400(4) 2_756
C21 C24 1.496(3) .
C22 O23 1.365(3) .
C22 C23 1.379(4) .
C23 C21 1.400(4) 2_756
C23 H23 0.9300 .
C24 O22 1.247(4) .
C24 O21 1.271(3) .
Ni1 O11 2.015(2) .
Ni1 O21 2.0331(18) .
Ni1 O1W 2.0612(19) .
Ni1 O3W 2.066(2) .
Ni1 O4W 2.0786(17) .
Ni1 O2W 2.0972(19) .
O1W H1WA 0.84000(12) .
O1W H1WB 0.84000(12) .
O2W H2WB 0.84000(12) .
O2W H2WA 0.84000(13) .
O3W H3WA 0.84000(11) .
O3W H3WB 0.84000(13) .
O4W H4WB 0.84000(12) .
O4W H4WA 0.84000(12) .
O5W H5WA 0.8400 .
O5W H5WB 0.8400 .
O6W H6WA 0.8400 .
O6W H6WB 0.8400 .
O13 H13O 0.8200 .
O23 H23O 0.8200 .
