#------------------------------------------------------------------------------
#$Date: 2021-04-01 01:28:31 +0300 (Thu, 01 Apr 2021) $
#$Revision: 263496 $
#$URL: file:///home/coder/svn-repositories/cod/cif/4/00/38/4003895.cif $
#------------------------------------------------------------------------------
#
# This file is available in the Crystallography Open Database (COD),
# http://www.crystallography.net/
#
# All data on this site have been placed in the public domain by the
# contributors.
#
data_4003895
loop_
_publ_author_name
'M\;aczka, Miros\/law'
'Zar\;eba, Jan K.'
'G\;agor, Anna'
'Stefa\'nska, Dagmara'
'Ptak, Maciej'
'Roleder, Krystian'
'Kajewski, Dariusz'
'Soszy\'nski, Andrzej'
'Fedoruk, Katarzyna'
'Sieradzki, Adam'
_publ_section_title
;
 [Methylhydrazinium]2PbBr4, a Ferroelectric Hybrid Organic--Inorganic
 Perovskite with Multiple Nonlinear Optical Outputs
;
_journal_name_full               'Chemistry of Materials'
_journal_paper_doi               10.1021/acs.chemmater.0c04440
_journal_year                    2021
_chemical_formula_sum            'C2 H14 Br4 N4 Pb'
_chemical_formula_weight         621.00
_space_group_crystal_system      orthorhombic
_space_group_IT_number           31
_space_group_name_Hall           'P 2ac -2'
_space_group_name_H-M_alt        'P m n 21'
_atom_sites_solution_hydrogens   mixed
_audit_creation_method           SHELXL-2018/3
_cell_angle_alpha                90
_cell_angle_beta                 90
_cell_angle_gamma                90
_cell_formula_units_Z            2
_cell_length_a                   17.3681(10)
_cell_length_b                   6.0644(3)
_cell_length_c                   5.9834(3)
_cell_measurement_reflns_used    4310
_cell_measurement_temperature    100.0(3)
_cell_measurement_theta_max      32.5020
_cell_measurement_theta_min      3.4030
_cell_volume                     630.21(6)
_computing_cell_refinement       'CrysAlisPro 1.171.38.46 (Rigaku OD, 2015)'
_computing_data_collection       'CrysAlisPro 1.171.38.46 (Rigaku OD, 2015)'
_computing_data_reduction        'CrysAlisPro 1.171.38.46 (Rigaku OD, 2015)'
_computing_structure_refinement  'SHELXL-2018/3 (Sheldrick, 2018)'
_diffrn_ambient_environment      N~2~
_diffrn_ambient_temperature      100.0(3)
_diffrn_detector                 'CCD plate'
_diffrn_detector_area_resol_mean 10.6249
_diffrn_detector_type            Atlas
_diffrn_measured_fraction_theta_full 0.999
_diffrn_measured_fraction_theta_max 0.999
_diffrn_measurement_device       'four-circle diffractometer'
_diffrn_measurement_device_type  'Xcalibur, Atlas'
_diffrn_radiation_monochromator  graphite
_diffrn_radiation_probe          x-ray
_diffrn_radiation_type           'Mo K\a'
_diffrn_radiation_wavelength     0.71073
_diffrn_reflns_av_R_equivalents  0.0308
_diffrn_reflns_av_unetI/netI     0.0302
_diffrn_reflns_Laue_measured_fraction_full 0.999
_diffrn_reflns_Laue_measured_fraction_max 0.999
_diffrn_reflns_limit_h_max       21
_diffrn_reflns_limit_h_min       -21
_diffrn_reflns_limit_k_max       7
_diffrn_reflns_limit_k_min       -6
_diffrn_reflns_limit_l_max       7
_diffrn_reflns_limit_l_min       -7
_diffrn_reflns_number            3819
_diffrn_reflns_point_group_measured_fraction_full 0.996
_diffrn_reflns_point_group_measured_fraction_max 0.996
_diffrn_reflns_theta_full        25.654
_diffrn_reflns_theta_max         25.654
_diffrn_reflns_theta_min         3.359
_diffrn_source                   'fine-focus sealed X-ray tube'
_diffrn_source_type              'Enhance (Mo) X-ray Source'
_exptl_absorpt_coefficient_mu    26.026
_exptl_absorpt_correction_T_max  0.119
_exptl_absorpt_correction_T_min  0.023
_exptl_absorpt_correction_type   gaussian
_exptl_absorpt_process_details
;
CrysAlisPro 1.171.38.46 (Rigaku Oxford Diffraction, 2015)
Numerical absorption correction based on gaussian integration over
			a multifaceted crystal model
Empirical absorption correction using spherical harmonics,
 implemented in SCALE3 ABSPACK scaling algorithm.
;
_exptl_crystal_density_diffrn    3.273
_exptl_crystal_description       plate
_exptl_crystal_F_000             552
_exptl_crystal_size_max          0.315
_exptl_crystal_size_mid          0.273
_exptl_crystal_size_min          0.114
_refine_diff_density_max         1.865
_refine_diff_density_min         -1.325
_refine_diff_density_rms         0.203
_refine_ls_abs_structure_details
;
 Refined as an inversion twin.
;
_refine_ls_abs_structure_Flack   0.055(16)
_refine_ls_extinction_coef       0.0036(5)
_refine_ls_extinction_expression Fc^*^=kFc[1+0.001xFc^2^\l^3^/sin(2\q)]^-1/4^
_refine_ls_extinction_method     'SHELXL-2018/3 (Sheldrick 2018)'
_refine_ls_goodness_of_fit_ref   1.090
_refine_ls_hydrogen_treatment    mixed
_refine_ls_matrix_type           full
_refine_ls_number_parameters     65
_refine_ls_number_reflns         1245
_refine_ls_number_restraints     4
_refine_ls_restrained_S_all      1.088
_refine_ls_R_factor_all          0.0258
_refine_ls_R_factor_gt           0.0254
_refine_ls_shift/su_max          0.001
_refine_ls_shift/su_mean         0.000
_refine_ls_structure_factor_coef Fsqd
_refine_ls_weighting_details
'w=1/[\s^2^(Fo^2^)+(0.0441P)^2^] where P=(Fo^2^+2Fc^2^)/3'
_refine_ls_weighting_scheme      calc
_refine_ls_wR_factor_gt          0.0651
_refine_ls_wR_factor_ref         0.0654
_reflns_Friedel_coverage         0.812
_reflns_Friedel_fraction_full    0.993
_reflns_Friedel_fraction_max     0.993
_reflns_number_gt                1228
_reflns_number_total             1245
_reflns_threshold_expression     'I > 2\s(I)'
_cod_data_source_file            cm0c04440_si_005.cif
_cod_data_source_block           IV
_cod_database_code               4003895
_shelx_shelxl_version_number     2018/3
_shelx_space_group_comment
;
The symmetry employed for this shelxl refinement is uniquely defined
by the following loop, which should always be used as a source of
symmetry information in preference to the above space-group names.
They are only intended as comments.
;
_oxdiff_exptl_absorpt_empirical_full_min 0.838
_oxdiff_exptl_absorpt_empirical_full_max 1.288
_oxdiff_exptl_absorpt_empirical_details
;
Empirical correction (ABSPACK) includes:
- Absorption correction using spherical harmonics
- Frame scaling
;
_shelx_res_file
;
TITL MHy_PbBr3_HT_1_300_00-abs in Pmn2(1)
    100.res
    created by SHELXL-2018/3 at 11:56:41 on 15-Jun-2020
REM Pmn2(1) (#31, found as P2(1)nm in -cba setting)
CELL 0.71073  17.3681 6.0644 5.9834  90.0000  90.0000  90.0000
ZERR    2.00   0.000980   0.000303   0.000286   0.0000   0.0000   0.0000
LATT -1
SYMM -x+1/2,-y, z+1/2
SYMM  x+1/2,-y, z+1/2
SYMM -x, y, z
SFAC C H N Br Pb
UNIT 4 28 8 8 2
acta 56
L.S. 30
PLAN  40
BOND
LIST 6
fmap 2
twin
bond $h
htab
omit 0 6 -1
shel 10 0.82
EQIV $1 x, y, z-1
HTAB C3 Br3_$1
EQIV $2 x, y-1, z
HTAB C3 Br1_$2
HTAB C3 Br3
EQIV $6 x+1/2, -y+1, z-1/2
HTAB C3 Br2_$6
EQIV $7 -x+1, y, z-1
EQIV $8 x+1/2, -y+2, z-1/2
HTAB N1 Br2_$8
EQIV $4 -x+1, y, z
EQIV $9 -x+3/2, -y+1, z+1/2
HTAB N2 Br1
EQIV $11 -x, y, z-1
HTAB N1 Br2_$11
HTAB N1 Br2_$8
EQIV $5 -x, y, z
HTAB N1 Br2_$5
HTAB N2 Br1
HTAB N2 Br2_$5
HTAB N2 Br3
EQIV $12 -x+1/2, -y+1, z+1/2
HTAB N2 N1_$12
HTAB C3 Br3_$1
HTAB C3 Br1_$2
HTAB C3 Br3
HTAB C3 Br2_$6
dfix 0.89 n1 h1a n1 h1b
dfix 1.44 0.005 h1a h1b
WGHT    0.044100
EXTI    0.003644
BASF   0.05473
FVAR       2.83583   0.24316
PB1   5    0.000000    0.905372    0.819577    10.50000    0.00782    0.00725 =
         0.00610    0.00020    0.00000    0.00000
BR1   4    0.000000    0.829760    0.309361    10.50000    0.01469    0.01192 =
         0.00620    0.00014    0.00000    0.00000
BR2   4   -0.170408    0.907492    0.796907    11.00000    0.00870    0.01533 =
         0.01228   -0.00207    0.00040    0.00156
BR3   4    0.000000    0.416547    0.787684    10.50000    0.01804    0.00745 =
         0.01181    0.00022    0.00000    0.00000

N1    3    0.208905    0.637230    0.281504    11.00000    0.01875    0.01682 =
         0.01218    0.00401   -0.00003   -0.00190
H1B   2    0.177198    0.720726    0.197865    11.00000   -1.50000
H1A   2    0.232805    0.729774    0.376051    11.00000   -1.50000
N2    3    0.170378    0.488008    0.432940    11.00000    0.01545    0.01241 =
         0.01257    0.00219    0.00281   -0.00196
AFIX  23
H2A   2    0.136019    0.562478    0.513448    11.00000   -1.20000
H2B   2    0.204679    0.429947    0.526475    11.00000   -1.20000
AFIX   0

C3    1    0.131433    0.310865    0.311087    11.00000    0.01718    0.01703 =
         0.01877   -0.00105   -0.00107   -0.00200
AFIX 137
H3A   2    0.099414    0.373326    0.196649    11.00000   -1.50000
H3B   2    0.100213    0.227179    0.412750    11.00000   -1.50000
H3C   2    0.169135    0.215925    0.243957    11.00000   -1.50000
AFIX   0
HKLF 4




REM  MHy_PbBr3_HT_1_300_00-abs in Pmn2(1)
REM wR2 = 0.0654, GooF = S = 1.090, Restrained GooF = 1.088 for all data
REM R1 = 0.0254 for 1228 Fo > 4sig(Fo) and 0.0258 for all 1245 data
REM 65 parameters refined using 4 restraints

END

WGHT      0.0442      0.0000

REM Instructions for potential hydrogen bonds
HTAB N1 Br2_$11
HTAB N1 Br2_$8
HTAB N1 Br2_$5
HTAB N2 Br1
HTAB N2 Br2_$5
HTAB N2 Br3
HTAB N2 N1_$12
HTAB C3 Br3_$1
HTAB C3 Br1_$2
HTAB C3 Br3
HTAB C3 Br2_$6

REM Highest difference peak  1.865,  deepest hole -1.325,  1-sigma level  0.203
Q1    1   0.0000  1.0400  0.8193  10.50000  0.05    1.87
Q2    1   0.0000  0.7526  0.8417  10.50000  0.05    1.41
Q3    1   0.0000  0.5262  0.8229  10.50000  0.05    0.98
Q4    1   0.0000  0.4565  0.3060  10.50000  0.05    0.97
Q5    1   0.0000  0.2537  0.7481  10.50000  0.05    0.92
Q6    1   0.0000  0.9668  0.3243  10.50000  0.05    0.83
Q7    1   0.0000  0.7584  0.3187  10.50000  0.05    0.78
Q8    1   0.0000  0.2502  0.8938  10.50000  0.05    0.75
Q9    1  -0.1615  0.7556  0.7430  11.00000  0.05    0.68
Q10   1   0.0000  0.6581  0.2020  10.50000  0.05    0.64
Q11   1  -0.1585  1.0471  0.7172  11.00000  0.05    0.63
Q12   1   0.0000  0.9018  1.0434  10.50000  0.05    0.60
Q13   1   0.0611  0.9826  0.9266  11.00000  0.05    0.58
Q14   1  -0.1608  0.7558  0.8662  11.00000  0.05    0.57
Q15   1  -0.1585  1.0516  0.9164  11.00000  0.05    0.57
Q16   1   0.1954  0.9147  0.1885  11.00000  0.05    0.57
Q17   1   0.0597  0.9902  0.6935  11.00000  0.05    0.57
Q18   1   0.0000  0.6660  0.4165  10.50000  0.05    0.55
Q19   1   0.2030  0.9122  0.4228  11.00000  0.05    0.55
Q20   1   0.2354  0.9174  0.3165  11.00000  0.05    0.53
Q21   1   0.1500  0.6576  0.4194  11.00000  0.05    0.52
Q22   1   0.1731  0.7829  0.3052  11.00000  0.05    0.49
Q23   1   0.1497  0.6583  0.1952  11.00000  0.05    0.48
Q24   1  -0.2069  0.8390  0.6635  11.00000  0.05    0.47
Q25   1   0.0432  0.8831  0.4233  11.00000  0.05    0.47
Q26   1   0.0479  0.1014  0.3270  11.00000  0.05    0.46
Q27   1  -0.1809  0.8984  0.5729  11.00000  0.05    0.46
Q28   1   0.2195  0.0950  0.4153  11.00000  0.05    0.45
Q29   1  -0.2059  0.8404  0.9869  11.00000  0.05    0.45
Q30   1   0.0643  0.4900  0.9158  11.00000  0.05    0.45
Q31   1   0.0447  0.8741  0.2124  11.00000  0.05    0.45
Q32   1   0.0630  0.4789  0.6946  11.00000  0.05    0.45
Q33   1   0.0000  0.7324  1.0283  10.50000  0.05    0.43
Q34   1   0.1502  0.2300  0.6892  11.00000  0.05    0.42
Q35   1   0.2123  0.6642  0.6780  11.00000  0.05    0.39
Q36   1   0.0563  0.6740  0.3118  11.00000  0.05    0.39
Q37   1   0.1327  0.1430  0.1331  11.00000  0.05    0.38
Q38   1   0.1550  0.3156  0.1615  11.00000  0.05    0.38
Q39   1   0.1493  0.2006 -0.0041  11.00000  0.05    0.37
Q40   1  -0.1461  1.2360  0.8734  11.00000  0.05    0.37
;
_shelx_res_checksum              69014
_shelx_hkl_file
;
   0   0  -8 109360. 4139.57   3
   0   0  -7 64.5468 296.969   3
   0   0  -6 237996. 6241.94   3
   0   0  -5 481.344 337.670   3
   0   0  -4 456763. 9722.22   3
   0   0  -3 871.863 283.510   3
   0   0  -2 849812. 16295.0   2
   0   0  -2 882027. 16454.8   3
   0   0  -1 3408.26 254.922   3
   0   0  -1 2610.21 222.161   2
   0   0   1 2640.38 221.760   2
   0   0   1 3169.74 259.830   3
   0   0   2 941146. 17349.8   2
   0   0   2 900960. 17534.0   3
   0   0   3 837.813 269.390   2
   0   0   4 509482. 10639.5   2
   0   0   5 269.996 276.059   2
   0   0   6 276697. 7081.04   2
   0   0   7 329.102 325.999   2
   0   0   8 136592. 5022.80   2
   0  -1  -8 33268.6 2171.90   3
   0   1  -8 33950.0 2112.31   3
   0  -1  -7 7640.17 964.135   3
   0   1  -7 8020.32 948.602   3
   0   1  -6 73218.8 2810.36   3
   0  -1  -6 74845.2 3011.84   3
   0  -1  -5 14554.0 1188.53   3
   0   1  -5 13893.0 1048.56   3
   0   1  -4 142319. 3912.81   3
   0  -1  -4 161561. 4345.08   3
   0   1  -3 22561.8 1101.16   3
   0  -1  -3 22279.5 1172.33   3
   0  -1  -2 204886. 4600.22   3
   0  -1  -2 201813. 4497.99   2
   0   1  -2 213272. 4498.93   2
   0  -1  -1 35143.7 1101.70   3
   0  -1  -1 35383.7 1088.85   2
   0   1  -1 37902.0 900.506   1
   0   1  -1 35304.9 1044.40   2
   0   1   0 203737. 3965.99   1
   0   1   1 37115.5 880.157   2
   0   1   1 39269.7 984.905   3
   0   1   2 210119. 4720.85   3
   0  -1   2 210970. 4559.38   2
   0  -1   2 213469. 4409.10   1
   0   1   2 199994. 4450.19   2
   0  -1   3 23582.3 1028.66   1
   0   1   3 24243.6 1109.25   2
   0  -1   3 26577.8 1234.23   2
   0  -1   4 149460. 3832.32   1
   0   1   4 160166. 4191.01   2
   0  -1   5 16663.1 1210.72   2
   0   1   5 17112.4 1169.97   2
   0  -1   5 14857.5 948.896   1
   0   1   6 90359.3 3318.68   2
   0  -1   6 94329.5 3498.53   2
   0   1   7 9668.49 1076.07   2
   0  -1   7 11918.8 1300.59   2
   0   1   7 10216.2 932.836   1
   0   1   8 41731.7 2492.20   2
   0  -1   8 47267.9 2777.90   2
   0  -2  -8 6108.45 1042.29   3
   0   2  -8 5556.85 862.060   3
   0   2  -7 49533.9 2407.07   3
   0  -2  -7 47746.1 2609.86   3
   0  -2  -6 12484.4 1254.63   3
   0   2  -6 12820.8 1119.26   3
   0   2  -5 124378. 3785.38   3
   0  -2  -5 133580. 4328.66   3
   0  -2  -4 19742.3 1321.56   3
   0   2  -4 17905.9 1122.51   3
   0  -2  -3 251457. 5973.86   3
   0   2  -2 33825.8 1198.60   1
   0  -2  -2 35697.4 1452.10   2
   0  -2  -2 35988.8 1450.31   3
   0  -2  -1 355416. 8670.44   2
   0  -2  -1 368890. 8130.59   3
   0   2   0 70025.3 1877.39   3
   0   2   0 65833.0 1753.45   1
   0   2   1 380224. 6372.76   2
   0   2   1 381465. 6170.91   3
   0   2   2 37446.9 1243.06   2
   0  -2   2 23705.6 699.507   1
   0   2   3 247947. 5493.77   2
   0  -2   3 255337. 5733.99   2
   0  -2   3 238285. 4680.87   1
   0   2   4 18375.6 1104.23   2
   0  -2   4 17245.8 693.808   1
   0  -2   4 19260.8 1271.21   2
   0   2   5 129528. 3967.43   2
   0  -2   5 139329. 4398.94   2
   0   2   6 10373.8 1039.34   2
   0   2   6 10390.3 948.709   1
   0  -2   6 12915.7 1246.43   2
   0   2   7 51992.5 2617.85   2
   0   2   7 52074.8 2424.78   1
   0   2   8 4695.03 872.884   2
   0  -3  -8 10109.9 1347.14   3
   0   3  -8 10066.6 1179.92   3
   0   3  -7 51854.5 2523.90   3
   0  -3  -7 49994.2 2884.14   3
   0  -3  -6 15407.5 1541.85   3
   0   3  -6 16264.6 1280.33   3
   0   3  -5 94521.2 3284.03   3
   0  -3  -5 94543.4 3672.71   3
   0  -3  -4 18859.4 1386.93   3
   0   3  -3 128965. 2928.61   1
   0  -3  -3 137896. 3988.12   3
   0   3  -2 33917.2 1168.99   1
   0  -3  -2 34074.3 1570.91   3
   0  -3  -1 182408. 4414.54   3
   0   3  -1 170127. 3817.71   1
   0   3   0 65909.6 1877.42   1
   0   3   0 51761.4 1839.84   3
   0   3   1 201543. 4578.98   1
   0   3   1 176021. 5095.28   2
   0   3   2 37559.8 1544.55   2
   0   3   3 140779. 3721.56   2
   0   3   4 21462.9 1269.51   2
   0   3   5 85167.7 3141.70   1
   0   3   5 95322.6 3198.83   2
   0   3   6 18044.3 1391.95   1
   0   3   6 16345.5 1315.74   2
   0   3   7 54736.2 2587.70   1
   0   3   7 55089.1 2690.35   2
   0   3   8 12076.0 1337.27   2
   0   3   8 11096.6 1200.24   1
   0   4  -7 67275.8 2997.28   3
   0  -4  -7 69956.5 3796.04   3
   0   4  -6 71705.9 2982.30   3
   0  -4  -6 71516.8 3562.45   3
   0  -4  -5 136973. 4945.49   3
   0   4  -5 151738. 4619.05   3
   0  -4  -4 150281. 4868.88   3
   0   4  -3 254085. 6238.12   1
   0  -4  -3 246087. 6554.45   3
   0  -4  -2 215498. 5691.17   3
   0   4  -2 217821. 4875.64   1
   0   4  -1 322553. 6876.85   1
   0  -4  -1 318965. 7464.40   3
   0   4   0 181962. 4519.28   1
   0   4   1 234372. 5725.23   1
   0   4   1 253859. 6728.47   2
   0   4   2 208637. 5183.18   2
   0   4   2 182560. 5045.21   1
   0   4   3 244854. 5616.85   2
   0   4   3 194219. 5642.07   1
   0   4   4 132085. 4403.77   1
   0   4   4 150226. 4180.04   2
   0   4   5 144854. 4585.85   2
   0   4   5 186622. 5369.64   1
   0   4   6 70438.7 2987.86   2
   0   4   6 72712.8 3152.63   1
   0   4   7 59834.5 2888.96   1
   0   4   7 63760.1 2975.28   2
   0   4   8 28609.2 2089.09   1
   0  -5  -7 6616.20 1305.06   3
   0  -5  -6 40866.1 2784.54   3
   0  -5  -5 6950.27 1104.91   3
   0   5  -5 7204.12 921.492   3
   0  -5  -4 54845.0 2862.76   3
   0   5  -3 12155.8 953.288   1
   0  -5  -3 11304.4 1177.99   3
   0   5  -2 87157.4 2698.05   1
   0  -5  -2 87225.9 3274.77   3
   0   5  -1 20710.4 1177.10   1
   0   5   0 147394. 3980.26   1
   0   5   0 118218. 4766.07   2
   0   5   1 17309.6 1496.30   2
   0   5   1 16556.6 1174.42   1
   0   5   2 104394. 3375.82   1
   0   5   2 88299.6 3281.69   2
   0   5   3 14081.5 1162.61   1
   0   5   3 12191.4 1012.96   2
   0   5   4 58183.3 2460.99   2
   0   5   4 62051.9 2776.82   1
   0   5   5 9821.54 1140.61   1
   0   5   5 7878.80 908.298   2
   0   5   6 44842.6 2489.82   1
   0   5   6 40171.4 2241.49   2
   0   5   7 5602.59 951.545   1
   0  -6  -6 35384.5 2743.31   3
   0  -6  -5 17909.4 1822.29   3
   0  -6  -4 78918.1 3710.12   3
   0  -6  -3 25762.0 1916.79   3
   0   6  -2 107100. 3424.04   1
   0   6  -1 53778.9 2271.10   1
   0   6   0 108284. 4592.56   2
   0   6   0 96051.9 3359.15   1
   0   6   1 36161.8 2281.31   2
   0   6   1 41240.7 2077.53   1
   0   6   2 105144. 3793.64   2
   0   6   2 107120. 3798.73   1
   0   6   3 27915.3 1839.43   1
   0   6   3 26475.1 1654.62   2
   0   6   4 83442.0 3499.04   1
   0   6   4 78475.9 3095.31   2
   0   6   5 18952.4 1723.72   1
   0   6   6 43007.3 2679.88   1
   0  -7  -5 51780.9 3272.84   3
   0  -7  -4 6872.43 1195.98   3
   0   7  -1 82305.2 3129.21   1
   0   7   0 12416.1 1540.09   2
   0   7   0 16570.9 1294.58   1
   0   7   1 72347.8 3107.70   1
   0   7   1 79300.0 3484.50   2
   0   7   2 10441.9 1119.72   2
   0   7   2 14417.0 1329.66   1
   0   7   3 68888.5 3232.62   1
   0   7   4 6863.36 1077.39   1
   0   7   5 53634.8 3130.13   1
   0   8  -1 132980. 5769.97   2
   0   8   0 3348.32 695.037   1
   0   8   1 141122. 4913.84   1
   0   8   2 4524.52 862.440   1
   0   8   3 127009. 4854.25   1
   0   9   1 18046.2 1741.39   1
  -1   0  -8 504.911 464.494   3
   1   0  -8 275.187 361.262   3
   1   0  -7 28605.0 1808.03   3
  -1   0  -7 31517.1 1901.47   3
  -1   0  -6 321.175 394.519   3
   1   0  -6 155.769 270.036   3
  -1   0  -5 82941.8 2897.02   3
   1   0  -5 81115.0 2839.05   3
  -1   0  -4 568.750 318.729   3
   1   0  -4 197.930 258.112   3
  -1   0  -3 167811. 4249.52   3
   1   0  -3 186865. 4356.30   3
   1   0  -2 394.463 139.297   2
  -1   0  -2 868.254 210.858   2
   1   0  -2 720.071 226.357   3
  -1   0  -1 212432. 4227.18   2
  -1   0  -1 211706. 4284.09   3
   1   0  -1 208006. 4166.07   3
   1   0  -1 212580. 4135.92   2
  -1   0   1 204417. 4314.69   3
  -1   0   1 216295. 4258.23   2
   1   0   1 209879. 4376.26   1
   1   0   1 220160. 4354.10   2
   1   0   2 785.719 193.509   2
  -1   0   2 517.860 157.434   2
  -1   0   3 195074. 4446.59   2
   1   0   3 180164. 4417.90   2
   1   0   4 390.063 293.649   2
  -1   0   4 489.333 285.322   2
  -1   0   5 95101.2 3095.14   2
   1   0   5 89937.2 3121.63   2
  -1   0   6 138.789 198.518   1
   1   0   6 406.865 421.243   2
  -1   0   6 602.716 394.614   2
   1   0   7 35082.6 2113.00   2
  -1   0   7 33891.2 2063.75   2
   1   0   8 901.219 547.918   2
  -1   0   8 592.958 505.789   2
  -1   1  -8 21788.1 1694.61   3
  -1  -1  -8 21538.1 1740.85   3
   1  -1  -8 21240.4 1727.96   3
   1   1  -8 21879.9 1674.00   3
   1  -1  -7 20740.7 1593.53   3
  -1   1  -7 24045.3 1636.00   3
  -1  -1  -7 21785.0 1638.05   3
   1   1  -7 19601.5 1458.82   3
  -1  -1  -6 38649.8 2076.78   3
   1  -1  -6 37748.4 2062.25   3
   1   1  -6 39574.6 1945.73   3
  -1   1  -6 37969.2 1965.87   3
   1  -1  -5 32163.0 1813.94   3
   1   1  -5 28873.9 1498.66   3
  -1  -1  -5 29240.8 1679.24   3
  -1   1  -5 30370.3 1583.84   3
  -1   1  -4 69751.6 2406.66   3
  -1  -1  -4 74660.0 2675.18   3
   1  -1  -4 73094.1 2593.82   3
  -1   1  -3 45965.0 1720.26   3
   1  -1  -3 45265.7 1732.69   3
   1   1  -3 42954.8 1545.16   3
  -1  -1  -3 45376.4 1799.37   3
   1  -1  -2 100105. 2543.48   2
   1   1  -2 107957. 2571.77   3
  -1   1  -2 100951. 2344.94   1
  -1   1  -2 111613. 2634.71   2
   1  -1  -2 103760. 2699.37   3
   1   1  -2 108792. 2631.60   2
  -1  -1  -2 102810. 2695.12   2
  -1  -1  -2 105133. 2743.23   3
   1  -1  -1 87164.6 1938.28   2
  -1   1  -1 86415.7 1973.26   2
   1  -1  -1 82001.7 2102.26   3
  -1   1  -1 84127.4 2030.01   1
  -1  -1  -1 84316.5 2057.92   3
   1   1  -1 90043.8 2063.48   2
  -1  -1  -1 86364.5 2188.13   2
   1  -1   0 140071. 1741.32   1
  -1   1   0 147396. 1763.36   1
   1   1   1 93682.0 2109.83   2
  -1   1   1 89781.2 2096.95   3
  -1   1   1 73796.8 1910.73   1
   1  -1   1 65846.7 1754.62   1
  -1   1   1 87534.2 1813.40   2
   1   1   1 87061.9 2020.52   3
   1  -1   1 92466.3 1952.90   2
   1  -1   2 114496. 2759.24   2
   1   1   2 110164. 2861.05   3
  -1  -1   2 108721. 2735.95   2
   1   1   2 102788. 2698.24   2
  -1   1   2 111812. 2871.35   3
  -1   1   2 108232. 2594.28   2
   1  -1   2 116160. 2899.80   1
   1  -1   3 43134.7 1678.16   1
  -1   1   3 50211.7 1670.95   2
  -1  -1   3 53215.2 1833.30   2
   1   1   3 49285.6 1750.55   2
  -1  -1   3 45936.8 1399.54   1
   1  -1   3 54857.5 1883.80   2
   1  -1   4 81130.8 2633.58   2
  -1  -1   4 66735.3 2060.63   1
   1   1   4 77243.8 2559.55   2
  -1   1   4 74037.5 2408.78   2
   1  -1   4 70799.4 2324.78   1
  -1  -1   4 84481.4 2716.38   2
  -1  -1   5 33086.9 1422.03   1
  -1   1   5 35100.8 1701.42   2
  -1  -1   5 35779.0 1845.09   2
   1  -1   5 34829.5 1815.08   2
  -1  -1   5 36742.2 1181.26   1
   1   1   5 36180.8 1787.76   2
   1  -1   6 47214.0 2349.60   2
   1   1   6 41826.1 2192.58   2
  -1   1   6 44422.3 2157.77   2
  -1   1   6 48004.8 1957.60   1
  -1  -1   6 49509.1 1523.49   1
  -1  -1   6 47488.5 2378.29   2
   1   1   7 24323.3 1750.70   2
   1  -1   7 27257.6 1945.45   2
  -1   1   7 26373.1 1429.55   1
  -1  -1   7 27824.8 1905.35   2
   1   1   7 25039.6 1485.72   1
  -1   1   7 24920.6 1710.54   2
  -1  -1   8 26484.8 2018.50   2
  -1   1   8 25475.0 1890.64   2
   1   1   8 25746.0 1956.94   2
   1  -1   8 28870.7 2154.02   2
   1  -2  -8 54546.6 2982.19   3
  -1   2  -8 56835.1 2835.52   3
  -1  -2  -8 59243.7 3052.80   3
   1   2  -8 54900.7 2704.83   3
  -1  -2  -7 17995.4 1563.31   3
   1   2  -7 18698.9 1423.44   3
   1  -2  -7 20454.1 1692.63   3
  -1   2  -7 19716.6 1489.38   3
   1   2  -6 122436. 3882.39   3
   1  -2  -6 132576. 4610.60   3
  -1  -2  -6 126751. 4408.94   3
  -1   2  -6 124891. 4047.57   3
   1   2  -5 44742.2 1939.14   3
   1  -2  -5 47958.9 2320.81   3
  -1  -2  -5 51969.9 2472.21   3
  -1   2  -5 47029.1 2104.81   3
   1   2  -4 249271. 5881.57   3
  -1  -2  -4 256922. 6414.42   3
  -1   2  -4 252672. 6165.00   3
   1  -2  -4 253005. 6333.83   3
  -1  -2  -3 95065.2 2969.87   3
  -1   2  -3 97951.5 2274.29   1
   1  -2  -3 97242.3 2991.21   3
  -1  -2  -2 401959. 8187.96   3
  -1  -2  -2 409040. 8395.04   2
   1  -2  -2 409607. 8155.73   2
  -1   2  -2 424839. 8289.46   1
   1  -2  -2 409654. 8288.69   3
   1   2  -1 125779. 2745.08   1
   1  -2  -1 123302. 3430.37   2
   1  -2  -1 131277. 3331.62   3
  -1   2  -1 136931. 3072.26   2
  -1  -2  -1 131599. 3171.60   3
  -1  -2  -1 125680. 3982.93   2
  -1   2   0 497966. 8647.52   3
  -1   2   0 482748. 8261.64   1
   1   2   0 490725. 8273.84   3
   1   2   1 132711. 3383.71   2
   1   2   1 136602. 2915.96   3
  -1   2   1 129398. 2863.65   2
  -1   2   1 133429. 3060.09   3
   1   2   2 419992. 8362.92   2
  -1   2   2 420901. 8043.51   2
  -1   2   2 430829. 8356.50   1
  -1   2   3 96093.2 2699.37   2
   1  -2   3 97448.6 2962.71   2
   1   2   3 95931.4 2858.84   2
  -1   2   4 261033. 6084.04   2
   1  -2   4 256976. 5647.65   1
   1   2   4 266575. 6274.47   2
   1  -2   4 277494. 6599.80   2
  -1  -2   5 48870.5 1127.36   1
  -1   2   5 55883.9 2158.97   1
  -1   2   5 49286.8 2069.78   2
   1   2   5 50146.3 2229.07   2
   1  -2   5 54554.5 2460.50   2
  -1   2   6 133827. 4093.23   1
   1   2   6 132533. 4338.68   2
  -1   2   6 131729. 4175.28   2
   1   2   7 20552.9 1471.29   1
   1   2   7 21893.1 1666.66   2
  -1   2   7 19991.8 1530.18   2
   1  -2   7 22046.9 1844.19   2
  -1   2   7 21555.1 1392.77   1
  -1   2   8 62919.0 3032.84   2
   1   2   8 58853.9 3053.13   2
   1  -3  -8 25918.5 2103.38   3
   1   3  -8 26029.5 1790.73   3
  -1   3  -8 26555.5 1914.26   3
  -1  -3  -8 25946.4 2094.16   3
  -1   3  -7 753.520 458.271   3
  -1  -3  -7 624.671 552.430   3
   1   3  -7 548.805 392.102   3
   1  -3  -7 1085.93 617.282   3
   1  -3  -6 48292.0 2704.47   3
  -1  -3  -6 48688.3 2771.31   3
  -1   3  -6 47582.5 2331.05   3
   1   3  -6 45462.4 2148.70   3
  -1   3  -5 150.111 325.090   3
   1  -3  -5 378.473 346.595   3
  -1  -3  -5 1166.72 513.492   3
   1   3  -5 645.117 352.427   3
  -1  -3  -4 71486.4 2852.19   3
   1  -3  -4 70141.8 2839.13   3
   1   3  -4 69236.9 2475.27   3
  -1  -3  -3 207.478 266.070   3
  -1   3  -3 348.881 199.627   1
   1  -3  -3 301.008 320.836   3
   1  -3  -2 93993.5 2903.14   3
   1  -3  -2 93738.3 3257.00   2
  -1  -3  -2 91632.3 2777.17   3
  -1   3  -2 84197.1 2299.25   1
   1   3  -1 1332.13 215.265   1
  -1  -3  -1 847.696 261.793   3
  -1   3  -1 1243.39 241.948   1
   1  -3  -1 1319.21 325.769   3
   1   3   0 93234.8 2731.42   1
   1   3   0 105220. 2738.51   3
   1   3   1 1427.58 488.978   2
   1  -3   1 858.795 209.252   1
  -1   3   1 2054.28 366.329   1
  -1   3   1 1628.94 418.739   2
   1   3   2 95171.4 3044.12   2
  -1   3   2 97471.1 2761.02   2
  -1   3   3 166.898 193.594   2
   1   3   3-120.778 239.175   2
   1  -3   3 442.319 123.898   1
  -1   3   3 361.949 266.885   1
   1   3   4 71415.5 2534.95   2
  -1   3   4 73800.5 2412.94   2
  -1   3   4 66473.6 2616.50   1
   1  -3   4 63607.5 1599.36   1
   1   3   5 286.559 273.464   2
  -1   3   5 409.952 301.351   2
   1   3   6 50862.6 2486.67   2
  -1   3   6 50515.8 2307.35   2
  -1   3   6 50606.4 2333.02   1
   1   3   6 51322.7 2431.53   1
  -1   3   7 658.870 381.258   2
   1   3   7 1024.35 497.213   2
  -1   3   7 387.752 352.168   1
   1   3   7 423.001 363.239   1
  -1   3   8 33030.3 2041.34   1
   1   3   8 30870.3 2218.20   2
  -1   3   8 29547.7 2021.49   2
   1   3   8 31440.1 2046.45   1
  -1  -4  -7 21454.2 2033.92   3
  -1   4  -7 18300.8 1547.52   3
   1  -4  -7 20233.4 2019.65   3
  -1   4  -6 19678.4 1548.95   3
   1  -4  -6 17320.7 1694.13   3
  -1  -4  -6 17658.6 1717.11   3
   1   4  -6 18037.4 1339.07   3
   1  -4  -5 36119.0 2280.44   3
  -1  -4  -5 36240.0 2267.49   3
   1   4  -5 37106.4 1892.20   3
  -1   4  -5 35343.8 2008.05   3
   1  -4  -4 35091.4 2089.90   3
  -1  -4  -4 36532.0 2072.17   3
   1  -4  -3 59530.2 2602.04   3
   1   4  -3 56114.7 1984.44   1
  -1  -4  -3 60788.5 2561.21   3
  -1   4  -3 59033.4 2461.97   1
  -1  -4  -2 66212.4 2551.19   3
   1   4  -2 63870.5 1894.20   1
  -1   4  -2 66344.7 2075.40   1
   1  -4  -2 65144.6 2599.82   3
   1   4  -1 70838.6 2333.03   1
  -1  -4  -1 89151.8 2876.43   3
  -1   4   0 72885.5 2388.69   1
   1   4   0 82477.6 2466.23   1
   1   4   1 61261.1 3004.06   2
  -1   4   1 71982.1 2810.40   2
   1   4   1 60801.3 2334.70   1
  -1   4   1 77856.5 2471.48   1
  -1   4   2 63672.7 2279.58   2
   1   4   2 67029.6 2654.01   2
   1   4   2 61525.5 2396.55   1
   1   4   3 59273.3 2392.97   2
  -1   4   3 61416.8 2164.61   2
  -1   4   3 66945.1 2549.84   1
  -1   4   4 39387.3 2008.08   1
   1   4   4 37596.6 1883.33   2
  -1   4   4 36579.6 1714.32   2
   1   4   5 35311.3 2069.71   1
  -1   4   5 40281.1 2115.96   1
  -1   4   5 34131.7 1792.98   2
   1   4   5 37877.0 1999.86   2
  -1   4   6 18230.8 1376.13   2
  -1   4   6 16953.6 1412.71   1
   1   4   6 17823.9 1544.47   1
   1   4   6 16419.6 1390.15   2
   1   4   7 16204.0 1462.59   1
  -1   4   7 17501.9 1463.35   2
   1   4   7 17664.2 1568.65   2
  -1   4   7 18258.3 1530.32   1
   1   4   8 7753.96 1160.15   2
  -1   4   8 6292.33 1023.50   1
   1   4   8 5277.09 924.687   1
  -1  -5  -7 37049.0 2871.70   3
   1  -5  -7 40161.1 2961.50   3
  -1   5  -6 2077.33 587.869   3
  -1  -5  -6 1694.11 694.692   3
   1  -5  -6 2010.71 710.778   3
   1  -5  -5 60437.6 3246.08   3
  -1  -5  -5 57500.1 3148.62   3
   1   5  -5 66308.8 2751.38   3
   1  -5  -4 2106.66 643.705   3
  -1  -5  -4 2598.68 702.190   3
  -1   5  -3 81536.6 2988.02   1
   1  -5  -3 81342.0 3371.63   3
  -1  -5  -3 83723.0 3371.95   3
   1   5  -3 82013.6 2685.55   1
  -1   5  -2 3364.73 495.633   1
   1  -5  -2 3688.73 656.811   3
  -1  -5  -2 3784.60 652.336   3
   1   5  -2 4467.63 498.922   1
  -1   5  -1 99565.2 2962.29   1
   1   5  -1 75655.8 2629.61   1
   1   5   0 5934.57 694.852   1
  -1   5   0 6776.71 969.317   2
   1   5   0 5857.19 950.400   2
  -1   5   0 5884.38 674.342   1
  -1   5   1 89405.2 3095.80   1
   1   5   1 78894.5 3665.55   2
  -1   5   1 79054.0 3301.39   2
   1   5   2 3583.00 635.989   1
  -1   5   2 4242.95 593.583   2
  -1   5   2 4913.90 679.574   1
   1   5   2 3262.83 587.610   2
  -1   5   3 73999.5 2991.87   1
   1   5   3 82842.3 3181.94   2
  -1   5   3 82367.4 2839.09   2
  -1   5   4 3634.99 654.347   1
   1   5   4 4342.24 837.039   1
  -1   5   4 3265.89 531.610   2
   1   5   4 2597.23 538.948   2
  -1   5   5 60348.2 2558.55   2
  -1   5   5 61416.4 2911.79   1
   1   5   5 64092.6 2823.96   2
   1   5   5 65541.4 3147.45   1
   1   5   6 2251.75 557.958   2
   1   5   6 2385.03 710.201   1
  -1   5   6 2788.14 717.328   1
  -1   5   7 46530.3 2683.44   1
   1   5   7 45043.1 2649.51   1
   1  -6  -6 4809.53 1061.27   3
  -1  -6  -6 3990.20 1040.21   3
  -1  -6  -5 93949.7 4352.33   3
   1  -6  -5 99769.5 4472.18   3
   1  -6  -4 8174.78 1151.30   3
  -1  -6  -4 8008.08 1156.74   3
   1  -6  -3 158244. 5340.29   3
  -1  -6  -3 152602. 5168.64   3
   1   6  -2 8966.42 816.715   1
  -1   6  -2 8983.15 870.459   1
   1   6  -1 184254. 5220.44   1
  -1   6  -1 231202. 5658.87   1
   1   6   0 9318.88 901.305   1
  -1   6   0 10521.6 1013.24   1
   1   6   0 8686.47 1265.61   2
  -1   6   0 9501.11 1295.37   2
   1   6   1 209539. 6392.75   2
  -1   6   1 203281. 5894.43   2
   1   6   2 7151.47 914.046   1
   1   6   2 7415.32 953.429   2
  -1   6   2 9187.42 1039.08   1
  -1   6   2 9642.95 963.084   2
   1   6   3 154252. 4890.83   2
  -1   6   3 160109. 4570.45   2
   1   6   4 9441.18 1135.25   1
  -1   6   4 7554.22 1047.59   1
   1   6   4 6661.29 902.921   2
  -1   6   5 93670.8 3980.13   1
   1   6   5 96780.5 3737.48   2
   1   6   5 84533.5 3808.53   1
   1   6   6 5437.45 979.997   1
  -1   6   6 6223.40 1008.67   1
  -1  -7  -5 9528.96 1440.67   3
   1  -7  -5 9132.93 1406.75   3
  -1  -7  -4 11730.3 1471.85   3
  -1   7  -1 8224.83 964.273   1
   1   7  -1 11498.0 1500.87   2
   1   7  -1 11046.6 1072.22   1
  -1   7   0 22248.5 1571.93   1
   1   7   0 16331.6 1811.26   2
   1   7   0 20796.7 1475.25   1
  -1   7   0 17872.2 1705.39   2
   1   7   1 9961.02 1083.29   1
  -1   7   1 9535.37 1086.16   2
  -1   7   1 11156.1 1177.18   1
   1   7   1 8930.90 1222.84   2
   1   7   2 14020.9 1351.23   2
   1   7   2 12473.2 1335.89   1
   1   7   3 10920.0 1320.05   1
  -1   7   3 11486.3 1307.50   1
  -1   7   4 12749.5 1427.47   1
   1   7   4 14558.8 1533.72   1
  -1   7   5 11980.8 1469.36   1
   1   7   5 13760.2 1589.24   1
   1   8  -1-194.728 565.100   2
   1   8   0 55483.7 3389.24   2
   1   8   0 60401.8 2877.17   1
   1   8   1 449.644 468.461   1
  -1   8   1-206.156 414.900   1
  -1   8   2 44728.4 2690.65   1
   1   8   2 60885.3 3060.23   1
   1   8   3 990.354 563.174   1
  -1   8   3 438.767 573.349   1
   1   9   1 28254.9 2121.23   1
  -1   9   1 25896.8 2055.80   1
  -2   0  -8 36599.2 2252.24   3
   2   0  -8 34950.3 2147.31   3
   2   0  -7 151.997 304.102   3
  -2   0  -7-47.2665 354.514   3
  -2   0  -6 72303.8 2872.67   3
   2   0  -6 68548.8 2763.85   3
  -2   0  -5 692.636 348.965   3
   2   0  -5 33.6162 245.560   3
   2   0  -4 148382. 3982.49   3
  -2   0  -4 135654. 3858.22   3
  -2   0  -3 225.234 197.675   3
   2   0  -3 756.069 247.406   3
   2   0  -2 207341. 4474.38   2
   2   0  -2 204264. 4513.34   3
  -2   0  -2 213681. 4757.55   3
  -2   0  -1 1137.49 179.063   1
   2   0  -1 1066.97 117.134   1
   2   0  -1 995.284 133.297   3
   2   0  -1 582.085 104.206   2
  -2   0  -1 833.035 141.757   2
  -2   0   1 768.250 121.565   2
   2   0   1 850.408 157.408   2
  -2   0   1 824.420 136.033   3
   2   0   1 1162.67 199.296   1
  -2   0   1 906.947 107.787   1
  -2   0   2 219039. 4617.63   2
  -2   0   2 219199. 4753.24   3
   2   0   2 223889. 4817.38   2
   2   0   2 233792. 4845.85   1
  -2   0   2 214724. 4335.74   1
   2   0   3 392.646 231.407   1
  -2   0   3 532.538 140.901   1
   2   0   3 405.165 216.650   2
  -2   0   3 490.642 219.705   2
   2   0   4 152987. 4350.66   2
  -2   0   4 158845. 4248.40   2
   2   0   5 624.607 375.851   2
  -2   0   5 255.314 291.417   2
  -2   0   5 233.743 151.261   1
   2   0   6 90022.6 3402.88   2
  -2   0   6 84841.9 3181.13   2
  -2   0   6 88171.4 2519.57   1
  -2   0   7 691.952 486.356   2
   2   0   7-31.6399 368.128   2
  -2   0   8 45319.2 2642.87   2
   2   0   8 45676.7 2709.11   2
  -2   1  -8 25156.9 1836.28   3
  -2  -1  -8 24742.6 1860.23   3
   2  -1  -8 23589.0 1844.98   3
   2   1  -8 21838.5 1651.25   3
   2  -1  -7 5988.75 906.387   3
  -2  -1  -7 5279.60 812.335   3
   2   1  -7 5549.17 787.392   3
  -2   1  -7 5949.34 846.684   3
   2   1  -6 26259.7 1535.57   3
  -2  -1  -6 25526.7 1654.90   3
  -2   1  -6 27090.7 1672.39   3
   2  -1  -6 27624.8 1744.79   3
  -2   1  -5 6060.56 736.949   3
   2  -1  -5 7043.23 836.978   3
   2   1  -5 6349.09 686.776   3
  -2  -1  -5 6533.56 798.329   3
   2  -1  -4 27147.1 1439.77   3
  -2  -1  -4 25863.6 1450.00   3
   2   1  -4 25866.5 1278.57   3
  -2   1  -4 29548.6 1496.65   3
  -2   1  -3 5266.28 555.841   3
   2   1  -3 5801.05 512.861   3
   2  -1  -3 5530.90 573.469   3
  -2  -1  -3 6116.97 644.958   3
  -2   1  -2 30979.7 1128.02   2
   2   1  -2 30545.5 1132.41   2
  -2   1  -2 29739.8 1060.70   1
   2  -1  -2 31876.8 1225.20   3
  -2  -1  -2 31993.8 1260.33   3
  -2  -1  -2 31665.6 1218.41   2
   2   1  -2 29867.4 1031.00   3
   2  -1  -2 30678.6 1083.12   2
  -2   1  -1 4112.23 396.279   1
  -2  -1  -1 5120.62 364.467   3
  -2   1  -1 5562.83 331.081   2
   2   1  -1 5180.90 254.330   3
   2  -1  -1 5179.00 414.147   3
   2  -1  -1 5337.68 272.949   2
  -2  -1  -1 4943.38 447.817   2
   2  -1  -1 6532.14 388.014   1
   2  -1   0 33969.9 963.368   1
   2   1   0 33506.4 802.643   3
  -2   1   1 6710.23 388.826   1
   2   1   1 5387.05 397.414   3
  -2   1   1 6293.09 445.730   3
   2   1   1 5730.02 466.667   2
   2  -1   1 6654.13 390.537   2
  -2   1   1 6591.44 287.307   2
   2  -1   1 7007.76 417.131   1
  -2   1   2 38289.7 1175.01   2
  -2   1   2 37027.2 1396.40   3
   2   1   2 37173.9 1402.80   3
   2   1   2 36181.4 1339.85   2
   2  -1   2 38647.9 1374.44   2
   2  -1   2 37501.5 1565.30   1
  -2   1   2 40890.3 1261.56   1
  -2   1   3 9189.11 616.037   2
  -2  -1   3 6926.43 410.455   1
  -2   1   3 10058.6 619.637   1
  -2  -1   3 9577.96 713.349   2
  -2  -1   3 9648.42 355.414   1
   2  -1   3 9048.59 714.514   1
   2  -1   3 8806.36 711.650   2
   2   1   3 8346.87 691.857   2
   2  -1   4 34891.2 1653.45   2
  -2  -1   4 34567.3 991.220   1
  -2   1   4 38455.9 1474.83   1
  -2  -1   4 28867.0 1144.49   1
   2   1   4 34342.0 1630.13   2
  -2  -1   4 39937.7 1744.39   2
   2  -1   4 35590.4 1600.44   1
  -2   1   4 33546.1 1468.92   2
  -2  -1   5 9859.42 692.941   1
  -2  -1   5 11000.9 566.275   1
  -2   1   5 11435.9 923.845   2
   2   1   5 11120.0 1004.34   2
  -2  -1   5 12148.0 1066.66   2
  -2   1   5 13395.2 883.480   1
   2  -1   5 10754.1 977.539   2
  -2   1   6 33792.2 1801.15   2
  -2   1   6 37038.4 1599.82   1
   2  -1   6 34086.1 1979.99   2
  -2  -1   6 39540.2 2089.79   2
   2   1   6 33068.5 1920.90   2
  -2   1   7 10289.5 1076.65   2
   2   1   7 9392.41 1133.81   2
  -2   1   7 9544.05 849.738   1
  -2  -1   7 10282.4 1197.16   2
   2  -1   7 8120.74 1069.83   2
   2  -1   8 32704.4 2326.89   2
   2   1   8 31004.4 2186.18   2
  -2   1   8 33243.7 2188.26   2
   2   2  -8 503.275 383.599   3
   2  -2  -8 907.484 595.565   3
  -2  -2  -8 541.381 448.143   3
  -2   2  -8 936.456 525.155   3
  -2   2  -7 10234.9 1126.87   3
   2   2  -7 10079.4 1025.93   3
   2  -2  -7 9716.31 1209.34   3
  -2  -2  -7 9934.05 1142.46   3
   2  -2  -6 1776.64 599.942   3
  -2  -2  -6 1640.16 554.084   3
   2   2  -6 1086.92 379.908   3
  -2   2  -6 1307.92 508.433   3
   2   2  -5 14707.2 1025.39   3
  -2  -2  -5 15574.2 1323.88   3
  -2   2  -5 15883.4 1227.53   3
   2  -2  -5 15694.5 1304.85   3
  -2  -2  -4 4303.00 656.278   3
   2  -2  -4 4794.41 673.352   3
  -2   2  -4 3938.09 579.199   3
   2   2  -4 3793.60 489.988   3
   2   2  -3 21595.4 1014.71   3
  -2   2  -3 19839.4 916.914   1
   2  -2  -3 21436.6 1235.56   3
  -2  -2  -3 20862.9 1219.21   3
  -2   2  -2 7543.60 672.708   1
  -2  -2  -2 6864.75 586.018   3
   2  -2  -2 7139.53 651.623   3
   2  -2  -2 7266.46 544.650   2
  -2   2  -1 24973.4 913.866   1
  -2  -2  -1 22693.0 1449.18   2
   2  -2  -1 25496.6 1149.73   3
  -2   2  -1 25108.2 885.940   2
   2   2  -1 23023.9 738.965   1
  -2  -2  -1 24959.9 988.847   3
   2   2   0 4046.99 292.231   3
  -2   2   0 3954.14 347.914   1
  -2   2   0 3755.57 451.391   3
  -2  -2   0 3632.86 323.002   3
   2  -2   0 4480.43 353.761   1
   2   2   1 28816.4 1529.37   2
  -2   2   1 26962.8 1048.29   1
  -2   2   1 28499.9 1213.85   3
  -2   2   1 29010.4 915.314   2
   2   2   1 27391.9 1030.65   3
   2   2   2 6839.55 626.543   2
  -2   2   2 6174.51 524.399   1
  -2   2   2 6590.13 434.459   2
   2  -2   2 6189.50 405.576   1
   2  -2   3 25411.2 1322.20   2
   2  -2   3 23758.9 1033.88   1
  -2   2   3 24233.4 1077.01   2
   2   2   3 24102.4 1247.11   2
   2   2   4 4994.98 645.192   2
   2  -2   4 5543.06 734.684   2
  -2   2   4 5540.59 619.734   1
   2  -2   4 4807.96 532.107   1
  -2   2   4 3967.34 495.377   2
   2  -2   5 21678.3 1510.27   2
  -2   2   5 22067.2 1296.15   1
  -2   2   5 18131.5 1160.11   2
   2   2   5 17660.9 1297.19   2
   2   2   6 2333.01 599.538   2
  -2   2   6 2455.03 554.784   2
   2  -2   6 2412.57 669.806   2
  -2   2   6 2542.16 477.312   1
   2  -2   7 14872.2 1457.66   2
   2   2   7 13209.8 1354.47   2
  -2   2   7 12084.3 1141.61   2
  -2   2   7 13587.4 1090.54   1
  -2   2   8 817.783 486.021   2
   2   2   8 1403.34 649.384   2
   2  -2   8 1492.00 731.022   2
   2   2   8 1091.68 477.767   1
  -2   3  -8 5306.06 894.474   3
   2  -3  -8 5722.04 1052.55   3
  -2   3  -7 27006.4 1854.84   3
  -2  -3  -7 26344.7 2034.11   3
   2   3  -7 24828.3 1600.47   3
   2  -3  -7 28678.2 2237.19   3
   2   3  -6 12567.6 1039.74   3
  -2  -3  -6 13078.5 1405.99   3
  -2   3  -6 14425.7 1286.60   3
   2  -3  -6 13566.3 1415.07   3
   2   3  -5 26686.2 1422.30   3
  -2  -3  -5 26540.9 1812.47   3
   2  -3  -5 26581.7 1814.80   3
  -2   3  -5 27609.2 1741.20   3
  -2  -3  -4 27027.3 1656.23   3
   2  -3  -4 26984.0 1675.12   3
   2   3  -4 26542.0 1356.26   3
  -2   3  -3 17430.9 1001.41   1
  -2  -3  -3 19335.1 1243.04   3
   2  -3  -3 17498.8 1244.73   3
   2  -3  -2 38242.5 1749.27   3
  -2   3  -2 35123.3 1431.95   1
   2  -3  -2 35807.0 1740.71   2
  -2  -3  -2 37421.9 1624.43   3
   2   3  -2 37644.0 1052.80   1
  -2  -3  -1 7196.57 600.358   3
  -2   3  -1 8468.26 569.356   1
   2   3  -1 6843.61 528.242   3
   2  -3  -1 7396.41 700.993   3
  -2   3   0 33397.7 1292.27   1
   2   3   0 36047.5 1220.44   3
   2  -3   1 6909.19 506.789   1
  -2   3   1 8794.70 663.575   1
   2   3   1 7648.48 996.452   2
  -2   3   2 37403.7 1302.11   2
   2  -3   2 35221.8 1190.83   1
   2   3   2 39756.4 1796.95   2
  -2   3   2 33299.0 1456.95   1
   2   3   3 23664.6 1308.73   2
  -2   3   3 26446.5 1337.83   1
  -2   3   3 23219.0 1050.79   2
   2  -3   4 23401.3 915.865   1
  -2   3   4 24244.9 1417.80   1
  -2   3   4 26998.6 1300.78   2
   2   3   4 27187.0 1527.35   2
   2   3   5 36393.7 1959.40   2
  -2   3   5 40056.8 1949.26   1
  -2   3   5 33584.7 1665.20   2
  -2   3   6 15143.1 1207.25   1
  -2   3   6 13818.3 1129.37   2
   2   3   6 12536.8 1231.80   2
  -2   3   7 34477.6 1974.48   1
   2   3   7 32496.0 2028.04   1
   2   3   7 34614.5 2188.49   2
  -2   3   7 31574.0 1904.59   2
   2   3   8 6130.77 968.241   1
  -2   3   8 6080.90 870.000   1
  -2   3   8 5816.82 901.489   2
   2   3   8 7031.46 1142.75   2
   2  -4  -7 28034.6 2339.21   3
  -2  -4  -7 24561.1 2162.39   3
  -2   4  -7 26139.3 1932.13   3
   2  -4  -6 20435.6 1823.28   3
   2   4  -6 19847.3 1338.34   3
  -2  -4  -6 22050.6 1927.11   3
  -2   4  -6 23169.6 1746.50   3
   2  -4  -5 45483.8 2579.16   3
   2   4  -5 44990.2 2000.56   3
  -2  -4  -5 46843.0 2583.15   3
  -2  -4  -4 27112.4 1788.59   3
  -2   4  -4 28386.2 1220.87   1
   2   4  -4 28339.5 1449.38   3
   2  -4  -4 26632.9 1815.90   3
   2  -4  -3 74202.4 2989.77   3
   2   4  -3 66938.9 1879.53   1
  -2  -4  -3 76803.1 2908.20   3
  -2   4  -3 76947.7 2954.45   1
  -2   4  -2 42320.5 1643.77   1
   2  -4  -2 45284.2 2096.03   3
   2   4  -2 43945.5 1414.58   1
  -2  -4  -2 43854.3 1980.98   3
   2   4  -1 102482. 2745.56   3
  -2   4  -1 113384. 2918.56   1
  -2  -4  -1 109666. 3160.11   3
   2   4   0 29779.8 1503.67   1
  -2   4   0 58585.7 1891.19   1
  -2   4   1 116821. 3255.92   1
  -2   4   1 103059. 3291.60   2
  -2   4   2 40456.1 1588.20   2
  -2   4   2 37954.2 1785.93   1
   2   4   3 78500.4 2889.30   2
  -2   4   3 75039.6 2324.65   2
  -2   4   4 30702.2 1469.20   2
  -2   4   4 32339.4 1757.56   1
   2   4   4 30307.3 1726.66   2
  -2   4   5 47030.7 2036.55   2
  -2   4   5 46941.0 2309.60   1
   2   4   5 49596.1 2415.55   2
  -2   4   6 20489.6 1553.27   1
  -2   4   6 18887.1 1341.98   2
   2   4   6 20835.5 1645.15   2
   2   4   6 20656.0 1607.80   1
  -2   4   7 27263.7 1893.17   1
   2   4   7 26913.0 2011.33   2
   2   4   7 31583.1 2156.32   1
   2   4   8 16166.5 1576.30   1
  -2   4   8 15141.7 1462.96   1
   2   4   8 15595.6 1622.42   2
  -2  -5  -7 3589.19 1039.54   3
  -2   5  -6 14708.6 1479.62   3
   2  -5  -6 15072.2 1682.50   3
  -2  -5  -6 14947.2 1679.67   3
  -2  -5  -5 4462.60 922.169   3
   2  -5  -5 2582.37 701.189   3
  -2  -5  -4 11007.6 1239.70   3
   2  -5  -4 11204.2 1281.31   3
  -2   5  -3 2756.35 517.385   1
   2  -5  -3 2883.11 684.682   3
  -2  -5  -3 3251.52 662.670   3
  -2  -5  -2 2213.54 496.864   3
   2   5  -2 2415.12 382.498   1
  -2   5  -2 3336.56 533.999   1
   2   5  -1 865.395 291.422   1
  -2   5  -1 1366.72 361.467   1
   2   5   0 782.111 314.990   1
   2   5   0 311.843 415.553   2
  -2   5   0 489.205 345.126   1
   2   5   1 1732.62 412.669   1
   2   5   1 1175.73 576.920   2
  -2   5   1 1345.53 473.543   2
  -2   5   1 1302.35 418.758   1
  -2   5   2 5596.14 635.072   2
   2   5   2 6618.54 763.700   1
  -2   5   2 4801.18 690.900   1
  -2   5   3 3166.83 461.711   2
   2   5   3 3514.76 667.417   1
  -2   5   3 4461.73 716.078   1
   2   5   3 3747.04 694.295   2
   2   5   4 15659.9 1311.79   2
  -2   5   4 16901.9 1388.63   1
  -2   5   4 16200.4 1086.36   2
   2   5   4 18577.9 1505.22   1
   2   5   5 6811.58 1031.35   1
  -2   5   5 4974.13 664.569   2
   2   5   5 5212.24 823.485   2
  -2   5   5 5482.34 879.463   1
  -2   5   6 21657.4 1757.76   1
   2   5   6 21415.8 1700.61   2
   2   5   6 23242.3 1875.60   1
   2   5   7 4225.74 867.243   2
   2   5   7 3961.19 864.564   1
  -2   5   7 5305.18 943.889   1
   2  -6  -6 7778.43 1330.75   3
  -2  -6  -6 7999.20 1280.17   3
   2  -6  -5 4347.68 1061.14   3
  -2  -6  -5 2609.59 770.167   3
   2  -6  -4 11917.4 1384.73   3
  -2  -6  -4 13391.6 1452.26   3
  -2  -6  -3 4952.74 870.221   3
  -2   6  -2 19038.7 1344.05   1
   2   6  -2 18857.6 1171.29   1
  -2   6  -1 3393.81 589.826   1
   2   6  -1 4772.69 635.670   1
  -2   6   0 23576.5 1834.25   2
   2   6   0 25841.2 1546.99   1
   2   6   0 24997.3 2063.57   2
  -2   6   0 22327.3 1480.63   1
  -2   6   1 4678.36 735.175   1
   2   6   1 3406.52 652.352   1
   2   6   1 3588.16 814.878   2
  -2   6   1 4683.72 735.163   2
  -2   6   2 18765.9 1427.26   1
   2   6   2 17727.0 1565.61   2
   2   6   2 21829.0 1552.82   1
  -2   6   2 19959.8 1292.90   2
  -2   6   3 4802.97 597.869   2
   2   6   3 5712.62 915.567   1
  -2   6   3 5952.61 864.000   1
   2   6   3 5179.49 850.081   2
   2   6   4 12658.9 1267.96   2
  -2   6   4 13025.7 1332.15   1
   2   6   4 13976.3 1435.89   1
  -2   6   5 5326.72 905.574   1
   2   6   5 6547.99 1053.40   1
   2   6   5 5862.71 928.115   2
   2   6   6 8289.31 1191.59   1
  -2   6   6 8822.61 1236.99   1
  -2  -7  -5 19696.1 1993.67   3
   2  -7  -5 17852.3 1939.87   3
  -2  -7  -4 3494.25 874.451   3
   2   7  -1 24182.5 2177.64   2
   2   7  -1 21109.7 1454.14   1
  -2   7  -1 21842.7 1560.89   1
   2   7   0 1760.69 509.201   1
  -2   7   0 2257.08 699.362   2
   2   7   0 2151.90 718.881   2
  -2   7   0 2694.61 675.832   1
   2   7   1 22756.2 1650.34   1
   2   7   1 22847.4 1972.71   2
  -2   7   1 25983.8 1759.88   1
  -2   7   2 3291.34 702.292   1
   2   7   2 3361.52 715.388   1
   2   7   2 2282.64 630.775   2
   2   7   3 22337.0 1808.63   1
   2   7   3 22014.2 1734.97   2
  -2   7   3 25880.9 1846.05   1
   2   7   4 7306.54 1100.53   1
  -2   7   4 4768.26 911.127   1
  -2   7   5 18521.6 1783.04   1
   2   7   5 23299.5 2050.31   1
   2   8  -1 44634.8 3231.37   2
  -2   8   0 5715.15 908.221   1
   2   8   0 5711.65 1156.81   2
   2   8   0 5639.96 796.709   1
  -2   8   1 52878.5 2828.51   1
   2   8   1 50483.1 2673.59   1
  -2   8   2 2635.23 699.426   1
   2   8   2 4887.13 989.028   1
   2   8   3 51802.9 2960.59   1
  -2   8   3 37028.6 2499.00   1
   2   9   1 557.883 514.004   1
  -2   9   1 1084.02 555.001   1
  -3   0  -8 648.083 484.577   3
   3   0  -8-152.988 366.307   3
   3   0  -7 7590.61 940.168   3
  -3   0  -7 8429.70 1024.21   3
  -3   0  -6 361.310 335.760   3
   3   0  -6-23.2624 358.701   3
  -3   0  -5 6029.83 743.749   3
   3   0  -5 6220.83 745.964   3
   3   0  -4 349.947 243.924   3
  -3   0  -4 536.557 349.697   3
  -3   0  -3 10130.0 801.163   3
   3   0  -3 10385.8 701.471   3
  -3   0  -2 1280.42 281.441   3
  -3   0  -2 894.704 203.989   2
   3   0  -2 667.489 179.027   3
   3   0  -2 613.445 168.223   2
   3   0  -1 48978.6 1282.09   3
  -3   0  -1 45948.4 1341.70   2
   3   0  -1 48498.6 1189.41   1
  -3   0  -1 52612.2 1487.90   1
   3   0  -1 50881.3 1246.33   2
  -3   0   0 4212.31 406.897   1
   3   0   0 3983.79 327.722   2
  -3   0   1 52757.2 1281.84   1
   3   0   1 56336.2 1471.40   2
   3   0   1 53243.7 1580.62   1
  -3   0   1 51735.6 1349.65   3
   3   0   2 1040.27 262.147   2
  -3   0   2 1193.21 211.210   2
   3   0   2 1226.52 270.005   1
  -3   0   2 754.078 134.495   1
  -3   0   2 1279.26 247.416   3
  -3   0   3 16211.6 855.084   2
  -3   0   3 15340.2 650.366   1
   3   0   3 14913.3 926.788   2
  -3   0   4 251.216 134.986   1
  -3   0   4 625.155 236.728   2
   3   0   4 179.051 277.883   2
  -3   0   5 9518.47 881.853   2
  -3   0   5 10614.0 673.315   1
   3   0   5 8426.43 890.691   2
   3   0   6 752.379 413.153   2
  -3   0   6 121.355 176.112   1
  -3   0   6 61.3670 346.818   2
   3   0   7 10173.5 1152.64   2
  -3   0   7 10637.0 1168.62   2
  -3   0   8 772.202 502.051   2
   3   0   8-318.828 544.132   2
   3   1  -8 15348.5 1405.44   3
  -3  -1  -8 16184.9 1519.42   3
  -3   1  -8 16600.8 1511.30   3
   3  -1  -8 15419.4 1508.01   3
  -3  -1  -7 26997.7 1848.26   3
  -3   1  -7 27154.7 1812.30   3
   3   1  -7 26027.0 1658.84   3
   3  -1  -7 27178.4 1859.78   3
   3  -1  -6 20378.0 1529.49   3
  -3  -1  -6 20218.0 1473.44   3
  -3   1  -6 19866.5 1427.33   3
   3   1  -6 18950.3 1302.58   3
  -3   1  -5 33454.8 1791.87   3
   3   1  -5 30875.7 1553.52   3
   3  -1  -5 36818.9 1879.47   3
  -3  -1  -5 32761.1 1786.62   3
  -3   1  -4 22253.2 1354.32   3
   3   1  -4 22280.7 1173.58   3
   3  -1  -4 20829.7 1250.41   3
  -3  -1  -4 20204.0 1260.59   3
   3   1  -3 24760.8 1073.76   3
   3  -1  -3 21645.4 1155.81   3
  -3  -1  -3 22711.2 1238.12   3
  -3   1  -2 16414.9 863.145   1
   3   1  -2 17529.4 706.306   3
  -3   1  -2 16676.3 807.941   2
   3  -1  -2 17925.9 901.652   3
   3   1  -2 18015.3 847.822   2
  -3  -1  -2 17903.3 960.080   3
   3  -1  -2 16521.1 735.244   2
  -3  -1  -2 16907.9 896.567   2
   3   1  -1 63382.4 1492.40   1
   3  -1  -1 61971.0 1600.20   1
  -3   1  -1 67123.1 2043.22   1
  -3  -1  -1 65393.6 1678.47   3
   3  -1  -1 63322.8 1798.70   3
  -3  -1  -1 63064.5 1958.22   2
   3   1  -1 64055.0 1266.09   3
  -3  -1   0 12839.1 397.585   3
   3   1   0 15417.9 610.546   1
   3  -1   0 15484.6 623.823   1
  -3   1   0 12523.8 576.683   1
  -3   1   1 71885.9 1487.51   2
  -3   1   1 66540.4 1997.24   3
  -3  -1   1 74558.7 1603.98   1
   3   1   1 68180.6 2130.13   2
   3   1   1 74011.7 1889.23   3
   3  -1   1 77166.5 1822.93   2
   3  -1   1 65290.2 1974.47   1
  -3   1   1 70265.7 1778.22   1
   3  -1   2 22135.6 1283.58   1
  -3   1   2 21506.2 1017.34   3
   3   1   2 19951.4 1013.26   3
  -3   1   2 21454.1 859.876   1
   3   1   2 20328.2 988.547   2
  -3   1   2 20697.0 793.131   2
   3  -1   2 21776.1 974.568   2
  -3   1   3 33624.9 1259.87   2
   3  -1   3 33296.2 1585.35   1
   3   1   3 30134.5 1414.42   2
   3  -1   3 29960.6 1387.54   2
  -3   1   3 34535.7 1215.04   1
  -3  -1   3 31829.4 814.138   1
   3   1   4 24965.1 1416.45   2
  -3   1   4 26266.0 1116.28   1
  -3  -1   4 27236.3 1401.60   2
  -3  -1   4 25227.3 775.690   1
  -3   1   4 25948.9 1235.48   2
   3  -1   4 23855.2 1359.06   2
  -3  -1   5 54549.8 2395.30   2
   3   1   5 51017.0 2306.11   2
  -3   1   5 52391.1 1871.13   1
  -3  -1   5 44491.1 1603.18   1
  -3   1   5 47476.2 1985.47   2
  -3  -1   5 55500.4 1459.72   1
   3  -1   5 49791.2 2263.15   2
   3   1   6 26708.3 1759.97   2
  -3   1   6 26270.3 1334.22   1
  -3  -1   6 25644.4 1714.73   2
  -3   1   6 25481.5 1524.21   2
   3  -1   6 26836.6 1743.09   2
   3   1   7 42340.4 2441.51   2
  -3   1   7 42388.5 2221.40   2
   3  -1   7 42278.0 2436.88   2
  -3   1   7 43984.1 1868.64   1
   3   1   8 22521.9 1847.71   2
  -3   1   8 22560.7 1753.62   2
   3  -1   8 23139.1 1980.09   2
   3  -2  -8 19831.5 1779.90   3
  -3   2  -8 22343.0 1791.08   3
  -3  -2  -8 20114.1 1733.75   3
   3   2  -8 19745.1 1514.35   3
  -3  -2  -7 7319.88 997.108   3
   3  -2  -7 8962.75 1202.79   3
   3   2  -7 7147.85 847.296   3
  -3   2  -7 8290.16 1031.89   3
   3   2  -6 33591.5 1729.86   3
  -3  -2  -6 33863.1 2035.17   3
  -3   2  -6 36731.5 2048.85   3
   3  -2  -6 38256.1 2243.60   3
  -3  -2  -5 7856.33 936.509   3
  -3   2  -5 7875.34 901.013   3
   3   2  -5 7553.74 723.833   3
   3  -2  -5 8839.18 1000.25   3
   3  -2  -4 62716.8 2479.52   3
  -3  -2  -4 64719.7 2592.79   3
  -3  -2  -3 13118.0 969.381   3
   3  -2  -3 11460.3 911.394   3
   3   2  -3 11538.1 676.499   3
  -3   2  -3 11335.5 754.976   1
   3  -2  -2 99176.8 2474.90   2
  -3   2  -2 98590.4 2946.24   1
   3  -2  -2 97329.8 2884.96   3
  -3  -2  -2 93475.9 2694.86   3
   3   2  -2 92207.1 2253.19   3
   3  -2  -1 29572.0 1292.19   3
  -3   2  -1 32027.5 1143.38   1
  -3   2  -1 28501.6 989.177   2
  -3  -2  -1 30640.5 1093.50   3
  -3   2   0 118713. 2723.49   1
  -3  -2   0 117923. 2529.98   3
   3   2   0 114182. 2404.43   3
  -3   2   1 34462.1 894.337   2
  -3   2   1 31483.2 1178.18   1
  -3   2   1 35654.2 1483.55   3
   3   2   1 33669.9 1159.59   3
   3  -2   1 30741.5 1103.01   1
  -3   2   2 105968. 2684.04   1
   3  -2   2 101801. 2515.63   1
   3   2   2 89221.2 2865.67   2
   3  -2   2 97550.1 2640.21   2
  -3   2   2 94400.2 2265.17   2
  -3   2   3 14968.8 773.525   2
   3   2   3 14427.5 998.538   2
  -3   2   3 17191.3 923.455   1
   3  -2   3 15557.8 1005.79   2
   3  -2   3 12796.7 858.587   1
   3   2   4 69418.3 2562.82   2
  -3   2   4 61697.3 2068.71   2
   3  -2   4 58826.6 2397.02   1
  -3   2   4 63028.9 2173.47   1
   3  -2   4 69629.7 2586.66   2
  -3   2   5 9117.53 812.273   1
   3   2   5 10154.8 1025.08   2
  -3   2   5 8410.18 770.615   2
   3  -2   5 8101.16 952.094   2
  -3   2   6 41587.9 1894.46   1
   3   2   6 41098.9 2283.74   2
   3  -2   6 43171.5 2359.47   2
  -3   2   6 40348.1 1929.98   2
  -3   2   7 7961.54 850.812   1
  -3   2   7 7046.45 873.869   2
   3   2   7 7670.22 1063.83   2
   3  -2   7 8695.87 1132.68   2
   3   2   8 26570.8 2076.21   2
  -3   2   8 23900.1 1780.80   2
   3   2   8 21394.8 1674.71   1
   3  -2   8 29473.7 2280.42   2
  -3   3  -8 27812.6 2064.07   3
   3  -3  -8 24801.9 2116.21   3
   3   3  -7 2637.72 554.166   3
   3  -3  -7 2266.51 708.977   3
  -3   3  -7 3524.56 752.066   3
  -3  -3  -7 2481.64 636.087   3
   3  -3  -6 29225.6 2057.63   3
   3   3  -6 28611.5 1554.45   3
  -3  -3  -6 28925.9 2049.27   3
  -3   3  -6 32992.9 2064.93   3
   3  -3  -5 10289.0 1144.72   3
  -3  -3  -5 8968.95 1076.44   3
   3   3  -5 8539.77 772.555   3
  -3   3  -5 8683.56 992.437   3
  -3  -3  -4 25874.1 1611.49   3
   3  -3  -4 25918.7 1651.01   3
   3   3  -4 26353.6 1245.55   3
  -3   3  -4 27491.7 1247.19   1
  -3   3  -3 20545.8 1222.91   1
  -3  -3  -3 18915.4 1230.51   3
   3  -3  -3 17616.1 1258.81   3
   3   3  -3 18797.2 939.927   3
  -3   3  -2 14271.5 932.401   1
  -3  -3  -2 16543.5 1019.63   3
   3   3  -2 16042.8 582.150   1
   3  -3  -2 15255.5 1113.28   3
   3  -3  -2 17515.8 1082.91   2
   3   3  -1 14849.4 673.581   3
  -3   3  -1 17298.9 881.509   1
  -3  -3  -1 16233.7 881.096   3
   3   3   0 10027.5 552.130   3
  -3   3   0 7269.06 591.701   1
  -3   3   1 16231.1 784.318   2
   3   3   1 14257.4 1394.91   2
  -3   3   1 17833.8 969.974   1
   3   3   1 16515.1 848.782   3
   3  -3   2 23747.3 994.006   1
  -3   3   2 23835.9 917.151   2
   3   3   2 25850.3 1515.70   2
  -3   3   2 22588.1 1212.25   1
   3   3   3 19258.8 1265.98   2
  -3   3   3 19758.4 1158.25   1
   3  -3   3 17469.4 856.792   1
  -3   3   3 19925.9 927.460   2
   3   3   4 40652.2 2005.48   2
   3  -3   4 43695.5 1478.55   1
   3  -3   4 44572.5 2099.08   2
  -3   3   4 39376.4 1574.94   2
   3   3   5 11287.9 1119.83   2
  -3   3   5 10217.6 856.701   2
  -3   3   5 12486.0 1075.96   1
   3  -3   5 10757.6 1160.92   2
   3   3   6 42718.4 2380.16   2
  -3   3   6 43291.3 2109.91   1
  -3   3   6 39340.6 1915.93   2
   3   3   7 3770.20 828.499   2
  -3   3   7 3413.93 641.167   1
  -3   3   7 3186.27 601.877   2
   3   3   8 38188.0 2595.64   2
   3   3   8 35947.5 2370.10   1
  -3   4  -8 3935.22 871.858   3
   3  -4  -7 4804.22 1023.03   3
  -3  -4  -7 4978.67 1029.12   3
  -3   4  -7 4998.24 895.566   3
  -3  -4  -6 3154.19 808.030   3
  -3   4  -6 3503.32 727.345   3
   3  -4  -6 3622.81 869.645   3
   3   4  -5 7541.27 734.200   3
   3  -4  -5 7674.47 1072.95   3
  -3  -4  -5 8191.71 1088.85   3
   3   4  -4 3259.37 483.655   3
  -3  -4  -4 3344.34 643.349   3
   3  -4  -4 4061.35 761.580   3
  -3   4  -4 3155.88 478.389   1
  -3   4  -3 8474.05 953.573   1
   3  -4  -3 9716.46 1034.51   3
  -3  -4  -3 9467.67 951.512   3
  -3  -4  -2 2588.12 507.736   3
   3  -4  -2 2844.21 569.320   3
  -3   4  -2 2956.21 472.574   1
   3   4  -2 2820.41 331.821   1
   3   4  -1 6463.03 535.086   1
  -3  -4  -1 6010.36 639.150   3
  -3   4  -1 5706.84 567.120   1
   3   4  -1 5234.69 446.362   3
   3   4   0 2123.93 300.472   3
  -3   4   0 2481.33 440.234   1
  -3   4   1 6508.01 639.211   1
  -3   4   1 4994.84 581.087   2
   3   4   1 4027.17 793.297   2
  -3   4   2 3667.75 563.628   1
  -3   4   2 3453.32 405.934   2
   3   4   2 2741.65 550.764   2
   3   4   3 9213.19 1033.47   2
  -3   4   3 8573.97 852.086   1
  -3   4   3 8491.56 630.655   2
  -3   4   4 4389.67 518.938   2
  -3   4   4 6071.63 786.056   1
   3   4   4 4979.37 727.284   2
   3   4   5 10279.7 1130.29   2
  -3   4   5 9712.38 1069.77   1
  -3   4   5 9606.93 824.524   2
  -3   4   6 5448.47 841.941   1
   3   4   6 5247.96 917.711   2
  -3   4   6 3883.52 608.047   2
  -3   4   7 6133.10 932.002   1
   3   4   7 6392.14 1028.98   2
   3   4   7 6318.15 999.006   1
  -3   4   8 3604.28 752.644   1
   3   4   8 3351.76 845.127   2
  -3   5  -7 25637.1 2037.99   3
  -3  -5  -7 26327.0 2422.40   3
  -3  -5  -6 4449.66 944.494   3
   3  -5  -6 3983.40 886.841   3
  -3   5  -6 4910.55 908.358   3
  -3  -5  -5 19851.4 1779.32   3
   3  -5  -5 17397.0 1695.34   3
   3  -5  -4 11158.5 1295.39   3
   3   5  -4 10951.8 866.110   3
  -3  -5  -4 8970.54 1122.31   3
  -3   5  -3 14075.1 1258.38   1
   3  -5  -3 14212.1 1330.56   3
  -3  -5  -3 14435.2 1290.97   3
  -3  -5  -2 14212.7 1172.96   3
  -3   5  -2 13275.8 999.715   1
   3   5  -2 12706.0 813.984   1
   3   5  -1 5711.51 656.599   1
  -3   5  -1 7756.17 776.591   1
  -3   5   0 14501.8 1073.17   1
   3   5   0 13013.2 1458.25   2
   3   5   0 14900.3 1058.11   1
  -3   5   1 13014.5 1062.77   1
   3   5   1 11939.9 990.880   1
  -3   5   1 9050.51 885.624   2
   3   5   1 7127.46 1121.02   2
  -3   5   2 13318.7 897.850   2
  -3   5   2 14467.4 1143.97   1
  -3   5   3 20745.1 1100.45   2
  -3   5   3 24416.0 1568.60   1
   3   5   3 24543.1 1755.31   2
  -3   5   4 11027.0 844.110   2
   3   5   4 10805.1 1126.32   2
  -3   5   4 13333.3 1224.59   1
  -3   5   5 30708.2 1963.64   1
   3   5   5 28897.6 2029.37   1
   3   5   5 28475.3 1944.89   2
   3   5   6 5643.14 969.867   1
  -3   5   6 6952.46 1004.34   1
   3   5   6 6329.65 1025.15   2
  -3   5   7 30812.8 2122.45   1
   3   5   7 27893.7 2211.98   2
   3   5   7 31615.3 2322.32   1
  -3  -6  -6 1610.89 762.604   3
   3  -6  -6 1565.78 655.203   3
  -3  -6  -5 28704.9 2304.99   3
   3  -6  -5 31998.7 2437.44   3
   3  -6  -4 1843.54 638.997   3
  -3  -6  -4 1089.36 508.273   3
  -3  -6  -3 41725.6 2410.07   3
   3   6  -2 3085.21 460.380   1
  -3   6  -2 3475.11 647.789   1
   3   6  -1 53856.9 2158.54   1
  -3   6  -1 45551.3 2190.96   1
  -3   6   0 3756.76 678.918   1
  -3   6   0 3486.37 676.295   2
   3   6   0 2571.12 701.319   2
   3   6   0 2696.69 561.376   1
   3   6   1 50167.9 2296.93   1
  -3   6   1 43984.3 2100.36   2
   3   6   1 41339.3 2797.31   2
  -3   6   1 50254.8 2349.14   1
  -3   6   2 2857.79 613.262   1
  -3   6   2 2518.51 466.400   2
   3   6   2 2923.81 697.454   2
   3   6   2 2516.87 602.667   1
   3   6   3 42831.3 2458.86   2
  -3   6   3 37153.6 2140.22   1
   3   6   3 44368.9 2502.13   1
  -3   6   4 2279.29 650.407   1
   3   6   4 3177.12 816.839   1
   3   6   4 2034.84 595.610   2
   3   6   5 34180.8 2291.06   2
  -3   6   5 35739.4 2290.60   1
   3   6   6 1741.62 590.161   1
  -3   6   6 2566.73 787.710   1
   3   6   6 2923.00 759.383   2
  -3  -7  -5 3177.84 836.266   3
  -3  -7  -4 4047.24 925.507   3
  -3   7  -2 2096.34 561.556   1
  -3   7  -1 562.537 425.301   1
   3   7  -1 1199.92 438.586   1
   3   7  -1 525.211 410.798   2
   3   7   0 2927.17 654.663   1
  -3   7   0 2940.02 647.397   1
   3   7   0 2394.61 761.175   2
   3   7   1 1718.03 541.400   1
   3   7   1 1717.74 762.361   2
  -3   7   1 1514.99 558.684   1
  -3   7   2 3634.41 723.377   1
   3   7   2 2379.76 673.908   2
   3   7   2 4344.31 837.669   1
   3   7   3 4378.46 843.671   1
   3   7   3 5109.63 937.294   2
  -3   7   3 4733.14 902.595   1
   3   7   4 7012.35 1148.29   1
   3   7   4 6663.72 990.717   2
  -3   7   4 8470.30 1151.92   1
   3   8  -1-100.500 624.164   2
  -3   8  -1 311.133 351.653   1
  -3   8   0 8456.73 1071.46   1
   3   8   0 7570.96 1294.86   2
   3   8   0 7117.43 958.304   1
  -3   8   1 730.389 514.764   1
   3   8   1 1249.72 629.189   1
  -3   8   2 7833.79 1108.89   1
   3   8   2 8279.09 1184.65   1
  -3   8   3 504.924 564.909   1
   3   8   3 549.872 584.343   1
  -3   9   1 7993.80 1123.39   1
   3   9   1 8602.26 1150.74   1
  -4   0  -8 38390.0 2338.33   3
   4   0  -8 33322.5 2136.49   3
   4   0  -7-331.829 381.200   3
  -4   0  -7 252.848 406.578   3
  -4   0  -6 77131.8 3074.93   3
   4   0  -6 79932.0 3083.93   3
   4   0  -5 101.231 280.321   3
  -4   0  -5-4.35099 274.114   3
   4   0  -4 163435. 4270.23   3
  -4   0  -4 165257. 4503.55   3
  -4   0  -3 347.653 272.749   3
   4   0  -3 411.404 217.855   3
   4   0  -2 258178. 5488.30   3
   4   0  -2 263274. 5434.18   2
   4   0  -1 993.044 170.414   1
  -4   0  -1 466.479 178.021   1
  -4   0  -1 763.042 177.883   2
   4   0  -1 1001.63 174.666   3
  -4   0   0 284332. 5896.55   1
   4   0   0 273389. 5732.96   1
   4   0   0 274702. 5573.72   2
  -4   0   1 418.196 150.151   1
  -4   0   1 727.407 160.509   3
   4   0   1 670.140 183.877   2
   4   0   1 730.857 255.693   1
   4   0   2 267701. 5701.81   2
  -4   0   2 256721. 5195.75   1
   4   0   2 269976. 5896.38   1
  -4   0   2 260773. 5520.58   3
   4   0   3 227.268 217.168   2
  -4   0   3 270.297 147.873   1
  -4   0   4 190918. 4092.46   1
  -4   0   4 188105. 4679.76   2
  -4   0   5 220.871 163.675   1
   4   0   5 484.445 338.613   2
  -4   0   5 241.356 292.409   2
  -4   0   6 95687.9 2632.91   1
  -4   0   6 90027.5 3308.00   2
   4   0   7-372.369 395.582   2
  -4   0   7 911.892 495.107   2
   4   0   8 43303.2 2661.36   2
   4   1  -8 23645.6 1695.36   3
  -4   1  -8 26831.9 1967.02   3
  -4  -1  -8 24849.5 1901.71   3
   4  -1  -8 24778.7 1887.28   3
   4   1  -7 6090.55 824.486   3
   4  -1  -7 6401.27 958.482   3
  -4  -1  -7 7398.73 979.750   3
  -4   1  -7 7073.94 970.831   3
  -4   1  -6 30240.1 1822.33   3
  -4  -1  -6 28205.2 1776.78   3
   4  -1  -6 33504.2 2001.61   3
   4   1  -6 29107.2 1626.35   3
   4   1  -5 8711.63 809.721   3
  -4  -1  -5 8467.79 907.008   3
   4  -1  -5 8390.37 905.131   3
  -4   1  -5 9080.64 942.417   3
  -4  -1  -4 28937.5 1554.50   3
  -4   1  -4 28752.7 1599.72   3
   4  -1  -4 30109.3 1548.57   3
   4   1  -4 31271.4 1412.31   3
  -4  -1  -3 9822.33 792.434   3
   4  -1  -3 10293.4 778.946   3
   4   1  -3 11040.1 667.675   3
  -4   1  -3 9969.91 755.003   1
   4  -1  -2 30013.2 1005.83   2
   4   1  -2 28470.1 747.299   1
   4   1  -2 30063.7 948.266   3
   4  -1  -2 28851.9 1240.07   3
   4  -1  -2 33516.8 1165.77   1
  -4   1  -2 29641.6 1302.11   1
  -4  -1  -2 27841.8 1243.53   3
  -4   1  -2 29306.4 1138.36   2
   4  -1  -1 23506.3 973.674   3
   4  -1  -1 22331.4 812.264   1
  -4   1  -1 24246.0 1216.62   1
   4   1  -1 25931.9 915.377   1
  -4  -1  -1 24524.8 1171.01   2
  -4  -1  -1 24494.8 907.536   3
  -4   1  -1 26839.6 796.959   2
  -4  -1   0 31650.6 822.564   3
   4  -1   0 33187.0 761.112   2
   4  -1   0 31828.7 1084.55   1
   4   1   0 31925.9 1537.43   2
  -4   1   0 30088.5 750.778   2
  -4   1   0 29713.6 1076.78   1
   4   1   0 29745.4 1059.86   1
  -4   1   1 25947.8 1161.15   3
   4   1   1 27928.7 1309.32   2
   4  -1   1 27727.4 1242.27   1
   4  -1   1 30042.4 986.924   2
  -4   1   1 28969.7 994.072   1
   4   1   1 27882.0 1141.67   1
  -4  -1   1 27203.2 909.105   1
   4  -1   2 39250.9 1413.12   2
  -4  -1   2 36857.5 1120.56   1
   4   1   2 37549.7 1514.44   2
   4  -1   2 38935.7 1804.55   1
  -4  -1   2 35444.0 1195.79   3
  -4   1   2 37124.1 1227.75   1
  -4   1   2 36694.3 1080.05   2
   4  -1   3 14760.3 937.820   2
   4   1   3 14379.0 988.885   2
   4  -1   3 15414.6 1162.86   1
  -4  -1   3 14538.9 527.129   1
  -4   1   3 15633.0 798.839   2
  -4   1   3 17637.3 824.844   1
   4   1   4 41618.3 1913.38   2
  -4  -1   4 42703.6 1134.61   1
  -4   1   4 40424.7 1607.31   2
  -4   1   4 42287.4 1534.55   1
   4  -1   4 37413.0 1792.63   2
  -4   1   5 13379.6 970.999   2
  -4   1   5 14980.1 931.796   1
   4  -1   5 13987.8 1158.23   2
  -4  -1   5 14734.7 636.765   1
   4   1   5 13023.0 1179.16   2
   4   1   6 37699.2 2169.94   2
  -4   1   6 41705.1 1699.25   1
  -4   1   6 38116.2 1909.05   2
   4  -1   6 37734.7 2133.01   2
   4   1   7 11264.5 1285.11   2
  -4   1   7 11550.3 1130.63   2
   4  -1   7 10633.4 1190.77   2
   4  -1   8 36690.0 2466.52   2
  -4   1   8 36120.3 2243.62   2
   4   1   8 33060.9 2388.81   2
  -4   2  -8 819.997 517.871   3
   4  -2  -8 615.657 455.000   3
  -4  -2  -8 952.641 515.642   3
   4   2  -8 1118.38 476.584   3
  -4  -2  -7 12301.9 1323.94   3
   4  -2  -7 13024.4 1426.29   3
   4   2  -7 10551.5 995.468   3
  -4   2  -7 12307.4 1284.36   3
  -4  -2  -6 2716.19 628.197   3
   4  -2  -6 2544.04 641.036   3
   4   2  -6 2175.09 445.673   3
  -4   2  -6 1793.43 567.849   3
   4   2  -5 21086.8 1214.42   3
  -4   2  -5 24761.2 1665.40   3
   4  -2  -5 24867.5 1621.52   3
  -4  -2  -5 21423.1 1522.08   3
   4   2  -4 5100.05 508.780   3
   4  -2  -4 5634.22 718.682   3
  -4   2  -3 45821.9 1825.19   1
   4  -2  -3 46100.6 1973.46   3
   4  -2  -3 45917.8 1675.26   2
  -4  -2  -3 49538.5 2000.94   3
   4   2  -3 47304.7 1522.76   3
  -4  -2  -2 8922.01 692.207   3
   4  -2  -2 8770.05 529.731   2
   4  -2  -2 10217.7 782.522   3
  -4   2  -2 9871.77 829.172   1
   4   2  -2 8757.66 448.712   3
  -4   2  -1 74728.7 1826.68   2
  -4   2  -1 68635.5 2121.02   1
   4  -2  -1 71183.1 2351.33   3
  -4  -2  -1 76194.1 2009.18   3
   4   2  -1 71237.3 1802.56   1
  -4  -2   0 8222.67 395.420   3
   4   2   0 7817.58 359.145   3
  -4   2   0 7202.20 312.876   2
   4  -2   0 7521.71 522.716   1
   4   2   1 72312.8 1956.87   3
   4   2   1 88476.9 3286.64   2
   4  -2   1 62262.7 1923.59   1
  -4   2   1 69833.1 1448.03   2
   4  -2   1 72884.5 1904.87   2
  -4   2   1 84848.1 2122.94   1
  -4   2   2 8296.25 416.968   2
  -4   2   2 7945.39 599.461   1
   4  -2   2 8964.37 639.501   1
   4  -2   2 8014.10 605.445   2
   4   2   2 8897.18 805.492   2
  -4   2   3 48421.4 1742.82   1
   4   2   3 50988.7 2051.91   2
   4  -2   3 43963.8 1889.01   1
   4  -2   3 53898.7 2006.02   2
  -4   2   3 46458.2 1493.84   2
   4   2   4 5754.47 763.666   2
   4  -2   4 5436.58 724.619   2
  -4   2   4 6173.21 615.327   1
  -4   2   4 5802.10 537.776   2
   4  -2   5 22572.3 1544.67   2
  -4   2   5 26478.2 1400.73   1
   4   2   5 23469.6 1596.77   2
  -4   2   5 23425.7 1270.04   2
   4   2   6 3130.97 671.464   2
  -4   2   6 3224.16 524.006   1
  -4   2   6 2465.77 519.770   2
   4  -2   6 1901.93 625.218   2
   4   2   7 13016.1 1385.56   2
  -4   2   7 13974.4 1093.75   1
  -4   2   7 12808.2 1142.39   2
   4  -2   7 14358.7 1503.21   2
  -4   2   8 1558.24 535.707   2
   4   2   8 1677.13 688.029   2
   4  -2   8 1949.51 719.519   2
  -4   3  -8 7445.09 1115.70   3
  -4   3  -7 28221.4 2041.64   3
   4  -3  -7 29690.5 2266.58   3
  -4  -3  -7 25738.7 1951.10   3
  -4  -3  -6 11669.1 1258.37   3
  -4   3  -6 14984.4 1432.73   3
   4   3  -6 12525.0 982.170   3
   4  -3  -6 13602.9 1393.17   3
   4   3  -5 28267.9 1369.22   3
  -4  -3  -5 31671.2 2029.77   3
   4  -3  -5 29554.4 1936.12   3
   4   3  -4 22744.1 1089.20   3
  -4  -3  -4 22302.2 1547.92   3
   4  -3  -4 22803.8 1570.68   3
  -4   3  -4 24147.1 1285.26   1
  -4   3  -3 18981.0 1363.95   1
  -4  -3  -3 19838.5 1265.66   3
   4  -3  -3 22593.5 1450.48   3
   4  -3  -3 19120.9 1205.15   2
   4   3  -3 21896.0 946.430   3
   4  -3  -2 32840.1 1340.67   2
  -4   3  -2 34371.9 1557.64   1
   4  -3  -2 33845.7 1668.53   3
   4   3  -2 29803.7 908.992   1
  -4  -3  -2 32477.9 1443.39   3
   4   3  -1 10636.3 488.374   3
  -4   3  -1 11212.7 757.614   1
  -4  -3  -1 11648.8 720.390   3
  -4   3  -1 9219.82 605.321   2
  -4   3   0 27532.2 940.508   2
  -4   3   0 26690.4 1228.01   1
   4   3   1 15578.0 804.425   3
   4   3   1 14144.3 1275.03   2
  -4   3   1 15082.7 638.591   2
  -4   3   1 17363.3 946.016   1
  -4   3   2 30186.3 1374.07   1
  -4   3   2 29289.3 967.592   2
  -4   3   3 27452.0 1399.45   1
   4   3   3 30381.1 1706.87   2
  -4   3   3 28323.3 1075.72   2
   4  -3   3 26157.9 1465.28   2
  -4   3   4 29438.1 1513.73   1
   4  -3   4 25359.7 1670.96   2
  -4   3   4 22647.7 1109.56   2
   4   3   4 26747.5 1642.63   2
  -4   3   5 41438.0 1974.26   1
   4  -3   5 40098.7 2262.34   2
   4   3   5 42635.6 2247.30   2
  -4   3   5 36822.0 1625.13   2
   4   3   6 14666.9 1417.86   2
  -4   3   6 17027.8 1278.53   1
   4  -3   6 14467.7 1515.17   2
  -4   3   6 14545.2 1082.59   2
   4   3   7 36581.7 2446.09   2
  -4   3   7 35417.1 1960.76   1
  -4   3   7 33950.1 1878.75   2
   4   3   8 6885.96 1046.94   1
   4   3   8 8878.92 1277.21   2
  -4   4  -8 14546.0 1563.74   3
  -4  -4  -7 24060.5 2061.57   3
   4  -4  -7 23705.7 2154.15   3
  -4   4  -7 24306.5 1995.83   3
  -4   4  -6 24932.9 1988.32   3
  -4  -4  -6 24632.2 2087.84   3
   4  -4  -6 24039.4 2017.01   3
  -4  -4  -5 42269.1 2475.63   3
   4  -4  -5 42624.3 2524.18   3
   4   4  -5 40108.7 1685.38   3
  -4  -4  -4 38785.2 2156.45   3
   4  -4  -4 38393.4 2236.47   3
   4   4  -4 36314.8 1484.04   3
  -4   4  -4 39483.4 1820.64   1
  -4   4  -3 62640.4 2724.61   1
   4  -4  -3 71683.4 2969.83   3
  -4  -4  -3 70561.1 2753.81   3
  -4   4  -2 64156.7 2268.26   1
   4   4  -2 56940.4 1675.13   3
   4  -4  -2 60487.4 2558.00   3
  -4  -4  -2 61535.6 2309.71   3
   4   4  -1 84875.7 2226.29   3
  -4   4  -1 85381.7 2743.66   1
  -4   4   0 74674.5 2100.29   2
   4   4   0 76162.8 2092.23   3
  -4   4   0 77363.2 2524.80   1
   4   4   1 72767.8 3288.44   2
  -4   4   1 71892.1 2585.96   1
  -4   4   2 59151.5 1716.21   2
   4   4   2 62237.6 2994.43   2
  -4   4   2 65110.9 2377.67   1
  -4   4   3 73239.9 2657.97   1
  -4   4   3 69200.6 2032.86   2
   4   4   3 74000.3 3106.23   2
  -4   4   4 41774.6 2035.67   1
   4   4   4 37717.1 2124.86   2
  -4   4   4 37923.1 1508.10   2
  -4   4   5 41231.0 1760.18   2
   4   4   5 46285.1 2486.94   2
   4   4   6 24140.3 1903.96   2
  -4   4   6 28205.9 1804.29   1
   4   4   7 25819.7 2100.27   2
   4   4   7 26385.4 1992.28   1
  -4   4   7 26264.8 1812.96   1
  -4   4   8 13447.8 1342.56   1
  -4   5  -7 3357.02 831.318   3
   4  -5  -6 13588.3 1587.92   3
  -4  -5  -6 14123.6 1619.34   3
  -4   5  -6 14091.9 1514.91   3
   4  -5  -5 5468.77 1053.56   3
  -4  -5  -5 4283.94 860.744   3
  -4  -5  -4 8599.23 1090.97   3
   4  -5  -4 10368.7 1252.64   3
   4  -5  -3 4586.08 825.542   3
  -4   5  -3 4515.71 721.764   1
  -4  -5  -3 4195.37 746.718   3
  -4   5  -2 2867.00 520.137   1
   4   5  -2 3652.14 449.945   1
  -4   5  -1 4105.55 587.954   1
   4   5  -1 3645.18 488.323   1
  -4   5   0 1396.28 411.702   1
   4   5   0 1822.03 424.877   1
   4   5   0 1621.79 645.633   2
  -4   5   1 4018.67 534.576   2
  -4   5   1 5124.10 672.784   1
   4   5   1 3960.22 799.605   2
  -4   5   2 7040.45 568.994   2
  -4   5   2 5850.60 767.050   1
  -4   5   3 4027.15 443.365   2
  -4   5   3 4510.92 739.955   1
   4   5   3 4582.74 835.333   2
   4   5   4 15645.4 1444.30   2
  -4   5   4 17477.7 1393.79   1
  -4   5   5 5755.99 899.055   1
   4   5   5 4679.53 873.687   2
  -4   5   6 20890.3 1705.20   1
   4   5   6 22181.8 1916.16   2
   4   5   6 21300.2 1817.00   1
   4   5   7 2893.86 793.749   2
   4   5   7 4300.68 910.982   1
  -4   5   7 5098.21 895.483   1
   4  -6  -6 8908.26 1363.97   3
  -4  -6  -6 9415.35 1435.01   3
   4  -6  -5 4781.17 1027.85   3
  -4  -6  -5 4106.26 921.145   3
  -4  -6  -4 14763.5 1531.70   3
   4  -6  -4 16202.7 1670.24   3
  -4  -6  -3 6519.00 958.146   3
  -4  -6  -2 23798.3 1660.72   3
  -4   6  -2 24619.2 1591.70   1
   4   6  -1 8105.59 769.739   1
  -4   6  -1 7975.67 904.460   1
  -4   6   0 31023.9 1909.23   2
   4   6   0 22798.4 1473.69   1
   4   6   0 22879.4 2056.85   2
  -4   6   0 33634.0 1864.76   1
   4   6   1 7749.96 899.527   1
   4   6   1 6634.55 1057.48   2
  -4   6   1 8868.01 987.262   1
   4   6   2 22247.1 1884.67   2
  -4   6   2 22710.5 1626.87   1
   4   6   2 20504.2 1591.25   1
   4   6   3 4274.66 881.041   2
   4   6   3 6189.61 967.716   1
  -4   6   3 6384.30 931.920   1
  -4   6   4 14347.8 1386.48   1
   4   6   4 13045.5 1385.51   2
   4   6   4 15737.1 1589.03   1
   4   6   5 4221.12 905.321   2
   4   6   5 5090.98 975.473   1
  -4   6   5 5098.89 950.525   1
   4   6   6 10440.6 1392.98   1
  -4   6   6 9635.49 1260.08   1
   4   6   6 10877.6 1460.44   2
  -4  -7  -5 20376.0 2001.33   3
  -4  -7  -4 2241.72 730.313   3
  -4   7  -2 1101.51 489.403   1
   4   7  -1 24537.7 2229.75   2
  -4   7  -1 26281.6 1824.57   1
   4   7  -1 28769.8 1653.18   1
   4   7   0 607.510 402.464   1
  -4   7   0 968.796 531.621   1
   4   7   0 277.102 392.310   2
   4   7   1 25534.4 1736.58   1
   4   7   1 23038.5 2110.77   2
  -4   7   1 23564.7 1813.75   1
   4   7   2 1122.85 544.763   1
  -4   7   2 1272.22 571.134   1
   4   7   2 1057.68 507.351   2
   4   7   3 26639.5 2120.35   2
   4   7   3 27842.7 2040.72   1
  -4   7   3 28827.2 2023.67   1
   4   7   4 4735.40 973.332   1
   4   7   4 2511.40 643.059   2
  -4   7   4 4479.62 852.122   1
   4   8  -2-521.603 708.585   2
  -4   8  -1 52200.3 2769.86   1
   4   8  -1 41285.7 3134.61   2
  -4   8   0 2720.17 697.886   1
   4   8   0 1943.85 713.216   2
   4   8   0 1867.69 580.264   1
   4   8   1 49753.2 2674.00   1
   4   8   1 46775.8 3042.65   2
  -4   8   1 46875.7 2651.32   1
   4   8   2 343.216 376.882   2
   4   8   2 983.761 525.131   1
  -4   8   2 1964.65 697.883   1
   4   8   3 48844.2 2967.80   1
  -4   8   3 45917.5 2753.69   1
  -4   9   0 1207.53 552.265   1
  -5   0  -8-65.2759 465.107   3
   5   0  -8 938.618 532.478   3
   5   0  -7 37009.2 2142.92   3
  -5   0  -7 40178.8 2272.36   3
   5   0  -6 714.680 424.593   3
  -5   0  -6 536.596 472.584   3
   5   0  -5 100137. 3294.69   3
  -5   0  -5 102580. 3475.03   3
  -5   0  -4 381.682 325.436   3
   5   0  -4 336.441 272.955   3
   5   0  -3 192043. 4563.47   3
  -5   0  -3 203712. 5035.92   3
   5   0  -2 561.707 141.481   2
   5   0  -2 429.617 148.191   1
   5   0  -2 361.931 156.673   3
  -5   0  -1 263421. 5944.19   1
  -5   0  -1 271670. 5598.11   2
   5   0  -1 266073. 5489.89   1
  -5   0   0 1488.96 336.903   1
   5   0   0 1011.75 260.910   1
   5   0   0 1056.75 235.356   2
   5   0   1 257870. 5759.74   1
  -5   0   1 253733. 5304.39   3
   5   0   1 255154. 5444.56   2
  -5   0   1 257170. 5366.68   1
  -5   0   2 533.606 183.790   1
   5   0   2 474.275 215.256   2
  -5   0   2 487.386 168.569   3
   5   0   3 209700. 5025.57   2
  -5   0   3 196391. 4264.37   1
  -5   0   4 226.689 213.879   2
   5   0   4 854.555 360.564   2
  -5   0   4 335.045 183.911   1
   5   0   5 110204. 3830.87   2
  -5   0   5 117774. 3621.67   2
  -5   0   5 119407. 3017.69   1
  -5   0   6 382.296 227.148   1
   5   0   6 659.109 456.134   2
   5   0   7 42951.1 2554.12   2
   5   0   8 84.3029 432.624   2
  -5  -1  -8 25892.8 1944.07   3
   5   1  -8 22172.7 1635.20   3
  -5   1  -8 24381.8 1874.54   3
   5  -1  -8 21174.7 1787.43   3
  -5   1  -7 23766.4 1759.30   3
  -5  -1  -7 21239.1 1640.73   3
   5   1  -7 20294.0 1468.46   3
   5  -1  -7 23908.9 1801.78   3
  -5   1  -6 49100.9 2458.05   3
   5   1  -6 47957.7 2200.77   3
  -5  -1  -6 48026.3 2390.44   3
   5  -1  -6 49794.3 2457.63   3
   5   1  -5 33805.2 1652.08   3
  -5   1  -5 33036.2 1892.92   3
   5  -1  -5 32762.6 1771.22   3
  -5  -1  -5 30734.5 1738.44   3
   5  -1  -4 90112.5 2927.77   3
  -5   1  -4 88336.5 3119.49   3
   5   1  -4 87985.1 2633.81   3
  -5  -1  -4 83927.0 2950.27   3
  -5   1  -3 47779.7 1890.98   1
   5  -1  -3 50584.2 1669.97   2
   5  -1  -3 50742.7 1906.51   3
   5   1  -3 50887.7 1598.29   3
  -5  -1  -3 49879.8 1955.82   3
   5  -1  -2 150816. 3325.09   2
  -5   1  -2 155015. 4058.32   1
   5  -1  -2 154511. 3559.12   1
  -5  -1  -2 155103. 3823.97   3
   5  -1  -2 154708. 3844.19   3
   5   1  -2 149783. 3278.25   3
   5   1  -2 155125. 3127.02   1
  -5   1  -1 91904.6 2664.75   1
   5   1  -1 85548.2 2048.75   1
  -5  -1  -1 93526.4 2153.88   3
  -5   1  -1 83934.7 1878.25   2
   5  -1  -1 95399.0 2116.96   1
  -5  -1  -1 90382.2 2637.98   2
   5  -1   0 196533. 3981.19   2
   5   1   0 204014. 4520.13   1
  -5   1   0 222996. 4644.02   1
  -5   1   0 209853. 4095.50   2
   5   1   0 206815. 5290.58   2
  -5  -1   0 206693. 4561.24   1
   5  -1   0 215544. 4602.88   1
  -5  -1   1 94912.3 2422.82   1
   5  -1   1 91180.6 2280.43   2
   5   1   1 101564. 2972.97   2
   5  -1   1 96325.4 2910.10   1
  -5   1   1 90824.4 2729.54   3
  -5   1   1 90206.3 2350.10   1
   5   1   1 95812.7 2626.74   1
   5  -1   2 155522. 3773.65   2
  -5  -1   2 150499. 3392.35   3
  -5  -1   2 160451. 3515.52   1
   5   1   2 161215. 4049.16   2
   5  -1   2 150010. 4208.61   1
  -5   1   2 149301. 3520.97   1
  -5   1   2 155674. 3276.81   2
   5  -1   3 56780.7 2073.22   2
   5   1   3 55446.4 2176.57   2
  -5  -1   3 54979.2 1479.20   1
  -5   1   3 56585.5 1746.66   1
  -5  -1   3 56399.7 1892.47   3
  -5   1   3 58050.2 1719.80   2
  -5   1   4 92874.3 2546.30   1
   5   1   4 95026.9 3187.30   2
  -5   1   4 97849.2 2718.81   2
  -5  -1   4 86640.8 2094.70   1
   5  -1   4 85752.1 3000.23   2
  -5   1   5 37004.6 1525.31   1
   5   1   5 35648.8 2006.51   2
  -5  -1   5 39639.6 1194.26   1
  -5   1   5 36894.0 1706.01   2
   5  -1   5 33165.7 1889.48   2
   5   1   6 55197.5 2743.14   2
   5  -1   6 52951.1 2637.25   2
  -5   1   6 58130.9 2091.84   1
  -5   1   6 54463.7 2331.52   2
  -5   1   7 25172.9 1665.21   2
   5  -1   7 22180.7 1805.93   2
   5   1   7 25248.1 1944.64   2
   5  -1   8 30341.5 2293.29   2
   5   1   8 29764.1 2288.31   2
   5  -2  -8 53677.0 3062.27   3
  -5   2  -8 57496.8 3048.74   3
  -5  -2  -8 53868.4 2940.89   3
  -5   2  -7 18557.7 1625.46   3
   5  -2  -7 19481.3 1734.61   3
  -5  -2  -7 15529.0 1450.09   3
   5   2  -7 15679.1 1237.14   3
  -5   2  -6 128764. 4456.37   3
   5  -2  -6 123293. 4365.45   3
   5   2  -6 112518. 3575.49   3
  -5  -2  -6 116348. 4162.38   3
  -5  -2  -5 41029.4 2134.33   3
   5   2  -5 42801.4 1798.33   3
  -5   2  -5 42840.6 2279.26   3
   5  -2  -5 44418.3 2242.84   3
  -5  -2  -4 226811. 6098.45   3
   5  -2  -4 225756. 6034.05   3
   5   2  -4 237132. 5383.99   3
  -5   2  -4 240671. 5672.14   1
  -5  -2  -3 88519.6 2915.28   3
   5  -2  -3 81488.6 2382.91   2
   5  -2  -3 82083.0 2859.00   3
  -5   2  -3 80850.7 2730.71   1
   5   2  -3 83559.4 2192.67   3
   5  -2  -2 340207. 6782.00   2
   5   2  -2 344860. 6646.32   1
  -5  -2  -2 344724. 7424.72   3
   5   2  -2 346620. 6541.36   3
   5  -2  -2 354414. 7747.01   3
  -5   2  -1 104781. 2407.78   2
   5   2  -1 103288. 2465.87   1
  -5   2  -1 97442.1 2839.14   1
  -5  -2  -1 98173.7 2530.85   3
  -5   2   0 429635. 7978.52   2
  -5   2   0 429043. 8711.04   1
   5   2   0 428497. 8710.59   1
   5   2   0 435308. 8115.40   3
   5   2   0 425031. 9940.08   2
  -5  -2   0 429258. 8111.04   3
   5   2   1 95865.1 2566.53   3
   5   2   1 109866. 3538.44   2
  -5   2   1 99756.3 2671.84   1
   5  -2   1 104923. 2431.01   2
   5   2   2 367685. 8455.40   2
  -5   2   2 374369. 7665.71   1
   5  -2   2 374932. 7726.81   2
  -5   2   2 361919. 7001.93   2
   5   2   3 81466.5 2957.97   2
   5  -2   3 87736.3 2809.36   2
  -5   2   3 85962.3 2259.56   2
  -5   2   4 242279. 5635.45   1
   5   2   4 241831. 6296.40   2
   5  -2   4 237377. 6076.37   2
  -5   2   4 239216. 5368.31   2
  -5   2   5 45808.9 1914.50   1
  -5   2   5 45268.0 1816.11   2
   5   2   5 45253.0 2336.41   2
   5  -2   5 46292.8 2265.01   2
  -5   2   6 143466. 4009.63   1
   5   2   6 134050. 4723.74   2
  -5   2   6 126336. 3893.97   2
   5  -2   6 132607. 4585.30   2
   5   2   7 19278.8 1773.53   2
  -5   2   7 18964.6 1394.70   2
   5  -2   7 20543.6 1786.16   2
  -5   2   7 19816.7 1317.43   1
  -5   2   8 60487.8 2853.75   2
   5  -2   8 67771.0 3579.64   2
   5   2   8 59223.8 3347.58   2
  -5   3  -8 29367.1 2238.14   3
   5  -3  -7 621.694 547.204   3
  -5  -3  -7-7.46423 383.007   3
  -5   3  -7 687.337 546.463   3
   5  -3  -6 46533.0 2647.21   3
  -5  -3  -6 42575.9 2475.10   3
   5   3  -6 44011.2 1906.58   3
   5  -3  -5 276.086 359.576   3
  -5  -3  -5 15.4868 373.042   3
   5   3  -5 286.290 217.915   3
  -5  -3  -4 71428.0 2917.16   3
   5   3  -4 68906.2 2111.20   3
   5  -3  -4 71406.2 2980.92   3
  -5   3  -4 75755.0 2610.71   1
   5   3  -3 344.613 145.501   3
   5  -3  -3 364.607 182.948   2
   5  -3  -3 94.2746 299.232   3
  -5  -3  -3 392.885 290.074   3
  -5   3  -3 635.840 395.208   1
   5   3  -2 94297.9 2073.27   1
   5  -3  -2 99510.1 3128.31   3
  -5   3  -2 97773.1 3048.92   1
   5   3  -2 94709.1 1936.29   3
  -5  -3  -2 101925. 2796.57   3
  -5  -3  -1 1460.90 272.003   3
   5   3  -1 1247.76 121.760   3
  -5   3  -1 1152.39 198.346   2
  -5   3  -1 1755.41 368.144   1
  -5  -3   0 105886. 2534.21   3
   5   3   0 108669. 3946.69   2
   5   3   0 101747. 2315.68   3
  -5   3   0 92363.0 2776.13   1
  -5   3   0 98052.2 2209.98   2
  -5   3   1 1215.18 313.684   1
  -5   3   1 1507.02 140.859   2
   5   3   1 1722.96 479.649   2
   5   3   1 1258.90 236.186   3
  -5   3   2 97456.0 2170.57   2
   5   3   2 94473.7 3666.53   2
  -5   3   2 104079. 2931.74   1
  -5   3   3 36.4190 228.956   1
   5  -3   3 692.019 325.037   2
   5   3   3 1079.73 535.396   2
  -5   3   3 451.211 165.510   2
  -5   3   4 73474.3 2584.51   1
  -5   3   4 70731.8 2137.29   2
   5  -3   4 76821.7 3022.29   2
   5   3   4 75949.2 3059.10   2
  -5   3   5 1149.81 411.656   1
  -5   3   5 607.679 257.411   2
   5  -3   5 819.149 501.947   2
   5   3   5 232.287 392.394   2
   5   3   6 49662.4 2753.99   2
   5  -3   6 54787.3 2793.09   2
  -5   3   6 46799.1 2016.32   2
  -5   3   6 52578.0 2334.05   1
   5   3   7 579.528 543.944   2
   5  -3   7 1883.30 676.097   2
  -5   3   7 1570.43 498.002   1
   5   3   8 28875.3 2349.98   2
  -5  -4  -7 18979.0 1829.61   3
  -5   4  -7 21316.3 1946.62   3
   5  -4  -7 18399.1 1919.79   3
  -5  -4  -6 25938.4 2128.71   3
   5  -4  -6 24717.2 2043.55   3
  -5   4  -6 23941.3 1976.53   3
  -5  -4  -5 36511.0 2298.36   3
   5  -4  -5 32324.2 2196.57   3
  -5   4  -4 50243.9 2298.71   1
   5  -4  -4 50879.0 2611.99   3
   5   4  -4 45587.5 1594.37   3
  -5  -4  -4 45224.2 2364.89   3
   5  -4  -3 56466.4 2605.52   3
  -5   4  -3 55101.9 2505.32   1
  -5  -4  -3 51715.2 2325.80   3
   5   4  -3 54532.1 1617.14   3
   5   4  -2 65732.7 1949.23   1
   5   4  -2 73557.2 1840.22   3
  -5   4  -2 85246.1 2800.56   1
  -5  -4  -2 78332.4 2657.61   3
   5   4  -2 73507.2 2006.37   1
   5   4  -1 81952.4 1984.93   3
  -5  -4  -1 86876.6 2655.75   3
  -5   4  -1 88728.2 2771.94   1
   5   4   0 110386. 4178.39   2
  -5   4   0 106660. 3078.22   1
  -5   4   0 92572.8 2315.21   2
   5   4   0 96436.6 2430.11   3
   5   4   1 81025.0 3446.44   2
  -5   4   1 89539.8 2308.14   2
  -5   4   2 75534.4 1857.46   2
   5   4   2 73232.1 3460.13   2
  -5   4   2 73405.8 2616.95   1
  -5   4   3 52877.9 2206.15   1
  -5   4   3 53470.6 1597.24   2
  -5   4   4 43624.4 1548.94   2
  -5   4   4 43524.2 2090.95   1
   5   4   4 47442.1 2497.89   2
  -5   4   5 33706.8 1904.58   1
   5   4   5 33063.5 2151.11   2
  -5   4   5 31912.1 1425.57   2
  -5   4   6 23780.6 1686.94   1
   5   4   6 24048.6 1938.26   2
   5   4   7 21698.8 1980.73   2
  -5   4   7 19661.1 1553.07   1
  -5   5  -7 43563.4 2935.84   3
  -5  -5  -6 2627.75 784.418   3
   5  -5  -6 2287.17 749.181   3
  -5   5  -6 1477.85 506.597   3
   5  -5  -5 72355.3 3579.43   3
  -5  -5  -5 65649.4 3347.61   3
  -5  -5  -4 3040.65 683.123   3
   5  -5  -4 2918.01 611.412   3
  -5  -5  -3 98223.1 3618.44   3
  -5   5  -3 91893.5 3789.26   1
   5  -5  -3 99951.6 3896.54   3
   5   5  -2 4976.37 485.575   1
  -5   5  -2 4637.11 688.968   1
  -5  -5  -2 5468.98 722.576   3
  -5   5  -1 120614. 3796.15   1
  -5  -5  -1 112651. 3651.34   3
  -5   5   0 8931.55 884.075   1
   5   5   0 9505.36 1242.89   2
  -5   5   0 7912.22 796.898   2
  -5   5   1 105979. 2881.13   2
   5   5   1 100341. 3969.59   2
  -5   5   1 99501.3 3399.62   1
  -5   5   2 5537.04 440.247   2
  -5   5   2 5712.78 752.648   1
   5   5   3 94421.7 4105.18   2
  -5   5   3 117088. 3826.15   1
  -5   5   4 5235.04 792.986   1
   5   5   4 3937.64 720.184   2
  -5   5   5 81975.4 3341.66   1
   5   5   5 71327.2 3519.24   2
   5   5   6 3024.24 835.747   2
  -5   5   6 4209.60 801.103   1
   5   5   7 43441.3 2911.94   2
  -5   5   7 45676.2 2601.88   1
  -5  -6  -6 4087.30 950.831   3
   5  -6  -5 93129.5 4327.42   3
  -5  -6  -5 86301.8 4146.98   3
  -5  -6  -4 8238.75 1164.48   3
  -5   6  -3 131846. 4870.98   1
  -5  -6  -3 152571. 5007.13   3
  -5   6  -2 9619.40 1081.36   1
  -5  -6  -2 12004.7 1157.75   3
   5   6  -1 178677. 4815.22   1
  -5   6  -1 182511. 5339.40   1
   5   6   0 10609.4 995.780   1
   5   6   0 8893.41 1239.20   2
  -5   6   0 9562.12 1006.09   2
   5   6   1 201822. 6292.32   2
   5   6   1 229802. 5899.45   1
   5   6   2 12580.9 1249.34   1
   5   6   2 9460.46 1292.68   2
  -5   6   2 12318.5 1202.54   1
   5   6   3 136910. 5175.31   2
  -5   6   3 133078. 4519.18   1
   5   6   4 11623.4 1367.19   1
  -5   6   4 9930.03 1158.33   1
   5   6   4 7062.10 1056.94   2
   5   6   5 86373.7 4023.17   2
   5   6   5 74928.6 3865.27   1
   5   6   6 7317.22 1230.23   2
  -5   6   6 6767.46 1051.46   1
  -5  -7  -5 8121.42 1289.50   3
  -5  -7  -4 12240.0 1451.79   3
  -5  -7  -3 9215.56 1213.36   3
  -5   7  -2 17687.7 1540.33   1
  -5   7  -1 9643.14 1131.81   1
   5   7  -1 8691.18 1266.27   2
   5   7   0 18002.5 1707.86   2
   5   7   0 18641.8 1418.07   1
  -5   7   0 20111.0 1621.52   1
   5   7   1 6699.57 904.878   1
  -5   7   1 8238.73 1055.98   1
   5   7   1 7092.10 1165.93   2
   5   7   2 15504.1 1697.56   2
   5   7   2 17483.7 1601.92   1
  -5   7   2 17043.6 1550.99   1
   5   7   3 9247.86 1312.14   2
  -5   7   3 9802.45 1169.00   1
   5   7   3 10521.3 1309.83   1
   5   7   4 12368.4 1457.31   2
   5   7   4 13074.9 1594.86   1
  -5   7   4 11839.3 1365.23   1
   5   7   5 10725.6 1381.59   2
   5   8  -2 49280.7 3345.24   2
  -5   8  -1 1087.08 607.324   1
   5   8  -1-983.681 821.350   2
  -5   8   0 62405.3 3201.85   1
   5   8   0 62638.7 3388.27   2
  -5   8   1 429.993 508.191   1
   5   8   1 110.162 396.785   1
   5   8   1 606.579 473.058   2
  -5   8   2 53137.7 2940.17   1
   5   8   2 53516.8 3004.79   1
   5   8   2 54717.9 3264.49   2
  -5   8   3 893.164 598.707   1
   5   8   3 282.294 513.089   1
   6   0  -8 84231.7 3664.38   3
  -6   0  -8 100835. 4063.15   3
  -6   0  -7-111.746 377.325   3
   6   0  -7 944.055 468.727   3
   6   0  -6 231393. 6224.90   3
  -6   0  -6 217064. 6235.70   3
  -6   0  -5 107.443 328.031   3
   6   0  -5 555.003 362.398   3
  -6   0  -4 414887. 9306.01   3
   6   0  -4 398848. 8724.91   3
   6   0  -3 678.418 197.238   1
  -6   0  -3 1119.77 344.465   3
   6   0  -3 828.676 239.189   3
   6   0  -2 699411. 13814.4   3
  -6   0  -2 700930. 14280.9   1
   6   0  -2 702310. 13589.6   1
  -6   0  -1 2123.45 305.617   2
  -6   0  -1 1268.51 366.220   1
   6   0  -1 1363.89 249.112   1
  -6   0   0 970755. 19094.4   1
   6   0   0 999999. 18909.8   1
   6   0   0 993368. 18654.6   2
   6   0   1 1464.18 371.876   1
  -6   0   1 458.251 182.227   1
   6   0   1 1284.73 292.568   2
  -6   0   1 1325.59 269.514   3
  -6   0   2 709713. 13869.1   3
  -6   0   2 708540. 13737.0   1
  -6   0   3 356.568 147.760   1
   6   0   3 445.316 258.099   2
   6   0   4 410565. 9578.06   2
  -6   0   4 430031. 8544.21   1
   6   0   5 432.810 376.364   2
  -6   0   5 185.074 163.399   1
  -6   0   6 269614. 5819.56   1
   6   0   6 227486. 6915.07   2
   6   0   7 1695.77 624.780   2
   6   0   8 111275. 4676.13   2
   6   1  -8 31051.6 1983.17   3
  -6  -1  -8 32377.0 2193.80   3
   6  -1  -8 33588.4 2256.87   3
  -6   1  -8 35453.1 2335.89   3
  -6   1  -7 7877.78 1052.97   3
   6   1  -7 7644.87 900.324   3
   6  -1  -7 7303.97 1038.96   3
  -6  -1  -7 6860.03 971.073   3
  -6  -1  -6 70846.3 3037.28   3
   6   1  -6 78508.5 2948.13   3
   6  -1  -6 73000.6 3113.54   3
  -6   1  -6 76289.3 3216.45   3
   6  -1  -5 13055.3 1111.91   3
   6   1  -5 13137.1 982.197   3
  -6   1  -5 12481.1 1187.48   3
  -6  -1  -5 11815.7 1065.67   3
   6   1  -4 146834. 3736.53   3
   6  -1  -4 142509. 4088.64   3
  -6  -1  -4 139941. 4136.83   3
  -6   1  -4 145572. 4395.23   3
   6  -1  -3 19486.6 987.510   2
   6  -1  -3 21125.7 1190.91   3
  -6  -1  -3 20335.2 1209.50   3
  -6   1  -3 22999.8 1256.19   1
   6   1  -3 23503.4 992.626   3
   6  -1  -2 200130. 4213.27   2
  -6   1  -2 209084. 5280.62   1
   6   1  -2 206003. 4213.79   3
   6  -1  -2 202975. 4845.07   3
   6   1  -2 194461. 4171.06   1
  -6  -1  -2 216681. 4901.61   3
  -6   1  -1 30761.3 1503.30   1
  -6   1  -1 29275.8 1044.32   2
   6   1  -1 29148.2 1131.21   1
  -6  -1  -1 30010.9 1155.84   3
   6  -1  -1 32966.4 1217.77   1
   6  -1  -1 31194.5 804.366   2
   6   1   0 195678. 4485.12   1
   6  -1   0 199722. 3884.19   2
  -6  -1   0 200445. 4556.43   1
  -6   1   0 189979. 4532.55   1
   6   1   0 194092. 5222.80   2
  -6   1   0 190417. 4095.66   2
  -6  -1   1 29741.7 1246.36   1
   6  -1   1 28710.0 1015.52   2
   6   1   1 32122.2 1595.95   2
   6  -1   1 33230.6 1577.17   1
  -6   1   1 31782.4 1448.91   3
  -6   1   1 32444.9 1165.83   1
   6  -1   2 197667. 4655.04   2
  -6  -1   2 201873. 4478.24   1
   6   1   2 194699. 5015.71   2
  -6   1   2 196875. 4438.31   1
  -6  -1   2 203005. 4217.25   3
  -6   1   3 24457.4 1073.83   1
   6  -1   3 22641.1 1266.51   2
   6   1   3 20899.4 1300.96   2
  -6  -1   3 21293.3 923.572   1
  -6  -1   3 24202.4 1106.88   3
   6  -1   4 154679. 4499.40   2
  -6  -1   4 156248. 3550.95   1
  -6   1   4 163973. 4027.68   2
  -6   1   4 159084. 3910.67   1
   6  -1   5 13244.0 1174.50   2
   6   1   5 14102.4 1253.49   2
  -6  -1   5 15014.1 706.846   1
  -6   1   5 13301.5 1000.73   2
  -6   1   5 15101.5 945.593   1
   6   1   6 87937.4 3682.32   2
  -6   1   6 92007.8 2832.54   1
  -6   1   6 86780.6 3134.53   2
   6  -1   6 87720.6 3568.54   2
   6  -1   7 7663.83 1058.09   2
   6   1   7 9069.66 1253.22   2
   6  -1   8 38328.8 2645.77   2
   6   1   8 39200.7 2684.91   2
  -6  -2  -8 4941.67 931.174   3
   6  -2  -8 4769.43 987.592   3
  -6   2  -8 7018.67 1170.03   3
   6  -2  -7 47491.4 2764.94   3
  -6   2  -7 50335.4 2752.39   3
   6   2  -7 44891.4 2146.35   3
  -6  -2  -7 44685.3 2524.59   3
  -6  -2  -6 12457.8 1231.90   3
   6   2  -6 12553.4 1009.44   3
  -6   2  -6 13409.7 1363.30   3
   6  -2  -6 11720.7 1267.92   3
  -6   2  -5 107511. 3985.72   3
  -6  -2  -5 104710. 3745.84   3
   6  -2  -5 109066. 3884.06   3
   6   2  -5 115978. 3313.04   3
   6  -2  -4 18160.6 1301.57   3
   6   2  -4 19301.0 980.713   3
  -6  -2  -4 18016.5 1316.46   3
  -6   2  -4 19945.4 1228.78   1
   6  -2  -3 206855. 5392.80   3
  -6   2  -3 211246. 5451.62   1
   6  -2  -3 196396. 4606.99   2
   6   2  -3 202643. 4348.69   3
  -6  -2  -3 214053. 5423.87   3
  -6   2  -2 39084.5 1816.64   1
   6  -2  -2 37597.8 1121.91   2
   6   2  -2 40020.7 1301.78   1
   6  -2  -2 39381.4 1748.09   3
   6   2  -2 40636.8 974.013   3
  -6  -2  -2 39527.4 1624.06   3
   6   2  -1 299237. 6174.81   1
  -6   2  -1 298792. 5942.76   2
  -6   2  -1 289310. 6712.09   1
  -6  -2  -1 292485. 6148.69   3
  -6   2   0 66893.3 1465.97   2
   6   2   0 63673.2 2778.75   2
  -6  -2   0 68831.3 1572.00   3
   6   2   0 72414.3 2127.68   1
   6   2   1 287933. 7008.98   2
  -6   2   1 281024. 6199.48   1
   6  -2   1 292195. 5870.87   2
   6   2   2 44560.8 2162.58   2
  -6   2   2 49379.6 1741.92   1
   6  -2   2 47691.0 1729.01   2
   6   2   3 212904. 5692.58   2
  -6   2   3 209240. 4494.86   2
  -6   2   3 221365. 5024.26   1
   6  -2   3 209851. 5291.87   2
  -6   2   4 19494.4 992.554   2
   6   2   4 18691.4 1420.66   2
   6  -2   4 17602.1 1244.39   2
  -6   2   4 20123.9 1140.56   1
   6   2   5 110338. 4075.49   2
  -6   2   5 116186. 3291.16   2
   6  -2   5 106821. 3816.47   2
  -6   2   5 115383. 3383.37   1
   6   2   6 11618.7 1308.81   2
   6  -2   6 11414.3 1225.03   2
  -6   2   6 11752.1 992.696   2
  -6   2   6 11732.5 984.868   1
   6   2   7 51692.2 2962.96   2
  -6   2   7 48496.0 2286.67   2
  -6   2   7 49458.7 2169.58   1
   6  -2   7 47344.9 2785.23   2
   6  -2   8 5808.49 1105.68   2
   6   2   8 6112.10 1122.12   2
  -6   3  -8 13193.0 1535.66   3
   6  -3  -7 51054.9 3072.65   3
  -6  -3  -7 49394.6 2787.12   3
  -6   3  -7 54019.4 3017.09   3
   6  -3  -6 17563.2 1637.61   3
  -6  -3  -6 15533.6 1452.92   3
  -6   3  -6 19969.5 1768.37   3
   6  -3  -5 83049.3 3529.33   3
  -6  -3  -5 87207.5 3605.42   3
   6   3  -5 92199.3 2755.25   3
   6  -3  -4 24110.4 1662.05   3
   6   3  -4 26345.6 1118.93   3
  -6  -3  -4 24647.0 1642.29   3
  -6   3  -4 25767.1 1522.66   1
  -6   3  -3 127458. 4186.25   1
   6   3  -3 140910. 2989.96   3
   6  -3  -3 126195. 3245.84   2
  -6  -3  -3 128001. 3937.47   3
   6  -3  -3 133953. 4226.60   3
   6   3  -2 39845.2 1288.85   1
  -6  -3  -2 42482.5 1702.44   3
  -6   3  -2 43438.8 2050.18   1
   6  -3  -2 42136.4 2008.78   3
  -6   3  -1 168724. 3736.25   2
  -6   3  -1 178497. 4427.01   1
  -6  -3  -1 174780. 4018.83   3
   6   3  -1 168564. 4006.87   1
  -6  -3   0 66682.1 1765.49   3
  -6   3   0 61033.3 2137.10   1
   6   3   0 65568.9 1625.91   3
  -6   3   0 65253.2 1501.63   2
   6   3   0 65993.9 3012.53   2
  -6   3   1 175288. 4301.93   1
   6   3   1 168835. 5034.00   2
   6   3   1 170398. 3960.09   3
   6  -3   2 41819.9 1719.00   2
  -6   3   2 42707.2 1718.01   1
  -6   3   2 40644.1 1000.20   2
   6   3   3 145681. 4661.94   2
   6  -3   3 137856. 4040.97   2
  -6   3   3 138325. 3802.90   1
  -6   3   3 135685. 3089.88   2
   6   3   4 23719.4 1683.91   2
   6  -3   4 25893.9 1661.78   2
  -6   3   4 24870.0 1070.85   2
  -6   3   4 27314.2 1455.08   1
   6   3   5 88651.4 3633.93   2
   6  -3   5 94573.9 3601.95   2
  -6   3   5 83676.0 2628.21   2
  -6   3   5 88698.2 3053.91   1
   6   3   6 17924.3 1651.60   2
   6  -3   6 18393.8 1662.07   2
  -6   3   6 16361.9 1110.80   2
  -6   3   6 19714.5 1396.51   1
   6   3   7 56189.3 3221.72   2
   6  -3   7 56755.1 3193.87   2
  -6   3   7 55159.1 2491.87   1
   6   3   8 12214.6 1608.79   2
   6  -4  -7 56274.2 3389.77   3
  -6  -4  -7 54888.9 3169.40   3
  -6   4  -7 63117.4 3524.09   3
   6  -4  -6 62182.5 3341.29   3
  -6  -4  -6 59053.9 3242.55   3
  -6   4  -6 60463.1 3292.68   3
  -6  -4  -5 123924. 4638.22   3
   6  -4  -5 125154. 4707.91   3
  -6   4  -4 127965. 4272.98   1
   6  -4  -4 123525. 4460.57   3
  -6  -4  -4 121539. 4240.95   3
   6  -4  -3 211887. 6047.05   3
  -6   4  -3 209692. 5929.82   1
  -6  -4  -3 202334. 5646.05   3
   6   4  -3 216509. 4406.36   3
  -6   4  -2 155956. 4476.34   1
   6   4  -2 154027. 3034.97   3
   6   4  -2 151414. 3074.02   3
   6   4  -2 157262. 3597.02   1
  -6  -4  -1 265705. 5962.90   3
   6   4  -1 254195. 4994.30   3
  -6   4  -1 256345. 6218.23   1
   6   4   0 161658. 3515.56   3
   6   4   0 165822. 5489.97   2
  -6   4   0 159708. 3352.80   2
   6   4   1 244416. 6631.44   2
  -6   4   1 234066. 4537.30   2
  -6   4   2 150078. 3094.18   2
   6   4   2 143624. 5477.47   2
  -6   4   3 194631. 4037.16   2
   6   4   3 208054. 6323.37   2
  -6   4   4 114995. 2888.79   2
  -6   4   4 108074. 3654.21   1
   6   4   5 130880. 4878.31   2
  -6   4   5 136431. 4313.81   1
   6   4   6 67117.6 3424.73   2
  -6   4   6 61287.4 2807.35   1
   6   4   7 58457.4 3405.02   2
  -6   4   7 59714.6 2796.66   1
  -6   5  -7 5481.02 1155.89   3
   6  -5  -6 35625.0 2624.62   3
  -6  -5  -6 35362.2 2614.84   3
  -6  -5  -5 6951.79 1105.70   3
   6  -5  -5 7800.74 1184.67   3
  -6  -5  -4 47164.1 2541.81   3
   6  -5  -4 48637.1 2747.14   3
  -6   5  -3 7831.62 1061.36   1
  -6  -5  -3 7956.42 926.379   3
   6   5  -2 65992.4 2135.55   1
  -6   5  -2 69178.6 2789.35   1
  -6  -5  -1 12128.7 948.506   3
  -6   5  -1 10539.1 1018.57   1
   6   5  -1 9880.01 834.260   1
   6   5   0 90950.5 4069.30   2
  -6   5   0 82491.9 3071.95   1
  -6   5   0 92915.7 2911.62   2
  -6   5   1 13237.7 679.063   2
   6   5   1 11598.1 1251.39   2
  -6   5   1 14889.4 1177.94   1
   6   5   2 56443.6 3429.81   2
  -6   5   2 92410.6 3180.75   1
   6   5   3 8775.25 1253.43   2
  -6   5   3 9202.98 992.046   1
   6   5   4 49184.7 2863.51   2
  -6   5   4 48751.4 2433.89   1
   6   5   5 5728.75 993.128   2
  -6   5   5 7679.57 1038.31   1
   6   5   6 35850.7 2620.89   2
  -6   5   6 40563.3 2391.94   1
   6   5   7 4443.19 1060.18   2
  -6   5   7 4274.88 839.955   1
  -6  -6  -6 32280.0 2583.70   3
  -6  -6  -5 10909.2 1403.77   3
   6  -6  -5 12806.8 1585.57   3
  -6  -6  -4 73125.6 3517.57   3
  -6   6  -3 14926.5 1482.03   1
  -6  -6  -3 17764.4 1506.79   3
  -6   6  -2 107384. 3948.23   1
  -6  -6  -2 110946. 3870.32   3
   6   6  -1 18483.4 1201.58   1
  -6   6  -1 24435.0 1640.10   1
   6   6   0 113817. 4774.79   2
  -6   6   0 115971. 3983.46   1
   6   6   1 30325.4 1810.42   1
  -6   6   1 28765.2 1811.52   1
   6   6   2 98864.1 4552.49   2
  -6   6   2 92713.3 3647.36   1
   6   6   3 13368.7 1551.35   2
  -6   6   3 19478.4 1542.99   1
   6   6   4 73597.6 3745.94   2
  -6   6   4 75203.1 3291.48   1
   6   6   5 13366.5 1557.55   2
  -6   6   5 13470.7 1376.97   1
   6   6   6 38713.3 2814.31   2
  -6  -7  -5 48676.7 3147.21   3
  -6  -7  -4 4758.30 936.628   3
  -6  -7  -3 67922.5 3274.43   3
  -6   7  -2 9214.90 1141.81   1
   6   7  -1 76449.3 4003.50   2
  -6   7  -1 74221.9 3360.45   1
   6   7   0 11223.1 1114.34   1
  -6   7   0 11224.1 1254.86   1
   6   7   0 7684.56 1148.00   2
   6   7   1 62026.0 2957.71   1
   6   7   1 68660.7 3428.96   2
   6   7   2 7832.33 1241.66   2
  -6   7   2 9553.33 1203.37   1
   6   7   2 11094.6 1286.62   1
   6   7   3 64403.1 3572.70   2
  -6   7   3 64144.9 3241.43   1
   6   7   4 6597.47 1189.50   1
   6   7   4 4598.40 890.161   2
  -6   7   4 6999.24 1085.29   1
   6   7   5 46551.2 3030.58   2
   6   8  -2 3157.00 767.350   2
  -6   8  -1 131393. 4920.17   1
   6   8  -1 122779. 5521.55   2
   6   8   0 3148.73 833.337   2
  -6   8   0 3542.38 789.964   1
   6   8   1 114684. 4468.65   1
   6   8   1 114586. 4926.41   2
  -6   8   1 126340. 4787.46   1
   6   8   2 3130.99 756.690   1
  -6   8   2 4602.18 907.520   1
   6   8   2 4228.93 938.926   2
   6   8   3 95992.6 4426.92   2
   6   8   3 75661.4 3872.91   1
   7   0  -8-375.091 382.490   3
  -7   0  -8 1113.74 583.834   3
  -7   0  -7 28055.3 1944.55   3
   7   0  -7 30268.1 2013.17   3
   7   0  -6 579.609 423.662   3
  -7   0  -6 455.842 428.768   3
   7   0  -5 71043.7 2655.04   3
  -7   0  -5 69850.4 2887.75   3
   7   0  -4 12.9833 204.231   3
  -7   0  -4 278.372 347.407   3
   7   0  -3 153520. 3616.55   1
   7   0  -3 149887. 3837.12   3
   7   0  -2 316.866 171.638   3
   7   0  -2 285.029 177.248   2
  -7   0  -2 497.778 301.031   1
   7   0  -2 528.933 197.146   1
  -7   0  -1 218702. 4925.73   2
   7   0  -1 203827. 4825.83   1
  -7   0  -1 214386. 5413.97   1
  -7   0   0 4023.86 621.573   1
   7   0   0 3103.25 473.073   2
  -7   0   1 199596. 4643.34   3
   7   0   1 197049. 4669.30   2
  -7   0   1 199103. 4776.78   1
   7   0   2 313.397 245.667   2
  -7   0   2 935.187 256.425   1
  -7   0   2 684.693 194.897   3
   7   0   3 138354. 3984.42   2
  -7   0   3 141429. 3381.32   1
  -7   0   4 407.422 178.437   1
   7   0   4 643.850 334.712   2
   7   0   5 73623.5 3117.11   2
  -7   0   5 80986.6 2384.21   1
   7   0   6 10.7254 323.527   2
   7   0   7 28660.6 2130.28   2
   7   0   8 242.799 461.811   2
  -7  -1  -8 18800.3 1674.50   3
  -7   1  -8 20414.9 1766.62   3
  -7  -1  -7 19456.3 1615.26   3
   7  -1  -7 21905.9 1774.18   3
   7   1  -7 20226.1 1515.45   3
  -7   1  -7 19778.6 1664.08   3
   7  -1  -6 31393.5 1920.38   3
   7   1  -6 32928.8 1791.95   3
  -7  -1  -6 30027.5 1885.97   3
  -7   1  -6 31966.4 2020.99   3
   7  -1  -5 22673.4 1494.20   3
   7   1  -5 24372.6 1350.62   3
  -7  -1  -5 23210.1 1556.76   3
  -7   1  -5 23655.2 1673.77   3
   7  -1  -4 43872.8 1988.83   3
  -7  -1  -4 46523.9 2084.06   3
   7   1  -4 47494.5 1741.67   3
   7  -1  -3 28236.2 1158.07   2
   7   1  -3 26949.9 943.340   1
   7  -1  -3 27903.0 1441.79   3
   7   1  -3 28500.7 1120.58   3
  -7  -1  -3 29517.3 1505.84   3
  -7   1  -3 27532.4 1532.14   1
  -7   1  -2 58012.7 2408.07   1
   7   1  -2 54268.5 1487.24   3
   7   1  -2 54046.2 1593.83   1
  -7  -1  -2 58060.4 2032.38   3
   7  -1  -2 53294.6 1939.18   3
   7  -1  -2 54484.5 1489.68   2
  -7   1  -1 34008.3 1619.71   1
  -7   1  -1 34580.5 1174.66   2
   7   1  -1 32837.4 1262.93   1
   7  -1  -1 36039.0 1138.29   2
  -7  -1  -1 30735.9 1520.09   1
  -7   1   0 59178.2 1802.24   2
   7   1   0 60217.2 2043.65   1
   7  -1   0 62010.4 1587.58   2
  -7   1   0 62672.2 2132.30   1
  -7  -1   0 62107.9 2133.94   1
  -7  -1   1 37525.1 1604.41   1
  -7   1   1 34764.0 1372.05   1
   7  -1   1 36370.1 1256.28   2
  -7  -1   1 35447.3 1005.38   3
   7  -1   2 62914.3 2033.54   2
  -7  -1   2 59244.6 1910.11   1
   7   1   2 60810.0 2368.81   2
  -7   1   2 58678.8 1875.87   1
  -7  -1   2 56831.4 1589.05   3
   7  -1   3 34548.0 1641.23   2
   7   1   3 37126.6 1817.79   2
  -7  -1   3 33700.6 1412.51   1
  -7  -1   3 34566.9 1359.20   3
  -7   1   3 35264.6 1376.69   1
   7  -1   4 55092.5 2337.27   2
   7   1   4 51557.2 2395.13   2
  -7  -1   4 52874.9 1681.86   1
  -7   1   4 51853.0 1843.95   1
   7   1   5 27696.1 1863.53   2
  -7  -1   5 34253.5 1256.17   1
  -7   1   5 33174.4 1497.36   1
   7  -1   5 29201.7 1812.30   2
   7   1   6 37007.2 2331.89   2
   7  -1   6 33835.1 2158.84   2
   7   1   7 24475.3 2022.19   2
   7  -1   7 24936.0 1926.04   2
   7  -1   8 23206.5 2049.97   2
   7   1   8 22035.4 2068.75   2
   7  -2  -8 49791.2 3069.18   3
  -7   2  -8 54376.4 3061.43   3
  -7   2  -7 18751.6 1693.84   3
  -7  -2  -7 15304.1 1475.79   3
   7  -2  -7 15571.7 1563.09   3
   7  -2  -6 111291. 4236.95   3
   7   2  -6 120601. 3673.79   3
  -7  -2  -6 103210. 3977.71   3
  -7   2  -6 124664. 4603.25   3
   7  -2  -5 37880.7 2098.13   3
   7   2  -5 39255.2 1634.82   3
  -7  -2  -5 35421.9 2009.94   3
  -7   2  -5 35960.5 2183.67   3
   7  -2  -4 212311. 5824.75   3
   7   2  -4 220213. 4880.02   3
  -7  -2  -4 199914. 5649.75   3
  -7   2  -4 218038. 5692.86   1
  -7   2  -3 69753.7 2805.68   1
   7  -2  -3 62638.7 1969.96   2
   7   2  -3 65429.7 1471.47   1
   7  -2  -3 69277.0 2623.84   3
  -7  -2  -3 68803.3 2547.68   3
   7   2  -3 68633.6 1770.88   3
   7  -2  -2 342699. 7132.15   3
  -7   2  -2 368725. 7410.18   1
   7   2  -2 336930. 6213.52   1
  -7  -2  -2 361395. 6918.55   3
   7   2  -1 84110.7 2386.41   1
  -7   2  -1 81459.3 2083.46   2
  -7   2  -1 89170.9 2885.31   1
  -7  -2  -1 88178.6 2331.75   3
  -7   2   0 401230. 7585.05   2
   7   2   0 417215. 9709.93   2
  -7  -2   0 410691. 7655.84   3
   7  -2   0 390205. 7544.19   2
   7   2   1 89226.4 3016.54   2
  -7   2   1 81972.2 2510.94   1
   7  -2   1 87369.4 2221.59   2
   7   2   2 378723. 9102.02   2
  -7   2   2 367426. 7969.90   1
   7  -2   2 387459. 8067.40   2
   7   2   3 76101.4 2948.08   2
   7  -2   3 70261.7 2453.09   2
   7   2   4 225246. 6261.84   2
  -7   2   4 213850. 5324.05   1
  -7   2   4 230714. 5050.18   2
   7  -2   4 217235. 5833.88   2
   7   2   5 38116.8 2281.43   2
  -7   2   5 41923.2 1742.10   2
  -7   2   5 44297.3 1854.32   1
   7  -2   5 39992.0 2120.03   2
   7   2   6 119262. 4629.44   2
  -7   2   6 125118. 3765.31   1
  -7   2   6 120679. 3713.37   2
   7  -2   6 113036. 4277.36   2
   7   2   7 17390.8 1782.72   2
  -7   2   7 19931.2 1357.08   1
   7  -2   7 17393.4 1667.37   2
   7   2   8 50869.9 3197.67   2
   7  -3  -7 565.404 462.554   3
  -7  -3  -7 696.829 516.929   3
  -7   3  -7 133.446 515.897   3
  -7  -3  -6 36074.4 2255.44   3
   7  -3  -6 37274.7 2405.92   3
  -7   3  -6 38692.8 2524.69   3
   7  -3  -5 602.156 379.210   3
   7   3  -5 1121.09 298.484   3
  -7  -3  -5 1794.16 512.542   3
   7  -3  -4 48195.2 2443.00   3
   7   3  -4 53737.6 1637.67   3
  -7  -3  -4 51961.0 2501.35   3
  -7   3  -4 51117.3 2376.77   1
   7  -3  -3 1247.04 422.954   3
   7  -3  -3 997.668 211.016   2
   7   3  -3 1514.76 171.049   3
  -7  -3  -3 1191.68 353.600   3
  -7   3  -3 1780.45 501.975   1
   7   3  -2 53332.6 1729.28   1
  -7  -3  -2 56080.0 2042.92   3
  -7   3  -1 2736.83 473.094   1
  -7   3  -1 3105.38 317.091   2
  -7  -3  -1 3087.88 365.570   3
   7   3  -1 2885.24 377.724   1
  -7   3   0 59724.4 1364.22   2
  -7  -3   0 64493.4 1648.48   3
   7   3   0 61470.1 2952.40   2
  -7   3   0 66852.0 2260.80   1
  -7   3   1 2430.33 422.626   1
   7   3   1 2818.18 574.742   2
   7   3   1 2879.66 332.412   3
  -7   3   2 59908.7 2195.77   1
   7  -3   2 57764.7 2083.37   2
   7  -3   3 1317.00 353.982   2
   7   3   3 2294.96 684.656   2
  -7   3   3 1861.36 406.245   1
  -7   3   3 1418.33 195.883   2
   7   3   4 51932.4 2683.62   2
  -7   3   4 52886.8 2145.26   1
  -7   3   4 55323.7 1700.94   2
   7  -3   4 53821.8 2491.20   2
   7   3   5 1597.32 663.363   2
  -7   3   5 2007.95 378.947   2
   7  -3   5 908.688 439.831   2
  -7   3   5 1851.15 468.554   1
   7   3   6 46420.3 2783.33   2
   7  -3   6 45930.3 2626.49   2
  -7   3   6 45837.0 2178.30   1
   7  -3   7 1405.50 671.307   2
  -7   3   7 1764.72 505.883   1
   7   3   7 1496.40 666.295   2
  -7   4  -7 17760.8 1907.68   3
   7  -4  -7 16651.6 1856.70   3
  -7  -4  -7 18428.4 1793.27   3
   7  -4  -6 14426.1 1533.69   3
  -7  -4  -6 13422.7 1509.46   3
  -7   4  -6 12324.4 1452.65   3
   7  -4  -5 30033.2 2121.92   3
  -7  -4  -5 30703.6 2125.60   3
  -7   4  -4 26294.2 1884.20   1
   7  -4  -4 24340.4 1789.79   3
  -7  -4  -4 24727.0 1698.24   3
  -7   4  -3 51736.2 2465.08   1
  -7  -4  -3 54350.7 2360.59   3
   7  -4  -3 50599.0 2550.83   3
  -7   4  -2 36245.9 1947.73   1
   7   4  -2 39216.9 1459.01   1
  -7  -4  -2 42029.0 1829.41   3
  -7   4  -1 73919.9 2042.47   2
  -7  -4  -1 75907.8 2406.98   3
  -7   4   0 45442.2 1223.06   2
   7   4   0 48865.5 2710.11   2
   7   4   0 47447.7 1383.51   3
   7   4   1 72339.7 3094.70   2
  -7   4   1 70401.1 2573.93   1
   7   4   2 37127.7 2538.59   2
  -7   4   2 39149.4 1877.79   1
   7   4   3 52269.1 2909.90   2
  -7   4   3 49067.7 2124.13   1
  -7   4   3 44043.1 1199.78   2
   7   4   4 25273.6 1953.91   2
  -7   4   4 25252.1 1547.61   1
   7   4   5 28615.5 2152.89   2
  -7   4   5 31884.9 1812.45   1
   7   4   6 13255.9 1579.31   2
  -7   4   6 14082.4 1282.56   1
   7   4   7 16554.3 1845.24   2
  -7   4   7 17724.8 1467.11   1
  -7   5  -7 31367.3 2591.12   3
   7  -5  -6 1226.46 561.154   3
  -7  -5  -6 457.714 424.038   3
   7  -5  -5 43391.8 2729.54   3
  -7  -5  -5 42205.8 2620.43   3
   7  -5  -4 714.903 513.665   3
  -7  -5  -4 971.993 449.608   3
  -7   5  -4 1150.27 529.001   1
  -7   5  -3 58614.9 2983.54   1
  -7  -5  -3 55052.4 2554.72   3
  -7   5  -2 1706.68 474.872   1
  -7  -5  -2 1778.17 480.943   3
   7   5  -2 2303.17 346.703   1
  -7   5  -1 61715.7 2623.19   1
  -7  -5  -1 63999.9 2356.00   3
   7   5   0 1546.90 611.224   2
  -7   5   0 1677.00 470.995   1
  -7   5   0 1691.40 333.187   2
  -7   5   1 60345.7 2543.73   1
   7   5   1 60773.4 2880.99   2
  -7   5   2 1706.90 460.210   1
   7   5   2 368.893 556.273   2
   7   5   3 52777.8 3150.85   2
  -7   5   3 67109.7 2764.85   1
   7   5   4 557.232 591.168   2
  -7   5   4 1648.73 470.872   1
   7   5   5 52344.5 3131.06   2
  -7   5   5 55544.7 2680.18   1
   7   5   6 1143.83 724.842   2
  -7   5   6 1411.35 567.047   1
   7   5   7 32422.7 2662.15   2
  -7   5   7 33604.0 2225.06   1
  -7  -6  -6 4091.63 1023.75   3
  -7  -6  -5 69820.8 3628.11   3
  -7  -6  -4 6048.14 1018.63   3
  -7   6  -3 107740. 4501.21   1
  -7  -6  -3 116981. 4226.09   3
  -7   6  -2 9126.06 1063.91   1
  -7  -6  -2 8816.52 947.673   3
   7   6  -1 181181. 4700.07   1
   7   6  -1 185994. 6455.78   2
   7   6   0 7476.58 840.525   1
  -7   6   0 10008.9 1050.35   1
   7   6   0 9302.65 1252.49   2
   7   6   1 149111. 5296.23   2
  -7   6   1 182363. 5333.65   1
   7   6   2 7892.74 1214.63   2
  -7   6   2 9401.65 1092.78   1
   7   6   3 102953. 4671.72   2
  -7   6   3 101760. 3965.01   1
  -7   6   4 6062.06 965.946   1
   7   6   4 5462.81 1003.23   2
   7   6   5 69423.5 3834.60   2
  -7   6   5 87039.7 3694.51   1
   7   6   6 4222.95 1105.53   2
  -7  -7  -5 8564.35 1343.47   3
  -7  -7  -4 9173.34 1274.46   3
  -7   7  -2 14699.6 1449.23   1
  -7   7  -1 12505.2 1321.00   1
   7   7  -1 10530.1 1440.55   2
   7   7   0 16879.5 1318.79   1
   7   7   0 13219.0 1423.34   2
  -7   7   0 12898.9 1336.29   1
  -7   7   1 9162.42 1148.41   1
   7   7   1 11605.3 1319.53   2
   7   7   1 10676.6 1214.73   1
   7   7   2 13279.4 1447.21   1
   7   7   2 11882.9 1586.17   2
  -7   7   2 13521.6 1401.76   1
   7   7   3 13104.8 1533.88   1
   7   7   3 9660.95 1434.24   2
  -7   7   3 11262.0 1297.80   1
   7   7   4 8300.27 1311.41   2
   7   7   4 10943.0 1482.53   1
  -7   7   4 12444.3 1439.12   1
   7   7   5 8123.09 1283.15   2
   7   8  -2 43968.1 3154.67   2
  -7   8  -1 830.252 557.875   1
   7   8  -1 599.871 495.145   2
   7   8   0 40635.2 2640.94   2
  -7   8   0 46329.7 2788.07   1
  -7   8   1 328.708 401.387   1
   7   8   1 1310.40 583.941   2
   7   8   1 127.072 356.631   1
   7   8   2 33476.3 2412.51   1
   7   8   2 38033.3 2813.54   2
  -7   8   2 34786.3 2413.96   1
   7   8   3 840.607 604.032   1
   7   8   3 2216.07 869.939   2
   8   0  -8 28773.4 2064.88   3
  -8   0  -8 33264.6 2275.86   3
   8   0  -7 221.720 355.740   3
  -8   0  -7 872.739 468.756   3
   8   0  -6 67421.7 2796.69   3
  -8   0  -6 66051.8 2986.00   3
   8   0  -5 639.276 354.637   3
  -8   0  -5 914.966 425.342   3
   8   0  -4 116644. 3461.75   3
  -8   0  -4 125645. 4031.56   3
   8   0  -3 1059.60 242.686   3
   8   0  -2 182831. 4117.71   2
  -8   0  -2 174949. 4721.32   1
  -8   0  -1 547.917 250.320   2
  -8   0  -1 230.381 284.658   1
  -8   0   0 176757. 4451.60   1
   8   0   0 167937. 3958.58   2
  -8   0   1 231.189 204.503   1
   8   0   1 446.568 275.462   2
  -8   0   2 168548. 4072.86   1
  -8   0   2 169336. 3999.43   3
   8   0   3 589.322 319.949   2
  -8   0   3 485.303 218.091   1
   8   0   4 136588. 4282.65   2
  -8   0   4 132317. 3411.88   1
   8   0   5 583.320 378.795   2
  -8   0   5 221.080 210.751   1
   8   0   6 77708.4 3459.33   2
   8   0   7 381.463 536.347   2
   8   0   8 38484.2 2709.32   2
   8  -1  -8 21117.0 1887.08   3
  -8  -1  -8 22417.9 1863.83   3
  -8   1  -8 24689.5 1988.11   3
   8  -1  -7 7293.78 1074.57   3
   8   1  -7 6271.08 862.794   3
  -8  -1  -7 6445.97 990.119   3
  -8   1  -7 6586.04 1063.98   3
  -8   1  -6 23896.3 1775.63   3
   8  -1  -6 21313.6 1589.50   3
   8   1  -6 23210.5 1454.02   3
  -8  -1  -6 20929.9 1576.48   3
   8   1  -5 7239.49 726.030   3
   8  -1  -5 5861.69 775.635   3
  -8  -1  -5 6292.94 850.746   3
  -8   1  -5 7257.41 951.423   3
   8   1  -4 20382.8 1070.18   3
   8  -1  -4 18733.9 1266.19   3
  -8  -1  -4 19310.3 1323.58   3
   8  -1  -3 4246.93 451.616   2
   8   1  -3 4894.10 394.774   1
   8  -1  -3 4972.71 624.198   3
   8   1  -3 5199.10 458.342   3
  -8  -1  -3 5074.45 644.349   3
  -8   1  -3 5872.41 730.610   1
  -8   1  -2 15462.1 1288.43   1
   8  -1  -2 15023.7 967.978   3
   8   1  -2 15274.4 810.464   1
  -8  -1  -2 15729.8 1005.67   3
   8  -1  -2 14556.6 673.104   2
  -8   1  -1 3401.55 566.733   1
  -8   1  -1 2339.12 306.969   2
   8   1  -1 2825.98 359.461   1
  -8  -1  -1 2925.36 531.701   1
   8  -1  -1 2718.12 300.480   2
   8  -1   0 11688.3 599.937   2
  -8   1   0 12014.6 920.977   1
  -8   1   0 10859.1 649.872   2
  -8  -1   0 12108.2 917.539   1
   8   1   0 10857.9 932.211   2
  -8  -1   1 3637.00 542.595   1
   8  -1   1 4379.56 423.330   2
  -8   1   1 4625.49 507.143   1
   8   1   1 3839.43 542.483   2
  -8  -1   1 3471.93 303.074   3
   8  -1   2 22216.4 1159.59   2
  -8  -1   2 21084.3 1093.92   1
   8   1   2 21708.7 1388.49   2
  -8  -1   2 20832.6 832.513   3
  -8   1   2 25362.7 1160.07   1
   8  -1   3 8110.13 780.935   2
  -8  -1   3 7924.55 613.581   3
   8   1   3 7384.79 836.318   2
  -8  -1   3 7375.57 622.829   1
  -8   1   3 7063.93 615.829   1
   8  -1   4 25728.9 1582.28   2
   8   1   4 27070.0 1752.57   2
  -8  -1   4 27940.7 1270.56   1
  -8   1   4 27638.9 1291.20   1
   8  -1   5 10270.2 1091.18   2
   8   1   5 10646.0 1178.66   2
  -8  -1   5 10834.5 711.775   1
  -8   1   5 10186.1 803.744   1
   8   1   6 27688.3 2050.08   2
  -8   1   6 33684.2 1602.79   1
   8  -1   6 29192.6 2018.78   2
   8   1   7 9995.54 1333.06   2
   8  -1   7 7811.15 1127.44   2
   8  -1   8 28065.0 2283.10   2
   8   1   8 30434.4 2446.95   2
   8  -2  -8 446.365 564.530   3
   8  -2  -7 6392.80 1015.44   3
  -8  -2  -7 6709.73 976.852   3
  -8   2  -7 7808.40 1148.78   3
   8  -2  -6 890.901 413.934   3
   8   2  -6 1433.52 401.382   3
  -8  -2  -6 1122.35 450.458   3
  -8   2  -6 1418.17 613.910   3
   8   2  -5 8799.91 746.012   3
  -8  -2  -5 9031.02 986.951   3
   8  -2  -5 8298.89 986.825   3
  -8   2  -4 2078.51 570.100   1
   8  -2  -4 1254.49 394.473   3
   8   2  -4 1914.68 312.104   3
  -8  -2  -4 1480.40 415.194   3
   8   2  -3 10095.6 478.621   1
  -8   2  -3 11157.3 1127.14   1
   8  -2  -3 9852.52 631.483   2
   8  -2  -3 11279.1 995.836   3
   8   2  -3 10996.4 553.805   3
  -8  -2  -3 10255.1 925.165   3
  -8   2  -2 2314.27 524.960   1
   8   2  -2 1752.67 271.628   1
  -8  -2  -2 1534.94 364.181   3
   8   2  -1 14065.9 885.162   1
  -8   2  -1 13337.3 659.594   2
  -8  -2  -1 14033.5 795.424   3
   8  -2   0 459.408 88.6337   2
  -8   2   0 727.482 306.214   1
  -8   2   0 478.334 121.040   2
  -8  -2   0 332.042 96.6785   3
   8   2   1 15766.6 1145.21   2
  -8   2   1 16622.3 1033.14   1
  -8   2   2 1835.53 351.400   1
   8  -2   2 1630.78 329.368   2
   8   2   2 1352.58 467.004   2
   8   2   3 14598.2 1254.80   2
   8  -2   3 14738.7 1061.60   2
   8   2   4 1586.07 538.082   2
   8  -2   4 2700.04 564.441   2
  -8   2   4 2234.95 432.235   1
   8   2   5 12981.4 1371.30   2
  -8   2   5 13869.5 1025.57   1
   8  -2   5 11737.4 1170.41   2
  -8   2   6 2266.69 492.565   1
   8  -2   6 1835.93 600.893   2
   8   2   6 969.156 432.887   2
   8   2   7 9304.52 1350.61   2
   8  -2   7 9492.09 1257.98   2
   8  -3  -7 22574.1 1988.83   3
  -8  -3  -7 21714.4 1816.30   3
  -8   3  -7 24777.0 2165.48   3
  -8   3  -6 8173.87 1148.08   3
   8  -3  -6 8179.29 1135.06   3
  -8  -3  -6 6162.42 943.758   3
   8  -3  -5 21771.5 1691.70   3
  -8  -3  -5 20677.9 1608.26   3
  -8   3  -5 23826.5 1609.98   1
  -8  -3  -4 14352.7 1286.36   3
   8   3  -4 14525.9 699.332   3
   8  -3  -4 14181.6 1262.22   3
  -8   3  -4 14056.3 1292.11   1
  -8   3  -3 13731.4 1177.91   1
   8  -3  -3 11874.2 565.708   2
   8  -3  -3 12890.4 1133.87   3
  -8  -3  -3 11316.9 995.189   3
   8   3  -3 10751.2 384.901   3
   8   3  -2 16373.1 945.128   1
  -8   3  -2 19180.9 1462.32   1
  -8  -3  -2 18103.4 1081.61   3
  -8   3  -1 1985.88 252.350   2
  -8   3  -1 1694.21 414.748   1
  -8  -3  -1 2059.86 317.935   3
  -8   3   0 12906.2 438.953   2
  -8   3   0 13841.7 994.036   1
   8   3   0 14031.2 1359.71   2
  -8  -3   0 14468.9 596.387   3
  -8   3   1 4641.01 607.610   1
   8   3   1 4069.27 670.523   2
   8   3   2 19039.3 1636.43   2
  -8   3   2 15594.5 1066.14   1
   8  -3   2 18471.0 1040.65   2
   8   3   3 21712.9 1749.38   2
  -8   3   3 18855.9 1198.59   1
   8  -3   3 21046.6 1316.56   2
   8   3   4 14808.4 1444.28   2
  -8   3   4 14647.2 1102.94   1
   8  -3   4 15554.8 1239.94   2
   8   3   5 30859.9 2207.53   2
  -8   3   5 31218.4 1733.16   1
   8  -3   5 35584.0 2081.72   2
   8   3   6 7481.74 1189.18   2
  -8   3   6 10097.2 1051.75   1
   8  -3   6 9626.77 1215.30   2
   8   3   7 33456.8 2564.66   2
  -8   3   7 30871.2 1857.32   1
   8  -3   7 33847.9 2439.78   2
  -8  -4  -7 25204.9 2094.38   3
   8  -4  -7 25516.0 2231.85   3
  -8   4  -7 26568.4 2372.45   3
   8  -4  -6 16131.1 1643.51   3
  -8  -4  -6 13032.9 1446.19   3
   8  -4  -5 41598.7 2540.10   3
  -8  -4  -5 41558.5 2512.77   3
  -8   4  -4 22305.0 1818.24   1
  -8  -4  -4 19807.7 1529.60   3
   8  -4  -4 21045.6 1674.18   3
  -8   4  -3 55207.6 2611.71   1
  -8  -4  -3 59828.5 2482.21   3
  -8   4  -2 28485.6 1759.49   1
  -8  -4  -2 31954.8 1561.73   3
  -8   4  -1 78288.0 2095.49   2
  -8   4  -1 74643.2 2845.94   1
  -8  -4  -1 82872.6 2452.93   3
   8   4   0 40976.5 2480.13   2
  -8   4   0 39861.6 1850.30   1
   8   4   1 72231.6 3089.75   2
  -8   4   1 72503.4 2680.48   1
   8   4   2 28108.5 2010.81   2
  -8   4   2 28844.3 1592.61   1
   8   4   3 66700.9 3532.05   2
  -8   4   3 59562.6 2514.45   1
   8   4   4 22900.2 1932.01   2
  -8   4   4 25030.8 1574.01   1
   8   4   5 40160.3 2639.64   2
  -8   4   5 40923.7 2144.96   1
   8   4   6 19157.8 1936.03   2
  -8   4   6 19877.6 1537.33   1
   8   4   7 26300.9 2347.21   2
  -8   4   7 25164.0 1816.23   1
  -8  -5  -6 12441.1 1572.18   3
   8  -5  -6 15311.9 1701.95   3
   8  -5  -5 2830.30 757.158   3
  -8  -5  -5 3228.57 757.744   3
  -8   5  -4 11632.1 1329.25   1
  -8  -5  -4 9535.10 1125.30   3
  -8   5  -3 1675.85 526.011   1
  -8  -5  -3 1860.13 514.078   3
  -8   5  -2 2261.69 537.285   1
   8   5  -2 3265.16 434.712   1
  -8  -5  -2 1965.97 447.082   3
  -8   5  -1 659.663 433.810   1
  -8  -5  -1 488.522 286.068   3
   8   5   0 501.844 433.922   2
  -8   5   0 243.229 292.633   1
  -8   5   1 1631.38 505.360   1
   8   5   1 808.158 478.428   2
  -8   5   2 3974.08 679.396   1
   8   5   2 4979.60 877.075   2
   8   5   3 2447.35 777.915   2
  -8   5   3 2057.67 572.774   1
   8   5   4 14369.7 1628.10   2
  -8   5   4 14019.7 1304.41   1
  -8   5   5 5318.89 890.062   1
   8   5   5 2939.57 821.537   2
   8   5   6 21333.0 2130.81   2
  -8   5   6 21581.0 1770.72   1
  -8  -6  -6 5087.80 1034.33   3
  -8  -6  -5 4769.94 1016.74   3
  -8  -6  -4 6631.99 1024.76   3
  -8   6  -3 3238.37 740.697   1
  -8  -6  -3 4601.29 780.038   3
  -8  -6  -2 10899.4 1072.95   3
  -8   6  -2 9701.17 1129.45   1
   8   6  -1 5131.38 699.476   1
   8   6  -1 3842.43 907.143   2
   8   6   0 13819.1 1520.95   2
  -8   6   0 15738.4 1400.94   1
  -8   6   1 5261.10 815.744   1
   8   6   1 4949.65 860.658   2
   8   6   2 12706.9 1446.85   2
  -8   6   2 12375.8 1237.97   1
  -8   6   3 5130.11 834.106   1
   8   6   3 3995.05 943.007   2
  -8   6   4 9257.39 1166.16   1
   8   6   4 5631.47 1038.98   2
   8   6   5 4620.43 980.358   2
  -8   6   5 5069.78 929.692   1
   8   6   6 4078.27 1051.51   2
  -8   7  -2 1512.30 579.799   1
  -8   7  -1 12500.5 1371.22   1
   8   7  -1 12876.6 1567.73   2
   8   7   0 2276.06 578.969   1
   8   7   0 1733.82 576.110   2
  -8   7   0 3425.41 851.964   1
   8   7   1 13994.7 1453.66   2
  -8   7   1 14529.7 1469.53   1
   8   7   1 15295.0 1444.91   1
  -8   7   2 2117.48 652.822   1
   8   7   2 1981.20 622.991   1
   8   7   2 2604.60 718.457   2
   8   7   3 12627.9 1698.56   2
   8   7   3 17004.4 1740.05   1
  -8   7   3 16367.4 1579.47   1
  -8   7   4 4137.34 805.951   1
   8   7   4 5057.15 985.807   1
   8   7   5 12667.0 1610.37   2
   8   8  -2 2528.67 760.025   2
   8   8  -1 33094.2 2617.33   2
  -8   8  -1 37639.1 2522.97   1
   8   8   0 6280.67 1079.74   2
  -8   8   0 4348.17 931.878   1
   8   8   1 42197.8 2466.77   1
  -8   8   1 37896.6 2554.66   1
  -8   8   2 3841.43 855.164   1
   8   8   2 3167.86 808.547   1
   8   8   2 3108.94 874.666   2
   8   8   3 30504.7 2572.17   2
   9   0  -8 505.635 440.793   3
   9   0  -7 8239.17 1051.60   3
  -9   0  -7 7742.71 1121.02   3
   9   0  -6 482.172 384.651   3
  -9   0  -6 603.331 474.028   3
   9   0  -5 4033.69 571.845   3
  -9   0  -5 4460.14 765.113   3
   9   0  -4 590.813 249.252   3
  -9   0  -4 125.306 334.541   3
   9   0  -3 5187.59 543.886   3
  -9   0  -3 5267.72 759.802   1
  -9   0  -2 396.749 356.220   1
  -9   0  -1 4445.10 716.717   1
  -9   0   0 906.955 317.887   1
   9   0   0 814.946 255.483   2
  -9   0   1 8057.20 795.119   1
   9   0   1 6260.64 685.874   2
  -9   0   1 8720.28 783.523   3
  -9   0   2 334.615 196.206   1
   9   0   2 186.421 214.733   2
  -9   0   2 594.631 247.291   3
   9   0   3 11962.9 1021.69   2
  -9   0   3 12422.9 839.802   1
   9   0   4 147.837 366.027   2
  -9   0   4 363.866 272.290   1
   9   0   5 10776.2 1153.77   2
  -9   0   5 12305.6 861.059   1
   9   0   6-2.78417 417.073   2
   9   0   7 13205.9 1540.23   2
   9  -1  -8 9919.37 1311.37   3
  -9  -1  -7 19540.7 1644.34   3
   9  -1  -7 20982.3 1745.98   3
  -9   1  -7 20937.3 1807.07   3
   9  -1  -6 13223.0 1256.61   3
  -9  -1  -6 14482.2 1332.06   3
  -9   1  -6 15314.6 1479.99   3
   9   1  -6 14569.1 1149.10   3
   9  -1  -5 20884.8 1479.12   3
   9   1  -5 22352.6 1282.81   3
  -9  -1  -5 20804.8 1496.51   3
  -9   1  -5 24175.8 1760.09   3
   9  -1  -4 14173.2 1084.14   3
   9   1  -4 14385.5 904.221   3
  -9  -1  -4 14807.8 1174.79   3
  -9   1  -4 14696.6 1230.05   1
   9   1  -3 8585.43 583.331   1
   9  -1  -3 8787.96 802.469   3
   9   1  -3 8853.60 602.522   3
  -9  -1  -3 9058.90 888.071   3
  -9   1  -3 8894.01 1013.99   1
  -9   1  -2 13035.7 1130.70   1
   9   1  -2 12799.4 813.740   1
  -9  -1  -2 11786.2 880.943   3
   9  -1  -2 12397.9 617.544   2
  -9   1  -1 11150.0 942.666   1
  -9   1  -1 10874.9 720.201   2
   9  -1  -1 10706.5 608.023   2
  -9  -1  -1 11466.9 970.769   1
   9  -1   0 10925.7 627.600   2
  -9   1   0 10097.0 868.170   1
   9   1   0 11051.0 899.881   2
  -9  -1   0 11618.3 951.624   1
  -9  -1   1 15181.2 1101.11   1
   9  -1   1 14876.3 841.921   2
   9   1   1 14071.7 979.877   2
  -9   1   1 15734.5 989.777   1
  -9  -1   1 13434.4 712.452   3
   9  -1   2 15015.6 988.106   2
  -9  -1   2 14938.7 930.666   1
  -9  -1   2 13428.0 657.464   3
   9   1   2 14593.6 1151.25   2
  -9   1   2 14408.4 924.289   1
   9  -1   3 15892.8 1126.81   2
  -9  -1   3 15892.8 944.600   1
   9   1   3 14705.2 1200.80   2
  -9   1   3 14507.9 949.901   1
  -9  -1   3 14962.3 845.869   3
   9  -1   4 18872.0 1377.46   2
   9   1   4 17200.1 1431.83   2
  -9  -1   4 18210.4 1106.27   1
  -9   1   4 17276.8 1057.76   1
   9  -1   5 30642.9 1930.36   2
   9   1   5 30994.9 2079.69   2
  -9   1   5 34858.5 1614.52   1
   9   1   6 19300.7 1757.91   2
  -9   1   6 20986.8 1291.47   1
   9  -1   6 19886.7 1688.14   2
   9   1   7 30307.9 2352.85   2
   9  -1   7 29517.3 2245.31   2
   9  -2  -8 20208.2 1946.79   3
   9  -2  -7 8436.49 1151.42   3
  -9  -2  -7 6877.53 986.777   3
  -9   2  -7 7856.06 1179.94   3
   9  -2  -6 30532.1 2065.85   3
  -9  -2  -6 31052.1 1996.87   3
  -9   2  -6 32738.4 2303.31   3
   9  -2  -5 8815.30 1016.79   3
   9   2  -5 8960.16 724.748   3
  -9  -2  -5 8815.54 1007.76   3
   9  -2  -4 44715.1 2217.99   3
   9   2  -4 47686.2 1579.13   3
  -9  -2  -4 44689.0 2144.34   3
  -9   2  -4 49224.8 2377.59   1
  -9   2  -3 15391.9 1365.36   1
   9  -2  -3 13836.9 1097.61   3
   9  -2  -3 13381.9 747.336   2
   9   2  -3 13258.2 610.855   3
  -9  -2  -3 14363.0 1067.46   3
   9   2  -3 14155.7 673.450   1
  -9   2  -2 58272.1 2400.90   1
   9   2  -2 52198.2 1730.98   1
  -9  -2  -2 58484.8 2144.83   3
  -9   2  -1 30287.3 1710.91   1
  -9   2  -1 27651.4 1045.58   2
  -9  -2  -1 30750.0 1278.48   3
  -9   2   0 65200.4 2368.36   1
   9   2   0 66361.7 2938.64   2
  -9   2   0 60105.0 1672.98   2
  -9  -2   0 64325.4 1637.10   3
   9  -2   0 65008.1 1530.97   2
   9  -2   1 31798.0 1228.79   2
   9   2   1 31836.9 1645.79   2
  -9   2   1 30809.5 1477.40   1
   9  -2   2 62648.3 2164.67   2
  -9   2   2 62829.1 2246.62   1
   9   2   2 65798.8 2989.94   2
  -9  -2   2 66519.5 2143.13   1
   9   2   3 16821.2 1447.58   2
  -9   2   3 16077.9 1046.90   1
  -9  -2   3 16914.4 825.858   1
   9  -2   3 15049.1 1077.22   2
   9   2   4 51545.2 2667.90   2
  -9   2   4 52327.1 2083.91   1
   9  -2   4 54847.1 2387.23   2
   9   2   5 10117.8 1226.06   2
  -9   2   5 8991.69 851.253   1
   9  -2   5 9364.24 1069.92   2
   9   2   6 39760.6 2625.28   2
  -9   2   6 42330.7 2019.38   1
   9  -2   6 38267.0 2355.96   2
   9  -2   7 7800.96 1167.23   2
   9   2   7 7130.18 1241.77   2
   9  -3  -7 159.486 441.461   3
  -9  -3  -7 789.469 522.880   3
  -9   3  -7 1665.12 799.763   3
   9  -3  -6 21991.4 1846.52   3
  -9  -3  -6 21808.5 1734.49   3
  -9   3  -6 23027.4 1989.23   3
  -9   3  -5 3147.00 656.700   1
   9  -3  -5 2753.23 637.447   3
  -9  -3  -5 3219.28 677.076   3
  -9  -3  -4 18652.5 1455.75   3
   9  -3  -4 15797.1 1373.09   3
  -9   3  -4 19815.8 1591.67   1
  -9  -3  -3 4902.85 655.332   3
  -9   3  -3 4583.32 719.476   1
  -9   3  -2 7433.05 924.979   1
   9   3  -2 7082.83 599.225   1
  -9  -3  -2 6311.16 660.188   3
  -9   3  -1 2646.52 520.973   1
  -9   3  -1 1886.58 242.198   2
  -9  -3  -1 2425.53 329.360   3
  -9   3   0 1477.24 432.766   1
  -9  -3   0 1160.39 156.751   3
   9   3   0 1078.84 378.598   2
   9  -3   1 1782.52 300.052   2
   9   3   1 2343.58 531.812   2
  -9   3   1 2185.61 466.097   1
  -9   3   2 13403.0 1014.00   1
   9   3   2 13818.7 1262.21   2
   9  -3   2 12072.7 884.475   2
  -9   3   3 4482.45 609.690   1
   9   3   3 5856.97 1012.97   2
   9  -3   3 5530.45 714.601   2
   9   3   4 27123.4 2048.06   2
  -9   3   4 26391.9 1509.90   1
   9  -3   4 27268.6 1707.92   2
  -9   3   5 3338.54 610.383   1
   9  -3   5 3714.90 728.340   2
   9   3   5 4464.58 964.330   2
   9   3   6 33804.0 2519.72   2
  -9   3   6 33734.3 1907.46   1
   9  -3   6 32937.0 2190.59   2
  -9   3   7 1265.27 446.029   1
   9  -3   7 1717.51 712.893   2
   9   3   7 1469.38 743.892   2
   9  -4  -7 4852.42 1040.48   3
  -9  -4  -7 5161.80 1007.12   3
  -9   4  -7 5732.21 1150.02   3
   9  -4  -6 2138.52 724.029   3
  -9  -4  -6 570.880 430.289   3
   9  -4  -5 6303.61 989.341   3
  -9  -4  -5 5514.49 945.489   3
  -9   4  -5 7164.04 1035.46   1
   9  -4  -4 2010.13 611.042   3
  -9  -4  -4 2047.44 568.733   3
  -9   4  -4 2567.84 666.077   1
  -9   4  -3 4354.42 735.800   1
  -9  -4  -3 3367.67 574.203   3
  -9   4  -2 248.327 412.271   1
  -9  -4  -2 1324.52 315.459   3
  -9   4  -1 1772.15 439.970   1
  -9  -4  -1 2132.09 359.353   3
   9   4   0 822.802 385.033   2
  -9   4   0 1818.34 514.728   1
  -9   4   1 2176.98 443.566   1
   9   4   1 2479.08 628.316   2
  -9   4   2 3073.36 573.729   1
   9   4   2 1991.13 588.822   2
  -9   4   3 5166.55 723.827   1
   9   4   3 5397.04 1048.76   2
  -9   4   4 2696.24 559.748   1
   9   4   4 2894.85 724.687   2
   9   4   5 8232.02 1248.18   2
  -9   4   5 9984.46 1048.56   1
   9  -4   5 8793.43 1210.00   2
  -9   4   6 3531.41 734.230   1
   9   4   6 4711.41 1123.20   2
  -9   4   7 7435.81 970.103   1
   9   4   7 7825.67 1400.55   2
   9  -5  -6 4226.60 938.998   3
  -9  -5  -6 5115.42 1036.66   3
  -9  -5  -5 12094.3 1390.65   3
  -9   5  -4 10570.6 1214.69   1
  -9  -5  -4 8584.69 1072.78   3
  -9   5  -3 8424.57 1051.30   1
  -9  -5  -3 8969.98 979.112   3
  -9   5  -2 10910.4 1146.93   1
  -9  -5  -2 12024.8 1005.04   3
  -9   5  -1 5749.44 807.228   1
  -9  -5  -1 4574.48 540.454   3
   9   5  -1 4983.31 926.089   2
   9   5   0 12532.3 1432.39   2
  -9   5   0 13847.3 1240.75   1
  -9   5   1 7589.61 893.151   1
   9   5   1 7109.84 963.981   2
   9   5   2 12463.5 1354.05   2
  -9   5   2 11552.8 1109.73   1
   9   5   3 14114.6 1699.04   2
  -9   5   3 14132.0 1246.61   1
   9   5   4 9051.79 1357.12   2
  -9   5   4 10312.9 1102.64   1
   9   5   5 20666.3 2063.27   2
  -9   5   5 20882.1 1618.22   1
  -9   5   6 6002.47 946.868   1
   9   5   6 6845.21 1325.15   2
  -9  -6  -6 772.328 505.681   3
  -9  -6  -5 27355.5 2201.73   3
  -9  -6  -4 963.363 495.524   3
  -9  -6  -3 40945.7 2288.04   3
  -9   6  -3 37244.9 2488.47   1
  -9   6  -2 387.785 374.244   1
  -9   6  -1 39213.5 2275.92   1
   9   6  -1 41487.8 2794.40   2
   9   6   0 251.872 362.130   2
  -9   6   0 1547.68 633.399   1
   9   6   1 42079.8 2421.19   2
  -9   6   1 41310.0 2318.50   1
   9   6   2 1715.06 708.315   2
  -9   6   2 991.847 475.824   1
   9   6   3 33813.8 2769.23   2
  -9   6   3 40206.1 2322.87   1
  -9   6   4 1603.63 558.465   1
   9   6   4 1858.03 721.622   2
   9   6   5 29530.1 2560.87   2
  -9   6   5 30898.5 2168.90   1
  -9   7  -2 673.456 416.356   1
   9   7  -2 384.582 618.605   2
  -9   7  -1 1132.00 569.592   1
   9   7  -1 78.9211 637.068   2
   9   7   0 825.506 382.374   1
   9   7   0 67.4038 334.768   2
  -9   7   0 1495.09 654.406   1
   9   7   1 1394.68 581.407   2
   9   7   1 1243.12 514.619   1
  -9   7   1 1085.55 521.510   1
  -9   7   2 751.842 499.201   1
   9   7   2 1826.08 650.437   2
  -9   7   3 5679.09 983.460   1
   9   7   3 3026.25 944.066   2
   9   7   4 3894.95 968.754   2
   9   8  -2 5833.58 1090.05   2
  -9   8  -1 1376.36 764.339   1
   9   8  -1 301.606 454.322   2
   9   8   0 8628.45 1252.68   2
  -9   8   0 10170.6 1410.03   1
   9   8   1 982.628 436.878   1
   9   8   1 1062.78 568.390   2
  -9   8   1 782.183 517.766   1
   9   8   2 7761.00 1229.95   2
   9   8   2 8225.90 1181.68   1
  10   0  -7-172.858 358.319   3
 -10   0  -7 613.354 538.666   3
  10   0  -6 76355.7 3045.64   3
 -10   0  -6 73848.8 3301.15   3
  10   0  -5 103.838 286.708   3
 -10   0  -5 353.780 445.754   3
 -10   0  -4 142500. 4569.56   3
  10   0  -4 138022. 3917.15   3
 -10   0  -3 342.412 396.196   1
  10   0  -3 447.047 243.233   3
 -10   0  -2 208096. 5850.48   1
 -10   0  -1 1063.24 403.801   1
  10   0  -1 861.707 208.991   2
 -10   0   0 254383. 6032.02   1
  10   0   0 240057. 5399.16   2
  10   0   1 75.9263 233.653   2
 -10   0   1 527.677 296.160   1
 -10   0   1 112.545 222.189   3
  10   0   2 190820. 5180.60   2
 -10   0   2 210764. 5239.68   1
 -10   0   3-87.8746 249.799   1
  10   0   3 308.111 363.533   2
  10   0   4 144660. 4671.01   2
 -10   0   4 149289. 3982.07   1
  10   0   5 75.7667 426.101   2
 -10   0   5 499.024 327.319   1
  10   0   6 84304.2 3822.69   2
  10   0   7 217.627 541.897   2
  10  -1  -8 21868.8 1923.68   3
  10  -1  -7 4673.45 861.752   3
 -10  -1  -7 4434.85 825.400   3
 -10   1  -7 6351.74 1054.40   3
  10  -1  -6 25323.7 1758.90   3
  10   1  -6 28218.1 1613.01   3
 -10  -1  -6 26145.2 1850.44   3
 -10   1  -6 28932.3 2069.01   3
  10   1  -5 5908.40 628.134   3
  10  -1  -5 5246.09 741.474   3
 -10  -1  -5 4579.78 767.205   3
 -10   1  -5 4225.11 769.686   3
  10  -1  -4 25487.0 1528.08   3
  10   1  -4 25803.9 1243.99   3
 -10  -1  -4 24840.8 1587.01   3
 -10   1  -4 27538.8 1743.01   1
  10   1  -3 4342.81 429.055   3
 -10   1  -3 4560.90 765.519   1
  10  -1  -3 4587.76 595.613   3
 -10  -1  -3 3870.03 614.083   3
 -10   1  -2 24429.1 1589.45   1
  10  -1  -2 24432.6 945.560   2
 -10   1  -1 2998.42 532.882   1
  10  -1  -1 3290.27 306.591   2
 -10  -1  -1 3304.08 580.315   1
  10  -1   0 21951.3 1031.73   2
 -10   1   0 23246.9 1503.01   1
  10   1   0 22895.8 1305.30   2
 -10  -1   0 26503.3 1591.93   1
  10  -1   1 4697.75 490.058   2
 -10  -1   1 3713.67 410.920   3
 -10   1   1 3543.08 532.750   1
  10   1   1 4082.39 548.764   2
 -10  -1   1 4289.19 564.055   1
 -10  -1   2 30541.7 1441.29   1
  10  -1   2 31134.7 1479.90   2
  10   1   2 30365.9 1779.40   2
 -10   1   2 29676.6 1443.09   1
 -10  -1   2 27193.3 1052.52   3
 -10  -1   3 7253.44 585.252   3
  10  -1   3 7558.25 793.916   2
 -10  -1   3 7096.82 681.650   1
 -10   1   3 7370.04 728.834   1
  10   1   3 7031.39 858.220   2
  10  -1   4 32080.1 1869.87   2
  10   1   4 34300.2 2105.44   2
 -10  -1   4 34587.0 1525.89   1
 -10   1   4 35615.2 1626.20   1
  10   1   5 8752.65 1193.21   2
  10  -1   5 8091.42 1005.71   2
 -10   1   5 9696.78 874.014   1
 -10   1   6 35206.5 1776.01   1
  10  -1   6 31767.2 2153.95   2
  10  -1   7 9732.92 1374.28   2
  10   1   7 8437.45 1304.95   2
  10  -2  -8 423.747 438.309   3
 -10  -2  -7 12844.9 1360.56   3
 -10   2  -7 14358.5 1623.88   3
  10  -2  -7 11064.6 1352.84   3
  10  -2  -6 2119.75 670.992   3
 -10  -2  -6 2331.64 635.046   3
 -10   2  -6 1988.67 640.443   3
  10  -2  -5 22301.5 1639.43   3
 -10  -2  -5 23040.4 1617.99   3
  10   2  -4 4505.33 428.077   3
 -10   2  -4 3415.05 733.018   1
  10  -2  -4 4769.95 707.662   3
 -10  -2  -4 3772.79 656.593   3
 -10   2  -3 44346.0 2299.43   1
  10  -2  -3 40089.2 1394.11   2
 -10  -2  -3 39016.3 1884.54   3
  10   2  -3 40085.6 1407.89   1
 -10   2  -2 6041.76 779.457   1
  10  -2  -2 5335.60 254.042   2
 -10  -2  -2 5299.95 616.278   3
  10   2  -2 5069.61 493.907   1
 -10   2  -1 58312.0 2630.85   1
 -10   2  -1 55930.8 1723.61   2
 -10  -2  -1 56410.9 1946.00   3
  10  -2   0 5018.36 350.204   2
 -10   2   0 4712.69 616.172   1
 -10  -2   0 5348.67 388.892   3
  10   2   0 4219.68 660.472   2
  10  -2   1 57572.6 1853.62   2
  10   2   1 56723.8 2308.05   2
 -10   2   1 55206.7 2185.82   1
 -10  -2   1 60054.5 2302.61   1
  10  -2   2 5570.37 594.150   2
 -10   2   2 5864.74 681.303   1
  10   2   2 5142.33 778.431   2
 -10  -2   2 5944.39 661.595   1
  10  -2   3 39807.8 1869.95   2
  10   2   3 43838.4 2448.52   2
 -10   2   3 40159.7 1799.34   1
 -10  -2   3 41434.2 1537.55   1
 -10   2   4 3654.69 556.569   1
  10  -2   4 4367.38 685.360   2
  10   2   4 3595.81 758.369   2
  10   2   5 21773.0 1880.54   2
 -10   2   5 24375.8 1454.39   1
  10  -2   5 23307.2 1677.66   2
 -10   2   6 2590.59 539.765   1
  10  -2   6 1539.46 578.268   2
  10   2   6 1843.04 682.730   2
  10   2   7 12373.4 1636.02   2
  10  -2   7 12338.2 1454.83   2
  10  -3  -7 23536.9 2042.33   3
 -10  -3  -7 21586.8 1823.32   3
 -10   3  -7 28435.6 2392.95   3
 -10  -3  -6 9554.94 1149.35   3
 -10   3  -6 9187.66 1316.72   3
  10  -3  -6 9355.68 1212.47   3
  10  -3  -5 22325.6 1717.32   3
 -10  -3  -5 23424.4 1700.42   3
 -10   3  -5 23506.9 1772.50   1
 -10  -3  -4 15129.0 1310.09   3
  10  -3  -4 14918.4 1355.53   3
 -10   3  -4 16294.7 1576.28   1
 -10   3  -3 18352.0 1392.70   1
 -10  -3  -3 17497.8 1282.82   3
 -10   3  -2 18064.8 1425.53   1
 -10  -3  -2 18687.5 1138.08   3
 -10   3  -1 10846.0 619.189   2
 -10   3  -1 12275.9 1076.34   1
 -10  -3  -1 12271.6 741.653   3
 -10   3   0 17374.8 1240.99   1
  10   3   0 18057.4 1565.61   2
 -10  -3   0 17753.1 636.912   3
  10   3   1 13527.3 1162.55   2
 -10   3   1 14775.5 1113.31   1
  10  -3   1 14673.2 807.617   2
  10   3   2 17545.4 1435.69   2
 -10   3   2 21379.8 1300.46   1
  10  -3   2 19232.2 1113.47   2
  10   3   3 24513.5 2030.25   2
 -10   3   3 24165.3 1421.37   1
  10  -3   3 23038.4 1470.29   2
  10   3   4 17026.5 1671.69   2
 -10   3   4 14766.0 1160.31   1
  10  -3   4 17158.5 1328.94   2
  10   3   5 32137.5 2395.16   2
 -10   3   5 31735.8 1776.78   1
  10  -3   5 28161.0 1944.73   2
  10   3   6 14550.7 1737.12   2
 -10   3   6 12038.0 1143.84   1
  10  -3   6 11916.8 1306.36   2
  10   3   7 31163.2 2603.57   2
 -10   3   7 30444.3 1877.81   1
  10  -3   7 31322.2 2441.48   2
 -10  -4  -7 19392.3 1790.86   3
  10  -4  -6 20889.7 1905.02   3
 -10  -4  -6 21135.5 1825.67   3
  10  -4  -5 37497.4 2423.44   3
 -10  -4  -5 36787.6 2397.28   3
 -10   4  -5 41221.4 2475.22   1
 -10   4  -4 35681.7 2314.77   1
 -10  -4  -4 34503.6 2088.54   3
 -10   4  -3 60147.8 2765.85   1
 -10  -4  -3 58622.1 2502.41   3
 -10   4  -2 53195.6 2690.49   1
 -10  -4  -2 53780.5 2122.58   3
 -10   4  -1 76932.3 3065.42   1
 -10  -4  -1 79148.2 2364.32   3
  10   4   0 61322.6 3135.98   2
 -10   4   0 68578.9 2702.42   1
  10   4   1 74921.5 3119.57   2
 -10   4   1 79717.8 2970.78   1
  10   4   2 51296.4 2595.40   2
 -10   4   2 54111.5 2375.05   1
  10   4   3 65644.9 3748.93   2
 -10   4   3 66726.1 2718.78   1
  10   4   4 36695.9 2695.89   2
 -10   4   4 35798.5 1947.54   1
  10  -4   4 36980.4 2164.33   2
  10   4   5 44376.5 2965.35   2
 -10   4   5 42910.3 2209.50   1
  10  -4   5 37647.7 2450.33   2
  10   4   6 25737.3 2359.83   2
 -10   4   6 24202.5 1735.79   1
  10  -4   6 20450.4 1925.33   2
 -10   4   7 23544.3 1720.56   1
 -10  -5  -6 12399.6 1556.92   3
 -10  -5  -5 3030.92 788.642   3
 -10   5  -4 10642.3 1247.58   1
 -10  -5  -4 9438.27 1117.26   3
 -10   5  -3 3763.31 730.411   1
 -10  -5  -3 3732.38 625.608   3
 -10   5  -2 3354.68 625.735   1
 -10  -5  -2 3921.66 586.418   3
 -10   5  -1 2852.22 602.740   1
 -10  -5  -1 3381.65 481.290   3
  10   5  -1 3201.99 805.431   2
 -10   5   0 2649.15 618.060   1
  10   5   0 2556.91 675.219   2
  10   5   1 4496.37 823.949   2
 -10   5   1 3337.21 637.631   1
 -10   5   2 7563.22 958.835   1
  10   5   2 5886.66 951.847   2
 -10   5   3 2210.72 578.205   1
  10   5   3 2980.38 866.057   2
  10   5   4 13315.0 1705.64   2
 -10   5   4 13715.2 1294.08   1
 -10   5   5 3904.94 790.204   1
  10   5   5 2419.02 794.399   2
  10   5   6 18752.9 2097.48   2
 -10   5   6 19834.6 1698.62   1
 -10  -6  -6 7057.44 1274.41   3
 -10  -6  -5 5322.01 1019.81   3
 -10  -6  -4 13780.0 1422.91   3
 -10   6  -3 6079.41 985.051   1
 -10   6  -2 17468.0 1567.37   1
 -10   6  -1 7997.75 1073.35   1
  10   6  -1 7765.45 1195.12   2
  10   6   0 26034.4 1980.60   2
 -10   6   0 25778.5 1866.53   1
  10   6   1 8344.31 1095.16   2
 -10   6   1 7537.71 1025.17   1
  10   6   2 18751.1 1677.13   2
 -10   6   2 22018.5 1714.25   1
 -10   6   3 5825.19 926.147   1
  10   6   3 6089.06 1132.90   2
  10   6   4 10584.9 1508.25   2
 -10   6   4 17288.4 1555.08   1
 -10   6   5 6146.19 1017.16   1
  10   6   5 6042.72 1204.04   2
 -10   7  -2 520.592 466.175   1
  10   7  -2-282.982 722.975   2
 -10   7  -1 23570.6 1959.32   1
  10   7  -1 21494.0 2157.78   2
  10   7   0 569.466 396.293   1
 -10   7   0 481.862 500.464   1
  10   7   0 526.575 495.616   2
  10   7   1 24179.8 1908.34   2
 -10   7   1 27753.8 2095.24   1
 -10   7   2 697.462 508.374   1
  10   7   2 2593.83 782.054   2
  10   7   3 20233.0 2106.79   2
 -10   7   3 25054.0 2011.17   1
  10   7   4 1795.51 767.017   2
  10   8  -1 40022.1 2780.50   2
 -10   8  -1 40953.0 2796.81   1
 -10   8   0 1896.30 730.913   1
  10   8   0 2384.01 754.595   2
  10   8   1 38492.5 2519.84   2
  10   8   1 41968.9 2604.51   1
  10   8   2 1236.11 590.922   1
  10   8   2 1419.65 654.162   2
  11   0  -7 40752.6 2320.22   3
 -11   0  -7 40825.1 2531.69   3
  11   0  -6 331.222 373.710   3
 -11   0  -6 334.213 473.967   3
  11   0  -5 99099.9 3340.52   3
 -11   0  -5 102293. 3949.60   3
  11   0  -4 1034.66 359.362   3
 -11   0  -4-224.301 336.668   3
 -11   0  -3 175921. 5310.88   1
 -11   0  -2 175.840 391.740   1
 -11   0  -1 232276. 6228.63   1
  11   0  -1 245871. 5971.55   2
  11   0   0 429.584 199.684   2
 -11   0   0 282.198 289.204   1
 -11   0   1 218295. 5491.98   1
  11   0   1 207086. 5198.46   2
 -11   0   2-144.214 279.738   1
  11   0   2 346.272 301.392   2
  11   0   3 172762. 5063.18   2
 -11   0   3 174040. 4675.98   1
 -11   0   4-33.7772 257.270   1
  11   0   4 355.889 413.278   2
  11   0   5 103038. 4153.57   2
 -11   0   5 112653. 3466.93   1
  11   0   6 66.3321 386.944   2
  11   0   7 42922.4 2862.56   2
  11  -1  -8 23540.6 1988.83   3
  11  -1  -7 20614.7 1694.47   3
 -11  -1  -7 20538.4 1752.77   3
 -11   1  -7 20127.5 1844.26   3
  11  -1  -6 39168.1 2235.46   3
 -11  -1  -6 40000.4 2340.33   3
 -11   1  -6 43421.8 2644.72   3
  11  -1  -5 25177.7 1607.06   3
  11   1  -5 24049.3 1339.04   3
 -11  -1  -5 25166.5 1719.79   3
 -11   1  -5 25586.4 1892.80   3
  11  -1  -4 61456.2 2481.55   3
  11   1  -4 61528.3 2064.85   3
 -11  -1  -4 62693.1 2703.51   3
 -11   1  -4 63265.5 2883.39   1
 -11  -1  -3 38714.1 1953.93   3
 -11   1  -3 34111.2 2127.70   1
 -11   1  -2 89926.0 3298.24   1
 -11  -1  -2 86156.0 3306.62   1
  11  -1  -2 90496.7 2355.78   2
 -11   1  -1 53309.0 2262.47   1
  11  -1  -1 55113.0 1570.84   2
  11   1  -1 56223.9 2446.49   2
 -11  -1  -1 49575.6 2413.42   1
 -11   1   0 96456.3 3434.27   1
  11  -1   0 96149.2 2640.51   2
  11   1   0 96094.3 3039.04   2
 -11  -1   0 102523. 3634.35   1
 -11  -1   1 57911.1 2311.24   1
  11  -1   1 57677.9 2005.85   2
 -11   1   1 54988.2 2302.88   1
  11   1   1 54618.9 2091.65   2
 -11  -1   1 59812.0 2012.86   3
 -11  -1   2 87865.2 2844.78   1
  11  -1   2 94519.3 2952.78   2
  11   1   2 93499.2 3357.24   2
 -11   1   2 83618.8 2878.64   1
 -11  -1   2 84338.5 2313.38   3
  11  -1   3 41916.0 1997.82   2
 -11  -1   3 40756.6 1712.44   1
  11   1   3 43799.8 2302.64   2
 -11   1   3 40838.3 1814.01   1
 -11  -1   3 40149.3 1526.97   3
  11  -1   4 69610.2 2944.74   2
  11   1   4 66167.5 3113.24   2
 -11  -1   4 70674.3 2385.15   1
 -11   1   4 71129.5 2549.17   1
  11  -1   5 30955.4 2028.85   2
  11   1   5 28503.4 2115.90   2
 -11   1   5 31526.8 1660.12   1
  11   1   6 41210.8 2750.59   2
  11  -1   6 41275.0 2567.41   2
  11   1   7 23887.7 2234.85   2
  11  -1   7 23654.9 2033.91   2
  11  -2  -7 11299.7 1353.39   3
 -11  -2  -7 12815.5 1392.21   3
 -11   2  -7 13973.2 1654.78   3
  11  -2  -6 97901.4 3983.08   3
 -11  -2  -6 97188.6 3882.38   3
 -11   2  -6 106470. 4575.99   3
  11  -2  -5 31005.9 1930.15   3
 -11  -2  -5 30508.6 1900.49   3
  11  -2  -4 177928. 5355.78   3
  11   2  -4 180723. 4120.91   3
 -11  -2  -4 184300. 5270.13   3
 -11   2  -4 194666. 5916.55   1
 -11   2  -3 52642.4 2586.48   1
  11  -2  -3 49232.5 1577.25   2
 -11  -2  -3 52855.5 2218.46   3
 -11   2  -2 287098. 6960.65   1
  11  -2  -2 269804. 5099.15   2
 -11  -2  -2 282210. 6500.84   3
 -11   2  -1 59543.7 2687.82   1
 -11   2  -1 57247.0 1880.43   2
  11   2  -1 64222.9 2857.88   2
 -11  -2  -1 65460.7 2120.39   3
  11  -2   0 362887. 6971.87   2
  11   2   0 351716. 8438.92   2
 -11   2   0 342789. 8262.43   1
 -11  -2   0 336933. 7077.35   3
  11  -2   1 63088.8 1990.95   2
  11   2   1 57921.2 2359.44   2
 -11   2   1 62234.7 2423.55   1
 -11  -2   1 61404.1 2447.90   1
  11  -2   2 282707. 6591.75   2
  11   2   2 278970. 7138.54   2
 -11   2   2 277623. 6729.16   1
 -11  -2   2 295551. 6874.85   1
  11  -2   3 49814.8 2202.13   2
  11   2   3 57959.5 2907.38   2
 -11   2   3 55449.8 2230.47   1
 -11  -2   3 52739.1 1943.93   1
  11   2   4 189132. 6173.71   2
 -11   2   4 196381. 5217.71   1
  11  -2   4 188159. 5488.99   2
  11   2   5 37503.2 2488.07   2
 -11   2   5 35363.8 1847.85   1
  11  -2   5 34660.8 2128.21   2
  11   2   6 108383. 4855.63   2
  11  -2   6 104164. 4335.65   2
  11   2   7 14290.5 1737.30   2
  11  -2   7 13430.7 1547.10   2
  11  -3  -7 2218.62 681.849   3
 -11  -3  -7 627.634 482.761   3
 -11   3  -7 879.265 467.229   3
  11  -3  -6 37145.1 2392.67   3
 -11  -3  -6 37577.2 2332.92   3
 -11   3  -6 43353.3 2873.40   3
 -11   3  -5 757.813 497.267   1
  11  -3  -5 245.782 366.747   3
 -11  -3  -5 912.885 514.995   3
 -11  -3  -4 54005.5 2607.98   3
 -11   3  -4 63760.4 3171.99   1
 -11  -3  -3 1015.95 403.900   3
 -11   3  -3 562.827 362.891   1
 -11   3  -2 64580.4 2868.21   1
 -11  -3  -2 73266.5 2516.56   3
 -11   3  -1 1816.59 463.268   1
 -11   3  -1 1570.05 242.024   2
 -11  -3  -1 2332.43 336.599   3
  11   3  -1 2075.85 552.473   2
 -11  -3   0 75784.5 1755.88   3
 -11   3   0 75051.3 2890.50   1
  11   3   0 73849.0 3181.79   2
  11  -3   1 1872.22 311.306   2
  11   3   1 2445.94 544.756   2
 -11   3   1 2094.54 497.280   1
  11   3   2 80535.9 3192.11   2
 -11   3   2 76100.5 2851.33   1
  11  -3   2 79865.1 2618.62   2
 -11   3   3 441.398 292.888   1
  11  -3   3 310.379 232.701   2
  11   3   4 60926.9 3338.85   2
 -11   3   4 60929.6 2536.88   1
  11  -3   4 60378.9 2664.94   2
 -11   3   5 769.208 365.582   1
  11  -3   5 795.827 430.163   2
  11   3   5 878.718 495.796   2
  11   3   6 45563.6 3146.89   2
 -11   3   6 48577.1 2426.20   1
  11  -3   6 43292.9 2609.16   2
  11  -3   7 790.846 558.527   2
  11   3   7 988.236 737.143   2
  11  -4  -6 20773.8 1908.70   3
 -11  -4  -6 19687.9 1778.29   3
 -11  -4  -5 31551.3 2210.02   3
 -11   4  -5 32149.2 2314.19   1
 -11   4  -4 40750.4 2401.16   1
 -11  -4  -4 37842.2 2213.94   3
 -11   4  -3 53197.8 2582.64   1
 -11  -4  -3 51215.9 2332.13   3
 -11   4  -2 59340.9 2961.65   1
 -11  -4  -2 59684.0 2256.94   3
  11   4  -1 81201.3 3657.87   2
 -11  -4  -1 78002.9 2306.78   3
  11   4   0 68045.7 3165.08   2
 -11   4   0 72940.2 2936.06   1
  11   4   1 76644.7 3157.60   2
 -11   4   1 84148.7 3137.60   1
  11   4   2 58437.9 2780.84   2
 -11   4   2 61332.2 2626.91   1
  11   4   3 53305.3 3047.28   2
 -11   4   3 50952.9 2397.04   1
  11   4   4 40926.8 2959.84   2
 -11   4   4 36696.4 2060.88   1
  11  -4   4 44286.1 2430.49   2
  11   4   5 32084.6 2635.31   2
 -11   4   5 31049.1 1920.47   1
  11  -4   5 31764.6 2146.25   2
  11   4   6 20066.3 2166.90   2
 -11   4   6 20682.6 1644.24   1
  11  -4   6 20777.9 1862.57   2
 -11   4   7 17929.9 1539.83   1
 -11  -5  -6 906.540 566.149   3
 -11  -5  -5 57722.6 3159.13   3
 -11  -5  -4 534.233 374.106   3
 -11   5  -4 1237.28 537.470   1
 -11   5  -3 71525.3 3291.98   1
 -11  -5  -3 83416.7 3169.67   3
 -11   5  -2 479.029 399.025   1
 -11  -5  -2 1287.34 358.851   3
 -11   5  -1 95691.3 3728.15   1
  11   5  -1 94464.1 4217.78   2
 -11   5   0 3058.98 685.158   1
  11   5   0 2116.80 606.826   2
  11   5   1 82033.5 3445.61   2
 -11   5   1 97334.2 3597.62   1
 -11   5   2 1473.73 544.389   1
  11   5   2 2454.96 664.492   2
  11   5   3 74649.4 3694.49   2
 -11   5   3 83846.5 3386.81   1
 -11   5   4 1284.73 552.872   1
  11   5   4-519.776 838.701   2
  11   5   5 68452.5 4132.90   2
 -11   5   5 69139.5 3159.25   1
 -11   5   6 1282.49 602.468   1
  11   5   6 1151.65 697.090   2
 -11   6  -3 100449. 4175.48   1
 -11   6  -2 11929.0 1358.42   1
 -11   6  -1 153477. 5289.31   1
  11   6  -1 153786. 5874.56   2
  11   6   0 13540.6 1404.56   2
 -11   6   0 13177.3 1390.52   1
  11   6   1 146374. 5006.74   2
 -11   6   1 157129. 5187.53   1
  11   6   2 13190.3 1384.89   2
 -11   6   2 13639.7 1372.60   1
  11   6   3 105279. 4620.54   2
 -11   6   3 113736. 4325.91   1
 -11   6   4 10836.4 1276.40   1
  11   6   4 8064.88 1392.59   2
  11   6   5 62348.2 3980.89   2
 -11   6   5 71487.1 3429.71   1
 -11   7  -2 11625.0 1429.98   1
  11   7  -2 12229.5 1725.92   2
 -11   7  -1 10850.1 1349.69   1
  11   7  -1 8786.02 1304.50   2
  11   7   0 14713.7 1523.92   2
 -11   7   0 16689.5 1656.64   1
  11   7   1 9375.26 1219.36   2
 -11   7   1 10445.5 1358.47   1
  11   7   2 13982.9 1520.95   2
 -11   7   2 14818.7 1552.77   1
 -11   7   3 10530.4 1307.34   1
  11   7   3 8349.38 1290.18   2
 -11   8  -1 1198.85 690.957   1
 -11   8   0 46767.9 3038.87   1
  11   8   2 37847.9 2765.55   1
 -12   0  -7 765.206 577.375   3
  12   0  -6 143460. 4546.32   3
 -12   0  -6 148951. 5173.10   3
  12   0  -5 101.179 218.564   3
 -12   0  -5-59.4332 435.693   3
  12   0  -4 243870. 5987.20   3
 -12   0  -4 249045. 6920.55   3
 -12   0  -3 203.048 345.569   1
 -12   0  -2 424208. 10357.9   1
  12   0  -1 223.001 224.918   2
 -12   0  -1 420.272 383.219   1
 -12   0   0 486765. 10556.2   1
  12   0   0 480395. 9827.63   2
 -12   0   1 530.413 359.384   1
  12   0   1 269.551 231.049   2
  12   0   2 408711. 9445.11   2
 -12   0   2 409087. 9446.87   1
 -12   0   3-550.002 448.480   1
  12   0   3 801.176 460.390   2
  12   0   4 250847. 7130.57   2
 -12   0   4 265475. 6520.47   1
 -12   0   5 323.921 265.807   1
  12   0   5 10.2297 403.822   2
  12   0   6 152141. 5664.79   2
  12   0   7 453.187 608.890   2
  12  -1  -7 4432.54 835.982   3
 -12  -1  -7 5640.06 994.028   3
 -12   1  -7 6687.11 1101.34   3
  12  -1  -6 58484.2 2782.51   3
 -12  -1  -6 59665.0 2954.88   3
 -12   1  -6 63894.5 3350.92   3
  12  -1  -5 7998.98 894.049   3
  12   1  -5 7687.73 739.208   3
 -12  -1  -5 7632.78 974.421   3
 -12   1  -5 8889.47 1144.08   3
  12  -1  -4 107698. 3579.77   3
 -12  -1  -4 108884. 3869.00   3
 -12   1  -4 104171. 4100.97   1
 -12  -1  -3 14659.8 1208.81   3
 -12   1  -3 13827.7 1426.81   1
 -12   1  -2 142406. 4502.07   1
 -12  -1  -2 135706. 4633.52   1
  12  -1  -2 144041. 3505.95   2
 -12   1  -1 18762.1 1295.77   1
  12  -1  -1 17918.5 794.462   2
  12   1  -1 17832.9 1334.41   2
 -12  -1  -1 18466.9 1423.75   1
 -12   1   0 137959. 4295.48   1
  12  -1   0 138981. 3453.08   2
  12   1   0 148740. 3990.58   2
 -12  -1   0 144337. 4530.41   1
 -12  -1   1 18048.4 1239.40   1
  12  -1   1 18075.9 1093.31   2
 -12   1   1 17596.6 1275.16   1
  12   1   1 19719.4 1151.38   2
 -12  -1   1 19366.1 1134.35   3
 -12  -1   2 139836. 3893.36   1
  12  -1   2 138499. 3980.69   2
  12   1   2 132832. 4133.92   2
 -12   1   2 135983. 4051.73   1
 -12  -1   2 132514. 3290.64   3
  12  -1   3 15111.5 1205.52   2
 -12  -1   3 14831.1 1003.18   1
  12   1   3 12281.3 1264.07   2
 -12   1   3 13961.4 1089.45   1
  12  -1   4 115997. 4118.15   2
 -12  -1   4 116870. 3414.62   1
  12   1   4 115552. 4387.55   2
 -12   1   4 115271. 3648.24   1
 -12   1   5 9673.72 944.174   1
  12  -1   5 8729.02 1098.21   2
  12   1   5 8991.13 1255.52   2
  12   1   6 62370.3 3480.22   2
  12  -1   6 64650.2 3329.09   2
  12  -1   7 5676.07 1106.51   2
  12   1   7 6739.64 1238.31   2
  12  -2  -7 29042.8 2169.34   3
 -12  -2  -7 34278.3 2273.25   3
  12  -2  -6 10878.7 1239.33   3
 -12  -2  -6 10513.0 1206.79   3
 -12   2  -6 11559.4 1467.46   3
  12  -2  -5 73702.4 3191.32   3
 -12  -2  -5 75914.0 3187.91   3
 -12  -2  -4 15423.8 1265.39   3
 -12   2  -4 16946.5 1618.95   1
 -12   2  -3 144149. 4580.02   1
 -12  -2  -3 125699. 3996.10   3
 -12   2  -2 29694.9 1738.60   1
  12  -2  -2 28316.6 702.894   2
 -12  -2  -2 29000.2 1504.54   3
  12  -2  -1 164556. 3256.32   2
 -12   2  -1 177257. 5095.98   1
  12   2  -1 184465. 5438.79   2
 -12  -2  -1 177539. 4314.47   3
  12  -2   0 46550.1 1431.53   2
 -12   2   0 41218.1 2140.17   1
  12   2   0 45018.4 2162.75   2
 -12  -2   0 45904.0 1537.79   3
  12  -2   1 182177. 4236.63   2
  12   2   1 177056. 4736.94   2
 -12   2   1 175912. 4887.31   1
 -12  -2   1 162451. 3450.58   3
 -12  -2   1 181143. 5028.47   1
  12  -2   2 35276.7 1647.88   2
  12   2   2 30147.9 1751.67   2
 -12   2   2 32039.4 1715.68   1
 -12  -2   2 35439.8 1843.60   1
  12  -2   3 133111. 4131.30   2
  12   2   3 141925. 4885.78   2
 -12   2   3 133513. 4053.46   1
 -12  -2   3 132052. 3811.84   1
  12   2   4 15758.4 1596.70   2
  12  -2   4 14127.0 1273.78   2
  12   2   5 84821.5 4019.06   2
 -12   2   5 86088.7 3162.00   1
  12  -2   5 76759.2 3406.49   2
  12  -2   6 9023.51 1225.10   2
 -12   2   6 13272.1 1225.12   1
  12   2   6 11689.4 1545.16   2
  12   2   7 41539.3 3056.32   2
  12  -2   7 35447.5 2500.50   2
  12  -3  -7 40566.0 2689.09   3
 -12  -3  -7 41099.6 2565.62   3
  12  -3  -6 15811.0 1586.95   3
 -12  -3  -6 15640.5 1471.50   3
 -12   3  -6 14646.7 1697.12   3
 -12  -3  -5 63733.8 2972.39   3
 -12   3  -5 68209.7 3423.18   1
 -12  -3  -4 21028.1 1551.90   3
 -12   3  -4 25486.2 1883.49   1
 -12   3  -3 99152.0 3682.59   1
 -12  -3  -3 101194. 3604.27   3
 -12   3  -2 35762.4 2045.92   1
 -12  -3  -2 35363.8 1694.32   3
  12   3  -1 128790. 4604.69   2
 -12  -3  -1 126894. 3247.64   3
 -12   3   0 49463.1 2344.09   1
 -12  -3   0 48864.6 1272.75   3
  12   3   1 127353. 4117.05   2
 -12   3   1 121823. 4036.54   1
  12  -3   1 136538. 3254.80   2
  12   3   2 38369.2 2097.21   2
 -12   3   2 40852.7 2029.67   1
  12  -3   2 39865.1 1745.96   2
  12   3   3 103062. 4104.38   2
 -12   3   3 101378. 3526.25   1
  12  -3   3 105721. 3556.51   2
  12   3   4 21784.3 2021.57   2
 -12   3   4 23112.0 1533.27   1
  12  -3   4 23362.1 1589.47   2
  12   3   5 74257.5 3952.07   2
 -12   3   5 72724.9 2980.82   1
  12  -3   5 66782.9 3123.55   2
  12   3   6 17281.7 2011.02   2
 -12   3   6 17913.6 1470.75   1
  12  -3   6 17102.7 1671.06   2
  12  -3   7 42298.5 2833.52   2
 -12  -4  -6 37854.4 2457.76   3
 -12  -4  -5 71883.8 3490.89   3
 -12   4  -5 85843.0 4125.56   1
 -12   4  -4 83857.1 3616.07   1
 -12  -4  -4 77876.3 3379.53   3
 -12   4  -3 128810. 4432.04   1
 -12  -4  -3 127877. 4136.77   3
 -12   4  -2 93565.9 3894.71   1
 -12  -4  -2 105340. 3215.10   3
 -12   4  -1 154307. 5094.29   1
  12   4  -1 164162. 5637.97   2
 -12  -4  -1 167543. 3985.59   3
 -12   4   0 99951.9 3696.35   1
  12   4   0 98469.1 3849.34   2
  12   4   1 158479. 4931.67   2
 -12   4   1 159785. 4860.59   1
  12   4   2 88772.2 3541.32   2
 -12   4   2 99016.3 3538.70   1
  12   4   3 132925. 4966.10   2
 -12   4   3 142604. 4516.47   1
  12  -4   3 135848. 4307.87   2
 -12   4   4 78839.7 3237.99   1
  12  -4   4 82429.8 3524.74   2
  12   4   5 84113.5 4495.49   2
 -12   4   5 84118.0 3436.34   1
  12  -4   5 83509.6 3733.52   2
  12   4   6 49176.7 3465.44   2
 -12   4   6 48948.5 2625.78   1
  12  -4   6 42621.4 2827.72   2
 -12   4   7 38816.4 2337.38   1
 -12  -5  -6 23389.4 2143.79   3
 -12  -5  -5 3250.34 717.556   3
 -12   5  -4 37549.2 2314.70   1
 -12  -5  -4 32756.6 2119.33   3
 -12   5  -3 4815.81 866.569   1
 -12  -5  -3 5872.48 800.478   3
 -12   5  -2 45011.4 2654.27   1
 -12   5  -1 6286.12 902.223   1
  12   5  -1 6014.76 1010.21   2
  12   5   0 57634.9 2899.73   2
 -12   5   0 57105.1 2784.54   1
  12   5   1 7381.42 998.696   2
 -12   5   1 7621.75 988.549   1
  12   5   2 50050.9 2627.62   2
 -12   5   2 48841.8 2547.27   1
 -12   5   3 5204.83 839.769   1
  12   5   3 4361.58 828.559   2
  12   5   4 35155.4 2825.41   2
 -12   5   4 36829.8 2226.34   1
 -12   5   5 5200.66 883.635   1
  12   5   5 5185.81 1266.85   2
 -12   5   6 24998.2 1954.96   1
 -12   6  -3 8570.07 1139.68   1
 -12   6  -2 75272.2 3716.22   1
  12   6  -2 80600.6 4066.69   2
 -12   6  -1 12392.1 1385.28   1
  12   6  -1 13388.8 1606.80   2
  12   6   0 85079.3 3690.90   2
 -12   6   0 83135.5 3705.88   1
  12   6   1 13367.7 1341.42   2
 -12   6   1 15175.1 1535.99   1
  12   6   2 77547.0 3467.16   2
 -12   6   2 77900.5 3518.09   1
  12   6   3 9751.82 1313.48   2
 -12   6   3 10663.7 1238.90   1
  12   6   4 54195.5 3569.69   2
 -12   6   4 58567.9 3038.92   1
 -12   7  -2 5239.94 995.847   1
  12   7  -2 6233.35 1097.90   2
 -12   7  -1 63313.8 3416.04   1
  12   7  -1 61085.2 3405.79   2
  12   7   0 9135.58 1217.64   2
 -12   7   0 9619.30 1325.07   1
  12   7   1 62043.3 3072.24   2
 -12   7   1 61639.8 3316.64   1
  12   7   2 8048.20 1127.56   2
 -12   7   2 7855.13 1207.16   1
  12   7   3 52961.4 3117.69   2
 -12   8  -1 100317. 4713.32   1
 -13   0  -7 20180.0 1850.12   3
  13   0  -6 311.952 365.879   3
 -13   0  -6 476.816 540.171   3
  13   0  -5 46663.1 2114.05   3
 -13   0  -5 47630.5 2691.11   3
 -13   0  -4-303.777 421.903   3
 -13   0  -3 73133.4 3285.55   1
 -13   0  -2-73.7897 425.968   1
 -13   0  -1 102968. 3588.05   1
  13   0  -1 106684. 3097.17   2
  13   0   0 376.905 235.754   2
 -13   0   0-22.8259 313.009   1
 -13   0   1 97784.5 3277.24   1
  13   0   1 102906. 3030.42   2
 -13   0   2 271.178 256.542   1
  13   0   2 471.402 358.419   2
  13   0   3 81119.2 3278.93   2
 -13   0   3 79645.2 3121.58   1
 -13   0   4-414.973 355.664   1
  13   0   4 273.895 391.001   2
  13   0   5 45136.5 2754.39   2
 -13   0   5 54326.5 2429.80   1
  13   0   6 822.789 596.298   2
  13   0   7 22056.5 2114.79   2
  13  -1  -7 13562.1 1386.75   3
 -13  -1  -7 14198.1 1483.75   3
 -13   1  -7 14310.7 1602.40   3
  13  -1  -6 23439.8 1675.72   3
 -13  -1  -6 25064.0 1880.82   3
 -13   1  -6 26162.8 2152.55   3
  13  -1  -5 16452.8 1315.72   3
 -13  -1  -5 16051.2 1408.15   3
 -13   1  -5 15344.1 1528.60   3
 -13  -1  -4 34604.4 2033.47   3
 -13   1  -4 32035.7 2210.12   1
 -13  -1  -3 17008.5 1338.04   3
 -13   1  -3 14646.0 1400.67   1
 -13   1  -2 44921.0 2235.13   1
  13  -1  -2 48746.0 1856.63   2
 -13  -1  -2 44665.9 2386.69   1
  13  -1  -2 46515.6 1615.43   2
 -13   1  -1 19202.6 1330.88   1
  13  -1  -1 17235.8 806.076   2
  13   1  -1 20083.3 1467.83   2
 -13  -1  -1 19474.8 1577.78   1
 -13   1   0 50087.1 2265.99   1
  13  -1   0 46449.8 1610.66   2
  13   1   0 49961.0 1978.31   2
 -13  -1   0 50559.7 2359.21   1
 -13  -1   1 20602.9 1325.54   1
  13  -1   1 20837.3 1224.47   2
 -13   1   1 18534.7 1422.02   1
  13   1   1 19632.8 1161.69   2
 -13  -1   1 19196.5 1155.19   3
 -13  -1   2 45115.3 1971.24   1
  13  -1   2 47420.3 2093.87   2
  13   1   2 45017.0 2088.32   2
 -13   1   2 44807.6 2141.07   1
 -13  -1   2 43665.9 1568.48   3
  13  -1   3 17845.9 1358.84   2
 -13  -1   3 20821.5 1236.68   1
  13   1   3 17738.7 1559.48   2
 -13   1   3 18794.0 1302.46   1
  13  -1   4 38570.3 2218.10   2
 -13  -1   4 39986.2 1751.39   1
  13   1   4 37340.5 2372.54   2
 -13   1   4 38583.4 1954.68   1
  13  -1   5 18662.0 1647.61   2
  13   1   5 19137.3 1783.88   2
 -13   1   5 22353.7 1509.33   1
  13  -1   6 26268.1 2105.82   2
  13   1   6 30541.6 2415.27   2
  13   1   7 19161.6 2076.88   2
  13  -1   7 19076.5 1915.41   2
  13  -2  -7 9267.22 1204.38   3
 -13  -2  -7 8831.73 1191.40   3
 -13   2  -7 10451.6 1473.35   3
  13  -2  -6 64166.4 3130.03   3
 -13  -2  -6 63127.7 3073.91   3
 -13   2  -6 71135.4 3776.19   3
 -13  -2  -5 18974.9 1507.29   3
 -13   2  -5 21251.4 1875.63   1
 -13  -2  -4 112801. 3935.93   3
 -13   2  -4 123318. 4750.40   1
 -13   2  -3 34920.1 2079.33   1
  13  -2  -3 37576.1 1307.50   2
 -13  -2  -3 32898.2 1795.45   3
 -13   2  -2 167351. 5020.35   1
  13  -2  -2 172759. 3334.85   2
 -13  -2  -2 170716. 4668.05   3
  13  -2  -1 39843.5 1084.76   2
 -13   2  -1 43703.6 2187.13   1
  13   2  -1 42276.9 2341.22   2
 -13  -2  -1 44505.6 1778.95   3
  13  -2   0 205223. 4475.07   2
 -13   2   0 193916. 5764.22   1
  13   2   0 188940. 5418.65   2
 -13  -2   0 209522. 4700.00   3
 -13  -2   0 193016. 5775.17   1
  13  -2   1 44345.8 1682.33   2
  13   2   1 43235.0 1929.18   2
 -13   2   1 40042.7 2036.01   1
 -13  -2   1 40056.5 1141.81   3
 -13  -2   1 40887.9 2140.11   1
  13  -2   2 178199. 4745.04   2
  13   2   2 168007. 4922.86   2
 -13   2   2 170884. 4998.73   1
 -13  -2   2 182687. 5278.23   1
  13  -2   3 32215.9 1811.87   2
  13   2   3 31539.0 1997.80   2
 -13   2   3 32805.3 1819.18   1
 -13  -2   3 35001.6 1766.69   1
  13  -2   4 119555. 4191.38   2
  13   2   4 124431. 4952.14   2
 -13   2   4 120694. 3929.27   1
  13   2   5 21041.6 1970.78   2
 -13   2   5 24943.5 1615.80   1
  13  -2   5 19864.4 1664.58   2
  13   2   6 73489.7 4009.13   2
 -13   2   6 79280.8 3183.73   1
  13  -2   6 66251.8 3451.31   2
  13  -2   7 10042.4 1378.14   2
  13   2   7 10612.8 1611.84   2
  13  -3  -7-51.4940 473.064   3
 -13  -3  -6 23612.0 1838.42   3
 -13   3  -5 1562.67 583.367   1
 -13  -3  -5 463.243 401.403   3
 -13  -3  -4 27846.1 1811.32   3
 -13   3  -4 31202.7 2125.52   1
 -13  -3  -3 2443.28 538.392   3
 -13   3  -3 1133.19 466.895   1
 -13   3  -2 32166.6 1934.21   1
 -13  -3  -2 31193.5 1608.25   3
 -13   3  -1 1526.77 479.105   1
 -13  -3  -1 1563.02 287.655   3
  13   3  -1 1684.14 550.020   2
 -13   3   0 31358.7 1899.85   1
  13   3   0 31420.3 1904.53   2
 -13  -3   0 32884.2 958.494   3
  13  -3   1 2106.83 305.461   2
 -13   3   1 2181.15 575.968   1
  13   3   1 2198.56 483.830   2
  13   3   2 32388.7 1889.65   2
 -13   3   2 34234.9 1897.23   1
  13  -3   2 32906.4 1652.00   2
  13  -3   3 1565.10 405.125   2
  13   3   3 1413.82 487.574   2
 -13   3   3 1626.99 549.954   1
  13   3   4 32601.7 2452.99   2
 -13   3   4 34954.5 1961.92   1
  13  -3   4 32552.2 1960.65   2
  13  -3   5 1355.22 517.201   2
  13   3   5 1551.98 729.469   2
 -13   3   5 2623.64 662.428   1
  13   3   6 36296.6 2897.61   2
 -13   3   6 32647.8 2063.70   1
  13  -3   7 1504.46 731.163   2
 -13  -4  -6 9741.41 1235.36   3
 -13  -4  -5 16149.3 1548.52   3
 -13   4  -5 18702.0 2000.13   1
 -13   4  -4 20427.8 1675.86   1
 -13  -4  -4 18340.4 1530.39   3
 -13   4  -3 28079.0 1842.66   1
 -13  -4  -3 26770.2 1673.56   3
 -13   4  -2 26986.9 1874.05   1
 -13  -4  -2 28986.7 1500.19   3
 -13   4  -1 35913.8 2203.65   1
  13   4  -1 35442.3 2340.85   2
 -13   4   0 31029.0 1953.99   1
  13   4   0 33464.6 2042.13   2
  13   4   1 37113.9 2055.74   2
 -13   4   1 35882.0 2093.30   1
  13   4   2 32038.9 1923.48   2
 -13   4   2 28746.8 1825.01   1
  13   4   3 27356.3 2011.62   2
 -13   4   3 27325.1 1812.77   1
  13  -4   3 29953.2 1776.64   2
  13   4   4 23378.2 2139.18   2
 -13   4   4 20426.0 1581.22   1
  13  -4   4 18365.0 1627.53   2
  13   4   5 19420.7 2134.06   2
 -13   4   5 17554.4 1506.08   1
  13  -4   5 16002.7 1638.17   2
  13  -4   6 7913.16 1292.26   2
  13   4   6 10194.9 1654.70   2
 -13   4   6 9216.83 1124.82   1
 -13  -5  -6 1471.12 681.961   3
 -13  -5  -5 31857.3 2318.52   3
 -13  -5  -4 1008.28 431.319   3
 -13   5  -4 932.228 489.369   1
 -13   5  -3 39048.2 2312.90   1
 -13   5  -2 616.323 538.999   1
  13   5  -2 1443.48 534.757   2
 -13   5  -1 45273.0 2575.55   1
  13   5  -1 45946.8 2797.36   2
 -13   5   0 2630.20 683.840   1
  13   5   0 2064.06 589.845   2
  13   5   1 44006.2 2350.36   2
 -13   5   1 40007.4 2348.24   1
  13   5   2 1425.67 548.671   2
 -13   5   2 2207.43 703.965   1
  13   5   3 41534.2 2535.66   2
 -13   5   3 43824.8 2438.39   1
  13   5   4 457.128 510.553   2
 -13   5   4 1644.18 599.674   1
  13   5   5 39586.6 3315.01   2
 -13   5   5 39055.3 2400.52   1
 -13   6  -3 62795.1 3162.82   1
 -13   6  -2 2661.88 750.285   1
  13   6  -2 5284.34 1066.44   2
 -13   6  -1 93717.7 4106.07   1
  13   6  -1 88922.8 4238.68   2
 -13   6   0 6041.19 1033.43   1
  13   6   0 6668.38 1016.71   2
  13   6   1 91813.3 3676.95   2
 -13   6   1 85543.3 3787.60   1
  13   6   2 5380.85 903.821   2
 -13   6   2 7425.85 1119.24   1
  13   6   3 70158.3 3521.46   2
 -13   6   3 75651.3 3511.33   1
  13   6   4 3445.88 928.928   2
 -13   6   4 5031.43 980.195   1
 -13   7  -2 5314.59 994.175   1
  13   7  -2 3884.76 1000.11   2
 -13   7  -1 5070.64 1066.68   1
  13   7  -1 4430.51 907.694   2
 -13   7   0 7410.18 1196.47   1
  13   7   0 6966.11 1040.51   2
 -13   7   1 6408.06 1136.97   1
  13   7   1 6881.58 1012.62   2
  13   7   2 7194.52 1081.47   2
 -13   7   2 7529.48 1208.92   1
 -14   0  -7 364.119 445.167   3
 -14   0  -6 42506.9 2620.95   3
 -14   0  -5 529.829 477.190   3
 -14   0  -4 69898.6 3233.08   3
 -14   0  -3-394.783 549.071   1
  14   0  -2 99398.1 3342.66   2
 -14   0  -2 93739.5 3682.87   1
  14   0  -1 255.038 229.718   2
 -14   0  -1 526.264 393.360   1
 -14   0   0 96546.4 3296.96   1
  14   0   0 96357.5 2755.16   2
 -14   0   1 373.406 332.820   1
  14   0   1 439.429 244.593   2
 -14   0   2 87704.7 3137.79   1
  14   0   2 89937.1 3118.55   2
 -14   0   3-351.589 365.222   1
  14   0   3 338.105 342.588   2
  14   0   4 72542.4 3401.45   2
 -14   0   4 81710.3 3197.44   1
  14   0   5 337.839 490.784   2
  14   0   6 48619.8 3088.41   2
  14   0   7-584.913 530.434   2
 -14  -1  -7 5925.64 1014.50   3
 -14   1  -7 4587.63 992.452   3
  14  -1  -6 16195.3 1428.39   3
 -14  -1  -6 17513.5 1598.11   3
 -14   1  -6 15572.2 1721.41   3
 -14  -1  -5 7210.80 1042.76   3
 -14   1  -5 5058.15 988.411   3
 -14  -1  -4 10949.6 1157.10   3
 -14   1  -4 12225.8 1379.09   1
 -14   1  -3 4886.05 804.697   1
 -14  -1  -3 5386.20 782.438   3
 -14   1  -2 8076.26 924.900   1
  14  -1  -2 7450.79 620.252   2
 -14  -1  -2 7092.21 1003.42   1
  14  -1  -1 5166.54 446.763   2
 -14  -1  -1 5168.95 816.809   1
  14   1  -1 5545.49 747.836   2
 -14   1  -1 5967.15 780.130   1
 -14   1   0 3968.90 673.627   1
  14  -1   0 3584.33 411.013   2
 -14  -1   0 3392.79 643.271   1
  14   1   0 3910.61 539.140   2
 -14  -1   1 7916.36 852.797   1
  14  -1   1 6698.29 678.387   2
 -14   1   1 6131.14 828.546   1
  14   1   1 5506.25 630.086   2
 -14  -1   2 12582.2 1007.50   1
  14  -1   2 13066.8 1066.52   2
  14   1   2 10982.2 965.262   2
 -14   1   2 10129.1 1020.98   1
 -14  -1   3 9021.53 839.432   1
  14  -1   3 8410.60 948.173   2
  14   1   3 7353.97 965.198   2
 -14   1   3 7812.93 896.779   1
  14  -1   4 20082.0 1620.68   2
 -14  -1   4 22743.6 1307.43   1
  14   1   4 20380.7 1798.28   2
 -14   1   4 19403.4 1428.53   1
  14  -1   5 9749.58 1230.93   2
 -14   1   5 10844.0 1082.18   1
  14   1   5 8447.75 1242.92   2
  14  -1   6 22541.9 1978.02   2
  14   1   6 22288.6 2130.37   2
  14  -1   7 8820.67 1370.26   2
  14   1   7 9345.63 1470.33   2
  14  -2  -7 5155.42 928.521   3
 -14  -2  -6 914.264 478.891   3
 -14   2  -6 398.028 546.939   3
 -14   2  -5 7873.93 1199.95   1
 -14  -2  -5 7633.42 984.202   3
 -14   2  -4 981.359 485.861   1
 -14  -2  -4 1193.26 449.957   3
 -14   2  -3 9472.35 1083.36   1
 -14  -2  -3 9164.99 956.090   3
 -14  -2  -2 1021.34 360.041   3
 -14   2  -2 654.599 423.117   1
  14  -2  -1 11499.9 535.326   2
 -14   2  -1 11371.9 1086.42   1
  14   2  -1 10999.2 1167.47   2
 -14  -2  -1 11867.8 915.174   3
 -14   2   0-141.279 408.062   1
 -14  -2   0 246.610 309.679   1
  14  -2   0 305.514 152.085   2
  14   2   0 323.513 310.242   2
 -14  -2   0 285.928 179.516   3
  14  -2   1 12876.0 913.366   2
 -14   2   1 12772.8 1184.94   1
  14   2   1 12803.9 1028.04   2
 -14  -2   1 13190.9 1265.13   1
 -14   2   2 453.001 348.394   1
  14  -2   2 501.503 317.448   2
 -14  -2   2 553.772 315.469   1
  14   2   2 696.763 420.287   2
  14  -2   3 12052.9 1102.72   2
  14   2   3 10146.1 1087.65   2
 -14   2   3 10192.3 1067.81   1
 -14  -2   3 10303.7 963.136   1
  14  -2   4 1628.56 526.944   2
  14   2   4 1032.28 501.713   2
 -14   2   4 1842.81 520.843   1
 -14   2   5 9894.32 1058.48   1
  14   2   5 7086.61 1201.61   2
  14  -2   5 9471.07 1187.37   2
  14  -2   6 2441.19 811.573   2
  14   2   6 428.526 633.855   2
 -14   2   6 2333.72 611.918   1
  14  -2   7 7904.59 1233.39   2
 -14  -3  -6 4843.99 903.521   3
 -14  -3  -5 15088.7 1415.80   3
 -14   3  -5 13138.7 1644.04   1
 -14  -3  -4 8460.68 1000.04   3
 -14   3  -4 8190.37 1117.67   1
 -14   3  -3 8453.83 1045.51   1
 -14  -3  -3 7017.49 879.614   3
 -14   3  -2 7433.16 942.497   1
 -14  -3  -2 7383.80 760.514   3
 -14   3  -1 814.263 489.894   1
 -14  -3  -1 657.086 229.672   3
  14   3  -1 1258.73 459.372   2
 -14   3   0 4965.15 759.932   1
  14   3   0 6684.64 865.538   2
 -14   3   1 2452.57 583.298   1
  14   3   1 2686.72 573.481   2
  14  -3   1 3875.35 423.148   2
  14   3   2 7685.36 911.785   2
 -14   3   2 6986.31 917.560   1
  14  -3   2 7079.99 779.484   2
  14   3   3 14285.3 1347.02   2
 -14   3   3 13862.4 1255.50   1
  14  -3   3 13580.4 1169.43   2
 -14   3   4 9245.28 1064.29   1
  14   3   4 8743.18 1200.84   2
  14  -3   4 7611.93 1003.20   2
  14   3   5 25486.8 2407.63   2
 -14   3   5 24144.4 1735.76   1
  14  -3   5 20355.5 1739.75   2
  14  -3   6 5743.27 1054.69   2
  14   3   6 5755.80 1211.82   2
 -14   3   6 7900.42 1074.93   1
 -14  -4  -6 11053.5 1325.45   3
 -14  -4  -5 20974.0 1779.96   3
 -14   4  -5 20403.2 1964.07   1
 -14   4  -4 14405.3 1439.49   1
 -14  -4  -4 14002.9 1348.25   3
 -14   4  -3 31792.7 2019.64   1
 -14  -4  -3 30596.7 1813.66   3
 -14   4  -2 20931.5 1640.49   1
 -14  -4  -2 20522.9 1248.27   3
 -14   4  -1 36166.4 2280.38   1
  14   4  -1 37580.7 2453.23   2
 -14   4   0 24090.8 1767.08   1
  14   4   0 23549.2 1735.55   2
  14   4   1 38158.8 2111.11   2
 -14   4   1 41753.9 2337.49   1
  14   4   2 21254.5 1583.84   2
 -14   4   2 22534.7 1659.93   1
  14   4   3 33194.9 2160.08   2
 -14   4   3 32604.2 2031.67   1
  14  -4   3 31393.6 1928.96   2
  14   4   4 14384.5 1595.74   2
 -14   4   4 16364.7 1462.27   1
  14  -4   4 14852.8 1423.61   2
  14   4   5 23933.7 2440.70   2
 -14   4   5 24296.4 1808.92   1
  14  -4   5 21692.7 1847.98   2
  14  -4   6 8304.61 1314.04   2
 -14   4   6 12880.8 1389.53   1
 -14   5  -4 7426.47 1106.33   1
 -14   5  -3 1714.95 602.536   1
 -14   5  -2 506.799 394.645   1
  14   5  -2 1065.94 493.462   2
 -14   5  -1 651.627 479.361   1
  14   5  -1 1154.88 430.572   2
 -14   5   0 178.805 465.580   1
  14   5   0 670.301 433.021   2
 -14   5   1 1864.06 621.446   1
  14   5   1 1987.67 584.918   2
  14   5   2 4869.34 814.186   2
 -14   5   2 3834.37 784.099   1
  14   5   3 2876.63 747.328   2
 -14   5   3 2980.33 756.005   1
  14   5   4 11327.7 1485.27   2
 -14   5   4 11898.5 1337.85   1
  14   5   5 3087.64 963.245   2
 -14   5   5 4205.75 934.601   1
 -14   6  -3 2756.98 748.012   1
 -14   6  -2 4797.77 954.022   1
  14   6  -2 5366.98 977.777   2
 -14   6  -1 1782.18 539.098   1
  14   6  -1 3154.75 818.456   2
  14   6   0 7525.03 1058.49   2
 -14   6   0 7013.83 1076.65   1
 -14   6   1 3943.99 860.888   1
  14   6   1 4118.71 818.523   2
  14   6   2 6651.74 997.146   2
 -14   6   2 6859.48 1080.57   1
  14   6   3 3459.39 807.625   2
 -14   6   3 4636.59 967.838   1
  14   6   4 4797.90 973.093   2
 -14   7  -2-1413.46 912.370   1
 -14   7  -1 7923.13 1269.29   1
  14   7  -1 8145.77 1208.23   2
 -14   7   0 977.659 630.980   1
  14   7   0 1440.24 606.669   2
  14   7   1 9596.12 1161.11   2
 -14   7   1 12913.6 1546.00   1
 -15   0  -6 292.676 479.056   3
 -15   0  -5 3243.10 732.234   3
 -15   0  -4-768.760 556.803   3
 -15   0  -3 2411.22 567.254   1
 -15   0  -2-2.20350 316.359   1
  15   0  -2-183.391 316.669   2
  15   0  -1 3339.05 475.549   2
 -15   0  -1 3883.31 717.856   1
  15   0   0 207.254 198.390   2
 -15   0   0 512.170 366.285   1
  15   0   1 5207.58 594.686   2
 -15   0   1 5439.41 725.431   1
 -15   0   2 348.749 307.315   1
  15   0   2 562.309 332.519   2
  15   0   3 9254.05 1044.63   2
 -15   0   3 8004.79 900.566   1
 -15   0   4 109.001 301.015   1
  15   0   4-355.929 591.268   2
  15   0   5 8411.75 1221.52   2
  15   0   6-137.978 622.576   2
 -15  -1  -6 9177.33 1209.45   3
 -15   1  -6 10692.4 1455.63   3
 -15  -1  -5 12218.9 1328.56   3
 -15   1  -5 12613.2 1506.13   3
 -15   1  -4 7878.03 1109.89   1
 -15  -1  -4 8736.36 1085.72   3
  15  -1  -3 6156.23 659.866   2
 -15   1  -3 3640.87 791.996   1
 -15  -1  -3 4453.15 696.840   3
 -15   1  -2 6359.02 894.964   1
  15  -1  -2 7836.95 604.833   2
 -15  -1  -2 5998.46 950.796   1
  15   1  -2 6446.66 870.759   2
  15  -1  -1 2988.60 360.999   2
 -15  -1  -1 3954.86 688.895   1
  15   1  -1 3119.91 569.883   2
 -15   1  -1 3246.07 645.782   1
 -15   1   0 5654.66 769.763   1
  15  -1   0 4988.17 476.875   2
  15   1   0 5441.69 608.795   2
 -15  -1   0 6438.04 831.505   1
 -15  -1   1 6400.74 798.531   1
 -15   1   1 6378.33 835.055   1
  15  -1   1 5823.80 632.387   2
  15   1   1 5186.79 627.403   2
 -15  -1   2 8776.89 879.923   1
  15  -1   2 7272.05 852.558   2
  15   1   2 7796.94 834.154   2
 -15   1   2 6589.50 872.165   1
 -15  -1   3 8741.09 870.961   1
  15   1   3 8712.53 996.306   2
 -15   1   3 7920.65 954.196   1
  15  -1   3 7512.65 926.518   2
  15  -1   4 9189.05 1137.81   2
 -15  -1   4 10957.4 920.301   1
 -15   1   4 9766.10 1047.29   1
  15   1   4 10220.3 1230.73   2
  15  -1   5 20254.8 1837.84   2
  15   1   5 17305.5 1799.25   2
 -15   1   5 20784.7 1557.19   1
  15  -1   6 12336.4 1486.75   2
  15   1   6 12154.6 1630.06   2
 -15  -2  -6 22647.7 1802.27   3
 -15   2  -6 25663.4 2316.76   3
 -15   2  -5 5506.33 965.687   1
 -15  -2  -5 6523.12 904.193   3
 -15  -2  -4 31458.3 1907.31   3
 -15   2  -4 29375.4 2111.14   1
 -15   2  -3 10875.0 1154.36   1
 -15  -2  -3 9212.37 976.479   3
 -15   2  -2 37218.4 2048.91   1
  15   2  -2 38127.4 2286.75   2
 -15  -2  -2 40587.2 1953.75   3
  15  -2  -1 15973.6 702.040   2
 -15   2  -1 16753.1 1332.14   1
  15   2  -1 16368.6 1399.00   2
 -15  -2  -1 16567.2 1115.21   3
  15  -2   0 43659.9 1582.04   2
 -15   2   0 39410.2 2234.18   1
  15   2   0 40694.1 1995.09   2
 -15  -2   0 45264.7 1726.99   3
 -15  -2   0 40726.5 2427.94   1
  15  -2   1 19264.3 1149.50   2
 -15   2   1 15166.8 1337.10   1
  15   2   1 18128.2 1248.28   2
 -15  -2   1 17095.7 1465.99   1
  15  -2   2 42249.7 2010.76   2
  15   2   2 40257.8 2001.47   2
 -15   2   2 37640.2 2138.01   1
 -15  -2   2 42862.5 2218.42   1
  15  -2   3 10440.8 1086.92   2
  15   2   3 12127.8 1182.72   2
 -15   2   3 10498.8 1111.96   1
 -15  -2   3 9420.23 909.152   1
  15  -2   4 35150.9 2164.75   2
  15   2   4 34809.4 2267.92   2
 -15   2   4 36586.3 2082.97   1
 -15   2   5 8022.63 1014.35   1
  15  -2   5 5682.61 946.400   2
  15   2   5 6649.68 1224.79   2
  15   2   6 24079.0 2297.53   2
  15  -2   6 26535.7 2176.37   2
 -15  -3  -6 14741.3 1474.73   3
 -15   3  -5 214.998 437.172   1
 -15  -3  -5 1127.22 516.082   3
 -15  -3  -4 10482.3 1139.86   3
 -15   3  -4 9992.28 1244.70   1
 -15  -3  -3 2027.64 512.420   3
 -15   3  -3 2647.21 658.607   1
 -15   3  -2 3325.72 673.739   1
 -15  -3  -2 3022.01 524.827   3
  15   3  -2 4354.57 798.376   2
 -15   3  -1 576.424 406.652   1
 -15  -3  -1 559.237 201.598   3
  15   3  -1 310.194 433.136   2
 -15   3   0-638.289 656.971   1
  15   3   0 254.415 303.024   2
 -15   3   1 486.089 328.749   1
  15  -3   1 583.411 178.300   2
  15   3   1 563.600 262.961   2
  15   3   2 6861.98 869.025   2
 -15   3   2 7938.78 988.207   1
  15  -3   2 7503.38 847.774   2
  15  -3   3 1554.19 473.028   2
 -15   3   3 2479.02 662.735   1
  15   3   3 1400.61 533.489   2
  15   3   4 16609.8 1626.57   2
 -15   3   4 17108.8 1444.50   1
  15  -3   4 18302.6 1472.94   2
  15  -3   5 1936.97 692.958   2
  15   3   5 1326.61 622.889   2
 -15   3   5 1543.50 582.942   1
  15   3   6 19476.0 2212.28   2
 -15   3   6 22732.3 1784.49   1
  15  -3   6 22260.8 1924.67   2
 -15  -4  -6 1574.26 560.772   3
 -15   4  -5 5624.64 1004.55   1
 -15  -4  -5 5183.25 887.408   3
 -15  -4  -4 1130.45 517.214   3
 -15   4  -4 1876.17 679.326   1
 -15  -4  -3 3683.47 658.414   3
 -15   4  -3 4218.86 807.695   1
 -15   4  -2 457.664 427.614   1
  15   4  -2 255.180 493.450   2
 -15   4  -1 1495.87 447.810   1
  15   4  -1 1593.21 588.300   2
 -15   4   0 450.147 371.516   1
  15   4   0 1457.45 574.485   2
 -15   4   1 2365.21 625.444   1
  15   4   1 2111.49 531.449   2
 -15   4   2 1726.91 633.558   1
  15   4   2 1586.86 472.010   2
  15   4   3 4935.54 872.395   2
 -15   4   3 4794.84 864.146   1
  15   4   4 2109.79 660.588   2
 -15   4   4 3378.72 755.142   1
  15  -4   5 6267.85 1100.89   2
  15   4   5 8123.08 1389.43   2
 -15   4   5 8027.15 1088.61   1
  15  -4   6 2864.12 798.698   2
 -15   4   6 4464.69 936.050   1
 -15   5  -4 4709.54 931.342   1
 -15   5  -3 6347.80 978.958   1
 -15   5  -2 5159.56 871.848   1
  15   5  -2 4708.03 885.860   2
 -15   5  -1 3004.24 704.896   1
  15   5  -1 3155.86 756.805   2
  15   5   0 7280.88 1025.19   2
 -15   5   0 6101.23 963.466   1
 -15   5   1 6314.84 1010.92   1
  15   5   1 5074.82 810.784   2
 -15   5   2 6687.81 1033.00   1
  15   5   2 7113.97 982.500   2
  15   5   3 10972.7 1218.12   2
 -15   5   3 10749.3 1289.32   1
  15   5   4 5994.51 1107.76   2
 -15   5   4 7720.88 1139.02   1
 -15   5   5 15871.6 1574.45   1
 -15   6  -3 25428.5 1942.72   1
  15   6  -3 24268.0 2320.07   2
 -15   6  -2 145.022 587.904   1
  15   6  -2 354.157 543.423   2
 -15   6  -1 25214.8 2138.15   1
  15   6  -1 26825.7 2097.98   2
 -15   6   0 459.448 461.990   1
  15   6   0 1663.85 608.767   2
  15   6   1 27301.6 1919.78   2
 -15   6   1 29663.4 2224.60   1
 -15   6   2 982.250 550.486   1
  15   6   2 1364.79 564.701   2
  15   6   3 28245.3 2084.75   2
 -15   6   3 28393.7 2165.35   1
 -15   7  -2-143.019 556.140   1
 -15   7  -1-473.240 704.466   1
 -15   7   0-52.2884 532.825   1
 -16   0  -6 57150.9 3192.38   3
 -16   0  -5-305.708 568.054   3
 -16   0  -4 91623.1 3831.05   3
 -16   0  -3-19.2614 487.648   1
  16   0  -3-208.267 365.723   2
  16   0  -2 135632. 3958.43   2
 -16   0  -2 119392. 4344.46   1
  16   0  -1 621.547 286.999   2
 -16   0  -1 503.960 442.957   1
 -16   0   0 138764. 4313.94   1
  16   0   0 140264. 3672.70   2
  16   0   1 17.6799 208.003   2
 -16   0   1 78.6272 248.213   1
 -16   0   2 129047. 4062.97   1
  16   0   2 130659. 3913.82   2
 -16   0   3 272.754 308.287   1
  16   0   3 22.8862 334.594   2
  16   0   4 98731.1 4121.46   2
 -16   0   4 102449. 3633.10   1
  16   0   5 120.939 537.212   2
  16   0   6 60714.7 3613.59   2
 -16  -1  -6 20937.2 1802.05   3
 -16   1  -6 19738.1 2015.14   3
 -16  -1  -5 2819.96 697.047   3
 -16   1  -5 3734.46 865.785   3
 -16  -1  -4 20516.8 1671.09   3
 -16   1  -4 19810.1 1763.17   1
 -16   1  -3 1237.03 513.516   1
  16  -1  -3 1222.09 263.331   2
 -16  -1  -3 1804.94 497.236   3
 -16   1  -2 21817.4 1595.56   1
  16  -1  -2 23075.6 1038.55   2
  16   1  -2 22411.2 1633.44   2
 -16  -1  -2 22378.6 1789.79   1
 -16  -1  -1 505.817 341.894   1
  16  -1  -1 842.442 211.463   2
  16   1  -1 1078.40 382.817   2
 -16   1  -1 829.452 411.566   1
 -16   1   0 22226.0 1508.42   1
  16  -1   0 23727.9 1098.18   2
  16   1   0 22907.4 1292.15   2
 -16  -1   0 23023.3 1571.63   1
 -16   1   1 535.308 335.434   1
  16  -1   1 1345.35 343.134   2
  16   1   1 1038.08 385.638   2
 -16  -1   1 1993.31 505.438   1
 -16  -1   2 22952.2 1449.37   1
  16  -1   2 24480.6 1467.58   2
  16   1   2 22777.6 1404.11   2
 -16   1   2 22868.5 1663.53   1
 -16   1   3 2189.81 526.004   1
  16  -1   3 2369.95 504.375   2
  16   1   3 2871.58 617.488   2
 -16  -1   3 3464.27 599.601   1
  16  -1   4 24017.2 1893.60   2
 -16  -1   4 26494.6 1471.81   1
  16   1   4 21977.5 1743.34   2
 -16   1   4 25263.2 1753.56   1
 -16   1   5 3521.89 647.574   1
  16  -1   5 2801.37 781.130   2
  16   1   5 2346.54 683.158   2
  16  -1   6 22233.7 2053.05   2
  16   1   6 21518.8 2215.49   2
 -16  -2  -6 1023.03 466.292   3
 -16   2  -6 1104.50 577.506   3
 -16  -2  -5 13307.1 1350.73   3
 -16   2  -5 14420.9 1639.70   1
 -16   2  -4 2148.05 662.795   1
 -16  -2  -4 2357.92 566.908   3
 -16   2  -3 23999.1 1746.10   1
 -16  -2  -3 23683.6 1592.30   3
  16   2  -2 3399.08 686.434   2
 -16  -2  -2 2962.71 557.223   3
 -16   2  -2 3416.16 702.995   1
 -16   2  -1 27298.0 1769.17   1
  16   2  -1 30054.1 1837.89   2
 -16  -2  -1 31762.1 1669.24   3
 -16   2   0 3479.67 703.164   1
 -16  -2   0 2753.85 633.702   1
  16  -2   0 3404.73 404.344   2
  16   2   0 3324.24 572.477   2
 -16  -2   0 3883.25 495.173   3
  16  -2   1 32482.9 1590.22   2
 -16   2   1 27279.0 1913.39   1
  16   2   1 26843.0 1558.62   2
 -16  -2   1 28340.8 1854.21   1
 -16   2   2 2114.96 514.278   1
  16  -2   2 2960.26 561.469   2
 -16  -2   2 3611.66 643.360   1
  16   2   2 3320.81 603.163   2
  16  -2   3 24955.1 1704.93   2
  16   2   3 23214.7 1648.82   2
 -16   2   3 23256.3 1690.93   1
 -16  -2   3 22567.1 1456.94   1
 -16   2   4 2751.44 644.877   1
  16  -2   4 2277.23 622.299   2
  16   2   4 1832.33 588.603   2
  16   2   5 16766.0 1709.97   2
 -16   2   5 17310.9 1525.25   1
  16  -2   5 14790.7 1532.47   2
  16  -2   6 1077.36 431.855   2
  16   2   6-532.580 902.137   2
 -16  -3  -6 5094.79 905.135   3
 -16  -3  -5 17083.4 1527.88   3
 -16   3  -5 16720.5 1745.23   1
 -16  -3  -4 9486.97 1082.12   3
 -16   3  -4 10669.5 1229.17   1
 -16   3  -3 16500.7 1461.81   1
 -16  -3  -3 17420.1 1387.99   3
 -16   3  -2 12439.0 1204.82   1
  16   3  -2 13008.4 1382.34   2
 -16  -3  -2 11119.7 1002.96   3
 -16   3  -1 12707.5 1274.58   1
  16   3  -1 15863.5 1445.24   2
 -16   3   0 11974.7 1311.61   1
  16   3   0 13993.1 1227.37   2
 -16   3   1 14225.0 1344.74   1
  16   3   1 16684.1 1287.63   2
  16   3   2 12299.4 1141.68   2
 -16   3   2 11285.0 1232.06   1
  16  -3   2 13449.8 1088.84   2
  16   3   3 20144.1 1559.57   2
 -16   3   3 19299.1 1588.84   1
  16  -3   3 19452.8 1460.56   2
  16   3   4 8200.59 1151.61   2
 -16   3   4 10640.0 1204.81   1
  16  -3   4 8999.56 1091.83   2
  16   3   5 21578.0 1999.11   2
 -16   3   5 21948.9 1777.90   1
  16  -3   5 23076.4 1856.81   2
  16  -3   6 4616.53 988.581   2
 -16   3   6 7921.57 1144.20   1
 -16  -4  -5 29699.2 2139.27   3
 -16   4  -5 33870.5 2402.85   1
 -16   4  -4 24643.2 1896.11   1
 -16   4  -3 44975.5 2492.32   1
 -16   4  -2 29657.9 1977.41   1
  16   4  -2 32490.1 2325.89   2
 -16   4  -1 56443.9 3002.22   1
  16   4  -1 56519.1 2927.08   2
 -16   4   0 31905.1 2209.55   1
  16   4   0 35575.1 2072.36   2
  16   4   1 58796.9 2692.01   2
 -16   4   1 58677.3 2963.88   1
  16   4   2 30247.6 1890.93   2
 -16   4   2 30553.8 2083.20   1
  16   4   3 49598.7 2601.42   2
 -16   4   3 46391.9 2615.37   1
  16   4   4 29231.1 2146.63   2
 -16   4   4 25284.2 1922.61   1
  16   4   5 31952.9 2513.49   2
 -16   4   5 34547.0 2265.87   1
 -16   4   6 15056.1 1553.25   1
 -16   5  -4 10255.5 1320.80   1
  16   5  -3 1240.57 593.469   2
 -16   5  -3 1797.62 642.663   1
 -16   5  -2 9109.73 1198.90   1
  16   5  -2 8932.26 1239.02   2
 -16   5  -1 749.533 428.507   1
  16   5  -1 874.406 470.500   2
  16   5   0 8227.11 1067.78   2
 -16   5   0 7535.14 1110.21   1
 -16   5   1 82.8711 405.617   1
  16   5   1 1471.82 550.569   2
  16   5   2 8864.62 1091.80   2
 -16   5   2 11328.2 1340.63   1
  16   5   3 979.314 534.745   2
 -16   5   3 705.576 562.930   1
  16   5   4 11859.1 1452.94   2
 -16   5   4 13402.1 1469.00   1
 -16   6  -3 4815.69 919.452   1
 -16   6  -2 14680.3 1593.40   1
  16   6  -2 14782.3 1662.17   2
 -16   6  -1 4490.78 954.149   1
  16   6  -1 7177.86 1082.58   2
 -16   6   0 17985.5 1792.34   1
  16   6   0 18440.6 1621.35   2
 -16   6   1 7321.63 1198.46   1
  16   6   1 6218.50 935.367   2
  16   6   2 16501.9 1487.03   2
 -16   6   2 14509.8 1610.58   1
 -17   0  -6 52.9140 467.634   3
 -17   0  -5 70432.4 3491.60   3
 -17   0  -4 301.037 357.376   3
  17   0  -3 124827. 4028.30   2
 -17   0  -3 105565. 4216.01   1
 -17   0  -2 104.332 335.513   1
  17   0  -2 164.541 249.403   2
  17   0  -1 137025. 3631.04   2
 -17   0  -1 131307. 4353.97   1
  17   0   0 371.263 217.810   2
 -17   0   0 455.199 404.122   1
 -17   0   1 127209. 4045.03   1
  17   0   1 123665. 3535.90   2
  17   0   2 624.481 338.496   2
 -17   0   2 528.972 354.101   1
 -17   0   3 101262. 3525.34   1
  17   0   3 97646.6 3558.09   2
 -17   0   4 410.176 334.210   1
  17   0   4-355.218 527.965   2
  17   0   5 66137.2 3466.26   2
  17   0   6 94.7306 565.561   2
 -17  -1  -6 23249.5 1957.01   3
 -17   1  -6 26793.3 2272.81   3
 -17  -1  -5 20418.7 1742.96   3
 -17   1  -5 21252.8 1850.33   3
 -17  -1  -4 36117.1 2238.00   3
 -17   1  -4 31070.5 2266.15   1
  17   1  -3 32510.4 2050.86   2
 -17  -1  -3 28411.6 1825.82   3
 -17   1  -3 26901.4 1925.71   1
 -17   1  -2 45739.9 2379.76   1
  17  -1  -2 47310.0 1580.68   2
  17   1  -2 49064.7 2489.88   2
 -17  -1  -2 42069.7 2478.78   1
 -17   1  -1 39079.9 2095.86   1
  17  -1  -1 39927.3 1410.11   2
  17   1  -1 40349.4 1893.54   2
 -17  -1  -1 38885.8 2185.86   1
 -17   1   0 45845.5 2306.36   1
  17  -1   0 51541.6 1759.56   2
  17   1   0 48711.6 2006.30   2
 -17  -1   0 50047.3 2403.82   1
 -17   1   1 39462.6 2129.78   1
  17  -1   1 41530.5 1714.74   2
  17   1   1 40130.8 1813.40   2
 -17  -1   1 44320.7 2148.51   1
 -17  -1   2 49083.4 2204.93   1
  17  -1   2 44277.5 2021.71   2
 -17   1   2 41420.4 2263.18   1
  17   1   2 46211.7 2091.41   2
 -17  -1   3 34381.8 1787.68   1
  17  -1   3 31503.2 1879.35   2
  17   1   3 33203.1 1882.57   2
 -17   1   3 30189.2 2009.12   1
  17  -1   4 37098.7 2364.77   2
  17   1   4 36806.7 2203.48   2
 -17   1   4 40679.5 2375.83   1
  17  -1   5 23781.9 2060.54   2
  17   1   5 22363.1 1881.49   2
 -17   1   5 25839.9 1900.26   1
  17  -1   6 22867.2 2164.21   2
  17   1   6 23052.3 2184.36   2
 -17  -2  -6 69518.1 3402.43   3
 -17  -2  -5 19506.1 1666.25   3
 -17   2  -5 20636.5 1895.61   1
 -17  -2  -4 127648. 4481.50   3
 -17   2  -4 127999. 4707.00   1
 -17  -2  -3 34737.5 1995.41   3
 -17   2  -3 33918.3 2115.34   1
 -17   2  -2 185443. 5647.05   1
  17   2  -2 193913. 6115.60   2
 -17  -2  -2 196926. 5435.05   3
 -17   2  -1 39298.2 2156.00   1
  17   2  -1 42156.7 2169.16   2
 -17  -2  -1 42289.7 1897.04   3
  17   2   0 218726. 5632.94   2
 -17  -2   0 209163. 6293.48   1
  17  -2   1 40681.7 1771.73   2
 -17   2   1 36105.7 2262.44   1
  17   2   1 36713.6 1862.59   2
 -17  -2   1 38624.5 2175.81   1
  17  -2   2 199414. 5408.16   2
  17   2   2 180010. 5171.18   2
 -17   2   2 174101. 5792.49   1
 -17  -2   2 189679. 5501.13   1
  17  -2   3 38664.6 2207.40   2
  17   2   3 36288.1 2036.89   2
 -17   2   3 32313.3 2138.33   1
 -17  -2   3 34899.2 1848.84   1
  17  -2   4 129419. 4743.98   2
  17   2   4 127635. 4556.44   2
 -17   2   4 129499. 4670.17   1
  17   2   5 23433.6 1935.64   2
 -17   2   5 25579.1 1897.69   1
  17  -2   5 21408.8 1861.19   2
  17   2   6 71421.0 3861.01   2
  17  -2   6 67608.9 3708.51   2
 -17  -3  -6 27569.0 2054.86   3
 -17   3  -5 439.527 449.908   1
 -17  -3  -5 352.266 409.470   3
 -17  -3  -4 42664.7 2380.93   3
 -17   3  -4 43968.7 2557.72   1
 -17  -3  -3 574.865 377.170   3
 -17   3  -3 322.488 400.788   1
 -17   3  -2 53273.6 2635.70   1
  17   3  -2 53790.4 2917.79   2
 -17   3  -1 297.359 390.365   1
  17   3  -1 804.393 469.212   2
 -17   3   0 52246.2 2848.94   1
  17   3   0 56888.8 2553.73   2
 -17   3   1-361.072 617.006   1
  17   3   1 621.626 385.972   2
  17   3   2 54953.3 2500.66   2
 -17   3   2 54640.4 2824.12   1
 -17   3   3 609.225 358.879   1
  17   3   3 255.714 346.988   2
  17   3   4 48875.6 2667.94   2
 -17   3   4 46285.2 2637.53   1
  17  -3   4 46320.0 2599.12   2
  17  -3   5 730.292 476.140   2
 -17   3   5 1865.70 627.460   1
  17   3   5 742.858 517.688   2
  17  -3   6 29407.3 2418.13   2
 -17   4  -5 21586.0 1920.80   1
 -17   4  -4 24575.6 1884.63   1
 -17   4  -3 37423.9 2262.24   1
  17   4  -3 41121.0 2718.77   2
 -17   4  -2 33164.8 2124.86   1
  17   4  -2 38084.7 2529.66   2
 -17   4  -1 51422.8 2819.70   1
  17   4  -1 51464.5 2724.97   2
 -17   4   0 41193.0 2600.06   1
  17   4   0 40597.5 2259.33   2
 -17   4   1 54909.1 2943.60   1
  17   4   1 50494.6 2499.54   2
  17   4   2 35647.1 2073.90   2
 -17   4   2 36863.5 2377.18   1
  17   4   3 38673.9 2291.65   2
 -17   4   3 39384.5 2459.59   1
  17   4   4 23433.3 1890.56   2
 -17   4   4 24421.9 1966.66   1
 -17   4   5 24393.4 1969.67   1
 -17   5  -4 795.604 544.851   1
 -17   5  -3 49283.0 2747.00   1
  17   5  -3 53065.7 3246.61   2
 -17   5  -2-43.4199 427.046   1
  17   5  -2-483.793 589.938   2
 -17   5  -1 55500.6 3197.48   1
  17   5  -1 56981.5 2943.16   2
 -17   5   0-253.679 669.059   1
  17   5   0 772.453 511.410   2
  17   5   1 56295.7 2712.99   2
 -17   5   1 57319.2 3129.64   1
 -17   5   2-225.774 409.357   1
  17   5   2 48.4128 301.770   2
  17   5   3 55615.0 2870.34   2
 -17   5   3 58695.9 3173.43   1
 -17   5   4 1763.48 674.528   1
 -17   6  -3 64197.6 3260.00   1
 -17   6  -2 8546.22 1208.91   1
 -17   6  -1 96246.0 4589.01   1
  17   6  -1 95887.6 4100.90   2
  17   6   0 9706.52 1174.20   2
 -17   6   0 6951.64 1110.90   1
  17   6   1 95689.9 3837.07   2
 -17   6   1 100740. 4492.57   1
  17   6   2 8019.01 1036.36   2
 -18   0  -6 95835.0 4183.59   3
 -18   0  -5 435.687 426.942   3
 -18   0  -4 133254. 4611.48   3
 -18   0  -3 651.029 443.131   1
  18   0  -3 127.693 297.416   2
  18   0  -2 231695. 5570.66   2
 -18   0  -2 209424. 6290.72   1
  18   0  -1-67.0335 190.178   2
 -18   0  -1 191.780 386.295   1
 -18   0   0 254210. 6766.76   1
  18   0   0 260727. 5983.93   2
  18   0   1 254.838 245.916   2
 -18   0   1 729.372 496.407   1
 -18   0   2 222941. 5940.55   1
  18   0   2 209479. 5516.24   2
  18   0   3 405.176 325.610   2
 -18   0   3 529.737 378.463   1
  18   0   4 148635. 5009.27   2
 -18   0   4 162660. 4831.63   1
  18   0   5 484.130 498.896   2
  18   0   6 87354.4 4245.54   2
 -18  -1  -6 36716.9 2421.59   3
 -18  -1  -5 5251.95 917.803   3
 -18   1  -5 5693.74 1004.23   3
 -18  -1  -4 60203.3 2855.20   3
 -18   1  -4 58088.7 3047.65   1
 -18   1  -3 7576.66 1000.83   1
 -18  -1  -3 8801.56 988.941   3
  18   1  -3 7158.66 959.453   2
  18   1  -2 76727.1 3002.30   2
 -18  -1  -2 67340.0 3232.51   1
 -18   1  -2 72614.8 3122.77   1
 -18   1  -1 8951.28 1024.99   1
  18  -1  -1 10430.5 663.092   2
  18   1  -1 10619.0 947.341   2
 -18  -1  -1 9037.63 1036.45   1
 -18   1   0 73848.5 3022.35   1
  18  -1   0 78018.3 2324.90   2
  18   1   0 72579.8 2591.39   2
 -18  -1   0 72089.4 3011.06   1
 -18   1   1 9127.62 1020.76   1
  18  -1   1 10184.6 797.363   2
  18   1   1 8954.36 837.360   2
 -18  -1   1 10461.0 1042.63   1
 -18  -1   2 72664.9 2871.00   1
  18  -1   2 72749.7 2665.54   2
 -18   1   2 68368.6 3007.53   1
  18   1   2 70631.8 2700.42   2
 -18  -1   3 9316.80 942.104   1
  18  -1   3 8726.41 972.551   2
 -18   1   3 8111.25 1017.36   1
  18   1   3 7983.75 933.035   2
  18  -1   4 60742.9 2946.34   2
  18   1   4 58919.5 2841.58   2
 -18   1   4 67666.8 3151.34   1
  18  -1   5 5633.10 1008.44   2
  18   1   5 5465.50 934.960   2
  18  -1   6 36188.0 2629.40   2
  18   1   6 38388.1 2700.55   2
 -18  -2  -6 6174.59 990.556   3
 -18  -2  -5 47074.5 2626.05   3
 -18   2  -5 47058.2 2923.33   1
 -18  -2  -4 8555.79 1017.16   3
 -18   2  -4 8846.89 1137.90   1
  18   2  -3 80481.1 3610.70   2
 -18  -2  -3 80660.6 3145.82   3
 -18   2  -3 85302.1 3514.48   1
 -18   2  -2 16671.5 1429.23   1
  18   2  -2 18180.8 1572.89   2
 -18  -2  -2 15505.3 1175.30   3
  18   2  -1 114654. 3841.87   2
 -18  -2  -1 109984. 3319.65   3
 -18   2   0 21101.9 1578.13   1
  18   2   0 20834.5 1364.79   2
 -18  -2   0 21872.7 1698.69   1
 -18   2   1 97800.3 3870.72   1
  18   2   1 97552.6 3315.62   2
 -18  -2   1 100371. 3747.09   1
  18  -2   2 17487.5 1225.77   2
 -18   2   2 16210.9 1537.04   1
  18   2   2 15997.9 1255.44   2
 -18  -2   2 18009.2 1394.91   1
  18  -2   3 82313.1 3242.49   2
  18   2   3 80398.9 3186.93   2
 -18   2   3 82810.0 3654.75   1
  18  -2   4 8857.88 1080.37   2
  18   2   4 8633.15 1095.64   2
 -18   2   4 8914.10 1125.56   1
  18   2   5 47697.5 2769.73   2
 -18   2   5 53888.7 2925.46   1
  18  -2   5 45617.9 2735.15   2
  18  -2   6 5772.23 963.921   2
 -18  -3  -5 41068.9 2421.90   3
 -18   3  -5 34830.4 2456.76   1
 -18  -3  -4 10102.2 1147.34   3
 -18   3  -4 10132.2 1254.01   1
 -18   3  -3 62493.6 2963.67   1
  18   3  -3 56502.6 3149.49   2
 -18   3  -2 16427.2 1433.04   1
  18   3  -2 17037.4 1628.93   2
 -18   3  -1 69973.3 3124.27   1
  18   3  -1 65564.9 3002.71   2
 -18   3   0 19127.7 1623.05   1
  18   3   0 22754.9 1548.96   2
 -18   3   1 70092.4 3419.23   1
  18   3   1 71895.3 2899.47   2
  18   3   2 18207.5 1387.54   2
 -18   3   2 16720.8 1573.70   1
  18   3   3 59006.3 2735.96   2
 -18   3   3 59026.9 3044.84   1
  18   3   4 11928.9 1310.10   2
 -18   3   4 10174.0 1258.06   1
  18   3   5 43990.0 2721.93   2
 -18   3   5 45241.2 2747.12   1
 -18   4  -5 45674.1 2801.52   1
 -18   4  -4 49053.7 2752.57   1
 -18   4  -3 73118.5 3369.34   1
  18   4  -3 84578.3 3994.93   2
 -18   4  -2 58759.8 2954.24   1
  18   4  -2 62642.1 3349.51   2
 -18   4  -1 84686.8 3758.95   1
  18   4  -1 93397.0 3762.47   2
 -18   4   0 63514.4 3396.14   1
  18   4   0 65220.4 2904.85   2
 -18   4   1 86516.7 3960.67   1
  18   4   1 89894.3 3440.97   2
  18   4   2 60177.3 2768.21   2
 -18   4   2 57404.9 3107.48   1
  18   4   3 76797.2 3342.98   2
 -18   4   3 73046.1 3544.15   1
  18   4   4 48693.7 2727.86   2
 -18   4   4 48889.4 2865.31   1
 -18   4   5 49192.9 2913.59   1
 -18   5  -4 22048.2 1884.99   1
  18   5  -3 3098.22 827.334   2
 -18   5  -3 4144.32 863.843   1
 -18   5  -2 30021.9 2161.13   1
  18   5  -2 32423.8 2365.12   2
 -18   5  -1 5191.43 951.260   1
  18   5  -1 6256.20 1014.93   2
 -18   5   0 38491.1 2678.85   1
  18   5   0 38926.8 2257.87   2
 -18   5   1 5339.58 964.110   1
  18   5   1 5823.17 860.865   2
  18   5   2 35080.7 2151.73   2
 -18   5   2 31419.5 2352.15   1
 -18   5   3 4290.33 927.369   1
  18   5   3 4365.39 862.404   2
 -18   6  -2 41732.5 2686.09   1
 -18   6  -1 7282.91 1204.04   1
 -18   6   0 48318.1 3121.14   1
 -19   0  -5 24521.7 1903.83   3
 -19   0  -4 547.866 422.459   3
 -19   0  -3 33043.4 2158.07   1
 -19   0  -2 120.790 383.705   1
  19   0  -2 643.190 366.049   2
  19   0  -1 47733.5 1824.28   2
 -19   0  -1 43054.5 2276.74   1
  19   0   0 1183.84 323.728   2
 -19   0   0 832.463 446.452   1
 -19   0   1 44457.2 2221.87   1
  19   0   1 44434.7 1884.51   2
  19   0   2 758.799 371.491   2
 -19   0   2 230.166 328.844   1
 -19   0   3 36964.5 2012.09   1
  19   0   3 37500.7 1980.16   2
  19   0   4-381.232 457.564   2
 -19   0   4 345.865 397.903   1
  19   0   5 23284.9 1868.49   2
 -19  -1  -5 8744.33 1100.10   3
 -19   1  -5 10352.8 1264.80   3
  19   1  -4 22055.4 1763.35   2
 -19  -1  -4 21914.5 1649.38   3
 -19   1  -4 19818.5 1747.86   1
  19   1  -3 9908.95 1125.89   2
 -19  -1  -3 10048.6 1032.10   3
 -19   1  -3 9437.22 1125.41   1
  19   1  -2 27255.9 1642.00   2
 -19  -1  -2 26093.2 1914.32   1
 -19   1  -2 27682.9 1848.53   1
 -19   1  -1 10666.0 1105.73   1
  19   1  -1 10806.1 920.015   2
 -19  -1  -1 9110.71 1042.15   1
 -19   1   0 27296.3 1750.16   1
  19  -1   0 28541.7 1262.75   2
  19   1   0 26956.9 1457.59   2
 -19  -1   0 27402.0 1767.25   1
 -19   1   1 11239.9 1153.86   1
  19  -1   1 11999.3 885.544   2
  19   1   1 10936.2 925.542   2
 -19  -1   1 10946.6 1090.61   1
  19  -1   2 27972.3 1513.97   2
 -19   1   2 25953.6 1766.71   1
  19   1   2 25362.5 1528.89   2
 -19  -1   2 26015.4 1648.00   1
 -19  -1   3 12081.5 1086.56   1
  19  -1   3 10467.7 1031.27   2
  19   1   3 12073.1 1114.16   2
 -19   1   3 10674.8 1150.59   1
  19  -1   4 22386.6 1667.06   2
  19   1   4 21657.0 1635.72   2
 -19   1   4 23624.9 1754.93   1
  19  -1   5 11939.5 1348.55   2
  19   1   5 11437.9 1287.04   2
  19  -1   6 15088.5 1599.08   2
 -19  -2  -5 7742.16 987.746   3
 -19  -2  -4 48514.3 2408.52   3
 -19   2  -4 48339.2 2730.68   1
  19   2  -3 14230.1 1437.17   2
 -19  -2  -3 15472.9 1233.86   3
 -19   2  -3 15881.9 1447.31   1
 -19   2  -2 75028.2 3190.41   1
  19   2  -2 68991.0 3088.52   2
 -19  -2  -2 71995.0 2688.56   3
 -19   2  -1 20256.9 1565.69   1
  19   2  -1 20589.3 1441.89   2
 -19   2   0 74588.5 3175.25   1
  19   2   0 76047.7 2852.19   2
 -19   2   1 18404.0 1537.63   1
  19   2   1 18813.6 1311.55   2
 -19  -2   1 17814.3 1461.86   1
 -19   2   2 66152.8 3234.02   1
  19   2   2 70143.6 2788.85   2
 -19  -2   2 72237.7 2990.24   1
  19  -2   3 14822.7 1238.99   2
  19   2   3 15779.3 1308.39   2
 -19   2   3 14210.8 1492.27   1
  19  -2   4 56337.2 2711.19   2
  19   2   4 55735.8 2750.30   2
 -19   2   4 57189.5 3082.17   1
 -19   2   5 10314.7 1310.08   1
  19  -2   5 7790.61 1048.08   2
  19   2   5 8243.23 1120.40   2
  19  -2   6 29548.2 2229.10   2
 -19   3  -5 767.340 530.148   1
  19   3  -4 16549.7 1716.92   2
 -19   3  -4 18140.4 1625.02   1
 -19   3  -3 506.492 470.592   1
  19   3  -3 394.614 410.705   2
 -19   3  -2 17293.9 1503.26   1
  19   3  -2 16261.7 1508.42   2
 -19   3  -1 593.770 421.129   1
  19   3  -1 1480.76 567.468   2
 -19   3   0 18566.4 1601.97   1
  19   3   0 16786.6 1308.14   2
 -19   3   1 302.382 407.667   1
  19   3   1 241.487 349.076   2
  19   3   2 22256.8 1544.44   2
 -19   3   2 15300.5 1558.85   1
 -19   3   3-282.409 605.561   1
  19   3   3 1115.70 520.363   2
  19   3   4 18582.8 1585.59   2
 -19   3   4 18724.1 1776.65   1
 -19   3   5-361.028 545.224   1
  19   4  -4 12235.1 1551.34   2
 -19   4  -4 13522.7 1403.04   1
 -19   4  -3 12789.2 1401.86   1
  19   4  -3 11549.5 1402.30   2
 -19   4  -2 18464.0 1604.39   1
  19   4  -2 17592.3 1632.44   2
 -19   4  -1 15931.9 1497.16   1
  19   4  -1 16681.6 1476.17   2
 -19   4   0 16455.9 1649.62   1
  19   4   0 21419.0 1587.18   2
 -19   4   1 16804.3 1695.98   1
  19   4   1 15830.5 1356.36   2
  19   4   2 18422.4 1467.08   2
 -19   4   2 16135.6 1637.09   1
  19   4   3 13359.3 1333.12   2
 -19   4   3 13162.6 1517.50   1
 -19   4   4 13132.7 1494.10   1
 -19   5  -3 26602.1 1990.91   1
 -19   5  -2 1194.50 567.663   1
  19   5  -2 1257.30 512.731   2
 -19   5  -1 27599.8 2172.14   1
  19   5  -1 32427.8 2144.77   2
 -19   5   0 107.737 724.446   1
  19   5   0 2351.83 633.969   2
 -19   5   1 28542.7 2306.49   1
  19   5   1 28398.4 1890.36   2
 -19   5   2 1899.10 660.977   1
  19   5   2 2012.39 569.793   2
 -20   0  -5 606.446 442.484   3
 -20   0  -4 28104.2 1861.90   3
 -20   0  -3-341.784 478.183   1
 -20   0  -2 34276.4 2086.02   1
  20   0  -1 151.937 171.461   2
 -20   0  -1 148.603 378.496   1
 -20   0   0 31675.9 1915.01   1
  20   0   0 36171.6 1606.39   2
  20   0   1 373.487 286.681   2
 -20   0   1 300.902 388.020   1
 -20   0   2 32416.8 1901.46   1
  20   0   2 33566.1 1733.11   2
  20   0   3-24.4041 260.355   2
 -20   0   3 405.388 334.381   1
  20   0   4 29659.9 1865.27   2
  20   0   5 870.762 601.103   2
 -20  -1  -5 3569.56 745.586   3
 -20   1  -5 3785.04 813.075   3
 -20   1  -4 6307.92 975.151   1
 -20  -1  -4 6518.57 894.088   3
 -20   1  -3 2404.58 613.019   1
  20   1  -3 2621.64 584.866   2
 -20  -1  -3 3242.58 607.645   3
 -20  -1  -2 2622.00 618.260   1
 -20   1  -2 3923.63 769.024   1
 -20  -1  -1 2049.52 542.760   1
  20   1  -1 2543.61 452.306   2
 -20   1  -1 3038.45 672.922   1
 -20  -1   0 3010.32 638.282   1
  20   1   0 2597.56 458.206   2
 -20   1   0 3207.23 703.086   1
  20  -1   1 3791.30 516.946   2
  20   1   1 3751.13 592.833   2
 -20  -1   1 4130.26 715.033   1
 -20   1   1 3600.35 705.281   1
 -20   1   2 6573.53 868.462   1
  20  -1   2 7152.30 734.286   2
  20   1   2 7767.90 851.448   2
 -20  -1   2 8646.13 954.340   1
 -20   1   3 4733.13 797.655   1
  20  -1   3 5984.12 798.689   2
  20   1   3 4743.67 727.818   2
 -20  -1   3 5436.35 780.876   1
  20  -1   4 10938.1 1158.12   2
  20   1   4 9807.32 1088.89   2
 -20   1   4 11101.6 1200.51   1
  20  -1   5 4700.03 868.468   2
  20   1   5 5493.57 856.594   2
 -20  -2  -5 3922.20 694.384   3
 -20  -2  -4 443.890 320.314   3
  20   2  -4-27.0499 446.923   2
 -20   2  -3 5654.40 910.975   1
  20   2  -3 5740.44 904.649   2
  20   2  -2 1405.17 482.815   2
 -20   2  -2 1739.89 635.213   1
 -20   2  -1 7100.14 973.000   1
  20   2  -1 7114.90 870.681   2
  20   2   0 113.875 306.704   2
 -20   2   0 489.431 440.858   1
 -20   2   1 6393.75 952.997   1
 -20  -2   1 5684.81 814.746   1
  20   2   1 6058.75 755.724   2
 -20   2   2-28.9737 461.317   1
 -20  -2   2 583.376 339.393   1
  20   2   2 877.806 388.816   2
 -20   2   3 6223.33 973.910   1
  20   2   3 7507.49 934.466   2
 -20   2   4 261.063 617.706   1
  20   2   4 1739.66 583.955   2
 -20   3  -4 4875.95 889.401   1
  20   3  -4 4748.79 976.606   2
 -20   3  -3 4621.31 845.320   1
  20   3  -3 4423.21 865.913   2
  20   3  -2 5776.03 924.290   2
 -20   3  -2 5558.01 919.528   1
  20   3  -1 1930.91 590.233   2
 -20   3  -1 1131.28 539.461   1
 -20   3   0 4181.05 780.854   1
  20   3   0 3735.52 627.616   2
 -20   3   1 1106.95 501.875   1
  20   3   1 1497.95 449.529   2
 -20   3   2 3695.65 813.530   1
  20   3   2 4903.00 756.625   2
  20   3   3 7703.24 1019.39   2
 -20   3   3 7860.36 1142.66   1
 -20   3   4 5318.48 922.681   1
  20   3   4 6038.32 918.813   2
 -20   3   5 14190.7 1584.74   1
 -20   4  -3 13231.2 1376.10   1
  20   4  -3 11641.5 1452.26   2
 -20   4  -2 10102.1 1240.96   1
  20   4  -2 9641.39 1246.34   2
 -20   4  -1 14317.7 1480.50   1
  20   4  -1 17896.7 1514.83   2
 -20   4   0 12508.5 1405.19   1
  20   4   0 12370.1 1200.32   2
 -20   4   1 14076.8 1583.33   1
  20   4   1 17903.9 1421.29   2
  20   4   2 10517.3 1114.14   2
 -20   4   2 9111.16 1292.31   1
  20   4   3 14535.1 1368.46   2
 -20   4   3 13199.6 1517.46   1
 -20   5  -1 1054.08 609.048   1
  20   5  -1 1586.88 572.033   2
 -20   5   0-1084.13 725.683   1
  20   5   0 81.1324 333.201   2
 -20   5   1-66.5546 612.562   1
  20   5   1 1334.77 518.703   2
 -21   0  -5 4442.43 836.879   3
 -21   0  -4 426.192 409.796   3
 -21   0  -3 3607.88 710.407   1
 -21   0  -2 290.465 395.887   1
 -21   0  -1 6433.60 892.644   1
  21   0   0 323.225 237.207   2
 -21   0   0 566.987 432.915   1
  21   0   1 7039.36 720.309   2
 -21   0   1 6709.47 894.964   1
  21   0   2 724.475 348.203   2
 -21   0   2 306.060 375.105   1
 -21   0   3 7345.98 936.598   1
  21   0   3 6587.92 831.976   2
  21   0   4-226.859 377.252   2
  21   0   5 5738.80 984.820   2
 -21  -1  -5 6229.20 879.007   3
 -21   1  -4 4531.48 912.326   1
 -21  -1  -4 5115.60 786.235   3
 -21   1  -3 2043.58 639.537   1
 -21  -1  -3 2470.34 547.849   3
  21   1  -2 5561.64 714.891   2
 -21   1  -2 4830.38 814.031   1
 -21  -1  -2 4368.79 647.422   3
 -21  -1  -1 1322.93 505.866   1
  21   1  -1 798.050 319.336   2
 -21   1  -1 428.844 417.723   1
 -21  -1   0 3035.16 634.299   1
  21   1   0 4093.18 603.757   2
 -21   1   0 4491.89 804.381   1
  21   1   1 2326.74 475.150   2
 -21  -1   1 2822.88 616.875   1
 -21   1   1 1700.66 520.044   1
  21   1   2 5798.47 768.976   2
 -21  -1   2 5290.94 758.280   1
 -21   1   2 5690.63 851.682   1
 -21   1   3 6060.80 878.583   1
  21  -1   3 7013.94 855.932   2
  21   1   3 5686.65 785.508   2
 -21  -1   3 6777.26 853.299   1
  21  -1   4 7174.95 926.563   2
 -21   1   4 8023.55 1050.90   1
  21   1   4 6229.27 860.824   2
  21  -1   5 10741.6 1242.73   2
  21   1   5 10885.1 1228.44   2
 -21   2  -4 19467.1 1700.60   1
 -21   2  -3 4100.03 854.053   1
  21   2  -3 4327.32 777.922   2
 -21   2  -2 24633.9 1802.75   1
  21   2  -2 26042.3 1734.92   2
  21   2  -1 5959.54 771.021   2
 -21   2  -1 7355.89 991.649   1
 -21   2   0 26609.5 1843.10   1
  21   2   0 23014.7 1493.65   2
 -21   2   1 6518.76 953.277   1
  21   2   1 7714.92 868.314   2
 -21  -2   1 6051.96 857.617   1
 -21   2   2 24800.9 1855.43   1
  21   2   2 24567.8 1576.70   2
 -21  -2   2 25657.0 1728.83   1
 -21   2   3 4117.39 834.942   1
  21   2   3 5485.41 829.773   2
  21   2   4 22043.1 1677.86   2
 -21   2   4 20627.9 1824.05   1
  21   3  -4 5425.84 926.586   2
 -21   3  -3 1803.51 592.144   1
  21   3  -3 1273.52 512.123   2
  21   3  -2 2259.66 627.844   2
 -21   3  -2 2092.02 676.564   1
  21   3  -1 1838.65 568.819   2
 -21   3  -1 1642.03 628.286   1
 -21   3   0-323.837 453.635   1
  21   3   0 358.680 282.651   2
 -21   3   1 929.141 522.562   1
  21   3   1 1059.16 399.860   2
 -21   3   2 3716.53 836.693   1
  21   3   2 4592.18 753.023   2
 -21   3   3 742.544 558.086   1
  21   3   3 1954.12 562.954   2
 -21   3   4 7787.96 1183.22   1
  21   4  -3 3690.08 840.244   2
  21   4  -2 1475.93 569.113   2
 -21   4  -2 1351.74 596.476   1
 -21   4  -1 3279.58 754.648   1
  21   4  -1 3691.12 741.177   2
 -21   4   0 212.803 471.336   1
  21   4   0 1453.01 434.697   2
 -21   4   1 1615.90 481.797   1
  21   4   1 2781.94 597.296   2
 -21   4   2 504.303 507.114   1
  21   4   2 1579.59 552.006   2
 -22   0  -4 48448.5 2494.16   3
 -22   0  -3-371.055 443.844   1
 -22   0  -2 69469.5 3133.75   1
 -22   0  -1 85.1434 400.027   1
 -22   0   0 75106.7 3176.92   1
  22   0   1 228.525 268.972   2
 -22   0   1-453.192 349.987   1
 -22   0   2 70389.3 3033.45   1
  22   0   2 75097.1 2758.05   2
  22   0   3-41.6478 327.198   2
 -22   0   3 804.835 467.306   1
  22   0   4 53838.6 2605.49   2
 -22  -1  -4 14967.8 1272.44   3
 -22   1  -3 1821.15 602.556   1
 -22  -1  -3 2197.85 540.628   3
 -22   1  -2 17993.2 1529.93   1
 -22  -1  -1 1941.51 540.688   1
  22   1  -1 1695.56 415.063   2
 -22   1  -1 1797.29 572.688   1
 -22   1   0 18685.6 1506.47   1
  22   1   0 17212.7 1178.47   2
 -22  -1   0 16875.2 1409.33   1
  22   1   1 2620.22 506.656   2
 -22  -1   1 1932.25 547.283   1
 -22   1   1 2065.94 561.446   1
 -22   1   2 16174.6 1421.16   1
  22   1   2 16744.2 1249.07   2
 -22  -1   2 18725.1 1446.29   1
  22   1   3 2553.77 545.594   2
 -22   1   3 3181.46 737.964   1
  22   1   4 17259.1 1426.36   2
  22   2  -3 17500.6 1494.61   2
 -22   2  -3 15149.5 1478.76   1
  22   2  -2 2557.74 610.459   2
 -22   2  -2 3111.80 790.107   1
 -22   2  -1 21406.0 1655.29   1
  22   2  -1 19417.8 1382.03   2
  22   2   0 2566.43 523.016   2
 -22   2   0 3933.71 800.701   1
 -22   2   1 21881.2 1697.07   1
  22   2   1 19186.2 1370.96   2
 -22   2   2 1833.78 580.944   1
 -22  -2   2 2310.63 558.926   1
  22   2   2 2693.93 552.636   2
 -22   2   3 16943.2 1594.98   1
  22   2   3 17214.9 1400.22   2
 -22   2   4 1178.11 500.929   1
  22   2   4 1662.46 518.375   2
  22   3  -3 13964.3 1424.33   2
  22   3  -2 7579.43 1021.28   2
 -22   3  -2 7803.91 1083.88   1
 -22   3  -1 15027.9 1484.78   1
  22   3  -1 14283.6 1280.78   2
  22   3   0 7134.59 887.460   2
 -22   3   0 7919.23 1113.21   1
 -22   3   1 14673.5 1471.65   1
  22   3   1 14341.8 1246.71   2
 -22   3   2 5339.98 932.718   1
  22   3   2 7596.21 929.370   2
  22   3   3 16392.7 1413.80   2
 -22   3   3 13931.9 1516.49   1
  22   4  -2 21648.6 1769.37   2
  22   4  -1 34654.0 2125.70   2
 -22   4   0 19967.4 1815.39   1
  22   4   0 24765.0 1734.94   2
  22   4   1 32829.1 1984.09   2
 -23   0  -4-28.8304 288.809   3
 -23   0  -3 51022.6 2777.24   1
 -23   0  -2 118.177 443.134   1
 -23   0  -1 58005.5 2801.79   1
 -23   0   0 146.128 354.194   1
 -23   0   1 60973.4 2819.20   1
 -23   0   2 292.738 353.697   1
 -23   0   3 50783.6 2532.36   1
  23   0   3 51583.3 2383.68   2
  23   0   4 774.940 468.423   2
 -23   1  -3 21711.9 1786.91   1
 -23   1  -2 25510.6 1860.29   1
 -23  -1  -1 28273.8 1952.90   1
 -23   1  -1 29361.4 1964.88   1
 -23   1   0 28652.9 1928.10   1
  23   1   0 28613.1 1546.08   2
 -23  -1   0 26864.8 1820.43   1
 -23   1   1 34012.1 2080.23   1
  23   1   1 32123.6 1709.06   2
 -23  -1   1 28865.3 1876.94   1
 -23   1   2 23995.5 1769.28   1
  23   1   2 25730.0 1575.64   2
 -23  -1   2 25906.9 1733.85   1
 -23   1   3 23275.8 1756.39   1
  23   1   3 24853.7 1638.40   2
  23   1   4 20030.4 1542.10   2
  23   2  -2 97263.9 3507.55   2
 -23   2  -2 91948.8 3812.49   1
 -23   2  -1 22728.3 1773.06   1
  23   2  -1 23337.5 1518.86   2
 -23   2   0 106256. 4099.66   1
  23   2   0 106739. 3594.79   2
 -23   2   1 21984.0 1735.18   1
  23   2   1 22591.3 1486.24   2
 -23   2   2 91279.7 3775.19   1
  23   2   2 85784.6 3284.93   2
 -23   2   3 20133.2 1705.77   1
  23   2   3 18443.7 1439.98   2
  23   3  -3 780.375 462.636   2
  23   3  -2 41726.1 2310.68   2
  23   3  -1 14.0581 359.221   2
 -23   3  -1 538.150 505.781   1
 -23   3   0 43812.6 2544.56   1
  23   3   0 39615.9 2138.50   2
 -23   3   1 495.653 392.774   1
  23   3   1-70.4880 313.139   2
 -23   3   2 38083.0 2505.15   1
  23   3   2 41240.7 2221.95   2
 -24   0  -2 105555. 4095.66   1
 -24   0  -1 146.318 395.800   1
 -24   0   0 137343. 4691.91   1
 -24   0   1 361.960 429.436   1
 -24   0   2 113019. 4121.41   1
 -24   1  -2 33354.9 2143.90   1
 -24  -1  -1 5554.29 886.376   1
 -24   1  -1 6620.48 929.798   1
 -24   1   0 35229.5 2166.01   1
 -24  -1   0 33034.0 2046.27   1
 -24   1   1 8367.78 1071.94   1
 -24  -1   1 5890.80 859.535   1
 -24   1   2 32074.2 2086.23   1
  24   1   2 31844.8 1771.74   2
 -24  -1   2 33612.6 2015.91   1
  24   1   3 5714.49 804.046   2
 -24   1   3 6479.81 954.330   1
 -24   2  -1 50180.8 2660.90   1
  24   2  -1 47069.4 2228.36   2
 -24   2   0 9581.49 1193.12   1
  24   2   0 8071.44 906.334   2
 -24   2   1 50956.9 2706.31   1
  24   2   1 48127.0 2288.62   2
  24   2   2 6992.95 895.506   2
 -24   2   2 8494.68 1142.14   1
  24   3  -2 5567.07 871.343   2
  24   3  -1 32871.4 1953.54   2
  24   3   0 6069.15 842.595   2
  24   3   1 35700.0 2033.06   2
 -25   0   0 1030.00 492.196   1
 -25   0   1 19357.3 1544.61   1
 -25   0   2 167.579 335.763   1
 -25  -1  -1 3960.72 785.419   1
 -25  -1   0 10582.9 1193.49   1
 -25   1   0 11052.0 1204.05   1
 -25  -1   1 5550.61 822.669   1
 -25   1   1 6083.76 909.752   1
 -25   1   2 10371.2 1224.77   1
 -25  -1   2 10325.5 1098.64   1
  25   2   1 8397.67 931.670   2
  25   2   2 32430.6 1882.68   2
   0   0   0    0.00    0.00   0

TITL MHyPbBr3_100K-abs in Pmn2(1)
REM Pmn2(1) (#31, found as P2(1)nm in -cba setting)
CELL 0.71073  17.368106   6.064387   5.983450  90.0000  90.0000  90.0000
ZERR    3.00   0.000770   0.000304   0.000228   0.0000   0.0000   0.0000
LATT -1
SYMM -x+1/2,-y, z+1/2
SYMM  x+1/2,-y, z+1/2
SYMM -x, y, z
SFAC C H N Br Pb
UNIT 6.00 42.00 12.00 12.00 3.00
TREF
HKLF 4
END
;
_shelx_hkl_checksum              65993
loop_
_space_group_symop_operation_xyz
'x, y, z'
'-x+1/2, -y, z+1/2'
'x+1/2, -y, z+1/2'
'-x, y, z'
loop_
_atom_site_label
_atom_site_type_symbol
_atom_site_fract_x
_atom_site_fract_y
_atom_site_fract_z
_atom_site_U_iso_or_equiv
_atom_site_adp_type
_atom_site_occupancy
_atom_site_site_symmetry_order
_atom_site_calc_flag
_atom_site_refinement_flags_posn
_atom_site_refinement_flags_adp
_atom_site_refinement_flags_occupancy
_atom_site_disorder_assembly
_atom_site_disorder_group
Pb1 Pb 0.000000 0.90537(6) 0.81958(2) 0.0071(2) Uani 1 2 d S T P . .
Br1 Br 0.000000 0.8298(2) 0.3094(4) 0.0109(3) Uani 1 2 d S T P . .
Br2 Br -0.17041(5) 0.90749(14) 0.7969(2) 0.0121(3) Uani 1 1 d . . . . .
Br3 Br 0.000000 0.4165(2) 0.7877(3) 0.0124(4) Uani 1 2 d S T P . .
N1 N 0.2089(5) 0.6372(14) 0.2815(16) 0.016(2) Uani 1 1 d D . . . .
H1B H 0.177(5) 0.721(15) 0.198(16) 0.024 Uiso 1 1 d D U . . .
H1A H 0.233(5) 0.730(13) 0.376(13) 0.024 Uiso 1 1 d D U . . .
N2 N 0.1704(5) 0.4880(15) 0.4329(15) 0.0135(19) Uani 1 1 d . . . . .
H2A H 0.136019 0.562478 0.513448 0.016 Uiso 1 1 calc R U . . .
H2B H 0.204679 0.429947 0.526475 0.016 Uiso 1 1 calc R U . . .
C3 C 0.1314(5) 0.3109(15) 0.311(3) 0.0177(19) Uani 1 1 d . . . . .
H3A H 0.099414 0.373326 0.196649 0.026 Uiso 1 1 calc R U . . .
H3B H 0.100213 0.227179 0.412750 0.026 Uiso 1 1 calc R U . . .
H3C H 0.169135 0.215925 0.243957 0.026 Uiso 1 1 calc R U . . .
loop_
_atom_site_aniso_label
_atom_site_aniso_U_11
_atom_site_aniso_U_22
_atom_site_aniso_U_33
_atom_site_aniso_U_23
_atom_site_aniso_U_13
_atom_site_aniso_U_12
Pb1 0.0078(3) 0.0073(3) 0.0061(3) 0.0002(4) 0.000 0.000
Br1 0.0147(6) 0.0119(6) 0.0062(6) 0.0001(8) 0.000 0.000
Br2 0.0087(4) 0.0153(5) 0.0123(8) -0.0021(7) 0.0004(5) 0.0016(3)
Br3 0.0180(7) 0.0074(7) 0.0118(11) 0.0002(6) 0.000 0.000
N1 0.019(4) 0.017(4) 0.012(5) 0.004(4) 0.000(4) -0.002(4)
N2 0.015(5) 0.012(5) 0.013(4) 0.002(4) 0.003(4) -0.002(4)
C3 0.017(4) 0.017(5) 0.019(5) -0.001(7) -0.001(7) -0.002(4)
loop_
_atom_type_symbol
_atom_type_description
_atom_type_scat_dispersion_real
_atom_type_scat_dispersion_imag
_atom_type_scat_source
C C 0.0033 0.0016 'International Tables Vol C Tables 4.2.6.8 and 6.1.1.4'
H H 0.0000 0.0000 'International Tables Vol C Tables 4.2.6.8 and 6.1.1.4'
N N 0.0061 0.0033 'International Tables Vol C Tables 4.2.6.8 and 6.1.1.4'
Br Br -0.2901 2.4595 'International Tables Vol C Tables 4.2.6.8 and 6.1.1.4'
Pb Pb -3.3944 10.1111 'International Tables Vol C Tables 4.2.6.8 and 6.1.1.4'
loop_
_exptl_crystal_face_index_h
_exptl_crystal_face_index_k
_exptl_crystal_face_index_l
_exptl_crystal_face_perp_dist
-10 -9 1 0.1264
-24 0 0 0.0536
24 0 0 0.0604
6 10 2 0.0843
-22 4 1 0.0658
-3 0 -8 0.1267
2 -1 8 0.1436
4 8 0 0.0933
loop_
_geom_angle_atom_site_label_1
_geom_angle_atom_site_label_2
_geom_angle_atom_site_label_3
_geom_angle
_geom_angle_site_symmetry_1
_geom_angle_site_symmetry_3
_geom_angle_publ_flag
Br2 Pb1 Br2 174.73(6) . 4 ?
Br2 Pb1 Br1 92.63(3) . 1_556 ?
Br2 Pb1 Br1 92.63(3) 4 1_556 ?
Br2 Pb1 Br3 90.080(18) . . ?
Br2 Pb1 Br3 90.080(18) 4 . ?
Br1 Pb1 Br3 84.79(4) 1_556 . ?
Br2 Pb1 Br1 87.44(3) . . ?
Br2 Pb1 Br1 87.44(3) 4 . ?
Br1 Pb1 Br1 162.56(5) 1_556 . ?
Br3 Pb1 Br1 77.77(4) . . ?
Br2 Pb1 Br3 89.591(18) . 1_565 ?
Br2 Pb1 Br3 89.591(18) 4 1_565 ?
Br1 Pb1 Br3 102.42(4) 1_556 1_565 ?
Br3 Pb1 Br3 172.79(7) . 1_565 ?
Br1 Pb1 Br3 95.02(4) . 1_565 ?
Pb1 Br1 Pb1 162.57(5) 1_554 . ?
Pb1 Br3 Pb1 172.79(7) . 1_545 ?
N2 N1 H1B 115(8) . . ?
N2 N1 H1A 102(6) . . ?
H1B N1 H1A 106(3) . . ?
N1 N2 C3 111.2(9) . . ?
N1 N2 H2A 109.4 . . ?
C3 N2 H2A 109.4 . . ?
N1 N2 H2B 109.4 . . ?
C3 N2 H2B 109.4 . . ?
H2A N2 H2B 108.0 . . ?
N2 C3 H3A 109.5 . . ?
N2 C3 H3B 109.5 . . ?
H3A C3 H3B 109.5 . . ?
N2 C3 H3C 109.5 . . ?
H3A C3 H3C 109.5 . . ?
H3B C3 H3C 109.5 . . ?
loop_
_geom_bond_atom_site_label_1
_geom_bond_atom_site_label_2
_geom_bond_distance
_geom_bond_site_symmetry_2
_geom_bond_publ_flag
Pb1 Br2 2.9628(10) . ?
Pb1 Br2 2.9628(10) 4 ?
Pb1 Br1 2.966(2) 1_556 ?
Pb1 Br3 2.9706(12) . ?
Pb1 Br1 3.087(2) . ?
Pb1 Br3 3.1058(12) 1_565 ?
N1 N2 1.445(12) . ?
N1 H1B 0.90(3) . ?
N1 H1A 0.90(3) . ?
N2 C3 1.464(14) . ?
N2 H2A 0.8900 . ?
N2 H2B 0.8900 . ?
C3 H3A 0.9600 . ?
C3 H3B 0.9600 . ?
C3 H3C 0.9600 . ?
loop_
_geom_hbond_atom_site_label_D
_geom_hbond_atom_site_label_H
_geom_hbond_atom_site_label_A
_geom_hbond_distance_DH
_geom_hbond_distance_HA
_geom_hbond_distance_DA
_geom_hbond_angle_DHA
_geom_hbond_site_symmetry_A
_geom_hbond_publ_flag
N1 H1A Br2 0.90(3) 2.81(8) 3.468(9) 131(8) 3_574 yes
N1 H1B Br2 0.90(3) 2.66(8) 3.397(9) 140(10) 4_554 yes
N1 H1A Br2 0.90(3) 2.81(8) 3.468(9) 131(8) 3_574 yes
N2 H2A Br2 0.89 2.76 3.349(9) 124.9 4 yes
N2 H2B N1 0.89 2.18 3.053(13) 167.3 2_565 yes
C3 H3C Br2 0.96 2.90 3.689(9) 139.8 3_564 yes
