#------------------------------------------------------------------------------
#$Date: 2019-10-29 23:39:34 +0200 (Tue, 29 Oct 2019) $
#$Revision: 220466 $
#$URL: file:///home/coder/svn-repositories/cod/cif/4/00/30/4003047.cif $
#------------------------------------------------------------------------------
#
# This file is available in the Crystallography Open Database (COD),
# http://www.crystallography.net/
#
# All data on this site have been placed in the public domain by the
# contributors.
#
data_4003047
loop_
_publ_author_name
'Dahlman, Clayton J.'
'DeCrescent, Ryan A.'
'Venkatesan, Naveen R.'
'Kennard, Rhys M.'
'Wu, Guang'
'Everest, Michael A.'
'Schuller, Jon A.'
'Chabinyc, Michael L.'
_publ_section_title
;
 Controlling Solvate Intermediate Growth for Phase-Pure Organic Lead
 Iodide Ruddlesden--Popper (C4H9NH3)2(CH3NH3)n&#x2212;1PbnI3n+1 Perovskite
 Thin Films
;
_journal_issue                   15
_journal_name_full               'Chemistry of Materials'
_journal_page_first              5832
_journal_paper_doi               10.1021/acs.chemmater.9b01952
_journal_volume                  31
_journal_year                    2019
_chemical_formula_sum            'C7 H19 I3 N2 O Pb'
_chemical_formula_weight         735.13
_space_group_crystal_system      triclinic
_space_group_IT_number           2
_space_group_name_Hall           '-P 1'
_space_group_name_H-M_alt        'P -1'
_symmetry_space_group_name_Hall  '-P 1'
_symmetry_space_group_name_H-M   'P -1'
_atom_sites_solution_hydrogens   geom
_audit_creation_method           SHELXL-2014/7
_cell_angle_alpha                89.59(2)
_cell_angle_beta                 82.08(2)
_cell_angle_gamma                83.28(2)
_cell_formula_units_Z            2
_cell_length_a                   4.618(6)
_cell_length_b                   12.470(17)
_cell_length_c                   15.10(2)
_cell_measurement_reflns_used    1370
_cell_measurement_temperature    260(2)
_cell_measurement_theta_max      24.0
_cell_measurement_theta_min      2.72
_cell_volume                     855(2)
_computing_structure_refinement  'SHELXL-2014/7 (Sheldrick, 2014)'
_diffrn_ambient_temperature      260(2)
_diffrn_measured_fraction_theta_full 1.000
_diffrn_measured_fraction_theta_max 0.985
_diffrn_measurement_device_type  'Bruker Kappa Apex II'
_diffrn_radiation_type           MoK\a
_diffrn_radiation_wavelength     0.71073
_diffrn_reflns_av_R_equivalents  0.0544
_diffrn_reflns_av_unetI/netI     0.1688
_diffrn_reflns_Laue_measured_fraction_full 1.000
_diffrn_reflns_Laue_measured_fraction_max 0.985
_diffrn_reflns_number            3519
_diffrn_reflns_point_group_measured_fraction_full 1.000
_diffrn_reflns_point_group_measured_fraction_max 0.985
_diffrn_reflns_theta_full        25.242
_diffrn_reflns_theta_max         26.558
_diffrn_reflns_theta_min         1.362
_exptl_absorpt_coefficient_mu    15.263
_exptl_absorpt_correction_T_max  0.745376
_exptl_absorpt_correction_T_min  0.457690
_exptl_absorpt_correction_type   multi-scan
_exptl_absorpt_process_details   sadabs
_exptl_crystal_colour            yellow
_exptl_crystal_density_diffrn    2.855
_exptl_crystal_description       needle
_exptl_crystal_F_000             648
_exptl_crystal_size_max          0.200
_exptl_crystal_size_mid          0.050
_exptl_crystal_size_min          0.050
_refine_diff_density_max         1.508
_refine_diff_density_min         -1.792
_refine_diff_density_rms         0.336
_refine_ls_extinction_method     none
_refine_ls_goodness_of_fit_ref   0.874
_refine_ls_hydrogen_treatment    constr
_refine_ls_matrix_type           full
_refine_ls_number_parameters     131
_refine_ls_number_reflns         3519
_refine_ls_number_restraints     0
_refine_ls_restrained_S_all      0.874
_refine_ls_R_factor_all          0.1146
_refine_ls_R_factor_gt           0.0492
_refine_ls_shift/su_max          0.000
_refine_ls_shift/su_mean         0.000
_refine_ls_structure_factor_coef Fsqd
_refine_ls_weighting_details
'w=1/[\s^2^(Fo^2^)+(0.0322P)^2^] where P=(Fo^2^+2Fc^2^)/3'
_refine_ls_weighting_scheme      calc
_refine_ls_wR_factor_gt          0.0739
_refine_ls_wR_factor_ref         0.0856
_reflns_Friedel_coverage         0.000
_reflns_number_gt                1976
_reflns_number_total             3519
_reflns_threshold_expression     'I > 2\s(I)'
_cod_data_source_file            cm9b01952_si_003.cif
_cod_data_source_block           twin4
_cod_database_code               4003047
_shelx_shelxl_version_number     2014/7
_shelx_space_group_comment
;
The symmetry employed for this shelxl refinement is uniquely defined
by the following loop, which should always be used as a source of
symmetry information in preference to the above space-group names.
They are only intended as comments.
;
_shelx_estimated_absorpt_t_min   0.150
_shelx_estimated_absorpt_t_max   0.516
_shelx_res_file
;

    twin4.res created by SHELXL-2014/7

TITL 260K_0m_a.res in P-1
CELL  0.71073   4.6179  12.4702  15.0959   89.586   82.085   83.281
ZERR    2.000   0.0063   0.0171   0.0205    0.021    0.020    0.021
LATT 1
SFAC C  N  O  I  Pb H
UNIT 14  4  2  6  2  38
L.S. 10
ACTA
BOND $H
FMAP 2
PLAN 20
size 0.2 0.05 0.05
TEMP -13.160
WGHT    0.032200
FVAR       0.07739
PB1   5    0.853845    0.409114    0.868765    11.00000    0.02818    0.03416 =
         0.03634   -0.00044   -0.00415   -0.00635
I1    4    0.275572    0.597090    0.898495    11.00000    0.03379    0.03301 =
         0.03730    0.00175   -0.00571   -0.00794
I3    4    0.943651    0.445596    0.668326    11.00000    0.04028    0.04360 =
         0.03738   -0.00188   -0.00321   -0.00646
I2    4    0.417862    0.230365    0.859653    11.00000    0.03683    0.03221 =
         0.06819   -0.00097   -0.00830   -0.00783
O005  3    0.812332    0.783779    0.714479    11.00000    0.04511    0.04469 =
         0.04754   -0.01279   -0.00661   -0.00619
N2    2    0.384667    0.666057    0.651743    11.00000    0.05787    0.04046 =
         0.04459   -0.00453   -0.01069   -0.01417
AFIX 137
H2A   6    0.519530    0.700205    0.673069    11.00000   -1.50000
H2B   6    0.399819    0.597799    0.669849    11.00000   -1.50000
H2G   6    0.205941    0.698594    0.671803    11.00000   -1.50000
AFIX   0
N1    2    0.907753    0.893172    0.822633    11.00000    0.06697    0.02034 =
         0.04395   -0.00074   -0.01468    0.00209
C1    1    0.793634    0.811166    0.791940    11.00000    0.05547    0.02319 =
         0.05781    0.00665    0.00754   -0.00500
AFIX  43
H1    6    0.688488    0.770400    0.833964    11.00000   -1.20000
AFIX   0
C00A  1    0.432829    0.668694    0.551949    11.00000    0.07223    0.06939 =
         0.03947   -0.00351   -0.00280   -0.02159
AFIX  23
H00A  6    0.288651    0.630516    0.528197    11.00000   -1.20000
H00B  6    0.627524    0.633518    0.529599    11.00000   -1.20000
AFIX   0
C3    1    1.073724    0.962029    0.764424    11.00000    0.05880    0.05951 =
         0.09573   -0.00742   -0.00333   -0.01453
AFIX 137
H3A   6    1.272346    0.955946    0.777727    11.00000   -1.50000
H3B   6    0.985715    1.035489    0.773156    11.00000   -1.50000
H3C   6    1.074272    0.940768    0.703402    11.00000   -1.50000
AFIX   0
C2    1    0.877751    0.917903    0.918081    11.00000    0.15159    0.09013 =
         0.06001   -0.03561   -0.03271    0.02371
AFIX 137
H2C   6    0.745731    0.872770    0.950459    11.00000   -1.50000
H2F   6    0.800800    0.992340    0.928335    11.00000   -1.50000
H2E   6    1.066995    0.904861    0.938204    11.00000   -1.50000
AFIX   0
C4    1    0.402555    0.787983    0.521619    11.00000    0.14821    0.09931 =
         0.07230    0.04760   -0.03519   -0.04736
AFIX  23
H4A   6    0.211069    0.821548    0.548741    11.00000   -1.20000
H4B   6    0.548737    0.823348    0.547040    11.00000   -1.20000
AFIX   0
C5    1    0.429395    0.811130    0.433305    11.00000    0.21658    0.07325 =
         0.11170    0.02316   -0.03822   -0.01804
AFIX  23
H5A   6    0.291902    0.771421    0.407753    11.00000   -1.20000
H5B   6    0.625204    0.780422    0.407406    11.00000   -1.20000
AFIX   0
C6    1    0.389239    0.917159    0.401785    11.00000    0.20124    0.06817 =
         0.08731    0.01257   -0.03053    0.00486
AFIX 137
H6A   6    0.192749    0.949182    0.422869    11.00000   -1.50000
H6B   6    0.419388    0.916263    0.337579    11.00000   -1.50000
H6C   6    0.528093    0.958611    0.423333    11.00000   -1.50000
AFIX   0
HKLF 4

REM  260K_0m_a.res in P-1
REM R1 =  0.0492 for    1976 Fo > 4sig(Fo)  and  0.1146 for all    3519 data
REM    131 parameters refined using      0 restraints

END

WGHT      0.0322      0.0000

REM Highest difference peak  1.508,  deepest hole -1.792,  1-sigma level  0.336
Q1    1   0.3414  0.5270  0.6412  11.00000  0.05    1.51
Q2    1   0.9404  0.4180  0.8194  11.00000  0.05    1.34
Q3    1   0.6584  0.6004  0.8823  11.00000  0.05    1.28
Q4    1   0.4270  0.4528  0.8737  11.00000  0.05    1.24
Q5    1   0.9973  0.5054  0.6361  11.00000  0.05    1.23
Q6    1   0.4516  0.6595  0.3014  11.00000  0.05    1.21
Q7    1   0.0483  0.6382  0.8668  11.00000  0.05    1.19
Q8    1   0.9526  0.7200  0.9012  11.00000  0.05    1.19
Q9    1   0.2873  0.6774  0.8627  11.00000  0.05    1.19
Q10   1   1.2104  0.4036  0.8576  11.00000  0.05    1.18
Q11   1   0.9108  0.3647  0.7027  11.00000  0.05    1.17
Q12   1   0.2372  0.6631  0.8431  11.00000  0.05    1.16
Q13   1   0.0509  0.7580  0.4731  11.00000  0.05    1.16
Q14   1   0.8092  1.0440  0.8828  11.00000  0.05    1.12
Q15   1   0.8007  0.2159  0.8358  11.00000  0.05    1.12
Q16   1   0.5975  0.4360  0.8213  11.00000  0.05    1.12
Q17   1   1.0433  0.3812  0.9416  11.00000  0.05    1.12
Q18   1   0.9124  0.5644  0.8412  11.00000  0.05    1.11
Q19   1   1.0932  0.4763  0.8610  11.00000  0.05    1.11
Q20   1   0.5296  0.5469  0.5805  11.00000  0.05    1.11
;
_shelx_res_checksum              72402
_shelx_hkl_file
;
   1   0   0   31.16    0.76
   2   0   0    0.19    0.56
   3   0   0    7.53    2.04
   4   0   0   12.17    1.51
   5   0   0    1.21    1.33
  -5   1   0   13.43    4.60
  -4   1   0    2.73    0.87
  -3   1   0   22.55    2.54
  -2   1   0   18.19    1.06
  -1   1   0  238.34    1.78
   0   1   0  382.69    3.44
   1   1   0   16.43    0.50
   2   1   0  106.79    1.93
   3   1   0    0.78    0.89
   4   1   0   19.15    1.78
   5   1   0    0.28    1.71
  -5   2   0   10.84    6.09
  -4   2   0    0.58    0.79
  -3   2   0    4.74    1.61
  -2   2   0   34.52    0.93
  -1   2   0 1000.00    3.98
   0   2   0   15.76    0.54
   1   2   0    9.36    0.51
   2   2   0   89.29    1.26
   3   2   0    6.13    1.25
   4   2   0    0.60    0.87
   5   2   0    4.09    2.17
  -5   3   0    2.79    5.17
  -4   3   0    1.86    0.90
  -3   3   0   27.84    2.07
  -2   3   0   69.97    1.48
  -1   3   0  389.17    2.77
   0   3   0    9.87    0.60
   1   3   0  364.04    2.33
   2   3   0    4.49    0.50
   3   3   0   18.82    1.50
   4   3   0    1.12    0.96
   5   3   0    1.11    2.00
  -5   4   0    0.00   15.42
  -4   4   0    9.31    1.85
  -3   4   0   10.48    1.95
  -2   4   0  258.51    2.94
  -1   4   0    5.52    0.54
   0   4   0   26.81    1.18
   1   4   0  240.62    2.31
   2   4   0    7.17    0.73
   3   4   0    2.54    1.41
   4   4   0    8.40    1.27
   5   4   0   11.64    2.74
  -5   5   0    4.98   15.91
  -4   5   0   24.52    2.69
  -3   5   0   17.54    3.86
  -2   5   0  142.04    2.36
  -1   5   0    0.29    0.39
   0   5   0  376.47    4.72
   1   5   0   15.92    0.87
   2   5   0   11.94    0.91
   3   5   0   15.43    1.56
   4   5   0    2.95    1.12
   5   5   0    0.96    2.95
  -5   6   0    6.61    6.42
  -4   6   0    3.14    1.68
  -3   6   0   34.03    5.57
  -2   6   0    0.05    0.63
  -1   6   0   18.17    0.98
   0   6   0  346.62    4.80
   1   6   0    8.94    0.70
   2   6   0   13.84    1.09
   3   6   0    2.34    1.42
   4   6   0    5.88    1.31
   5   6   0    1.18    2.02
  -4   7   0    0.04    1.51
  -3   7   0   24.96    5.58
  -2   7   0    4.27    0.91
  -1   7   0  171.41    3.57
   0   7   0   23.13    1.09
   1   7   0   12.70    0.85
   2   7   0   43.52    1.98
   3   7   0   16.68    1.79
   4   7   0    1.16    1.16
   5   7   0    0.48    1.98
  -4   8   0    5.01    2.12
  -3   8   0    0.00    4.32
  -2   8   0   11.63    1.80
  -1   8   0  217.75    4.11
   0   8   0    5.51    0.80
   1   8   0   29.59    1.28
   2   8   0    1.19    1.19
   3   8   0    0.41    2.07
   4   8   0    6.77    1.80
   5   8   0    0.00   42.73
  -4   9   0    5.59    2.44
  -3   9   0    4.14    4.37
  -2   9   0   43.36    3.01
  -1   9   0   30.96    2.09
   0   9   0    7.99    1.31
   1   9   0   71.38    2.74
   2   9   0   23.35    1.84
   3   9   0    3.56    3.87
   4   9   0    2.42    1.90
   5   9   0   12.48    4.02
  -3  10   0    8.86    4.98
  -2  10   0   68.66    5.33
  -1  10   0    2.72    3.20
   0  10   0   17.39    1.69
   1  10   0    5.42    1.80
   2  10   0    1.14    1.70
   3  10   0    9.22    5.73
   4  10   0    0.43    1.85
  -3  11   0    7.40   29.33
  -2  11   0   22.09    4.95
  -1  11   0    0.00    3.41
   0  11   0   59.13    2.78
   1  11   0    5.10    2.33
   2  11   0    2.99    3.52
   3  11   0    0.13    5.16
   4  11   0    4.07    2.20
  -3  12   0   20.66   34.16
  -2  12   0    3.71   25.53
  -1  12   0    3.07    2.86
   0  12   0   12.93    1.92
   1  12   0    5.87    2.73
   2  12   0   26.57    4.33
   3  12   0    3.60    5.45
   4  12   0    7.06    3.58
  -2  13   0    0.52   27.34
  -1  13   0   33.47    3.63
   0  13   0    0.50    1.61
   1  13   0    2.75    3.15
   2  13   0    0.00    3.28
   3  13   0    0.05    7.26
  -1  14   0   11.32    3.37
   0  14   0    1.54    1.87
   1  14   0   21.30    3.90
   2  14   0    6.95    4.45
   3  14   0    6.07    7.87
   0  15   0    2.88    2.09
   1  15   0    4.89    3.95
   2  15   0    2.11    1.58
  -2 -15   1    0.87    1.39
  -1 -15   1   14.68    4.15
   0 -15   1    2.04    2.01
  -3 -14   1   18.97    8.88
  -2 -14   1    4.25    3.69
  -1 -14   1    6.37    3.36
   0 -14   1    6.84    1.97
   1 -14   1   16.56    3.42
  -3 -13   1    5.59    7.60
  -2 -13   1    6.16    3.55
  -1 -13   1    0.00    2.97
   0 -13   1    1.29    1.71
   1 -13   1    9.86    3.32
   2 -13   1    3.35    4.09
  -4 -12   1   32.85    4.88
  -3 -12   1    1.33    6.65
  -2 -12   1    0.42    3.30
  -1 -12   1    0.00    2.66
   0 -12   1   19.79    2.13
   1 -12   1    2.69    2.69
   2 -12   1    0.20    1.42
   3 -12   1   14.01   31.06
  -4 -11   1   12.67    2.85
  -3 -11   1   13.62    5.19
  -2 -11   1    5.38    2.70
  -1 -11   1    5.86    1.85
   0 -11   1   25.70    2.11
   1 -11   1    0.00    2.40
   2 -11   1   21.03    4.69
   3 -11   1    2.99   27.41
  -4 -10   1    4.82    7.27
  -3 -10   1    0.00    2.57
  -2 -10   1    4.58    2.19
  -1 -10   1   25.89    2.42
   0 -10   1    6.13    1.36
   1 -10   1    3.25    1.34
   2 -10   1   33.83    4.07
   3 -10   1    0.00   23.38
  -5  -9   1    8.35    3.55
  -4  -9   1    0.48    1.23
  -3  -9   1   31.46    2.83
  -2  -9   1    5.56    1.48
  -1  -9   1   27.67    1.63
   0  -9   1    8.60    1.35
   1  -9   1   20.87    2.04
   2  -9   1    1.57    1.38
   3  -9   1    0.19    4.39
   4  -9   1   23.44    3.19
  -5  -8   1    1.78    2.36
  -4  -8   1    2.32    1.27
  -3  -8   1   21.20    2.53
  -2  -8   1   12.69    1.58
  -1  -8   1    0.82    0.73
   0  -8   1   20.64    1.13
   1  -8   1   96.63    2.94
   2  -8   1    4.04    1.01
   3  -8   1   12.39    5.31
   4  -8   1   10.72    2.36
  -5  -7   1    0.00    1.99
  -4  -7   1   42.16    2.65
  -3  -7   1    0.33    1.61
  -2  -7   1   25.89    1.83
  -1  -7   1    7.63    0.91
   0  -7   1   13.63    0.89
   1  -7   1    5.90    0.93
   2  -7   1    3.79    0.95
   3  -7   1  112.55    7.20
   4  -7   1    2.72    1.71
  -5  -6   1    4.17    2.38
  -4  -6   1   35.16    2.45
  -3  -6   1    1.51    1.13
  -2  -6   1    1.80    0.71
  -1  -6   1   43.93    1.43
   0  -6   1   92.04    1.58
   1  -6   1   14.41    0.91
   2  -6   1   52.76    2.01
   3  -6   1   59.71    5.16
   4  -6   1    1.78    1.50
   5  -6   1   15.90  106.19
  -5  -5   1   42.77    4.50
  -4  -5   1    4.11    1.25
  -3  -5   1   11.98    1.38
  -2  -5   1    2.09    0.89
  -1  -5   1    1.50    0.51
   0  -5   1    2.88    0.50
   1  -5   1    5.15    0.67
   2  -5   1  259.03    3.20
   3  -5   1    0.27    2.06
   4  -5   1    2.38    1.51
   5  -5   1    8.73    6.53
  -5  -4   1   40.06    4.27
  -4  -4   1    0.42    0.94
  -3  -4   1    9.80    1.24
  -2  -4   1   35.90    1.22
  -1  -4   1   59.46    1.28
   0  -4   1   31.08    0.80
   1  -4   1   61.24    1.32
   2  -4   1  179.37    2.48
   3  -4   1    0.00    1.65
   4  -4   1   48.39    3.18
   5  -4   1    7.31   91.34
  -5  -3   1    9.32    2.57
  -4  -3   1    1.72    1.02
  -3  -3   1   23.83    1.65
  -2  -3   1   20.56    0.85
  -1  -3   1    0.48    0.38
   0  -3   1    2.85    0.38
   1  -3   1  295.18    2.49
   2  -3   1    0.68    0.46
   3  -3   1   18.03    1.98
   4  -3   1   57.83    2.19
   5  -3   1    5.29    5.50
  -5  -2   1    1.53    1.95
  -4  -2   1   13.08    1.49
  -3  -2   1    5.35    1.11
  -2  -2   1   17.63    0.75
  -1  -2   1   56.54    0.97
   0  -2   1   57.84    0.80
   1  -2   1  404.58    2.33
   2  -2   1    0.15    0.38
   3  -2   1  216.50    4.33
   4  -2   1   15.10    1.36
   5  -2   1    9.56    5.83
  -5  -1   1    2.34    2.04
  -4  -1   1   32.73    2.26
  -3  -1   1   27.32    1.63
  -2  -1   1    1.36    0.55
  -1  -1   1    1.32    0.29
   0  -1   1  186.33    1.57
   1  -1   1    5.12    0.37
   2  -1   1   29.86    1.02
   3  -1   1  269.29    5.21
   4  -1   1    9.02    1.13
   5  -1   1    0.86    1.61
  -5   0   1   11.29    3.26
  -4   0   1    1.08    1.03
  -3   0   1    0.46    0.92
  -2   0   1   72.92    1.49
  -1   0   1   10.60    0.53
   0   0   1  149.04    1.41
   1   0   1   11.22    0.49
   2   0   1  500.35    4.10
   3   0   1   58.34    2.26
   4   0   1    8.24    1.34
   5   0   1    6.60    1.71
  -5   1   1   28.06   90.48
  -4   1   1    6.44    1.41
  -3   1   1    2.74    1.49
  -2   1   1    6.62    0.78
  -1   1   1   28.48    1.04
   0   1   1    0.11    0.20
   1   1   1   26.09    0.48
   2   1   1  691.92    4.72
   3   1   1    8.41    1.36
   4   1   1    3.43    1.10
   5   1   1    1.45    2.25
  -5   2   1    5.00    1.95
  -4   2   1    1.03    0.87
  -3   2   1   53.42    2.66
  -2   2   1   13.84    0.67
  -1   2   1   27.35    0.72
   0   2   1   49.10    1.21
   1   2   1  624.01    2.83
   2   2   1  133.76    2.02
   3   2   1    7.98    1.55
   4   2   1   38.71    2.20
   5   2   1    0.31    1.81
  -5   3   1    0.10    1.51
  -4   3   1    2.66    1.26
  -3   3   1    9.70    2.25
  -2   3   1    2.07    0.47
  -1   3   1    9.68    0.57
   0   3   1   40.64    1.32
   1   3   1  883.43    4.15
   2   3   1    5.45    0.49
   3   3   1   22.15    2.10
   4   3   1   14.18    1.42
   5   3   1    1.66    1.97
  -5   4   1    1.27    1.95
  -4   4   1   21.53    2.55
  -3   4   1   14.51    3.63
  -2   4   1    0.74    0.49
  -1   4   1   77.49    1.26
   0   4   1  286.06    3.88
   1   4   1  257.31    2.28
   2   4   1    4.63    0.60
   3   4   1  146.87    3.71
   4   4   1    0.64    0.83
   5   4   1    7.21    2.37
  -5   5   1    2.05    1.99
  -4   5   1    8.23    2.07
  -3   5   1    0.00    3.62
  -2   5   1   28.52    1.23
  -1   5   1   13.66    0.71
   0   5   1  473.88    5.61
   1   5   1    0.26    0.39
   2   5   1   42.63    1.33
   3   5   1   49.29    2.02
   4   5   1    1.73    1.21
   5   5   1    6.16    2.42
  -4   6   1    3.40    1.78
  -3   6   1    4.97    3.80
  -2   6   1   56.83    1.86
  -1   6   1   68.61    1.40
   0   6   1  165.27    3.31
   1   6   1    0.15    0.38
   2   6   1  263.35    3.13
   3   6   1    5.04    1.37
   4   6   1    1.83    1.34
   5   6   1    3.80    2.28
  -4   7   1    5.43    1.97
  -3   7   1   24.26    4.67
  -2   7   1    6.48    1.46
  -1   7   1  138.67    2.63
   0   7   1    0.13    0.68
   1   7   1   36.71    1.16
   2   7   1  122.59    2.60
   3   7   1    3.55    2.09
   4   7   1   12.48    1.93
   5   7   1    2.64    2.82
  -4   8   1    3.17    1.94
  -3   8   1   38.16    5.50
  -2   8   1    4.26    1.44
  -1   8   1   39.88    3.04
   0   8   1    8.14    1.28
   1   8   1  237.10    3.76
   2   8   1    5.21    1.28
   3   8   1    0.00    3.43
   4   8   1   11.97    2.34
   5   8   1    0.00   44.18
  -4   9   1    9.73    2.76
  -3   9   1    1.53    4.64
  -2   9   1   26.26    2.65
  -1   9   1    0.78    2.43
   0   9   1   16.71    2.68
   1   9   1  159.12    3.68
   2   9   1    2.80    1.30
   3   9   1   20.24    5.71
   4   9   1    0.98    1.78
  -3  10   1    1.55    4.98
  -2  10   1    4.20    1.86
  -1  10   1    8.28    2.83
   0  10   1  106.46    3.30
   1  10   1   11.82    2.37
   2  10   1    0.00    1.65
   3  10   1   25.09    6.01
   4  10   1    1.19    1.90
  -3  11   1    5.87    5.34
  -2  11   1    2.45   23.43
  -1  11   1    2.63    3.23
   0  11   1   99.74    3.43
   1  11   1    0.00    2.87
   2  11   1   31.99    3.45
   3  11   1    0.00    5.07
   4  11   1    0.26    1.97
  -3  12   1    0.81    2.00
  -2  12   1    9.93   26.02
  -1  12   1    6.77    5.01
   0  12   1    8.64    1.77
   1  12   1    1.32    3.13
   2  12   1   35.53    4.52
   3  12   1    2.68    5.54
   4  12   1    4.10    3.36
  -2  13   1    0.84   26.12
  -1  13   1   37.69    3.68
   0  13   1    0.32    1.62
   1  13   1   15.45    3.32
   2  13   1    1.09    3.24
   3  13   1    2.46   47.44
  -1  14   1    4.63    3.21
   0  14   1    0.20    1.79
   1  14   1   29.57    4.17
   2  14   1    1.30    7.51
   3  14   1    6.68   55.74
   0  15   1    3.20    2.05
   1  15   1    6.45    3.88
   2  15   1    1.71    2.46
  -2 -15   2    0.00    1.53
  -1 -15   2    7.87    3.95
   0 -15   2    3.79    2.15
  -2 -14   2    0.00    3.53
  -1 -14   2   27.95    4.01
   0 -14   2    0.06    1.85
   1 -14   2    9.60    3.53
  -3 -13   2    1.83    7.40
  -2 -13   2    8.87    3.48
  -1 -13   2   25.54    3.69
   0 -13   2    5.63    1.81
   1 -13   2    0.00    2.89
   2 -13   2    3.67    4.53
  -4 -12   2   14.06    7.85
  -3 -12   2    2.76    6.66
  -2 -12   2   50.90    4.17
  -1 -12   2    4.61    2.03
   0 -12   2   20.79    2.18
   1 -12   2    1.49    2.59
   2 -12   2    4.65    2.82
   3 -12   2    4.39   30.71
  -4 -11   2    3.18    1.91
  -3 -11   2    8.67    2.77
  -2 -11   2   64.42    4.08
  -1 -11   2    8.73    2.14
   0 -11   2    0.00    1.31
   1 -11   2    8.27    1.68
   2 -11   2   24.10    4.54
   3 -11   2    1.44   26.14
  -4 -10   2    3.04    1.55
  -3 -10   2   79.47    3.54
  -2 -10   2   24.03    2.06
  -1 -10   2   17.21    2.12
   0 -10   2   10.33    1.50
   1 -10   2    1.13    1.25
   2 -10   2    8.36    3.67
   3 -10   2    2.36    4.73
  -4  -9   2    6.45    1.64
  -3  -9   2  111.64    3.87
  -2  -9   2    5.60    1.45
  -1  -9   2    3.16    0.92
   0  -9   2    4.47    1.22
   1  -9   2   38.30    2.03
   2  -9   2    0.90    1.25
   3  -9   2    0.27    4.37
   4  -9   2   12.02    2.82
  -5  -8   2    1.04    2.32
  -4  -8   2   53.81    2.95
  -3  -8   2   34.59    2.42
  -2  -8   2    4.36    1.09
  -1  -8   2   68.49    2.12
   0  -8   2    1.26    0.96
   1  -8   2   23.03    1.45
   2  -8   2    6.72    1.17
   3  -8   2   34.93    5.18
   4  -8   2    0.00    1.56
  -5  -7   2    5.21    2.46
  -4  -7   2   90.18    3.46
  -3  -7   2    2.00    1.78
  -2  -7   2   16.28    1.55
  -1  -7   2    9.96    0.96
   0  -7   2   32.13    1.09
   1  -7   2    0.65    0.64
   2  -7   2    4.71    1.01
   3  -7   2   37.05    4.88
   4  -7   2    0.78    1.58
  -5  -6   2   23.99    3.73
  -4  -6   2   24.26    2.14
  -3  -6   2    0.14    1.05
  -2  -6   2  160.56    2.73
  -1  -6   2    2.49    0.55
   0  -6   2   33.28    1.04
   1  -6   2   20.04    1.14
   2  -6   2   32.15    1.70
   3  -6   2    1.73    2.38
   4  -6   2    0.32    1.37
  -5  -5   2   48.70    4.80
  -4  -5   2    1.20    1.09
  -3  -5   2   33.60    1.61
  -2  -5   2   58.49    1.94
  -1  -5   2   11.91    0.73
   0  -5   2    2.44    0.49
   1  -5   2   30.05    1.22
   2  -5   2   41.82    1.54
   3  -5   2    5.81    1.94
   4  -5   2   37.49    2.93
  -5  -4   2   11.48    2.79
  -4  -4   2    0.41    0.97
  -3  -4   2  177.93    2.73
  -2  -4   2    2.48    0.52
  -1  -4   2   35.49    0.98
   0  -4   2    4.15    0.47
   1  -4   2   24.34    1.03
   2  -4   2    1.08    0.55
   3  -4   2    0.80    1.43
   4  -4   2   95.84    3.09
   5  -4   2    0.75    5.18
  -5  -3   2    0.35    1.78
  -4  -3   2   27.74    2.00
  -3  -3   2   97.28    2.48
  -2  -3   2    4.67    0.57
  -1  -3   2   28.17    0.78
   0  -3   2  133.35    1.50
   1  -3   2   36.39    1.07
   2  -3   2   18.22    0.94
   3  -3   2   59.12    2.20
   4  -3   2   28.66    1.73
   5  -3   2    0.01   83.12
  -5  -2   2    2.29    1.77
  -4  -2   2  125.85    3.36
  -3  -2   2   11.42    1.18
  -2  -2   2    5.09    0.54
  -1  -2   2   17.90    0.58
   0  -2   2    0.62    0.36
   1  -2   2    5.87    0.43
   2  -2   2    7.03    0.61
   3  -2   2  208.83    3.55
   4  -2   2    0.75    0.77
   5  -2   2    4.45    1.98
  -5  -1   2   10.48    2.01
  -4  -1   2   85.65    2.95
  -3  -1   2    3.86    1.10
  -2  -1   2   38.17    1.12
  -1  -1   2   93.35    0.88
   0  -1   2   28.57    0.90
   1  -1   2   22.95    0.60
   2  -1   2   32.51    0.94
   3  -1   2   75.10    2.17
   4  -1   2    0.63    0.73
   5  -1   2   53.50    3.58
  -5   0   2   52.06    3.32
  -4   0   2    7.64    1.49
  -3   0   2    0.00    2.43
  -2   0   2   68.08    1.36
  -1   0   2   67.78    1.54
   0   0   2   20.69    0.49
   1   0   2   12.78    0.43
   2   0   2  233.81    2.55
   3   0   2    0.53    1.21
   4   0   2   25.19    1.86
   5   0   2   40.30    3.29
  -5   1   2   45.34    8.48
  -4   1   2    0.37    1.10
  -3   1   2   51.88    3.46
  -2   1   2   11.67    0.91
  -1   1   2   21.43    1.35
   0   1   2   71.93    1.03
   1   1   2    4.65    0.38
   2   1   2   68.53    1.39
   3   1   2    7.05    1.32
   4   1   2  160.37    4.35
   5   1   2    6.57    2.43
  -5   2   2    3.00    2.06
  -4   2   2    0.46    1.09
  -3   2   2   58.28    5.07
  -2   2   2   37.01    1.42
  -1   2   2   26.82    0.69
   0   2   2   13.98    0.86
   1   2   2   96.82    1.01
   2   2   2    0.84    0.50
   3   2   2   39.37    2.07
   4   2   2  142.74    4.09
   5   2   2    2.31    2.11
  -5   3   2    0.00    1.69
  -4   3   2   28.31    2.88
  -3   3   2    0.00    1.90
  -2   3   2    0.00    0.37
  -1   3   2  121.18    1.48
   0   3   2   40.92    1.45
   1   3   2   24.02    0.62
   2   3   2   29.38    0.74
   3   3   2  267.48    5.07
   4   3   2   18.81    1.83
   5   3   2    1.32    1.94
  -5   4   2    0.92    2.01
  -4   4   2   41.29    3.30
  -3   4   2    6.02    3.74
  -2   4   2   17.35    0.91
  -1   4   2    2.60    0.42
   0   4   2   22.09    1.29
   1   4   2   18.06    0.66
   2   4   2   45.97    1.14
   3   4   2  299.40    4.87
   4   4   2    1.47    1.16
   5   4   2   12.77    2.74
  -5   5   2    6.74    2.49
  -4   5   2    5.46    1.94
  -3   5   2    4.65    3.74
  -2   5   2   71.64    1.87
  -1   5   2   38.50    1.07
   0   5   2    0.58    0.66
   1   5   2   46.26    0.99
   2   5   2  231.45    2.59
   3   5   2   40.23    2.29
   4   5   2    0.41    1.15
   5   5   2   30.21    3.81
  -4   6   2    0.83    1.67
  -3   6   2    2.13    4.11
  -2   6   2    8.85    1.58
  -1   6   2    3.94    0.60
   0   6   2   69.95    2.33
   1   6   2   25.13    0.86
   2   6   2  307.29    3.19
   3   6   2    1.52    1.83
   4   6   2   34.92    2.42
   5   6   2    2.47   42.65
  -4   7   2    4.05    2.04
  -3   7   2   36.31    5.42
  -2   7   2   19.02    1.94
  -1   7   2    2.56    0.92
   0   7   2   45.86    2.06
   1   7   2  103.53    1.63
   2   7   2   50.50    1.76
   3   7   2    0.00    3.03
   4   7   2   72.38    3.90
   5   7   2    1.41    2.77
  -4   8   2    2.64    2.03
  -3   8   2    2.05    4.73
  -2   8   2   12.42    1.90
  -1   8   2   62.89    2.78
   0   8   2    5.65    1.19
   1   8   2  171.95    2.70
   2   8   2    0.24    1.11
   3   8   2   40.53    6.00
   4   8   2   27.87    3.14
  -4   9   2   10.97    2.73
  -3   9   2    0.00    4.95
  -2   9   2    2.48    1.54
  -1   9   2   47.42    3.26
   0   9   2   16.34    1.69
   1   9   2   33.53    2.25
   2   9   2    2.26    1.58
   3   9   2  117.32    8.19
   4   9   2    1.49    1.91
  -3  10   2    4.66    5.39
  -2  10   2   36.49    3.37
  -1  10   2    0.00    2.79
   0  10   2   46.09    3.92
   1  10   2    7.92    1.80
   2  10   2   31.58    2.57
   3  10   2   62.20    6.33
   4  10   2    1.77    2.01
  -3  11   2    9.99    5.61
  -2  11   2   23.56   28.26
  -1  11   2    0.00    3.13
   0  11   2    2.57    1.44
   1  11   2    1.66    2.33
   2  11   2  100.38    4.49
   3  11   2    0.76    5.18
   4  11   2    1.57    3.01
  -2  12   2    3.16   25.54
  -1  12   2    0.00    3.55
   0  12   2   10.88    1.84
   1  12   2    8.78    2.62
   2  12   2   53.07    4.81
   3  12   2    0.00   43.50
   4  12   2   17.14    4.28
  -2  13   2    5.23   28.67
  -1  13   2    2.05    4.25
   0  13   2    4.96    1.77
   1  13   2   65.93    4.89
   2  13   2   10.27   47.51
   3  13   2    0.66   51.00
  -1  14   2    8.78    3.31
   0  14   2    1.24    1.82
   1  14   2   28.67    4.17
   2  14   2    0.82   50.88
   3  14   2    8.64   57.79
   0  15   2   12.21    2.34
   1  15   2    2.03    3.62
   2  15   2    1.13    2.42
  -1 -15   3   10.08    4.95
   0 -15   3    0.00    3.03
  -2 -14   3    0.00    3.70
  -1 -14   3   39.88    4.43
   0 -14   3    0.70    1.86
   1 -14   3    0.87    3.33
  -3 -13   3    0.05    7.29
  -2 -13   3   36.19    3.95
  -1 -13   3    9.68    3.33
   0 -13   3    0.75    1.68
   1 -13   3   12.17    3.44
   2 -13   3    1.44    3.10
  -3 -12   3    1.06    3.36
  -2 -12   3   79.17    4.44
  -1 -12   3    0.07    2.12
   0 -12   3   11.28    1.86
   1 -12   3   15.83    3.15
   2 -12   3   17.24    3.08
   3 -12   3    0.02    4.28
  -4 -11   3    0.88    1.77
  -3 -11   3    9.26    2.77
  -2 -11   3   19.66    3.52
  -1 -11   3    0.00    1.87
   0 -11   3   72.43    3.05
   1 -11   3    0.52    1.40
   2 -11   3   16.27    2.86
   3 -11   3    0.00    3.95
  -4 -10   3    2.41    1.45
  -3 -10   3   54.37    3.46
  -2 -10   3    0.00    2.13
  -1 -10   3   49.79    3.07
   0 -10   3   69.16    2.77
   1 -10   3   12.57    1.75
   2 -10   3    4.68    2.08
   3 -10   3    1.21    4.62
  -4  -9   3    1.51    1.42
  -3  -9   3   14.54    2.77
  -2  -9   3    2.28    1.76
  -1  -9   3  180.36    3.50
   0  -9   3   10.42    1.38
   1  -9   3   15.59    1.68
   2  -9   3    0.13    2.12
   3  -9   3    4.67    4.48
   4  -9   3    2.34    2.06
  -5  -8   3    0.00    2.18
  -4  -8   3   23.53    2.32
  -3  -8   3    1.13    1.72
  -2  -8   3   46.35    2.05
  -1  -8   3  204.55    3.29
   0  -8   3   11.99    1.12
   1  -8   3    9.26    1.01
   2  -8   3    5.65    1.16
   3  -8   3   33.43    4.95
   4  -8   3    0.00    1.49
  -5  -7   3    0.00    2.16
  -4  -7   3    7.24    1.58
  -3  -7   3    6.53    1.26
  -2  -7   3  234.95    3.23
  -1  -7   3   27.12    1.25
   0  -7   3    5.64    0.67
   1  -7   3   36.30    1.57
   2  -7   3    0.08    0.77
   3  -7   3    5.48    2.75
   4  -7   3    2.72    1.67
  -5  -6   3    4.48    2.44
  -4  -6   3    3.67    0.98
  -3  -6   3   27.80    1.56
  -2  -6   3  247.92    3.20
  -1  -6   3   12.09    0.81
   0  -6   3   45.90    1.18
   1  -6   3    1.18    0.60
   2  -6   3   44.73    1.93
   3  -6   3    0.00    1.96
   4  -6   3    0.72    1.37
  -5  -5   3    0.88    2.17
  -4  -5   3    9.14    1.59
  -3  -5   3  161.14    2.40
  -2  -5   3   34.62    1.41
  -1  -5   3    0.34    0.45
   0  -5   3  210.54    2.34
   1  -5   3    6.34    0.60
   2  -5   3    8.63    0.87
   3  -5   3    8.93    1.94
   4  -5   3   20.14    1.85
  -5  -4   3    4.12    1.81
  -4  -4   3   10.00    1.55
  -3  -4   3  188.71    2.50
  -2  -4   3    1.59    0.46
  -1  -4   3  157.50    1.67
   0  -4   3   40.44    1.22
   1  -4   3   46.87    1.06
   2  -4   3    2.91    0.68
   3  -4   3    2.40    1.44
   4  -4   3   17.79    1.70
   5  -4   3    0.00    4.97
  -5  -3   3    6.65    1.98
  -4  -3   3   55.53    2.66
  -3  -3   3   27.64    3.09
  -2  -3   3    1.00    0.39
  -1  -3   3  345.34    2.46
   0  -3   3    2.78    0.66
   1  -3   3   17.74    0.59
   2  -3   3   19.31    0.97
   3  -3   3   13.56    1.60
   4  -3   3    1.54    0.84
   5  -3   3    0.58   79.36
  -5  -2   3    3.39    1.85
  -4  -2   3   73.89    2.88
  -3  -2   3    0.00    2.01
  -2  -2   3  161.60    1.63
  -1  -2   3  163.96    1.40
   0  -2   3   14.32    0.89
   1  -2   3   46.91    0.78
   2  -2   3   25.31    0.91
   3  -2   3   24.58    1.62
   4  -2   3    2.71    1.19
   5  -2   3   31.99    3.50
  -5  -1   3   12.17    2.24
  -4  -1   3    9.21    1.48
  -3  -1   3    1.92    2.09
  -2  -1   3  389.84    3.87
  -1  -1   3    3.53    0.41
   0  -1   3   12.90    0.81
   1  -1   3    8.71    0.39
   2  -1   3    3.40    0.49
   3  -1   3    6.02    0.97
   4  -1   3    3.77    1.08
   5  -1   3   53.62    3.53
  -5   0   3   15.49    2.06
  -4   0   3    4.98    1.31
  -3   0   3   91.81    4.48
  -2   0   3  169.68    4.03
  -1   0   3    9.33    0.61
   0   0   3  127.17    1.39
   1   0   3   86.64    0.68
   2   0   3   18.41    0.77
   3   0   3    9.79    1.10
   4   0   3   34.63    2.00
   5   0   3    7.78    2.14
  -5   1   3    2.30    2.55
  -4   1   3    4.10    1.36
  -3   1   3  259.15    8.69
  -2   1   3   11.94    1.54
  -1   1   3    1.43    0.78
   0   1   3   23.56    0.75
   1   1   3   15.24    1.22
   2   1   3   27.84    0.96
   3   1   3    2.50    0.72
   4   1   3   78.42    3.45
   5   1   3    0.08    1.26
  -5   2   3    1.65    5.91
  -4   2   3   23.54    2.76
  -3   2   3  117.64    6.86
  -2   2   3    4.07    0.68
  -1   2   3  140.28    2.04
   0   2   3  102.04    2.16
   1   2   3   24.70    0.72
   2   2   3   38.01    1.03
   3   2   3   21.76    1.85
   4   2   3   18.07    2.08
   5   2   3    2.59    2.21
  -5   3   3    3.73    2.19
  -4   3   3   75.78    4.67
  -3   3   3   12.33    3.88
  -2   3   3    5.64    0.71
  -1   3   3   71.91    1.74
   0   3   3   25.21    1.33
   1   3   3   62.69    1.05
   2   3   3    2.56    0.58
   3   3   3   61.40    2.40
   4   3   3    3.55    1.53
   5   3   3   23.88    3.30
  -5   4   3    6.48    2.53
  -4   4   3   45.53    3.58
  -3   4   3    2.45    3.60
  -2   4   3   85.17    1.51
  -1   4   3    8.14    0.96
   0   4   3    0.11    0.54
   1   4   3  101.93    1.51
   2   4   3    0.68    0.36
   3   4   3   11.82    1.71
   4   4   3    8.55    1.52
   5   4   3   73.36    4.77
  -4   5   3    1.24    1.71
  -3   5   3    4.69    3.83
  -2   5   3   78.16    3.02
  -1   5   3   19.84    1.24
   0   5   3   42.83    1.88
   1   5   3   10.72    0.76
   2   5   3   21.90    0.92
   3   5   3   14.59    2.12
   4   5   3   25.31    2.10
   5   5   3   45.70    5.07
  -4   6   3    1.05    1.77
  -3   6   3   38.14    5.27
  -2   6   3    0.18    1.15
  -1   6   3    3.56    0.90
   0   6   3  101.21    2.88
   1   6   3   18.92    0.99
   2   6   3    0.31    0.49
   3   6   3   17.07    2.10
   4   6   3  104.18    3.44
   5   6   3    0.06   45.80
  -4   7   3    4.12    2.05
  -3   7   3   47.29    6.12
  -2   7   3    4.57    1.26
  -1   7   3   28.12    1.72
   0   7   3    1.25    0.88
   1   7   3    0.59    0.63
   2   7   3   42.36    1.84
   3   7   3   13.37    4.72
   4   7   3   82.01    4.41
   5   7   3    0.42    2.62
  -4   8   3    9.29    2.52
  -3   8   3    0.00    4.68
  -2   8   3    1.48    1.39
  -1   8   3   56.69    2.85
   0   8   3   34.60    2.09
   1   8   3    6.59    0.98
   2   8   3   20.84    1.83
   3   8   3   99.73    6.74
   4   8   3    6.51    2.10
   5   8   3    0.00    2.71
  -4   9   3    9.22    2.56
  -3   9   3    4.60    4.98
  -2   9   3    9.38    2.15
  -1   9   3    1.35    2.40
   0   9   3    8.49    1.44
   1   9   3   77.79    2.45
   2   9   3    0.50    1.50
   3   9   3   81.75    6.68
   4   9   3    0.67    1.88
  -3  10   3    0.00    5.22
  -2  10   3   18.50    5.17
  -1  10   3    2.26    3.06
   0  10   3   12.85    2.69
   1  10   3   23.63    2.40
   2  10   3   27.97    2.43
   3  10   3    4.13    5.20
   4  10   3    1.33    2.04
  -3  11   3    0.00    5.38
  -2  11   3    3.05    4.65
  -1  11   3   11.85    3.44
   0  11   3   51.20    4.43
   1  11   3    0.16    2.20
   2  11   3   36.98    2.65
   3  11   3    0.00    5.22
   4  11   3   15.83    3.01
  -2  12   3    0.91   25.36
  -1  12   3   12.62    3.77
   0  12   3   15.12    3.41
   1  12   3    2.27    2.56
   2  12   3    0.49   43.60
   3  12   3    0.93    5.68
   4  12   3   34.04    3.95
  -2  13   3    8.18   30.47
  -1  13   3   14.03    4.36
   0  13   3    1.08    1.65
   1  13   3    9.71    2.94
   2  13   3    5.46   48.42
   3  13   3   21.34   54.57
  -1  14   3    5.43    5.01
   0  14   3    0.36    1.81
   1  14   3    1.88    4.02
   2  14   3    1.36   48.60
   3  14   3   29.12   63.57
   0  15   3    0.12    1.94
   1  15   3    8.87    3.83
   2  15   3    7.26    4.10
  -1 -15   4    0.00    4.76
   0 -15   4    0.00    3.07
  -2 -14   4    0.00    3.70
  -1 -14   4    5.96    3.75
   0 -14   4    0.00    2.71
   1 -14   4   32.50    5.06
  -3 -13   4    0.00    3.63
  -2 -13   4    7.87    3.54
  -1 -13   4    0.00    3.62
   0 -13   4    1.02    2.69
   1 -13   4   35.22    3.78
   2 -13   4    0.00    2.96
  -3 -12   4    3.52    3.24
  -2 -12   4   19.20    3.46
  -1 -12   4    1.84    2.38
   0 -12   4   57.69    3.04
   1 -12   4    4.33    2.85
   2 -12   4    0.00    2.89
   3 -12   4   12.32    4.83
  -4 -11   4    0.09    1.41
  -3 -11   4    6.63    2.67
  -2 -11   4    0.00    2.74
  -1 -11   4    1.97    2.16
   0 -11   4   71.29    3.07
   1 -11   4    0.66    1.55
   2 -11   4   27.23    3.46
   3 -11   4    4.36    4.13
  -4 -10   4    2.45    1.55
  -3 -10   4    8.03    2.66
  -2 -10   4    3.95    2.58
  -1 -10   4   60.48    3.48
   0 -10   4   11.04    1.58
   1 -10   4    1.07    1.41
   2 -10   4   61.81    3.23
   3 -10   4    1.77    3.62
  -4  -9   4    0.60    1.27
  -3  -9   4    1.98    1.86
  -2  -9   4    1.59    1.68
  -1  -9   4  126.44    3.94
   0  -9   4    3.10    0.99
   1  -9   4   56.19    2.46
   2  -9   4   30.57    1.83
   3  -9   4    4.55    4.41
   4  -9   4    0.31    1.76
  -4  -8   4    2.45    1.39
  -3  -8   4    9.92    2.04
  -2  -8   4   20.74    1.71
  -1  -8   4   13.54    1.30
   0  -8   4    7.93    1.06
   1  -8   4  186.69    3.19
   2  -8   4    6.53    1.11
   3  -8   4    4.81    2.54
   4  -8   4    0.00    1.51
  -5  -7   4    0.80    1.87
  -4  -7   4    2.06    1.00
  -3  -7   4    0.81    0.91
  -2  -7   4   85.65    2.57
  -1  -7   4   12.59    1.01
   0  -7   4  118.18    2.57
   1  -7   4  113.64    2.55
   2  -7   4    8.52    0.93
   3  -7   4    7.02    2.68
   4  -7   4    0.00    1.44
  -5  -6   4    1.34    1.51
  -4  -6   4    3.44    1.01
  -3  -6   4    2.63    0.96
  -2  -6   4    7.69    1.06
  -1  -6   4   20.71    1.05
   0  -6   4  473.45    6.43
   1  -6   4   19.77    0.98
   2  -6   4    1.70    0.62
   3  -6   4   11.13    2.41
   4  -6   4    4.77    2.06
  -5  -5   4    5.27    1.73
  -4  -5   4    0.65    1.15
  -3  -5   4   25.72    1.73
  -2  -5   4   21.30    1.01
  -1  -5   4  106.81    1.75
   0  -5   4  239.45    4.19
   1  -5   4    9.93    0.71
   2  -5   4   45.20    1.67
   3  -5   4    3.05    1.68
   4  -5   4   15.70    2.17
   5  -5   4    0.00   82.21
  -5  -4   4    4.86    1.99
  -4  -4   4    1.36    1.17
  -3  -4   4    0.00    1.88
  -2  -4   4   35.56    1.04
  -1  -4   4  524.65    3.49
   0  -4   4   43.89    1.74
   1  -4   4    3.42    0.51
   2  -4   4   95.55    1.94
   3  -4   4    3.78    1.00
   4  -4   4    1.43    1.31
   5  -4   4    0.00    4.99
  -5  -3   4    0.00    1.54
  -4  -3   4    0.93    1.20
  -3  -3   4   21.30    2.67
  -2  -3   4   46.36    1.14
  -1  -3   4  349.05    2.61
   0  -3   4    2.96    0.65
   1  -3   4  184.46    1.59
   2  -3   4    1.39    0.50
   3  -3   4   24.05    1.47
   4  -3   4    0.01    1.07
   5  -3   4    0.25    1.74
  -5  -2   4    4.31    1.88
  -4  -2   4    1.43    1.12
  -3  -2   4   21.53    2.79
  -2  -2   4  272.67    2.34
  -1  -2   4   24.50    0.87
   0  -2   4   16.34    1.07
   1  -2   4  316.71    2.05
   2  -2   4    1.00    0.44
   3  -2   4    0.03    0.66
   4  -2   4    4.56    1.34
   5  -2   4    7.88    2.32
  -5  -1   4    0.38    1.60
  -4  -1   4   23.46    2.03
  -3  -1   4    6.07    3.05
  -2  -1   4  217.97    3.88
  -1  -1   4    1.05    0.40
   0  -1   4  373.55    4.29
   1  -1   4   52.69    0.76
   2  -1   4   19.96    0.80
   3  -1   4    9.55    1.06
   4  -1   4    3.19    1.18
   5  -1   4    4.19    1.92
  -5   0   4    1.78    1.72
  -4   0   4   13.95    1.76
  -3   0   4   64.59    4.71
  -2   0   4    8.52    1.23
  -1   0   4   15.74    0.70
   0   0   4  577.91    3.82
   1   0   4    0.47    0.29
   2   0   4    0.81    0.38
   3   0   4    5.36    0.83
   4   0   4    9.75    1.38
   5   0   4    0.55    1.62
  -5   1   4   15.53    3.27
  -4   1   4    3.51    1.47
  -3   1   4   79.36    6.41
  -2   1   4   14.43    1.78
  -1   1   4  326.15    3.99
   0   1   4  138.15    1.99
   1   1   4   15.87    1.01
   2   1   4   55.59    2.58
   3   1   4   26.39    1.30
   4   1   4    2.99    1.09
   5   1   4    2.27    1.73
  -5   2   4    5.90    2.83
  -4   2   4    7.91    2.16
  -3   2   4    0.00    3.74
  -2   2   4   17.63    1.91
  -1   2   4  560.12    4.37
   0   2   4    9.28    0.64
   1   2   4   18.19    0.64
   2   2   4    0.65    1.23
   3   2   4    1.30    0.62
   4   2   4    9.64    1.81
   5   2   4    2.64    1.74
  -5   3   4    0.00    1.95
  -4   3   4    6.11    2.05
  -3   3   4   14.58    3.81
  -2   3   4  118.44    2.09
  -1   3   4  183.25    2.73
   0   3   4    4.92    0.80
   1   3   4  108.49    1.66
   2   3   4   57.38    1.28
   3   3   4    1.83    2.24
   4   3   4    5.63    1.64
   5   3   4    9.50    2.81
  -5   4   4    2.56    2.33
  -4   4   4    2.00    1.79
  -3   4   4    5.94    4.20
  -2   4   4  268.80    5.76
  -1   4   4    3.38    0.74
   0   4   4   21.73    1.44
   1   4   4   23.56    1.11
   2   4   4    2.11    0.36
   3   4   4   40.93    3.98
   4   4   4    0.84    1.17
   5   4   4   24.61    3.21
  -4   5   4   11.79    2.54
  -3   5   4   27.82    5.05
  -2   5   4   96.98    3.86
  -1   5   4    1.29    0.77
   0   5   4  149.55    3.42
   1   5   4   23.98    1.18
   2   5   4    0.18    0.36
   3   5   4   21.74    3.39
   4   5   4    2.54    1.28
   5   5   4    2.41    2.70
  -4   6   4    9.87    2.67
  -3   6   4   71.56    7.03
  -2   6   4    1.90    1.38
  -1   6   4   10.47    1.22
   0   6   4   65.39    2.50
   1   6   4   13.23    1.05
   2   6   4   52.84    1.77
   3   6   4    3.61    4.36
   4   6   4   12.06    2.00
   5   6   4    4.45    3.20
  -4   7   4    6.34    2.46
  -3   7   4   19.49    5.88
  -2   7   4    2.15    1.33
  -1   7   4   95.97    3.06
   0   7   4    3.13    1.09
   1   7   4    3.69    0.88
   2   7   4   35.71    1.81
   3   7   4    4.86    4.37
   4   7   4    0.00    1.60
   5   7   4    2.10   50.33
  -4   8   4   11.85    2.86
  -3   8   4    3.02    4.80
  -2   8   4    2.16    1.51
  -1   8   4   61.65    2.61
   0   8   4    9.06    1.46
   1   8   4   52.58    2.11
   2   8   4    4.19    1.40
   3   8   4    1.98    4.67
   4   8   4   17.85    2.79
   5   8   4    7.82    3.59
  -3   9   4    3.87    4.98
  -2   9   4   37.50    3.29
  -1   9   4    0.00    2.82
   0   9   4    3.23    1.23
   1   9   4   50.62    2.75
   2   9   4   14.50    1.95
   3   9   4   11.71    5.60
   4   9   4    3.96    2.04
   5   9   4   33.13   58.52
  -3  10   4    2.11    5.28
  -2  10   4   19.44    6.04
  -1  10   4    0.00    2.74
   0  10   4   28.31    2.32
   1  10   4    2.09    1.83
   2  10   4    1.19    2.17
   3  10   4   28.24    6.45
   4  10   4    4.83    2.25
  -3  11   4    9.87    6.02
  -2  11   4    0.00    4.52
  -1  11   4    0.00    3.23
   0  11   4   33.98    3.91
   1  11   4   30.44    2.37
   2  11   4   16.01    3.20
   3  11   4    3.97    5.65
   4  11   4   19.08    3.23
  -2  12   4    2.38   26.83
  -1  12   4    6.30    4.02
   0  12   4    1.18    2.70
   1  12   4    6.11    2.75
   2  12   4   25.68   52.58
   3  12   4    0.00    5.86
   4  12   4    8.13    3.76
  -2  13   4    0.00   28.51
  -1  13   4   21.48    4.33
   0  13   4   11.63    3.61
   1  13   4   11.69    3.01
   2  13   4    5.85   47.53
   3  13   4    0.44    6.24
  -1  14   4    4.65    5.04
   0  14   4    3.98    1.99
   1  14   4   29.84    3.60
   2  14   4    0.00   53.35
   0  15   4    7.46    2.22
   1  15   4    7.25    4.71
  -2 -14   5    1.84    3.45
  -1 -14   5    0.00    4.10
   0 -14   5    0.00    2.93
   1 -14   5   31.74    4.98
  -3 -13   5    0.37    4.39
  -2 -13   5    6.71    3.94
  -1 -13   5    0.28    3.75
   0 -13   5    0.00    2.62
   1 -13   5    3.15    2.33
   2 -13   5    2.54    3.11
  -3 -12   5    0.00    3.76
  -2 -12   5    0.00    3.05
  -1 -12   5    3.59    3.29
   0 -12   5   19.70    3.33
   1 -12   5    0.00    3.60
   2 -12   5    0.00    3.17
  -4 -11   5    1.02    1.57
  -3 -11   5   11.07    3.78
  -2 -11   5    2.95    2.80
  -1 -11   5    0.00    2.14
   0 -11   5    7.91    2.57
   1 -11   5    1.18    1.82
   2 -11   5   42.17    3.45
   3 -11   5    0.16    4.03
  -4 -10   5    0.74    1.43
  -3 -10   5    0.00    2.26
  -2 -10   5    6.48    2.51
  -1 -10   5   17.02    2.72
   0 -10   5    2.39    1.39
   1 -10   5    8.20    1.75
   2 -10   5   44.23    2.80
   3 -10   5    0.37    3.63
  -4  -9   5    0.55    1.11
  -3  -9   5    8.70    2.23
  -2  -9   5    6.69    1.59
  -1  -9   5    5.93    2.09
   0  -9   5    1.13    1.13
   1  -9   5   87.08    2.89
   2  -9   5    1.49    1.83
   3  -9   5    5.25    2.45
   4  -9   5   19.69   18.77
  -4  -8   5    1.93    1.10
  -3  -8   5    3.33    2.03
  -2  -8   5    2.41    1.31
  -1  -8   5    8.79    1.53
   0  -8   5    3.48    1.24
   1  -8   5  108.32    3.10
   2  -8   5    1.84    1.25
   3  -8   5   47.40    2.96
   4  -8   5    6.12    5.67
  -4  -7   5   14.51    1.50
  -3  -7   5    7.26    1.41
  -2  -7   5    1.45    1.16
  -1  -7   5    1.65    0.76
   0  -7   5   72.71    2.77
   1  -7   5    1.19    0.63
   2  -7   5   11.40    1.25
   3  -7   5   84.35    3.23
   4  -7   5    2.42    1.93
  -5  -6   5    2.48    1.64
  -4  -6   5    0.85    0.98
  -3  -6   5    0.00    2.01
  -2  -6   5   12.71    1.19
  -1  -6   5    1.06    0.65
   0  -6   5  135.32    3.48
   1  -6   5   12.76    0.88
   2  -6   5  122.32    2.26
   3  -6   5   32.66    2.62
   4  -6   5    4.00    1.72
  -5  -5   5   14.68    2.35
  -4  -5   5    3.13    1.40
  -3  -5   5    4.49    2.05
  -2  -5   5    4.71    0.81
  -1  -5   5   18.12    0.97
   0  -5   5    1.42    0.81
   1  -5   5   25.05    0.99
   2  -5   5  255.44    2.93
   3  -5   5    5.24    1.81
   4  -5   5    0.09    1.35
   5  -5   5    0.00   79.51
  -5  -4   5    6.63    2.27
  -4  -4   5    2.00    1.26
  -3  -4   5   26.29    2.09
  -2  -4   5    4.27    0.78
  -1  -4   5   69.33    1.80
   0  -4   5   52.64    2.00
   1  -4   5  217.48    1.90
   2  -4   5  113.04    1.63
   3  -4   5    5.03    1.06
   4  -4   5   22.71    2.39
   5  -4   5    0.59    1.87
  -5  -3   5    0.09    1.62
  -4  -3   5    0.16    1.17
  -3  -3   5   10.57    3.09
  -2  -3   5    0.60    0.47
  -1  -3   5    0.95    0.49
   0  -3   5   37.88    1.65
   1  -3   5  538.10    3.10
   2  -3   5   11.84    0.65
   3  -3   5    6.22    1.04
   4  -3   5   11.89    1.92
   5  -3   5    1.60    1.90
  -5  -2   5    1.11    1.78
  -4  -2   5   17.36    1.92
  -3  -2   5    0.47    2.61
  -2  -2   5    5.78    0.64
  -1  -2   5   79.19    1.46
   0  -2   5  156.87    3.00
   1  -2   5  249.36    2.15
   2  -2   5    0.63    0.31
   3  -2   5   96.85    2.25
   4  -2   5    0.73    1.14
   5  -2   5    7.26    2.55
  -5  -1   5    0.21    1.72
  -4  -1   5   14.74    2.05
  -3  -1   5    7.42    2.74
  -2  -1   5   11.36    0.83
  -1  -1   5   36.90    1.03
   0  -1   5  596.69    4.24
   1  -1   5    8.69    0.57
   2  -1   5   23.57    0.80
   3  -1   5   76.83    1.94
   4  -1   5    0.99    1.10
   5  -1   5    0.47    1.66
  -5   0   5    6.96    2.02
  -4   0   5    3.90    1.59
  -3   0   5    0.07    2.56
  -2   0   5   79.22    2.61
  -1   0   5   65.80    1.02
   0   0   5  273.61    2.62
   1   0   5    0.50    0.34
   2   0   5  279.29    1.93
   3   0   5    7.24    0.92
   4   0   5    6.87    1.34
   5   0   5    1.71    1.66
  -5   1   5   10.52    2.38
  -4   1   5    8.99    1.88
  -3   1   5   15.61    3.04
  -2   1   5   25.51    1.84
  -1   1   5  244.37    2.46
   0   1   5    2.84    0.64
   1   1   5   46.71    0.91
   2   1   5  252.45    3.79
   3   1   5    0.00    1.90
   4   1   5    4.59    1.20
   5   1   5    2.17    1.81
  -5   2   5    0.00    2.98
  -4   2   5    4.26    1.60
  -3   2   5   66.72    5.51
  -2   2   5    7.43    1.58
  -1   2   5  146.36    2.11
   0   2   5   16.92    0.88
   1   2   5  407.71    2.57
   2   2   5   36.61    2.46
   3   2   5    5.30    3.42
   4   2   5   13.37    2.04
   5   2   5    1.20    1.71
  -5   3   5    3.64    2.14
  -4   3   5   17.59    2.81
  -3   3   5   14.06    4.42
  -2   3   5   51.27    2.86
  -1   3   5    1.21    0.72
   0   3   5   45.76    1.23
   1   3   5  441.72    3.50
   2   3   5    0.55    1.46
   3   3   5   12.29    4.46
   4   3   5    0.89    1.38
   5   3   5    1.01    2.17
  -4   4   5   34.11    3.51
  -3   4   5    4.40    4.05
  -2   4   5   21.44    2.27
  -1   4   5   22.94    1.32
   0   4   5  271.31    4.65
   1   4   5   74.13    1.72
   2   4   5    0.00    0.72
   3   4   5   59.57    6.01
   4   4   5    9.59    1.93
   5   4   5    1.70    2.56
  -4   5   5    7.71    2.34
  -3   5   5    6.25    4.36
  -2   5   5   10.53    1.91
  -1   5   5   29.16    1.61
   0   5   5  414.42    6.16
   1   5   5    0.92    0.59
   2   5   5   27.95    0.89
   3   5   5    4.29    2.93
   4   5   5    0.70    1.38
   5   5   5    7.44    3.23
  -4   6   5    1.43    2.04
  -3   6   5    3.43    4.62
  -2   6   5   22.16    2.59
  -1   6   5  108.75    2.81
   0   6   5   65.89    2.60
   1   6   5    0.93    0.70
   2   6   5   99.09    2.53
   3   6   5   11.87    4.55
   4   6   5    0.07    1.62
   5   6   5    0.78    2.29
  -4   7   5    0.00    2.00
  -3   7   5   14.28    4.99
  -2   7   5    9.71    1.89
  -1   7   5  160.76    3.88
   0   7   5    0.20    0.77
   1   7   5   23.68    1.55
   2   7   5   14.32    2.48
   3   7   5    0.00    4.44
   4   7   5   21.85    2.93
   5   7   5    1.98    3.40
  -4   8   5    0.06    1.92
  -3   8   5    8.02    5.29
  -2   8   5   17.29    2.45
  -1   8   5   33.54    2.32
   0   8   5    0.92    1.08
   1   8   5  124.22    3.29
   2   8   5    9.15    2.08
   3   8   5   10.96    4.96
   4   8   5    3.04    2.04
   5   8   5    1.49    3.29
  -3   9   5    8.09    5.28
  -2   9   5   38.16    3.43
  -1   9   5    0.00    2.95
   0   9   5   11.60    1.71
   1   9   5   36.19    2.47
   2   9   5    2.00    2.01
   3   9   5   31.29    6.41
   4   9   5    5.17    2.26
   5   9   5    0.91    2.93
  -3  10   5    4.39    5.35
  -2  10   5    8.14    5.43
  -1  10   5    3.53    3.30
   0  10   5   63.59    3.16
   1  10   5    2.71    2.59
   2  10   5    7.61    2.64
   3  10   5   19.31    5.77
   4  10   5    2.04    2.10
  -3  11   5    3.68    2.43
  -2  11   5   10.23    4.98
  -1  11   5    9.90    3.57
   0  11   5   32.30    3.92
   1  11   5    5.77    2.12
   2  11   5   41.44    6.26
   3  11   5    6.37    5.97
   4  11   5    0.20    2.02
  -2  12   5    0.00   27.29
  -1  12   5    0.00    4.30
   0  12   5    0.63    2.58
   1  12   5    3.39    2.59
   2  12   5   16.35    5.51
   3  12   5   14.71    6.44
   4  12   5    6.24    3.49
  -1  13   5   18.35    5.39
   0  13   5    1.39    2.85
   1  13   5   24.49    3.22
   2  13   5    0.00   47.19
   3  13   5    2.69    6.65
  -1  14   5    0.55    1.84
   0  14   5    0.22    1.42
   1  14   5   15.30    3.46
   2  14   5    3.84   56.70
   1  15   5    0.00    5.24
  -2 -14   6    1.61    1.54
  -1 -14   6    7.47    4.48
   0 -14   6    0.26    2.76
   1 -14   6    6.21    2.01
  -2 -13   6    6.72    3.88
  -1 -13   6    2.47    4.04
   0 -13   6    4.22    3.00
   1 -13   6    1.55    4.10
   2 -13   6    0.89    3.03
  -3 -12   6    0.00    3.81
  -2 -12   6   24.75    3.99
  -1 -12   6    1.28    4.37
   0 -12   6    7.15    2.84
   1 -12   6    0.00    3.76
   2 -12   6    7.81    2.75
  -3 -11   6    7.47    2.96
  -2 -11   6   16.43    3.68
  -1 -11   6    2.67    2.68
   0 -11   6    1.19    2.18
   1 -11   6    3.67    3.07
   2 -11   6   14.28    2.70
   3 -11   6    1.16    3.97
  -4 -10   6    1.54    1.25
  -3 -10   6   42.06    3.40
  -2 -10   6    0.29    1.73
  -1 -10   6    3.48    2.46
   0 -10   6    0.68    1.32
   1 -10   6    0.66    1.68
   2 -10   6    0.66    2.12
   3 -10   6    2.48    2.72
  -4  -9   6    6.80    1.40
  -3  -9   6   46.11    3.38
  -2  -9   6    0.70    1.42
  -1  -9   6    1.94    2.07
   0  -9   6   13.44    1.86
   1  -9   6   17.92    2.38
   2  -9   6    0.00    1.94
   3  -9   6   15.52    2.35
   4  -9   6    8.90    3.94
  -4  -8   6   36.46    2.25
  -3  -8   6    3.59    2.57
  -2  -8   6    4.49    2.13
  -1  -8   6    4.57    1.43
   0  -8   6    1.06    1.13
   1  -8   6    1.83    1.52
   2  -8   6    0.19    1.19
   3  -8   6   59.29    2.93
   4  -8   6    0.50    3.03
  -4  -7   6   41.09    2.24
  -3  -7   6    1.18    2.69
  -2  -7   6   10.47    2.10
  -1  -7   6   12.75    1.36
   0  -7   6    7.79    1.39
   1  -7   6    8.17    1.16
   2  -7   6   10.42    1.22
   3  -7   6   40.50    2.29
   4  -7   6    1.99    1.69
  -4  -6   6    8.56    1.38
  -3  -6   6    5.83    2.58
  -2  -6   6   27.77    1.48
  -1  -6   6   14.45    1.30
   0  -6   6    0.23    0.66
   1  -6   6    2.94    0.64
   2  -6   6   88.78    2.22
   3  -6   6    3.38    1.48
   4  -6   6    7.19    1.92
  -5  -5   6   26.90    2.86
  -4  -5   6    0.14    1.14
  -3  -5   6   18.00    2.64
  -2  -5   6    1.57    0.80
  -1  -5   6    1.57    0.71
   0  -5   6   17.04    1.48
   1  -5   6    1.85    0.45
   2  -5   6   63.91    1.59
   3  -5   6    5.07    0.96
   4  -5   6   52.33    3.35
   5  -5   6    3.52    2.34
  -5  -4   6    4.84    2.21
  -4  -4   6    0.22    1.19
  -3  -4   6   39.87    4.17
  -2  -4   6   23.28    1.57
  -1  -4   6    2.52    0.65
   0  -4   6    3.22    0.84
   1  -4   6   58.09    1.43
   2  -4   6    1.22    0.48
   3  -4   6   20.77    1.26
   4  -4   6   77.35    3.73
   5  -4   6    0.10    1.91
  -5  -3   6    1.76    1.89
  -4  -3   6   13.30    1.89
  -3  -3   6    6.74    3.00
  -2  -3   6    0.26    0.55
  -1  -3   6   35.20    1.12
   0  -3   6    5.21    0.90
   1  -3   6   64.53    1.47
   2  -3   6   23.78    0.83
   3  -3   6  130.42    1.97
   4  -3   6   21.16    2.33
   5  -3   6    0.38    1.69
  -5  -2   6    1.60    1.81
  -4  -2   6   38.76    3.15
  -3  -2   6    6.28    3.04
  -2  -2   6    4.72    0.65
  -1  -2   6    5.99    0.61
   0  -2   6   11.32    1.16
   1  -2   6   14.69    0.79
   2  -2   6   32.26    0.92
   3  -2   6  228.36    2.94
   4  -2   6    1.16    1.24
   5  -2   6    4.80    2.16
  -5  -1   6    5.95    2.23
  -4  -1   6    8.77    1.86
  -3  -1   6    1.40    2.82
  -2  -1   6   45.39    1.42
  -1  -1   6   22.65    0.79
   0  -1   6    4.76    0.58
   1  -1   6   60.42    1.21
   2  -1   6  186.00    1.77
   3  -1   6   58.06    3.24
   4  -1   6    1.29    1.17
   5  -1   6   26.07    3.34
  -5   0   6   23.20    2.91
  -4   0   6    0.94    1.42
  -3   0   6    6.19    2.77
  -2   0   6   13.70    1.53
  -1   0   6    8.69    0.59
   0   0   6   32.78    1.04
   1   0   6   31.50    0.70
   2   0   6  360.72    2.54
   3   0   6    1.51    2.01
   4   0   6   21.89    1.87
   5   0   6   13.17    2.53
  -5   1   6   10.83    2.32
  -4   1   6    0.97    1.49
  -3   1   6   37.18    3.89
  -2   1   6   24.34    1.85
  -1   1   6    1.64    0.60
   0   1   6  116.76    2.25
   1   1   6  143.13    1.27
   2   1   6  107.48    2.63
   3   1   6    2.81    2.15
   4   1   6   84.30    2.96
   5   1   6    0.25    1.59
  -5   2   6    1.51    3.14
  -4   2   6    3.00    1.60
  -3   2   6   10.02    3.55
  -2   2   6   30.22    2.18
  -1   2   6   66.52    1.62
   0   2   6   14.38    0.94
   1   2   6  271.67    2.23
   2   2   6    0.63    0.76
   3   2   6   47.22    2.81
   4   2   6   51.57    2.51
   5   2   6    0.66    1.71
  -4   3   6   22.73    2.69
  -3   3   6    5.34    4.04
  -2   3   6   10.43    1.76
  -1   3   6  127.90    2.25
   0   3   6   44.82    1.36
   1   3   6  106.93    1.55
   2   3   6    7.17    1.88
   3   3   6  194.34    9.72
   4   3   6    3.22    1.61
   5   3   6    0.91    1.44
  -4   4   6    9.49    2.43
  -3   4   6   31.48    5.11
  -2   4   6   51.48    3.08
  -1   4   6    6.18    1.03
   0   4   6  100.32    1.96
   1   4   6    9.51    0.88
   2   4   6   52.16    3.24
   3   4   6  147.02    7.99
   4   4   6    2.27    1.49
   5   4   6    6.39   49.85
  -4   5   6    1.76    2.11
  -3   5   6   16.32    4.79
  -2   5   6   84.47    3.88
  -1   5   6    0.58    0.83
   0   5   6   23.95    1.10
   1   5   6   18.57    1.16
   2   5   6  239.48    6.13
   3   5   6    7.71    4.49
   4   5   6    0.74    1.65
   5   5   6    4.80    2.30
  -4   6   6    8.00    2.65
  -3   6   6   32.42    5.52
  -2   6   6    5.09    1.67
  -1   6   6   11.06    1.40
   0   6   6   16.92    1.66
   1   6   6   35.77    1.63
   2   6   6  205.93    5.67
   3   6   6    0.00    4.25
   4   6   6   20.34    2.94
   5   6   6    0.70    1.97
  -4   7   6    6.75    2.65
  -3   7   6   18.16    6.38
  -2   7   6    2.33    1.50
  -1   7   6    0.51    1.11
   0   7   6   26.86    2.09
   1   7   6  155.24    3.04
   2   7   6   15.92    2.60
   3   7   6    0.00    4.44
   4   7   6   28.96    3.34
   5   7   6    1.89    3.13
  -3   8   6    8.06    5.23
  -2   8   6    0.17    1.25
  -1   8   6   25.45    3.04
   0   8   6   11.55    1.67
   1   8   6  155.82    3.82
   2   8   6    0.00    1.81
   3   8   6   31.40    6.15
   4   8   6    1.31    2.00
   5   8   6    2.57    3.52
  -3   9   6    0.00    5.05
  -2   9   6    4.97    1.99
  -1   9   6   22.36    3.57
   0   9   6   55.39    2.99
   1   9   6   21.08    2.22
   2   9   6    0.64    2.00
   3   9   6   58.30    7.17
   4   9   6    3.31    2.23
  -3  10   6    1.42    5.59
  -2  10   6   17.52   26.30
  -1  10   6    0.81    3.42
   0  10   6   51.46    3.08
   1  10   6    0.00    2.64
   2  10   6   14.35    3.00
   3  10   6    8.03    5.77
   4  10   6    0.37    2.06
  -2  11   6   24.72   30.70
  -1  11   6    9.92    4.70
   0  11   6    5.51    2.78
   1  11   6    0.17    2.95
   2  11   6   76.42    7.23
   3  11   6    0.00    5.90
   4  11   6    2.64    2.39
  -2  12   6    0.10   27.00
  -1  12   6   11.95    5.11
   0  12   6    0.27    2.81
   1  12   6    5.76    2.79
   2  12   6    6.24    5.56
   3  12   6    5.26    6.21
  -1  13   6    0.00   29.41
   0  13   6    2.42    3.03
   1  13   6   47.84    3.53
   2  13   6    1.52   49.93
   3  13   6    2.79    6.45
   0  14   6    1.21    3.51
   1  14   6    7.93    5.44
   2  14   6    0.00   53.06
  -1 -14   7   21.17    5.36
   0 -14   7    1.68    3.23
  -2 -13   7   18.21    4.50
  -1 -13   7    6.06    4.06
   0 -13   7    0.79    2.92
   1 -13   7    0.00    4.40
   2 -13   7    0.00    4.32
  -3 -12   7    2.59    3.55
  -2 -12   7   44.67    4.92
  -1 -12   7    0.00    3.60
   0 -12   7    4.40    2.87
   1 -12   7    0.00    4.03
   2 -12   7    0.84    3.45
  -3 -11   7   31.67    4.09
  -2 -11   7   20.07    4.19
  -1 -11   7    0.00    3.48
   0 -11   7   23.88    2.57
   1 -11   7    1.60    5.08
   2 -11   7    5.50    2.43
   3 -11   7    0.00    2.92
  -3 -10   7   61.64    4.49
  -2 -10   7    0.00    2.91
  -1 -10   7   17.66    3.11
   0 -10   7   11.87    2.00
   1 -10   7    7.98    2.26
   2 -10   7    0.00    2.15
   3 -10   7    0.00    2.40
  -4  -9   7   13.97    1.74
  -3  -9   7   10.46    3.50
  -2  -9   7    3.73    2.34
  -1  -9   7   92.28    3.52
   0  -9   7    0.23    1.28
   1  -9   7    3.58    1.91
   2  -9   7    0.00    1.94
   3  -9   7    0.00    2.15
   4  -9   7    1.45    2.68
  -4  -8   7   28.73    2.12
  -3  -8   7    0.00    2.79
  -2  -8   7   24.97    2.84
  -1  -8   7   60.45    3.36
   0  -8   7    2.89    1.24
   1  -8   7    1.69    1.55
   2  -8   7    4.82    1.11
   3  -8   7   11.32    2.14
   4  -8   7    0.46    1.79
  -4  -7   7    7.01    1.41
  -3  -7   7    0.38    2.74
  -2  -7   7  129.48    3.62
  -1  -7   7    3.57    1.20
   0  -7   7    3.01    1.23
   1  -7   7    0.49    0.82
   2  -7   7    1.54    0.87
   3  -7   7    0.00    1.57
   4  -7   7    0.00    1.57
  -4  -6   7    2.21    1.11
  -3  -6   7   28.76    3.21
  -2  -6   7   92.47    3.38
  -1  -6   7    0.86    0.82
   0  -6   7   20.22    1.79
   1  -6   7   15.02    1.25
   2  -6   7    9.00    1.02
   3  -6   7    0.19    1.91
   4  -6   7   13.41    2.28
  -4  -5   7    5.56    1.93
  -3  -5   7  120.00    4.65
  -2  -5   7    9.79    1.46
  -1  -5   7    0.75    0.68
   0  -5   7   13.97    1.51
   1  -5   7    5.82    0.87
   2  -5   7    0.11    0.48
   3  -5   7    0.20    0.69
   4  -5   7   35.61    3.04
   5  -5   7    0.00    1.79
  -4  -4   7   16.26    2.43
  -3  -4   7   85.99    5.63
  -2  -4   7    0.02    0.92
  -1  -4   7   46.47    1.35
   0  -4   7   16.66    1.45
   1  -4   7    3.71    0.67
   2  -4   7   11.48    0.91
   3  -4   7    6.81    1.06
   4  -4   7   12.94    1.81
   5  -4   7    0.58    1.99
  -5  -3   7    1.84    4.49
  -4  -3   7   54.11    3.62
  -3  -3   7   12.16    3.38
  -2  -3   7    1.31    0.63
  -1  -3   7   64.75    1.47
   0  -3   7   24.76    1.56
   1  -3   7    5.63    0.64
   2  -3   7    0.62    0.51
   3  -3   7   54.70    3.42
   4  -3   7    1.39    1.19
   5  -3   7    9.32    2.65
  -5  -2   7    4.07    2.02
  -4  -2   7   51.77    3.69
  -3  -2   7    0.30    2.82
  -2  -2   7   56.56    1.51
  -1  -2   7    1.60    0.50
   0  -2   7    0.05    0.45
   1  -2   7   31.24    1.03
   2  -2   7    1.43    0.67
   3  -2   7   20.52    2.33
   4  -2   7    7.05    1.66
   5  -2   7   38.73    4.02
  -5  -1   7   11.33    2.43
  -4  -1   7    6.35    1.77
  -3  -1   7    0.00    2.80
  -2  -1   7   96.67    2.09
  -1  -1   7   31.65    0.93
   0  -1   7    8.92    0.75
   1  -1   7    1.14    0.44
   2  -1   7   23.56    0.91
   3  -1   7   14.31    2.66
   4  -1   7   19.47    2.03
   5  -1   7   44.63    3.96
  -5   0   7   11.17    6.73
  -4   0   7    0.29    1.51
  -3   0   7   34.17    3.91
  -2   0   7    5.36    1.27
  -1   0   7    2.98    0.45
   0   0   7   64.86    1.50
   1   0   7   26.49    0.72
   2   0   7    2.96    0.43
   3   0   7   31.10    2.91
   4   0   7   83.01    3.20
   5   0   7    6.69    1.79
  -4   1   7    2.64    1.62
  -3   1   7   79.60    5.17
  -2   1   7    9.29    1.43
  -1   1   7   18.40    1.14
   0   1   7    6.45    0.87
   1   1   7    0.42    0.33
   2   1   7   29.77    1.75
   3   1   7   30.76    2.94
   4   1   7  101.81    3.24
   5   1   7    0.70    1.43
  -4   2   7   13.08    2.16
  -3   2   7    7.96    3.55
  -2   2   7    5.11    1.34
  -1   2   7   62.90    1.71
   0   2   7   68.01    1.87
   1   2   7    2.74    0.47
   2   2   7   46.50    2.02
   3   2   7  105.72    4.52
   4   2   7   15.27    1.72
   5   2   7    1.54    1.59
  -4   3   7   34.65    3.22
  -3   3   7    1.49    7.61
  -2   3   7   17.38    1.88
  -1   3   7   10.22    0.97
   0   3   7   19.17    1.09
   1   3   7   91.44    1.55
   2   3   7   16.30    1.48
   3   3   7  134.52    7.59
   4   3   7    0.57    1.08
   5   3   7   19.82    2.40
  -4   4   7   13.56    2.51
  -3   4   7    0.00    3.16
  -2   4   7   44.96    2.61
  -1   4   7   36.59    1.56
   0   4   7   15.50    0.99
   1   4   7   63.88    1.40
   2   4   7   45.10    3.23
   3   4   7   25.34    4.71
   4   4   7    6.27    2.02
   5   4   7   53.23    3.66
  -4   5   7    2.80    1.90
  -3   5   7    3.47    4.59
  -2   5   7    8.06    1.94
  -1   5   7   44.40    2.03
   0   5   7  105.62    2.20
   1   5   7    5.12    0.86
   2   5   7   87.40    4.02
   3   5   7    0.00    9.37
   4   5   7   26.63    3.08
   5   5   7   28.43    7.24
  -4   6   7    0.00    2.00
  -3   6   7   14.49    5.64
  -2   6   7   11.32    2.12
  -1   6   7   18.95    1.65
   0   6   7   73.09    3.02
   1   6   7    3.64    0.91
   2   6   7    4.09    2.08
   3   6   7   15.23    5.02
   4   6   7   89.08    4.96
   5   6   7    0.00    2.95
  -4   7   7    0.00    2.08
  -3   7   7    3.85    5.46
  -2   7   7   22.78    2.64
  -1   7   7   70.72    2.68
   0   7   7    1.60    1.02
   1   7   7   22.25    1.64
   2   7   7   10.42    2.59
   3   7   7   36.76    6.03
   4   7   7   40.79    3.95
   5   7   7    0.00    3.10
  -3   8   7    0.66    5.42
  -2   8   7   12.54    2.27
  -1   8   7   42.24    3.53
   0   8   7    6.30    1.45
   1   8   7    1.27    1.40
   2   8   7    8.63    2.45
   3   8   7   98.56    8.24
   4   8   7    0.00    1.91
   5   8   7    0.29    2.95
  -3   9   7    7.06    5.76
  -2   9   7   26.73   27.56
  -1   9   7    0.00    2.74
   0   9   7    0.66    1.05
   1   9   7   32.22    3.04
   2   9   7   14.62    2.89
   3   9   7   65.87    7.07
   4   9   7    0.50    3.14
  -3  10   7    3.41    2.47
  -2  10   7   22.22   28.54
  -1  10   7   11.37    3.78
   0  10   7    4.52    1.49
   1  10   7   12.42    3.18
   2  10   7   48.34    4.24
   3  10   7    0.00    5.80
   4  10   7    1.15    3.16
  -2  11   7    0.00    5.35
  -1  11   7   11.21    4.94
   0  11   7   30.42    3.98
   1  11   7    5.24    3.10
   2  11   7   34.74    6.69
   3  11   7    0.00    6.00
   4  11   7   13.09    3.10
  -2  12   7    3.65   30.64
  -1  12   7   10.80   30.18
   0  12   7   11.46    3.40
   1  12   7   21.88    4.75
   2  12   7    0.00    5.90
   3  12   7    0.00    6.22
  -1  13   7   15.13   33.51
   0  13   7    0.81    3.00
   1  13   7   11.03    5.03
   2  13   7    0.00   50.78
   3  13   7    7.47    7.04
   0  14   7    3.95    3.72
   1  14   7    0.00   54.72
   2  14   7    2.64    3.76
   0 -14   8    3.75    3.58
  -2 -13   8   14.93    2.32
  -1 -13   8    0.00    4.05
   0 -13   8   10.66    3.48
   1 -13   8   25.35    5.25
  -2 -12   8    9.56    4.30
  -1 -12   8    0.00    4.17
   0 -12   8   43.55    4.48
   1 -12   8    0.00    3.52
   2 -12   8    0.00    3.48
  -3 -11   8   12.37    3.79
  -2 -11   8    1.82    3.72
  -1 -11   8   19.85    3.52
   0 -11   8   55.17    3.51
   1 -11   8    0.00    3.16
   2 -11   8    3.97    3.53
   3 -11   8    0.00    4.07
  -3 -10   8    0.00    3.55
  -2 -10   8    7.89    3.41
  -1 -10   8   96.73    4.90
   0 -10   8    7.14    1.85
   1 -10   8    2.29    3.07
   2 -10   8   19.04    3.28
   3 -10   8    0.64    3.12
  -4  -9   8    0.92    1.41
  -3  -9   8    3.81    3.36
  -2  -9   8   15.41    3.10
  -1  -9   8   95.67    4.40
   0  -9   8    0.67    1.34
   1  -9   8   19.19    2.52
   2  -9   8    1.98    1.28
   3  -9   8    1.63    3.01
  -4  -8   8    0.35    1.27
  -3  -8   8    0.79    3.11
  -2  -8   8   73.05    3.30
  -1  -8   8    8.83    2.34
   0  -8   8    3.07    1.21
   1  -8   8   70.88    2.77
   2  -8   8    0.00    0.91
   3  -8   8    1.79    2.25
   4  -8   8    2.43    1.84
  -4  -7   8    3.75    1.41
  -3  -7   8   12.01    3.18
  -2  -7   8   82.08    3.46
  -1  -7   8    1.66    1.96
   0  -7   8   59.66    2.91
   1  -7   8   20.56    2.46
   2  -7   8    4.06    1.62
   3  -7   8    0.00    2.09
   4  -7   8    0.04    1.69
  -4  -6   8    7.20    1.53
  -3  -6   8   42.46    3.64
  -2  -6   8   13.41    2.27
  -1  -6   8    6.94    1.03
   0  -6   8  190.27    4.79
   1  -6   8    1.78    1.10
   2  -6   8    0.25    1.27
   3  -6   8    0.00    1.84
   4  -6   8    0.99    1.69
  -4  -5   8    0.47    1.52
  -3  -5   8   46.81    3.87
  -2  -5   8    6.55    1.31
  -1  -5   8   90.83    2.31
   0  -5   8   81.32    3.04
   1  -5   8    2.61    0.75
   2  -5   8   12.44    1.08
   3  -5   8    6.48    1.41
   4  -5   8    5.16    1.63
  -4  -4   8    3.34    1.81
  -3  -4   8    9.75    4.16
  -2  -4   8   10.33    1.38
  -1  -4   8  233.27    3.02
   0  -4   8    3.40    0.95
   1  -4   8    0.91    0.62
   2  -4   8    2.74    0.93
   3  -4   8    2.43    2.69
   4  -4   8    0.27    1.24
   5  -4   8    0.00    2.25
  -4  -3   8   10.83    2.14
  -3  -3   8    5.63    3.36
  -2  -3   8   69.50    1.82
  -1  -3   8  139.41    2.15
   0  -3   8    1.27    0.84
   1  -3   8   51.33    1.39
   2  -3   8   18.10    1.36
   3  -3   8    0.00    2.58
   4  -3   8    1.46    1.26
   5  -3   8    6.00    2.39
  -4  -2   8    0.39    1.44
  -3  -2   8    3.50    3.25
  -2  -2   8  171.92    2.58
  -1  -2   8    7.37    0.67
   0  -2   8    6.02    0.74
   1  -2   8   23.93    1.02
   2  -2   8    7.53    0.76
   3  -2   8    1.70    2.36
   4  -2   8    0.63    1.31
   5  -2   8   16.31    2.48
  -4  -1   8    9.07    2.01
  -3  -1   8   25.32    3.99
  -2  -1   8  120.23    3.58
  -1  -1   8    1.47    0.46
   0  -1   8  120.05    2.14
   1  -1   8   13.17    0.68
   2  -1   8    1.03    0.49
   3  -1   8   12.72    2.84
   4  -1   8    1.80    1.38
   5  -1   8    2.54    1.74
  -4   0   8   11.03    2.14
  -3   0   8   62.39    5.21
  -2   0   8    8.54    1.52
  -1   0   8   10.36    0.66
   0   0   8   67.03    1.60
   1   0   8   28.78    0.81
   2   0   8   15.08    0.81
   3   0   8    6.45    2.43
   4   0   8   13.87    1.90
   5   0   8    2.88    1.79
  -4   1   8    6.88    1.94
  -3   1   8   62.71    5.54
  -2   1   8    0.57    1.07
  -1   1   8  127.34    2.05
   0   1   8    0.63    0.67
   1   1   8    0.85    0.35
   2   1   8   40.60    1.00
   3   1   8    3.24    1.81
   4   1   8    0.39    1.08
   5   1   8    3.41    1.81
  -4   2   8   17.46    2.41
  -3   2   8    1.13    3.46
  -2   2   8    4.78    1.39
  -1   2   8  107.69    2.30
   0   2   8   16.86    1.18
   1   2   8   22.12    0.94
   2   2   8    3.14    1.00
   3   2   8    1.11    2.48
   4   2   8   10.37    1.58
   5   2   8   10.43    2.25
  -4   3   8   10.84    2.54
  -3   3   8    3.31    3.35
  -2   3   8   65.76    2.98
  -1   3   8    2.96    0.85
   0   3   8   10.58    1.00
   1   3   8   68.40    1.46
   2   3   8   23.08    1.81
   3   3   8    3.77    2.71
   4   3   8   11.71    1.75
   5   3   8   31.48    2.82
  -4   4   8    0.07    1.76
  -3   4   8    0.00    3.50
  -2   4   8   93.22    3.35
  -1   4   8    5.99    1.17
   0   4   8   20.67    1.23
   1   4   8    0.78    0.50
   2   4   8    6.21    1.23
   3   4   8   40.58    6.34
   4   4   8    9.60    1.72
   5   4   8   22.49    2.84
  -4   5   8    2.86    2.03
  -3   5   8   19.25    4.38
  -2   5   8    7.46    1.61
  -1   5   8    5.22    1.17
   0   5   8   62.70    1.87
   1   5   8   40.71    1.39
   2   5   8   13.97    2.57
   3   5   8   21.20    5.27
   4   5   8   31.16    3.54
   5   5   8    3.63    2.19
  -4   6   8    0.05    1.78
  -3   6   8   34.37    5.08
  -2   6   8    2.12    1.70
  -1   6   8   16.67    1.60
   0   6   8    1.47    1.04
   1   6   8   29.35    1.67
   2   6   8   71.98    4.35
   3   6   8    0.00    4.81
   4   6   8   28.57    3.41
   5   6   8    0.00    3.17
  -3   7   8    4.95    5.74
  -2   7   8    1.78    1.75
  -1   7   8   35.12    2.58
   0   7   8   26.89    2.27
   1   7   8   22.46    1.68
   2   7   8   30.09    3.29
   3   7   8    9.85    5.26
   4   7   8    0.00    1.96
   5   7   8    6.11    3.73
  -3   8   8    0.00    5.52
  -2   8   8    3.56    3.80
  -1   8   8    2.26    3.38
   0   8   8   30.29    2.53
   1   8   8   68.00    2.56
   2   8   8    0.55    2.09
   3   8   8   12.16    5.69
   4   8   8    6.12    2.54
  -3   9   8    0.73    5.63
  -2   9   8   19.19   27.07
  -1   9   8    9.52    3.82
   0   9   8   25.34    2.58
   1   9   8   44.06    3.48
   2   9   8    0.98    2.05
   3   9   8    3.86   12.09
   4   9   8    6.61    3.68
  -2  10   8    6.05   28.28
  -1  10   8   19.79    5.14
   0  10   8   31.14    2.83
   1  10   8    2.92    2.72
   2  10   8    3.78    2.80
   3  10   8   17.03    6.48
   4  10   8    8.96    3.87
  -2  11   8    0.00   29.33
  -1  11   8    4.03    5.39
   0  11   8   24.69    2.91
   1  11   8    4.70    3.33
   2  11   8    0.71   48.94
   3  11   8    2.08    6.34
   4  11   8   21.95    4.49
  -1  12   8   20.46   33.04
   0  12   8    0.36    1.94
   1  12   8    0.00    5.66
   2  12   8   10.71   57.13
   3  12   8    0.00    6.37
  -1  13   8    9.94    2.89
   0  13   8    8.97    3.01
   1  13   8   14.47   56.14
   2  13   8    0.14   50.25
   1  14   8   18.63   62.35
  -1 -13   9    0.00    4.32
   0 -13   9    9.29    3.66
   1 -13   9    1.56    1.68
  -2 -12   9    0.00    4.96
  -1 -12   9    2.25    3.02
   0 -12   9   17.74    3.83
   1 -12   9    1.91    3.63
   2 -12   9   20.84    4.08
  -3 -11   9    2.83    2.05
  -2 -11   9    1.71    4.68
  -1 -11   9    4.51    3.01
   0 -11   9    3.57    2.09
   1 -11   9   10.86    3.60
   2 -11   9   38.34    4.32
  -3 -10   9    8.57    3.79
  -2 -10   9    0.13    4.24
  -1 -10   9   16.39    3.22
   0 -10   9    4.70    1.69
   1 -10   9   33.63    3.28
   2 -10   9   23.46    3.59
   3 -10   9    0.09    3.21
  -3  -9   9    0.00    3.43
  -2  -9   9    1.04    2.88
  -1  -9   9    1.62    2.42
   0  -9   9    9.49    1.88
   1  -9   9   87.15    4.18
   2  -9   9    1.24    2.66
   3  -9   9    0.00    2.82
  -4  -8   9    1.05    1.39
  -3  -8   9    1.41    3.14
  -2  -8   9    3.73    2.22
  -1  -8   9   12.53    2.62
   0  -8   9   42.06    2.90
   1  -8   9   60.44    3.53
   2  -8   9    0.00    1.53
   3  -8   9   12.73    4.71
   4  -8   9    0.93    1.85
  -4  -7   9    5.47    1.55
  -3  -7   9    3.50    3.05
  -2  -7   9    0.00    2.02
  -1  -7   9   23.76    2.83
   0  -7   9  130.18    4.39
   1  -7   9    4.21    1.74
   2  -7   9    4.70    1.83
   3  -7   9   24.25    4.67
   4  -7   9    1.38    1.85
  -4  -6   9    0.48    1.26
  -3  -6   9    0.00    2.88
  -2  -6   9   15.40    2.19
  -1  -6   9   25.28    1.66
   0  -6   9   77.49    2.73
   1  -6   9    1.94    1.38
   2  -6   9   64.71    3.07
   3  -6   9    2.77    3.54
   4  -6   9    1.85    1.58
  -4  -5   9    4.66    1.96
  -3  -5   9    2.71    2.88
  -2  -5   9   18.13    1.82
  -1  -5   9   90.85    2.06
   0  -5   9    4.88    1.10
   1  -5   9   13.72    1.21
   2  -5   9  100.16    3.16
   3  -5   9    0.00    3.45
   4  -5   9    1.01    1.46
  -4  -4   9    0.49    1.61
  -3  -4   9   16.37    4.53
  -2  -4   9    7.77    1.46
  -1  -4   9   71.48    1.82
   0  -4   9    9.73    1.32
   1  -4   9  127.45    2.24
   2  -4   9   21.91    1.57
   3  -4   9    0.18    3.18
   4  -4   9    1.77    1.43
  -4  -3   9    2.38    1.86
  -3  -3   9   13.41    3.81
  -2  -3   9   28.07    1.69
  -1  -3   9    0.82    0.60
   0  -3   9   21.22    1.23
   1  -3   9  232.08    2.95
   2  -3   9    2.12    0.97
   3  -3   9    0.00    3.18
   4  -3   9    0.35    1.27
   5  -3   9    1.96    1.79
  -4  -2   9   16.57    2.44
  -3  -2   9    3.71    3.28
  -2  -2   9   24.94    1.64
  -1  -2   9   21.97    1.02
   0  -2   9  139.05    2.52
   1  -2   9   66.44    1.57
   2  -2   9    0.82    0.56
   3  -2   9   31.74    3.70
   4  -2   9    5.69    1.70
   5  -2   9    0.34    1.59
  -4  -1   9    6.71    1.97
  -3  -1   9    0.00    3.37
  -2  -1   9    0.58    1.05
  -1  -1   9   29.29    1.08
   0  -1   9  303.63    3.62
   1  -1   9    4.38    0.51
   2  -1   9   13.44    0.90
   3  -1   9    2.79    2.69
   4  -1   9    0.11    1.24
   5  -1   9    0.47    1.71
  -4   0   9    0.91    1.63
  -3   0   9    0.17    3.43
  -2   0   9   29.92    2.45
  -1   0   9   67.79    1.36
   0   0   9  107.12    2.09
   1   0   9    0.17    0.36
   2   0   9   63.68    1.43
   3   0   9   14.11    2.85
   4   0   9    0.14    1.23
   5   0   9    2.43    1.78
  -4   1   9    0.12    1.61
  -3   1   9   13.80    3.75
  -2   1   9   26.62    2.32
  -1   1   9  203.53    2.77
   0   1   9    5.18    0.92
   1   1   9   38.08    0.98
   2   1   9   26.64    1.83
   3   1   9    6.49    2.60
   4   1   9    7.26    1.74
   5   1   9    0.36    1.55
  -4   2   9    1.40    1.75
  -3   2   9   25.63    4.25
  -2   2   9   25.45    2.30
  -1   2   9   98.52    1.89
   0   2   9    0.48    0.57
   1   2   9  103.32    1.72
   2   2   9    8.98    1.35
   3   2   9    1.43    2.55
   4   2   9    9.15    1.68
   5   2   9    0.15    1.64
  -4   3   9   10.51    2.42
  -3   3   9    7.85    3.89
  -2   3   9   70.37    3.27
  -1   3   9    0.32    0.80
   0   3   9   25.97    1.48
   1   3   9   67.26    1.58
   2   3   9    8.55    1.37
   3   3   9   22.09    3.47
   4   3   9    1.91    1.29
   5   3   9    0.96    1.69
  -4   4   9   12.50    2.56
  -3   4   9    8.77    3.93
  -2   4   9   35.04    2.63
  -1   4   9    1.80    1.04
   0   4   9  113.91    2.69
   1   4   9    0.81    0.58
   2   4   9    7.44    1.36
   3   4   9   26.82    3.29
   4   4   9    2.43    1.31
   5   4   9    0.83    1.44
  -4   5   9    5.29    2.13
  -3   5   9   15.39    4.49
  -2   5   9    0.76    1.27
  -1   5   9    9.33    1.45
   0   5   9   88.46    3.42
   1   5   9    7.96    1.02
   2   5   9   24.41    1.93
   3   5   9    4.20    4.91
   4   5   9    0.73    1.26
   5   5   9    4.73    1.93
  -3   6   9    0.00    3.55
  -2   6   9    2.52    1.42
  -1   6   9   57.98    3.26
   0   6   9    0.83    1.05
   1   6   9    5.01    1.00
   2   6   9   26.76    3.29
   3   6   9   14.68    5.93
   4   6   9    4.80    2.33
   5   6   9    4.45    2.07
  -3   7   9    0.00    4.45
  -2   7   9    0.94    4.08
  -1   7   9   64.92    3.52
   0   7   9    5.07    1.40
   1   7   9   28.68    1.56
   2   7   9    0.00    2.08
   3   7   9    6.19    5.75
   4   7   9   23.51    3.42
   5   7   9    3.10    8.48
  -3   8   9    0.00    5.81
  -2   8   9   17.89    5.94
  -1   8   9    6.60    3.71
   0   8   9    1.09    1.15
   1   8   9   27.97    2.54
   2   8   9   23.51    3.31
   3   8   9   13.93    6.57
   4   8   9    5.33    2.58
  -2   9   9   31.13   30.73
  -1   9   9    6.90    3.77
   0   9   9   15.27    2.18
   1   9   9    4.37    4.47
   2   9   9   15.92    3.15
   3   9   9   58.96    7.64
   4   9   9    0.70    3.18
  -2  10   9    5.09   27.01
  -1  10   9    0.00    5.01
   0  10   9   16.95    2.39
   1  10   9   13.89    5.04
   2  10   9    7.96   51.29
   3  10   9    4.28    6.35
   4  10   9    0.62    3.34
  -2  11   9    0.00   27.39
  -1  11   9    5.89    5.39
   0  11   9    1.24    1.43
   1  11   9   11.12    5.95
   2  11   9   19.87   53.11
   3  11   9    4.73    6.30
  -1  12   9    9.33   30.34
   0  12   9    5.88    2.56
   1  12   9   25.02    6.35
   2  12   9    3.38    6.60
   3  12   9    2.78    6.79
   0  13   9    5.51    2.68
   1  13   9   28.54   61.47
   2  13   9    5.38   57.02
   0 -13  10    0.00    3.44
  -2 -12  10    1.55    2.14
  -1 -12  10    3.96    5.26
   0 -12  10    1.03    1.68
   1 -12  10    0.15    3.73
  -2 -11  10    0.00    4.95
  -1 -11  10    1.49    3.17
   0 -11  10    2.93    2.12
   1 -11  10    0.81    2.41
   2 -11  10   13.19    3.87
  -3 -10  10   11.41    3.93
  -2 -10  10    4.07    3.38
  -1 -10  10    0.00    2.74
   0 -10  10    1.58    1.96
   1 -10  10    9.47    2.54
   2 -10  10    0.36    3.19
   3 -10  10    2.51    4.79
  -3  -9  10    2.78    3.60
  -2  -9  10    1.03    3.13
  -1  -9  10    9.07    2.87
   0  -9  10    0.80    1.34
   1  -9  10   22.39    2.87
   2  -9  10    0.00    2.94
   3  -9  10   24.60    5.50
  -3  -8  10    0.72    3.31
  -2  -8  10    1.03    2.17
  -1  -8  10    2.24    2.60
   0  -8  10    0.57    1.17
   1  -8  10    0.00    1.61
   2  -8  10   10.26    2.27
   3  -8  10   34.05    5.82
  -3  -7  10    5.84    3.31
  -2  -7  10    9.88    2.36
  -1  -7  10    4.92    1.94
   0  -7  10    8.56    1.67
   1  -7  10    7.39    1.95
   2  -7  10   42.13    2.92
   3  -7  10   24.79    4.71
   4  -7  10    1.24    1.68
  -4  -6  10    0.00    1.22
  -3  -6  10    0.79    3.05
  -2  -6  10    8.23    2.50
  -1  -6  10    5.85    0.97
   0  -6  10    1.81    1.35
   1  -6  10   18.19    2.05
   2  -6  10   85.49    3.27
   3  -6  10    1.63    3.50
   4  -6  10    5.81    1.85
  -4  -5  10    0.50    1.73
  -3  -5  10   11.98    4.77
  -2  -5  10    6.39    2.18
  -1  -5  10    0.25    0.69
   0  -5  10   25.88    1.86
   1  -5  10   46.31    1.78
   2  -5  10   41.52    2.27
   3  -5  10    0.98    3.59
   4  -5  10   24.71    2.45
  -4  -4  10    1.44    1.88
  -3  -4  10    6.23    4.20
  -2  -4  10   15.90    1.92
  -1  -4  10    7.63    0.95
   0  -4  10   20.07    1.32
   1  -4  10   99.74    2.13
   2  -4  10    0.88    1.08
   3  -4  10   16.20    4.11
   4  -4  10   22.87    2.35
  -4  -3  10    8.66    2.32
  -3  -3  10    0.00    3.36
  -2  -3  10    1.67    1.85
  -1  -3  10   40.40    1.44
   0  -3  10   25.76    1.39
   1  -3  10   63.40    1.73
   2  -3  10    5.77    1.20
   3  -3  10   74.00    5.97
   4  -3  10    2.03    1.48
   5  -3  10    6.54    5.17
  -4  -2  10    7.61    2.20
  -3  -2  10   18.79    4.06
  -2  -2  10   20.32    1.58
  -1  -2  10   11.15    0.93
   0  -2  10   52.52    1.73
   1  -2  10    0.57    0.51
   2  -2  10   26.11    1.25
   3  -2  10   85.07    5.07
   4  -2  10    0.73    1.40
   5  -2  10    1.65    1.73
  -4  -1  10    0.92    1.75
  -3  -1  10    5.14    3.74
  -2  -1  10   44.22    2.67
  -1  -1  10    4.98    0.70
   0  -1  10   35.44    1.45
   1  -1  10   23.07    0.93
   2  -1  10  146.76    2.35
   3  -1  10   14.74    3.09
   4  -1  10    0.00    1.39
   5  -1  10    3.75    2.03
  -4   0  10    6.48    2.13
  -3   0  10   12.95    3.90
  -2   0  10    6.25    1.54
  -1   0  10    7.95    0.85
   0   0  10    7.12    0.88
   1   0  10   24.87    0.92
   2   0  10  155.19    3.30
   3   0  10    1.66    2.56
   4   0  10    9.42    1.98
   5   0  10    0.82    1.62
  -4   1  10    9.04    2.28
  -3   1  10   28.74    4.55
  -2   1  10    1.46    1.27
  -1   1  10    2.28    0.76
   0   1  10   52.13    2.09
   1   1  10  123.98    1.70
   2   1  10   41.18    2.27
   3   1  10    2.51    2.59
   4   1  10   20.83    2.60
   5   1  10    1.50    1.78
  -4   2  10    9.74    2.29
  -3   2  10   13.62    4.04
  -2   2  10    0.29    1.71
  -1   2  10   22.61    1.97
   0   2  10   22.13    1.55
   1   2  10  193.88    2.51
   2   2  10    0.23    0.91
   3   2  10   25.61    3.59
   4   2  10    2.48    1.34
   5   2  10    0.67    1.69
  -4   3  10   14.71    2.79
  -3   3  10    0.00    3.61
  -2   3  10    4.05    1.51
  -1   3  10   45.42    2.46
   0   3  10   64.64    2.27
   1   3  10   57.85    1.62
   2   3  10    0.97    0.97
   3   3  10   60.15    4.67
   4   3  10    2.84    1.36
   5   3  10    0.36    1.59
  -4   4  10    6.77    3.53
  -3   4  10    0.00    3.79
  -2   4  10   27.84    2.39
  -1   4  10   14.57    1.74
   0   4  10  116.05    3.95
   1   4  10    0.15    0.58
   2   4  10   23.26    1.91
   3   4  10   15.74    3.24
   4   4  10    2.44    1.40
   5   4  10    6.56    1.86
  -3   5  10    8.84    4.03
  -2   5  10   28.43    2.99
  -1   5  10   16.82    1.94
   0   5  10   30.44    2.41
   1   5  10    3.10    0.99
   2   5  10   96.03    3.08
   3   5  10    1.45    4.14
   4   5  10    2.80    1.41
   5   5  10    2.83    2.11
  -3   6  10   24.38    4.98
  -2   6  10    3.43    3.74
  -1   6  10   22.99    4.32
   0   6  10    0.00    1.02
   1   6  10   12.00    1.42
   2   6  10   31.12    2.21
   3   6  10    4.07    2.84
   4   6  10   12.76    2.01
   5   6  10    0.00    8.42
  -3   7  10   31.60    5.34
  -2   7  10    8.43    4.34
  -1   7  10    4.04    3.91
   0   7  10    3.47    1.34
   1   7  10   89.10    4.60
   2   7  10    0.70    1.06
   3   7  10    0.00    5.59
   4   7  10    6.21    1.75
  -3   8  10    0.20    2.43
  -2   8  10    0.14    5.87
  -1   8  10    0.00    3.89
   0   8  10    4.65    1.51
   1   8  10   40.71    3.88
   2   8  10    0.78    2.33
   3   8  10   31.70    6.86
   4   8  10    2.30    3.31
  -2   9  10    0.45   26.71
  -1   9  10    0.00    4.06
   0   9  10   34.12    3.09
   1   9  10    0.42    4.90
   2   9  10    1.42    5.27
   3   9  10   11.37    6.70
   4   9  10    4.58    3.78
  -2  10  10    2.86   29.64
  -1  10  10    2.04    5.00
   0  10  10   23.47    2.86
   1  10  10    0.00    4.99
   2  10  10    8.51   50.36
   3  10  10    0.00    6.50
   4  10  10    4.01    3.71
  -1  11  10   19.52    5.98
   0  11  10    0.71    1.44
   1  11  10    6.17    6.04
   2  11  10    8.13   52.63
   3  11  10    5.72    6.98
  -1  12  10    5.03    2.36
   0  12  10    0.39    2.12
   1  12  10    0.00    6.16
   2  12  10    0.00   54.57
   1  13  10    0.00   56.44
  -1 -12  11    0.00    4.54
   0 -12  11    1.11    1.73
   1 -12  11    2.17    2.54
  -2 -11  11    2.57    2.12
  -1 -11  11    2.96    4.19
   0 -11  11    4.41    1.86
   1 -11  11    1.45    6.26
   2 -11  11    0.00    5.64
  -2 -10  11    0.53    3.47
  -1 -10  11    3.19    3.13
   0 -10  11    0.00    1.42
   1 -10  11    0.30    2.68
   2 -10  11    0.93    5.42
  -3  -9  11    0.00    3.80
  -2  -9  11    5.90    3.01
  -1  -9  11   11.28    3.22
   0  -9  11    2.45    1.49
   1  -9  11    0.97    1.99
   2  -9  11    1.77    5.07
   3  -9  11    4.98    5.03
  -3  -8  11    0.07    3.46
  -2  -8  11    7.86    3.41
  -1  -8  11    2.33    2.63
   0  -8  11    0.63    1.24
   1  -8  11    1.87    2.02
   2  -8  11    0.00    3.73
   3  -8  11   12.37    4.81
  -3  -7  11    0.84    3.35
  -2  -7  11   24.01    3.08
  -1  -7  11    4.22    1.75
   0  -7  11    0.58    1.52
   1  -7  11    0.00    1.67
   2  -7  11    3.59    1.80
   3  -7  11    0.56    4.36
   4  -7  11    5.25    4.91
  -3  -6  11    5.00    3.46
  -2  -6  11    4.27    2.41
  -1  -6  11    1.02    0.83
   0  -6  11   16.03    1.87
   1  -6  11    5.27    1.72
   2  -6  11    4.01    1.68
   3  -6  11   11.75    3.96
   4  -6  11   21.76    2.49
  -4  -5  11    0.11    1.82
  -3  -5  11   25.00    5.65
  -2  -5  11    1.42    2.15
  -1  -5  11    5.16    0.98
   0  -5  11    1.99    1.17
   1  -5  11    0.44    0.77
   2  -5  11    2.25    1.51
   3  -5  11    9.65    4.11
   4  -5  11   31.78    2.75
  -4  -4  11    5.41    2.19
  -3  -4  11   14.54    4.72
  -2  -4  11    1.76    2.11
  -1  -4  11   21.39    1.26
   0  -4  11   22.75    1.45
   1  -4  11    0.20    0.68
   2  -4  11   19.48    1.80
   3  -4  11   16.35    4.65
   4  -4  11    8.50    2.06
  -4  -3  11   18.18    2.97
  -3  -3  11    0.00    3.99
  -2  -3  11    7.29    2.16
  -1  -3  11    7.03    0.90
   0  -3  11   11.13    1.13
   1  -3  11   14.62    0.95
   2  -3  11   15.43    1.92
   3  -3  11   51.58    5.02
   4  -3  11    1.37    1.52
  -4  -2  11    6.89    2.19
  -3  -2  11    4.83    3.78
  -2  -2  11   19.97    2.18
  -1  -2  11   18.37    1.14
   0  -2  11    5.77    0.93
   1  -2  11   31.97    1.21
   2  -2  11   21.46    1.86
   3  -2  11    9.35    4.16
   4  -2  11    3.17    1.75
  -4  -1  11    1.51    1.89
  -3  -1  11    5.40    3.74
  -2  -1  11    9.31    1.72
  -1  -1  11   30.23    1.35
   0  -1  11   34.89    1.51
   1  -1  11   14.01    0.87
   2  -1  11   53.97    2.29
   3  -1  11    4.64    3.05
   4  -1  11   11.91    2.28
   5  -1  11   13.76    2.76
  -4   0  11    0.39    1.81
  -3   0  11    9.19    4.03
  -2   0  11    6.01    2.41
  -1   0  11   14.18    1.22
   0   0  11   43.68    1.60
   1   0  11    6.02    0.65
   2   0  11   13.49    1.49
   3   0  11   12.17    3.07
   4   0  11   52.18    3.60
   5   0  11    1.82    1.93
  -4   1  11    2.67    2.04
  -3   1  11   15.04    4.29
  -2   1  11   34.93    2.83
  -1   1  11   44.97    2.51
   0   1  11    5.97    1.12
   1   1  11   19.37    1.16
   2   1  11    9.70    1.58
   3   1  11   25.71    3.72
   4   1  11   45.64    3.45
   5   1  11    0.00    1.49
  -4   2  11    4.27    2.16
  -3   2  11    0.00    3.95
  -2   2  11   19.23    2.38
  -1   2  11   41.82    2.50
   0   2  11    0.47    0.84
   1   2  11    0.79    0.67
   2   2  11   19.56    1.83
   3   2  11   86.46    4.98
   4   2  11    3.23    1.46
   5   2  11    1.96    1.81
  -3   3  11    3.43    4.35
  -2   3  11   26.96    3.29
  -1   3  11    4.33    1.39
   0   3  11    0.24    0.82
   1   3  11   27.25    1.88
   2   3  11   21.59    1.95
   3   3  11   93.86    5.17
   4   3  11    0.21    1.25
   5   3  11    6.72    1.87
  -3   4  11    0.00    4.45
  -2   4  11   31.64    3.18
  -1   4  11    9.45    1.60
   0   4  11    5.79    1.64
   1   4  11   24.58    1.81
   2   4  11   59.71    2.77
   3   4  11    6.93    3.07
   4   4  11    3.14    1.43
   5   4  11   10.49    2.09
  -3   5  11    8.30    4.02
  -2   5  11    1.25    4.45
  -1   5  11    8.06    1.92
   0   5  11   40.65    2.75
   1   5  11   16.07    1.60
   2   5  11   87.82    3.21
   3   5  11    0.48    2.98
   4   5  11   18.18    2.30
  -3   6  11    0.90    5.19
  -2   6  11    6.68    4.43
  -1   6  11   12.18    4.15
   0   6  11   24.90    2.54
   1   6  11   22.39    3.06
   2   6  11    7.78    1.50
   3   6  11    4.28    2.99
   4   6  11   25.84    2.69
  -3   7  11    2.26    2.44
  -2   7  11   13.67    6.33
  -1   7  11   41.07    5.09
   0   7  11    6.22    1.67
   1   7  11   38.56    5.99
   2   7  11    0.38    1.09
   3   7  11   20.67    3.84
   4   7  11    3.31    1.64
  -2   8  11   12.75    6.47
  -1   8  11   20.05    4.71
   0   8  11    5.10    1.61
   1   8  11    7.81    5.33
   2   8  11    3.83    5.56
   3   8  11   42.36    4.52
   4   8  11    1.11    1.73
  -2   9  11   27.70   35.24
  -1   9  11    0.00    4.16
   0   9  11    2.77    1.59
   1   9  11    3.99    5.35
   2   9  11    7.67   10.92
   3   9  11   14.81    7.10
   4   9  11    1.89    1.84
  -1  10  11    5.17    5.50
   0  10  11    0.18    1.46
   1  10  11    8.74    5.49
   2  10  11   17.96   57.19
   3  10  11    0.00    6.81
  -1  11  11    0.07   30.80
   0  11  11    2.96    1.72
   1  11  11    0.00    6.10
   2  11  11    6.77   50.26
   3  11  11    0.00    6.80
   1  12  11    0.00    6.86
   2  12  11    0.00   50.96
  -1 -11  12   12.06    4.44
   0 -11  12   10.34    2.44
   1 -11  12    3.01    4.00
  -2 -10  12    0.46    3.72
  -1 -10  12   41.14    4.93
   0 -10  12    0.62    1.52
   1 -10  12    0.00    3.74
   2 -10  12    1.15    5.69
  -2  -9  12   20.40    3.95
  -1  -9  12   31.10    4.28
   0  -9  12    0.39    1.42
   1  -9  12    5.12    2.56
   2  -9  12    0.40    4.52
   3  -9  12    1.26    9.93
  -3  -8  12    1.50    3.46
  -2  -8  12   57.45    4.55
  -1  -8  12    3.20    2.51
   0  -8  12    1.39    1.47
   1  -8  12    6.26    2.35
   2  -8  12    4.13    4.16
   3  -8  12    0.00    4.92
  -3  -7  12    8.41    3.98
  -2  -7  12   46.22    4.25
  -1  -7  12    0.00    1.83
   0  -7  12   18.59    2.53
   1  -7  12    0.42    1.83
   2  -7  12    0.00    1.55
   3  -7  12    5.54    4.47
  -3  -6  12   32.32    4.06
  -2  -6  12    8.05    2.74
  -1  -6  12    5.98    2.20
   0  -6  12   18.06    2.32
   1  -6  12    5.03    1.62
   2  -6  12    1.01    1.66
   3  -6  12    0.00    4.08
   4  -6  12    3.97    2.09
  -3  -5  12   27.07    6.14
  -2  -5  12    0.44    2.33
  -1  -5  12   26.94    1.61
   0  -5  12    1.70    0.91
   1  -5  12    0.66    0.84
   2  -5  12    8.30    2.39
   3  -5  12    0.00    3.87
   4  -5  12    1.34    1.74
  -3  -4  12    3.27    4.76
  -2  -4  12    2.78    2.34
  -1  -4  12   38.61    1.77
   0  -4  12    5.72    1.05
   1  -4  12    7.72    1.10
   2  -4  12    2.94    1.81
   3  -4  12    4.59    3.79
   4  -4  12    2.47    1.77
  -3  -3  12    0.00    4.25
  -2  -3  12   21.40    3.58
  -1  -3  12   11.23    1.18
   0  -3  12    6.45    1.03
   1  -3  12   23.49    1.20
   2  -3  12    6.29    1.75
   3  -3  12    2.88    3.63
   4  -3  12    7.64    1.92
  -3  -2  12    5.13    4.14
  -2  -2  12   42.41    3.98
  -1  -2  12    1.34    0.80
   0  -2  12    9.79    1.13
   1  -2  12    0.63    0.58
   2  -2  12    2.95    1.49
   3  -2  12    9.25    4.70
   4  -2  12    6.83    2.18
  -3  -1  12   13.50    4.29
  -2  -1  12   12.52    2.92
  -1  -1  12    4.36    0.89
   0  -1  12   35.48    1.59
   1  -1  12   23.37    1.11
   2  -1  12    3.22    1.20
   3  -1  12   13.83    3.54
   4  -1  12   15.60    2.55
  -3   0  12   31.84    5.11
  -2   0  12    1.05    2.32
  -1   0  12   10.72    1.70
   0   0  12    3.33    0.87
   1   0  12   19.76    1.21
   2   0  12   24.98    2.14
   3   0  12    4.27    3.10
   4   0  12   20.54    2.77
  -3   1  12    9.97    4.39
  -2   1  12    4.52    2.53
  -1   1  12   26.87    2.28
   0   1  12   21.99    1.69
   1   1  12   11.70    1.45
   2   1  12   25.29    2.11
   3   1  12   11.48    3.27
   4   1  12    1.60    1.45
  -3   2  12    0.00    4.07
  -2   2  12    3.71    2.56
  -1   2  12    9.20    1.73
   0   2  12   45.74    2.21
   1   2  12   41.04    2.30
   2   2  12    0.45    1.01
   3   2  12   13.86    3.28
   4   2  12    2.85    1.50
  -3   3  12    0.00    4.28
  -2   3  12   18.41    2.86
  -1   3  12    8.72    1.67
   0   3  12   26.95    2.46
   1   3  12   31.70    2.13
   2   3  12    0.76    1.24
   3   3  12    3.19    3.32
   4   3  12    6.53    1.73
  -3   4  12    1.04    3.96
  -2   4  12   19.08    4.47
  -1   4  12   34.81    3.02
   0   4  12   34.52    2.71
   1   4  12    0.24    0.94
   2   4  12    0.21    0.91
   3   4  12   11.50    3.66
   4   4  12   10.06    1.90
  -3   5  12    1.09    5.12
  -2   5  12    6.68    4.45
  -1   5  12   22.63    2.74
   0   5  12   32.08    2.73
   1   5  12    1.60    2.04
   2   5  12    6.91    1.51
   3   5  12   15.68    3.54
   4   5  12   28.64    2.63
  -3   6  12    5.01    2.62
  -2   6  12   16.01    6.66
  -1   6  12   24.63    4.60
   0   6  12    0.13    1.15
   1   6  12    1.73    2.35
   2   6  12   23.24    2.50
   3   6  12    3.58    3.32
   4   6  12   22.53    2.90
  -2   7  12   11.22    6.57
  -1   7  12   16.28    4.72
   0   7  12   14.99    2.33
   1   7  12   22.41    5.77
   2   7  12   18.21    3.19
   3   7  12   20.61    3.96
   4   7  12    1.37    1.75
  -2   8  12    9.82    6.90
  -1   8  12    6.53    4.46
   0   8  12   12.57    2.22
   1   8  12   40.71    6.88
   2   8  12    0.96    6.01
   3   8  12   19.06    3.52
   4   8  12    0.00    1.67
  -2   9  12   10.03   34.77
  -1   9  12   12.94    4.92
   0   9  12   16.37    2.80
   1   9  12   21.09    6.35
   2   9  12    8.06   10.79
   3   9  12    3.02    6.20
  -1  10  12   17.45    5.87
   0  10  12   27.06    6.61
   1  10  12    0.00    5.62
   2  10  12    2.16   49.70
   3  10  12    1.28    7.14
   0  11  12    8.01    4.45
   1  11  12    0.00    6.63
   2  11  12    3.15   55.15
   1  12  12    7.89   57.31
   0 -11  13    2.29    1.90
  -1 -10  13   19.00    3.40
   0 -10  13    1.46    1.80
   1 -10  13   18.43    4.51
   2 -10  13    5.21    9.95
  -2  -9  13    7.49    3.93
  -1  -9  13    3.75    2.84
   0  -9  13    4.91    1.95
   1  -9  13   31.97    4.86
   2  -9  13    1.47    4.49
  -2  -8  13   14.54    3.93
  -1  -8  13    4.87    2.72
   0  -8  13   28.83    3.19
   1  -8  13   13.88    3.39
   2  -8  13    0.00    2.87
   3  -8  13    5.06    5.19
  -3  -7  13    0.39    2.06
  -2  -7  13    2.11    3.62
  -1  -7  13    8.65    2.27
   0  -7  13   70.23    4.02
   1  -7  13    0.65    2.08
   2  -7  13    0.00    4.32
   3  -7  13    3.97    4.67
  -3  -6  13    0.00    5.30
  -2  -6  13    0.00    3.57
  -1  -6  13   27.40    3.06
   0  -6  13   35.44    2.28
   1  -6  13    0.81    1.79
   2  -6  13   11.84    2.97
   3  -6  13    0.00    4.24
  -3  -5  13    0.00    4.94
  -2  -5  13   16.01    3.51
  -1  -5  13   69.09    3.11
   0  -5  13    2.25    0.98
   1  -5  13    5.77    1.84
   2  -5  13   12.28    2.71
   3  -5  13    2.10    4.09
   4  -5  13    1.45    1.87
  -3  -4  13   17.80    5.32
  -2  -4  13   18.84    3.36
  -1  -4  13   41.91    2.26
   0  -4  13    1.25    0.89
   1  -4  13   24.87    1.46
   2  -4  13    0.14    1.64
   3  -4  13    2.09    3.92
   4  -4  13    1.02    1.82
  -3  -3  13    7.40    4.96
  -2  -3  13   41.58    5.43
  -1  -3  13    1.48    0.88
   0  -3  13    9.67    1.23
   1  -3  13   35.50    1.82
   2  -3  13    5.17    1.93
   3  -3  13    4.16    4.95
   4  -3  13    0.57    1.68
  -3  -2  13   15.51    4.60
  -2  -2  13   24.59    3.74
  -1  -2  13    1.52    0.84
   0  -2  13   41.42    1.83
   1  -2  13    1.13    0.79
   2  -2  13    2.66    1.55
   3  -2  13    4.83    4.43
   4  -2  13    1.18    1.88
  -3  -1  13    2.03    4.35
  -2  -1  13    0.84    2.63
  -1  -1  13    7.38    1.07
   0  -1  13   53.60    1.93
   1  -1  13    3.66    0.87
   2  -1  13   11.02    1.82
   3  -1  13    3.17    3.20
   4  -1  13    0.36    1.56
  -3   0  13    0.00    4.46
  -2   0  13    0.00    3.57
  -1   0  13   32.81    2.57
   0   0  13    6.89    1.05
   1   0  13    5.21    0.89
   2   0  13   17.42    2.08
   3   0  13   11.20    3.81
   4   0  13    2.31    1.76
  -3   1  13    0.00    4.43
  -2   1  13    6.23    3.96
  -1   1  13   54.02    2.96
   0   1  13    0.87    0.99
   1   1  13   13.33    1.73
   2   1  13    0.05    1.22
   3   1  13    9.43    3.51
   4   1  13    8.51    2.11
  -3   2  13    1.90    4.42
  -2   2  13   24.89    3.83
  -1   2  13   11.87    1.92
   0   2  13    3.78    1.61
   1   2  13   22.17    2.00
   2   2  13   22.64    2.18
   3   2  13   13.17    3.66
   4   2  13    7.30    2.17
  -3   3  13    1.92    4.45
  -2   3  13   32.08    5.01
  -1   3  13    0.37    1.61
   0   3  13   12.16    2.07
   1   3  13    1.88    1.15
   2   3  13   19.84    2.13
   3   3  13   27.01    4.21
   4   3  13    1.38    1.45
  -3   4  13    6.32    5.06
  -2   4  13   10.70    4.85
  -1   4  13    0.41    1.71
   0   4  13   20.47    2.39
   1   4  13   15.98    3.03
   2   4  13   13.63    2.26
   3   4  13    5.37    3.49
   4   4  13    1.65    1.48
  -2   5  13    1.98    4.61
  -1   5  13   13.14    4.27
   0   5  13    5.08    1.85
   1   5  13   27.24    3.54
   2   5  13   29.58    2.75
   3   5  13    1.24    3.14
   4   5  13    1.33    1.51
  -2   6  13    0.00    6.24
  -1   6  13   10.85    4.48
   0   6  13    8.85    2.03
   1   6  13   15.90    3.32
   2   6  13   15.21    6.16
   3   6  13    2.71    3.29
   4   6  13    2.71    1.66
  -2   7  13    4.03    6.62
  -1   7  13    1.10    4.51
   0   7  13   21.07    6.20
   1   7  13   22.93    6.47
   2   7  13    6.19    6.05
   3   7  13    0.33    3.43
   4   7  13    7.88    2.08
  -2   8  13    7.05   33.87
  -1   8  13    5.04    4.72
   0   8  13   12.83    5.41
   1   8  13   20.47    6.52
   2   8  13    9.86   11.62
   3   8  13    1.32    6.67
  -1   9  13    6.11    5.03
   0   9  13   13.98    5.55
   1   9  13    0.00    6.13
   2   9  13    2.22   11.88
   3   9  13    8.16    7.26
  -1  10  13    3.58    3.47
   0  10  13    7.17    4.63
   1  10  13   14.61    6.69
   2  10  13   11.43   65.58
   0  11  13    0.24    3.59
   1  11  13    2.36    7.27
   2  11  13   23.27    5.30
   0 -10  14    1.96    2.47
   1 -10  14   18.24    3.40
  -1  -9  14    6.33    3.03
   0  -9  14    5.78    2.51
   1  -9  14   11.09    3.37
   2  -9  14    3.22    4.78
  -2  -8  14    4.28    1.60
  -1  -8  14    4.75    2.84
   0  -8  14   12.33    1.90
   1  -8  14    0.00    2.07
   2  -8  14    0.01    4.99
  -2  -7  14    3.13    3.68
  -1  -7  14    3.02    2.65
   0  -7  14   11.78    1.81
   1  -7  14    3.37    2.30
   2  -7  14   16.56    5.68
   3  -7  14   14.95    5.06
  -2  -6  14    3.29    3.64
  -1  -6  14    0.40    2.48
   0  -6  14    0.17    1.10
   1  -6  14    9.98    2.45
   2  -6  14   29.09    5.58
   3  -6  14    0.00    4.24
  -2  -5  14    0.08    3.51
  -1  -5  14    1.79    2.07
   0  -5  14   12.56    1.51
   1  -5  14   47.47    3.08
   2  -5  14   18.00    3.08
   3  -5  14    2.47    4.08
  -3  -4  14    1.12    1.92
  -2  -4  14    1.47    4.76
  -1  -4  14    2.19    1.43
   0  -4  14    9.90    1.33
   1  -4  14   70.34    3.15
   2  -4  14    0.00    1.54
   3  -4  14    7.27    4.48
  -3  -3  14    1.61    5.25
  -2  -3  14    0.00    4.54
  -1  -3  14   17.29    1.93
   0  -3  14   31.66    1.82
   1  -3  14   29.06    2.00
   2  -3  14    1.50    1.79
   3  -3  14   23.34    5.91
   4  -3  14    0.44    1.88
  -3  -2  14    0.06    4.99
  -2  -2  14    3.59    3.86
  -1  -2  14   10.94    1.63
   0  -2  14   62.58    2.25
   1  -2  14    0.07    0.76
   2  -2  14   11.60    2.57
   3  -2  14    3.57    4.91
   4  -2  14    1.24    1.86
  -3  -1  14    0.35    4.64
  -2  -1  14   21.57    4.24
  -1  -1  14   12.66    2.00
   0  -1  14   22.68    1.54
   1  -1  14    0.96    0.82
   2  -1  14   31.15    3.10
   3  -1  14    0.00    4.01
   4  -1  14    0.90    1.82
  -3   0  14    0.00    4.59
  -2   0  14    7.22    4.01
  -1   0  14   23.72    2.38
   0   0  14    0.00    0.95
   1   0  14   10.73    1.22
   2   0  14   20.78    2.61
   3   0  14    0.62    3.45
   4   0  14    5.14    2.14
  -3   1  14    6.47    4.91
  -2   1  14    6.01    3.63
  -1   1  14    8.08    1.84
   0   1  14    3.34    1.67
   1   1  14   42.77    2.64
   2   1  14    0.59    1.40
   3   1  14    0.99    3.53
   4   1  14    4.67    1.71
  -3   2  14    2.38    2.16
  -2   2  14    2.08    4.53
  -1   2  14    2.27    1.85
   0   2  14    7.03    1.93
   1   2  14   35.46    2.47
   2   2  14    1.14    1.49
   3   2  14   10.54    3.71
   4   2  14    0.96    1.49
  -2   3  14    0.00    4.51
  -1   3  14    6.47    2.09
   0   3  14   33.76    6.49
   1   3  14    2.80    1.47
   2   3  14    6.67    1.85
   3   3  14   10.41    3.94
   4   3  14    6.16    1.88
  -2   4  14    2.93    4.70
  -1   4  14    2.63    4.03
   0   4  14   30.30    6.53
   1   4  14    2.75    2.43
   2   4  14   10.01    2.06
   3   4  14    0.84    3.51
   4   4  14    4.61    1.76
  -2   5  14    4.21    5.07
  -1   5  14    4.34    4.45
   0   5  14    5.56    4.16
   1   5  14    0.93    2.38
   2   5  14    2.06    5.99
   3   5  14   17.62    3.90
   4   5  14    5.43    1.84
  -2   6  14    1.22    6.62
  -1   6  14   22.13    4.73
   0   6  14    0.14    3.29
   1   6  14    0.00    5.94
   2   6  14    0.00    6.03
   3   6  14   19.30    3.96
   4   6  14    9.13    2.45
  -1   7  14    1.68    4.49
   0   7  14    0.62    3.55
   1   7  14   16.95    6.28
   2   7  14    9.72   12.24
   3   7  14    9.35    3.68
  -1   8  14    0.00    4.85
   0   8  14    5.97    4.63
   1   8  14    5.45    6.34
   2   8  14   11.92   12.08
   3   8  14   25.88    7.22
  -1   9  14    0.06    3.29
   0   9  14    7.09    4.84
   1   9  14    0.00    6.49
   2   9  14   11.72   12.68
   3   9  14   12.32    9.33
   0  10  14    4.47    4.56
   1  10  14    8.69    6.87
   2  10  14    9.82   64.70
   0  -9  15    1.45    1.55
   1  -9  15    0.00    1.96
  -1  -8  15    0.80    2.90
   0  -8  15    0.33    1.36
   1  -8  15    3.00    2.72
   2  -8  15    4.77    5.04
  -2  -7  15    3.49    2.35
  -1  -7  15    2.57    2.82
   0  -7  15    3.07    1.44
   1  -7  15    2.37    2.38
   2  -7  15    2.34    5.00
  -2  -6  15    0.00    3.71
  -1  -6  15    4.37    2.66
   0  -6  15    8.72    1.73
   1  -6  15    2.50    2.13
   2  -6  15    3.75    4.66
   3  -6  15   10.45    8.04
  -2  -5  15    6.34    3.65
  -1  -5  15    9.53    2.60
   0  -5  15    3.25    1.28
   1  -5  15    4.19    2.25
   2  -5  15    7.72    4.62
   3  -5  15   14.43    5.05
  -2  -4  15    7.85    5.12
  -1  -4  15   13.49    2.55
   0  -4  15    0.10    0.91
   1  -4  15    3.82    1.72
   2  -4  15    0.00    4.34
   3  -4  15   16.61    5.01
  -2  -3  15   13.23    5.10
  -1  -3  15    1.98    2.58
   0  -3  15    0.97    1.15
   1  -3  15    4.52    1.19
   2  -3  15    6.00    4.31
   3  -3  15   30.55    6.60
  -2  -2  15   22.69    4.30
  -1  -2  15    0.34    2.33
   0  -2  15    0.70    1.06
   1  -2  15   12.16    1.51
   2  -2  15   15.62    5.66
   3  -2  15    4.75    4.93
  -2  -1  15    2.97    2.87
  -1  -1  15    2.92    2.60
   0  -1  15   12.21    1.71
   1  -1  15   10.93    2.02
   2  -1  15   32.14    3.16
   3  -1  15    0.00    4.50
   4  -1  15    8.01    2.47
  -2   0  15    2.63    3.58
  -1   0  15    7.23    1.88
   0   0  15   23.30    5.77
   1   0  15   16.36    2.11
   2   0  15   10.15    2.22
   3   0  15    0.00    3.78
   4   0  15   13.59    2.75
  -2   1  15   12.67    4.38
  -1   1  15   16.29    2.51
   0   1  15    7.02    3.84
   1   1  15   27.47    2.37
   2   1  15    1.59    3.23
   3   1  15    7.59    4.03
   4   1  15    5.14    1.91
  -2   2  15   15.20    5.02
  -1   2  15   18.28    4.33
   0   2  15    6.53    4.00
   1   2  15    5.44    1.63
   2   2  15    0.00    3.67
   3   2  15   22.96    4.70
   4   2  15    0.22    1.50
  -2   3  15   26.93    5.35
  -1   3  15    9.31    7.38
   0   3  15    4.51    3.62
   1   3  15    2.35    2.62
   2   3  15    0.00    3.72
   3   3  15   10.99    3.97
   4   3  15    1.43    1.62
  -2   4  15   21.18    5.41
  -1   4  15    0.00    4.10
   0   4  15    1.09    3.23
   1   4  15    3.50    2.66
   2   4  15   17.56    6.72
   3   4  15    2.19    3.72
   4   4  15    0.81    3.53
  -2   5  15    9.10    5.29
  -1   5  15    0.00    4.38
   0   5  15    4.02    3.95
   1   5  15    4.72    5.79
   2   5  15   15.11    6.65
   3   5  15    1.37    3.74
  -1   6  15    1.28    4.53
   0   6  15    7.41    4.83
   1   6  15   25.78    6.33
   2   6  15    0.34    6.36
   3   6  15    3.65    3.65
  -1   7  15    4.35    9.38
   0   7  15    2.29    4.27
   1   7  15    0.90    6.53
   2   7  15    0.00   11.46
   3   7  15   18.09    7.13
   0   8  15    4.32    4.65
   1   8  15    0.00    6.24
   2   8  15    6.59   12.17
   0   9  15    6.37    5.00
   1   9  15    0.00    6.67
   2   9  15    5.96   63.02
   0  -8  16    0.29    1.38
   1  -8  16    0.53    1.70
  -1  -7  16    1.35    3.83
   0  -7  16    6.69    1.76
   1  -7  16    1.96    2.55
  -1  -6  16    0.00    3.66
   0  -6  16    0.84    1.33
   1  -6  16    2.30    2.26
   2  -6  16    3.14    4.75
  -1  -5  16    7.02    2.53
   0  -5  16    3.84    1.40
   1  -5  16    5.04    2.43
   2  -5  16    5.62    4.60
  -2  -4  16    3.39    1.48
  -1  -4  16    2.94    2.30
   0  -4  16    9.65    1.88
   1  -4  16    7.34    2.39
   2  -4  16    3.78    4.51
   3  -4  16    5.59    5.41
  -2  -3  16    3.36    4.33
  -1  -3  16    0.27    2.58
   0  -3  16   10.25    1.85
   1  -3  16    6.92    2.24
   2  -3  16    0.00    5.02
   3  -3  16    0.86    4.93
  -2  -2  16    4.84    4.39
  -1  -2  16   10.26    2.81
   0  -2  16   14.81    1.96
   1  -2  16    1.78    1.87
   2  -2  16    4.97    4.77
   3  -2  16    0.00    5.52
  -2  -1  16    0.00    3.62
  -1  -1  16   12.59    2.87
   0  -1  16   13.09    2.35
   1  -1  16    1.17    1.75
   2  -1  16    0.46    3.41
   3  -1  16    4.35    5.17
  -2   0  16    4.84    3.94
  -1   0  16    5.13    4.11
   0   0  16    1.17    2.97
   1   0  16    3.83    1.86
   2   0  16    0.00    3.69
   3   0  16    0.00    4.21
  -2   1  16   15.58    4.67
  -1   1  16   17.74    4.15
   0   1  16    5.05    3.46
   1   1  16    5.64    1.76
   2   1  16    6.73    3.63
   3   1  16   16.81    4.20
  -2   2  16   17.63    5.28
  -1   2  16    1.17    4.09
   0   2  16    7.30    3.93
   1   2  16   15.29    3.21
   2   2  16    0.74    3.63
   3   2  16   18.76    4.22
  -2   3  16    6.49    2.60
  -1   3  16   10.36    4.54
   0   3  16   12.26    4.87
   1   3  16   12.64    6.05
   2   3  16    0.00    6.08
   3   3  16    4.30    3.94
  -1   4  16   32.27    8.98
   0   4  16   23.27    6.31
   1   4  16    0.00    7.54
   2   4  16    8.22    6.37
   3   4  16    2.70    3.91
  -1   5  16   11.99    9.33
   0   5  16   14.64    5.56
   1   5  16    0.86    5.86
   2   5  16    0.00    6.33
   3   5  16    0.00    3.76
  -1   6  16   29.15    9.66
   0   6  16    1.91    4.05
   1   6  16    0.00    6.18
   2   6  16    2.85    6.94
   3   6  16    0.74    7.00
   0   7  16    0.62    4.23
   1   7  16    0.00    6.27
   2   7  16    2.49   12.16
   1   8  16   11.95    9.49
   0  -6  17    3.74    2.19
   1  -6  17    0.00    4.96
  -1  -5  17   16.13    3.18
   0  -5  17    0.00    1.85
   1  -5  17    8.16    4.80
   2  -5  17    0.00    4.67
  -1  -4  17    4.91    2.90
   0  -4  17    1.25    1.52
   1  -4  17    5.63    2.39
   2  -4  17    1.45    4.55
  -1  -3  17    2.41    3.78
   0  -3  17    2.96    1.53
   1  -3  17    0.96    1.84
   2  -3  17    7.27    5.46
  -1  -2  17    1.01    3.89
   0  -2  17    8.17    2.25
   1  -2  17    3.26    1.95
   2  -2  17    7.17    5.37
  -1  -1  17    4.48    3.94
   0  -1  17    3.10    3.27
   1  -1  17   10.45    2.50
   2  -1  17    0.00    3.81
   3  -1  17    7.34    5.48
  -1   0  17    7.86    4.18
   0   0  17    1.41    2.99
   1   0  17    8.98    2.42
   2   0  17    5.53    2.10
   3   0  17    0.00    5.08
  -1   1  17    2.96    7.76
   0   1  17    8.82    4.21
   1   1  17   20.74    5.76
   2   1  17    0.00    3.46
   3   1  17    2.88    4.32
  -1   2  17    0.00    7.43
   0   2  17   12.28    5.04
   1   2  17    1.48    5.75
   2   2  17    0.00    5.11
   3   2  17    8.17    4.22
  -1   3  17    2.55    8.27
   0   3  17    9.57    4.81
   1   3  17    0.30    5.74
   2   3  17    0.00    6.50
   3   3  17   13.10    4.45
  -1   4  17   10.99    8.86
   0   4  17    6.69    4.42
   1   4  17   10.31    6.26
   2   4  17    0.00    6.97
   3   4  17    5.09    7.99
   0   5  17    0.25    3.73
   1   5  17    0.00    8.63
   2   5  17    3.16    7.26
   0   6  17    8.49    5.21
   1   6  17   15.01    9.49
   2   6  17    0.00    7.03
   1   7  17    0.64    9.50
   0  -4  18    4.87    2.26
   1  -4  18    9.17    2.81
   0  -3  18    8.61    2.25
   1  -3  18    3.32    2.29
   0  -2  18   12.34    2.50
   1  -2  18    0.00    4.65
   2  -2  18    6.23    5.19
  -1  -1  18    9.14    3.52
   0  -1  18    2.31    3.21
   1  -1  18    0.01    5.36
   2  -1  18    7.98    5.12
  -1   0  18    9.88    3.56
   0   0  18    0.00    2.82
   1   0  18    2.20    5.37
   2   0  18    0.81    3.46
   0   1  18    0.21    3.14
   1   1  18    1.34    5.66
   2   1  18    0.00    3.66
   0   2  18    1.44    3.57
   1   2  18    5.32    7.66
   2   2  18    0.00    5.40
   0   3  18    6.91    4.60
   1   3  18    5.05    7.74
   2   3  18    0.73    6.83
   0   4  18    2.61    4.22
   1   4  18    2.89    8.45
   2   4  18    8.24    7.80
   1   5  18    7.28    8.96
   0   0   0    0.00    0.00
;
_shelx_hkl_checksum              69046
loop_
_space_group_symop_operation_xyz
'x, y, z'
'-x, -y, -z'
loop_
_atom_site_label
_atom_site_type_symbol
_atom_site_fract_x
_atom_site_fract_y
_atom_site_fract_z
_atom_site_U_iso_or_equiv
_atom_site_adp_type
_atom_site_occupancy
_atom_site_site_symmetry_order
_atom_site_calc_flag
_atom_site_refinement_flags_posn
_atom_site_refinement_flags_adp
Pb1 Pb 0.85384(10) 0.40911(4) 0.86876(3) 0.03270(16) Uani 1 1 d . .
I1 I 0.27557(16) 0.59709(6) 0.89850(5) 0.0343(2) Uani 1 1 d . .
I3 I 0.94365(18) 0.44560(7) 0.66833(5) 0.0405(2) Uani 1 1 d . .
I2 I 0.41786(18) 0.23037(7) 0.85965(6) 0.0453(3) Uani 1 1 d . .
O005 O 0.8123(18) 0.7838(6) 0.7145(6) 0.046(2) Uani 1 1 d . .
N2 N 0.385(2) 0.6661(7) 0.6517(6) 0.047(3) Uani 1 1 d . .
H2A H 0.5195 0.7002 0.6731 0.070 Uiso 1 1 calc R U
H2B H 0.3998 0.5978 0.6698 0.070 Uiso 1 1 calc R U
H2G H 0.2059 0.6986 0.6718 0.070 Uiso 1 1 calc R U
N1 N 0.908(2) 0.8932(8) 0.8226(7) 0.044(3) Uani 1 1 d . .
C1 C 0.794(3) 0.8112(10) 0.7919(9) 0.047(4) Uani 1 1 d . .
H1 H 0.6885 0.7704 0.8340 0.056 Uiso 1 1 calc R U
C00A C 0.433(3) 0.6687(12) 0.5519(8) 0.060(4) Uani 1 1 d . .
H00A H 0.2887 0.6305 0.5282 0.072 Uiso 1 1 calc R U
H00B H 0.6275 0.6335 0.5296 0.072 Uiso 1 1 calc R U
C3 C 1.074(3) 0.9620(11) 0.7644(10) 0.071(5) Uani 1 1 d . .
H3A H 1.2723 0.9559 0.7777 0.107 Uiso 1 1 calc R U
H3B H 0.9857 1.0355 0.7732 0.107 Uiso 1 1 calc R U
H3C H 1.0743 0.9408 0.7034 0.107 Uiso 1 1 calc R U
C2 C 0.878(4) 0.9179(12) 0.9181(9) 0.102(7) Uani 1 1 d . .
H2C H 0.7457 0.8728 0.9505 0.153 Uiso 1 1 calc R U
H2F H 0.8008 0.9923 0.9283 0.153 Uiso 1 1 calc R U
H2E H 1.0670 0.9049 0.9382 0.153 Uiso 1 1 calc R U
C4 C 0.403(4) 0.7880(14) 0.5216(10) 0.102(7) Uani 1 1 d . .
H4A H 0.2111 0.8215 0.5487 0.123 Uiso 1 1 calc R U
H4B H 0.5487 0.8233 0.5470 0.123 Uiso 1 1 calc R U
C5 C 0.429(5) 0.8111(15) 0.4333(13) 0.132(8) Uani 1 1 d . .
H5A H 0.2919 0.7714 0.4078 0.159 Uiso 1 1 calc R U
H5B H 0.6252 0.7804 0.4074 0.159 Uiso 1 1 calc R U
C6 C 0.389(4) 0.9172(13) 0.4018(11) 0.120(7) Uani 1 1 d . .
H6A H 0.1927 0.9492 0.4229 0.179 Uiso 1 1 calc R U
H6B H 0.4194 0.9163 0.3376 0.179 Uiso 1 1 calc R U
H6C H 0.5281 0.9586 0.4233 0.179 Uiso 1 1 calc R U
loop_
_atom_site_aniso_label
_atom_site_aniso_U_11
_atom_site_aniso_U_22
_atom_site_aniso_U_33
_atom_site_aniso_U_23
_atom_site_aniso_U_13
_atom_site_aniso_U_12
Pb1 0.0282(3) 0.0342(3) 0.0363(3) -0.0004(2) -0.0042(2) -0.0064(2)
I1 0.0338(5) 0.0330(5) 0.0373(4) 0.0017(4) -0.0057(4) -0.0079(4)
I3 0.0403(5) 0.0436(5) 0.0374(5) -0.0019(4) -0.0032(4) -0.0065(4)
I2 0.0368(5) 0.0322(5) 0.0682(6) -0.0010(5) -0.0083(5) -0.0078(4)
O005 0.045(6) 0.045(6) 0.048(5) -0.013(5) -0.007(5) -0.006(5)
N2 0.058(8) 0.040(7) 0.045(6) -0.005(5) -0.011(6) -0.014(6)
N1 0.067(8) 0.020(6) 0.044(7) -0.001(5) -0.015(6) 0.002(6)
C1 0.055(10) 0.023(8) 0.058(10) 0.007(7) 0.008(8) -0.005(7)
C00A 0.072(11) 0.069(11) 0.039(8) -0.004(8) -0.003(8) -0.022(9)
C3 0.059(10) 0.060(11) 0.096(12) -0.007(10) -0.003(9) -0.015(9)
C2 0.152(18) 0.090(14) 0.060(11) -0.036(10) -0.033(11) 0.024(13)
C4 0.148(18) 0.099(15) 0.072(12) 0.048(12) -0.035(12) -0.047(13)
C5 0.22(3) 0.073(15) 0.112(17) 0.023(14) -0.038(16) -0.018(15)
C6 0.20(2) 0.068(14) 0.087(13) 0.013(12) -0.031(14) 0.005(14)
loop_
_atom_type_symbol
_atom_type_description
_atom_type_scat_dispersion_real
_atom_type_scat_dispersion_imag
_atom_type_scat_source
C C 0.0033 0.0016 'International Tables Vol C Tables 4.2.6.8 and 6.1.1.4'
N N 0.0061 0.0033 'International Tables Vol C Tables 4.2.6.8 and 6.1.1.4'
O O 0.0106 0.0060 'International Tables Vol C Tables 4.2.6.8 and 6.1.1.4'
I I -0.4742 1.8119 'International Tables Vol C Tables 4.2.6.8 and 6.1.1.4'
Pb Pb -3.3944 10.1111 'International Tables Vol C Tables 4.2.6.8 and 6.1.1.4'
H H 0.0000 0.0000 'International Tables Vol C Tables 4.2.6.8 and 6.1.1.4'
loop_
_geom_angle_atom_site_label_1
_geom_angle_atom_site_label_2
_geom_angle_atom_site_label_3
_geom_angle
_geom_angle_site_symmetry_1
_geom_angle_site_symmetry_3
I3 Pb1 I2 94.56(4) . .
I3 Pb1 I2 93.13(4) . 1_655
I2 Pb1 I2 92.33(11) . 1_655
I3 Pb1 I1 90.59(5) . 1_655
I2 Pb1 I1 174.47(3) . 1_655
I2 Pb1 I1 89.42(11) 1_655 1_655
I3 Pb1 I1 91.93(4) . .
I2 Pb1 I1 89.19(11) . .
I2 Pb1 I1 174.59(3) 1_655 .
I1 Pb1 I1 88.60(11) 1_655 .
Pb1 I1 Pb1 88.60(11) 1_455 .
Pb1 I2 Pb1 92.33(11) . 1_455
C00A N2 H2A 109.5 . .
C00A N2 H2B 109.5 . .
H2A N2 H2B 109.5 . .
C00A N2 H2G 109.5 . .
H2A N2 H2G 109.5 . .
H2B N2 H2G 109.5 . .
C1 N1 C3 122.0(11) . .
C1 N1 C2 122.0(12) . .
C3 N1 C2 116.0(12) . .
O005 C1 N1 126.4(12) . .
O005 C1 H1 116.8 . .
N1 C1 H1 116.8 . .
N2 C00A C4 108.8(11) . .
N2 C00A H00A 109.9 . .
C4 C00A H00A 109.9 . .
N2 C00A H00B 109.9 . .
C4 C00A H00B 109.9 . .
H00A C00A H00B 108.3 . .
N1 C3 H3A 109.5 . .
N1 C3 H3B 109.5 . .
H3A C3 H3B 109.5 . .
N1 C3 H3C 109.5 . .
H3A C3 H3C 109.5 . .
H3B C3 H3C 109.5 . .
N1 C2 H2C 109.5 . .
N1 C2 H2F 109.5 . .
H2C C2 H2F 109.5 . .
N1 C2 H2E 109.5 . .
H2C C2 H2E 109.5 . .
H2F C2 H2E 109.5 . .
C5 C4 C00A 119.8(16) . .
C5 C4 H4A 107.4 . .
C00A C4 H4A 107.4 . .
C5 C4 H4B 107.4 . .
C00A C4 H4B 107.4 . .
H4A C4 H4B 106.9 . .
C4 C5 C6 122.4(18) . .
C4 C5 H5A 106.7 . .
C6 C5 H5A 106.7 . .
C4 C5 H5B 106.7 . .
C6 C5 H5B 106.7 . .
H5A C5 H5B 106.6 . .
C5 C6 H6A 109.5 . .
C5 C6 H6B 109.5 . .
H6A C6 H6B 109.5 . .
C5 C6 H6C 109.5 . .
H6A C6 H6C 109.5 . .
H6B C6 H6C 109.5 . .
loop_
_geom_bond_atom_site_label_1
_geom_bond_atom_site_label_2
_geom_bond_distance
_geom_bond_site_symmetry_2
Pb1 I3 3.035(4) .
Pb1 I2 3.189(3) .
Pb1 I2 3.212(3) 1_655
Pb1 I1 3.288(3) 1_655
Pb1 I1 3.324(3) .
I1 Pb1 3.288(3) 1_455
I2 Pb1 3.212(3) 1_455
O005 C1 1.209(14) .
N2 C00A 1.493(14) .
N2 H2A 0.8900 .
N2 H2B 0.8900 .
N2 H2G 0.8900 .
N1 C1 1.318(14) .
N1 C3 1.433(15) .
N1 C2 1.460(16) .
C1 H1 0.9300 .
C00A C4 1.550(19) .
C00A H00A 0.9700 .
C00A H00B 0.9700 .
C3 H3A 0.9600 .
C3 H3B 0.9600 .
C3 H3C 0.9600 .
C2 H2C 0.9600 .
C2 H2F 0.9600 .
C2 H2E 0.9600 .
C4 C5 1.35(2) .
C4 H4A 0.9700 .
C4 H4B 0.9700 .
C5 C6 1.402(19) .
C5 H5A 0.9700 .
C5 H5B 0.9700 .
C6 H6A 0.9600 .
C6 H6B 0.9600 .
C6 H6C 0.9600 .
