#------------------------------------------------------------------------------
#$Date: 2020-05-22 01:21:03 +0300 (Fri, 22 May 2020) $
#$Revision: 252250 $
#$URL: file:///home/coder/svn-repositories/cod/cif/4/00/35/4003554.cif $
#------------------------------------------------------------------------------
#
# This file is available in the Crystallography Open Database (COD),
# http://www.crystallography.net/
#
# All data on this site have been placed in the public domain by the
# contributors.
#
data_4003554
loop_
_publ_author_name
'Febriansyah, Benny'
'Neo, Chong Shern Daniel'
'Giovanni, David'
'Srivastava, Shivani'
'Lekina, Yulia'
'Koh, Teck Ming'
'Li, Yongxin'
'Shen, Ze Xiang'
'Asta, Mark'
'Sum, Tze Chien'
'Mathews, Nripan'
'England, Jason'
_publ_section_title
;
 Targeted Synthesis of Trimeric Organic--Bromoplumbate Hybrids That
 Display Intrinsic, Highly Stokes-Shifted, Broadband Emission
;
_journal_name_full               'Chemistry of Materials'
_journal_paper_doi               10.1021/acs.chemmater.9b03925
_journal_year                    2020
_chemical_formula_sum            'C12 H12 I3 N Pb'
_chemical_formula_weight         758.12
_space_group_crystal_system      monoclinic
_space_group_IT_number           11
_space_group_name_Hall           '-P 2yb'
_space_group_name_H-M_alt        'P 1 21/m 1'
_atom_sites_solution_hydrogens   geom
_atom_sites_solution_primary     dual
_cell_angle_alpha                90
_cell_angle_beta                 101.304(2)
_cell_angle_gamma                90
_cell_formula_units_Z            2
_cell_length_a                   11.7951(11)
_cell_length_b                   7.8822(7)
_cell_length_c                   11.8001(11)
_cell_measurement_reflns_used    2975
_cell_measurement_temperature    296.(2)
_cell_measurement_theta_max      27.3982
_cell_measurement_theta_min      2.7231
_cell_volume                     1075.79(17)
_computing_cell_refinement       'SAINT V8.38A (Bruker AXS Inc., 2017)'
_computing_data_collection       'APEX3 (Bruker AXS Inc., 2018)'
_computing_data_reduction        'SAINT V8.38A (Bruker AXS Inc., 2017)'
_computing_molecular_graphics    'XP (Bruker AXS Inc., 2018)'
_computing_publication_material  'APEX3 (Bruker AXS Inc., 2018)'
_computing_structure_refinement  'SHELXL-2017/1 (Sheldrick, 2017)'
_computing_structure_solution    'SHELXT 2014/5 (Sheldrick, 2014)'
_diffrn_ambient_temperature      296.(2)
_diffrn_detector_area_resol_mean 7.4074
_diffrn_measured_fraction_theta_full 0.998
_diffrn_measured_fraction_theta_max 0.998
_diffrn_measurement_device_type  'Photon II CPADs detector'
_diffrn_measurement_method       'phi and omega scans'
_diffrn_radiation_monochromator  'Multilayer Mirror'
_diffrn_radiation_type           MoK\a
_diffrn_radiation_wavelength     0.71073
_diffrn_reflns_av_R_equivalents  0.0950
_diffrn_reflns_av_unetI/netI     0.0746
_diffrn_reflns_limit_h_max       14
_diffrn_reflns_limit_h_min       -17
_diffrn_reflns_limit_k_max       11
_diffrn_reflns_limit_k_min       -11
_diffrn_reflns_limit_l_max       17
_diffrn_reflns_limit_l_min       -17
_diffrn_reflns_number            20470
_diffrn_reflns_theta_full        32.65
_diffrn_reflns_theta_max         32.65
_diffrn_reflns_theta_min         2.72
_diffrn_source                   'Incoatec microfocus source'
_diffrn_source_type              'Bruker D8 Quest'
_exptl_absorpt_coefficient_mu    12.132
_exptl_absorpt_correction_T_max  0.89
_exptl_absorpt_correction_T_min  0.39
_exptl_absorpt_correction_type   multi-scan
_exptl_absorpt_process_details
;
SADABS-2016/2 - Bruker AXS area detector scaling and absorption correction
;
_exptl_crystal_colour            yellow
_exptl_crystal_density_diffrn    2.340
_exptl_crystal_density_method    'not measured'
_exptl_crystal_description       needle
_exptl_crystal_F_000             664
_exptl_crystal_size_max          0.120
_exptl_crystal_size_mid          0.020
_exptl_crystal_size_min          0.010
_refine_diff_density_max         1.619
_refine_diff_density_min         -1.151
_refine_ls_extinction_method     none
_refine_ls_goodness_of_fit_ref   1.028
_refine_ls_hydrogen_treatment    constr
_refine_ls_matrix_type           full
_refine_ls_number_parameters     118
_refine_ls_number_reflns         4177
_refine_ls_number_restraints     261
_refine_ls_restrained_S_all      1.004
_refine_ls_R_factor_all          0.1407
_refine_ls_R_factor_gt           0.0554
_refine_ls_shift/su_max          0.000
_refine_ls_shift/su_mean         0.000
_refine_ls_structure_factor_coef Fsqd
_refine_ls_weighting_details
'w=1/[\s^2^(Fo^2^)+(0.0816P)^2^+0.1230P] where P=(Fo^2^+2Fc^2^)/3'
_refine_ls_weighting_scheme      calc
_refine_ls_wR_factor_gt          0.1416
_refine_ls_wR_factor_ref         0.1769
_reflns_number_gt                1976
_reflns_number_total             4177
_reflns_threshold_expression     'I > 2\s(I)'
_cod_data_source_file            cm9b03925_si_002.cif
_cod_data_source_block           1[PbI3]
_cod_depositor_comments
;
The following automatic conversions were performed:

data item '_exptl_absorpt_correction_type' value 'Multi-Scan' was
changed to 'multi-scan' in accordance with the
/home/data/users/saulius/crontab/automatic-downloads/rss-feeds/ACS/lib/dictionaries/cif_core.dic
dictionary named 'cif_core.dic' version 2.4.2 last updated on
2011-04-26.

Automatic conversion script
Id: cif_fix_values 7556 2019-12-06 15:28:31Z antanas 
;
_cod_database_code               4003554
_shelx_res_file
;

TITL je554m in P2(1)/m
    je554m.res
    created by SHELXL-2017/1 at 09:40:09 on 05-Mar-2019
CELL  0.71073  11.7951   7.8822  11.8001   90.000  101.304   90.000
ZERR    2.000   0.0011   0.0007   0.0011    0.000    0.002    0.000
LATT 1
SYMM -X, 1/2+Y, -Z
SFAC C  H  I  N  Pb
UNIT 24  24  6  2  2
L.S. 10
BOND $H
acta
omit 1   1   0
omit 0   1   1
omit -1   1   2
omit -2   1   1
FMAP 2
PLAN 5
SIZE 0.01 0.02 0.12
sadi c7 c1 c7 c5 c7 c8 c7 c12
rigu 0.01 C1 > C12
SIMU 0.01 C1 > C12
isor  0.02 C1 > C12
TEMP 23
WGHT    0.081600    0.123000
FVAR       0.11105
PART -1  10.50
AFIX  66
C1    1    0.930640    0.120909    0.305762    10.50000    0.10064    0.10433 =
         0.11341    0.01380    0.02507    0.00568
AFIX  43
H1    2    0.900481    0.015886    0.279454    10.50000   -1.20000
AFIX  65
C2    1    1.049449    0.141722    0.340026    10.50000    0.10563    0.10457 =
         0.12337    0.01392    0.01675    0.00959
AFIX  43
H2    2    1.098781    0.050623    0.336642    10.50000   -1.20000
AFIX  65
C3    1    1.094525    0.298691    0.379347    10.50000    0.10683    0.10703 =
         0.12385    0.00383    0.01128    0.01145
AFIX  43
H3    2    1.174017    0.312615    0.402271    10.50000   -1.20000
AFIX  65
C4    1    1.020792    0.434850    0.384405    10.50000    0.10433    0.11146 =
         0.12080    0.00097    0.01852    0.00549
AFIX  43
H4    2    1.050952    0.539872    0.410714    10.50000   -1.20000
AFIX  65
C5    1    0.901983    0.414040    0.350142    10.50000    0.09813    0.10948 =
         0.11334    0.00441    0.02658    0.00475
AFIX  43
H5    2    0.852652    0.505139    0.353527    10.50000   -1.20000
AFIX  65
C6    1    0.856905    0.257071    0.310821    10.50000    0.08972    0.10746 =
         0.10004    0.00964    0.03212    0.00350
AFIX   0
C7    1    0.728477    0.241049    0.268918    10.50000    0.09549    0.11349 =
         0.09753    0.01217    0.02683    0.00182
AFIX  23
H7A   2    0.702395    0.139712    0.302816    10.50000   -1.20000
H7B   2    0.691354    0.337362    0.297621    10.50000   -1.20000
AFIX  66
N1    4    0.688073    0.232054    0.140738    10.50000    0.11077    0.11360 =
         0.10295    0.01221    0.02497    0.00391
C8    1    0.650152    0.076787    0.091627    10.50000    0.12518    0.11612 =
         0.10886    0.00937    0.02089   -0.00119
AFIX  43
H8    2    0.648311   -0.017651    0.138476    10.50000   -1.20000
AFIX  65
C9    1    0.614981    0.062669   -0.027506    10.50000    0.13204    0.11904 =
         0.11164    0.00816    0.01910    0.00001
AFIX  43
H9    2    0.589609   -0.041215   -0.060365    10.50000   -1.20000
AFIX  65
C10   1    0.617731    0.203818   -0.097529    10.50000    0.13486    0.11532 =
         0.11694    0.01472    0.00894    0.00436
AFIX  43
H10   2    0.594199    0.194371   -0.177237    10.50000   -1.20000
AFIX  65
C11   1    0.655653    0.359085   -0.048419    10.50000    0.13244    0.10885 =
         0.11531    0.01732    0.01104    0.01269
AFIX  43
H11   2    0.657493    0.453523   -0.095269    10.50000   -1.20000
AFIX  65
C12   1    0.690824    0.373206    0.070714    10.50000    0.12427    0.10688 =
         0.10980    0.01783    0.01957    0.01214
AFIX  43
H12   2    0.716196    0.477090    0.103572    10.50000   -1.20000
AFIX   0
PART 0
I1    3    0.416160    0.250000    0.285670    10.50000    0.08588    0.04964 =
         0.05756    0.00000    0.00025    0.00000
I2    3    0.285630    0.750000    0.415906    10.50000    0.06007    0.04958 =
         0.08359    0.00000    0.00076    0.00000
I3    3    0.359586    0.250000    0.640465    10.50000    0.07650    0.05182 =
         0.07491    0.00000    0.02856    0.00000
PB1   5    0.500000    0.500000    0.500000    10.50000    0.06235    0.02870 =
         0.06184    0.00036    0.01079   -0.00021
HKLF 4




REM  je554m in P2(1)/m
REM R1 =  0.0554 for    1976 Fo > 4sig(Fo)  and  0.1407 for all    4177 data
REM    118 parameters refined using    261 restraints

END

WGHT      0.0816      0.1036

REM Highest difference peak  1.619,  deepest hole -1.151,  1-sigma level  0.239
Q1    1   0.5007  0.2500  0.2588  10.50000  0.05    1.62
Q2    1   0.9271 -0.1740  0.0722  11.00000  0.05    1.60
Q3    1   0.2606  0.7500  0.5071  10.50000  0.05    1.57
Q4    1   0.8982  0.7500  0.0169  10.50000  0.05    1.53
Q5    1   0.9784 -0.2500  0.1102  10.50000  0.05    1.45
;
_shelx_res_checksum              12013
_shelx_hkl_file
;
   2   0   0  138.26    4.83
   2   0   0  146.32    4.89
  -2   0   0  140.69    4.80
  -2   0   0  144.78    4.89
  -2   0   0  143.57    4.83
  -2   0   0  142.34    4.84
  -3   0   0   27.87    1.33
  -3   0   0   29.28    1.40
  -3   0   0   27.81    1.32
  -3   0   0   26.90    1.22
  -4   0   0   21.76    1.30
  -4   0   0   20.54    1.23
  -4   0   0   18.77    1.29
  -4   0   0   19.28    1.07
  -5   0   0  160.16    5.84
  -5   0   0  163.86    5.98
  -5   0   0  160.01    5.72
  -5   0   0  160.30    5.81
  -6   0   0   40.81    1.96
  -6   0   0   37.97    2.10
  -6   0   0   41.09    2.10
  -6   0   0   39.70    2.25
  -7   0   0   16.75    1.59
  -7   0   0   22.86    1.67
  -7   0   0   22.16    1.44
  -7   0   0   20.45    1.82
  -8   0   0   51.09    3.01
  -8   0   0   49.72    2.82
  -8   0   0   48.79    2.74
  -8   0   0   48.22    2.53
  -9   0   0   85.02    4.28
  -9   0   0   76.96    3.91
  -9   0   0   79.86    3.94
 -10   0   0   33.29    2.27
 -10   0   0   33.49    2.59
 -10   0   0   31.42    2.62
 -10   0   0   36.18    3.13
 -11   0   0    4.01    2.18
 -11   0   0    1.78    1.44
 -11   0   0    2.47    1.47
 -12   0   0    5.21    1.69
 -12   0   0    1.67    1.47
 -13   0   0    8.85    2.31
 -13   0   0   13.18    3.42
 -13   0   0   10.19    2.07
 -14   0   0    9.47    2.58
 -14   0   0    9.95    3.33
 -14   0   0   16.76    2.64
 -15   0   0    0.04    2.01
 -15   0   0    1.59    3.39
 -15   0   0    0.16    2.27
 -16   0   0    2.38    4.33
 -16   0   0   -1.58    2.60
 -17   0   0    5.32    3.98
   0  -1   0    0.16    0.16
   0  -1   0    0.23    0.16
   0   1   0    0.08    0.17
   0   1   0   -0.13    0.15
  -1  -1   0    0.78    0.25
   1  -1   0    0.32    0.21
  -1  -1   0    0.81    0.14
   1  -1   0    0.57    0.29
  -1  -1   0    0.10    0.19
   1  -1   0    0.03    0.28
   1  -1   0    0.40    0.14
  -1  -1   0    1.00    0.20
   1   1   0    1.11    0.14
  -1   1   0    0.65    0.31
   1   1   0    0.65    0.20
   1   1   0    0.83    0.25
   1   1   0    0.71    0.20
  -1   1   0    0.42    0.32
  -1   1   0    0.24    0.27
   2  -1   0   67.80    2.67
   2  -1   0   65.97    2.27
  -2  -1   0   69.38    2.37
  -2  -1   0   66.86    2.55
   2  -1   0   72.80    2.54
   2   1   0   67.34    2.36
  -2   1   0   61.96    2.32
  -2   1   0   68.77    2.62
  -3  -1   0  481.85   15.84
  -3  -1   0  483.38   15.75
  -3  -1   0  459.32   15.77
  -3   1   0  469.50   15.92
  -3   1   0  484.81   15.53
  -3   1   0  471.15   15.83
   3   1   0  455.05   15.60
  -3   1   0  505.64   15.88
  -4  -1   0  111.52    4.14
  -4  -1   0  109.58    3.99
  -4  -1   0  109.65    4.22
  -4   1   0  109.74    3.88
  -4   1   0  111.75    4.29
  -4   1   0  111.21    4.23
  -4   1   0  110.99    4.31
  -5  -1   0   23.71    1.41
  -5  -1   0   24.43    1.45
  -5  -1   0   26.12    1.61
  -5   1   0   26.60    1.75
  -5   1   0   25.67    1.61
  -5   1   0   24.72    1.25
  -5   1   0   25.67    1.73
  -6  -1   0  127.34    4.98
  -6  -1   0  139.95    5.26
  -6  -1   0  129.45    4.78
  -6  -1   0  130.22    4.93
  -6   1   0  133.91    5.26
  -6   1   0  131.13    5.13
  -6   1   0  131.99    5.24
  -6   1   0  122.96    4.71
  -7  -1   0    7.12    1.13
  -7  -1   0    6.29    1.36
  -7  -1   0    6.35    1.17
  -7  -1   0    6.48    1.03
  -7   1   0    5.59    1.46
  -7   1   0    4.41    1.23
  -7   1   0    6.82    1.35
  -7   1   0    8.50    1.06
  -8  -1   0   15.72    1.56
  -8  -1   0   18.54    1.79
  -8  -1   0   15.89    1.59
  -8   1   0   13.81    1.88
  -8   1   0   15.93    2.15
  -8   1   0   14.40    1.41
  -8   1   0   18.85    1.72
  -9  -1   0    1.75    1.25
  -9  -1   0    0.02    1.37
  -9  -1   0    1.53    1.23
  -9  -1   0    1.72    1.07
  -9   1   0    2.04    1.11
  -9   1   0    2.70    1.69
  -9   1   0    1.24    1.82
 -10  -1   0    5.93    1.28
 -10  -1   0    4.72    1.41
 -10  -1   0    6.62    2.00
 -10  -1   0    3.36    1.37
 -10   1   0    5.64    2.25
 -10   1   0    6.16    1.75
 -10   1   0    7.65    1.42
 -11  -1   0    6.61    2.21
 -11  -1   0    5.07    1.79
 -11  -1   0    5.71    1.61
 -11  -1   0    9.88    1.59
 -11   1   0    3.45    2.27
 -11   1   0    7.36    1.86
 -11   1   0    7.21    1.66
 -12  -1   0   -0.86    1.99
 -12  -1   0   -1.14    1.17
 -12  -1   0   -0.30    1.41
 -12   1   0    2.43    1.79
 -12   1   0   -0.30    1.65
 -12   1   0    3.01    2.56
 -13  -1   0    1.19    1.85
 -13  -1   0    4.69    2.83
 -13   1   0    1.96    1.80
 -13   1   0    3.88    2.83
 -13   1   0    1.81    2.09
 -14  -1   0    2.15    1.54
 -14  -1   0    3.14    2.94
 -14  -1   0   -2.67    1.89
 -14   1   0   -3.34    3.14
 -14   1   0   -1.40    2.02
 -14   1   0    0.19    2.02
 -15  -1   0   -0.74    2.37
 -15  -1   0    3.43    3.15
 -15   1   0   -4.14    2.17
 -15   1   0    1.79    3.84
 -15   1   0    0.79    2.30
 -16  -1   0   -1.24    2.39
 -16  -1   0   -2.65    3.37
 -16   1   0   -1.41    2.40
 -16   1   0    0.58    7.10
 -17  -1   0   -4.03    3.37
 -17  -1   0   -3.54    2.66
 -17   1   0   -2.01    4.12
   0   2   0  361.82   11.93
   0   2   0  344.14   11.87
  -1  -2   0    2.52    0.56
  -1  -2   0    3.99    0.44
  -1  -2   0    4.12    0.62
   1  -2   0    4.77    0.77
   1   2   0    3.13    0.67
  -1   2   0    3.92    0.81
   1   2   0    3.91    0.67
  -1   2   0    4.98    0.90
   2  -2   0  392.31   13.31
  -2  -2   0  404.30   13.03
  -2  -2   0  396.48   13.33
   2  -2   0  391.45   13.01
  -2  -2   0  393.33   13.21
   2   2   0  410.00   13.46
   2   2   0  398.83   13.18
  -2   2   0  406.23   13.36
  -2   2   0  410.48   13.60
  -2   2   0  393.97   13.58
   2   2   0  386.86   13.02
  -3  -2   0  646.88   21.58
  -3  -2   0  664.18   21.34
  -3  -2   0  636.57   21.34
   3  -2   0  698.37   21.09
  -3   2   0  646.23   21.10
   3   2   0  613.85   21.20
  -3   2   0  648.85   21.86
  -3   2   0  647.03   21.62
  -3   2   0  660.43   21.92
  -4  -2   0  307.29   10.64
  -4  -2   0  315.46   11.00
  -4  -2   0  321.15   10.66
  -4  -2   0  323.16   11.05
  -4   2   0  312.11   11.25
  -4   2   0  319.01   10.55
  -4   2   0  319.63   11.17
  -4   2   0  338.53   11.61
  -5  -2   0  115.29    4.57
  -5  -2   0  113.64    4.16
  -5  -2   0  113.02    4.48
  -5   2   0  111.14    4.82
  -5   2   0  109.28    4.13
  -5   2   0  117.89    4.86
  -6  -2   0  155.08    6.01
  -6  -2   0  155.79    6.50
  -6  -2   0  156.73    5.70
  -6   2   0  158.24    6.32
  -6   2   0  158.35    6.35
  -7  -2   0  134.90    5.64
  -7  -2   0  138.59    5.19
  -7  -2   0  135.55    5.47
  -7  -2   0  132.16    4.91
  -7   2   0  137.25    5.96
  -7   2   0  136.59    5.07
  -8  -2   0   39.48    2.39
  -8  -2   0   44.23    2.13
  -8  -2   0   42.32    2.67
  -8  -2   0   44.68    2.57
  -8   2   0   41.38    2.36
  -8   2   0   33.24    3.21
  -8   2   0   40.33    3.12
  -9  -2   0    4.89    1.67
  -9  -2   0    3.28    1.26
  -9  -2   0    7.18    1.55
  -9  -2   0    3.95    0.99
  -9   2   0    7.89    1.89
  -9   2   0    4.74    1.44
  -9   2   0    3.85    2.51
 -10  -2   0    9.12    1.82
 -10  -2   0    9.13    1.50
 -10  -2   0    8.33    1.23
 -10  -2   0    7.72    2.08
 -10   2   0    8.63    1.73
 -10   2   0   11.87    2.20
 -10   2   0    6.19    2.55
 -11  -2   0   20.13    3.53
 -11  -2   0   18.13    2.23
 -11  -2   0   25.54    2.87
 -11  -2   0   24.53    1.92
 -11   2   0   27.02    3.12
 -11   2   0   18.52    2.35
 -11   2   0   16.66    3.35
 -12  -2   0    8.40    1.33
 -12  -2   0   10.00    2.48
 -12  -2   0   12.26    2.18
 -12  -2   0   10.69    2.64
 -12   2   0    5.73    3.42
 -12   2   0    9.48    2.32
 -12   2   0    7.67    2.50
 -13  -2   0    1.44    1.29
 -13  -2   0    0.73    2.37
 -13  -2   0    1.35    1.91
 -13   2   0    0.61    2.09
 -13   2   0   -2.05    2.06
 -13   2   0   -2.00    3.21
 -14  -2   0    1.19    1.95
 -14  -2   0   -3.91    2.36
 -14   2   0   -1.58    3.20
 -14   2   0    0.91    2.40
 -14   2   0    0.85    2.56
 -15  -2   0   -0.04    3.00
 -15  -2   0   -3.58    2.34
 -15   2   0   -1.55    2.34
 -15   2   0   -3.56    3.94
 -16  -2   0    1.80    2.57
 -16  -2   0   -2.40    3.22
 -16   2   0   -6.31    4.24
 -16   2   0    0.84    2.80
 -17  -2   0    0.21    3.71
 -17  -2   0    8.14    3.27
 -17   2   0    5.37    5.00
   0   3   0    0.31    0.67
   0   3   0    0.35    0.67
  -1  -3   0    7.49    0.68
  -1  -3   0    8.12    0.85
  -1   3   0    9.66    1.28
   1   3   0    9.85    1.18
   1   3   0   10.44    1.20
  -1   3   0   11.17    1.36
  -2  -3   0  103.91    4.04
   2  -3   0  104.44    3.77
  -2  -3   0  104.04    3.68
  -2   3   0  106.10    4.42
   2   3   0  103.38    4.00
  -2   3   0  102.86    4.40
   2   3   0  108.18    4.22
  -3  -3   0  276.48    9.31
   3  -3   0  261.22    9.34
  -3  -3   0  281.86    9.79
  -3   3   0  293.14    9.81
  -3   3   0  284.00   10.20
   3   3   0  284.84    9.95
  -3   3   0  276.75   10.11
   4  -3   0   53.46    1.84
  -4  -3   0   48.83    2.06
  -4  -3   0   51.00    2.54
  -4  -3   0   53.28    2.56
  -4   3   0   52.00    2.92
  -4   3   0   52.34    3.21
  -4   3   0   49.95    2.92
  -5  -3   0   21.86    1.84
  -5  -3   0   31.54    1.44
  -5   3   0   22.89    2.63
  -5   3   0   27.55    2.55
  -5   3   0   29.59    2.96
  -6  -3   0   85.82    3.71
  -6  -3   0   83.89    3.76
  -6  -3   0   75.70    3.10
  -6  -3   0   62.04    3.48
  -6   3   0   74.96    2.73
  -6   3   0   75.57    5.02
  -6   3   0   84.18    4.14
  -6   3   0   77.70    4.26
  -7  -3   0    7.34    1.54
  -7  -3   0    7.92    1.43
  -7  -3   0    5.43    1.01
  -7   3   0    9.54    1.95
  -7   3   0    5.83    1.09
  -7   3   0    2.49    3.06
  -7   3   0    7.70    2.76
  -8  -3   0   14.51    1.95
  -8  -3   0   14.03    2.06
  -8  -3   0   13.77    1.50
  -8   3   0    9.47    3.88
  -8   3   0   10.95    3.09
  -8   3   0   15.00    2.24
  -9  -3   0    1.50    1.16
  -9  -3   0    2.84    1.39
  -9  -3   0    1.53    1.47
  -9  -3   0    0.90    1.05
  -9   3   0    5.60    3.37
  -9   3   0    2.93    1.78
 -10  -3   0    4.55    1.90
 -10  -3   0    5.45    1.77
 -10  -3   0    0.98    1.23
 -10   3   0   -1.54    2.69
 -10   3   0    1.45    2.01
 -10   3   0    4.24    1.95
 -11  -3   0    4.53    2.31
 -11  -3   0    5.94    1.53
 -11   3   0   -1.43    3.02
 -11   3   0    3.71    2.36
 -11   3   0    2.08    2.21
 -12  -3   0    0.05    1.34
 -12  -3   0    2.38    2.23
 -12  -3   0    1.51    1.83
 -12   3   0   -1.11    2.24
 -12   3   0   -0.14    3.33
 -12   3   0    5.62    4.28
 -13  -3   0    2.65    2.57
 -13  -3   0    1.02    1.95
 -13   3   0   -5.09    4.03
 -13   3   0   -0.07    2.49
 -14  -3   0   -4.78    2.16
 -14  -3   0    2.89    2.76
 -14   3   0   -3.12    2.43
 -14   3   0    0.31    5.05
 -14   3   0    3.72    4.44
 -15  -3   0    2.46    2.53
 -15  -3   0   -3.64    2.78
 -15   3   0   -3.54    4.51
 -15   3   0   -1.93    2.57
 -16  -3   0    1.68    3.04
 -16  -3   0   -0.73    3.20
 -16   3   0    4.81    5.82
 -16   3   0    1.38    4.66
 -16   3   0    3.83    2.90
 -17   3   0   -5.12    5.00
   0   4   0  993.10   33.13
   0   4   0 1000.00   33.18
  -1  -4   0  514.57   17.26
  -1  -4   0  516.40   16.98
   1   4   0  509.60   17.55
  -1   4   0  507.00   17.69
  -1   4   0  517.23   17.62
   1   4   0  507.95   17.48
  -2  -4   0   48.12    2.05
  -2  -4   0   47.73    2.43
  -2   4   0   48.75    2.90
  -2   4   0   58.34    2.99
   2   4   0   47.99    2.53
   2   4   0   53.93    2.75
  -3  -4   0    7.66    0.73
  -3  -4   0   11.00    1.33
   3  -4   0    9.22    0.97
  -3   4   0    8.87    1.72
   3   4   0    9.74    1.17
   3   4   0    9.64    1.39
  -4  -4   0   36.82    1.64
   4  -4   0   33.12    1.62
  -4  -4   0   36.84    2.21
  -4  -4   0   36.60    2.22
  -4   4   0   35.53    2.78
  -4   4   0   36.17    2.90
  -5  -4   0   62.20    2.61
  -5  -4   0   63.35    3.26
  -5  -4   0   65.74    3.31
  -5   4   0   67.29    3.66
  -5   4   0   58.13    4.11
  -5   4   0   69.10    3.88
  -6  -4   0   28.16    2.04
  -6  -4   0   24.71    1.53
  -6  -4   0   26.26    2.18
  -6   4   0   26.99    3.13
  -6   4   0   28.84    2.79
  -6   4   0   26.96    3.51
  -7  -4   0    8.91    1.71
  -7  -4   0    7.10    1.67
  -7  -4   0    8.85    1.14
  -7   4   0    8.56    3.34
  -7   4   0    9.07    3.03
  -7   4   0    9.76    2.08
  -8  -4   0   33.99    2.75
  -8  -4   0   29.56    2.65
  -8  -4   0   29.71    1.93
  -8   4   0   27.86    4.48
  -8   4   0   35.37    4.47
  -8   4   0   41.16    3.76
  -9  -4   0   48.10    3.30
  -9  -4   0   44.65    3.41
  -9   4   0   41.52    5.18
  -9   4   0   37.30    5.45
  -9   4   0   44.63    3.91
 -10  -4   0   14.81    1.78
 -10  -4   0   18.35    2.70
 -10  -4   0   20.32    2.84
 -10   4   0    7.93    4.69
 -10   4   0   21.92    3.35
 -10   4   0   23.15    4.91
 -11  -4   0    2.03    1.82
 -11  -4   0    6.28    1.43
 -11  -4   0    3.13    2.04
 -11   4   0    0.72    2.14
 -11   4   0    8.63    4.99
 -11   4   0   -2.84    3.82
 -12  -4   0    3.28    2.01
 -12  -4   0   -1.26    2.04
 -12  -4   0    3.13    1.45
 -12   4   0    3.46    2.52
 -12   4   0    2.58    4.31
 -12   4   0   -1.48    4.84
 -13  -4   0    4.90    1.74
 -13  -4   0    6.90    2.51
 -13  -4   0    3.61    2.75
 -13   4   0   -5.23    4.59
 -13   4   0    5.82    2.86
 -13   4   0    6.78    5.79
 -14  -4   0   13.01    6.04
 -14  -4   0    5.98    2.71
 -14   4   0   12.02    3.58
 -14   4   0   -3.19    4.89
 -14   4   0    4.30    5.75
 -15  -4   0   -1.22    3.36
 -15  -4   0   -1.59    2.50
 -15   4   0   -2.62    2.88
 -15   4   0   -0.98    5.14
 -15   4   0    0.37    5.45
 -16  -4   0    0.74    2.97
 -16  -4   0    2.21    3.42
 -16   4   0    1.47    3.43
 -16   4   0   -4.59    5.92
 -16   4   0   -2.93    5.26
   0  -5   0    1.10    0.71
   0   5   0   -1.19    0.90
  -1  -5   0    1.38    0.66
  -1  -5   0    1.25    0.90
   1   5   0    0.36    1.01
   1   5   0    1.32    1.04
  -1   5   0    1.16    1.20
  -2  -5   0   48.11    2.96
  -2  -5   0   48.76    2.19
   2   5   0   51.06    2.98
  -2   5   0   51.10    3.36
   2   5   0   50.12    2.90
  -2   5   0   48.44    3.20
  -3  -5   0  102.17    4.61
  -3  -5   0  112.77    4.04
  -3  -5   0  108.15    4.62
  -3   5   0  107.84    5.21
  -3   5   0  103.04    5.23
   3   5   0  111.62    4.64
   3   5   0  107.90    4.91
  -4  -5   0   30.38    2.25
  -4  -5   0   31.65    1.55
  -4  -5   0   29.64    2.20
  -4   5   0   28.40    2.86
  -4   5   0   31.25    3.02
   4   5   0   30.39    2.40
   5  -5   0   12.13    0.62
  -5  -5   0   12.01    1.87
  -5  -5   0   14.72    1.97
  -5  -5   0   11.72    1.03
  -5   5   0   17.42    2.59
  -5   5   0    8.79    2.43
  -6  -5   0   39.95    2.82
  -6  -5   0   42.69    2.02
  -6  -5   0   39.79    2.80
  -6   5   0   40.79    4.14
  -6   5   0   39.82    3.64
  -7  -5   0    1.75    0.77
  -7  -5   0    1.78    1.45
  -7  -5   0   -0.33    1.28
  -7   5   0    0.66    2.60
  -7   5   0   -0.01    2.78
  -7   5   0   -1.32    1.72
  -8  -5   0    3.80    1.73
  -8  -5   0    3.26    0.96
  -8  -5   0    7.48    1.96
  -8   5   0    8.07    3.87
  -8   5   0    1.94    2.66
  -8   5   0    4.03    2.36
  -9  -5   0    1.10    1.69
  -9  -5   0    0.45    1.08
  -9  -5   0    0.62    1.63
  -9   5   0    9.87    3.84
  -9   5   0    3.70    2.20
  -9   5   0   -0.02    3.60
 -10  -5   0    0.71    1.04
 -10  -5   0   -1.47    1.70
 -10  -5   0    2.80    1.90
 -10   5   0    2.19    3.89
 -10   5   0   -1.99    2.09
 -10   5   0    0.06    4.74
 -11  -5   0    3.27    2.20
 -11  -5   0    3.77    1.30
 -11  -5   0    4.72    2.20
 -11   5   0    1.42    4.58
 -11   5   0    7.27    4.75
 -11   5   0    2.19    2.65
 -12  -5   0   -2.65    1.16
 -12  -5   0   -0.67    2.10
 -12  -5   0   -0.10    2.05
 -12   5   0   -6.45    5.32
 -12   5   0   -1.48    2.47
 -12   5   0   -0.60    5.05
 -13  -5   0    2.44    4.40
 -13  -5   0    0.79    2.37
 -13   5   0    4.60    6.20
 -13   5   0    4.32    5.37
 -13   5   0    4.41    2.86
 -14  -5   0    0.42    2.78
 -14  -5   0   -1.13    2.34
 -14   5   0   -1.61    2.65
 -14   5   0   -4.49    5.22
 -15  -5   0    6.10    3.14
 -15  -5   0    2.20    3.75
 -15   5   0   -0.32    2.81
 -15   5   0   -5.75    5.97
 -15   5   0    2.52    6.30
   0  -6   0   19.10    1.63
   0   6   0   22.12    2.59
   0   6   0   26.43    2.78
  -1  -6   0    5.26    1.33
  -1  -6   0    4.90    1.01
  -1  -6   0    5.26    1.17
   1   6   0    1.65    1.31
  -1   6   0    5.60    1.74
  -1   6   0    5.72    1.69
   1   6   0    3.31    1.46
  -2  -6   0  118.90    5.01
  -2  -6   0  110.36    4.96
  -2  -6   0  117.91    4.50
  -2   6   0  116.00    5.59
   2   6   0  111.72    5.41
   2   6   0  120.08    5.33
  -2   6   0  113.49    5.68
  -3  -6   0  178.59    7.00
  -3  -6   0  171.18    6.91
  -3  -6   0  172.06    6.21
  -3   6   0  174.50    7.70
   3   6   0  174.92    7.33
  -3   6   0  159.37    7.45
   3   6   0  170.77    7.43
  -4  -6   0   90.44    4.34
   4  -6   0   85.32    3.37
  -4  -6   0   85.90    3.46
  -4  -6   0   89.30    4.38
  -4   6   0   87.17    5.11
  -4   6   0   96.28    5.38
   4   6   0   85.41    4.59
  -5  -6   0   45.02    2.98
  -5  -6   0   45.25    2.93
  -5  -6   0   41.73    2.03
   5  -6   0   37.62    2.36
  -5   6   0   44.93    3.77
  -5   6   0   42.12    3.88
  -6  -6   0   48.30    2.23
  -6  -6   0   46.66    3.22
  -6  -6   0   48.49    3.30
  -6   6   0   50.05    4.36
  -6   6   0   39.64    3.85
  -7  -6   0   45.21    2.29
  -7  -6   0   53.72    3.95
  -7  -6   0   45.75    3.76
  -7   6   0   50.08    4.75
  -7   6   0   48.06    4.85
  -8  -6   0   18.70    2.83
  -8  -6   0   17.02    1.46
  -8  -6   0   13.14    2.48
  -8   6   0   14.66    3.01
  -8   6   0   18.74    4.33
  -9  -6   0    6.24    2.22
  -9  -6   0    4.42    2.08
  -9  -6   0    3.54    1.05
  -9   6   0    4.09    2.70
  -9   6   0    6.68    4.22
 -10  -6   0    0.82    1.40
 -10  -6   0    4.84    2.21
 -10  -6   0    1.79    2.10
 -10   6   0   12.42    5.15
 -10   6   0    3.42    2.48
 -10   6   0   -5.16    3.05
 -11  -6   0   13.51    2.93
 -11  -6   0    8.04    2.68
 -11  -6   0    6.30    1.42
 -11   6   0    4.94    3.03
 -11   6   0   15.91    5.64
 -11   6   0    5.05    4.24
 -12  -6   0    4.48    2.68
 -12  -6   0    5.65    3.09
 -12   6   0    0.28    4.97
 -12   6   0    0.31    3.12
 -12   6   0    3.06    4.31
 -13  -6   0   -2.18    2.46
 -13  -6   0   -1.45    2.46
 -13   6   0   -1.82    4.92
 -13   6   0   -1.50    5.43
 -14  -6   0   -2.43    3.15
 -14  -6   0    2.06    2.60
 -14   6   0    4.03    6.58
 -14   6   0   -4.15    5.34
 -14   6   0   -3.88    2.67
 -15  -6   0    1.91    3.22
 -15  -6   0   -0.57    2.61
 -15   6   0    4.81    3.28
 -15   6   0  -10.27    5.24
   0  -7   0   -0.19    0.87
   0  -7   0    0.97    1.00
   0  -7   0    1.59    1.19
   0   7   0    0.41    1.49
   0   7   0   -1.10    1.50
   1  -7   0   -0.35    0.83
  -1  -7   0   -1.41    0.73
   1  -7   0    0.62    0.99
   1  -7   0    1.11    0.95
  -1  -7   0   -0.45    1.03
  -1  -7   0    0.72    1.14
   1   7   0   -0.29    1.44
  -1   7   0    1.37    1.76
   1   7   0    0.06    1.57
  -1   7   0    2.65    1.64
  -2  -7   0   13.76    1.94
  -2  -7   0   19.13    2.20
   2  -7   0   14.36    1.51
  -2  -7   0   17.98    1.44
  -2   7   0   17.07    2.76
  -2   7   0   16.16    2.62
   2   7   0   14.67    2.35
   2   7   0   21.09    2.49
  -3  -7   0   35.43    2.74
  -3  -7   0   38.28    2.75
   3  -7   0   35.68    1.98
  -3  -7   0   34.76    1.94
   3   7   0   32.89    2.98
   3   7   0   33.83    2.91
  -3   7   0   32.92    3.36
  -3   7   0   30.07    3.35
   4  -7   0   12.68    1.11
  -4  -7   0   11.24    1.20
  -4  -7   0   13.12    2.19
  -4  -7   0   10.37    1.87
  -4   7   0   10.14    2.58
   4   7   0   14.94    2.33
   4   7   0   13.48    1.95
  -4   7   0   13.48    2.74
  -5  -7   0    4.68    0.88
   5  -7   0    2.68    0.94
  -5  -7   0    1.86    1.43
  -5   7   0    4.37    2.66
  -5   7   0    2.87    2.07
  -6  -7   0   15.01    2.42
  -6  -7   0   16.16    2.48
  -6  -7   0   14.69    1.23
  -6   7   0    9.63    2.73
  -6   7   0   16.43    3.53
  -7  -7   0    2.87    1.76
  -7  -7   0    0.07    1.63
  -7  -7   0    1.28    0.71
  -7   7   0    0.43    2.17
  -7   7   0   -0.49    2.89
  -8  -7   0    0.96    1.83
  -8  -7   0    2.72    0.88
  -8  -7   0    7.96    2.21
  -8   7   0    3.63    2.39
  -8   7   0    0.02    3.20
  -9  -7   0    0.68    0.86
  -9  -7   0   -3.26    1.72
  -9  -7   0   -0.41    1.95
  -9   7   0    1.48    2.42
  -9   7   0    2.31    3.61
 -10  -7   0    2.65    2.30
 -10  -7   0   -2.04    1.94
 -10   7   0    1.83    2.67
 -10   7   0    7.06    4.21
 -11  -7   0    6.57    4.39
 -11   7   0    0.60    2.71
 -11   7   0   13.64    5.55
 -12  -7   0    0.50    2.60
 -12  -7   0   -0.15    2.52
 -12   7   0   -0.18    2.81
 -12   7   0    5.86    5.19
 -13  -7   0    1.84    2.64
 -13  -7   0    2.28    2.61
 -13   7   0    1.76    2.83
 -13   7   0   10.30    6.58
 -14  -7   0    0.38    2.76
 -14  -7   0    4.16    3.11
 -14   7   0    1.29    3.62
 -14   7   0   -9.55    4.84
   0  -8   0  155.70    6.81
   0  -8   0  161.19    6.74
   0  -8   0  166.44    6.56
   0   8   0  162.25    7.66
   1  -8   0   89.10    4.37
  -1  -8   0   85.60    4.48
   1  -8   0   86.36    4.23
  -1  -8   0   86.26    4.51
  -1  -8   0   91.75    4.03
   1  -8   0   85.92    4.14
  -1   8   0   84.55    5.32
   1   8   0   79.92    5.03
   1   8   0   78.40    5.22
  -1   8   0   90.99    5.43
   2  -8   0   20.21    1.78
  -2  -8   0   19.45    1.69
   2  -8   0   16.30    2.13
  -2  -8   0   23.77    2.80
  -2  -8   0   23.27    2.67
   2  -8   0   17.37    2.10
  -2   8   0   12.89    2.77
  -2   8   0   12.78    2.65
   2   8   0   14.87    2.43
  -3  -8   0    1.79    0.90
  -3  -8   0    2.28    1.71
  -3  -8   0    4.69    1.70
  -3   8   0    8.36    2.45
   3   8   0    2.55    1.85
  -3   8   0    6.70    2.39
   3   8   0    5.57    1.72
  -4  -8   0    8.76    2.15
   4  -8   0   13.53    1.32
  -4   8   0    9.01    2.67
   4   8   0    9.74    2.39
  -5  -8   0   19.79    2.81
  -5  -8   0   17.13    2.60
   5  -8   0   15.41    1.17
  -5  -8   0   16.51    1.37
  -5   8   0   19.77    3.73
  -5   8   0   19.36    3.40
  -6  -8   0    9.38    2.39
  -6  -8   0    7.01    2.29
  -6  -8   0    6.10    0.96
  -6   8   0   11.47    3.05
  -6   8   0   11.12    3.08
  -7  -8   0    5.08    0.99
  -7  -8   0    3.61    2.06
  -7  -8   0    6.78    2.39
  -7   8   0    4.99    2.96
  -7   8   0    0.32    2.37
  -8  -8   0    9.01    2.69
  -8  -8   0    8.26    2.81
  -8   8   0    9.71    3.16
  -8   8   0    8.10    3.52
  -9  -8   0    9.06    2.93
  -9  -8   0   15.88    3.22
  -9   8   0   12.09    3.52
  -9   8   0    0.24    4.00
 -10  -8   0    1.20    4.95
 -10  -8   0    5.42    2.83
 -10   8   0   10.68    5.14
 -10   8   0    1.48    2.99
 -11  -8   0    1.89    2.57
 -11  -8   0   -0.21    2.77
 -11   8   0    2.51    5.34
 -11   8   0    1.40    2.68
 -12  -8   0    2.11    2.95
 -12  -8   0    5.08    3.36
 -12   8   0    5.85    5.52
 -12   8   0    0.38    3.45
 -13  -8   0   -1.44    3.22
 -13  -8   0   -1.74    2.59
 -13   8   0   -1.60    4.84
 -13   8   0    6.06    3.59
   0  -9   0   -1.30    1.13
   0  -9   0    1.04    1.40
   0  -9   0   -0.08    1.11
   0   9   0    1.30    1.75
   0   9   0    0.88    2.20
  -1  -9   0    0.02    1.49
   1  -9   0    0.29    1.32
  -1  -9   0    1.00    1.33
   1  -9   0   -0.86    1.11
   1  -9   0    0.62    1.27
  -1  -9   0    0.25    0.98
  -1   9   0   -1.77    2.02
   1   9   0    1.06    1.90
   1   9   0    1.22    1.84
  -1   9   0    0.21    1.93
   2  -9   0    5.28    1.49
  -2  -9   0    5.65    1.77
  -2  -9   0    3.75    1.10
   2  -9   0    3.78    1.57
   2  -9   0    2.72    1.26
  -2   9   0    3.06    2.38
   2   9   0    4.98    2.08
  -2   9   0    3.68    2.41
  -3  -9   0    9.56    2.28
   3  -9   0    8.58    1.85
   3  -9   0    9.05    1.47
  -3  -9   0   10.58    1.40
  -3  -9   0   11.04    2.42
   3  -9   0   11.44    1.83
   3   9   0    9.15    2.49
  -3   9   0   15.61    3.13
   3   9   0   11.41    2.34
  -3   9   0   12.04    2.93
  -4  -9   0    4.92    1.93
  -4  -9   0    1.01    1.73
  -4  -9   0    3.11    0.95
  -4   9   0    2.71    2.58
   4   9   0    2.78    2.16
  -4   9   0    3.29    2.57
  -5  -9   0    0.01    1.64
  -5  -9   0    0.10    1.69
  -5   9   0    4.74    2.84
  -5   9   0    1.23    2.73
  -6  -9   0    3.49    2.08
  -6  -9   0    6.02    2.20
  -6   9   0    1.11    2.64
  -6   9   0    4.22    2.73
  -7  -9   0   -0.17    2.09
  -7  -9   0    3.47    2.49
  -7   9   0    4.39    3.43
  -8  -9   0    0.05    2.34
  -8  -9   0    2.26    2.47
  -8   9   0    1.40    3.42
  -8   9   0    1.07    3.02
  -9  -9   0    2.74    2.48
  -9  -9   0    0.53    2.58
  -9   9   0    3.25    3.69
  -9   9   0    4.02    3.28
 -10  -9   0   -0.78    2.32
 -10  -9   0    1.26    2.49
 -10   9   0   -1.11    3.73
 -10   9   0    1.77    3.26
 -11  -9   0   -2.11    2.53
 -11  -9   0   -4.20    2.61
 -11   9   0    4.89    4.58
 -11   9   0   -3.21    2.85
   0 -10   0    1.70    1.55
   0 -10   0   -0.57    1.19
   0 -10   0    0.72    1.47
   0  10   0    1.33    2.20
   0  10   0   -0.16    2.20
  -1 -10   0    5.02    2.07
   1 -10   0    6.23    1.76
  -1 -10   0    1.51    1.64
   1 -10   0    5.05    1.68
  -1 -10   0    2.90    1.44
  -1  10   0    0.53    2.22
   1  10   0    3.51    2.14
   1  10   0    4.38    2.34
  -1  10   0    5.99    2.63
   2 -10   0   15.35    2.38
  -2 -10   0   15.82    1.90
  -2 -10   0   15.22    2.60
  -2 -10   0   14.65    2.58
   2 -10   0   18.60    2.26
   2 -10   0   17.25    2.38
   2  10   0   14.34    3.14
   2  10   0   10.16    2.81
  -2  10   0   16.50    3.82
  -2  10   0   22.72    3.70
  -3 -10   0   23.18    3.17
   3 -10   0   22.03    2.59
  -3 -10   0   24.68    1.90
  -3 -10   0   20.80    2.97
   3 -10   0   22.27    2.85
   3  10   0   17.62    3.05
  -3  10   0   24.28    3.93
  -3  10   0   24.39    4.51
   3  10   0   20.99    3.51
   4 -10   0    9.75    1.99
   4 -10   0   12.33    2.45
  -4 -10   0   15.39    2.89
  -4 -10   0   14.47    2.92
  -4  10   0   10.19    3.21
  -4  10   0    9.32    3.83
   5 -10   0    8.83    2.10
   5 -10   0    4.36    1.90
  -5 -10   0    9.74    2.57
  -5 -10   0    9.98    2.84
  -5  10   0   10.41    3.43
  -5  10   0    6.07    3.22
  -6 -10   0    6.94    2.79
  -6 -10   0    8.45    2.59
  -6  10   0    5.78    3.10
  -6  10   0    0.39    2.85
  -7 -10   0   12.39    3.39
  -7 -10   0   11.25    3.35
  -7  10   0    5.72    3.80
  -8 -10   0    6.72    2.99
  -8 -10   0    2.81    2.57
  -8  10   0    3.35    3.36
  -8  10   0    2.39    3.59
  -9 -10   0   -0.36    2.39
  -9 -10   0    2.01    2.78
  -9  10   0    1.17    3.11
  -9  10   0   -2.04    3.27
   0 -11   0   -1.69    1.66
   0 -11   0   -1.31    1.23
   0 -11   0    0.04    1.52
   0  11   0   -0.74    2.15
   1 -11   0    3.37    1.73
   1 -11   0   -0.78    1.42
   1 -11   0    1.07    1.76
  -1 -11   0    1.42    1.81
   1  11   0   -0.40    2.35
   1  11   0    0.50    2.13
   2 -11   0    2.23    1.61
  -2 -11   0    1.70    1.94
   2 -11   0   -0.53    1.50
  -2 -11   0   -1.60    1.88
   2  11   0   -1.70    2.02
   2  11   0    1.78    2.45
  -2  11   0    2.13    3.17
  -3 -11   0    2.81    2.13
  -3 -11   0    1.65    2.02
   3 -11   0    1.87    1.62
  -3  11   0    1.13    2.90
   3  11   0    2.94    2.42
  -3  11   0    2.86    2.59
  -4 -11   0   -0.12    2.10
   4 -11   0   -2.69    1.53
  -4 -11   0   -2.00    2.00
  -4  11   0    5.31    2.98
  -4  11   0    3.01    2.76
   5 -11   0    0.54    1.64
  -5 -11   0    0.36    2.10
  -5 -11   0    2.78    2.32
  -5  11   0   -4.19    2.49
  -5  11   0    1.82    2.79
  -6 -11   0    0.31    2.66
  -6 -11   0    0.25    2.62
   6 -11   0    1.47    2.01
  -6  11   0   -2.57    2.97
  -6  11   0    2.00    3.47
 -17   0   1    2.78    3.55
 -16   0   1    1.44    2.34
 -16   0   1    0.96    4.07
 -15   0   1    5.76    3.01
 -15   0   1    5.90    2.45
 -14   0   1   10.95    2.46
 -14   0   1   10.92    2.50
 -14   0   1   10.40    3.39
 -13   0   1   12.27    2.31
 -13   0   1    6.66    2.75
 -13   0   1    9.69    2.03
 -12   0   1    1.73    1.57
 -12   0   1    7.56    1.71
 -12   0   1    4.34    2.33
 -12   0   1    1.36    1.67
 -11   0   1    3.72    2.24
 -11   0   1    3.88    1.59
 -11   0   1    5.64    1.69
 -11   0   1    4.57    1.32
 -10   0   1   11.53    1.66
 -10   0   1    7.98    1.68
 -10   0   1    9.06    2.10
 -10   0   1   10.53    2.15
  -9   0   1    6.90    1.64
  -9   0   1    8.13    1.76
  -9   0   1    9.10    1.58
  -9   0   1   11.52    1.52
  -8   0   1    3.02    1.16
  -8   0   1    1.19    0.85
  -8   0   1    0.39    1.22
  -8   0   1    2.14    1.13
  -7   0   1   16.92    1.65
  -7   0   1   15.02    1.51
  -7   0   1   21.81    1.68
  -7   0   1   18.73    1.34
  -6   0   1  200.83    7.18
  -6   0   1  191.30    6.87
  -6   0   1  200.20    7.14
  -6   0   1  187.39    7.06
  -5   0   1  604.38   19.83
  -5   0   1  587.49   19.82
  -5   0   1  592.80   19.80
  -4   0   1  437.85   14.74
  -4   0   1  438.01   14.70
  -4   0   1  446.05   14.70
  -3   0   1  112.48    3.90
   3   0  -1   97.19    3.81
  -3   0   1  103.96    3.77
  -2   0   1  185.48    6.17
  -2   0   1  183.24    6.13
   2   0  -1  179.84    6.11
   2   0  -1  184.05    6.15
   1   0   1  513.16   16.41
   1   0   1  510.23   16.46
  -1   0  -1  503.83   16.41
  -1   0  -1  505.71   16.47
  -1   0  -1  480.40   16.33
   2   0   1   30.75    1.30
  -2   0  -1   36.75    1.70
  -2   0  -1   32.13    1.39
   2   0   1   31.36    1.35
   2   0   1   35.41    1.58
  -2   0  -1   29.46    1.29
   3   0   1   23.74    1.19
  -3   0  -1   22.74    1.22
  -3   0  -1   23.99    1.22
  -3   0  -1   25.59    1.49
   4   0   1   53.45    2.19
  -4   0  -1   51.33    2.22
  -4   0  -1   52.89    2.50
  -5   0  -1   22.07    1.40
  -5   0  -1   23.86    1.38
  -5   0  -1   22.76    1.69
  -6   0  -1   11.46    1.23
  -6   0  -1   12.43    1.19
  -6   0  -1   11.91    1.61
  -7   0  -1   48.40    2.91
  -7   0  -1   48.83    2.54
  -7   0  -1   48.48    2.43
  -8   0  -1  185.70    7.04
  -8   0  -1  185.53    7.54
  -8   0  -1  186.58    7.03
  -9   0  -1  182.65    6.95
  -9   0  -1  178.68    6.88
  -9   0  -1  166.48    7.46
 -10   0  -1   42.63    3.63
 -10   0  -1   43.94    2.94
 -10   0  -1   41.56    2.80
 -11   0  -1    2.22    2.14
 -11   0  -1    0.29    1.53
 -11   0  -1    1.15    1.92
 -12   0  -1    3.00    1.90
 -12   0  -1   -1.54    2.24
 -12   0  -1    1.36    1.39
 -13   0  -1    3.35    2.11
 -13   0  -1    4.98    1.73
 -13   0  -1    5.41    3.14
 -14   0  -1    1.54    3.09
 -14   0  -1    5.32    1.81
 -14   0  -1    5.84    4.30
 -15   0  -1   -2.80    2.44
 -15   0  -1    5.35    3.66
 -16   0  -1    3.27    2.94
 -16   0  -1   -4.69    3.27
 -17   0  -1    1.34    3.92
 -17  -1   1    3.28    3.75
 -17  -1   1   -1.17    2.54
 -17   1   1    1.17    4.15
 -16  -1   1   -4.72    3.31
 -16  -1   1    2.23    2.43
 -16   1   1   -1.27    2.45
 -16   1   1   -4.52    3.62
 -15  -1   1    0.84    2.32
 -15  -1   1    4.11    3.02
 -15  -1   1    2.07    2.14
 -15   1   1    1.47    3.00
 -15   1   1    0.20    2.12
 -15   1   1    1.05    3.15
 -14  -1   1   -0.36    1.55
 -14  -1   1    1.66    1.92
 -14  -1   1    0.55    2.81
 -14   1   1    3.28    1.96
 -14   1   1   -1.72    2.13
 -14   1   1    0.74    2.73
 -13  -1   1    2.78    2.38
 -13  -1   1    0.23    1.49
 -13  -1   1    1.14    1.62
 -13  -1   1    1.72    1.81
 -13   1   1   -2.62    2.41
 -13   1   1    1.28    1.57
 -13   1   1   -1.03    1.89
 -12  -1   1    4.44    1.60
 -12  -1   1    2.18    1.53
 -12  -1   1    6.23    2.36
 -12  -1   1    4.38    1.70
 -12   1   1    6.97    2.53
 -12   1   1    4.60    1.57
 -12   1   1    6.65    2.16
 -11  -1   1   22.91    2.94
 -11  -1   1   32.18    2.63
 -11  -1   1   20.74    2.45
 -11  -1   1   24.84    2.44
 -11   1   1   21.79    3.12
 -11   1   1   29.06    2.77
 -11   1   1   31.56    2.99
 -10  -1   1    9.16    2.00
 -10  -1   1    8.88    1.79
 -10  -1   1   13.54    1.90
 -10  -1   1    8.04    1.57
 -10   1   1   10.52    2.22
 -10   1   1   11.74    2.06
 -10   1   1   10.64    1.43
 -10   1   1   11.27    1.95
  -9  -1   1   11.45    1.56
  -9  -1   1   11.78    1.60
  -9  -1   1   10.02    1.59
  -9  -1   1   11.40    1.90
  -9   1   1   13.97    2.02
  -9   1   1    9.75    2.10
  -9   1   1   11.40    1.83
  -8  -1   1   61.36    3.27
  -8  -1   1   59.85    3.02
  -8  -1   1   62.05    3.07
  -8   1   1   52.79    3.75
  -8   1   1   60.77    3.31
  -8   1   1   62.79    2.68
  -8   1   1   64.07    3.28
  -7  -1   1   18.64    1.46
  -7  -1   1   17.90    1.86
  -7  -1   1   19.44    1.60
  -7  -1   1   21.31    1.57
  -7   1   1   21.01    1.76
  -7   1   1   19.94    1.75
  -7   1   1   18.22    1.94
  -7   1   1   19.15    1.25
  -6  -1   1    3.65    0.86
  -6  -1   1    2.86    0.76
  -6  -1   1    3.67    0.91
  -6   1   1    3.61    0.94
  -6   1   1    3.75    0.96
  -6   1   1    3.70    0.62
  -6   1   1    4.31    1.12
  -5  -1   1    3.62    0.70
  -5  -1   1    4.49    0.88
  -5   1   1    4.96    0.89
  -5   1   1    3.54    0.87
  -5   1   1    2.32    0.83
  -4  -1   1   17.33    1.12
  -4  -1   1   22.43    1.30
  -4   1   1   19.30    1.25
  -4   1   1   19.05    1.23
  -4   1   1   17.90    0.87
  -4   1   1   20.53    1.48
  -3  -1   1    6.19    0.69
   3  -1  -1    6.04    0.56
  -3  -1   1    6.85    0.81
  -3   1   1    7.05    0.73
  -3   1   1    6.32    0.84
  -3   1   1    6.34    0.93
   2  -1  -1    1.03    0.22
  -2  -1   1    0.96    0.29
  -2  -1   1    0.71    0.38
  -2   1   1    1.24    0.34
   2   1  -1    1.46    0.36
   2   1  -1    1.68    0.30
  -2   1   1    1.23    0.50
  -2   1   1    0.99    0.41
   1  -1  -1    4.65    0.44
   1  -1  -1    4.94    0.32
   1  -1  -1    4.25    0.34
  -1  -1   1    4.82    0.46
   1  -1  -1    5.01    0.47
  -1  -1   1    3.63    0.32
  -1  -1   1    4.33    0.45
   1   1  -1    4.06    0.32
  -1   1   1    4.47    0.51
  -1   1   1    4.48    0.43
  -1   1   1    4.67    0.41
   1   1  -1    4.30    0.46
  -1   1   1    5.39    0.28
   0  -1  -1    0.60    0.15
   0  -1  -1    0.90    0.18
   0  -1   1    0.49    0.28
   0  -1  -1    0.63    0.21
   0  -1   1    0.64    0.22
   0  -1  -1    0.87    0.13
   0  -1  -1    0.66    0.23
   0  -1   1    0.61    0.25
   0  -1   1    1.07    0.31
   0   1   1    0.85    0.19
   0   1  -1    0.65    0.34
   0   1   1    0.49    0.22
   0   1  -1    0.25    0.26
   0   1   1    0.88    0.15
   0   1  -1    0.28    0.26
   0   1   1    0.88    0.20
   0   1   1    0.95    0.15
   1  -1   1   -0.68    0.38
  -1  -1  -1   -0.05    0.24
   1  -1   1    0.40    0.30
  -1  -1  -1    0.12    0.23
   1  -1   1    0.30    0.47
   1  -1   1    0.10    0.39
   1   1   1    0.36    0.23
  -1   1  -1   -0.13    0.48
  -1   1  -1    0.64    0.55
   1   1   1    0.07    0.15
   1   1   1   -0.02    0.19
  -1   1  -1   -0.17    0.31
  -1   1  -1    0.23    0.38
  -2  -1  -1  305.04   10.53
  -2  -1  -1  317.92   10.82
  -2  -1  -1  320.71   10.80
   2  -1   1  348.25   10.72
   2   1   1  320.62   10.53
  -2   1  -1  324.22   10.93
  -2   1  -1  316.01   10.75
  -2   1  -1  330.71   11.01
  -3  -1  -1  323.06   11.09
  -3  -1  -1  327.49   11.35
  -3  -1  -1  350.92   11.43
  -3  -1  -1  313.71   10.89
   3  -1   1  344.19   11.16
  -3   1  -1  336.01   11.45
   3   1   1  331.61   11.08
  -3   1  -1  352.01   11.60
  -3   1  -1  348.48   11.26
  -4  -1  -1   10.50    1.08
  -4  -1  -1    8.92    0.78
  -4  -1  -1    9.08    0.61
  -4  -1  -1    9.56    0.96
  -4   1  -1    9.85    1.43
  -4   1  -1    9.17    1.13
  -4   1  -1    8.70    0.98
  -5  -1  -1  122.01    4.37
  -5  -1  -1  129.67    4.97
  -5  -1  -1  122.34    4.58
  -5  -1  -1  121.74    4.75
  -5   1  -1  129.15    4.65
  -5   1  -1  124.74    5.10
  -5   1  -1  126.28    4.89
  -6  -1  -1  211.18    7.68
  -6  -1  -1  213.73    7.93
  -6  -1  -1  211.23    7.51
  -6   1  -1  210.77    7.82
  -6   1  -1  209.51    8.04
  -6   1  -1  214.45    7.53
  -7  -1  -1   25.72    1.70
  -7  -1  -1   24.66    2.08
  -7  -1  -1   19.98    1.46
  -7  -1  -1   20.85    1.67
  -7   1  -1   21.46    1.95
  -7   1  -1   21.29    2.69
  -7   1  -1   21.05    1.66
  -8  -1  -1    0.75    1.35
  -8  -1  -1    1.32    0.86
  -8  -1  -1    1.14    1.05
  -8  -1  -1    1.46    1.26
  -8   1  -1    2.67    1.16
  -8   1  -1    1.18    1.97
  -8   1  -1    1.50    1.20
  -9  -1  -1   -0.24    0.88
  -9  -1  -1    0.65    1.14
  -9  -1  -1    0.79    1.64
  -9   1  -1   -0.44    1.88
  -9   1  -1    1.02    1.26
 -10  -1  -1   -0.25    0.96
 -10  -1  -1   -0.98    1.14
 -10  -1  -1    0.15    1.63
 -10   1  -1   -0.35    1.39
 -10   1  -1   -0.34    2.07
 -10   1  -1   -1.07    1.40
 -11  -1  -1    0.83    1.08
 -11  -1  -1    4.44    1.78
 -11   1  -1    1.99    2.50
 -11   1  -1   -0.53    1.49
 -11   1  -1    2.19    1.61
 -12  -1  -1    5.69    2.09
 -12  -1  -1    3.71    2.53
 -12  -1  -1    4.22    1.28
 -12   1  -1    4.69    1.94
 -12   1  -1    7.56    3.28
 -12   1  -1    5.71    1.97
 -13  -1  -1    0.41    1.12
 -13  -1  -1    2.38    2.62
 -13  -1  -1   -2.05    1.95
 -13   1  -1   -1.56    1.73
 -13   1  -1    1.59    3.06
 -13   1  -1   -0.94    2.11
 -14  -1  -1    2.66    2.87
 -14  -1  -1    3.17    2.43
 -14   1  -1   -1.20    2.33
 -14   1  -1   -0.72    1.98
 -14   1  -1    1.85    3.41
 -15  -1  -1    4.47    3.78
 -15  -1  -1    2.62    2.56
 -15   1  -1   -0.77    2.64
 -15   1  -1    0.87    2.10
 -15   1  -1    5.63    3.80
 -16  -1  -1    0.15    2.64
 -16  -1  -1    2.38    3.71
 -16   1  -1   -4.63    3.65
 -17  -1  -1    4.39    3.96
 -17  -1  -1    0.18    3.51
 -17   1  -1    4.36    4.35
 -17  -2   1    6.81    4.04
 -17   2   1    6.46    3.23
 -17   2   1    3.10    4.46
 -16  -2   1   -2.57    2.91
 -16  -2   1   -0.84    2.44
 -16   2   1    2.81    2.86
 -16   2   1    2.81    4.32
 -15  -2   1    6.52    3.20
 -15  -2   1    4.09    2.15
 -15   2   1   -0.71    2.53
 -15   2   1    5.24    3.99
 -14  -2   1   -0.97    2.03
 -14  -2   1    1.65    1.90
 -14  -2   1    0.34    2.39
 -14   2   1    1.57    2.47
 -14   2   1    3.63    3.53
 -14   2   1    2.81    3.03
 -13  -2   1   -0.14    1.66
 -13  -2   1   -1.07    1.97
 -13  -2   1   -0.88    2.19
 -13  -2   1   -0.57    1.62
 -13   2   1   -2.04    2.23
 -12  -2   1    5.00    1.44
 -12  -2   1    7.11    2.41
 -12  -2   1    9.77    2.17
 -12  -2   1    7.04    1.85
 -12   2   1   10.39    1.83
 -12   2   1   14.11    2.77
 -12   2   1   11.47    3.38
 -11  -2   1   18.49    2.38
 -11  -2   1   22.05    2.60
 -11  -2   1   17.59    3.14
 -11  -2   1   21.98    2.02
 -11   2   1   11.52    3.13
 -11   2   1   26.24    2.88
 -11   2   1   16.56    1.91
 -10  -2   1   27.41    2.68
 -10  -2   1   29.55    2.10
 -10  -2   1   31.77    2.48
 -10  -2   1   27.87    2.42
 -10   2   1   20.60    2.94
 -10   2   1   28.04    1.99
 -10   2   1   27.48    2.86
  -9  -2   1   74.28    3.91
  -9  -2   1   69.78    3.52
  -9  -2   1   71.50    3.64
  -9  -2   1   73.08    3.33
  -9   2   1   64.04    4.13
  -9   2   1   69.40    4.21
  -9   2   1   66.68    3.03
  -8  -2   1  142.22    5.44
  -8  -2   1  146.28    5.84
  -8  -2   1  141.81    5.99
  -8   2   1  134.30    5.10
  -8   2   1  146.82    6.26
  -8   2   1  132.54    5.91
  -8   2   1  142.92    6.17
  -7  -2   1  148.56    5.84
  -7  -2   1  137.97    5.63
  -7  -2   1  139.50    5.43
  -7   2   1  140.43    5.87
  -7   2   1  142.42    6.56
  -7   2   1  143.31    5.81
  -6  -2   1   18.64    1.34
  -6   2   1   21.83    2.02
  -6   2   1   20.75    1.08
  -6   2   1   21.57    1.97
  -5  -2   1    3.39    0.66
  -5  -2   1    3.58    0.82
  -5   2   1    3.10    1.20
  -5   2   1    3.54    0.45
  -5   2   1    3.63    1.04
  -5   2   1    5.43    1.10
  -4  -2   1   67.88    2.93
  -4  -2   1   67.90    2.63
  -4   2   1   68.97    2.99
  -4   2   1   66.89    3.16
  -4   2   1   65.65    2.95
   3  -2  -1  397.74   12.63
  -3  -2   1  373.94   12.63
  -3  -2   1  384.43   12.94
  -3   2   1  377.57   12.74
  -3   2   1  373.43   12.90
  -3   2   1  379.52   13.08
  -3   2   1  387.15   13.21
   3   2  -1  378.96   13.03
   2  -2  -1  393.18   13.03
   2  -2  -1  391.50   12.42
  -2  -2   1  379.32   12.85
  -2  -2   1  383.29   12.61
  -2   2   1  384.10   12.90
   2   2  -1  371.10   12.94
  -2   2   1  373.46   13.05
   1  -2  -1   17.09    1.17
   1  -2  -1   17.68    0.96
  -1  -2   1   20.33    0.98
   1  -2  -1   18.51    0.88
   1   2  -1   20.36    1.33
  -1   2   1   19.19    1.23
  -1   2   1   20.11    1.43
   1   2  -1   21.22    1.29
   0  -2   1    4.45    0.59
   0  -2  -1    2.90    0.56
   0  -2  -1    4.31    0.46
   0  -2  -1    3.92    0.73
   0   2   1    4.71    0.77
   0   2  -1    4.38    0.92
   0   2  -1    4.93    0.82
   0   2   1    4.02    0.84
   1  -2   1   74.54    2.86
  -1  -2  -1   73.65    2.80
  -1  -2  -1   76.74    2.54
  -1  -2  -1   73.27    2.81
  -1  -2  -1   74.45    2.88
  -1   2  -1   79.44    3.22
  -1   2  -1   74.56    3.16
   1   2   1   76.35    2.93
  -1   2  -1   74.50    2.86
   1   2   1   73.79    2.84
  -2  -2  -1  621.44   20.49
  -2  -2  -1  654.21   20.30
   2  -2   1  579.71   20.28
  -2  -2  -1  625.03   20.45
  -2  -2  -1  604.47   20.03
  -2   2  -1  636.34   20.32
   2   2   1  632.39   20.21
  -2   2  -1  621.57   20.74
  -2   2  -1  621.70   20.83
   2   2   1  602.36   20.03
  -2   2  -1  617.85   20.65
  -3  -2  -1  511.91   17.16
  -3  -2  -1  521.83   17.67
  -3  -2  -1  540.22   17.68
  -3  -2  -1  523.41   17.20
   3  -2   1  541.12   17.38
  -3   2  -1  525.17   17.91
   3   2   1  513.17   17.19
  -3   2  -1  533.69   17.45
  -3   2  -1  550.16   18.17
  -3   2  -1  528.41   17.90
  -4  -2  -1  291.12   10.22
  -4  -2  -1  272.29    9.50
  -4  -2  -1  306.45   10.23
   4  -2   1  309.32    9.79
  -4   2  -1  298.76   10.47
  -4   2  -1  298.90   10.03
  -4   2  -1  303.42   10.89
   4   2   1  265.93    9.76
  -4   2  -1  291.09   10.51
  -5  -2  -1  238.19    8.32
  -5  -2  -1  228.81    7.86
  -5  -2  -1  237.73    8.40
  -5  -2  -1  224.59    7.53
  -5  -2  -1  223.28    7.51
  -5   2  -1  234.99    8.72
  -5   2  -1  228.85    8.53
  -5   2  -1  226.10    8.13
  -6  -2  -1  196.42    7.03
  -6  -2  -1  196.13    6.62
  -6  -2  -1  207.91    7.62
  -6   2  -1  195.86    7.27
  -6   2  -1  197.79    7.96
  -6   2  -1  204.35    7.77
  -7  -2  -1   59.93    2.26
  -7  -2  -1   59.74    3.06
  -7  -2  -1   60.95    3.28
  -7  -2  -1   58.86    2.71
  -7   2  -1   59.58    3.90
  -7   2  -1   52.96    3.07
  -8  -2  -1    1.18    0.59
  -8  -2  -1   -0.26    0.88
  -8  -2  -1    2.49    1.17
  -8  -2  -1   -0.69    1.19
  -8   2  -1   -0.01    1.22
  -8   2  -1    0.61    1.48
  -8   2  -1   -0.21    2.40
  -9  -2  -1    4.07    1.76
  -9  -2  -1    7.26    1.62
  -9  -2  -1    6.49    1.34
  -9   2  -1    5.58    3.00
  -9   2  -1    4.62    1.77
  -9   2  -1    8.47    2.00
 -10  -2  -1    4.70    1.64
 -10  -2  -1    0.66    1.83
 -10  -2  -1    8.04    1.42
 -10   2  -1    8.65    2.02
 -10   2  -1    5.71    3.18
 -10   2  -1    2.43    1.85
 -11  -2  -1   25.37    3.40
 -11  -2  -1   34.33    2.84
 -11   2  -1   28.19    3.15
 -11   2  -1   20.95    3.91
 -11   2  -1   20.93    2.98
 -12  -2  -1   16.09    3.27
 -12  -2  -1   17.11    3.31
 -12   2  -1   16.84    2.89
 -12   2  -1    6.58    4.10
 -12   2  -1   12.56    2.67
 -13  -2  -1   -0.92    2.39
 -13  -2  -1    0.25    2.00
 -13   2  -1    4.44    2.23
 -13   2  -1    0.29    3.75
 -13   2  -1    6.17    2.71
 -14  -2  -1   -0.28    2.04
 -14  -2  -1    1.51    2.84
 -14   2  -1    2.79    3.69
 -14   2  -1   -2.63    2.65
 -14   2  -1   -1.36    2.63
 -15  -2  -1   -1.09    3.13
 -15  -2  -1    0.84    2.78
 -15   2  -1    0.00    2.52
 -15   2  -1   -0.52    4.09
 -16  -2  -1    5.36    2.91
 -16  -2  -1    2.75    3.55
 -16   2  -1   -0.11    2.56
 -16   2  -1    0.86    5.48
 -17  -2  -1   -6.61    3.15
 -17  -2  -1   -1.14    3.01
 -17   2  -1    4.49    5.18
 -17  -3   1    1.74    2.66
 -17  -3   1   -1.04    3.48
 -17   3   1    9.46    6.13
 -17   3   1    4.15    5.29
 -16  -3   1    1.66    3.17
 -16   3   1   -5.63    2.90
 -16   3   1    5.01    4.89
 -16   3   1  -10.25    4.74
 -15  -3   1    1.41    2.26
 -15  -3   1   -1.53    3.26
 -15   3   1   -1.24    2.84
 -15   3   1   -4.60    4.21
 -14  -3   1    1.76    1.92
 -14  -3   1   -2.56    2.24
 -14  -3   1    0.56    1.97
 -14   3   1    1.43    2.69
 -14   3   1    1.64    4.03
 -13  -3   1   -1.05    1.43
 -13  -3   1   -3.32    2.05
 -13  -3   1   -1.12    1.72
 -13   3   1   -0.38    3.90
 -13   3   1   -3.99    2.06
 -12  -3   1    3.64    2.06
 -12  -3   1    1.55    1.06
 -12  -3   1    4.63    1.99
 -12  -3   1    2.06    1.52
 -12   3   1    0.90    3.21
 -11  -3   1   21.03    3.08
 -11  -3   1   19.89    2.30
 -11  -3   1   19.45    1.83
 -11  -3   1   19.45    2.95
 -11   3   1   22.33    3.15
 -11   3   1   14.55    3.80
 -10  -3   1    4.82    1.73
 -10  -3   1    7.92    1.56
 -10  -3   1    4.74    1.09
 -10  -3   1    4.03    1.76
 -10   3   1    0.65    2.91
 -10   3   1    4.80    2.13
  -9  -3   1    6.83    1.55
  -9  -3   1    6.67    1.65
  -9  -3   1    5.17    1.29
  -9   3   1    3.71    1.89
  -9   3   1    7.80    3.04
  -9   3   1    4.96    1.16
  -8  -3   1   46.84    2.97
  -8  -3   1   40.52    2.45
  -8  -3   1   40.43    2.77
  -8   3   1   47.29    4.09
  -8   3   1   43.30    3.37
  -7  -3   1   11.50    1.31
  -7  -3   1   10.37    1.66
  -7  -3   1    9.55    1.51
  -7   3   1   13.56    3.20
  -7   3   1    7.28    2.44
  -7   3   1   11.85    2.04
  -6  -3   1    2.05    1.05
  -6  -3   1    1.00    0.68
  -6   3   1    0.12    2.12
  -6   3   1    1.90    1.81
  -6   3   1   -1.04    1.25
  -5  -3   1    1.37    0.56
  -5   3   1   -0.97    1.77
  -5   3   1   -0.48    1.36
  -5   3   1    1.70    1.24
  -4  -3   1   19.05    1.12
  -4  -3   1   19.55    1.41
  -4   3   1   19.70    1.88
  -4   3   1   16.36    1.64
   4   3  -1   19.04    1.59
  -4   3   1   20.73    2.06
  -3  -3   1    1.13    0.70
   3  -3  -1    0.90    0.74
   3  -3  -1    1.31    0.34
   3  -3  -1    1.88    0.27
  -3  -3   1    1.33    0.44
  -3   3   1    2.19    1.12
   3   3  -1    0.98    0.73
  -3   3   1    2.77    1.00
   2  -3  -1   13.45    0.75
   2  -3  -1   13.01    1.13
  -2  -3   1   14.98    0.92
  -2  -3   1   12.84    1.12
   2   3  -1   15.23    1.14
  -2   3   1   14.60    1.48
  -2   3   1   13.34    1.33
   2   3  -1   12.45    1.23
   1  -3  -1   33.35    1.50
  -1  -3   1   35.67    1.60
  -1   3   1   34.18    2.08
   1   3  -1   33.84    2.00
   1   3  -1   34.07    1.97
  -1   3   1   31.81    1.82
   0  -3  -1    8.50    0.77
   0  -3   1   10.58    0.98
   0  -3  -1    8.46    0.76
   0   3   1    9.76    1.19
   0   3   1    9.65    1.08
   0   3  -1   11.11    1.37
   0   3  -1   11.66    1.44
  -1  -3  -1   -0.18    0.45
  -1  -3  -1    0.22    0.51
  -1  -3  -1   -0.01    0.31
   1   3   1   -0.20    0.52
   1   3   1   -0.23    0.57
  -1   3  -1    0.02    0.90
  -1   3  -1   -0.59    0.68
  -2  -3  -1   86.29    3.06
  -2  -3  -1   87.82    3.51
  -2  -3  -1   87.52    3.57
  -2   3  -1   93.70    3.98
   2   3   1   90.77    3.68
  -2   3  -1   90.50    4.05
   2   3   1   90.61    3.46
  -3  -3  -1  220.50    7.71
  -3  -3  -1  235.10    8.15
  -3  -3  -1  234.16    8.09
  -3  -3  -1  223.79    7.49
   3  -3   1  207.41    7.74
  -3   3  -1  237.23    8.65
   3   3   1  219.29    7.48
  -3   3  -1  233.43    8.50
   3   3   1  229.40    7.72
  -3   3  -1  228.46    8.32
   4  -3   1   10.19    0.91
  -4  -3  -1   11.71    1.25
  -4  -3  -1   10.34    0.75
  -4  -3  -1   12.37    1.21
  -4   3  -1   10.36    2.05
  -4   3  -1   13.43    1.71
   4   3   1    9.28    0.61
  -4   3  -1   13.50    2.20
  -4   3  -1   10.47    1.01
  -5  -3  -1   86.83    3.32
  -5  -3  -1   93.04    4.03
  -5  -3  -1   87.26    3.90
   5  -3   1   89.46    3.29
  -5   3  -1   87.18    4.52
  -5   3  -1   99.24    4.31
  -6  -3  -1  128.80    5.32
  -6  -3  -1  120.97    4.56
  -6  -3  -1  129.61    5.25
  -6   3  -1  130.98    6.72
  -6   3  -1  119.06    5.78
  -6   3  -1  127.64    6.03
  -6   3  -1  119.64    5.59
  -7  -3  -1   20.55    1.82
  -7  -3  -1   18.83    1.45
  -7  -3  -1   19.83    2.04
  -7   3  -1   17.99    3.62
  -7   3  -1   19.60    2.27
  -7   3  -1   20.87    2.46
  -7   3  -1   25.69    3.94
  -8  -3  -1    2.34    1.52
  -8  -3  -1    3.48    1.04
  -8  -3  -1    5.45    1.52
  -8   3  -1    1.28    2.13
  -8   3  -1    4.42    3.01
  -8   3  -1    1.54    3.37
  -8   3  -1    5.99    1.87
  -9  -3  -1    1.66    1.06
  -9  -3  -1    1.19    1.38
  -9  -3  -1   -0.05    1.12
  -9   3  -1   -1.01    3.91
  -9   3  -1    0.15    2.27
  -9   3  -1    0.89    1.75
  -9   3  -1    2.07    3.56
 -10  -3  -1   -0.74    1.39
 -10  -3  -1    0.19    1.08
 -10   3  -1   -0.89    1.68
 -10   3  -1    1.14    2.39
 -10   3  -1   -3.28    2.99
 -10   3  -1    2.65    3.94
 -11  -3  -1    2.14    2.16
 -11  -3  -1   -1.10    1.63
 -11   3  -1   -0.70    1.72
 -11   3  -1    0.78    3.34
 -11   3  -1   -0.96    3.94
 -11   3  -1    2.63    2.60
 -12  -3  -1    4.29    2.51
 -12  -3  -1    2.98    1.98
 -12   3  -1    2.21    2.69
 -12   3  -1    3.68    2.69
 -12   3  -1   -1.23    4.38
 -13  -3  -1    2.42    2.58
 -13  -3  -1    2.06    2.31
 -13   3  -1   -0.09    2.44
 -13   3  -1   -5.31    4.55
 -13   3  -1   -1.48    4.31
 -14  -3  -1   -0.08    2.17
 -14  -3  -1    0.85    2.95
 -14   3  -1    0.58    2.52
 -14   3  -1    6.37    5.31
 -14   3  -1    7.80    4.84
 -15  -3  -1   -3.58    2.42
 -15  -3  -1    0.00    3.14
 -15   3  -1   -2.17    5.66
 -15   3  -1    4.81    5.28
 -15   3  -1   -0.67    2.69
 -16  -3  -1   -0.41    3.15
 -16  -3  -1   -1.94    3.13
 -16   3  -1   -1.60    5.33
 -16   3  -1    7.37    5.96
 -16   3  -1    1.74    2.82
 -16  -4   1    0.42    2.87
 -16  -4   1   -0.94    2.96
 -16   4   1   -2.70    3.74
 -16   4   1   -2.15    5.07
 -16   4   1   -4.74    5.36
 -15  -4   1    0.21    2.97
 -15   4   1    3.52    3.23
 -15   4   1   -0.17    5.14
 -14  -4   1    9.01    2.18
 -14  -4   1    7.08    3.12
 -14  -4   1    5.60    3.48
 -14   4   1   -6.41    4.89
 -14   4   1    6.58    3.52
 -14   4   1    1.46    4.90
 -13  -4   1    2.92    2.57
 -13  -4   1    4.81    1.80
 -13  -4   1    5.32    2.40
 -13   4   1    5.33    6.01
 -13   4   1   14.37    3.43
 -13   4   1    0.17    4.38
 -12  -4   1    3.74    2.06
 -12  -4   1    3.57    1.62
 -12  -4   1    3.80    2.27
 -12   4   1    0.74    4.07
 -12   4   1   -0.02    5.30
 -12   4   1    5.10    2.88
 -11  -4   1    3.26    0.99
 -11  -4   1    2.82    1.94
 -11  -4   1    2.66    1.90
 -11  -4   1    2.69    1.38
 -11   4   1    5.63    4.12
 -11   4   1    1.40    4.94
 -11   4   1    1.78    2.36
 -10  -4   1   10.10    1.59
 -10  -4   1    5.34    2.16
 -10  -4   1    6.99    1.12
 -10   4   1    9.87    4.54
 -10   4   1    5.29    4.03
 -10   4   1   11.64    2.66
  -9  -4   1    6.48    1.81
  -9  -4   1    8.52    1.34
  -9  -4   1    4.64    1.79
  -9   4   1    4.15    3.69
  -9   4   1    3.74    2.13
  -9   4   1    5.63    3.48
  -8  -4   1    3.04    1.52
  -8  -4   1    1.31    1.13
  -8  -4   1    2.32    1.46
  -8   4   1    1.89    1.83
  -8   4   1    5.31    3.39
  -8   4   1    4.63    2.86
  -7  -4   1   14.05    1.36
  -7  -4   1   12.96    1.94
  -7  -4   1   16.08    2.02
  -7   4   1   16.01    2.78
  -7   4   1   14.08    3.28
  -7   4   1   13.40    2.36
  -6  -4   1  140.84    5.80
  -6  -4   1  137.45    5.07
  -6   4   1  127.24    5.80
  -6   4   1  129.42    6.51
  -6   4   1  136.13    6.27
  -5  -4   1  296.11   10.17
  -5  -4   1  310.62   10.89
  -5   4   1  295.79   10.57
  -5   4   1  300.31   11.28
  -5   4   1  283.18   11.27
   4  -4  -1  151.38    4.77
  -4  -4   1  148.97    5.81
   4  -4  -1  134.69    4.79
  -4  -4   1  141.75    5.20
   4   4  -1  144.63    5.94
  -4   4   1  147.09    6.09
  -4   4   1  147.47    6.27
   3  -4  -1   32.15    1.50
  -3  -4   1   33.57    1.61
  -3  -4   1   32.03    2.02
   3  -4  -1   33.29    1.41
  -3   4   1   35.98    2.49
  -3   4   1   34.58    2.81
   3   4  -1   29.56    2.38
   3   4  -1   33.28    1.98
   2  -4  -1   56.66    2.29
  -2  -4   1   59.83    2.42
  -2  -4   1   55.33    2.73
   2   4  -1   52.55    2.93
   2   4  -1   55.41    2.79
  -2   4   1   60.21    3.19
  -2   4   1   58.72    2.93
   1  -4  -1  376.88   12.72
  -1  -4   1  374.06   12.76
  -1   4   1  373.87   13.35
   1   4  -1  384.90   13.30
  -1   4   1  378.98   13.16
   1   4  -1  379.45   13.34
   0  -4  -1  510.02   17.14
   0  -4   1  508.47   17.11
   0  -4  -1  513.96   17.08
   0   4   1  505.52   17.53
   0   4  -1  529.89   17.71
   0   4  -1  511.15   17.66
   0   4   1  505.68   17.44
  -1  -4  -1  243.76    8.10
  -1  -4  -1  235.90    8.38
  -1  -4  -1  231.60    8.44
  -1   4  -1  232.32    8.93
   1   4   1  249.78    8.74
  -1   4  -1  236.05    8.94
   1   4   1  241.09    8.66
  -2  -4  -1   17.34    0.93
  -2  -4  -1   18.00    1.42
  -2  -4  -1   19.62    1.43
   2   4   1   16.21    1.51
   2   4   1   18.36    1.54
  -2   4  -1   19.62    2.11
  -2   4  -1   19.91    2.19
  -3  -4  -1   10.99    1.59
  -3  -4  -1    7.78    1.19
   3   4   1    9.53    1.10
  -3   4  -1    9.03    1.64
   3   4   1    6.45    1.20
  -3   4  -1    7.88    1.81
  -4  -4  -1   24.35    1.29
  -4  -4  -1   27.94    1.98
  -4  -4  -1   25.45    1.87
  -4   4  -1   31.49    3.00
  -4   4  -1   28.22    2.48
  -4   4  -1   27.91    2.70
  -5  -4  -1   17.55    1.73
   5  -4   1   17.64    1.09
  -5  -4  -1   16.46    1.04
  -5  -4  -1   16.64    1.97
  -5   4  -1   19.54    2.87
  -5   4  -1   17.35    2.28
  -5   4  -1   15.46    2.84
   6  -4   1   10.58    0.73
  -6  -4  -1   12.16    1.79
  -6  -4  -1   12.40    1.78
  -6  -4  -1   12.03    0.99
  -6  -4  -1    9.15    0.86
  -6   4  -1    8.70    2.01
  -6   4  -1   11.07    3.07
  -6   4  -1   10.37    3.03
   7  -4   1   32.66    1.40
  -7  -4  -1   33.72    2.58
  -7  -4  -1   33.77    1.82
  -7  -4  -1   33.83    2.66
  -7   4  -1   39.54    4.53
  -7   4  -1   29.90    4.36
  -7   4  -1   37.83    3.48
  -8  -4  -1  102.85    5.03
  -8  -4  -1   98.92    4.01
  -8  -4  -1  101.20    4.96
  -8   4  -1  104.64    7.28
  -8   4  -1  100.89    5.44
  -8   4  -1   88.22    6.15
  -9  -4  -1   97.40    5.08
  -9  -4  -1   86.96    5.65
  -9  -4  -1  100.76    4.17
  -9   4  -1   93.11    6.96
  -9   4  -1  108.16    5.74
  -9   4  -1  109.82    7.87
 -10  -4  -1   20.04    2.22
 -10  -4  -1   23.07    2.88
 -10  -4  -1   15.70    2.69
 -10   4  -1   10.10    4.93
 -10   4  -1   23.24    3.43
 -10   4  -1   22.17    4.65
 -11  -4  -1    3.11    2.08
 -11  -4  -1    1.90    1.84
 -11   4  -1   -0.09    4.55
 -11   4  -1    4.98    4.61
 -11   4  -1    0.99    2.20
 -12  -4  -1    1.08    1.95
 -12  -4  -1   -4.38    1.89
 -12   4  -1    8.09    5.25
 -12   4  -1    9.73    6.17
 -12   4  -1   -1.28    2.46
 -13  -4  -1    7.55    2.82
 -13  -4  -1    1.23    2.68
 -13   4  -1   -1.14    5.22
 -13   4  -1    0.29    5.28
 -13   4  -1    4.11    2.96
 -14  -4  -1    2.87    3.17
 -14  -4  -1    2.52    2.50
 -14   4  -1    5.03    2.98
 -14   4  -1   -0.94    9.41
 -14   4  -1   -3.86    5.05
 -15  -4  -1   -0.19    3.18
 -15  -4  -1    3.05    2.72
 -15   4  -1    1.37    5.40
 -15   4  -1   -0.77    2.89
 -15   4  -1   -1.86    5.29
 -16  -4  -1    3.01    3.28
 -16  -4  -1   -3.76    3.20
 -16   4  -1    1.34    3.38
 -16   4  -1    3.59    5.57
 -16   4  -1   -4.19    5.20
 -16  -5   1    0.40    2.78
 -16  -5   1    0.74    3.71
 -16   5   1   -5.47    3.19
 -16   5   1   -3.10    6.06
 -15  -5   1    3.08    2.50
 -15  -5   1    0.20    3.17
 -15   5   1   -4.80    5.98
 -15   5   1    6.27    3.68
 -15   5   1   -1.05    5.42
 -14  -5   1    1.26    2.79
 -14  -5   1   -0.48    2.47
 -14  -5   1    0.31    1.67
 -14   5   1   -5.08    2.96
 -14   5   1   -2.29    4.81
 -14   5   1   -2.64    5.93
 -13  -5   1    1.18    1.59
 -13  -5   1    3.31    2.29
 -13  -5   1    1.31    2.49
 -13   5   1    1.15    5.00
 -13   5   1    7.96    5.99
 -13   5   1    6.58    3.15
 -12  -5   1    2.64    2.21
 -12  -5   1    3.92    1.50
 -12  -5   1    5.37    2.53
 -12   5   1   -4.24    5.10
 -12   5   1    4.49    2.70
 -12   5   1   -0.08    4.48
 -11  -5   1    7.43    2.52
 -11  -5   1    9.84    1.72
 -11  -5   1    9.68    2.48
 -11   5   1    0.55    4.54
 -11   5   1    6.05    4.08
 -11   5   1   12.83    3.07
 -10  -5   1    0.76    1.86
 -10  -5   1    5.07    2.16
 -10  -5   1    2.08    1.28
 -10   5   1    3.56    2.51
 -10   5   1    4.12    3.51
 -10   5   1   -5.02    4.04
  -9  -5   1    5.27    1.62
  -9  -5   1    3.78    1.12
  -9  -5   1    3.32    1.71
  -9   5   1    6.56    3.07
  -9   5   1    2.26    2.46
  -9   5   1    4.83    4.16
  -8  -5   1   22.22    2.37
  -8  -5   1   21.97    2.74
  -8   5   1   19.71    3.07
  -8   5   1   17.19    2.99
  -8   5   1   20.23    3.89
  -7  -5   1    8.09    1.13
  -7  -5   1   10.53    1.82
  -7  -5   1    7.14    1.77
  -7   5   1    6.12    3.03
  -7   5   1    7.45    2.18
  -6  -5   1    0.21    0.73
  -6  -5   1   -0.66    1.04
  -6  -5   1    1.31    1.23
  -6   5   1    1.01    1.67
  -6   5   1   -0.29    2.34
  -5  -5   1    1.50    1.26
  -5  -5   1   -0.56    0.61
  -5   5   1   -1.71    1.67
   5   5  -1   -0.88    1.00
  -5   5   1    0.63    1.59
  -4  -5   1    9.45    1.59
   4  -5  -1    8.16    0.92
  -4  -5   1    8.43    1.04
   4  -5  -1    8.93    0.74
   4   5  -1    9.25    1.66
  -4   5   1    9.51    2.10
  -4   5   1    5.49    1.90
  -3  -5   1    0.78    1.00
   3  -5  -1    0.28    0.53
  -3  -5   1    0.31    0.63
   3   5  -1    1.19    1.10
   3   5  -1    1.07    0.97
  -3   5   1    0.79    1.42
  -3   5   1    1.25    1.57
  -2  -5   1   11.39    1.57
  -2  -5   1   10.08    1.12
   2  -5  -1    9.66    1.07
   2   5  -1    7.70    1.50
  -2   5   1   10.29    1.80
   2   5  -1    9.56    1.63
  -2   5   1    8.58    1.75
   1  -5  -1   11.47    1.27
  -1  -5   1    9.76    1.15
   1  -5  -1   10.12    1.20
  -1   5   1   11.19    1.60
   1   5  -1    8.33    1.52
   1   5  -1    7.90    1.63
  -1   5   1   11.21    2.02
   0  -5  -1    1.74    0.74
   0  -5  -1    2.13    0.75
   0  -5   1    2.13    0.86
   0   5   1    0.19    0.90
   0   5  -1    2.14    1.33
   0   5  -1    0.12    1.01
   0   5   1    0.99    1.07
  -1  -5  -1    0.50    0.77
  -1  -5  -1   -1.10    0.50
  -1  -5  -1    0.52    0.65
   1   5   1   -1.05    0.84
   1   5   1    0.47    1.04
  -1   5  -1   -0.09    1.27
  -1   5  -1    0.33    1.12
  -2  -5  -1   52.23    2.15
  -2  -5  -1   47.18    2.65
  -2  -5  -1   52.49    2.64
   2   5   1   49.58    2.89
  -2   5  -1   50.85    3.39
   2   5   1   52.65    2.84
  -2   5  -1   52.37    3.48
  -3  -5  -1   90.99    4.11
  -3  -5  -1   91.91    3.43
  -3  -5  -1   91.04    4.21
   3   5   1  102.69    4.18
  -3   5  -1   96.68    5.00
   3   5   1   94.28    4.42
  -3   5  -1   91.73    4.79
  -4  -5  -1    6.89    1.47
  -4  -5  -1    4.52    0.61
  -4  -5  -1    6.65    1.48
   4   5   1    5.36    1.05
  -4   5  -1    5.14    2.12
  -4   5  -1    5.54    1.80
  -5  -5  -1   44.99    2.78
  -5  -5  -1   44.35    2.84
  -5  -5  -1   43.10    1.85
  -5   5  -1   41.03    3.42
  -5   5  -1   37.73    3.84
   6  -5   1   60.12    2.33
  -6  -5  -1   56.44    3.44
  -6  -5  -1   60.39    2.47
  -6  -5  -1   57.82    3.50
  -6   5  -1   60.18    4.19
  -6   5  -1   71.96    5.06
  -6   5  -1   61.07    4.47
  -7  -5  -1    8.32    0.98
  -7  -5  -1   10.73    1.96
  -7  -5  -1    9.85    1.97
  -7   5  -1    6.46    3.21
  -7   5  -1    7.41    3.09
  -7   5  -1    8.04    2.19
  -8  -5  -1    1.06    0.75
  -8  -5  -1   -0.02    1.42
  -8   5  -1    2.72    2.08
  -8   5  -1   -1.22    3.15
  -8   5  -1    4.10    3.40
  -9  -5  -1    1.33    1.74
  -9  -5  -1   -1.19    1.50
  -9  -5  -1    0.46    0.82
  -9   5  -1    0.61    2.04
  -9   5  -1    1.34    3.76
 -10  -5  -1    0.67    1.88
 -10  -5  -1    2.49    1.92
 -10  -5  -1   -0.60    0.87
 -10   5  -1   -4.86    3.84
 -10   5  -1   -4.43    2.14
 -10   5  -1   -2.96    4.33
 -11  -5  -1    1.64    2.06
 -11  -5  -1   -0.76    1.98
 -11   5  -1   -1.44    2.04
 -11   5  -1    4.14    4.77
 -11   5  -1   -3.62    4.63
 -12  -5  -1    2.80    2.66
 -12  -5  -1   -1.39    2.17
 -12   5  -1   -9.89    4.75
 -12   5  -1    4.95    3.06
 -12   5  -1    3.59    5.38
 -13  -5  -1    0.16    2.44
 -13   5  -1   -3.93    5.32
 -13   5  -1    0.90    2.97
 -13   5  -1    0.34    5.01
 -14  -5  -1   -3.14    2.58
 -14  -5  -1   -0.46    2.46
 -14   5  -1    4.19    5.68
 -14   5  -1    1.47    3.13
 -14   5  -1   -2.41    6.07
 -15  -5  -1    2.61    3.37
 -15  -5  -1   -4.71    2.80
 -15   5  -1   -0.68    3.08
 -15   5  -1    6.23    5.82
 -15   5  -1    1.35    5.75
 -15  -6   1   -8.59    2.65
 -15  -6   1    3.16    3.18
 -15   6   1   -6.57    4.80
 -15   6   1    3.15    3.39
 -14  -6   1    1.29    2.71
 -14  -6   1    1.13    2.46
 -14   6   1    6.76    5.79
 -14   6   1   -0.24    3.10
 -13  -6   1    1.95    2.66
 -13  -6   1   -2.78    2.25
 -13  -6   1   -2.99    1.59
 -13   6   1   -0.88    4.03
 -13   6   1    6.15    5.64
 -12  -6   1    3.35    1.63
 -12  -6   1    2.05    2.49
 -12  -6   1    9.69    2.80
 -12   6   1    8.20    3.58
 -12   6   1    3.21    3.90
 -12   6   1    4.54    5.72
 -11  -6   1   15.57    2.99
 -11  -6   1    6.52    1.54
 -11  -6   1    9.09    2.72
 -11   6   1   11.29    3.65
 -11   6   1   11.14    4.85
 -11   6   1    5.51    3.08
 -10  -6   1   10.37    2.64
 -10  -6   1   11.12    2.65
 -10  -6   1    9.01    1.48
 -10   6   1    9.02    4.17
 -10   6   1    9.28    3.30
  -9  -6   1   19.15    1.79
  -9  -6   1   19.37    2.89
  -9  -6   1   22.30    3.07
  -9   6   1   20.81    3.55
  -9   6   1   25.73    4.50
  -8  -6   1   50.39    3.70
  -8  -6   1   56.05    3.82
  -8  -6   1   43.65    2.56
  -8   6   1   48.11    4.50
  -8   6   1   49.57    5.07
  -7  -6   1   35.28    2.35
  -7  -6   1   41.54    3.63
  -7   6   1   45.82    4.57
  -7   6   1   44.16    4.33
  -6  -6   1   13.63    2.21
  -6  -6   1   12.78    1.32
  -6  -6   1   12.41    2.16
  -6   6   1   12.08    2.79
  -6   6   1    8.11    2.47
  -5  -6   1    3.07    0.84
  -5  -6   1    0.43    1.33
  -5  -6   1    2.09    1.18
   5   6  -1    2.11    1.41
  -5   6   1    0.04    1.76
  -5   6   1    2.07    1.99
  -4  -6   1   28.36    2.37
  -4  -6   1   24.73    1.64
   4  -6  -1   27.87    1.43
  -4   6   1   26.75    3.11
   4   6  -1   26.61    2.60
  -4   6   1   25.92    3.24
  -3  -6   1  117.77    5.36
  -3  -6   1  115.93    4.66
   3  -6  -1  123.29    4.54
  -3   6   1  118.08    5.69
   3   6  -1  124.25    5.45
  -3   6   1  116.67    6.12
   3   6  -1  114.83    5.62
   2  -6  -1   96.72    3.80
  -2  -6   1   92.22    4.33
  -2  -6   1   90.61    3.84
  -2   6   1   85.98    4.89
   2   6  -1   96.82    4.82
   2   6  -1   87.36    4.61
  -2   6   1   92.69    4.67
   1  -6  -1   17.95    1.55
   1  -6  -1   20.28    1.60
  -1  -6   1   19.57    1.85
   1   6  -1   23.85    2.62
  -1   6   1   21.47    2.41
   1   6  -1   20.60    2.58
  -1   6   1   22.37    2.61
   0  -6  -1    3.25    0.91
   0  -6   1    3.82    1.09
   0  -6  -1    4.89    1.14
   0   6  -1    4.77    1.74
   0   6   1    4.40    1.56
   0   6  -1    3.92    1.51
   0   6   1    4.26    1.48
  -1  -6  -1   43.29    2.08
  -1  -6  -1   38.75    2.40
  -1  -6  -1   39.88    2.70
   1  -6   1   37.86    2.39
  -1   6  -1   39.64    3.25
   1   6   1   40.20    2.84
   1   6   1   39.37    2.99
  -1   6  -1   38.82    3.31
  -2  -6  -1  150.30    5.35
  -2  -6  -1  141.63    5.99
  -2  -6  -1  150.08    5.93
  -2   6  -1  138.93    6.69
   2   6   1  144.11    6.35
  -2   6  -1  151.65    6.85
  -3  -6  -1  133.66    5.85
  -3  -6  -1  139.69    5.77
  -3  -6  -1  138.83    4.96
   3   6   1  141.93    5.89
  -3   6  -1  132.93    6.57
   3   6   1  139.94    6.14
  -3   6  -1  137.12    6.66
  -4  -6  -1   94.46    4.39
  -4  -6  -1   85.65    3.36
  -4  -6  -1   92.48    4.49
  -4   6  -1   81.31    5.07
   4   6   1   96.47    4.17
  -4   6  -1   86.96    5.59
  -5  -6  -1   77.32    4.06
  -5  -6  -1   72.47    2.92
  -5  -6  -1   78.64    4.16
  -5   6  -1   77.57    4.89
  -5   6  -1   77.87    5.22
  -6  -6  -1   66.61    3.89
  -6  -6  -1   67.21    3.97
  -6  -6  -1   65.10    2.66
  -6   6  -1   66.47    5.22
  -6   6  -1   68.06    4.76
  -7  -6  -1   33.56    3.34
  -7  -6  -1   28.51    2.86
  -7  -6  -1   24.45    1.48
  -7   6  -1   22.19    4.09
  -7   6  -1   27.32    3.56
  -8  -6  -1    1.27    1.75
  -8  -6  -1    0.37    0.71
  -8  -6  -1   -0.50    1.59
  -8   6  -1   -1.44    3.16
  -8   6  -1   -1.68    2.20
  -9  -6  -1   -1.15    1.66
  -9  -6  -1    0.68    0.77
  -9  -6  -1    0.11    1.81
  -9   6  -1   -2.16    3.22
  -9   6  -1   -3.53    3.50
  -9   6  -1    0.06    2.03
 -10  -6  -1    1.97    2.14
 -10  -6  -1    0.14    2.00
 -10   6  -1    2.47    4.45
 -10   6  -1    2.74    4.00
 -10   6  -1    4.54    2.70
 -11  -6  -1   10.66    2.97
 -11  -6  -1    8.46    2.91
 -11   6  -1   12.61    3.56
 -11   6  -1    8.24    4.84
 -11   6  -1    2.70    4.89
 -12   6  -1    7.45    3.16
 -12   6  -1   -4.18    5.09
 -12   6  -1   -0.07    5.23
 -13  -6  -1    0.25    2.49
 -13  -6  -1    0.03    2.64
 -13   6  -1    2.30    6.34
 -13   6  -1   -2.74    5.07
 -14  -6  -1    1.07    2.79
 -14  -6  -1    4.89    3.57
 -14   6  -1    6.00    5.90
 -14   6  -1    0.46    5.66
 -14   6  -1   -0.04    3.21
 -14  -7   1   -1.50    3.16
 -14  -7   1    0.06    3.07
 -14   7   1    2.33    3.65
 -14   7   1   -0.80    5.65
 -13  -7   1    7.27    2.96
 -13  -7   1   -0.18    2.66
 -13   7   1   -0.90    2.76
 -12  -7   1    1.99    2.63
 -12  -7   1   -1.84    2.29
 -12   7   1    0.26    3.02
 -12   7   1   -4.02    4.14
 -11  -7   1    4.45    2.80
 -11  -7   1    9.87    4.92
 -11   7   1    5.75    4.26
 -11   7   1    1.34    2.86
 -10  -7   1    1.62    1.08
 -10  -7   1    2.49    2.20
 -10  -7   1    0.27    2.14
 -10   7   1    0.38    4.09
 -10   7   1   -0.68    2.68
  -9  -7   1    1.19    0.99
  -9  -7   1   -0.89    1.71
  -9  -7   1    0.85    1.97
  -9   7   1    3.25    3.22
  -9   7   1    0.03    2.45
  -8  -7   1   10.53    2.43
  -8  -7   1    8.42    2.31
  -8  -7   1    7.88    1.21
  -8   7   1    4.32    2.94
  -8   7   1    2.89    2.58
  -7  -7   1   -0.17    1.67
  -7  -7   1    1.79    0.91
  -7  -7   1   -0.05    1.63
  -7   7   1    0.35    2.11
  -7   7   1   -0.73    2.74
  -6  -7   1   -1.65    0.98
  -6  -7   1    1.03    1.49
  -6  -7   1    0.03    1.51
  -6   7   1   -0.14    2.11
  -6   7   1   -3.07    2.26
  -5  -7   1   -0.89    1.19
  -5  -7   1   -0.81    0.70
  -5   7   1    0.38    1.80
  -5   7   1   -1.10    2.08
   5   7  -1   -0.72    1.54
   4  -7  -1    2.57    0.78
  -4  -7   1    4.27    1.67
  -4  -7   1    3.12    1.37
  -4  -7   1    2.67    0.83
   4   7  -1    3.34    1.71
  -4   7   1    5.45    2.06
  -4   7   1    2.87    1.99
   3  -7  -1    0.22    0.72
  -3  -7   1    0.32    1.31
  -3  -7   1    0.90    0.81
  -3   7   1   -0.32    1.53
   3   7  -1    0.61    1.28
   3   7  -1    2.15    1.50
  -3   7   1    1.90    1.94
   2  -7  -1    3.94    1.26
   2  -7  -1    4.32    1.08
  -2  -7   1    2.57    1.00
  -2  -7   1    0.25    1.17
  -2   7   1    4.07    1.92
   2   7  -1    3.34    1.52
  -2   7   1    4.01    1.96
   2   7  -1    0.95    1.46
   1  -7  -1    3.39    1.10
  -1  -7   1    5.19    1.22
   1  -7  -1    1.87    1.09
  -1  -7   1    3.41    1.36
   1   7  -1    1.30    1.65
  -1   7   1    2.47    1.77
  -1   7   1    3.73    1.78
   1   7  -1    4.67    1.88
   0  -7  -1   -0.54    0.91
   0  -7  -1   -0.14    0.97
   0  -7  -1   -0.16    0.84
   0  -7   1    1.65    1.05
   0   7   1   -0.23    1.38
   0   7  -1    1.49    1.73
   0   7   1    1.10    1.54
   0   7  -1    1.19    1.63
  -1  -7  -1    1.51    0.78
  -1  -7  -1   -1.56    0.87
  -1  -7  -1    1.27    1.09
   1  -7   1    0.73    1.05
  -1   7  -1    0.67    1.55
   1   7   1   -0.72    1.40
   1   7   1   -0.77    1.36
  -1   7  -1   -1.22    1.59
  -2  -7  -1   20.53    1.43
  -2  -7  -1   19.99    2.04
  -2  -7  -1   21.13    2.37
  -2   7  -1   27.29    3.45
   2   7   1   25.66    2.84
  -2   7  -1   20.39    3.05
   2   7   1   23.94    2.65
  -3  -7  -1   33.48    1.72
  -3  -7  -1   30.58    2.54
  -3  -7  -1   31.93    2.59
   3   7   1   34.29    2.83
  -3   7  -1   29.76    3.60
   3   7   1   32.20    2.89
  -3   7  -1   29.03    3.26
  -4  -7  -1    3.08    1.58
  -4  -7  -1    0.36    1.35
  -4  -7  -1    1.72    0.60
   4   7   1    1.35    1.22
  -4   7  -1    0.86    2.03
  -5  -7  -1   16.17    2.34
  -5  -7  -1   15.97    1.10
  -5   7  -1   14.20    3.04
  -5   7  -1   13.77    2.86
  -6  -7  -1   20.40    1.30
  -6  -7  -1   23.15    3.28
  -6  -7  -1   20.65    2.80
  -6   7  -1   22.11    4.35
  -6   7  -1   23.09    3.41
  -7  -7  -1    0.30    1.62
  -7  -7  -1    3.41    0.69
  -7  -7  -1    2.16    1.87
  -7   7  -1   -1.48    2.11
  -7   7  -1   -0.36    2.94
  -8  -7  -1   -0.40    1.80
  -8  -7  -1    1.72    1.94
  -8   7  -1    1.97    3.44
  -8   7  -1   -3.07    1.87
  -9  -7  -1   -0.03    1.98
  -9  -7  -1    0.36    2.10
  -9   7  -1   -0.93    2.26
  -9   7  -1    2.34    3.91
 -10  -7  -1    1.86    2.36
 -10  -7  -1   -1.23    2.13
 -10   7  -1   -3.11    2.39
 -10   7  -1   -2.31    4.13
 -11  -7  -1    2.17    2.48
 -11   7  -1    3.05    4.89
 -11   7  -1    0.75    5.79
 -12  -7  -1    3.65    2.93
 -12  -7  -1   -0.57    2.42
 -12   7  -1   11.43    8.82
 -12   7  -1    3.46    3.18
 -13  -7  -1   -0.84    2.73
 -13  -7  -1   -1.81    2.64
 -13   7  -1    3.07    3.47
 -13   7  -1    5.58    6.48
 -14   7  -1   -3.43    5.74
 -13  -8   1    1.83    3.36
 -13  -8   1   -1.96    2.80
 -13   8   1    4.04    5.15
 -13   8   1   -2.04    3.61
 -12  -8   1    0.60    2.65
 -12  -8   1    2.55    2.85
 -12   8   1    2.45    3.37
 -12   8   1   -6.13    6.41
 -11  -8   1    2.45    2.51
 -11  -8   1    2.93    2.57
 -11   8   1   -0.12    4.57
 -11   8   1   -0.70    3.09
 -10  -8   1    3.34    2.57
 -10  -8   1    4.81    3.10
 -10   8   1    2.19    4.12
 -10   8   1   -0.83    2.74
  -9  -8   1    4.80    2.64
  -9  -8   1    0.72    2.06
  -9   8   1    0.20    2.71
  -9   8   1    4.09    3.65
  -8  -8   1    0.11    2.26
  -8  -8   1    3.18    0.95
  -8  -8   1    5.67    2.30
  -8   8   1    5.20    2.85
  -8   8   1   -1.64    3.11
  -7  -8   1    4.96    1.06
  -7  -8   1    4.35    2.12
  -7  -8   1    6.04    2.28
  -7   8   1    4.11    2.50
  -7   8   1    5.10    3.15
  -6  -8   1   26.11    3.34
  -6  -8   1   30.04    3.61
  -6  -8   1   28.39    1.96
  -6   8   1   29.74    3.94
  -6   8   1   28.22    4.06
  -5  -8   1   51.02    3.94
  -5  -8   1   57.36    3.93
  -5  -8   1   53.96    2.81
   5   8  -1   55.49    4.31
  -5   8   1   50.90    4.80
  -5   8   1   59.07    5.08
  -4  -8   1   36.22    3.34
  -4  -8   1   33.01    3.19
  -4  -8   1   36.57    2.23
   4  -8  -1   35.38    1.96
  -4   8   1   33.17    3.44
  -4   8   1   34.00    4.22
   4   8  -1   36.46    3.52
  -3  -8   1   14.18    2.63
   3  -8  -1   12.10    1.63
   3  -8  -1   13.12    1.66
  -3  -8   1   10.81    2.10
  -3  -8   1   15.48    1.68
   3   8  -1   13.94    2.45
  -3   8   1   10.78    2.77
   3   8  -1   11.45    2.40
  -3   8   1   18.13    2.96
   2  -8  -1   23.21    2.03
  -2  -8   1   20.74    1.84
  -2  -8   1   24.99    2.91
  -2  -8   1   22.54    2.40
   2  -8  -1   22.13    1.94
   2   8  -1   21.82    3.20
  -2   8   1   20.88    2.95
   2   8  -1   20.93    2.90
  -1  -8   1   60.98    3.36
   1  -8  -1   64.24    3.38
  -1  -8   1   61.82    3.89
   1  -8  -1   63.08    3.36
   1  -8  -1   65.76    3.45
  -1  -8   1   66.09    3.69
   1   8  -1   57.20    4.91
  -1   8   1   65.68    4.57
   1   8  -1   65.02    4.59
  -1   8   1   62.11    4.68
   0  -8   1   93.45    4.77
   0  -8  -1   88.93    4.44
   0  -8   1   82.68    4.31
   0  -8   1   87.99    4.31
   0  -8  -1   92.96    4.38
   0  -8  -1   87.77    4.11
   0   8   1   93.93    5.31
   0   8  -1   97.43    5.51
   0   8   1   92.14    5.12
  -1  -8  -1   38.65    3.01
  -1  -8  -1   43.69    2.80
  -1  -8  -1   41.10    2.42
   1  -8   1   41.88    2.88
   1   8   1   52.80    3.76
   1   8   1   43.11    3.73
   2  -8   1   12.02    1.65
   2  -8   1   13.59    1.97
  -2  -8  -1   11.16    2.15
  -2  -8  -1   10.60    1.95
  -2   8  -1   15.63    2.82
   2   8   1   15.07    2.46
   2   8   1    8.98    2.11
  -2   8  -1   13.35    3.32
   3  -8   1   10.27    1.86
  -3  -8  -1    5.24    1.80
   3  -8   1    7.20    1.26
  -3  -8  -1    6.05    0.94
  -3   8  -1   11.25    2.86
   3   8   1    6.95    1.80
  -3   8  -1    4.61    2.37
   3   8   1    8.16    2.70
  -4  -8  -1   10.41    1.02
  -4  -8  -1   11.22    2.18
  -4  -8  -1    9.90    2.17
   4  -8   1    9.58    1.29
  -4   8  -1   12.49    2.91
   4   8   1    9.19    1.89
  -4   8  -1   11.93    3.27
  -5  -8  -1   10.15    2.34
   5  -8   1    7.11    0.99
  -5  -8  -1   10.41    2.34
  -5  -8  -1    6.87    0.84
  -5   8  -1   10.37    3.12
  -5   8  -1    4.45    2.80
  -6  -8  -1    2.57    1.84
  -6  -8  -1    7.21    2.28
  -6   8  -1    6.45    3.19
  -6   8  -1    2.90    2.52
  -7  -8  -1   10.04    2.51
  -7  -8  -1    7.50    2.46
  -7   8  -1    5.73    2.87
  -7   8  -1    8.66    3.94
  -8  -8  -1   19.93    3.40
  -8  -8  -1   19.19    3.18
  -8   8  -1    9.82    3.97
  -8   8  -1   28.20    4.39
  -9  -8  -1   19.48    3.98
  -9  -8  -1   15.96    3.34
  -9   8  -1   24.16    6.26
  -9   8  -1   21.60    5.15
 -10  -8  -1    4.80    2.78
 -10  -8  -1    5.45    3.45
 -10   8  -1    4.27    3.11
 -10   8  -1    4.98    4.63
 -11  -8  -1   -1.33    2.32
 -11  -8  -1    1.85    2.68
 -11   8  -1   -0.64    3.06
 -11   8  -1   -2.04    5.28
 -12  -8  -1    2.54    2.89
 -12  -8  -1   -2.73    2.77
 -12   8  -1    3.37    3.59
 -12   8  -1   -1.59    5.01
 -11  -9   1    5.81    3.26
 -11  -9   1    1.14    3.14
 -11   9   1    0.27    3.06
 -11   9   1    1.68    3.70
 -10  -9   1   -5.23    2.13
 -10  -9   1    2.22    2.56
 -10   9   1   -1.65    2.79
 -10   9   1   -2.29    4.37
  -9  -9   1   -2.53    2.22
  -9  -9   1    7.57    3.03
  -9   9   1    1.28    2.75
  -9   9   1   -3.26    3.16
  -8  -9   1    1.14    2.42
  -8  -9   1    2.55    2.34
  -8   9   1   -1.05    2.84
  -8   9   1    0.72    2.78
  -7  -9   1   -0.63    2.16
  -7  -9   1    3.95    2.29
  -7   9   1    0.69    2.90
  -7   9   1    2.10    2.77
  -6  -9   1   -0.63    2.01
  -6  -9   1   -0.84    1.78
  -6  -9   1   -0.42    0.81
  -6   9   1   -1.25    2.26
  -6   9   1   -2.12    2.40
   5  -9  -1   -0.31    1.03
  -5  -9   1    2.23    2.02
  -5  -9   1    1.07    1.72
  -5  -9   1    0.25    0.86
   5   9  -1    1.92    1.88
  -5   9   1    1.80    2.45
  -5   9   1    0.06    2.15
   4  -9  -1    2.39    1.02
  -4  -9   1    1.52    1.74
  -4  -9   1    0.86    0.90
   4  -9  -1   -0.74    1.02
  -4  -9   1    2.65    1.69
   4   9  -1   -1.94    1.63
  -4   9   1   -1.45    2.08
  -4   9   1   -4.16    1.87
  -3  -9   1   -0.33    0.90
  -3  -9   1   -1.99    1.27
  -3  -9   1   -0.93    1.47
   3  -9  -1    3.00    1.19
   3  -9  -1    0.26    1.01
   3   9  -1   -1.42    1.59
  -3   9   1   -0.13    2.12
  -3   9   1    0.71    1.73
  -2  -9   1    0.21    1.10
   2  -9  -1    0.16    1.10
   2  -9  -1    0.35    1.12
   2  -9  -1    1.30    1.11
  -2  -9   1    0.19    1.62
  -2  -9   1    2.50    1.71
   2   9  -1    0.23    1.56
  -2   9   1   -0.32    1.67
  -2   9   1   -1.61    1.85
   2   9  -1    3.35    2.15
   1  -9  -1    1.88    1.20
  -1  -9   1   -0.68    1.09
   1  -9  -1    0.96    1.17
   1  -9  -1    2.27    1.19
  -1   9   1   -0.22    2.06
  -1   9   1   -0.73    1.59
   1   9  -1    1.34    1.77
   1   9  -1   -0.85    1.99
   0  -9   1   -1.44    1.26
   0  -9  -1    1.00    0.98
   0  -9  -1   -0.63    1.24
   0  -9   1   -1.18    1.09
   0  -9   1    0.51    1.39
   0  -9  -1    0.66    1.29
   0   9  -1   -0.84    1.78
   0   9  -1   -3.77    1.53
   0   9   1   -2.11    1.79
   0   9   1    1.78    1.89
   1  -9   1    0.24    1.17
  -1  -9  -1    1.07    1.27
   1  -9   1   -0.24    1.27
  -1  -9  -1   -0.40    1.42
  -1  -9  -1    1.02    0.92
   1  -9   1   -1.61    1.10
  -1   9  -1    0.44    1.94
   1   9   1    0.99    1.84
   1   9   1    0.75    2.26
  -1   9  -1   -1.68    1.82
   2  -9   1    5.58    1.61
  -2  -9  -1    9.02    2.02
  -2  -9  -1    5.47    1.71
  -2  -9  -1    5.33    1.11
   2  -9   1    3.99    1.67
   2  -9   1    2.07    1.27
   2   9   1    2.43    1.94
  -2   9  -1    4.44    2.52
   2   9   1    5.30    2.12
  -2   9  -1    7.17    2.84
  -3  -9  -1    8.38    2.15
   3  -9   1   10.77    2.03
   3  -9   1    8.65    1.49
  -3  -9  -1   10.17    2.28
  -3   9  -1   11.20    3.11
   3   9   1   11.01    2.47
  -3   9  -1    8.52    2.80
   3   9   1    9.68    2.13
  -4  -9  -1    1.57    1.88
   4  -9   1    3.04    1.56
  -4  -9  -1   -0.05    1.42
  -4   9  -1    4.57    2.61
  -4   9  -1    6.41    2.87
  -5  -9  -1    5.51    2.02
  -5  -9  -1    2.79    2.24
  -5   9  -1    4.82    2.88
  -5   9  -1    4.83    3.37
  -6  -9  -1    8.08    2.50
  -6  -9  -1    3.51    2.36
  -6   9  -1   10.83    3.51
  -6   9  -1    5.14    2.77
  -7  -9  -1    3.33    2.21
  -7  -9  -1    0.72    2.15
  -7   9  -1    6.53    3.86
  -8  -9  -1    0.69    2.06
  -8  -9  -1   -2.48    2.18
  -8   9  -1   -2.03    2.73
  -8   9  -1    4.63    4.05
  -9  -9  -1    2.86    2.82
  -9  -9  -1   -0.67    2.32
  -9   9  -1    1.76    3.06
  -9   9  -1    7.14    8.22
 -10  -9  -1   -0.26    2.16
 -10  -9  -1   -1.73    2.34
 -10   9  -1    2.70    4.60
 -10   9  -1   -4.54    2.68
 -11  -9  -1   -4.96    2.67
 -11  -9  -1   -2.16    2.61
 -11   9  -1    2.88    5.07
 -11   9  -1   -0.66    3.32
  -9 -10   1    1.14    2.70
  -9 -10   1    2.64    2.93
  -9  10   1    3.91    3.39
  -9  10   1    4.70    3.37
  -8 -10   1    6.58    2.93
  -8 -10   1    7.29    2.95
  -8  10   1    6.92    3.58
  -7 -10   1    8.04    3.00
  -7 -10   1   10.37    3.17
  -7  10   1    5.09    3.43
  -7  10   1   11.41    3.57
  -6 -10   1    5.34    2.39
  -6 -10   1    4.78    2.70
  -6  10   1    1.01    3.02
  -6  10   1    3.11    2.64
  -5 -10   1    3.23    2.42
  -5 -10   1    4.65    2.45
  -5  10   1    3.33    2.79
  -5  10   1    2.96    3.13
   4 -10  -1    5.79    1.93
  -4 -10   1    2.24    1.97
  -4 -10   1    2.49    1.26
  -4 -10   1    6.49    2.39
  -4  10   1    9.12    3.45
  -4  10   1    4.09    2.73
   4  10  -1    4.27    2.48
  -3 -10   1   17.52    2.87
  -3 -10   1   15.44    1.98
   3 -10  -1   14.98    2.04
   3 -10  -1   17.22    2.39
  -3 -10   1   20.95    3.13
   3  10  -1   15.30    3.29
  -3  10   1   16.55    3.52
  -3  10   1   18.90    3.22
   2 -10  -1   13.42    2.05
  -2 -10   1   19.51    3.00
  -2 -10   1   14.11    1.94
   2 -10  -1   16.18    2.13
  -2 -10   1   14.34    2.66
   2 -10  -1   10.74    1.92
  -2  10   1   18.23    3.09
   2  10  -1   15.00    3.22
   2  10  -1   10.24    2.74
  -2  10   1    9.27    3.05
   1 -10  -1    4.74    1.63
   1 -10  -1    5.89    1.63
  -1 -10   1    8.73    2.21
   1 -10  -1    7.84    1.82
  -1 -10   1    2.14    1.85
  -1  10   1    2.89    2.02
   1  10  -1   -0.82    2.13
  -1  10   1    6.17    2.86
   1  10  -1    6.83    2.64
   0 -10  -1    1.18    1.31
   0 -10   1    4.12    1.89
   0 -10   1    3.42    1.50
   0 -10  -1    3.64    1.69
   0 -10  -1    3.26    1.79
   0 -10   1    1.27    1.66
   0  10   1    2.53    2.60
   0  10  -1    0.43    2.50
   0  10   1    1.94    2.04
   0  10  -1    0.86    2.25
   1 -10   1    4.41    1.98
   1 -10   1   11.52    2.33
  -1 -10  -1    7.51    1.49
  -1 -10  -1   10.89    2.07
   1 -10   1   10.52    2.16
  -1 -10  -1   12.79    2.39
   1  10   1    8.66    2.76
   1  10   1    3.17    2.18
  -1  10  -1   11.52    3.07
  -1  10  -1   14.28    3.03
   2 -10   1   18.02    2.54
  -2 -10  -1   28.13    3.18
   2 -10   1   25.23    2.92
   2 -10   1   15.62    2.31
  -2 -10  -1   21.05    3.05
  -2 -10  -1   13.56    2.47
   2  10   1   27.37    3.54
  -2  10  -1   26.00    3.95
   2  10   1   21.74    3.24
  -2  10  -1   18.20    3.61
   3 -10   1   22.88    2.97
  -3 -10  -1   22.35    3.11
   3 -10   1   18.75    2.30
   3 -10   1   15.66    2.61
  -3 -10  -1   23.83    3.38
   3  10   1   20.86    3.36
  -3  10  -1   19.36    4.03
  -3  10  -1   13.94    3.50
   3  10   1   11.81    2.79
   4 -10   1   14.26    2.64
  -4 -10  -1   12.10    2.52
  -4 -10  -1    9.52    2.77
  -4  10  -1    9.45    3.13
  -5 -10  -1    9.99    2.74
  -5 -10  -1    9.21    2.71
   5 -10   1   13.09    2.42
  -5  10  -1    6.06    3.42
  -5  10  -1   11.29    3.46
  -6 -10  -1   13.23    3.05
  -6 -10  -1   17.53    3.38
  -6  10  -1   10.26    3.63
  -6  10  -1   10.11    5.99
  -7 -10  -1    4.10    2.67
  -7 -10  -1    5.46    3.08
  -7  10  -1    9.64    4.31
  -7  10  -1    1.27    3.12
  -8 -10  -1   -0.18    2.36
  -8 -10  -1    3.04    2.53
  -8  10  -1    0.21    2.97
  -8  10  -1    3.60    4.14
  -9 -10  -1   -3.17    2.90
  -9 -10  -1   -0.53    2.70
  -9  10  -1   -2.04    2.76
  -9  10  -1   -3.58    4.07
  -7  11   1    2.85    3.07
  -7  11   1   -1.55    2.73
  -6 -11   1   -0.77    2.28
  -6 -11   1   -1.90    2.37
   6 -11  -1   -2.78    1.64
  -6  11   1   -2.27    2.76
  -6  11   1    0.04    2.86
  -5 -11   1    1.11    2.36
  -5 -11   1    0.24    2.03
  -5  11   1    0.13    2.34
  -5  11   1   -1.94    2.76
  -4 -11   1    1.01    2.03
   4 -11  -1    0.60    1.63
  -4  11   1    3.77    3.16
   4  11  -1    1.66    2.28
  -3 -11   1   -0.50    1.97
  -3 -11   1    0.22    2.15
   3 -11  -1   -2.65    1.36
  -3  11   1    1.11    2.55
   3  11  -1    0.57    2.07
  -3  11   1   -4.19    2.26
  -2 -11   1    1.06    2.06
  -2 -11   1   -1.40    1.41
   2 -11  -1   -2.03    1.40
  -2 -11   1    0.33    1.86
   2  11  -1   -1.03    2.24
  -2  11   1   -2.14    2.00
   2  11  -1   -6.59    2.15
  -2  11   1    2.34    2.66
  -1 -11   1    1.55    1.83
   1 -11  -1    2.22    1.45
  -1 -11   1    1.24    1.70
  -1 -11   1    0.10    1.33
   1 -11  -1   -2.36    1.43
   1 -11  -1    0.44    1.61
   1  11  -1   -2.27    2.27
  -1  11   1   -0.58    2.09
   1  11  -1    0.38    2.38
   0 -11   1   -1.64    1.62
   0 -11   1    2.00    1.85
   0 -11  -1   -2.34    1.51
   0 -11  -1   -1.38    1.53
   0 -11   1   -1.18    1.29
   0  11  -1    1.58    2.40
   0  11   1    1.39    2.31
   0  11   1    2.18    2.68
  -1 -11  -1   -1.30    1.56
   1 -11   1    1.01    1.33
   1 -11   1    0.66    1.70
   1 -11   1    1.24    1.71
  -1 -11  -1   -2.03    1.41
   1  11   1   -1.26    2.33
  -1  11  -1    2.23    2.42
  -1  11  -1   -1.51    2.21
   2 -11   1   -0.87    1.63
   2 -11   1   -2.06    1.34
  -2 -11  -1   -2.43    1.87
  -2 -11  -1    0.03    1.72
   2  11   1    0.73    2.16
  -2  11  -1   -5.80    2.02
   2  11   1   -0.94    1.96
  -2  11  -1    1.55    2.65
  -3 -11  -1    4.13    3.38
   3 -11   1    0.98    1.69
   3 -11   1    3.82    1.84
  -3 -11  -1   -1.15    1.80
  -3  11  -1   -3.25    2.17
  -3  11  -1    0.56    2.65
  -4 -11  -1   -0.84    2.18
  -4 -11  -1   -2.88    1.85
  -4  11  -1    2.23    2.78
  -4  11  -1   -1.88    2.54
  -5 -11  -1    0.47    2.35
   5 -11   1    0.07    1.87
  -5 -11  -1   -1.21    2.38
  -5  11  -1   -3.77    2.66
  -5  11  -1   -3.93    2.90
  -6 -11  -1    2.28    2.41
  -6 -11  -1    0.78    2.77
   6 -11   1    0.37    2.08
  -6  11  -1   -1.88    3.22
  -6  11  -1   -1.24    2.95
 -17   0   2    2.21    3.70
 -16   0   2    0.17    2.61
 -16   0   2    0.74    2.68
 -16   0   2   -0.49    2.06
 -15   0   2    3.69    2.08
 -15   0   2    7.19    2.40
 -15   0   2   -0.41    2.70
 -14   0   2    0.63    2.05
 -14   0   2    3.79    1.94
 -14   0   2    5.69    3.23
 -14   0   2   -0.22    1.71
 -13   0   2    5.98    2.47
 -13   0   2    0.85    1.85
 -13   0   2    2.84    1.60
 -13   0   2   -1.26    1.71
 -12   0   2    3.43    2.06
 -12   0   2    5.85    1.86
 -12   0   2    5.59    1.58
 -11   0   2   11.26    2.11
 -11   0   2   14.09    2.28
 -11   0   2   12.91    2.45
 -11   0   2   18.16    1.93
 -10   0   2   18.66    2.24
 -10   0   2   20.95    1.85
 -10   0   2   25.44    2.54
 -10   0   2   22.58    2.39
  -9   0   2    0.99    2.63
  -9   0   2    0.47    0.83
  -9   0   2    1.83    1.25
  -9   0   2    0.33    1.15
  -8   0   2    1.23    1.28
  -8   0   2    0.99    1.00
  -8   0   2    2.40    1.16
  -8   0   2    1.34    0.83
  -7   0   2   90.08    4.04
  -7   0   2   88.84    3.87
  -6   0   2  537.61   17.75
  -6   0   2  521.00   17.79
  -6   0   2  521.04   17.88
  -5   0   2  921.82   30.02
  -5   0   2  898.87   29.89
  -4   0   2  300.43   10.41
  -4   0   2  311.00   10.34
  -3   0   2   18.32    1.08
  -3   0   2   17.19    1.16
  -2   0   2   21.71    1.16
  -2   0   2   22.12    1.01
  -2   0   2   24.83    1.11
   2   0  -2   23.82    1.19
   1   0  -2  182.79    6.20
  -1   0   2  177.14    5.98
  -1   0   2  186.77    6.05
  -1   0   2  178.12    6.19
   1   0  -2  181.25    6.04
   1   0  -2  177.05    5.98
   0   0   2  144.72    4.78
   0   0  -2  147.97    5.00
   0   0   2  139.41    4.98
   0   0  -2  135.98    4.77
   0   0   2  137.56    4.95
   0   0  -2  144.66    4.86
   0   0  -2  146.43    5.03
   1   0   2   30.85    1.27
   1   0   2   34.13    1.52
   1   0   2   36.52    1.61
   1   0   2   30.89    1.36
  -2   0  -2   56.72    2.56
  -2   0  -2   64.51    2.52
  -2   0  -2   59.87    2.29
   2   0   2   55.69    2.24
  -3   0  -2  289.06    9.91
  -3   0  -2  300.43   10.11
  -3   0  -2  302.49   10.31
   3   0   2  289.76    9.92
  -4   0  -2  369.69   12.72
  -4   0  -2  368.72   12.46
  -4   0  -2  376.30   12.48
   4   0   2  350.71   12.41
  -5   0  -2   62.21    3.19
  -5   0  -2   62.45    2.66
  -5   0  -2   65.18    2.85
  -6   0  -2   16.22    1.36
  -6   0  -2   19.92    1.54
  -7   0  -2   53.32    2.78
  -7   0  -2   60.89    2.94
  -7   0  -2   58.39    3.43
  -8   0  -2  176.10    6.85
  -8   0  -2  172.38    6.57
  -8   0  -2  171.80    7.37
  -9   0  -2  124.71    5.39
  -9   0  -2  125.62    5.17
 -10   0  -2   11.50    2.57
 -10   0  -2   20.56    2.46
 -10   0  -2   17.62    1.85
 -11   0  -2   -3.25    1.56
 -11   0  -2    1.88    1.21
 -12   0  -2    3.09    2.06
 -12   0  -2   -1.05    2.56
 -13   0  -2    3.88    1.54
 -13   0  -2    0.32    3.10
 -13   0  -2   -0.26    2.29
 -14   0  -2    1.80    3.34
 -14   0  -2    4.68    2.88
 -14   0  -2    3.24    2.44
 -15   0  -2   -2.11    2.64
 -16   0  -2   -2.78    3.26
 -16   0  -2    0.63    4.33
 -17   0  -2   -0.23    4.54
 -17  -1   2    3.79    2.74
 -17  -1   2   -1.38    3.16
 -17   1   2   -4.56    4.32
 -17   1   2    0.44    2.58
 -16  -1   2    1.07    4.95
 -16  -1   2    0.03    2.10
 -16   1   2    0.00    2.47
 -16   1   2    0.78    3.10
 -15  -1   2   -0.93    1.88
 -15  -1   2   -2.12    2.73
 -15  -1   2    3.39    2.00
 -15  -1   2   -0.04    1.88
 -15   1   2    3.34    2.46
 -15   1   2    2.49    2.90
 -15   1   2   -1.77    1.90
 -14  -1   2    0.06    1.81
 -14  -1   2   -0.66    2.33
 -14  -1   2    1.15    1.79
 -14   1   2    2.81    2.25
 -14   1   2    0.93    2.48
 -14   1   2    0.13    1.67
 -13  -1   2    0.18    1.58
 -13  -1   2    1.91    2.14
 -13  -1   2    1.13    1.50
 -13  -1   2   -2.03    1.39
 -13   1   2    2.41    1.49
 -13   1   2    7.23    4.78
 -13   1   2    0.59    2.21
 -13   1   2   -0.83    1.82
 -12  -1   2    1.45    1.44
 -12  -1   2    3.29    1.74
 -12  -1   2   -0.09    3.28
 -12  -1   2    3.19    1.71
 -12   1   2    1.99    1.92
 -12   1   2    4.14    1.87
 -12   1   2    3.13    1.40
 -12   1   2    1.61    2.35
 -11  -1   2    9.28    1.66
 -11  -1   2   12.09    2.21
 -11  -1   2    9.15    1.82
 -11  -1   2   13.25    2.05
 -11   1   2    8.46    1.95
 -11   1   2   10.27    2.24
 -11   1   2   12.23    1.58
 -11   1   2   15.22    2.58
 -10  -1   2    1.72    1.21
 -10  -1   2   -0.26    1.34
 -10  -1   2    0.67    2.02
 -10  -1   2   -1.31    1.45
 -10   1   2    0.01    1.37
 -10   1   2    0.55    1.50
 -10   1   2    1.38    1.18
 -10   1   2    0.82    0.92
  -9  -1   2   20.19    1.99
  -9  -1   2   16.69    1.93
  -9  -1   2   17.32    1.70
  -9  -1   2   18.94    2.03
  -9   1   2   19.10    2.22
  -9   1   2   20.48    2.46
  -9   1   2   19.44    1.49
  -9   1   2   20.65    2.12
  -8  -1   2   38.71    2.48
  -8  -1   2   38.18    2.49
  -8  -1   2   40.81    2.51
  -8   1   2   38.35    1.93
  -8   1   2   37.37    3.06
  -8   1   2   38.83    2.43
  -8   1   2   39.20    2.59
  -7  -1   2   12.04    1.38
  -7  -1   2   11.83    1.71
  -7   1   2   12.05    1.59
  -7   1   2   10.80    1.61
  -7   1   2   11.72    0.98
  -7   1   2   13.70    1.59
  -6  -1   2   17.55    1.37
  -6  -1   2   21.01    1.49
  -6   1   2   16.78    1.81
  -6   1   2   19.61    1.43
  -6   1   2   18.89    1.43
  -5  -1   2   10.65    1.00
  -5  -1   2    9.92    1.01
  -5   1   2   11.04    0.95
  -5   1   2   10.02    1.28
  -5   1   2    8.93    0.91
  -5   1   2   12.34    1.19
  -4  -1   2    8.78    0.91
   4  -1  -2    7.28    0.60
  -4  -1   2    9.68    0.87
  -4   1   2    9.67    1.07
  -4   1   2    8.19    1.14
  -4   1   2    8.50    0.78
   3  -1  -2  304.92    9.94
  -3  -1   2  289.06   10.16
   3  -1  -2  289.46    9.85
  -3  -1   2  300.39   10.07
  -3   1   2  287.40    9.96
  -3   1   2  314.61   10.21
  -3   1   2  301.90    9.88
  -3   1   2  313.02   10.43
   2  -1  -2  810.28   26.60
  -2  -1   2  811.49   26.65
  -2   1   2  819.14   26.41
   2   1  -2  804.67   26.77
  -2   1   2  830.56   26.70
  -2   1   2  855.34   26.94
  -2   1   2  797.01   26.62
  -1  -1   2    1.85    0.34
  -1  -1   2    0.74    0.41
   1  -1  -2    1.37    0.27
   1  -1  -2    0.59    0.33
   1  -1  -2    0.77    0.59
   1  -1  -2    0.73    0.23
  -1   1   2    0.65    0.41
  -1   1   2    0.67    0.16
   1   1  -2    0.90    0.49
  -1   1   2    0.67    0.31
   1   1  -2    0.04    0.53
   0  -1  -2   70.00    2.47
   0  -1   2   64.47    2.66
   0  -1   2   70.11    2.51
   0  -1  -2   71.00    2.71
   0  -1   2   61.30    2.65
   0  -1  -2   67.98    2.35
   0   1   2   68.30    2.32
   0   1   2   67.80    2.44
   0   1  -2   66.19    2.68
   0   1   2   66.64    2.54
   1  -1   2  298.68   10.68
  -1  -1  -2  334.20   10.69
  -1   1  -2  315.80   10.75
  -1   1  -2  310.62   10.88
   1   1   2  313.84   10.29
   1   1   2  325.79   10.63
  -1   1  -2  321.85   10.89
  -2  -1  -2    0.45    0.50
  -2  -1  -2    0.45    0.64
  -2   1  -2    1.09    1.31
  -2   1  -2    0.91    1.03
  -2   1  -2    0.66    1.33
  -2   1  -2    1.05    0.61
  -3  -1  -2   43.95    2.13
  -3  -1  -2   46.02    2.09
   3   1   2   44.20    1.70
  -3   1  -2   40.95    2.21
  -3   1  -2   43.43    2.13
   3   1   2   39.60    1.49
  -3   1  -2   38.71    2.57
  -4  -1  -2    6.73    1.03
  -4  -1  -2    7.28    1.21
  -4   1  -2    7.25    1.07
  -4   1  -2    6.92    1.22
  -4   1  -2    7.22    1.60
  -5  -1  -2   73.39    3.28
  -5  -1  -2   65.64    3.00
  -5  -1  -2   66.24    2.47
  -5   1  -2   66.88    3.09
  -5   1  -2   67.28    3.53
  -5   1  -2   65.66    3.07
  -6  -1  -2   23.86    1.27
  -6  -1  -2   24.98    2.08
  -6  -1  -2   25.98    1.78
  -6   1  -2   25.05    1.88
  -6   1  -2   21.34    2.35
  -6   1  -2   26.62    1.97
  -7  -1  -2   -0.03    1.25
  -7  -1  -2    0.95    0.99
  -7   1  -2    3.21    1.91
  -7   1  -2    2.19    1.33
  -7   1  -2    2.04    1.17
  -8  -1  -2    4.01    0.88
  -8  -1  -2    4.64    1.38
  -8  -1  -2    5.40    1.87
  -8   1  -2    7.00    1.72
  -8   1  -2    2.93    1.39
  -8   1  -2    4.21    2.17
  -9  -1  -2   -0.35    1.84
  -9  -1  -2    0.32    0.82
  -9  -1  -2    1.47    1.57
  -9   1  -2    3.09    2.34
  -9   1  -2   -0.17    1.38
  -9   1  -2    2.11    1.81
 -10  -1  -2   -1.76    1.36
 -10  -1  -2   -1.38    1.84
 -10  -1  -2    1.34    0.93
 -10   1  -2    2.52    2.47
 -10   1  -2   -0.37    1.39
 -10   1  -2    2.30    1.71
 -11  -1  -2    7.81    2.08
 -11  -1  -2    7.67    2.55
 -11  -1  -2    4.85    1.14
 -11   1  -2    6.84    2.22
 -11   1  -2    4.61    1.66
 -11   1  -2    5.15    3.66
 -12  -1  -2    4.04    1.13
 -12  -1  -2    3.78    2.76
 -12  -1  -2    4.62    2.26
 -12   1  -2    6.56    1.89
 -12   1  -2    3.75    2.34
 -12   1  -2    3.36    3.22
 -13  -1  -2    1.06    2.26
 -13  -1  -2   -2.11    2.48
 -13   1  -2   -0.23    2.35
 -13   1  -2    2.70    1.83
 -13   1  -2    2.60    3.34
 -14  -1  -2    2.02    3.09
 -14  -1  -2   -0.01    2.55
 -14   1  -2   -1.93    1.89
 -14   1  -2   -3.94    3.83
 -14   1  -2    4.83    2.92
 -15  -1  -2    5.25    3.63
 -15  -1  -2    0.08    2.71
 -15   1  -2   -2.70    3.58
 -15   1  -2   -1.89    3.03
 -16  -1  -2    2.85    3.17
 -16  -1  -2   -3.11    4.10
 -16   1  -2    0.62    4.09
 -17  -2   2    2.62    3.17
 -17  -2   2    7.39    4.90
 -17   2   2   -2.14    6.82
 -17   2   2   -5.08    2.91
 -16  -2   2   -2.24    2.27
 -16  -2   2   -2.25    2.93
 -16   2   2    7.17    3.96
 -16   2   2   -0.85    2.54
 -15  -2   2   -0.38    1.90
 -15  -2   2    0.87    2.70
 -15  -2   2   -2.20    1.97
 -15   2   2    2.51    2.86
 -15   2   2    0.49    3.56
 -14  -2   2    0.13    1.69
 -14  -2   2   -0.30    2.35
 -14  -2   2    2.24    1.83
 -14  -2   2   -2.00    1.46
 -14   2   2    3.69    3.37
 -14   2   2    0.67    2.42
 -13  -2   2    5.20    1.86
 -13  -2   2    8.54    2.31
 -13  -2   2    3.48    1.60
 -13  -2   2    5.39    2.58
 -13   2   2    0.97    2.86
 -13   2   2    4.95    1.60
 -12  -2   2    9.26    1.85
 -12  -2   2   13.50    2.43
 -12  -2   2   16.38    2.93
 -12  -2   2    6.32    1.97
 -12   2   2    5.29    2.80
 -12   2   2    5.19    2.58
 -12   2   2    9.26    1.54
 -11  -2   2    8.83    1.99
 -11  -2   2    9.24    1.91
 -11  -2   2   11.55    2.26
 -11  -2   2    7.75    2.33
 -11   2   2    8.43    2.42
 -11   2   2    7.81    1.29
 -11   2   2   12.46    2.46
 -10  -2   2   22.95    2.23
 -10  -2   2   17.95    2.00
 -10  -2   2   17.64    2.25
 -10  -2   2   12.80    2.22
 -10   2   2   17.35    2.66
 -10   2   2   19.70    2.88
 -10   2   2   16.18    1.44
 -10   2   2   18.20    2.43
  -9  -2   2  101.71    4.41
  -9  -2   2   93.94    4.67
  -9  -2   2   95.76    4.45
  -9   2   2   94.14    3.69
  -9   2   2   97.39    5.17
  -9   2   2   93.95    4.71
  -8  -2   2  167.41    6.81
  -8  -2   2  178.29    6.57
  -8   2   2  164.10    7.04
  -8   2   2  172.68    6.84
  -8   2   2  165.18    6.80
  -8   2   2  159.13    5.82
  -7  -2   2   65.42    3.26
  -7  -2   2   68.96    3.09
  -7   2   2   58.96    2.52
  -7   2   2   62.88    2.47
  -7   2   2   66.28    3.24
  -7   2   2   60.93    3.56
  -7   2   2   66.30    3.31
  -6  -2   2   11.05    1.58
  -6  -2   2    9.61    1.13
  -6   2   2    8.44    0.58
  -6   2   2    8.81    1.38
  -6   2   2    9.30    1.53
  -6   2   2    9.52    0.79
  -5  -2   2   43.54    1.95
  -5  -2   2   39.41    2.15
  -5   2   2   40.66    2.46
  -5   2   2   36.99    1.61
  -5   2   2   43.79    2.12
  -5   2   2   39.80    2.20
  -5   2   2   37.38    1.41
  -4  -2   2   35.49    1.72
  -4  -2   2   36.95    1.93
   4  -2  -2   36.44    1.49
  -4   2   2   38.84    1.82
  -4   2   2   35.76    2.20
  -4   2   2   40.12    1.36
  -4   2   2   35.19    1.96
   3  -2  -2  361.40   11.60
  -3  -2   2  353.14   12.15
  -3  -2   2  359.33   11.91
   3  -2  -2  347.03   11.64
  -3   2   2  347.59   11.67
  -3   2   2  350.24   11.60
  -3   2   2  355.30   12.38
  -3   2   2  359.43   12.09
  -3   2   2  360.43   12.11
   3   2  -2  367.93   12.29
   2  -2  -2  561.08   17.79
  -2  -2   2  535.70   17.89
   2  -2  -2  545.56   17.94
   2   2  -2  540.11   18.20
  -2   2   2  532.92   18.27
  -2   2   2  532.08   17.71
  -2   2   2  548.24   17.91
  -2   2   2  551.94   17.98
   1  -2  -2  367.95   12.43
   1  -2  -2  382.78   12.27
  -1  -2   2  382.38   12.56
   1  -2  -2  367.63   12.49
   1  -2  -2  391.76   12.50
  -1   2   2  381.04   12.64
  -1   2   2  376.65   12.47
  -1   2   2  359.74   12.44
  -1   2   2  381.06   12.81
   1   2  -2  376.80   12.85
   1   2  -2  380.49   12.82
   0  -2  -2  386.22   13.38
   0  -2  -2  401.97   13.29
   0  -2   2  411.49   13.47
   0  -2  -2  397.56   13.18
   0  -2  -2  405.95   13.45
   0   2  -2  415.44   13.79
   0   2  -2  409.11   13.79
   0   2   2  394.47   13.28
   0   2   2  413.07   13.38
   0   2  -2  419.59   13.65
   0   2   2  394.72   13.55
  -1  -2  -2  635.63   20.95
  -1  -2  -2  626.89   20.83
  -1   2  -2  642.06   21.25
  -1   2  -2  638.04   21.23
   1   2   2  636.24   20.83
  -1   2  -2  628.92   21.28
  -2  -2  -2  279.87    9.71
  -2  -2  -2  280.89    9.65
  -2   2  -2  281.07    9.70
  -2   2  -2  281.48   10.07
   2   2   2  281.30    9.33
  -2   2  -2  289.87   10.19
  -2   2  -2  278.51    9.94
  -3  -2  -2   70.21    2.94
  -3  -2  -2   67.06    2.90
  -3   2  -2   64.87    3.08
  -3   2  -2   70.24    3.50
   3   2   2   66.60    2.48
  -3   2  -2   66.97    3.09
  -3   2  -2   65.09    3.59
  -4  -2  -2   23.22    1.60
  -4  -2  -2   26.17    1.68
  -4   2  -2   22.76    2.43
  -4   2  -2   25.48    2.72
   4   2   2   21.03    1.05
  -4   2  -2   23.77    1.78
  -4   2  -2   24.37    2.21
  -5  -2  -2  119.57    4.86
  -5  -2  -2  127.45    5.01
  -5   2  -2  124.00    5.72
  -5   2  -2  121.55    5.07
  -5   2  -2  113.33    4.99
  -6  -2  -2  176.97    6.98
  -6  -2  -2  187.38    6.89
  -6   2  -2  188.84    7.14
  -6   2  -2  170.11    6.97
  -6   2  -2  161.47    8.02
  -7  -2  -2   40.82    2.80
  -7  -2  -2   39.25    2.52
  -7   2  -2   38.99    3.70
  -7   2  -2   38.84    2.97
  -8  -2  -2   -1.49    1.01
  -8  -2  -2    0.61    1.48
  -8   2  -2    1.06    1.42
  -8   2  -2    0.60    1.88
  -8   2  -2   -0.63    2.43
  -9  -2  -2    0.88    1.73
  -9  -2  -2   -0.74    1.26
  -9   2  -2    1.69    1.59
  -9   2  -2   -0.42    2.70
  -9   2  -2    2.31    2.19
 -10  -2  -2   13.88    2.22
 -10  -2  -2   10.62    2.87
 -10   2  -2    7.23    3.25
 -10   2  -2   12.60    2.17
 -11  -2  -2   24.01    3.43
 -11  -2  -2   40.52    3.20
 -11   2  -2   20.24    4.09
 -11   2  -2   36.33    3.40
 -11   2  -2   34.13    3.65
 -12  -2  -2   17.43    2.80
 -12  -2  -2   14.42    3.30
 -12   2  -2   13.23    2.59
 -12   2  -2   17.45    4.51
 -12   2  -2   14.75    3.16
 -13  -2  -2    2.61    2.27
 -13  -2  -2    6.37    3.04
 -13   2  -2    4.70    3.81
 -13   2  -2    4.31    2.24
 -13   2  -2    2.61    2.85
 -14  -2  -2    2.53    2.83
 -14  -2  -2    3.63    3.05
 -14   2  -2   -3.52    3.19
 -14   2  -2    0.54    4.44
 -14   2  -2    0.08    3.46
 -15  -2  -2    3.57    3.07
 -15  -2  -2   -2.68    3.55
 -15   2  -2    5.55    4.63
 -15   2  -2    2.92    2.41
 -16  -2  -2   -4.76    2.80
 -16  -2  -2   -1.20    3.65
 -16   2  -2   -1.30    4.52
 -17  -3   2    2.94    2.96
 -17  -3   2    2.24    3.48
 -17   3   2    1.05    3.83
 -17   3   2   -2.71    5.39
 -17   3   2    1.42    4.54
 -16  -3   2   -2.51    2.01
 -16  -3   2   -0.53    3.00
 -16   3   2    2.77    3.11
 -16   3   2   -5.65    4.27
 -16   3   2    1.10    4.97
 -15  -3   2    4.02    2.31
 -15  -3   2   -1.67    1.68
 -15   3   2   -3.30    3.87
 -15   3   2    0.58    2.75
 -14  -3   2   -1.62    1.54
 -14  -3   2    1.59    1.96
 -14   3   2   -0.73    3.72
 -14   3   2   -2.38    2.65
 -13  -3   2    0.22    2.06
 -13  -3   2   -0.55    2.03
 -13  -3   2    1.27    1.58
 -13   3   2   -3.58    3.30
 -13   3   2   -1.74    2.47
 -12  -3   2    2.72    1.38
 -12  -3   2   -0.77    1.42
 -12  -3   2    1.13    1.91
 -12  -3   2    3.78    1.90
 -12   3   2   -1.54    2.02
 -12   3   2    3.11    3.35
 -11  -3   2   12.10    2.02
 -11  -3   2   11.12    2.27
 -11  -3   2    7.26    2.22
 -11  -3   2    7.36    1.46
 -11   3   2    6.03    2.25
 -11   3   2    7.05    3.28
 -10  -3   2   -0.36    1.33
 -10  -3   2    0.02    1.45
 -10  -3   2    3.20    1.32
 -10   3   2   -1.04    2.50
 -10   3   2    0.66    1.76
  -9  -3   2   16.16    1.91
  -9  -3   2   18.57    2.29
  -9  -3   2   14.25    2.17
  -9   3   2   13.75    2.39
  -9   3   2   17.18    3.28
  -8  -3   2   27.87    2.00
  -8  -3   2   26.68    2.31
  -8   3   2   25.25    2.19
  -8   3   2   22.07    2.79
  -8   3   2   21.30    3.15
  -7  -3   2   13.30    1.47
  -7  -3   2   13.27    1.77
  -7   3   2   12.39    2.22
  -7   3   2    8.52    3.64
  -7   3   2   13.74    2.49
  -7   3   2   12.87    1.91
  -6  -3   2    3.81    0.89
  -6  -3   2    5.59    1.28
  -6   3   2    4.64    1.33
  -6   3   2    7.63    2.47
  -6   3   2    2.96    1.46
  -6   3   2    1.83    1.61
  -5  -3   2    4.08    1.17
  -5  -3   2    3.58    0.81
  -5   3   2    5.30    1.28
  -5   3   2    4.24    1.17
  -5   3   2    1.13    1.43
  -4  -3   2    6.69    0.83
  -4  -3   2    7.78    1.16
   4  -3  -2    5.49    0.59
  -4   3   2    6.95    1.15
  -4   3   2    7.96    1.39
   4   3  -2    7.29    1.16
  -4   3   2    6.69    1.43
   3  -3  -2  199.16    6.52
  -3  -3   2  193.68    7.13
  -3  -3   2  195.49    6.78
   3   3  -2  191.57    7.25
  -3   3   2  188.10    7.44
  -3   3   2  194.90    7.07
  -2  -3   2  265.47    9.02
   2  -3  -2  257.47    8.87
   2  -3  -2  283.90    9.00
  -2   3   2  260.11    9.54
  -2   3   2  262.78    9.16
   2   3  -2  253.24    9.44
   1  -3  -2   14.46    0.79
   1  -3  -2   14.17    0.96
  -1  -3   2   14.06    1.02
  -1   3   2   15.50    1.15
   1   3  -2   14.11    1.31
   1   3  -2   14.16    1.55
  -1   3   2   15.74    1.43
   0  -3  -2  105.24    3.77
   0  -3   2  106.33    3.97
   0  -3  -2  105.55    3.94
   0  -3  -2  103.10    3.67
   0   3  -2  101.15    4.34
   0   3  -2  105.66    4.42
   0   3   2  104.74    3.99
   0   3   2  104.37    4.16
  -1  -3  -2   90.84    3.55
  -1  -3  -2   87.67    3.40
   1   3   2   89.88    3.55
  -1   3  -2   88.45    3.92
   1   3   2   88.85    3.55
  -1   3  -2   89.02    4.04
  -2  -3  -2   -0.45    0.55
  -2  -3  -2    0.44    0.45
  -2  -3  -2    0.70    0.63
  -2   3  -2    0.94    1.23
  -2   3  -2    0.28    0.80
  -2   3  -2    0.52    0.74
  -3  -3  -2   28.97    1.76
  -3  -3  -2   24.70    1.20
  -3  -3  -2   25.99    1.62
  -3   3  -2   25.38    1.70
  -3   3  -2   23.55    2.32
  -3   3  -2   27.64    2.04
   3   3   2   27.11    1.27
  -3   3  -2   26.90    2.54
  -4  -3  -2    4.89    1.06
  -4   3  -2    2.53    2.00
  -4   3  -2    3.61    1.93
  -4   3  -2    4.67    1.23
  -4   3  -2    3.12    1.24
  -5  -3  -2   51.50    2.80
  -5  -3  -2   57.62    2.86
  -5   3  -2   47.50    3.19
  -5   3  -2   55.03    3.05
   5   3   2   47.41    1.97
  -5   3  -2   58.35    3.83
  -5   3  -2   52.50    4.15
  -6  -3  -2   15.12    1.88
  -6  -3  -2   14.55    1.96
  -6   3  -2   14.85    3.37
  -6   3  -2   15.28    2.33
  -6   3  -2   14.85    2.11
  -6   3  -2   15.79    3.25
  -7  -3  -2    2.47    1.36
  -7  -3  -2    1.35    1.35
  -7   3  -2    2.31    2.31
  -7   3  -2    3.42    1.59
  -7   3  -2    3.54    2.88
  -7   3  -2    1.95    3.37
  -8  -3  -2    1.39    1.60
  -8  -3  -2    2.63    1.47
  -8   3  -2    3.76    3.29
  -8   3  -2    3.48    1.65
  -8   3  -2    2.77    2.67
  -8   3  -2    7.34    3.92
  -9  -3  -2   -0.77    1.60
  -9  -3  -2    0.38    1.39
  -9   3  -2   -1.15    1.47
  -9   3  -2    1.22    2.61
  -9   3  -2   -3.56    3.43
  -9   3  -2    3.05    3.71
 -10  -3  -2   -1.22    1.75
 -10  -3  -2    0.79    1.94
 -10   3  -2    4.07    3.51
 -10   3  -2    0.54    2.01
 -10   3  -2    0.83    3.91
 -10   3  -2   -2.41    2.75
 -11  -3  -2    6.46    2.56
 -11  -3  -2   10.57    2.55
 -11   3  -2    2.07    2.13
 -11   3  -2    2.66    4.40
 -11   3  -2   -3.08    3.56
 -11   3  -2   -0.05    2.88
 -12  -3  -2    0.24    2.40
 -12  -3  -2    5.67    2.24
 -12   3  -2    4.62    4.13
 -12   3  -2    1.53    3.87
 -12   3  -2    2.91    4.55
 -13  -3  -2   -3.61    1.83
 -13  -3  -2    1.11    2.73
 -13   3  -2   -6.29    5.08
 -13   3  -2    1.41    4.75
 -13   3  -2    0.73    2.29
 -14  -3  -2   -0.23    2.41
 -14  -3  -2   -0.83    3.13
 -14   3  -2   -1.74    2.30
 -14   3  -2   18.16    9.41
 -14   3  -2    1.50    4.61
 -15  -3  -2   -4.11    2.99
 -15   3  -2    6.70    5.58
 -15   3  -2   -2.69    5.26
 -15   3  -2    2.83    2.76
 -16  -3  -2   -0.77    3.27
 -16  -3  -2    1.33    3.54
 -16   3  -2   -2.17    2.46
 -16   3  -2    4.73    5.41
 -16   3  -2   -5.54    4.68
 -16  -4   2    1.24    2.14
 -16  -4   2    1.87    2.78
 -16  -4   2   -0.72    3.00
 -16   4   2    3.35    5.40
 -16   4   2    0.42    3.17
 -16   4   2    1.19    5.04
 -15  -4   2   -0.20    2.85
 -15  -4   2    1.47    1.89
 -15   4   2    2.52    5.56
 -15   4   2    2.90    4.70
 -15   4   2    2.15    3.14
 -14  -4   2    0.71    2.57
 -14  -4   2    0.35    1.72
 -14  -4   2    3.32    2.73
 -14   4   2    0.32    2.60
 -14   4   2    9.97    5.78
 -14   4   2    2.18    5.81
 -13  -4   2    0.15    1.96
 -13  -4   2    3.22    2.38
 -13  -4   2    2.73    2.14
 -13   4   2   -5.93    3.91
 -13   4   2   -1.43    5.40
 -13   4   2    5.11    2.88
 -12  -4   2    0.36    1.96
 -12  -4   2    0.65    1.42
 -12  -4   2    3.06    2.13
 -12  -4   2    1.98    1.17
 -12   4   2    1.41    2.49
 -12   4   2   -2.78    5.01
 -12   4   2    1.12    3.88
 -11  -4   2   10.01    2.32
 -11  -4   2   10.15    2.44
 -11  -4   2   11.52    1.97
 -11   4   2    3.58    4.33
 -11   4   2    5.93    2.62
 -11   4   2    2.45    3.67
 -10  -4   2   15.27    1.94
 -10  -4   2   11.86    2.36
 -10   4   2   16.94    3.04
 -10   4   2    9.12    3.75
 -10   4   2    3.77    4.06
  -9  -4   2    4.88    1.73
  -9  -4   2    1.12    1.51
  -9  -4   2    2.72    1.18
  -9   4   2    5.75    3.59
  -9   4   2    1.38    2.12
  -9   4   2    3.74    3.01
  -8  -4   2    1.19    0.95
  -8  -4   2    1.68    1.27
  -8   4   2    0.25    2.81
  -8   4   2    3.87    2.60
  -8   4   2   -0.21    1.73
  -7  -4   2   41.31    2.65
  -7   4   2   36.30    3.25
  -7   4   2   33.02    3.52
  -7   4   2   42.50    4.04
  -6  -4   2  264.89    9.91
  -6  -4   2  262.89    9.26
  -6   4   2  261.85    9.42
  -6   4   2  262.31   10.30
  -6   4   2  260.14   10.41
  -5  -4   2  453.19   14.68
  -5  -4   2  434.26   15.24
  -5   4   2  424.43   15.34
   5   4  -2  425.77   15.36
  -5   4   2  425.48   15.71
   4  -4  -2  191.44    6.67
  -4  -4   2  202.38    7.15
   4  -4  -2  202.53    6.97
  -4  -4   2  207.31    7.72
   4   4  -2  203.22    7.85
  -4   4   2  201.21    8.15
  -4   4   2  208.23    7.74
  -3  -4   2   32.39    1.69
   3  -4  -2   29.80    1.66
   3   4  -2   33.67    2.28
  -3   4   2   29.21    2.18
   2  -4  -2   26.19    1.38
   2  -4  -2   29.59    1.45
  -2  -4   2   29.50    1.62
   2   4  -2   27.75    1.92
  -2   4   2   28.28    2.38
   2   4  -2   29.26    2.12
  -2   4   2   27.49    1.93
   1  -4  -2   56.20    2.47
  -1  -4   2   57.89    2.58
   1  -4  -2   59.48    2.34
   1   4  -2   58.70    3.03
  -1   4   2   60.19    3.12
   1   4  -2   58.11    3.15
  -1   4   2   54.92    2.78
   0  -4  -2   47.74    2.15
   0  -4  -2   50.05    2.31
   0  -4   2   48.14    2.31
   0   4   2   49.99    2.64
   0   4  -2   51.01    2.94
   0   4   2   49.27    2.49
   0   4  -2   49.68    2.83
  -1  -4  -2   16.74    0.89
  -1  -4  -2   16.68    1.21
  -1  -4  -2   16.50    1.32
  -1   4  -2   16.05    1.75
  -1   4  -2   20.81    2.18
   1   4   2   15.92    1.47
   1   4   2   14.34    1.50
  -2  -4  -2   50.35    2.42
  -2  -4  -2   49.28    1.84
  -2  -4  -2   51.72    2.59
   2   4   2   53.07    2.54
   2   4   2   55.73    2.68
  -2   4  -2   48.01    3.44
  -3  -4  -2  163.32    6.13
  -3  -4  -2  163.39    6.27
  -3  -4  -2  153.92    5.28
   3   4   2  164.40    5.86
  -3   4  -2  160.79    6.98
  -3   4  -2  159.47    6.69
  -4  -4  -2  193.79    7.16
  -4  -4  -2  184.16    7.01
  -4  -4  -2  167.36    6.37
  -4  -4  -2  174.98    6.02
  -4   4  -2  191.20    6.72
  -4   4  -2  190.55    7.76
  -4   4  -2  184.03    7.96
  -4   4  -2  184.76    7.57
  -5  -4  -2   47.26    2.79
  -5  -4  -2   43.95    1.71
  -5  -4  -2   48.31    2.74
  -5   4  -2   44.89    2.41
   5   4   2   39.92    1.61
  -5   4  -2   42.38    4.11
  -5   4  -2   49.81    3.48
  -6  -4  -2   10.53    1.79
  -6  -4  -2    8.95    1.66
  -6   4  -2   10.17    3.30
  -6   4  -2    8.54    1.45
  -6   4  -2    7.01    1.89
  -6   4  -2    5.99    3.30
  -7  -4  -2   42.08    2.94
  -7  -4  -2   42.12    3.00
  -7   4  -2   42.01    3.43
  -7   4  -2   41.36    4.83
  -7   4  -2   48.86    5.16
  -7   4  -2   37.31    2.55
  -8  -4  -2   97.59    4.78
  -8  -4  -2   84.84    4.73
  -8   4  -2   95.87    5.22
  -8   4  -2   90.65    6.77
  -8   4  -2   83.18    4.05
  -8   4  -2   89.24    6.83
  -9  -4  -2   65.15    4.83
  -9   4  -2   47.39    7.00
  -9   4  -2   61.92    3.58
  -9   4  -2   76.17    4.68
  -9   4  -2   82.79    6.81
 -10  -4  -2    8.78    2.22
 -10  -4  -2   10.84    2.62
 -10   4  -2    5.36    1.91
 -10   4  -2    5.19    4.55
 -10   4  -2   -0.29    3.84
 -10   4  -2   10.86    2.70
 -11  -4  -2   -0.62    1.65
 -11  -4  -2    0.43    2.12
 -11   4  -2   -1.43    2.04
 -11   4  -2    2.34    1.79
 -11   4  -2    6.57    4.77
 -12  -4  -2   -2.36    1.81
 -12  -4  -2   -1.46    2.31
 -12   4  -2   -0.74    2.42
 -12   4  -2   -2.14    4.89
 -12   4  -2    2.70    5.09
 -13  -4  -2    3.79    2.88
 -13  -4  -2    2.90    2.52
 -13   4  -2   -6.81    4.59
 -13   4  -2    4.51    2.82
 -13   4  -2    1.12    5.43
 -14  -4  -2   -0.83    3.33
 -14   4  -2    1.30    2.89
 -14   4  -2   11.63    6.22
 -14   4  -2    1.70    5.47
 -15  -4  -2    1.23    2.69
 -15  -4  -2   -0.76    3.11
 -15   4  -2   -3.91    5.74
 -15   4  -2   -0.87    2.74
 -15   4  -2    7.22    5.75
 -16  -4  -2    2.61    3.52
 -16   4  -2    5.44    6.34
 -16   4  -2   -0.52    3.02
 -16  -5   2   -1.97    2.59
 -16  -5   2   -4.77    2.97
 -16   5   2    1.13    5.61
 -16   5   2    2.70    3.73
 -15  -5   2    0.45    1.93
 -15  -5   2    4.39    2.63
 -15  -5   2    5.13    3.33
 -15   5   2   -2.03    3.28
 -15   5   2    1.05   10.66
 -14  -5   2    0.48    1.84
 -14  -5   2    4.17    2.82
 -14   5   2    2.25    6.06
 -14   5   2   -0.89    3.20
 -14   5   2    1.67    4.53
 -13  -5   2    0.25    2.29
 -13  -5   2    1.81    2.15
 -13  -5   2    4.68    3.35
 -13   5   2   -0.38    5.42
 -13   5   2    4.51    4.53
 -13   5   2    1.26    3.08
 -12  -5   2    1.21    2.04
 -12  -5   2    0.22    1.40
 -12  -5   2    4.15    2.27
 -12   5   2    0.01    5.04
 -12   5   2    2.68    4.00
 -12   5   2   -0.97    2.34
 -11  -5   2    9.85    2.47
 -11  -5   2    4.12    1.53
 -11  -5   2    2.62    2.07
 -11   5   2    2.84    3.39
 -11   5   2    1.90    2.70
 -11   5   2    0.29    4.21
 -10  -5   2    1.72    1.78
 -10  -5   2    0.70    1.11
 -10  -5   2    2.69    1.92
 -10   5   2   -2.73    3.40
 -10   5   2    3.52    2.55
  -9  -5   2    9.17    2.19
  -9  -5   2    7.62    1.42
  -9  -5   2    9.58    2.24
  -9   5   2    9.28    2.64
  -9   5   2    3.76    3.20
  -9   5   2    5.51    2.49
  -8  -5   2   15.17    2.25
  -8  -5   2   11.88    1.50
  -8  -5   2   14.82    2.29
  -8   5   2    7.35    2.54
  -8   5   2    7.81    2.05
  -8   5   2    9.86    3.23
  -7  -5   2    7.01    1.17
  -7  -5   2    4.82    1.64
  -7   5   2    7.57    2.53
  -7   5   2    2.64    1.99
  -6  -5   2    2.34    1.03
  -6  -5   2    1.44    1.30
  -6   5   2   -0.25    1.61
  -6   5   2    2.98    2.26
  -5  -5   2    2.14    1.25
  -5  -5   2    1.91    0.85
  -5   5   2    3.05    1.78
  -5   5   2    1.54    2.02
   5   5  -2    1.02    1.16
   4  -5  -2    5.34    0.76
   4  -5  -2    3.96    0.67
  -4  -5   2    4.93    1.41
  -4  -5   2    2.98    0.88
  -4   5   2    5.63    1.62
   4   5  -2    2.20    1.30
  -4   5   2    5.52    2.02
   3  -5  -2   85.13    3.25
  -3  -5   2   88.79    3.51
  -3  -5   2   80.03    3.96
  -3   5   2   82.70    4.04
   3   5  -2   81.25    4.24
  -3   5   2   82.07    4.51
  -2  -5   2  123.60    4.78
   2  -5  -2  131.23    4.66
   2  -5  -2  122.83    4.53
  -2   5   2  112.50    5.57
   2   5  -2  124.60    5.56
  -2   5   2  122.48    5.26
  -1  -5   2    7.05    1.10
   1  -5  -2    8.33    1.01
   1  -5  -2   10.93    1.27
   1   5  -2    8.84    1.72
   1   5  -2    8.07    1.60
  -1   5   2    7.61    1.35
   0  -5  -2   48.56    2.49
   0  -5  -2   47.71    2.31
   0   5  -2   49.26    3.12
   0   5   2   44.26    2.95
   0   5   2   53.81    2.85
   0   5  -2   49.14    3.28
  -1  -5  -2   48.01    2.58
  -1  -5  -2   51.59    2.47
   1  -5   2   50.45    2.63
  -1  -5  -2   48.88    2.07
  -1   5  -2   49.11    3.20
  -1   5  -2   47.84    3.36
   1   5   2   49.88    2.81
   1   5   2   49.39    2.87
  -2  -5  -2    0.85    0.84
  -2  -5  -2    0.55    0.90
  -2  -5  -2   -0.43    0.46
   2   5   2    0.71    0.95
   2   5   2    0.94    1.15
  -2   5  -2    0.08    1.17
  -2   5  -2    2.24    1.79
  -3  -5  -2   14.28    1.72
  -3  -5  -2   11.60    1.71
  -3  -5  -2   11.62    0.68
  -3   5  -2   12.95    2.46
   3   5   2   14.41    1.58
  -3   5  -2   15.05    2.23
  -4  -5  -2    0.11    1.15
  -4  -5  -2   -0.14    0.94
  -4  -5  -2    1.00    0.30
  -4   5  -2    0.48    2.08
  -4   5  -2    1.60    1.54
   4   5   2    1.76    0.79
  -5  -5  -2   26.80    2.24
  -5  -5  -2   27.89    2.34
  -5  -5  -2   25.32    1.07
  -5   5  -2   27.10    3.74
  -5   5  -2   26.80    3.10
  -6  -5  -2    7.65    1.82
  -6  -5  -2    9.29    1.86
  -6   5  -2    4.17    2.94
  -6   5  -2    8.88    2.96
  -6   5  -2   11.17    2.37
  -7  -5  -2    0.33    1.35
  -7  -5  -2    0.31    1.38
  -7   5  -2    1.48    1.83
  -7   5  -2    0.25    2.92
  -7   5  -2   -0.40    2.75
  -8  -5  -2    1.25    1.60
  -8   5  -2    2.62    3.68
  -8   5  -2    3.75    2.19
  -8   5  -2    0.15    3.77
  -9  -5  -2   -0.66    1.68
  -9  -5  -2   -0.63    1.71
  -9   5  -2   -0.62    1.97
  -9   5  -2   -2.65    4.04
  -9   5  -2    3.44    3.76
 -10  -5  -2   -2.14    1.70
 -10  -5  -2    0.97    2.01
 -10   5  -2    2.55    2.32
 -10   5  -2   -9.58    4.30
 -10   5  -2    1.24    4.34
 -11  -5  -2    0.39    2.07
 -11  -5  -2    1.48    2.29
 -11   5  -2   -5.33    4.30
 -11   5  -2   -0.77    2.53
 -11   5  -2   10.26    5.36
 -12  -5  -2    4.91    3.04
 -12  -5  -2    1.87    2.47
 -12   5  -2    0.36    2.62
 -12   5  -2   -3.43    5.67
 -12   5  -2    3.75    5.68
 -13  -5  -2   -1.13    2.77
 -13   5  -2    0.45    3.00
 -13   5  -2    7.97    6.39
 -14  -5  -2   -0.53    3.31
 -14  -5  -2    1.08    2.62
 -14   5  -2   -2.22    6.24
 -14   5  -2   -2.54    3.25
 -14   5  -2    3.34    5.70
 -15  -5  -2   -1.17    3.12
 -15  -5  -2    1.26    3.39
 -15   5  -2    1.92    6.05
 -15   5  -2    1.07    3.25
 -15  -6   2   -3.92    2.61
 -15  -6   2   -0.46    2.64
 -15   6   2    6.83    5.33
 -15   6   2   -2.67    2.83
 -14  -6   2    2.86    2.61
 -14  -6   2   -0.85    2.02
 -14  -6   2    4.24    2.95
 -14   6   2   -3.69    3.02
 -14   6   2    7.26    5.33
 -13  -6   2    3.89    2.66
 -13  -6   2    1.61    2.51
 -13   6   2    6.75    5.37
 -12  -6   2   13.08    3.07
 -12  -6   2    1.59    1.59
 -12  -6   2    4.19    2.49
 -12   6   2    5.13    3.35
 -12   6   2    4.09    4.83
 -11  -6   2    4.94    2.47
 -11  -6   2    8.19    2.56
 -11  -6   2    3.66    1.36
 -11   6   2    1.13    4.23
 -11   6   2    3.08    2.74
 -10  -6   2    5.46    2.36
 -10  -6   2   11.07    2.66
 -10  -6   2    9.89    1.59
 -10   6   2    6.09    3.18
 -10   6   2   11.53    4.75
  -9  -6   2   37.43    3.42
  -9  -6   2   34.08    3.33
  -9  -6   2   33.46    2.37
  -9   6   2   21.00    4.34
  -9   6   2   31.13    4.01
  -8  -6   2   56.79    2.97
  -8  -6   2   56.24    3.97
  -8  -6   2   62.23    4.05
  -8   6   2   54.50    4.82
  -8   6   2   56.25    4.78
  -7  -6   2   24.28    1.88
  -7   6   2   35.45    4.43
  -7   6   2   19.34    3.08
  -6  -6   2   -0.27    1.21
  -6  -6   2    1.96    0.91
  -6   6   2    2.21    1.90
  -6   6   2   -2.95    1.60
  -5  -6   2    2.25    0.93
  -5  -6   2    1.35    1.27
   5   6  -2    2.68    1.53
  -5   6   2    5.27    2.09
  -5   6   2    2.23    1.94
  -4  -6   2   15.16    2.18
   4  -6  -2   17.04    1.20
  -4  -6   2   16.66    1.47
  -4   6   2   15.93    2.44
  -4   6   2   17.78    2.82
   4   6  -2   12.35    2.10
  -3  -6   2  114.20    5.29
  -3  -6   2  116.96    4.76
   3  -6  -2  116.25    4.47
   3  -6  -2  122.39    4.51
  -3   6   2  108.35    5.92
   3   6  -2  116.05    5.68
  -3   6   2  125.38    5.51
   3   6  -2  115.82    5.48
  -2  -6   2  127.90    5.18
   2  -6  -2  138.67    5.12
  -2  -6   2  127.47    5.68
   2  -6  -2  135.17    4.99
   2   6  -2  130.31    6.05
   2   6  -2  123.27    6.08
  -2   6   2  130.23    5.85
  -2   6   2  133.53    6.29
  -1  -6   2   93.53    4.12
   1  -6  -2   93.61    3.91
   1  -6  -2   96.64    4.08
   1   6  -2   94.26    4.87
  -1   6   2   96.31    5.10
   1   6  -2   98.53    5.07
  -1   6   2   99.73    4.71
   0  -6  -2  111.56    4.84
   0  -6  -2  117.67    4.64
   0  -6   2  118.58    4.83
   0   6   2  110.97    5.48
   0   6   2  117.28    5.21
   0   6  -2  111.66    5.59
   0   6  -2  116.25    5.72
   1  -6   2  149.09    5.93
  -1  -6  -2  146.72    5.99
  -1  -6  -2  154.00    5.42
  -1  -6  -2  142.61    5.83
   1   6   2  150.92    6.40
  -1   6  -2  149.39    6.80
  -1   6  -2  148.62    6.92
   1   6   2  144.23    6.41
  -2  -6  -2  111.21    4.08
  -2  -6  -2  110.53    4.81
  -2  -6  -2  109.49    4.96
  -2   6  -2  110.30    5.87
   2   6   2  111.12    5.18
  -2   6  -2  118.25    5.83
   2   6   2  116.37    5.13
  -3  -6  -2   24.69    1.49
  -3  -6  -2   26.00    2.08
  -3  -6  -2   28.58    2.35
   3   6   2   25.46    2.25
  -3   6  -2   25.54    3.35
  -3   6  -2   27.41    3.22
  -4  -6  -2   15.94    2.17
  -4  -6  -2   12.98    1.96
   4   6   2   16.78    1.66
  -4   6  -2   15.05    2.57
  -4   6  -2   13.90    2.96
  -5  -6  -2   38.70    2.82
  -5  -6  -2   40.94    2.95
  -5   6  -2   35.80    4.22
  -5   6  -2   33.62    3.49
  -6  -6  -2   56.04    4.09
  -6  -6  -2   55.63    3.58
  -6   6  -2   53.35    5.07
  -7  -6  -2   22.42    2.84
  -7   6  -2   19.25    3.06
  -8  -6  -2   -0.94    1.65
  -8  -6  -2   -0.66    1.53
  -8   6  -2    2.31    3.50
  -8   6  -2    1.16    2.09
  -9  -6  -2    1.57    1.89
  -9  -6  -2   -0.95    1.80
  -9   6  -2   -5.43    3.51
  -9   6  -2    1.88    3.94
  -9   6  -2   -1.40    2.16
 -10  -6  -2   10.89    2.64
 -10   6  -2    9.69    2.88
 -10   6  -2    1.15    4.75
 -10   6  -2    9.60    5.08
 -11  -6  -2   10.26    2.95
 -11  -6  -2    6.59    3.01
 -11   6  -2   19.63    4.05
 -11   6  -2   19.81    6.18
 -11   6  -2   16.16    5.71
 -12  -6  -2    8.65    3.18
 -12  -6  -2    3.18    3.05
 -12   6  -2    1.90    5.52
 -12   6  -2    5.42    3.13
 -12   6  -2   -5.37    6.44
 -13  -6  -2   -0.20    2.59
 -13  -6  -2    2.52    2.99
 -13   6  -2    3.30    3.61
 -13   6  -2   -7.50    5.25
 -13   6  -2    4.45    6.06
 -14  -6  -2    1.57    2.96
 -14  -6  -2    3.28    3.31
 -14   6  -2   -0.69    5.77
 -14   6  -2   -4.32    5.96
 -14   6  -2    5.38    3.45
 -14  -7   2   -0.19    2.73
 -14  -7   2   -0.77    2.99
 -14   7   2   -2.71    2.98
 -14   7   2   -2.71    4.97
 -13  -7   2   -2.34    2.82
 -13  -7   2   -0.85    2.35
 -13   7   2   -1.42    4.34
 -13   7   2    0.38    3.21
 -12  -7   2    3.58    2.63
 -12  -7   2    0.98    2.08
 -12  -7   2   -0.07    2.31
 -12   7   2   -3.72    3.99
 -12   7   2    2.55    3.45
 -11  -7   2    2.62    1.42
 -11  -7   2    5.72    2.84
 -11  -7   2    7.71    3.08
 -11   7   2    3.36    2.93
 -11   7   2    8.05    4.51
 -10  -7   2   -0.88    1.11
 -10  -7   2    0.75    2.01
 -10  -7   2    0.87    2.13
 -10   7   2    1.90    3.61
 -10   7   2    1.25    2.99
  -9  -7   2    1.16    0.97
  -9  -7   2    4.21    2.12
  -9  -7   2   -1.16    1.85
  -9   7   2   -0.52    2.45
  -9   7   2    4.23    3.20
  -8  -7   2    2.44    1.94
  -8  -7   2    3.99    2.14
  -8  -7   2    3.04    1.15
  -8   7   2    3.25    2.66
  -8   7   2    6.44    2.68
  -7  -7   2    2.23    1.74
  -7  -7   2    1.60    0.99
  -7  -7   2   -1.14    1.58
  -7   7   2    1.62    2.46
  -7   7   2   -1.08    1.96
  -6  -7   2   -0.09    0.90
  -6  -7   2   -0.03    1.53
  -6   7   2    0.24    2.24
  -6   7   2   -0.22    1.88
  -5  -7   2    0.03    0.83
  -5  -7   2    0.71    1.40
   5   7  -2    1.31    1.65
  -5   7   2   -0.26    2.10
  -5   7   2    0.65    1.92
  -4  -7   2    0.93    0.87
   4  -7  -2    0.90    0.73
   4  -7  -2    1.24    0.76
  -4  -7   2    1.25    1.42
  -4   7   2    1.39    1.66
   4   7  -2    1.27    1.50
  -4   7   2    0.17    1.91
  -3  -7   2   26.43    2.53
  -3  -7   2   30.27    2.08
   3  -7  -2   28.97    1.81
   3  -7  -2   29.83    1.86
   3   7  -2   32.09    2.96
  -3   7   2   26.74    3.40
  -3   7   2   30.59    2.78
   3   7  -2   30.40    3.06
  -2  -7   2   41.44    3.10
   2  -7  -2   45.68    2.48
   2  -7  -2   43.22    2.30
  -2  -7   2   42.77    2.56
   2   7  -2   45.79    3.56
  -2   7   2   39.20    3.59
  -2   7   2   44.40    3.19
   2   7  -2   46.06    3.38
   1  -7  -2    2.36    0.97
  -1  -7   2    0.92    0.97
   1  -7  -2    2.99    1.13
   1   7  -2    0.64    1.67
  -1   7   2    3.42    1.79
   1   7  -2    3.24    1.81
  -1   7   2    5.81    1.62
   0  -7  -2   20.10    1.55
   0  -7  -2   14.88    1.65
   0  -7  -2   19.70    2.13
   0  -7   2   17.60    2.03
   0   7   2   17.44    2.53
   0   7   2   21.00    2.43
   0   7  -2   17.24    2.82
   0   7  -2   15.38    2.55
  -1  -7  -2   18.94    1.77
  -1  -7  -2   19.30    1.45
   1  -7   2   23.04    2.31
  -1  -7  -2   21.02    2.12
   1   7   2   15.99    2.21
   1   7   2   20.44    2.41
  -1   7  -2   21.08    2.98
  -1   7  -2   19.75    2.84
  -2  -7  -2   -1.73    1.11
  -2  -7  -2   -0.70    1.02
  -2  -7  -2    0.07    0.55
   2  -7   2    0.94    1.12
   2   7   2    0.67    1.23
  -2   7  -2    0.52    1.92
  -2   7  -2    1.84    1.63
   2   7   2    0.06    1.25
  -3  -7  -2    6.07    0.71
  -3  -7  -2    3.41    1.34
  -3  -7  -2    5.41    1.76
  -3   7  -2    6.31    2.16
   3   7   2    4.60    1.56
  -3   7  -2    7.28    2.55
  -4  -7  -2    0.87    1.45
  -4  -7  -2    0.90    1.38
  -4   7  -2    4.91    2.11
  -4   7  -2   -0.13    2.42
   4   7   2   -0.06    1.18
  -5  -7  -2   11.74    2.13
  -5  -7  -2    4.59    1.91
  -5   7  -2   14.90    3.85
  -5   7  -2    8.14    2.59
  -6  -7  -2    2.15    1.73
  -6  -7  -2    0.33    1.60
  -6   7  -2    2.42    2.90
  -6   7  -2    5.35    2.34
  -7  -7  -2   -0.01    1.64
  -7  -7  -2    0.58    1.83
  -7   7  -2   -0.11    2.99
  -7   7  -2    0.21    2.16
  -8  -7  -2    0.32    1.86
  -8  -7  -2    3.44    2.04
  -8   7  -2    2.44    2.49
  -8   7  -2    1.64    3.49
  -9  -7  -2   -0.43    2.09
  -9  -7  -2   -0.33    2.12
  -9   7  -2    1.93    2.59
  -9   7  -2   -4.83    4.08
 -10  -7  -2    1.32    2.31
 -10  -7  -2    3.90    2.82
 -10   7  -2    2.07    3.11
 -10   7  -2    5.49    4.90
 -11  -7  -2   -0.81    2.44
 -11  -7  -2    4.40    2.86
 -11   7  -2    3.65    5.42
 -12  -7  -2   -3.34    2.56
 -12  -7  -2    4.00    3.18
 -12   7  -2   -1.98    5.09
 -12   7  -2    1.37    3.00
 -13  -7  -2    2.02    3.22
 -13  -7  -2   -0.41    2.93
 -13   7  -2   -1.72    3.19
 -13   7  -2    0.20    6.40
 -13  -8   2   -3.31    2.97
 -13  -8   2   -0.62    2.65
 -13   8   2   -0.12    4.53
 -13   8   2   -0.61    3.10
 -12  -8   2   -4.90    2.28
 -12  -8   2    3.73    2.69
 -12   8   2   -0.42    4.36
 -12   8   2    0.95    3.00
 -11  -8   2   -1.32    2.39
 -11  -8   2    0.86    2.47
 -11   8   2   -1.43    3.76
 -11   8   2    4.31    3.19
 -10  -8   2    2.50    2.95
 -10  -8   2    4.26    2.72
 -10   8   2    1.56    3.44
 -10   8   2    3.58    3.72
  -9  -8   2    2.91    1.27
  -9  -8   2   -0.03    2.06
  -9  -8   2   -0.41    2.04
  -9   8   2    0.54    2.98
  -9   8   2    2.74    2.94
  -8  -8   2   -2.33    1.71
  -8  -8   2    1.51    1.08
  -8  -8   2    5.78    2.58
  -8   8   2   -0.27    2.79
  -8   8   2    1.49    2.55
  -7  -8   2   10.11    2.74
  -7  -8   2    9.22    2.50
  -7  -8   2   10.15    1.48
  -7   8   2    8.74    3.03
  -7   8   2   13.55    3.33
  -6  -8   2   51.56    2.87
  -6  -8   2   54.76    4.01
  -6  -8   2   47.09    3.98
  -6   8   2   46.36    4.40
  -6   8   2   50.88    5.25
  -5  -8   2   81.62    4.79
  -5  -8   2   80.15    3.69
   5  -8  -2   67.96    3.25
  -5  -8   2   77.17    4.64
  -5   8   2   80.46    5.76
   5   8  -2   74.45    5.03
  -5   8   2   70.50    5.05
  -4  -8   2   40.87    3.28
  -4  -8   2   47.31    2.65
   4  -8  -2   38.01    2.20
   4  -8  -2   42.01    2.27
  -4   8   2   41.19    3.75
  -4   8   2   43.36    4.35
   4   8  -2   43.53    3.85
   3  -8  -2    7.43    1.44
  -3  -8   2   11.52    1.66
   3  -8  -2    9.33    1.33
   3   8  -2   13.42    2.62
  -3   8   2   11.29    2.39
   3   8  -2   13.95    2.41
  -3   8   2   12.69    2.83
  -2  -8   2   14.05    2.27
   2  -8  -2   10.65    1.62
  -2  -8   2   10.72    1.74
   2  -8  -2    9.11    1.59
   2   8  -2   12.75    2.59
  -2   8   2    9.24    2.06
   2   8  -2   12.84    2.61
   1  -8  -2   19.28    1.85
  -1  -8   2   23.25    2.15
   1  -8  -2   19.73    2.23
  -1  -8   2   16.70    2.52
   1  -8  -2   23.43    1.88
   1   8  -2   22.91    3.25
  -1   8   2   23.20    2.93
  -1   8   2   24.63    3.41
   1   8  -2   21.51    3.16
   0  -8   2   17.00    2.09
   0  -8  -2   22.74    2.43
   0  -8  -2   19.01    1.82
   0  -8  -2   16.85    1.75
   0   8   2   16.64    2.49
   0   8   2   20.19    2.92
   0   8  -2   20.79    3.12
  -1  -8  -2   11.59    1.76
  -1  -8  -2   11.37    2.07
   1  -8   2    9.79    1.84
   1   8   2   11.27    2.28
  -1   8  -2    6.52    2.45
   1   8   2   13.96    2.38
  -1   8  -2    9.29    2.52
  -2  -8  -2   14.96    2.11
  -2  -8  -2   17.49    2.49
  -2  -8  -2   10.94    1.12
   2  -8   2   12.14    1.94
  -2   8  -2   13.47    2.95
  -2   8  -2   13.44    2.88
   2   8   2   12.15    2.25
   2   8   2   15.43    2.47
   3  -8   2   33.83    2.75
  -3  -8  -2   31.82    1.63
  -3  -8  -2   34.35    2.87
  -3   8  -2   35.46    3.89
  -3   8  -2   32.15    4.16
   3   8   2   37.25    3.16
  -4  -8  -2   39.30    3.04
  -4  -8  -2   38.20    3.43
   4   8   2   38.05    3.00
  -4   8  -2   41.80    4.79
  -4   8  -2   30.02    4.02
  -5  -8  -2   15.16    2.65
  -5  -8  -2   16.47    2.63
  -5   8  -2   13.55    3.61
  -5   8  -2   15.54    3.48
  -6  -8  -2    8.54    2.52
  -6  -8  -2    7.34    2.35
  -6   8  -2    6.59    2.83
  -6   8  -2   10.24    3.98
  -7  -8  -2    9.90    2.47
  -7  -8  -2   10.46    2.67
  -7   8  -2    5.16    2.80
  -7   8  -2    8.22    3.68
  -8  -8  -2   14.04    3.17
  -8  -8  -2   21.10    3.42
  -8   8  -2   13.58    4.64
  -8   8  -2   21.50    4.28
  -9  -8  -2   13.82    3.08
  -9   8  -2   19.20    5.29
 -10  -8  -2    3.19    2.55
 -10  -8  -2    4.44    2.90
 -10   8  -2   -0.01    8.11
 -10   8  -2    2.94    2.95
 -11  -8  -2   -0.82    2.40
 -11  -8  -2   -3.53    2.18
 -11   8  -2   -6.32    5.15
 -11   8  -2   -0.69    2.97
 -12  -8  -2    0.13    2.73
 -12  -8  -2    2.67    3.23
 -12   8  -2    2.95    3.51
 -12   8  -2   -2.74    5.26
 -11  -9   2    1.54    2.90
 -11  -9   2    0.62    2.63
 -11   9   2   -1.77    3.03
 -10  -9   2   -2.12    2.38
 -10  -9   2    1.20    2.50
 -10   9   2   -3.28    3.36
 -10   9   2   -3.33    3.29
  -9  -9   2    0.06    2.30
  -9  -9   2    2.25    2.47
  -9   9   2    6.39    3.43
  -9   9   2    0.63    2.77
  -8  -9   2    1.40    2.58
  -8   9   2   -1.81    2.49
  -8   9   2    5.90    3.11
  -7  -9   2    0.63    2.06
  -7  -9   2   -1.28    1.83
  -7  -9   2   -0.21    1.03
  -7   9   2   -1.36    2.41
  -7   9   2    0.14    3.05
  -6  -9   2    0.78    1.82
  -6  -9   2   -1.53    1.76
  -6  -9   2    1.90    1.11
  -6   9   2    2.33    2.59
  -6   9   2    1.15    2.31
  -5  -9   2   -0.24    1.58
  -5  -9   2    0.65    1.04
  -5  -9   2    1.05    1.76
   5   9  -2   -1.16    1.79
  -5   9   2    1.32    2.46
  -5   9   2   -2.98    1.94
  -4  -9   2   -0.60    0.97
  -4  -9   2    1.84    1.96
  -4  -9   2   -3.32    1.40
  -4   9   2   -1.53    1.92
   4   9  -2    1.51    1.88
  -4   9   2   -1.59    2.46
   3  -9  -2    9.35    1.54
  -3  -9   2    7.06    2.16
   3  -9  -2    7.73    1.33
  -3  -9   2    9.34    2.37
  -3  -9   2    9.64    1.67
  -3   9   2    9.48    3.11
   3   9  -2    9.28    2.50
  -3   9   2   11.08    2.54
   2  -9  -2   10.82    1.75
  -2  -9   2   14.77    2.48
   2  -9  -2   12.05    1.80
   2  -9  -2   10.52    1.55
  -2  -9   2   12.49    1.87
  -2  -9   2   13.27    2.33
  -2   9   2   16.46    2.70
   2   9  -2   15.84    2.98
   2   9  -2   12.44    2.74
  -2   9   2   12.97    3.24
   1  -9  -2    0.61    1.01
   1  -9  -2    0.62    1.04
  -1  -9   2    2.47    1.71
  -1  -9   2    1.06    1.23
   1  -9  -2    4.83    1.48
   1   9  -2    0.95    1.95
  -1   9   2   -1.83    1.99
   1   9  -2    5.46    2.27
  -1   9   2   -0.77    1.43
   0  -9  -2    3.96    1.57
   0  -9   2    5.84    2.06
   0  -9  -2    2.95    1.07
   0  -9  -2    2.09    1.22
   0   9   2    7.01    2.10
   0   9  -2    7.01    2.67
   0   9  -2   -0.48    1.88
   0   9   2    3.65    2.18
  -1  -9  -2    3.39    0.98
   1  -9   2    7.34    1.77
  -1  -9  -2    5.94    1.66
   1   9   2    4.94    2.07
  -1   9  -2    4.46    2.50
  -1   9  -2    5.50    2.59
   2  -9   2   -0.03    1.30
  -2  -9  -2   -1.86    1.45
  -2  -9  -2   -0.53    0.61
  -2  -9  -2    0.13    1.34
   2   9   2   -0.82    1.69
  -2   9  -2   -2.64    1.90
   2   9   2    0.43    1.49
  -2   9  -2   -0.20    2.15
  -3  -9  -2   -2.32    1.72
   3  -9   2    1.59    1.47
  -3  -9  -2    0.63    1.53
   3   9   2   -0.81    1.53
  -3   9  -2    2.08    2.42
  -3   9  -2    1.76    2.33
  -4  -9  -2   -1.03    1.57
   4  -9   2    0.08    1.70
  -4  -9  -2   -2.31    1.82
   4  -9   2    0.26    0.89
  -4   9  -2    2.68    2.73
  -4   9  -2   -3.56    2.60
   4   9   2    0.22    1.48
  -5  -9  -2    1.39    1.87
  -5  -9  -2    3.72    2.06
   5  -9   2    3.99    1.94
  -5   9  -2    3.59    2.63
  -5   9  -2    2.29    2.94
  -6  -9  -2    0.69    2.06
  -6  -9  -2   -1.66    1.72
  -6   9  -2    1.20    2.81
  -6   9  -2   -2.18    3.30
  -7  -9  -2    1.03    2.09
  -7   9  -2    1.15    2.71
  -7   9  -2    1.74    3.69
  -8  -9  -2    1.36    3.76
  -8  -9  -2   -0.72    2.40
  -8   9  -2    0.93    2.89
  -9  -9  -2   -4.39    2.44
  -9  -9  -2    0.37    2.63
  -9   9  -2   -3.38    3.95
  -9   9  -2   -1.25    2.81
 -10  -9  -2   -4.67    2.17
 -10  -9  -2    0.22    2.62
 -10   9  -2    1.23    3.03
 -10   9  -2   -1.69    4.42
 -11   9  -2   -4.51    5.13
  -9 -10   2    5.28    3.23
  -9 -10   2    4.85    3.20
  -9  10   2    6.53    3.91
  -8 -10   2    4.24    2.91
  -8 -10   2    7.05    3.29
  -8  10   2    9.88    4.13
  -8  10   2   11.76    3.55
  -7 -10   2    1.96    2.38
  -7 -10   2    4.08    2.78
  -7  10   2    3.19    3.43
  -7  10   2    1.87    2.57
  -6 -10   2    1.41    2.27
  -6  10   2   -3.71    2.45
  -6  10   2    7.79    2.96
  -5 -10   2    1.29    2.21
  -5 -10   2   -0.09    2.07
  -5 -10   2    0.97    1.23
   5  10  -2    0.74    2.14
  -5  10   2   -5.04    1.91
  -4 -10   2    3.13    2.11
  -4 -10   2    6.47    2.31
   4 -10  -2    1.23    1.30
  -4 -10   2    2.98    1.43
  -4  10   2    6.89    2.59
   4  10  -2    1.34    3.24
  -4  10   2    4.34    2.99
   3 -10  -2   13.46    2.12
  -3 -10   2   22.40    3.45
  -3 -10   2   12.41    2.25
  -3 -10   2   14.40    2.94
  -3  10   2   17.02    3.92
  -3  10   2   20.58    3.30
   3  10  -2   13.81    3.09
  -2 -10   2   21.19    3.11
  -2 -10   2   19.09    3.00
  -2 -10   2   17.49    2.33
   2 -10  -2   19.43    2.20
   2 -10  -2   14.79    2.15
   2  10  -2   19.19    3.48
   2  10  -2   18.73    3.36
  -2  10   2   16.63    2.99
  -2  10   2   17.08    3.74
   1 -10  -2   17.50    2.42
  -1 -10   2   16.60    2.82
   1 -10  -2   10.93    1.89
   1 -10  -2   19.82    2.24
  -1 -10   2   15.81    2.57
  -1 -10   2   15.39    2.37
  -1  10   2   10.63    3.03
  -1  10   2   12.53    2.77
   1  10  -2   18.60    3.55
   1  10  -2   13.95    3.12
   0 -10  -2   19.04    2.58
   0 -10  -2   17.44    2.01
   0 -10   2   14.29    2.25
   0 -10  -2   19.80    2.34
   0 -10   2   11.57    2.51
   0 -10   2   14.06    2.46
   0  10   2   13.60    3.35
   0  10   2   13.00    2.71
   0  10  -2   12.62    3.25
   0  10  -2   13.81    3.03
   1 -10   2   18.66    2.86
   1 -10   2   20.29    3.11
  -1 -10  -2   17.29    2.84
   1 -10   2   17.31    2.56
  -1  10  -2   25.07    3.96
   1  10   2   22.14    3.15
   1  10   2   17.62    3.17
  -1  10  -2   26.28    4.10
   2 -10   2    8.61    2.10
  -2 -10  -2   16.10    2.55
   2 -10   2   18.66    2.39
   2 -10   2   14.90    2.76
  -2 -10  -2   14.61    2.55
   2  10   2   15.32    2.96
   2  10   2   11.08    2.64
  -2  10  -2   13.77    3.62
  -2  10  -2   27.89    4.23
  -3 -10  -2    4.81    2.13
  -3 -10  -2    3.72    2.10
   3 -10   2    6.28    2.22
   3 -10   2    7.00    1.67
   3  10   2    6.54    2.37
  -3  10  -2    6.33    3.35
  -3  10  -2    5.63    3.46
   4 -10   2    4.07    2.16
  -4 -10  -2    0.54    2.12
  -4 -10  -2    3.43    2.24
  -4  10  -2    2.81    3.10
  -4  10  -2    0.34    2.70
  -5 -10  -2    5.37    2.78
   5 -10   2    7.07    2.46
  -5 -10  -2    8.30    2.51
  -5  10  -2    8.97    3.63
  -6 -10  -2   10.03    2.88
  -6 -10  -2   11.79    2.81
   6 -10   2    7.25    2.36
  -6  10  -2    7.82    3.40
  -6  10  -2    6.56    3.68
  -7 -10  -2    3.57    2.55
   7 -10   2    2.62    2.19
  -7 -10  -2    1.01    2.67
  -7  10  -2    7.13    4.07
  -7  10  -2    2.35    3.29
  -8 -10  -2   -0.40    2.52
  -8 -10  -2    1.54    2.37
  -8  10  -2   -0.46    3.80
  -8  10  -2    1.98    3.49
  -9 -10  -2    3.16    3.27
  -9  10  -2   -5.88    3.79
  -9  10  -2   -0.58    3.37
  -7  11   2   -2.65    2.67
  -6 -11   2   -4.18    2.15
  -6 -11   2    1.75    2.23
  -6  11   2    1.58    3.06
  -5 -11   2    2.45    2.56
   5 -11  -2    3.94    1.89
  -5 -11   2   -3.09    1.92
  -5  11   2    2.24    2.82
  -5  11   2    3.56    3.47
  -4 -11   2   -2.83    2.03
  -4 -11   2    3.75    2.13
   4 -11  -2    1.81    1.51
  -4  11   2    2.64    3.08
   4  11  -2   -1.60    2.01
  -4  11   2    2.41    2.30
   3 -11  -2    5.95    1.67
  -3 -11   2    0.49    1.44
   3  11  -2   -0.57    2.37
  -3  11   2    5.55    2.99
  -3  11   2    2.85    2.06
   2 -11  -2    1.88    1.51
  -2 -11   2    2.08    2.04
  -2 -11   2    2.80    1.61
  -2 -11   2    0.74    1.68
  -2  11   2    2.39    2.67
  -2  11   2    0.77    2.05
   2  11  -2    4.57    2.61
  -1 -11   2    1.55    1.48
  -1 -11   2   -1.38    1.62
   1 -11  -2    0.90    1.63
  -1 -11   2    0.69    1.88
   1  11  -2   -1.92    2.35
  -1  11   2    1.71    2.01
  -1  11   2    0.86    3.45
   0 -11  -2   -1.44    1.66
   0 -11   2   -0.05    1.74
   0 -11   2    2.37    1.58
   0 -11   2   -2.97    1.65
   0  11  -2    0.14    2.72
   0  11   2    0.65    2.42
   0  11   2    2.57    2.17
   0  11  -2    4.23    2.58
   1 -11   2    1.48    1.79
   1 -11   2   -0.08    1.93
   1 -11   2    1.67    1.55
  -1 -11  -2    0.62    1.67
  -1 -11  -2    0.16    1.96
   1  11   2    3.57    2.56
  -1  11  -2    0.35    2.56
  -1  11  -2    0.69    2.39
   1  11   2   -0.34    1.68
  -2 -11  -2   -2.97    1.85
   2 -11   2   -0.93    1.53
   2 -11   2    3.45    1.98
  -2 -11  -2    0.17    1.83
  -2  11  -2    1.59    2.57
   2  11   2   -0.07    2.00
  -2  11  -2    0.76    2.79
  -3 -11  -2    4.05    2.08
   3 -11   2   -2.21    1.70
  -3  11  -2    3.26    2.78
   3  11   2    2.33    2.37
  -3  11  -2   -0.68    2.66
  -4 -11  -2   -2.90    2.19
   4 -11   2    1.02    1.96
   4 -11   2   -1.33    1.62
  -4 -11  -2    2.91    1.93
  -4  11  -2    1.60    3.08
  -4  11  -2    2.17    3.26
   5 -11   2    2.13    2.13
  -5 -11  -2    5.65    2.81
  -5 -11  -2    3.09    3.50
  -5  11  -2    3.52    2.85
  -5  11  -2   -1.31    2.85
   6 -11   2   -3.08    1.90
  -6 -11  -2   -6.28    2.34
  -6 -11  -2    1.74    2.42
  -6  11  -2    0.56    3.17
  -6  11  -2    1.29    3.23
 -17   0   3    8.02    3.74
 -17   0   3    2.34    3.37
 -16   0   3   -2.98    2.38
 -16   0   3   -1.30    2.02
 -16   0   3   -2.26    2.70
 -15   0   3    1.54    3.00
 -15   0   3    0.35    2.82
 -15   0   3   -0.04    1.79
 -15   0   3    2.83    2.22
 -14   0   3    0.91    1.78
 -14   0   3   -0.89    2.01
 -14   0   3    2.87    1.74
 -14   0   3   -1.05    2.17
 -13   0   3    1.20    1.77
 -13   0   3   -3.83    1.70
 -13   0   3   -0.86    1.35
 -12   0   3    6.53    1.58
 -12   0   3    4.89    2.15
 -12   0   3    6.98    2.07
 -12   0   3    5.69    2.07
 -11   0   3   52.56    3.58
 -11   0   3   53.55    3.05
 -11   0   3   47.98    3.72
 -11   0   3   55.76    3.51
 -10   0   3   66.99    3.87
 -10   0   3   68.38    3.39
 -10   0   3   74.52    4.24
 -10   0   3   66.14    3.89
  -9   0   3   24.49    2.21
  -9   0   3   23.46    2.23
  -9   0   3   26.83    2.61
  -8   0   3    3.34    2.01
  -8   0   3    4.61    1.39
  -8   0   3    4.57    1.29
  -7   0   3   47.86    2.40
  -7   0   3   43.29    2.69
  -7   0   3   46.88    2.55
  -6   0   3  311.31   10.81
  -6   0   3  313.20   10.96
  -5   0   3  373.29   12.66
  -5   0   3  375.22   12.81
  -4   0   3  176.73    6.34
  -4   0   3  177.75    6.22
   3   0  -3   60.23    2.51
  -3   0   3   56.50    2.35
  -3   0   3   54.34    2.23
  -2   0   3   18.78    1.03
  -2   0   3   17.11    0.94
   2   0  -3   16.69    1.35
   2   0  -3   17.82    0.91
   1   0  -3  105.56    3.65
  -1   0   3  108.00    3.70
  -1   0   3  103.46    3.67
   1   0  -3  101.96    4.03
  -1   0   3  101.20    3.91
   0   0  -3   27.54    1.84
   0   0  -3   32.15    1.62
   0   0  -3   28.17    1.86
   0   0   3   31.63    1.33
  -1   0  -3   26.49    1.97
   1   0   3   23.05    1.11
  -1   0  -3   23.76    1.90
   2   0   3  281.34    9.65
  -2   0  -3  272.01    9.90
  -2   0  -3  285.90    9.81
  -3   0  -3  894.08   28.85
  -3   0  -3  858.32   29.07
  -3   0  -3  886.75   29.28
  -4   0  -3  741.54   24.83
  -4   0  -3  750.10   24.30
  -4   0  -3  719.00   24.55
  -5   0  -3   98.81    4.59
  -5   0  -3  100.59    4.26
  -5   0  -3  103.90    3.96
  -6   0  -3    9.87    1.53
  -6   0  -3   10.08    1.99
  -6   0  -3    8.98    1.13
  -7   0  -3   16.09    2.52
  -7   0  -3   22.86    1.73
  -7   0  -3   21.87    2.27
  -8   0  -3   49.19    2.72
  -8   0  -3   49.72    3.79
  -8   0  -3   53.23    3.34
  -9   0  -3   22.71    1.94
  -9   0  -3   22.81    2.41
  -9   0  -3   17.67    3.04
 -10   0  -3    3.24    2.54
 -10   0  -3    2.31    1.17
 -10   0  -3    4.52    2.05
 -11   0  -3   -0.65    1.13
 -11   0  -3    0.19    1.87
 -11   0  -3    3.53    2.74
 -12   0  -3    6.13    3.25
 -12   0  -3    4.70    1.98
 -12   0  -3    3.40    2.53
 -13   0  -3    5.45    2.81
 -13   0  -3    3.56    3.83
 -14   0  -3   -0.05    2.87
 -14   0  -3   11.03    4.23
 -15   0  -3    0.11    3.08
 -15   0  -3    0.52    4.03
 -16   0  -3    8.52    4.51
 -16   0  -3    4.23    3.76
 -17  -1   3    1.16    2.45
 -17  -1   3    0.59    3.16
 -17   1   3   -4.22    2.31
 -17   1   3    2.65    6.28
 -16  -1   3    0.01    2.05
 -16  -1   3   -6.95    3.21
 -16  -1   3    2.43    2.38
 -16  -1   3    1.44    3.15
 -16   1   3    3.83    2.99
 -16   1   3    3.85    2.65
 -15  -1   3   -0.53    2.23
 -15  -1   3    0.85    2.01
 -15  -1   3    0.21    1.87
 -15  -1   3   -3.23    2.23
 -15   1   3    1.48    2.59
 -15   1   3   -0.75    1.68
 -15   1   3    3.43    2.95
 -14  -1   3   -2.12    1.74
 -14  -1   3    3.78    2.20
 -14  -1   3    0.91    2.37
 -14   1   3    2.37    2.46
 -14   1   3   -2.36    1.82
 -14   1   3    1.04    2.76
 -14   1   3    0.54    1.55
 -13  -1   3    6.05    2.22
 -13  -1   3    4.32    1.82
 -13  -1   3    0.19    1.94
 -13  -1   3    0.61    1.87
 -13   1   3    3.61    2.13
 -13   1   3    4.05    2.28
 -13   1   3    5.12    2.36
 -13   1   3    0.35    1.25
 -12  -1   3   -0.03    1.53
 -12  -1   3    0.43    1.63
 -12  -1   3   -0.57    1.24
 -12   1   3   -4.18    1.74
 -12   1   3   -0.92    1.02
 -12   1   3    2.92    1.72
 -12   1   3   -1.12    1.89
 -11  -1   3    1.71    1.55
 -11  -1   3   -0.80    1.22
 -11  -1   3    0.60    1.41
 -11  -1   3    1.59    1.67
 -11   1   3   -2.77    1.51
 -11   1   3   -1.25    0.92
 -11   1   3    1.35    1.87
 -11   1   3    0.37    1.49
 -10  -1   3    1.82    1.31
 -10  -1   3    0.66    1.36
 -10  -1   3    0.80    1.39
 -10  -1   3    3.41    1.55
 -10   1   3   -0.71    1.38
 -10   1   3    0.03    1.42
 -10   1   3    4.18    1.48
 -10   1   3    1.94    0.88
  -9  -1   3    3.49    1.36
  -9  -1   3    4.28    1.41
  -9   1   3    7.58    1.83
  -9   1   3    7.45    1.82
  -9   1   3    2.59    1.46
  -9   1   3    5.48    1.00
  -8  -1   3    3.24    1.13
  -8  -1   3    2.22    1.10
  -8   1   3    2.48    1.24
  -8   1   3    2.73    1.14
  -8   1   3    1.33    1.43
  -7  -1   3   14.33    1.56
  -7  -1   3   13.16    1.58
  -7   1   3   14.12    1.67
  -7   1   3   10.49    2.00
  -7   1   3   12.24    1.29
  -6  -1   3    1.08    0.74
  -6  -1   3    0.64    0.71
  -6   1   3    0.43    0.87
  -6   1   3    0.58    0.82
  -6   1   3    1.57    0.68
  -5  -1   3   12.63    1.12
  -5  -1   3   11.27    1.03
  -5   1   3   15.05    0.95
  -5   1   3   10.69    1.41
  -5   1   3   12.76    1.22
  -4  -1   3    5.82    0.88
  -4  -1   3    6.17    0.83
  -4   1   3    5.07    0.65
  -4   1   3    5.38    0.89
  -3  -1   3  256.85    8.67
  -3   1   3  257.43    8.73
  -3   1   3  236.38    8.78
  -3   1   3  256.84    8.39
   3   1  -3  259.76    8.78
   2  -1  -3  294.46   10.24
  -2  -1   3  299.14   10.11
   2   1  -3  316.70   10.43
   2   1  -3  286.64   10.18
  -2   1   3  306.68   10.11
   1  -1  -3    6.62    1.23
   1  -1  -3    5.11    0.52
  -1  -1   3    7.04    0.74
   1  -1  -3    6.52    0.89
  -1   1   3    7.31    0.82
   1   1  -3    5.97    1.15
   1   1  -3    8.22    0.99
   0  -1  -3  453.97   15.72
   0  -1  -3  483.39   16.14
   0  -1   3  479.37   15.94
   0  -1  -3  480.34   16.02
   0   1  -3  490.05   16.31
   0   1  -3  491.12   16.18
   0   1   3  478.37   15.74
   0   1  -3  505.85   16.30
   1  -1   3  333.36   11.54
  -1  -1  -3  348.78   11.79
  -1  -1  -3  339.36   11.32
  -1  -1  -3  346.98   11.73
  -1   1  -3  350.33   11.84
  -1   1  -3  354.30   12.09
  -1   1  -3  347.13   11.96
   1   1   3  344.33   11.31
  -1   1  -3  348.58   11.97
  -2  -1  -3   47.05    2.28
  -2  -1  -3   46.04    2.23
  -2   1  -3   42.93    2.15
   2   1   3   40.94    1.63
  -2   1  -3   44.10    2.67
  -2   1  -3   45.58    2.88
  -2   1  -3   44.25    2.78
  -3  -1  -3   -0.18    0.73
  -3  -1  -3    0.31    0.85
  -3   1  -3   -1.35    1.12
   3   1   3    0.50    0.31
  -3   1  -3    0.07    0.66
  -3   1  -3   -1.16    1.07
  -4  -1  -3    2.54    1.14
  -4  -1  -3    1.34    0.91
  -4   1  -3    3.48    1.45
   4   1   3    0.71    0.37
  -4   1  -3    0.90    1.58
  -4   1  -3    1.16    0.77
  -5  -1  -3    2.94    1.44
  -5  -1  -3    2.64    1.04
  -5   1  -3    1.86    1.69
   5   1   3    2.40    0.44
  -5   1  -3    2.80    1.44
  -5   1  -3    3.95    0.99
  -6  -1  -3   53.61    3.10
  -6  -1  -3   46.24    2.70
  -6   1  -3   49.55    3.05
  -6   1  -3   47.43    2.63
  -6   1  -3   39.12    3.41
  -7  -1  -3   44.33    2.72
  -7  -1  -3   37.82    3.02
  -7   1  -3   40.60    3.03
  -7   1  -3   43.26    2.61
  -7   1  -3   40.42    3.60
  -8  -1  -3   -1.33    1.70
  -8  -1  -3    0.56    1.37
  -8   1  -3   -1.27    1.07
  -8   1  -3    1.53    1.88
  -8   1  -3    0.04    2.31
  -9  -1  -3    7.51    1.05
  -9  -1  -3    9.70    2.54
  -9  -1  -3   12.09    2.24
  -9   1  -3    6.63    2.77
  -9   1  -3    8.28    2.25
  -9   1  -3    7.31    2.72
 -10  -1  -3    1.07    1.77
 -10  -1  -3    1.68    0.80
 -10   1  -3   -0.21    2.07
 -10   1  -3    2.38    2.76
 -10   1  -3    1.38    1.41
 -11  -1  -3   -1.24    2.30
 -11  -1  -3    2.31    0.87
 -11  -1  -3    0.14    1.84
 -11   1  -3    2.84    2.27
 -11   1  -3    4.05    1.63
 -11   1  -3    2.62    3.11
 -12  -1  -3    0.90    2.81
 -12  -1  -3    0.83    2.03
 -12   1  -3    1.36    3.18
 -12   1  -3    3.15    2.66
 -12   1  -3   -0.30    1.56
 -13  -1  -3    2.21    2.57
 -13  -1  -3   -0.59    3.04
 -13   1  -3   -0.54    1.68
 -13   1  -3   -0.61    2.81
 -13   1  -3   -1.89    3.37
 -14  -1  -3    2.66    3.78
 -14  -1  -3    2.15    2.94
 -14   1  -3    1.00    1.94
 -14   1  -3   -0.64    3.24
 -14   1  -3    0.70    3.86
 -15  -1  -3    1.85    2.82
 -15  -1  -3   -0.47    3.58
 -15   1  -3   -2.79    3.37
 -15   1  -3   -4.00    4.48
 -16  -1  -3   10.96    5.62
 -16  -1  -3   -0.40    4.07
 -16   1  -3   -3.14    4.00
 -17  -2   3    1.24    3.20
 -17  -2   3    4.53    2.69
 -17  -2   3    1.21    2.15
 -17   2   3   -0.87    2.64
 -17   2   3    0.78    3.57
 -16  -2   3   -0.65    2.16
 -16  -2   3   -5.60    2.91
 -16  -2   3    0.46    2.21
 -16   2   3    4.09    2.96
 -16   2   3    2.46    3.72
 -15  -2   3    1.95    2.03
 -15  -2   3    2.26    2.30
 -15  -2   3    3.25    2.80
 -15  -2   3    3.67    2.47
 -15   2   3    3.66    2.75
 -15   2   3    0.27    3.47
 -14  -2   3    7.00    2.42
 -14  -2   3    5.64    2.02
 -14  -2   3    9.79    2.43
 -14  -2   3    4.91    2.74
 -14   2   3    6.77    3.17
 -13  -2   3   12.22    2.27
 -13  -2   3   14.13    2.49
 -13  -2   3   17.20    2.96
 -13  -2   3   16.01    2.52
 -13   2   3   21.15    3.13
 -13   2   3   11.43    1.72
 -13   2   3   10.60    3.27
 -13   2   3   11.72    2.87
 -12  -2   3    5.84    2.12
 -12  -2   3   10.07    2.05
 -12  -2   3   11.75    2.14
 -12  -2   3    9.53    2.06
 -12   2   3    5.84    2.57
 -12   2   3   11.58    2.74
 -12   2   3    7.60    1.30
 -12   2   3    6.08    2.10
 -11  -2   3    0.64    1.46
 -11  -2   3    0.23    1.34
 -11  -2   3    2.83    1.54
 -11  -2   3    1.98    1.36
 -11   2   3   -0.06    1.98
 -11   2   3   -0.06    1.73
 -11   2   3    1.18    0.84
 -11   2   3    2.50    1.86
 -10  -2   3    1.91    1.17
 -10  -2   3    0.30    1.17
 -10  -2   3    0.64    1.32
 -10   2   3    2.61    1.81
 -10   2   3   -1.85    1.45
 -10   2   3    1.20    0.78
 -10   2   3   -0.93    1.31
  -9  -2   3   40.49    2.78
  -9  -2   3   34.87    2.46
  -9   2   3   40.50    2.86
  -9   2   3   43.41    3.53
  -9   2   3   34.31    1.79
  -9   2   3   35.04    2.90
  -8  -2   3  119.26    5.24
  -8  -2   3  123.51    5.10
  -8   2   3  122.04    5.67
  -8   2   3  123.16    5.37
  -8   2   3  124.43    5.17
  -8   2   3  110.00    4.27
  -7  -2   3   71.01    3.31
  -7  -2   3   68.31    3.39
  -7   2   3   69.95    3.50
  -7   2   3   64.48    3.80
  -7   2   3   66.01    3.16
  -6  -2   3    3.14    0.89
  -6   2   3    2.09    0.81
  -6   2   3    4.17    1.00
  -6   2   3    3.58    1.10
  -5  -2   3   12.55    1.09
   5  -2  -3   10.38    0.69
  -5  -2   3   10.70    1.11
  -5   2   3   11.74    1.15
  -5   2   3   11.64    1.15
  -5   2   3    8.83    1.08
  -5   2   3    8.60    1.41
  -4  -2   3  131.27    4.77
   4  -2  -3  126.25    4.50
  -4  -2   3  122.23    4.95
  -4   2   3  125.51    4.57
  -4   2   3  134.63    4.95
   4   2  -3  126.78    5.03
  -4   2   3  126.91    5.31
  -4   2   3  134.19    4.44
  -3  -2   3  407.18   13.81
   3  -2  -3  410.48   13.70
  -3   2   3  431.05   13.69
  -3   2   3  408.00   13.70
  -3   2   3  399.29   13.89
  -3   2   3  421.37   14.31
   3   2  -3  408.82   14.09
   2  -2  -3  356.16   12.06
  -2  -2   3  359.01   12.04
  -2   2   3  358.16   11.78
  -2   2   3  356.83   12.41
  -2   2   3  357.31   12.03
   2   2  -3  359.60   12.32
  -1  -2   3  375.71   12.70
   1  -2  -3  357.28   12.80
   1  -2  -3  391.67   12.76
   1  -2  -3  389.00   12.44
  -1   2   3  376.57   12.41
   1   2  -3  384.28   13.03
  -1   2   3  369.33   12.94
   1   2  -3  389.47   13.04
  -1   2   3  364.17   12.44
  -1   2   3  389.62   12.59
   0  -2  -3  614.26   20.96
   0  -2  -3  617.97   20.80
   0  -2   3  651.71   21.17
   0  -2  -3  666.32   21.23
   0   2   3  640.39   21.26
   0   2   3  636.19   20.85
   0   2  -3  659.54   21.54
   0   2  -3  648.12   21.49
   0   2  -3  665.40   21.45
   0   2   3  612.83   20.96
  -1  -2  -3  547.39   18.12
  -1  -2  -3  565.21   18.00
   1  -2   3  531.10   17.98
  -1  -2  -3  525.17   17.51
  -1   2  -3  543.74   18.26
  -1   2  -3  554.17   18.48
   1   2   3  530.04   17.53
  -1   2  -3  548.18   18.50
  -1   2  -3  534.05   18.33
  -2  -2  -3   71.42    3.01
  -2  -2  -3   73.18    3.08
  -2   2  -3   66.98    3.56
  -2   2  -3   72.94    3.65
  -2   2  -3   68.13    3.21
   2   2   3   69.81    2.66
  -2   2  -3   69.83    3.26
  -3  -2  -3   18.13    1.43
  -3  -2  -3   18.70    1.49
   3   2   3   18.86    0.86
  -3   2  -3   22.41    2.43
  -3   2  -3   14.23    1.49
  -3   2  -3   19.53    2.23
  -3   2  -3   20.49    2.39
  -4  -2  -3   23.03    1.63
  -4  -2  -3   20.67    1.68
  -4   2  -3   25.65    2.89
  -4   2  -3   24.50    2.56
  -4   2  -3   21.73    2.74
  -4   2  -3   24.30    1.83
   4   2   3   21.70    1.05
  -5  -2  -3   54.16    2.86
  -5  -2  -3   59.35    3.07
  -5   2  -3   56.37    3.03
  -5   2  -3   57.09    3.60
  -5   2  -3   60.36    3.99
  -6  -2  -3  169.66    6.55
  -6  -2  -3  164.05    6.62
  -6   2  -3  160.48    6.88
  -6   2  -3  156.50    7.36
  -6   2  -3  165.24    6.61
  -7  -2  -3   66.52    3.88
  -7  -2  -3   69.44    3.72
  -7   2  -3   82.19    4.01
  -7   2  -3   68.01    4.90
  -7   2  -3   64.32    4.31
  -8  -2  -3   14.67    2.13
  -8  -2  -3   15.55    2.49
  -8   2  -3    7.86    3.21
  -8   2  -3   18.72    3.05
  -8   2  -3   13.43    2.14
  -9  -2  -3   16.16    2.69
  -9  -2  -3   16.67    2.35
  -9   2  -3   14.72    3.54
  -9   2  -3   17.61    2.35
  -9   2  -3   16.85    3.05
 -10  -2  -3   37.82    3.12
 -10  -2  -3   23.18    3.36
 -10   2  -3   22.59    4.58
 -10   2  -3   19.87    3.44
 -10   2  -3   29.27    2.92
 -11  -2  -3   19.10    2.89
 -11  -2  -3   23.64    3.58
 -11   2  -3   15.96    2.57
 -11   2  -3   16.29    4.49
 -11   2  -3   16.00    3.22
 -12  -2  -3    1.11    2.40
 -12  -2  -3   -3.18    2.55
 -12   2  -3    0.92    2.85
 -12   2  -3    4.14    3.81
 -12   2  -3    3.98    2.00
 -13  -2  -3    1.96    3.00
 -13  -2  -3    2.06    2.63
 -13   2  -3    0.80    1.90
 -13   2  -3    0.39    3.24
 -13   2  -3   -1.88    3.85
 -14  -2  -3    2.81    2.91
 -14   2  -3   -2.15    3.50
 -14   2  -3   -4.45    3.41
 -14   2  -3   10.50    5.14
 -15  -2  -3    1.45    3.15
 -15  -2  -3    0.04    3.66
 -15   2  -3    0.33    4.59
 -15   2  -3   -2.71    2.46
 -16  -2  -3    3.19    3.86
 -16  -2  -3    2.81    3.11
 -16   2  -3    6.43    5.30
 -16   2  -3   -2.71    4.44
 -17  -3   3    1.46    3.69
 -17  -3   3   -6.37    1.85
 -17  -3   3    2.53    2.69
 -17   3   3   -4.99    2.82
 -17   3   3    0.94    4.86
 -17   3   3    7.90    5.80
 -16  -3   3    3.68    3.13
 -16  -3   3    1.58    2.92
 -16  -3   3    2.37    2.54
 -16   3   3    5.36    3.30
 -16   3   3    1.24    4.15
 -15  -3   3   -0.12    2.38
 -15  -3   3   -2.50    2.01
 -15  -3   3    2.12    3.10
 -15   3   3    1.63    3.10
 -15   3   3    3.15    4.09
 -14  -3   3    2.55    2.01
 -14  -3   3    1.81    1.60
 -14  -3   3    1.21    2.62
 -14  -3   3    1.92    2.13
 -14   3   3    1.06    3.59
 -14   3   3    1.45    2.92
 -13  -3   3    0.02    1.94
 -13  -3   3    1.89    1.52
 -13  -3   3    2.20    1.97
 -13  -3   3    3.56    2.07
 -13   3   3    2.33    3.24
 -13   3   3   -0.20    2.31
 -12  -3   3    1.45    1.70
 -12  -3   3   -0.29    1.32
 -12  -3   3   -0.53    1.57
 -12  -3   3    1.59    1.89
 -12   3   3   -2.34    2.75
 -12   3   3   -4.71    2.04
 -11  -3   3   -0.11    1.52
 -11  -3   3   -0.69    1.14
 -11  -3   3    0.51    1.69
 -11   3   3   -1.79    2.39
 -11   3   3   -0.29    1.61
 -11   3   3    3.48    2.39
 -10  -3   3   -0.22    1.20
 -10  -3   3    0.84    1.51
 -10   3   3    2.12    2.55
 -10   3   3    1.58    2.12
 -10   3   3   -1.28    1.31
  -9  -3   3    2.52    1.47
  -9  -3   3    4.00    1.28
  -9   3   3    3.74    1.59
  -9   3   3    3.06    2.06
  -9   3   3    4.53    2.39
  -8  -3   3    3.29    1.37
  -8  -3   3    2.44    1.03
  -8   3   3   -0.06    1.62
  -8   3   3    0.67    2.01
  -8   3   3    2.81    1.53
  -7  -3   3    6.63    1.50
  -7  -3   3    6.82    1.30
  -7   3   3    8.73    1.55
  -7   3   3    8.86    1.95
  -7   3   3   12.02    2.99
  -7   3   3    7.18    1.96
  -6  -3   3    1.17    0.86
  -6  -3   3    1.06    0.97
  -6   3   3    3.38    1.49
  -6   3   3   -0.84    2.06
  -6   3   3    3.40    1.98
  -6   3   3    0.89    1.13
  -5  -3   3   12.53    1.54
   5  -3  -3   11.90    0.67
  -5  -3   3   14.74    1.19
   5   3  -3   13.13    1.42
  -5   3   3   13.06    1.15
  -5   3   3   14.69    1.90
  -5   3   3   13.50    1.89
  -5   3   3   11.19    1.70
  -4  -3   3    1.52    0.70
  -4  -3   3    1.74    0.93
   4  -3  -3    1.69    0.60
  -4   3   3    3.14    1.02
   4   3  -3    2.36    0.92
  -4   3   3    1.86    1.11
  -4   3   3    1.42    0.97
  -4   3   3    1.30    0.29
  -3  -3   3  184.46    6.52
  -3   3   3  165.71    6.16
  -3   3   3  189.66    7.15
  -3   3   3  182.00    6.63
   3   3  -3  186.78    6.97
  -3   3   3  187.89    6.53
   2  -3  -3  197.02    6.42
   2  -3  -3  201.60    6.86
  -2  -3   3  190.31    6.93
   2   3  -3  193.43    7.38
  -2   3   3  195.91    6.84
  -2   3   3  199.99    6.95
  -2   3   3  192.12    7.40
  -1  -3   3    2.52    0.69
   1  -3  -3    1.62    0.70
   1  -3  -3    1.46    0.41
   1   3  -3    2.64    0.89
  -1   3   3    1.72    0.59
   1   3  -3    1.22    0.94
  -1   3   3    1.13    0.52
  -1   3   3    1.42    0.81
   0  -3  -3  288.19    9.81
   0  -3   3  291.38    9.84
   0  -3  -3  266.00    9.35
   0  -3  -3  281.97    9.56
   0   3  -3  283.35   10.30
   0   3  -3  282.04   10.22
   0   3   3  280.08    9.66
   0   3  -3  290.38   10.10
   0   3   3  289.95   10.01
   1  -3   3  228.39    8.27
  -1  -3  -3  242.89    8.40
  -1  -3  -3  220.05    7.67
  -1  -3  -3  236.32    8.18
   1   3   3  241.77    8.33
  -1   3  -3  240.06    8.90
  -1   3  -3  239.85    8.52
  -1   3  -3  239.86    8.79
  -2  -3  -3   24.80    1.69
  -2  -3  -3   25.76    1.57
   2   3   3   28.30    1.54
  -2   3  -3   29.04    2.44
  -2   3  -3   27.73    2.43
  -2   3  -3   27.99    2.04
  -2   3  -3   21.13    1.94
  -3  -3  -3   -0.06    0.67
  -3  -3  -3   -0.46    0.69
  -3   3  -3    0.66    1.59
  -3   3  -3    1.13    0.96
   3   3   3   -0.38    0.41
  -3   3  -3   -1.38    1.58
  -3   3  -3    0.85    1.18
  -4  -3  -3   -0.53    0.86
  -4  -3  -3   -0.46    0.84
  -4   3  -3    2.03    1.54
  -4   3  -3   -2.10    1.88
  -4   3  -3   -0.77    1.81
  -5  -3  -3    2.96    1.09
  -5  -3  -3    1.85    1.20
  -5   3  -3    1.44    1.95
   5   3   3    2.66    0.40
  -5   3  -3   -1.70    2.68
  -5   3  -3    0.38    1.99
  -5   3  -3    4.45    1.48
  -6  -3  -3   26.95    2.33
  -6  -3  -3   28.20    2.24
  -6   3  -3   23.99    2.46
  -6   3  -3   23.13    3.80
  -6   3  -3   20.55    3.78
  -6   3  -3   28.25    3.27
  -7  -3  -3   33.00    2.76
  -7  -3  -3   40.07    2.75
  -7   3  -3   34.43    4.44
  -7   3  -3   31.95    4.67
  -7   3  -3   30.87    3.83
  -7   3  -3   33.70    3.13
  -8  -3  -3   -1.17    1.56
  -8  -3  -3    1.70    1.53
  -8   3  -3    0.66    3.71
  -8   3  -3   -0.95    3.20
  -8   3  -3    2.89    1.78
  -8   3  -3    3.34    2.96
  -9  -3  -3    2.11    1.67
  -9  -3  -3    6.92    1.93
  -9   3  -3    6.34    2.13
  -9   3  -3    1.97    3.46
  -9   3  -3    5.09    3.91
  -9   3  -3    0.59    3.06
 -10  -3  -3    1.54    1.82
 -10  -3  -3   -0.17    2.00
 -10   3  -3    0.70    4.11
 -10   3  -3   -1.23    4.11
 -10   3  -3    1.14    1.74
 -11  -3  -3    0.52    2.09
 -11  -3  -3    2.04    2.30
 -11   3  -3   -0.85    4.37
 -11   3  -3   -1.89    3.19
 -11   3  -3    1.94    2.18
 -11   3  -3    5.97    4.10
 -12  -3  -3    1.85    2.30
 -12  -3  -3    2.06    2.54
 -12   3  -3   -4.50    4.26
 -12   3  -3    3.45    3.59
 -12   3  -3   -4.86    3.66
 -13  -3  -3   -1.21    2.84
 -13  -3  -3    2.54    2.41
 -13   3  -3    8.08    3.73
 -13   3  -3    2.35    4.91
 -13   3  -3    2.30    2.51
 -13   3  -3   -5.17    4.75
 -14  -3  -3    0.59    2.65
 -14  -3  -3    0.93    3.70
 -14   3  -3    0.01    2.57
 -14   3  -3    8.05    5.96
 -14   3  -3   -2.71    4.56
 -15  -3  -3   -2.07    3.10
 -15  -3  -3   -0.74    2.77
 -15   3  -3    1.08    5.21
 -15   3  -3    2.22    2.67
 -15   3  -3   -0.08    5.02
 -16  -3  -3   -0.03    3.53
 -16  -3  -3    0.60    3.39
 -16   3  -3    5.75    5.53
 -16   3  -3    3.41    5.12
 -16  -4   3   -6.96    2.97
 -16  -4   3    1.47    2.59
 -16  -4   3    4.95    2.34
 -16   4   3   -2.49    5.21
 -16   4   3   -2.80    2.91
 -15  -4   3    1.93    2.60
 -15  -4   3   -1.68    1.85
 -15   4   3   -6.50    4.19
 -15   4   3   -0.99    3.17
 -15   4   3    8.26    5.09
 -14  -4   3    1.12    1.94
 -14  -4   3    2.27    2.47
 -14  -4   3   -1.54    2.38
 -14   4   3    0.75    2.72
 -14   4   3    5.05    5.51
 -14   4   3    8.53    4.35
 -13  -4   3   -1.46    1.72
 -13  -4   3    0.22    1.33
 -13  -4   3    0.69    1.77
 -13  -4   3   -3.86    1.72
 -13   4   3    4.07    5.24
 -13   4   3   -3.88    3.49
 -13   4   3    2.10    2.51
 -12  -4   3    9.88    2.35
 -12  -4   3    3.47    1.52
 -12  -4   3    1.07    1.44
 -12  -4   3    0.90    1.94
 -12   4   3    2.46    2.55
 -12   4   3    2.33    3.56
 -12   4   3    9.66    5.68
 -11  -4   3   30.78    2.72
 -11  -4   3   21.56    3.16
 -11  -4   3   28.16    3.32
 -11   4   3   19.87    4.05
 -11   4   3   25.89    3.78
 -11   4   3   12.48    4.66
 -10  -4   3   42.09    2.74
 -10  -4   3   39.92    3.38
 -10   4   3   43.76    5.71
 -10   4   3   31.29    4.04
  -9  -4   3   19.50    1.76
  -9  -4   3   12.91    2.19
  -9   4   3    8.15    2.78
  -9   4   3   15.30    2.76
  -9   4   3   13.36    3.85
  -8  -4   3    0.68    1.03
  -8  -4   3    3.35    1.51
  -8   4   3    4.54    2.14
  -8   4   3    6.53    3.10
  -8   4   3    1.93    2.09
  -7  -4   3   37.06    2.73
  -7  -4   3   38.24    2.21
  -7   4   3   43.24    3.44
  -7   4   3   36.23    2.54
  -6  -4   3  155.80    6.52
  -6  -4   3  163.54    6.04
   6  -4  -3  147.48    5.38
  -6   4   3  161.45    6.80
  -6   4   3  160.23    7.22
  -5  -4   3  192.14    7.60
  -5  -4   3  205.77    7.14
  -5   4   3  197.90    7.59
   5   4  -3  190.06    7.72
  -5   4   3  183.18    8.04
   4  -4  -3   74.80    2.98
  -4  -4   3   77.23    3.26
   4  -4  -3   73.65    2.59
  -4  -4   3   82.70    3.78
   4   4  -3   80.58    3.91
  -4   4   3   82.03    3.66
  -4   4   3   71.76    4.11
  -3  -4   3   18.24    1.32
   3  -4  -3   19.22    1.31
   3  -4  -3   17.10    0.74
   3   4  -3   17.09    1.82
  -3   4   3   19.54    2.50
  -3   4   3   15.48    1.57
   2  -4  -3   32.18    1.36
  -2  -4   3   33.31    1.83
   2  -4  -3   33.58    1.76
   2   4  -3   33.15    2.42
  -2   4   3   34.99    2.49
  -2   4   3   33.14    1.96
  -1  -4   3   31.78    1.87
   1  -4  -3   33.62    1.50
   1  -4  -3   36.46    1.86
  -1   4   3   29.92    2.27
   1   4  -3   31.32    2.38
  -1   4   3   33.02    1.88
   0  -4   3    9.31    1.22
   0  -4  -3   11.96    1.38
   0  -4  -3    9.21    0.90
   0   4  -3   10.30    1.76
   0   4   3   12.03    1.64
   0   4   3    8.84    1.14
  -1  -4  -3    9.97    1.02
   1  -4   3   10.28    1.39
  -1  -4  -3    7.56    0.53
  -1  -4  -3   11.00    1.37
  -1   4  -3    9.64    1.73
   1   4   3    8.92    1.34
  -1   4  -3   10.50    1.69
  -2  -4  -3  173.79    6.25
  -2   4  -3  154.15    6.82
  -2   4  -3  169.09    6.43
   2   4   3  172.07    6.24
  -2   4  -3  162.07    7.08
  -3  -4  -3  449.65   15.29
  -3  -4  -3  431.71   15.09
  -3   4  -3  431.20   15.70
   3   4   3  449.01   14.73
  -3   4  -3  422.73   15.95
  -3   4  -3  439.40   15.13
  -4  -4  -3  358.42   12.57
  -4  -4  -3  342.02   12.39
  -4   4  -3  342.51   13.16
  -4   4  -3  351.04   13.47
  -4   4  -3  342.18   12.96
   4   4   3  354.71   11.60
  -4   4  -3  349.85   12.32
  -5  -4  -3   77.45    3.79
  -5  -4  -3   73.29    3.83
  -5   4  -3   77.80    5.30
  -5   4  -3   71.35    4.90
  -5   4  -3   71.90    4.25
  -5   4  -3   74.72    3.82
  -6  -4  -3    3.27    1.46
  -6  -4  -3    7.96    1.59
  -6   4  -3    4.87    3.05
  -6   4  -3    3.90    1.82
  -6   4  -3    3.83    1.70
  -6   4  -3    4.91    3.04
  -7  -4  -3   14.84    2.24
  -7  -4  -3   13.64    2.20
  -7   4  -3   16.50    3.87
  -7   4  -3   10.40    3.97
  -7   4  -3   15.30    2.51
  -7   4  -3   16.35    2.50
  -8  -4  -3   34.72    2.87
  -8  -4  -3   29.23    2.93
  -8   4  -3   24.23    2.94
  -8   4  -3   26.16    4.74
  -8   4  -3   29.32    3.15
  -8   4  -3   22.86    4.69
  -9  -4  -3   17.46    2.67
  -9  -4  -3   14.82    2.82
  -9   4  -3   18.51    4.80
  -9   4  -3   15.14    4.67
  -9   4  -3   19.44    2.89
  -9   4  -3   14.52    2.80
 -10  -4  -3    1.98    1.94
 -10  -4  -3    0.07    2.10
 -10   4  -3   -0.38    5.29
 -10   4  -3   -2.06    2.20
 -10   4  -3   12.90    4.82
 -11  -4  -3    0.02    1.98
 -11  -4  -3    1.01    2.41
 -11   4  -3    1.49    2.26
 -11   4  -3   -1.37    4.44
 -11   4  -3   -4.75    2.35
 -11   4  -3    0.04    4.26
 -12  -4  -3    0.99    2.92
 -12  -4  -3    5.62    2.55
 -12   4  -3    5.54    5.21
 -12   4  -3    1.98    4.99
 -12   4  -3    6.59    2.86
 -13  -4  -3    3.41    2.76
 -13   4  -3    3.36    5.45
 -13   4  -3   -3.64    4.91
 -13   4  -3    2.43    2.66
 -14  -4  -3    0.48    3.20
 -14  -4  -3    0.42    2.82
 -14   4  -3   -3.07    4.88
 -14   4  -3    6.74    2.88
 -14   4  -3    1.74    6.00
 -15  -4  -3    3.60    3.19
 -15  -4  -3    2.19    3.48
 -15   4  -3    2.98    2.86
 -15   4  -3   -8.01    4.82
 -15   4  -3   -0.04    5.66
 -16  -5   3    5.39    2.34
 -16  -5   3    4.94    3.07
 -16  -5   3    3.55    3.10
 -16   5   3   -2.47    2.92
 -16   5   3    0.11    5.01
 -15  -5   3    0.26    2.52
 -15  -5   3    1.25    1.86
 -15  -5   3   -0.05    2.70
 -15   5   3   -5.18    5.06
 -15   5   3    0.40    3.32
 -14  -5   3   -1.66    1.70
 -14  -5   3    3.20    2.73
 -14   5   3    6.00    5.84
 -14   5   3    9.75    5.66
 -13  -5   3    0.58    2.19
 -13  -5   3    1.24    1.68
 -13  -5   3   -1.68    2.14
 -13   5   3    0.51    3.11
 -13   5   3   -6.02    4.84
 -13   5   3    0.60    3.72
 -12  -5   3    1.44    2.16
 -12  -5   3   -0.22    1.47
 -12  -5   3   -2.54    1.76
 -12   5   3   -0.08    3.11
 -12   5   3   -0.62    2.35
 -12   5   3    1.35    4.03
 -11  -5   3   -0.33    1.26
 -11  -5   3   -1.37    1.79
 -11  -5   3    1.13    1.94
 -11   5   3    2.10    4.11
 -11   5   3    5.77    4.60
 -11   5   3   -1.43    2.15
 -10  -5   3   -0.17    1.73
 -10  -5   3   -1.17    1.21
 -10  -5   3   -0.78    1.59
 -10   5   3    3.58    2.23
 -10   5   3   -0.90    3.51
 -10   5   3    2.29    2.33
  -9  -5   3    1.39    1.12
  -9  -5   3    3.08    1.73
  -9   5   3    0.46    2.00
  -9   5   3   -5.77    2.66
  -8  -5   3    1.86    1.46
  -8  -5   3    1.59    0.97
  -8   5   3   -0.32    2.48
  -8   5   3   -0.27    1.92
  -7  -5   3    4.15    1.04
  -7  -5   3    6.46    1.69
  -7   5   3   -0.62    1.96
  -7   5   3    3.69    2.05
  -6  -5   3    0.49    0.84
  -6  -5   3    0.01    1.23
   6  -5  -3   -0.28    0.41
  -6   5   3    0.11    2.00
   6   5  -3   -0.13    1.22
  -6   5   3   -1.40    1.54
  -5  -5   3    8.66    1.18
  -5  -5   3    3.55    1.45
   5  -5  -3    6.37    0.91
   5   5  -3    7.81    1.65
  -5   5   3    3.73    1.94
  -5   5   3    6.24    1.74
  -4  -5   3    0.82    1.22
   4  -5  -3    1.63    0.39
   4  -5  -3    1.22    0.63
  -4  -5   3    1.75    0.90
   4   5  -3    2.17    1.28
  -4   5   3    2.01    1.63
  -4   5   3    0.36    1.33
  -3  -5   3   70.31    3.18
   3  -5  -3   62.54    2.81
   3  -5  -3   75.78    2.97
  -3   5   3   69.49    3.55
  -3   5   3   70.68    4.16
   3   5  -3   71.77    3.92
   2  -5  -3   83.36    3.25
  -2  -5   3   89.78    3.82
   2  -5  -3   91.36    3.62
  -2   5   3   83.39    4.52
  -2   5   3   90.22    3.99
   2   5  -3   87.94    4.50
   2   5  -3   86.76    4.29
   1  -5  -3    1.49    0.60
  -1  -5   3    1.79    0.91
   1  -5  -3    2.84    0.93
  -1   5   3    0.23    0.92
   1   5  -3    1.99    1.39
   1   5  -3    1.21    1.48
  -1   5   3    2.47    1.65
   0  -5   3  108.85    4.61
   0  -5  -3  110.99    4.31
   0  -5  -3  112.61    4.58
   0   5   3  111.06    5.03
   0   5  -3  111.33    5.27
   0   5  -3  107.18    5.38
   0   5   3  119.87    4.78
  -1  -5  -3   94.67    3.64
  -1  -5  -3   93.81    4.14
   1  -5   3   98.81    4.12
  -1  -5  -3   95.58    3.90
  -1   5  -3   90.85    4.94
   1   5   3   95.50    4.22
  -1   5  -3   86.90    4.72
   1   5   3   95.13    4.37
   2  -5   3   16.08    1.75
  -2  -5  -3   14.07    1.58
  -2  -5  -3   11.16    0.56
  -2  -5  -3   14.13    1.80
   2   5   3   13.72    1.66
  -2   5  -3   16.81    2.31
  -2   5  -3   12.26    2.46
  -3  -5  -3   -0.11    0.86
  -3  -5  -3   -1.89    0.92
  -3   5  -3   -0.32    1.37
  -3   5  -3    0.81    1.99
   3   5   3    0.69    0.85
  -4  -5  -3    0.42    1.18
  -4  -5  -3    0.31    1.01
  -4   5  -3    0.47    2.37
   4   5   3   -0.16    0.70
  -4   5  -3    0.59    1.52
  -5  -5  -3    0.40    1.17
  -5  -5  -3    0.78    1.33
  -5   5  -3   -0.40    2.58
  -5   5  -3    2.78    1.92
  -6  -5  -3   11.67    2.08
  -6  -5  -3   15.54    2.31
  -6   5  -3   16.32    2.61
  -6   5  -3   21.08    4.09
  -6   5  -3   19.86    3.70
  -7  -5  -3   12.32    2.41
  -7  -5  -3   15.71    2.67
  -7   5  -3    9.33    3.77
  -7   5  -3   16.84    2.83
  -7   5  -3   11.19    1.64
  -7   5  -3   11.46    3.76
  -8  -5  -3   -0.48    1.67
  -8  -5  -3    2.25    1.80
  -8   5  -3    1.26    3.48
  -8   5  -3   -2.16    1.11
  -8   5  -3   -3.22    3.84
  -9  -5  -3    2.87    2.06
  -9  -5  -3    1.48    1.83
  -9   5  -3    0.94    4.05
  -9   5  -3    3.57    2.41
  -9   5  -3    7.39    4.85
  -9   5  -3    2.64    1.28
 -10  -5  -3   -0.56    1.88
 -10  -5  -3    3.07    2.24
 -10   5  -3   -0.24    2.09
 -10   5  -3    7.69    4.70
 -10   5  -3   -3.43    4.21
 -11  -5  -3    1.94    2.24
 -11  -5  -3    3.09    2.70
 -11   5  -3   -0.14    2.29
 -11   5  -3    2.93    4.85
 -11   5  -3   -0.47    5.29
 -12  -5  -3    2.75    2.96
 -12  -5  -3    1.31    2.58
 -12   5  -3   10.16    6.13
 -12   5  -3    3.38    5.55
 -12   5  -3    3.45    2.99
 -13  -5  -3    8.49    3.51
 -13  -5  -3   -6.02    2.33
 -13   5  -3   -3.71    6.01
 -13   5  -3    0.49    2.93
 -13   5  -3   -7.18    5.76
 -14  -5  -3    7.60    3.16
 -14  -5  -3   -3.59    3.16
 -14   5  -3    1.84    6.36
 -14   5  -3    4.29    6.28
 -15  -5  -3    3.75    3.65
 -15  -5  -3    2.96    3.35
 -15   5  -3    0.49    6.33
 -15   5  -3    0.21    5.38
 -15   5  -3    2.22    2.97
 -15  -6   3    0.12    2.77
 -15  -6   3   -1.12    3.10
 -15  -6   3   -2.22    2.16
 -15   6   3    0.82    3.74
 -15   6   3    8.77    5.10
 -14  -6   3   -2.58    2.54
 -14  -6   3    4.02    2.96
 -14  -6   3    3.07    2.03
 -14   6   3   -4.48    4.48
 -14   6   3    2.18    3.51
 -13  -6   3    7.97    2.96
 -13  -6   3    5.02    2.01
 -13  -6   3    9.08    2.94
 -13   6   3   -6.81    4.19
 -12  -6   3   -1.17    2.32
 -12  -6   3    5.24    2.52
 -12  -6   3    6.05    3.16
 -12   6   3    3.32    2.92
 -12   6   3    3.05    4.26
 -11  -6   3    1.43    2.05
 -11  -6   3    1.10    1.96
 -11  -6   3    1.36    1.35
 -11   6   3    1.15    3.47
 -11   6   3   -2.64    2.22
 -10  -6   3    1.95    1.99
 -10  -6   3    0.42    1.13
 -10  -6   3   -1.44    1.72
 -10   6   3   -2.14    2.79
 -10   6   3    3.62    2.77
  -9  -6   3   16.64    2.88
  -9  -6   3   14.69    1.86
  -9   6   3   13.63    3.33
  -9   6   3   11.42    3.09
  -8  -6   3   39.24    3.41
  -8  -6   3   41.84    2.61
  -8   6   3   40.00    4.09
  -8   6   3   32.66    4.13
  -7  -6   3   25.46    1.97
  -7  -6   3   23.83    2.61
  -7   6   3   22.86    3.08
  -7   6   3   22.64    3.44
  -6  -6   3    5.27    1.11
  -6  -6   3    6.47    1.57
   6   6  -3    3.34    1.68
  -6   6   3    2.04    1.80
  -6   6   3    7.74    2.55
  -5  -6   3    8.79    1.34
  -5  -6   3    6.64    1.78
   5   6  -3    8.87    1.96
  -5   6   3    6.57    2.30
  -5   6   3    4.20    1.78
   4  -6  -3   48.11    2.27
  -4  -6   3   45.13    3.13
  -4  -6   3   45.57    2.62
  -4   6   3   48.45    3.97
  -4   6   3   45.24    3.20
   4   6  -3   49.11    3.50
  -3  -6   3  103.59    5.06
   3  -6  -3  105.11    3.92
   3  -6  -3  110.29    4.25
  -3  -6   3  109.25    4.55
  -3   6   3  105.93    5.70
   3   6  -3  104.63    5.43
  -3   6   3  100.61    5.45
   2  -6  -3  121.74    4.72
   2  -6  -3  116.11    4.38
  -2  -6   3  112.10    4.89
   2   6  -3  109.78    5.54
   2   6  -3  120.03    5.87
  -2   6   3  123.55    6.12
   1  -6  -3  112.40    4.51
  -1  -6   3  117.38    4.95
   1  -6  -3  121.18    4.89
   1   6  -3  117.28    5.67
   1   6  -3  116.71    5.86
  -1   6   3  118.85    5.75
  -1   6   3  120.07    5.83
   0  -6   3  169.34    6.74
   0  -6  -3  168.88    6.38
   0  -6  -3  169.21    6.66
   0   6   3  167.35    6.92
   0   6  -3  185.32    7.81
   0   6   3  166.42    7.33
   0   6  -3  172.33    7.53
  -1  -6  -3  140.09    5.55
   1  -6   3  141.65    5.79
  -1  -6  -3  142.93    5.04
  -1  -6  -3  145.19    5.86
  -1   6  -3  133.69    6.73
   1   6   3  144.48    6.28
   1   6   3  134.06    5.97
  -1   6  -3  142.79    6.86
  -2  -6  -3   23.28    1.39
   2  -6   3   26.41    2.14
  -2  -6  -3   28.05    2.09
  -2  -6  -3   27.20    2.43
  -2   6  -3   30.48    3.49
  -2   6  -3   27.22    3.00
   2   6   3   30.41    2.48
  -3  -6  -3    1.96    1.33
  -3  -6  -3    2.73    1.18
   3   6   3    1.46    1.07
  -3   6  -3    0.13    2.06
  -3   6  -3    1.70    1.74
  -4  -6  -3    1.94    1.47
  -4  -6  -3    1.01    1.18
   4   6   3    0.91    0.96
  -4   6  -3    0.70    2.21
  -4   6  -3    0.04    1.58
  -5  -6  -3   22.99    2.45
  -5  -6  -3   27.12    2.59
  -5   6  -3   21.35    3.13
  -5   6  -3   23.16    3.79
  -6  -6  -3   56.86    3.79
  -6  -6  -3   55.98    3.80
  -6   6  -3   50.19    4.35
  -7  -6  -3   27.82    2.91
  -7  -6  -3   27.71    2.98
  -7   6  -3   27.14    3.72
  -7   6  -3   25.86    4.59
  -8  -6  -3    8.06    2.40
  -8  -6  -3    8.03    2.35
  -8   6  -3    8.64    2.89
  -8   6  -3    4.25    3.73
  -8   6  -3    1.91    3.82
  -9  -6  -3    9.30    2.59
  -9  -6  -3    8.30    2.69
  -9   6  -3    9.60    4.66
  -9   6  -3    5.43    2.96
 -10  -6  -3   10.45    2.89
 -10  -6  -3    9.24    3.01
 -10   6  -3   17.59    3.82
 -10   6  -3   19.05    5.57
 -10   6  -3   13.57    5.16
 -11  -6  -3    3.87    2.88
 -11  -6  -3    7.71    3.01
 -11   6  -3   -0.35    5.59
 -11   6  -3   12.03    5.45
 -11   6  -3    2.80    2.95
 -12  -6  -3    5.07    2.95
 -12  -6  -3    2.93    3.04
 -12   6  -3   -2.09    2.98
 -12   6  -3   12.78    5.93
 -12   6  -3   -5.65    4.79
 -13  -6  -3   -0.39    2.71
 -13  -6  -3    0.12    2.98
 -13   6  -3   10.93    6.61
 -13   6  -3   -2.16    2.71
 -13   6  -3    2.99    6.56
 -14  -6  -3   -1.39    3.67
 -14  -6  -3    7.97    3.33
 -14   6  -3   -8.71    6.19
 -14   6  -3   -5.47    6.64
 -14   6  -3    0.41    3.13
 -14  -7   3   -2.78    2.32
 -14  -7   3    1.81    2.51
 -14   7   3   -1.67    3.31
 -13  -7   3   -1.47    2.32
 -13  -7   3   -0.06    2.35
 -13  -7   3    2.25    1.74
 -13   7   3    1.55    3.58
 -13   7   3    5.26    4.32
 -12  -7   3   -1.42    2.18
 -12  -7   3   -1.21    2.35
 -12  -7   3    0.40    1.43
 -12   7   3   -6.58    3.63
 -12   7   3    2.24    3.11
 -11  -7   3    1.39    2.65
 -11  -7   3   -3.01    3.04
 -11  -7   3   -1.23    1.25
 -11   7   3    3.11    3.42
 -11   7   3    1.70    3.00
 -10  -7   3    1.12    2.02
 -10  -7   3   -1.60    1.82
 -10  -7   3    0.05    1.16
 -10   7   3   -0.06    2.64
 -10   7   3    0.50    2.92
  -9  -7   3   -0.89    1.81
  -9  -7   3   -0.04    1.81
  -9  -7   3   -0.36    1.05
  -9   7   3   -1.56    2.35
  -9   7   3   -1.21    2.66
  -8  -7   3    0.07    1.08
  -8  -7   3   -0.14    1.72
  -8   7   3   -0.41    2.24
  -8   7   3   -1.34    2.22
  -7  -7   3   -1.29    1.57
  -7  -7   3    1.70    1.09
  -7   7   3    3.86    2.66
  -7   7   3    0.36    2.09
  -6  -7   3    2.00    1.67
  -6  -7   3    0.63    1.01
  -6   7   3   -0.96    1.72
  -6   7   3   -0.46    2.14
   6   7  -3    0.15    1.62
  -5  -7   3    2.43    1.08
  -5  -7   3    1.97    1.79
   5  -7  -3    1.48    0.70
   5   7  -3    4.74    1.98
  -5   7   3   -0.22    1.70
  -5   7   3   -3.59    2.05
   4  -7  -3    0.27    0.90
  -4  -7   3    1.33    1.55
  -4  -7   3    0.81    1.03
   4  -7  -3    0.16    0.51
  -4   7   3    3.62    2.16
  -4   7   3   -0.71    1.45
   4   7  -3   -1.14    1.77
   3  -7  -3   24.98    1.47
  -3  -7   3   22.52    2.48
  -3  -7   3   23.61    2.02
   3  -7  -3   25.50    1.84
  -3   7   3   22.67    2.50
   3   7  -3   26.00    3.14
  -3   7   3   21.51    3.38
   2  -7  -3   28.45    1.72
  -2  -7   3   28.71    2.15
  -2   7   3   30.95    2.70
  -2   7   3   33.59    3.77
   2   7  -3   31.62    3.53
   2   7  -3   26.51    2.86
  -1  -7   3   -0.03    1.06
   1  -7  -3   -0.15    0.70
   1  -7  -3   -0.27    0.96
   1   7  -3    0.83    1.74
   1   7  -3    0.19    1.64
  -1   7   3    0.21    1.19
  -1   7   3    0.90    1.56
   0  -7  -3   34.44    2.45
   0  -7   3   39.10    2.65
   0  -7  -3   40.55    2.07
   0   7   3   38.04    3.38
   0   7  -3   32.90    3.42
   0   7  -3   36.11    3.36
   0   7   3   39.29    2.94
  -1  -7  -3   33.17    2.48
   1  -7   3   29.85    2.37
  -1  -7  -3   30.45    1.68
  -1  -7  -3   32.17    2.17
  -1   7  -3   28.16    3.43
   1   7   3   33.73    2.81
  -1   7  -3   35.73    3.53
   1   7   3   34.52    2.99
   2  -7   3    6.02    1.51
  -2  -7  -3    4.74    1.35
  -2  -7  -3    5.20    0.63
  -2  -7  -3    6.61    1.66
   2   7   3    6.06    1.65
  -2   7  -3    5.04    2.11
  -2   7  -3    5.91    2.54
  -3  -7  -3   -0.62    1.39
  -3  -7  -3    1.90    1.31
   3  -7   3    0.30    1.12
  -3   7  -3    1.24    1.84
   3   7   3    1.57    1.36
  -3   7  -3    1.85    2.57
  -4  -7  -3   -0.51    1.24
   4   7   3    0.13    1.06
  -4   7  -3   -0.15    1.90
  -4   7  -3    0.88    2.53
  -5  -7  -3   -1.98    1.33
  -5  -7  -3   -0.35    1.61
  -5   7  -3    0.91    2.05
  -5   7  -3    2.34    2.72
  -6  -7  -3    7.15    2.17
  -6  -7  -3    1.46    1.77
  -6   7  -3    0.18    2.83
  -6   7  -3    6.12    2.53
  -7  -7  -3    6.18    2.24
  -7  -7  -3    9.15    2.38
  -7   7  -3    5.75    2.86
  -7   7  -3    4.02    3.45
  -8  -7  -3   -0.43    1.89
  -8  -7  -3    0.26    1.98
  -8   7  -3   -7.08    3.66
  -8   7  -3    1.07    2.63
  -9  -7  -3    1.01    2.25
  -9  -7  -3   -2.58    2.32
  -9   7  -3    3.85    3.16
  -9   7  -3   -0.09    4.84
 -10  -7  -3   -1.52    2.24
 -10   7  -3    3.30    3.10
 -10   7  -3    0.43    4.81
 -11  -7  -3    1.70    2.78
 -11  -7  -3   -0.32    2.35
 -11   7  -3    5.98    5.35
 -11   7  -3    3.23    2.77
 -12  -7  -3    4.29    3.31
 -12  -7  -3    3.82    3.00
 -12   7  -3   -7.70    4.83
 -12   7  -3    1.46    3.12
 -13  -7  -3    1.25    2.85
 -13  -7  -3    2.76    3.65
 -13   7  -3   -3.20    2.98
 -13   7  -3    0.11    6.51
 -13  -8   3    3.27    2.76
 -13  -8   3    0.21    3.03
 -13   8   3    0.28    3.41
 -12  -8   3   -2.03    2.45
 -12  -8   3   -2.14    2.51
 -12   8   3    1.58    3.31
 -12   8   3   -1.40    3.64
 -11  -8   3    9.15    3.07
 -11  -8   3    7.82    3.16
 -11   8   3    7.72    3.76
 -11   8   3    2.07    3.45
 -10  -8   3    8.58    1.68
 -10  -8   3    5.78    2.78
 -10  -8   3    6.09    2.91
 -10   8   3    5.82    3.44
 -10   8   3    9.14    3.59
  -9  -8   3    1.66    2.19
  -9  -8   3    5.13    2.46
  -9  -8   3    2.80    1.42
  -9   8   3    3.09    2.96
  -9   8   3    1.53    2.87
  -8  -8   3   -0.04    2.13
  -8  -8   3    4.72    2.38
  -8  -8   3    0.94    1.21
  -8   8   3    6.54    3.28
  -8   8   3    4.28    2.63
  -7  -8   3   11.33    2.80
  -7  -8   3   14.72    2.87
  -7  -8   3   11.52    1.70
  -7   8   3    9.76    2.70
  -7   8   3    9.10    3.46
  -6  -8   3   38.58    3.55
  -6  -8   3   34.87    2.54
   6   8  -3   38.52    3.83
  -6   8   3   37.22    4.73
  -6   8   3   32.64    3.63
  -5  -8   3   38.73    3.42
  -5  -8   3   37.29    2.59
   5  -8  -3   33.12    1.93
  -5   8   3   36.46    4.56
  -5   8   3   40.39    3.54
   5   8  -3   43.46    3.92
   4  -8  -3   19.24    1.67
   4  -8  -3   18.00    1.37
  -4  -8   3   20.86    2.06
  -4  -8   3   19.80    2.86
   4   8  -3   17.76    3.09
  -4   8   3   21.36    2.72
  -4   8   3   28.89    4.10
  -3  -8   3    7.93    2.00
  -3  -8   3    6.38    1.52
   3  -8  -3    8.48    1.13
  -3   8   3    9.64    2.06
  -3   8   3   11.21    2.91
   3   8  -3    9.62    2.44
   2  -8  -3   12.07    1.76
   2  -8  -3   11.86    1.45
  -2  -8   3   12.55    1.82
   2   8  -3   16.98    2.98
   2   8  -3   12.14    2.62
  -2   8   3   10.97    2.05
   1  -8  -3   12.42    1.68
   1  -8  -3   11.03    1.82
  -1  -8   3    9.26    1.73
   1  -8  -3   13.79    1.58
  -1   8   3   15.27    2.96
   1   8  -3   13.19    2.84
   1   8  -3    9.19    2.67
  -1   8   3   10.29    2.01
   0  -8  -3    5.40    1.19
   0  -8   3    7.38    1.66
   0  -8  -3    6.42    1.68
   0  -8  -3    7.35    1.43
   0   8   3    4.04    1.72
   0   8  -3    5.78    2.43
   0   8  -3    9.80    2.56
   0   8   3    5.92    2.20
   1  -8   3   12.12    2.29
  -1  -8  -3    7.62    1.78
  -1  -8  -3    6.19    1.41
  -1  -8  -3    6.66    0.96
  -1   8  -3    9.74    2.66
   1   8   3    4.99    1.54
   1   8   3    6.33    1.95
  -1   8  -3    4.66    2.18
   2  -8   3   40.60    2.89
  -2  -8  -3   31.08    1.59
  -2  -8  -3   35.66    3.11
  -2  -8  -3   38.45    2.72
  -2   8  -3   38.10    4.40
   2   8   3   37.74    3.33
  -2   8  -3   36.80    3.85
  -3  -8  -3   82.18    4.30
   3  -8   3   83.66    4.57
  -3  -8  -3   80.75    4.65
  -3   8  -3   77.21    5.54
  -3   8  -3   75.56    5.75
   3   8   3   85.79    4.66
  -4  -8  -3   70.37    4.27
   4  -8   3   67.15    3.99
  -4  -8  -3   58.65    3.89
  -4   8  -3   60.85    5.15
  -4   8  -3   58.65    5.38
   4   8   3   59.33    3.68
  -5  -8  -3   19.88    2.78
  -5  -8  -3   14.10    2.70
  -5   8  -3   13.52    3.43
  -5   8  -3   19.42    4.30
  -6  -8  -3    1.90    2.21
  -6  -8  -3    1.13    1.92
  -6   8  -3    3.50    3.35
  -6   8  -3    2.00    2.52
  -7  -8  -3    7.42    2.49
  -7  -8  -3    4.05    2.33
  -7   8  -3    1.63    3.36
  -7   8  -3    3.73    2.65
  -8  -8  -3    8.99    2.89
  -8  -8  -3    5.96    2.67
  -8   8  -3    6.40    4.34
  -8   8  -3    9.66    3.68
  -9  -8  -3   -0.64    2.60
  -9  -8  -3    3.53    2.76
  -9   8  -3    3.14    3.32
 -10  -8  -3   -2.29    2.32
 -10  -8  -3   -0.41    2.91
 -10   8  -3    0.59    5.07
 -10   8  -3   -0.76    3.19
 -11  -8  -3    3.81    3.26
 -11  -8  -3    4.76    2.99
 -11   8  -3    0.24    2.88
 -11   8  -3    0.34    5.47
 -12  -8  -3    2.62    3.13
 -12  -8  -3    5.65    3.49
 -12   8  -3    3.10    5.82
 -12   8  -3    1.18    3.26
 -11  -9   3   -0.37    2.70
 -11  -9   3    1.84    2.76
 -11   9   3   -1.23    3.43
 -11   9   3   -1.07    2.93
 -10  -9   3   -3.17    2.10
 -10  -9   3    0.34    2.44
 -10   9   3    4.27    3.14
 -10   9   3    0.06    3.15
  -9  -9   3   -0.19    2.32
  -9  -9   3    2.23    2.51
  -9   9   3   -0.45    2.60
  -9   9   3    2.47    3.02
  -8  -9   3    1.95    1.33
  -8  -9   3    0.46    2.13
  -8   9   3    3.21    2.68
  -8   9   3   -1.05    2.63
  -7  -9   3    0.32    2.15
  -7  -9   3   -1.37    0.96
  -7  -9   3    1.06    2.08
  -7   9   3   -2.09    2.90
  -7   9   3    0.19    2.28
  -6  -9   3    1.62    2.01
  -6  -9   3    3.71    2.04
  -6  -9   3    1.12    1.23
  -6   9   3    0.08    1.99
  -6   9   3   -0.39    2.61
   6   9  -3    0.51    2.01
  -5  -9   3   -0.47    1.49
  -5  -9   3   -1.64    1.07
  -5   9   3   -4.94    1.67
   5   9  -3   -0.20    1.89
  -5   9   3    5.79    2.96
  -4  -9   3    0.36    1.66
  -4  -9   3   -0.64    1.08
   4   9  -3    0.70    2.01
  -3  -9   3    7.04    2.24
  -3  -9   3    6.97    1.61
   3  -9  -3    5.16    1.16
   3  -9  -3    9.27    1.62
  -3   9   3    9.65    2.60
  -3   9   3   11.34    3.04
   3   9  -3    5.43    2.58
   2  -9  -3    6.44    1.43
   2  -9  -3    6.13    1.17
   2  -9  -3    5.91    1.55
  -2  -9   3   10.72    2.32
  -2   9   3    8.78    2.71
   2   9  -3    6.69    2.26
   2   9  -3    5.29    2.36
  -2   9   3    4.40    1.94
   1  -9  -3    0.34    1.38
   1  -9  -3    1.65    1.00
  -1  -9   3    0.42    1.65
  -1  -9   3    1.07    1.21
   1  -9  -3    0.11    1.00
   1   9  -3    0.61    1.85
  -1   9   3   -0.92    2.11
   1   9  -3    2.29    2.18
   0  -9  -3    8.32    1.55
   0  -9   3   10.25    2.02
   0  -9  -3    8.86    1.26
   0  -9  -3    9.14    2.01
   0   9   3   13.20    2.88
   0   9   3    9.34    2.60
   0   9  -3   10.32    2.94
   0   9  -3   12.68    3.02
  -1  -9  -3    8.81    2.30
  -1  -9  -3    8.49    1.04
   1  -9   3    9.91    1.91
  -1  -9  -3    7.00    1.61
  -1   9  -3    2.56    2.17
   1   9   3    5.79    2.28
  -1   9  -3   13.80    3.23
   1   9   3    3.04    1.81
  -2  -9  -3   -0.07    1.79
   2  -9   3    0.72    1.43
  -2  -9  -3    0.88    1.42
  -2   9  -3    1.77    2.42
   2   9   3   -0.55    1.79
  -2   9  -3   -1.85    1.96
  -3  -9  -3   -0.57    1.60
   3  -9   3    1.90    1.58
  -3   9  -3   -0.61    2.21
  -3   9  -3   -2.11    2.66
   3   9   3    2.40    1.78
  -4  -9  -3    0.78    1.88
  -4  -9  -3   -1.84    1.63
   4  -9   3    0.03    1.47
   4   9   3    0.55    1.41
  -4   9  -3    0.03    2.70
  -4   9  -3   -2.27    2.19
  -5  -9  -3    2.55    2.03
   5  -9   3   -0.82    1.81
  -5  -9  -3   -0.79    1.92
  -5   9  -3   -2.06    2.12
  -5   9  -3   -2.60    2.92
  -6  -9  -3    1.95    2.25
  -6  -9  -3    5.21    2.34
   6  -9   3    3.45    1.96
  -6   9  -3    5.07    3.61
  -7  -9  -3    3.09    2.91
  -7  -9  -3    3.45    2.45
  -7   9  -3   -0.39    2.77
  -8  -9  -3   -3.80    2.18
  -8   9  -3    0.77    4.55
  -8   9  -3    2.32    2.78
  -9  -9  -3   -0.08    2.75
  -9  -9  -3   -0.99    2.94
  -9   9  -3    3.32    4.21
  -9   9  -3    1.16    2.75
 -10  -9  -3    0.72    2.80
 -10  -9  -3    1.82    2.61
 -10   9  -3   -0.03    2.92
 -10   9  -3    2.17    4.66
  -9 -10   3    2.92    3.21
  -9 -10   3    7.08    3.03
  -9  10   3    2.20    3.77
  -9  10   3    0.16    2.96
  -8 -10   3    4.44    2.92
  -8 -10   3    6.61    2.98
  -8  10   3   -0.05    3.23
  -8  10   3    6.19    2.98
  -7 -10   3    5.97    2.68
  -7 -10   3    2.59    2.58
  -7  10   3    3.66    2.73
  -7  10   3    3.87    3.24
  -6 -10   3    9.30    3.06
  -6 -10   3    3.11    2.28
  -6 -10   3    3.03    1.49
  -6  10   3    4.62    2.33
  -6  10   3    2.42    3.38
  -5 -10   3    2.18    1.51
  -5 -10   3    7.82    2.48
  -5 -10   3    4.11    2.73
  -5  10   3    2.63    5.01
   5  10  -3    2.32    2.39
  -5  10   3    3.11    2.29
  -4 -10   3    5.56    1.68
  -4 -10   3   11.76    2.83
  -4 -10   3    4.97    2.23
  -4  10   3    9.05    2.53
  -4  10   3   10.06    3.73
   4  10  -3    5.16    3.15
   3 -10  -3   12.44    2.13
  -3 -10   3   17.57    3.23
  -3 -10   3   20.72    3.46
  -3 -10   3   15.34    2.28
  -3  10   3   16.66    3.75
  -3  10   3   16.02    2.71
   3  10  -3   18.00    5.29
  -2 -10   3   22.47    3.10
  -2 -10   3   19.17    3.10
   2 -10  -3   11.53    2.13
  -2 -10   3   22.16    2.66
   2 -10  -3   19.48    2.18
   2  10  -3   12.07    3.22
  -2  10   3   13.59    3.46
  -2  10   3   11.78    2.61
   1 -10  -3   16.23    1.94
  -1 -10   3   16.56    3.03
  -1 -10   3   14.07    2.40
   1 -10  -3   15.04    1.95
   1 -10  -3   20.11    2.61
   1  10  -3   12.33    2.98
  -1  10   3   13.33    2.69
   1  10  -3   15.86    3.42
  -1  10   3   20.85    3.82
   0 -10   3   20.83    2.65
   0 -10  -3   20.03    2.70
   0 -10  -3   23.40    2.51
   0 -10   3   25.88    3.37
   0  10  -3   20.61    3.79
   0  10  -3   25.62    4.12
   0  10   3   23.50    3.70
   0  10   3   16.74    2.73
  -1 -10  -3   19.30    2.93
   1 -10   3   15.50    2.79
   1 -10   3   14.20    2.35
  -1 -10  -3   19.84    2.51
   1  10   3   19.26    2.80
   1  10   3   13.83    3.05
  -1  10  -3   15.83    3.42
  -1  10  -3   14.49    3.41
  -2 -10  -3    8.02    2.16
   2 -10   3    4.92    1.89
  -2 -10  -3    8.79    2.43
  -2  10  -3    6.31    2.84
  -2  10  -3    5.18    3.41
   2  10   3    7.54    2.40
  -3 -10  -3    2.92    2.29
   3 -10   3    0.23    1.51
  -3 -10  -3    1.57    1.71
   3 -10   3    0.02    1.40
  -3  10  -3    0.21    4.68
   3  10   3    0.26    3.04
  -3  10  -3    0.55    4.71
  -4 -10  -3    0.67    1.95
   4 -10   3    1.87    1.77
  -4 -10  -3   -0.97    1.95
  -4  10  -3    0.15    2.94
   5 -10   3   11.14    3.04
  -5 -10  -3    5.10    2.43
  -5  10  -3    3.01    2.91
  -5  10  -3    7.78    3.82
   6 -10   3   15.86    3.07
  -6 -10  -3   12.21    3.10
  -6 -10  -3    6.81    2.70
  -6  10  -3    8.40    4.39
  -6  10  -3   13.33    3.93
  -7 -10  -3    5.17    3.32
  -7 -10  -3    6.56    2.86
   7 -10   3    6.16    2.80
  -7  10  -3    6.27    3.45
  -7  10  -3    5.82    4.57
  -8 -10  -3    5.39    3.11
   8 -10   3   -1.55    2.15
  -8 -10  -3    0.57    2.42
  -8  10  -3   10.73    5.19
  -8  10  -3   -3.51    2.68
  -6 -11   3   -1.57    2.34
  -6 -11   3    0.52    2.33
  -6  11   3    3.54    3.80
  -6  11   3   -0.79    2.50
  -5 -11   3    1.42    2.53
  -5 -11   3    0.82    2.32
   5 -11  -3   -0.52    1.47
  -5  11   3   -1.69    2.99
   5  11  -3    7.04    3.08
  -5  11   3   -1.02    2.08
  -4 -11   3    0.34    2.08
   4 -11  -3   -0.11    1.34
  -4 -11   3    1.42    2.02
  -4 -11   3    0.26    1.43
  -4  11   3   -1.08    2.55
  -4  11   3   -3.10    1.96
   4  11  -3   -0.96    2.18
   3 -11  -3   -0.57    1.45
  -3 -11   3   -2.48    1.96
  -3 -11   3    2.76    1.63
   3  11  -3    0.52    2.41
  -3  11   3   -2.25    2.82
  -3  11   3    1.10    1.95
  -2 -11   3   -3.45    1.82
  -2 -11   3    2.77    1.54
  -2  11   3    0.70    4.07
  -2  11   3    0.09    1.94
   2  11  -3    3.49    2.39
   1 -11  -3   -2.06    1.80
  -1 -11   3    1.75    2.02
  -1 -11   3   -2.38    1.21
  -1 -11   3    0.33    2.05
  -1  11   3   -1.69    2.22
  -1  11   3    0.45    1.76
   1  11  -3   -1.70    2.59
   0 -11  -3    4.74    2.14
   0 -11   3    1.11    1.81
   0 -11   3    3.09    2.16
   0 -11   3    2.56    1.61
   0  11  -3    1.98    2.41
   0  11  -3    1.97    2.65
   0  11   3    1.45    2.59
   0  11   3    1.75    2.02
   1 -11   3    0.15    1.85
  -1 -11  -3    4.06    2.26
   1 -11   3    0.87    1.84
   1 -11   3    1.10    1.63
  -1  11  -3    0.03    2.58
  -1  11  -3    2.56    2.76
   1  11   3    1.12    2.40
   2 -11   3   -1.15    1.94
  -2 -11  -3    2.99    1.82
  -2 -11  -3   -0.77    2.00
   2  11   3   -2.83    2.10
  -2  11  -3    1.77    2.91
  -2  11  -3   -2.18    2.79
   3 -11   3   -1.15    1.72
   3 -11   3   -4.74    1.90
  -3 -11  -3   -1.37    3.39
  -3 -11  -3   -2.05    1.86
  -3  11  -3    5.25    3.11
  -3  11  -3   -1.81    2.78
   4 -11   3    0.80    1.62
  -4 -11  -3    0.04    2.26
  -4 -11  -3    0.50    2.02
  -4  11  -3    2.59    2.90
  -4  11  -3   -3.82    2.70
   5 -11   3    4.81    2.32
  -5 -11  -3    3.14    2.76
  -5  11  -3    5.23    3.75
  -5  11  -3   -1.87    2.94
 -17   0   4    1.48    2.87
 -17   0   4    1.80    2.34
 -16   0   4   -2.49    1.84
 -16   0   4   -2.93    2.42
 -16   0   4    5.73    3.27
 -16   0   4    3.46    2.61
 -15   0   4    1.94    2.17
 -15   0   4    3.83    2.65
 -15   0   4    2.24    1.97
 -15   0   4   -1.24    2.29
 -14   0   4    0.44    1.56
 -14   0   4   -0.54    1.90
 -14   0   4    0.29    2.24
 -13   0   4    1.01    1.34
 -13   0   4   -2.33    1.71
 -13   0   4   -1.78    1.70
 -13   0   4   -0.84    1.94
 -12   0   4   13.79    2.01
 -12   0   4   13.45    2.32
 -12   0   4   10.24    2.25
 -12   0   4   13.76    2.61
 -11   0   4   62.14    3.94
 -11   0   4   65.83    4.23
 -11   0   4   64.49    3.42
 -11   0   4   61.29    3.77
 -10   0   4   94.44    4.71
 -10   0   4   92.32    4.87
 -10   0   4   86.81    4.36
  -9   0   4   42.56    2.64
  -9   0   4   45.25    3.35
  -9   0   4   43.23    2.91
  -8   0   4   19.97    1.81
  -8   0   4   18.73    2.02
  -7   0   4   23.39    1.62
  -7   0   4   22.64    1.84
  -6   0   4   46.17    2.26
  -5   0   4   19.22    1.26
  -5   0   4   15.04    1.33
  -4   0   4   16.30    1.20
   4   0  -4   17.77    1.49
  -4   0   4   16.26    1.11
  -3   0   4  175.83    6.23
  -3   0   4  166.97    6.07
   3   0  -4  184.03    6.51
  -2   0   4  305.65   10.08
  -2   0   4  293.06    9.95
   2   0  -4  300.56   10.41
   2   0  -4  291.41    9.91
  -1   0   4  419.47   14.39
  -1   0   4  432.89   14.41
   1   0  -4  428.31   14.85
   1   0  -4  444.46   14.39
   1   0  -4  448.82   14.72
   0   0  -4   21.79    1.97
   0   0  -4   17.38    1.81
   0   0   4   20.75    1.13
   0   0  -4   19.35    1.71
  -1   0  -4   51.34    2.61
   1   0   4   52.15    2.10
  -1   0  -4   50.12    2.98
  -1   0  -4   50.24    2.91
  -2   0  -4  327.73   12.18
   2   0   4  353.61   11.51
  -2   0  -4  351.42   12.14
  -3   0  -4  649.74   22.96
  -3   0  -4  715.40   23.22
  -4   0  -4  353.31   12.89
  -4   0  -4  363.09   12.68
  -5   0  -4   32.18    2.82
  -5   0  -4   31.46    2.47
  -5   0  -4   35.69    1.96
  -6   0  -4    0.14    1.43
  -6   0  -4    2.08    1.54
  -6   0  -4    0.63    0.83
  -7   0  -4    4.33    2.28
  -7   0  -4    5.80    1.11
  -7   0  -4    3.17    1.91
  -8   0  -4   15.75    2.53
  -8   0  -4   12.45    2.85
  -8   0  -4   11.41    1.48
  -9   0  -4    1.56    2.16
  -9   0  -4   -0.63    2.31
  -9   0  -4    3.13    1.12
 -10   0  -4   -0.49    1.91
 -10   0  -4   -0.40    2.42
 -10   0  -4    1.72    1.13
 -11   0  -4    8.84    3.49
 -11   0  -4    7.52    1.43
 -11   0  -4    9.78    2.81
 -12   0  -4   15.80    3.67
 -12   0  -4   19.68    4.12
 -12   0  -4   17.76    2.00
 -13   0  -4   11.07    3.34
 -13   0  -4    1.30    3.81
 -14   0  -4    2.10    3.39
 -15   0  -4    2.29    3.55
 -15   0  -4   -8.05    4.17
 -16   0  -4    2.69    4.49
 -16   0  -4   -3.90    3.49
 -17  -1   4   -0.55    2.95
 -17  -1   4   -0.04    2.37
 -17  -1   4   -4.89    1.83
 -17   1   4    4.90    3.72
 -17   1   4   -0.15    3.08
 -16  -1   4   -1.24    2.01
 -16  -1   4    1.57    2.46
 -16  -1   4    2.41    2.71
 -16   1   4    1.33    2.20
 -16   1   4   -2.16    2.79
 -15  -1   4    1.82    2.04
 -15  -1   4   -5.08    2.48
 -15  -1   4   -3.35    1.70
 -15  -1   4    1.03    3.84
 -15   1   4   -0.30    1.52
 -15   1   4   -1.48    2.56
 -15   1   4    1.29    2.07
 -15   1   4   -2.12    2.67
 -14  -1   4    0.68    2.05
 -14  -1   4    1.23    2.12
 -14  -1   4    2.71    1.99
 -14   1   4    3.24    1.50
 -14   1   4    2.78    2.56
 -14   1   4   -1.13    1.83
 -14   1   4    0.80    2.16
 -13  -1   4    3.83    1.84
 -13  -1   4    1.61    1.89
 -13  -1   4    2.10    1.71
 -13  -1   4   -2.04    1.92
 -13   1   4   -1.76    1.72
 -13   1   4    3.14    4.27
 -13   1   4    1.68    1.30
 -13   1   4    3.06    2.25
 -12  -1   4    2.49    1.74
 -12  -1   4    2.70    1.44
 -12  -1   4    0.18    1.52
 -12  -1   4   -1.35    1.72
 -12   1   4   -0.59    1.67
 -12   1   4    3.11    1.21
 -12   1   4   -0.46    1.99
 -12   1   4    0.86    1.55
 -11  -1   4    5.43    1.76
 -11  -1   4    4.32    1.64
 -11  -1   4    2.53    1.69
 -11   1   4    3.07    1.70
 -11   1   4    3.30    1.95
 -11   1   4    1.41    1.66
 -11   1   4    3.45    1.19
 -10  -1   4    0.35    1.30
 -10  -1   4    0.72    1.55
 -10  -1   4    1.29    1.32
 -10   1   4    0.24    0.85
 -10   1   4    0.25    1.33
 -10   1   4    1.72    1.66
 -10   1   4   -2.34    1.28
  -9  -1   4    7.24    1.50
  -9  -1   4    9.57    1.77
  -9   1   4    6.63    1.64
  -9   1   4    7.57    1.51
  -9   1   4   10.38    2.11
  -8  -1   4   64.19    3.31
  -8  -1   4   67.43    3.41
  -8   1   4   68.13    4.05
  -8   1   4   66.85    3.15
  -8   1   4   61.60    3.48
  -7  -1   4   65.32    3.59
  -7  -1   4   69.59    3.31
  -7   1   4   70.84    3.49
  -7   1   4   70.88    3.77
  -7   1   4   70.44    3.08
  -6  -1   4    3.42    0.91
  -6   1   4    2.76    0.69
  -6   1   4    1.53    1.02
  -6   1   4    2.87    1.22
  -5  -1   4   94.64    3.94
  -5  -1   4   99.29    3.92
  -5   1   4   94.32    3.58
  -5   1   4   97.87    4.01
  -4  -1   4   42.85    2.07
   4  -1  -4   41.62    2.12
  -4   1   4   44.65    2.14
   4   1  -4   43.89    2.11
   3  -1  -4    4.75    1.12
  -3  -1   4    5.16    0.79
   3   1  -4    5.63    1.19
  -3   1   4    7.00    0.92
   3   1  -4    4.94    0.76
  -2  -1   4    8.73    0.92
   2  -1  -4    7.67    1.48
   2   1  -4   10.28    1.51
  -2   1   4    8.62    0.82
  -2   1   4    9.05    1.02
   2   1  -4    9.67    1.05
   1  -1  -4   21.21    0.93
  -1  -1   4   20.05    1.19
   1  -1  -4   18.31    1.94
   1  -1  -4   22.36    1.82
   1   1  -4   21.12    1.89
   1   1  -4   19.27    1.51
  -1   1   4   19.23    1.52
  -1   1   4   20.05    1.08
   0  -1  -4  108.86    4.57
   0  -1  -4  114.30    4.45
   0  -1   4  115.50    4.14
   0   1  -4  108.16    4.67
   0   1   4  111.19    3.92
   0   1  -4  110.94    4.43
   0   1  -4  111.30    4.72
  -1  -1  -4   10.44    1.50
  -1  -1  -4    7.87    1.46
   1  -1   4    8.32    0.90
  -1  -1  -4    7.51    0.64
  -1   1  -4    9.20    1.46
  -1   1  -4    9.88    1.86
  -1   1  -4   10.51    1.86
  -2  -1  -4    5.90    1.31
   2  -1   4    6.71    0.81
  -2  -1  -4    5.33    1.27
  -2   1  -4    6.71    1.73
  -2   1  -4    5.66    1.57
   2   1   4    6.40    0.58
  -2   1  -4    6.81    1.56
  -3  -1  -4    1.09    0.99
  -3  -1  -4    0.05    1.13
  -3   1  -4    0.68    1.56
   3   1   4    2.34    0.45
  -3   1  -4    0.76    0.70
  -3   1  -4    2.72    1.70
  -3   1  -4    0.83    1.38
   3   1   4    0.50    0.40
  -4  -1  -4   -1.51    1.00
  -4  -1  -4    0.75    0.99
  -4   1  -4    0.50    0.77
  -4   1  -4   -0.18    1.57
   4   1   4   -0.46    0.38
  -4   1  -4    1.25    1.81
  -5  -1  -4   15.02    2.14
  -5  -1  -4   14.13    1.82
   5   1   4   17.04    1.07
  -5   1  -4   18.48    2.44
  -5   1  -4   15.23    1.67
  -5   1  -4   13.77    2.69
  -6  -1  -4   91.22    4.33
  -6  -1  -4   85.27    4.57
  -6   1  -4   86.55    4.57
  -6   1  -4   93.69    4.13
   6   1   4   94.83    3.42
  -6   1  -4   85.68    5.10
  -7  -1  -4   37.02    3.21
  -7  -1  -4   40.82    2.85
  -7   1  -4   40.85    2.72
  -7   1  -4   42.49    3.93
  -7   1  -4   30.55    3.03
  -8  -1  -4    5.45    1.85
  -8  -1  -4    5.58    2.34
  -8   1  -4    2.22    2.77
  -8   1  -4    6.33    1.50
  -8   1  -4    4.87    2.25
  -9  -1  -4   31.68    2.95
  -9  -1  -4   20.91    3.15
  -9   1  -4   29.82    4.06
  -9   1  -4   28.57    3.44
 -10  -1  -4    7.22    2.27
 -10  -1  -4    6.15    2.78
 -10   1  -4    5.35    3.36
 -10   1  -4    8.61    1.80
 -10   1  -4    4.43    2.66
 -11  -1  -4    1.31    2.69
 -11   1  -4    3.05    2.80
 -11   1  -4    3.05    1.62
 -11   1  -4   -2.91    3.09
 -12  -1  -4   -1.19    2.25
 -12  -1  -4   -0.87    2.99
 -12   1  -4    3.89    3.71
 -12   1  -4    0.17    1.60
 -12   1  -4    5.94    3.18
 -13  -1  -4    0.80    2.62
 -13  -1  -4   -0.05    3.37
 -13   1  -4   -0.53    3.70
 -13   1  -4    0.63    1.60
 -13   1  -4    1.53    3.44
 -14  -1  -4    0.07    3.71
 -14  -1  -4   -0.95    2.93
 -14   1  -4   -2.02    3.38
 -15  -1  -4   -3.78    3.64
 -15  -1  -4   -0.69    2.93
 -15   1  -4   -0.20    4.51
 -15   1  -4    1.14    3.95
 -16  -1  -4   -2.12    4.21
 -16  -1  -4   -0.90    3.12
 -16   1  -4   -3.93    4.97
 -17  -2   4   -1.73    2.38
 -17  -2   4   -0.61    2.98
 -17  -2   4    0.32    2.21
 -17   2   4    1.85    3.82
 -16  -2   4   -3.28    3.23
 -16  -2   4    2.81    4.99
 -16  -2   4    2.66    2.46
 -16   2   4    5.05    3.27
 -16   2   4    1.25    3.36
 -15  -2   4    2.56    2.25
 -15  -2   4    1.66    2.00
 -15  -2   4    2.40    2.78
 -15  -2   4    0.44    2.32
 -15   2   4    1.24    3.20
 -15   2   4    1.59    2.88
 -14  -2   4    9.81    2.42
 -14  -2   4    9.64    2.57
 -14  -2   4    1.39    2.59
 -14  -2   4    9.57    2.38
 -14   2   4    4.49    2.96
 -14   2   4    4.40    2.46
 -14   2   4    2.41    3.07
 -13  -2   4   14.70    2.65
 -13  -2   4   15.37    2.81
 -13  -2   4   15.21    2.64
 -13  -2   4   17.51    2.71
 -13   2   4    9.60    2.57
 -13   2   4   14.35    3.38
 -13   2   4   11.87    1.57
 -13   2   4   18.03    3.08
 -12  -2   4    8.62    1.97
 -12  -2   4    1.15    1.76
 -12  -2   4    2.29    1.65
 -12  -2   4    1.95    1.81
 -12   2   4    2.69    2.01
 -12   2   4    1.25    3.51
 -12   2   4    4.22    1.05
 -12   2   4    3.34    2.20
 -11  -2   4    0.38    1.28
 -11  -2   4    0.03    1.44
 -11   2   4   -3.94    1.75
 -11   2   4    2.59    1.76
 -11   2   4    1.59    0.86
 -11   2   4    0.56    1.63
 -10  -2   4    0.90    1.19
 -10  -2   4   -0.80    1.41
 -10   2   4    1.13    0.73
 -10   2   4    0.32    1.52
 -10   2   4   -1.90    1.56
  -9  -2   4   14.29    1.89
  -9  -2   4   11.91    1.90
  -9   2   4   16.41    2.05
  -9   2   4   13.72    2.43
  -9   2   4   17.02    2.01
  -9   2   4   15.11    1.16
  -8  -2   4   81.75    3.86
  -8  -2   4   70.16    3.60
  -8   2   4   73.20    3.44
  -8   2   4   75.01    4.59
  -8   2   4   73.03    3.93
  -7  -2   4   99.89    4.49
  -7  -2   4  101.05    4.32
  -7   2   4  104.08    4.08
  -7   2   4   97.94    4.97
  -7   2   4  101.46    4.60
  -6  -2   4  119.67    4.89
  -6  -2   4  113.10    4.66
  -6   2   4  116.11    4.29
  -6   2   4  111.03    5.25
  -6   2   4  113.19    4.84
  -5  -2   4  219.99    8.22
  -5  -2   4  225.60    8.03
   5  -2  -4  226.51    7.77
  -5   2   4  218.86    9.08
   5   2  -4  226.02    8.29
  -5   2   4  225.50    7.57
  -5   2   4  225.21    8.21
   4  -2  -4  242.93    8.68
  -4  -2   4  247.74    8.81
   4   2  -4  262.06    9.11
  -4   2   4  253.63    8.69
  -4   2   4  249.62    8.93
  -4   2   4  256.87    9.41
  -4   2   4  250.02    8.27
  -3  -2   4  129.18    4.78
   3  -2  -4  126.83    4.92
  -3   2   4  129.06    4.82
  -3   2   4  122.75    4.37
  -3   2   4  132.84    5.31
   3   2  -4  128.38    5.02
  -2  -2   4   39.38    1.87
   2  -2  -4   36.72    2.30
   2   2  -4   40.10    2.32
   2   2  -4   38.83    2.14
  -2   2   4   36.16    1.83
  -2   2   4   39.74    2.27
   1  -2  -4   65.45    2.74
  -1  -2   4   68.10    2.81
   1  -2  -4   67.84    3.05
   1  -2  -4   64.52    2.39
  -1   2   4   68.14    2.58
   1   2  -4   71.02    3.29
   1   2  -4   71.70    3.20
  -1   2   4   70.30    2.67
   0  -2  -4  322.38   11.02
   0  -2   4  304.89   10.83
   0  -2  -4  301.35   10.53
   0  -2  -4  300.01   10.43
   0  -2  -4  321.42   10.78
   0   2  -4  327.33   11.27
   0   2   4  329.25   10.54
   0   2  -4  330.56   11.27
   1  -2   4  303.24   10.43
  -1  -2  -4  294.97   10.62
  -1  -2  -4  308.91   10.50
  -1  -2  -4  292.45    9.96
  -1   2  -4  301.74   10.86
  -1   2  -4  306.33   10.88
  -1   2  -4  310.87   11.10
   1   2   4  310.18    9.99
  -1   2  -4  305.35   10.98
  -2  -2  -4   23.50    1.63
   2  -2   4   22.39    1.40
  -2  -2  -4   23.43    1.67
  -2   2  -4   23.40    1.79
  -2   2  -4   23.07    2.67
  -2   2  -4   21.78    2.32
   2   2   4   21.87    0.93
  -2   2  -4   27.10    2.38
  -3  -2  -4   22.04    1.82
  -3  -2  -4   22.46    1.79
  -3   2  -4   23.91    1.95
   3   2   4   22.18    0.96
  -3   2  -4   27.15    2.76
  -3   2  -4   25.70    2.80
  -3   2  -4   28.87    2.93
  -4  -2  -4    1.24    0.93
  -4  -2  -4    1.33    1.28
  -4   2  -4   -2.82    1.78
  -4   2  -4    3.29    2.48
  -4   2  -4    0.94    0.94
  -4   2  -4   -0.67    1.54
   4   2   4    1.23    0.42
  -5  -2  -4  105.96    4.82
  -5  -2  -4  111.09    4.77
  -5   2  -4   95.15    5.33
  -5   2  -4  104.10    5.22
  -5   2  -4  109.80    4.83
  -5   2  -4  102.87    5.86
  -6  -2  -4  171.54    6.75
  -6  -2  -4  162.57    6.82
  -6   2  -4  153.46    8.00
  -6   2  -4  156.37    7.68
  -6   2  -4  162.79    7.34
  -7  -2  -4   87.10    4.71
  -7  -2  -4   97.41    4.58
  -7   2  -4   90.38    4.41
  -7   2  -4   82.46    6.11
  -7   2  -4   76.94    5.63
  -8  -2  -4   29.46    2.79
  -8  -2  -4   36.86    3.35
  -8   2  -4   32.10    4.33
  -8   2  -4   38.88    2.93
  -8   2  -4   25.65    3.81
  -9  -2  -4   42.46    3.30
  -9  -2  -4   30.24    4.05
  -9   2  -4   33.32    4.59
  -9   2  -4   26.49    3.76
  -9   2  -4   39.11    3.10
 -10  -2  -4   16.44    3.19
 -10   2  -4   11.10    4.09
 -10   2  -4   26.04    3.84
 -10   2  -4   20.56    2.61
 -11  -2  -4    1.68    2.17
 -11  -2  -4   -0.09    2.58
 -11   2  -4    7.27    2.12
 -11   2  -4    3.91    3.40
 -11   2  -4    6.13    4.11
 -12  -2  -4   -3.62    2.03
 -12  -2  -4    1.17    2.82
 -12   2  -4    6.85    3.46
 -12   2  -4   -1.66    1.85
 -12   2  -4    2.21    4.00
 -13  -2  -4   -2.26    3.10
 -13  -2  -4   -5.59    2.21
 -13   2  -4   -0.67    3.61
 -13   2  -4   -1.66    1.97
 -13   2  -4  -10.75    4.29
 -14  -2  -4    5.82    3.40
 -14  -2  -4    1.64    3.71
 -14   2  -4    9.19    7.72
 -14   2  -4    3.83    4.83
 -15  -2  -4    0.69    4.09
 -15  -2  -4    0.86    3.86
 -15   2  -4   -0.25    5.37
 -15   2  -4   -3.64    4.76
 -16  -2  -4   -0.57    4.12
 -16  -2  -4    3.45    3.37
 -16   2  -4    6.48    5.12
 -16   2  -4    4.44    5.20
 -17  -3   4   -3.50    2.23
 -17  -3   4    0.46    2.85
 -17  -3   4    5.74    2.98
 -17   3   4   -0.40    5.16
 -17   3   4   -7.39    3.03
 -16  -3   4    0.28    3.13
 -16  -3   4   -3.76    2.60
 -16  -3   4    0.31    2.60
 -16   3   4    3.54    3.80
 -16   3   4   -2.93    3.96
 -15  -3   4   -0.19    2.50
 -15  -3   4    2.56    2.25
 -15  -3   4   -3.94    2.08
 -15  -3   4    1.60    2.23
 -15   3   4    0.58    3.17
 -14  -3   4   -0.83    1.75
 -14  -3   4    5.29    2.57
 -14  -3   4    0.73    2.05
 -14  -3   4    1.61    2.14
 -14   3   4   -2.58    3.07
 -14   3   4    2.32    2.76
 -13  -3   4   -1.76    1.76
 -13  -3   4   -2.02    1.61
 -13  -3   4    2.35    2.14
 -13  -3   4   -0.13    1.75
 -13   3   4    3.23    2.14
 -13   3   4    0.83    2.95
 -13   3   4   -0.23    2.46
 -12  -3   4    2.08    1.75
 -12  -3   4   -0.25    1.55
 -12  -3   4   -1.17    1.40
 -12  -3   4    0.81    1.87
 -12   3   4   -1.82    2.61
 -12   3   4   -0.42    2.46
 -12   3   4    3.19    1.75
 -11  -3   4    2.10    1.79
 -11  -3   4    3.54    1.54
 -11   3   4    2.22    1.90
 -11   3   4    0.05    2.52
 -10  -3   4    0.67    1.27
 -10  -3   4    0.21    1.39
 -10   3   4    0.78    1.87
 -10   3   4    2.06    1.87
 -10   3   4   -0.19    2.15
  -9  -3   4    2.78    1.36
  -9  -3   4    4.91    1.34
  -9   3   4    5.31    1.79
  -9   3   4    4.66    2.14
  -9   3   4    1.27    1.89
  -8  -3   4   50.69    2.89
  -8  -3   4   45.63    3.03
  -8   3   4   42.55    3.23
  -8   3   4   51.25    3.79
  -8   3   4   46.11    3.22
  -7  -3   4   48.12    2.61
  -7  -3   4   44.02    2.87
  -7   3   4   48.65    3.55
  -7   3   4   51.23    4.06
  -7   3   4   47.60    3.02
  -7   3   4   47.01    2.87
  -6  -3   4    2.55    1.18
  -6  -3   4    1.31    0.87
  -6   3   4    1.99    1.50
  -6   3   4    2.26    1.25
  -6   3   4    1.04    0.45
  -6   3   4    1.29    0.92
  -6   3   4    0.82    1.71
  -5  -3   4   60.01    3.01
   5  -3  -4   53.42    2.72
  -5   3   4   54.33    2.94
  -5   3   4   54.88    3.43
  -5   3   4   53.29    2.15
   5   3  -4   53.31    2.98
  -4  -3   4   26.10    1.59
   4  -3  -4   24.54    1.71
  -4   3   4   23.11    1.75
  -4   3   4   26.02    1.66
   4   3  -4   25.95    1.95
   3  -3  -4    0.64    1.15
  -3  -3   4    2.47    0.76
  -3   3   4    1.36    0.76
  -3   3   4    2.97    1.15
  -3   3   4    2.29    0.64
   3   3  -4    1.94    1.01
   2  -3  -4    5.61    0.61
  -2  -3   4    5.51    0.93
   2  -3  -4    6.09    0.87
   2  -3  -4    7.08    1.25
  -2   3   4    5.64    1.24
  -2   3   4    7.31    0.71
   2   3  -4    7.29    1.32
  -2   3   4    6.89    0.99
   1  -3  -4   18.95    1.18
   1  -3  -4   20.64    1.50
  -1  -3   4   17.59    1.34
   1  -3  -4   19.65    1.15
   1   3  -4   18.08    1.79
  -1   3   4   18.78    1.68
   1   3  -4   16.40    1.93
  -1   3   4   19.30    0.95
  -1   3   4   18.04    1.21
   0  -3  -4   51.99    2.27
   0  -3  -4   55.14    2.58
   0  -3  -4   46.52    1.91
   0  -3   4   55.21    2.50
   0   3  -4   50.29    2.83
   0   3   4   51.59    2.07
   0   3  -4   51.88    3.03
   0   3  -4   50.62    2.86
   0   3   4   54.95    2.70
  -1  -3  -4   11.48    1.10
  -1  -3  -4   12.16    0.68
   1  -3   4   11.36    1.24
  -1  -3  -4   12.50    1.51
  -1   3  -4   12.03    1.63
  -1   3  -4   12.36    1.78
   1   3   4   13.87    1.43
  -1   3  -4   10.49    1.83
  -2  -3  -4    5.02    1.19
  -2  -3  -4    3.71    0.97
  -2   3  -4    1.86    1.79
  -2   3  -4    3.06    1.12
  -2   3  -4    2.45    1.41
  -2   3  -4    4.98    2.01
   2   3   4    3.82    0.90
  -3  -3  -4    0.79    1.06
  -3  -3  -4    1.67    1.02
  -3   3  -4    0.12    1.75
   3   3   4    1.41    0.61
  -3   3  -4    1.45    1.68
  -3   3  -4   -0.52    2.13
  -3   3  -4    0.84    1.16
  -4  -3  -4    0.65    1.15
  -4  -3  -4   -1.08    1.08
  -4   3  -4    0.27    2.03
  -4   3  -4    0.68    1.29
  -4   3  -4   -1.95    2.05
  -4   3  -4    0.30    2.39
  -5  -3  -4   18.95    2.20
  -5  -3  -4   14.38    2.05
  -5   3  -4   17.36    3.32
  -5   3  -4   14.96    3.04
   5   3   4   17.44    0.73
  -5   3  -4   19.97    3.56
  -5   3  -4   22.53    2.48
  -6  -3  -4   61.50    3.61
  -6  -3  -4   63.64    3.56
  -6   3  -4   57.37    4.71
  -6   3  -4   59.33    3.81
  -6   3  -4   51.42    4.91
  -6   3  -4   59.47    5.25
  -7  -3  -4   30.26    2.67
  -7  -3  -4   27.62    2.49
  -7   3  -4   21.55    4.17
  -7   3  -4   18.58    3.75
  -7   3  -4   26.74    2.88
  -7   3  -4   30.55    4.49
  -8  -3  -4    1.25    1.92
  -8  -3  -4    1.79    1.71
  -8   3  -4    4.61    1.76
  -8   3  -4    2.26    4.02
  -8   3  -4    3.90    3.62
  -9  -3  -4   13.81    2.92
  -9   3  -4   23.00    2.88
  -9   3  -4   21.77    4.56
  -9   3  -4    7.44    4.25
  -9   3  -4   19.37    4.08
 -10  -3  -4    6.49    2.40
 -10  -3  -4    3.55    2.56
 -10   3  -4    2.77    3.76
 -10   3  -4    6.15    4.68
 -10   3  -4   -2.68    4.06
 -10   3  -4    8.26    2.49
 -11  -3  -4   -0.64    2.00
 -11  -3  -4   -0.24    2.11
 -11   3  -4    2.10    3.98
 -11   3  -4    2.78    3.78
 -11   3  -4   -4.61    4.04
 -11   3  -4    2.41    2.13
 -12  -3  -4   -1.90    2.23
 -12  -3  -4    3.84    2.90
 -12   3  -4   -1.90    2.23
 -12   3  -4    4.13    4.75
 -12   3  -4    3.33    4.03
 -12   3  -4   -5.01    4.69
 -13  -3  -4   -1.70    2.51
 -13   3  -4   -0.37    3.99
 -13   3  -4   -1.36    2.30
 -13   3  -4   -1.46    5.31
 -13   3  -4    6.53    9.29
 -14  -3  -4   -2.06    3.37
 -14   3  -4   -2.24    4.87
 -14   3  -4   -2.43    2.52
 -15  -3  -4    0.21    3.15
 -15  -3  -4   -3.61    3.80
 -15   3  -4    5.81    5.26
 -15   3  -4    1.64    2.64
 -15   3  -4    1.09    4.97
 -16  -4   4    2.75    3.94
 -16  -4   4   -2.01    2.53
 -16  -4   4   -0.42    2.85
 -16   4   4    2.16    3.53
 -15  -4   4   -0.86    1.93
 -15  -4   4    4.20    3.07
 -15   4   4   -1.30    4.31
 -14  -4   4   -4.15    1.93
 -14  -4   4    2.01    1.98
 -14  -4   4    1.69    2.30
 -14  -4   4   -0.30    1.75
 -14   4   4   -5.37    2.46
 -14   4   4   -2.92    4.74
 -14   4   4    0.60    3.69
 -13  -4   4    0.23    1.52
 -13  -4   4   -0.05    1.71
 -13  -4   4    0.10    2.02
 -13  -4   4    0.29    1.73
 -13   4   4    3.85    2.81
 -13   4   4   -0.60    4.59
 -13   4   4    4.44    3.74
 -12  -4   4    7.84    2.39
 -12  -4   4    1.69    1.50
 -12  -4   4    9.70    2.35
 -12   4   4    1.22    3.40
 -12   4   4   10.27    3.05
 -12   4   4    3.97    4.35
 -11  -4   4   39.00    3.06
 -11  -4   4   45.57    3.62
 -11   4   4   32.22    4.23
 -11   4   4   25.07    4.96
 -11   4   4   22.82    3.80
 -10  -4   4   59.82    3.40
 -10  -4   4   52.98    3.71
 -10   4   4   49.89    4.47
 -10   4   4   45.95    4.11
 -10   4   4   34.79    5.01
  -9  -4   4   27.52    2.65
  -9  -4   4   28.92    2.38
  -9   4   4   29.32    3.54
  -9   4   4   26.36    2.83
  -9   4   4   23.98    2.96
  -9   4   4   31.63    4.02
  -8  -4   4    7.53    1.47
  -8  -4   4   11.42    2.06
  -8   4   4   12.38    2.15
  -8   4   4    4.75    2.17
  -8   4   4    8.82    2.91
  -7  -4   4   17.59    2.32
  -7  -4   4   15.86    1.73
  -7   4   4   16.32    2.64
  -7   4   4   21.05    3.03
  -7   4   4   20.37    2.40
  -6  -4   4   23.41    1.80
  -6  -4   4   21.95    2.19
   6   4  -4   24.81    2.33
  -6   4   4   28.78    2.70
  -6   4   4   26.76    2.91
  -6   4   4   23.60    2.24
   5  -4  -4   15.62    1.12
  -5  -4   4   15.73    2.09
  -5  -4   4   14.32    1.53
  -5   4   4   11.51    2.20
  -5   4   4   14.30    1.90
  -5   4   4   15.25    1.81
   5   4  -4   16.11    2.07
  -4  -4   4   18.04    1.49
   4  -4  -4   17.69    1.70
   4   4  -4   19.64    1.88
  -4   4   4   15.71    1.64
  -4   4   4   22.00    2.58
  -4   4   4   18.40    1.78
   3  -4  -4   75.26    3.35
  -3  -4   4   80.79    3.68
  -3   4   4   74.98    4.25
  -3   4   4   83.82    3.55
   3   4  -4   74.15    3.92
  -3   4   4   73.46    3.21
   2  -4  -4  212.97    7.60
  -2  -4   4  209.03    8.01
   2  -4  -4  206.88    7.01
  -2   4   4  216.94    7.46
   2   4  -4  208.72    8.27
  -2   4   4  206.14    8.31
   1  -4  -4  156.87    5.44
   1  -4  -4  159.06    5.89
  -1  -4   4  146.13    5.89
  -1   4   4  152.83    5.66
   1   4  -4  154.21    6.43
  -1   4   4  154.05    6.38
   1   4  -4  158.49    6.56
   0  -4  -4   37.12    2.21
   0  -4   4   42.82    2.28
   0  -4  -4   40.63    1.96
   0   4   4   39.35    2.58
   0   4  -4   36.59    2.66
   0   4  -4   39.01    2.74
   1  -4   4   29.04    1.92
  -1  -4  -4   31.99    1.81
  -1  -4  -4   30.85    2.18
  -1   4  -4   27.21    2.77
  -1   4  -4   27.56    2.28
   1   4   4   28.84    2.12
  -1   4  -4   30.55    2.50
   2  -4   4  183.73    7.10
  -2  -4  -4  189.82    7.32
  -2  -4  -4  187.16    7.05
   2   4   4  202.71    7.09
  -2   4  -4  183.23    7.75
  -2   4  -4  198.21    7.58
  -2   4  -4  187.46    8.07
  -3  -4  -4  362.50   12.75
  -3   4  -4  345.56   13.38
   3   4   4  365.40   12.11
  -3   4  -4  341.72   13.51
  -3   4  -4  353.83   12.81
  -3   4  -4  356.84   13.21
  -4  -4  -4  169.26    7.02
  -4  -4  -4  176.85    6.97
  -4   4  -4  175.30    8.06
   4   4   4  180.41    6.03
  -4   4  -4  180.44    7.29
  -4   4  -4  172.85    8.15
  -4   4  -4  174.01    7.54
  -5  -4  -4   22.12    2.25
  -5  -4  -4   25.85    2.24
  -5   4  -4   21.19    2.85
  -5   4  -4   26.35    3.80
  -5   4  -4   33.62    4.23
  -5   4  -4   26.60    2.77
  -6  -4  -4    1.34    1.44
  -6  -4  -4    0.39    1.46
  -6   4  -4    2.54    1.90
  -6   4  -4    1.86    2.93
  -6   4  -4    5.40    2.34
  -6   4  -4    6.74    3.50
  -7  -4  -4    5.77    2.01
  -7  -4  -4    5.83    1.81
  -7   4  -4    5.53    2.72
  -7   4  -4    2.25    2.74
  -7   4  -4    0.25    3.38
  -7   4  -4    3.15    1.86
  -8  -4  -4    9.50    2.46
  -8   4  -4    6.85    4.04
  -8   4  -4    6.63    3.81
  -8   4  -4    3.08    2.86
  -8   4  -4   12.11    2.40
  -9  -4  -4    2.61    2.22
  -9  -4  -4    0.61    1.95
  -9   4  -4    0.45    1.91
  -9   4  -4    2.30    4.05
  -9   4  -4    1.61    4.67
 -10  -4  -4    1.66    2.09
 -10  -4  -4    3.14    2.46
 -10   4  -4    4.68    4.43
 -10   4  -4   -0.23    4.18
 -10   4  -4   -5.09    2.87
 -10   4  -4    0.74    2.33
 -11  -4  -4    5.60    2.61
 -11  -4  -4    3.91    2.91
 -11   4  -4   -2.65    4.61
 -11   4  -4   -0.48    4.80
 -11   4  -4    2.25    3.21
 -11   4  -4    4.81    2.76
 -12  -4  -4   14.38    3.81
 -12  -4  -4   10.40    3.09
 -12   4  -4   10.71    5.53
 -12   4  -4   -3.58    4.85
 -12   4  -4    9.17    3.09
 -13  -4  -4    9.48    3.79
 -13   4  -4    1.17    5.24
 -13   4  -4    4.29    2.93
 -13   4  -4    6.18    5.65
 -14  -4  -4   -2.35    3.20
 -14  -4  -4    1.46    3.05
 -14   4  -4   -3.53    2.43
 -14   4  -4    4.71    5.38
 -14   4  -4   -4.34    5.22
 -15  -4  -4    0.09    3.62
 -15  -4  -4   -2.37    2.92
 -15   4  -4   -0.34    6.07
 -15   4  -4   -3.35    2.84
 -15   4  -4    0.71    5.08
 -16  -5   4   -1.58    2.79
 -16  -5   4    0.43    2.47
 -16   5   4    7.24    3.63
 -16   5   4   -4.27    4.34
 -15  -5   4    0.94    2.00
 -15  -5   4    1.59    2.26
 -15  -5   4    2.42    2.42
 -15   5   4    2.23    4.45
 -15   5   4    2.18    3.28
 -14  -5   4    0.92    1.88
 -14  -5   4    3.42    2.67
 -14   5   4   -5.12    3.75
 -13  -5   4    0.34    2.26
 -13  -5   4    0.66    1.67
 -13  -5   4    1.57    2.15
 -13   5   4   -4.80    2.38
 -13   5   4   -0.88    4.17
 -12  -5   4    1.93    2.14
 -12  -5   4   -0.48    1.87
 -12  -5   4    3.42    1.62
 -12   5   4   -1.50    2.49
 -12   5   4    0.48    4.46
 -11  -5   4    2.72    1.99
 -11  -5   4    5.86    2.08
 -11  -5   4   -0.18    1.18
 -11   5   4   -0.88    1.83
 -11   5   4    0.67    2.39
 -11   5   4   -0.05    3.31
 -10  -5   4   -1.56    1.19
 -10  -5   4    1.71    1.85
 -10   5   4    0.42    2.22
 -10   5   4   -0.27    2.87
  -9  -5   4    2.85    1.27
  -9  -5   4    0.61    1.69
  -9   5   4    4.19    2.34
  -9   5   4   -0.29    2.45
  -8  -5   4   23.85    1.95
  -8   5   4   18.92    2.91
  -7  -5   4   26.91    2.38
  -7  -5   4   25.24    2.07
  -7   5   4   22.39    3.24
  -6  -5   4    0.90    1.36
  -6  -5   4    0.87    0.98
   6   5  -4    0.94    1.30
  -6   5   4    2.39    1.48
  -6   5   4    2.40    1.89
   5  -5  -4   26.26    1.65
  -5  -5   4   29.52    2.52
  -5  -5   4   31.03    2.00
   5   5  -4   26.66    2.44
  -5   5   4   30.10    3.42
  -5   5   4   32.16    2.42
   4  -5  -4   12.42    1.57
  -4  -5   4   13.30    1.97
  -4  -5   4   11.47    1.44
   4   5  -4   12.96    2.10
  -4   5   4   10.00    2.28
  -4   5   4   11.88    1.63
  -3  -5   4    2.55    1.04
   3  -5  -4    3.11    1.14
   3   5  -4    0.96    1.39
  -3   5   4    4.51    1.74
  -3   5   4    0.94    0.95
   2  -5  -4    4.31    1.14
  -2  -5   4    4.17    1.10
   2   5  -4    2.63    1.31
  -2   5   4    4.17    1.04
  -2   5   4    2.99    1.73
   1  -5  -4    9.81    1.00
   1  -5  -4   13.31    1.66
  -1  -5   4   10.87    1.48
   1   5  -4    5.82    1.95
   1   5  -4    9.26    1.79
  -1   5   4   11.81    2.14
  -1   5   4    9.44    1.31
   0  -5   4   31.06    2.11
   0  -5  -4   30.09    1.77
   0   5   4   29.31    2.05
   0   5   4   36.13    2.74
   0   5  -4   28.02    2.70
   0   5  -4   31.37    3.00
  -1  -5  -4    5.36    1.12
  -1  -5  -4    3.32    0.41
  -1  -5  -4    5.74    1.40
   1  -5   4    6.11    1.29
  -1   5  -4    5.43    2.04
   1   5   4    3.11    1.42
  -1   5  -4    6.07    1.71
  -2  -5  -4    1.92    1.09
   2  -5   4    0.47    0.98
  -2  -5  -4   -0.41    1.07
  -2   5  -4    0.62    1.40
   2   5   4    1.33    1.13
  -2   5  -4    0.59    1.95
   3  -5   4    0.68    0.82
  -3  -5  -4    1.09    1.05
  -3  -5  -4   -0.12    1.22
   3   5   4    0.49    0.92
  -3   5  -4   -2.24    1.96
  -3   5  -4    1.45    1.60
  -4  -5  -4    0.41    1.26
  -4  -5  -4    0.13    1.13
  -4   5  -4   -3.80    2.21
  -4   5  -4   -0.25    1.50
  -4   5  -4   -0.40    1.56
   4   5   4    0.64    0.68
  -5  -5  -4   10.62    1.89
  -5  -5  -4    9.16    1.95
  -5   5  -4    7.43    1.91
  -5   5  -4   14.77    3.45
  -5   5  -4    9.18    2.23
  -5   5  -4    9.08    3.17
  -6  -5  -4   32.71    2.91
  -6  -5  -4   30.46    2.99
  -6   5  -4   35.36    2.86
  -6   5  -4   31.17    4.32
  -6   5  -4   29.23    3.28
  -6   5  -4   32.63    4.85
  -7  -5  -4   14.12    2.48
  -7  -5  -4   12.37    2.34
  -7   5  -4    5.13    3.77
  -7   5  -4    7.64    3.70
  -7   5  -4    8.90    2.05
  -7   5  -4   16.14    3.23
  -8  -5  -4    1.42    1.85
  -8  -5  -4    2.47    2.03
  -8   5  -4   -5.43    3.72
  -8   5  -4    1.77    3.87
  -8   5  -4    1.02    2.07
  -8   5  -4    1.35    1.74
  -9  -5  -4    9.78    2.77
  -9  -5  -4   13.05    2.69
  -9   5  -4    8.11    2.07
  -9   5  -4   11.79    5.02
  -9   5  -4    6.83    4.53
  -9   5  -4   11.02    3.04
 -10  -5  -4   -0.75    2.40
 -10  -5  -4   -0.49    2.23
 -10   5  -4    4.82    2.89
 -10   5  -4   -4.19    4.09
 -10   5  -4    3.81    4.80
 -10   5  -4    6.94    1.91
 -11  -5  -4    0.64    2.77
 -11  -5  -4    0.12    2.36
 -11   5  -4    0.73    4.93
 -11   5  -4    1.03    5.16
 -11   5  -4   -1.05    2.73
 -12  -5  -4   -7.56    2.92
 -12   5  -4   -6.05    6.16
 -12   5  -4    1.87    2.83
 -12   5  -4   -0.48    9.12
 -13  -5  -4    5.00    2.96
 -13  -5  -4   -2.11    2.97
 -13   5  -4   -2.15    5.14
 -13   5  -4    8.39    6.60
 -13   5  -4    2.26    2.80
 -14  -5  -4    0.81    3.18
 -14  -5  -4   -2.90    3.24
 -14   5  -4    1.51    5.36
 -14   5  -4    2.06    3.55
 -14   5  -4    7.08    6.71
 -15  -6   4    4.54    2.83
 -15  -6   4   -0.20    1.96
 -15  -6   4   -3.01    2.73
 -15   6   4   -8.86    6.40
 -15   6   4    4.82    3.90
 -14  -6   4    1.96    1.96
 -14  -6   4   -0.02    2.45
 -14  -6   4    2.86    2.76
 -14   6   4    5.29    4.45
 -14   6   4   -3.85    2.77
 -13  -6   4    2.06    1.90
 -13  -6   4    2.57    2.70
 -13  -6   4    7.33    2.83
 -13   6   4    8.60    3.66
 -13   6   4    5.14    4.35
 -12  -6   4    1.60    2.36
 -12  -6   4    4.24    2.37
 -12  -6   4    0.76    1.62
 -12   6   4    7.17    3.99
 -12   6   4    2.85    3.02
 -11  -6   4   -2.71    1.43
 -11  -6   4    0.86    2.04
 -11  -6   4    2.45    2.17
 -11   6   4   -4.16    2.74
 -11   6   4   -1.71    2.60
 -10  -6   4   -1.91    1.16
 -10  -6   4   -1.84    1.64
 -10   6   4    0.23    2.37
 -10   6   4    1.21    2.64
  -9  -6   4    8.43    1.66
  -9  -6   4    9.03    2.36
  -9   6   4    8.34    2.86
  -9   6   4    4.19    2.57
  -8  -6   4   30.73    2.38
  -8  -6   4   29.50    3.01
  -8   6   4   28.14    3.85
  -8   6   4   23.37    3.11
  -7  -6   4   35.90    2.47
  -7  -6   4   33.02    3.04
  -7   6   4   29.93    3.14
  -7   6   4   36.46    4.23
  -6  -6   4   41.46    2.63
  -6  -6   4   41.11    3.08
  -6   6   4   39.25    4.28
   6   6  -4   45.37    3.98
  -6   6   4   39.92    3.10
  -5  -6   4   71.35    4.12
  -5  -6   4   68.89    3.40
   5   6  -4   66.74    4.31
  -5   6   4   68.16    4.82
  -4  -6   4   86.26    4.02
   4  -6  -4   84.60    3.78
  -4  -6   4   93.32    4.73
  -4   6   4   85.57    5.33
  -4   6   4   92.02    4.29
   4   6  -4   89.41    4.82
   3  -6  -4   48.64    2.59
  -3  -6   4   43.92    2.69
   3  -6  -4   38.59    1.97
  -3   6   4   49.65    2.83
  -3   6   4   42.00    4.00
   3   6  -4   44.99    3.31
   2  -6  -4   16.75    1.87
   2  -6  -4   16.79    1.17
  -2  -6   4   11.94    1.68
  -2   6   4   19.71    2.78
  -2   6   4   16.27    1.84
   2   6  -4   21.39    2.77
  -1  -6   4   28.94    2.16
   1  -6  -4   28.52    2.20
   1  -6  -4   27.10    1.62
  -1   6   4   25.45    2.12
   1   6  -4   30.59    3.40
  -1   6   4   28.17    3.09
   1   6  -4   27.28    3.05
   0  -6   4   88.32    4.16
   0  -6  -4   86.42    3.73
   0  -6  -4   93.52    4.28
   0   6  -4   85.29    5.21
   0   6  -4   86.38    4.89
   0   6   4   90.78    4.68
  -1  -6  -4   90.37    4.04
   1  -6   4   97.61    4.38
  -1  -6  -4   95.61    4.54
  -1   6  -4   90.30    5.17
  -1   6  -4   90.73    5.50
   1   6   4   94.62    4.79
  -2  -6  -4   17.43    2.18
  -2  -6  -4   11.69    1.72
   2  -6   4   18.74    2.10
  -2   6  -4   15.54    2.59
   2   6   4   15.43    2.00
  -2   6  -4   11.76    2.53
  -3  -6  -4    1.52    1.20
   3  -6   4    2.92    1.27
  -3  -6  -4    2.74    1.66
  -3   6  -4    3.24    1.82
   3   6   4    1.46    1.10
  -3   6  -4    3.48    2.54
  -4  -6  -4    3.48    1.47
  -4  -6  -4    4.84    1.66
  -4   6  -4    0.45    2.47
  -4   6  -4    3.32    2.11
   4   6   4    3.44    1.01
  -5  -6  -4   38.41    3.52
  -5  -6  -4   37.40    3.14
  -5   6  -4   42.13    4.31
  -6  -6  -4   60.28    4.04
  -6  -6  -4   57.11    3.74
  -6   6  -4   57.98    5.73
  -6   6  -4   57.41    4.65
  -7  -6  -4   32.01    3.40
  -7  -6  -4   30.60    3.24
  -7   6  -4   26.11    3.66
  -7   6  -4   28.31    4.86
  -8  -6  -4   21.49    3.14
  -8  -6  -4    7.59    2.38
  -8   6  -4    9.63    4.24
  -8   6  -4    8.88    4.41
  -8   6  -4   14.64    3.27
  -9  -6  -4   12.81    2.98
  -9  -6  -4   15.75    3.06
  -9   6  -4   22.34    3.55
  -9   6  -4    6.84    4.64
  -9   6  -4    7.42    4.83
 -10  -6  -4    6.77    2.83
 -10  -6  -4    7.70    3.04
 -10   6  -4    1.04    4.95
 -10   6  -4   18.28    3.41
 -10   6  -4   11.44    5.86
 -11  -6  -4   -1.30    2.93
 -11   6  -4    2.83    3.14
 -11   6  -4  -14.47    5.16
 -12  -6  -4   -1.82    2.85
 -12  -6  -4   -0.17    2.74
 -12   6  -4    0.64    6.09
 -12   6  -4  -10.73    4.65
 -13  -6  -4    5.84    3.64
 -13  -6  -4    2.34    3.02
 -13   6  -4   -0.16    3.20
 -13   6  -4   -2.96    5.11
 -14  -7   4    4.90    2.26
 -14  -7   4    8.05    3.21
 -14  -7   4    1.40    2.81
 -14   7   4    3.61    3.71
 -14   7   4   -0.69    3.73
 -13  -7   4    1.98    3.04
 -13  -7   4    1.78    2.37
 -13  -7   4   -1.19    1.70
 -13   7   4    1.81    3.23
 -13   7   4    0.86    3.59
 -12  -7   4    1.70    1.61
 -12  -7   4   -0.93    2.23
 -12  -7   4    0.75    2.25
 -12   7   4    0.44    2.82
 -12   7   4    0.10    3.39
 -11  -7   4   -0.36    1.35
 -11   7   4    2.44    3.08
 -10  -7   4   -0.04    2.49
 -10  -7   4    2.87    2.34
 -10  -7   4    2.38    2.18
 -10   7   4    1.14    2.55
 -10   7   4    4.88    2.86
  -9  -7   4    1.78    1.35
  -9  -7   4    2.56    2.07
  -9   7   4    0.17    2.22
  -9   7   4    0.46    2.46
  -8  -7   4    7.41    1.54
  -8  -7   4   10.55    2.54
  -8   7   4    3.65    2.93
  -8   7   4    8.32    2.45
  -7  -7   4    8.54    1.67
  -7  -7   4   19.08    2.92
   7   7  -4   11.75    2.18
  -7   7   4    5.85    2.19
  -7   7   4   10.87    3.08
  -6  -7   4   -0.12    1.57
  -6  -7   4    0.22    1.12
  -6   7   4   -0.09    1.53
   6   7  -4   -0.53    1.58
  -6   7   4    3.28    2.54
  -5  -7   4   11.18    1.76
  -5  -7   4    9.46    2.27
   5   7  -4    7.65    2.21
  -5   7   4    8.10    1.87
  -5   7   4   14.86    3.04
  -4  -7   4    3.28    1.28
   4  -7  -4    3.05    1.24
  -4   7   4    4.38    1.47
  -4   7   4    3.23    2.18
   4   7  -4    1.42    1.76
   3  -7  -4    1.16    1.13
  -3  -7   4   -0.74    1.07
   3  -7  -4    1.33    0.67
  -3  -7   4    1.68    1.59
   3   7  -4    1.58    1.93
  -3   7   4    0.78    1.27
  -3   7   4    3.74    2.38
   2  -7  -4    0.67    1.11
  -2  -7   4    2.01    1.28
   2  -7  -4    0.42    0.69
  -2   7   4    1.38    1.16
  -2   7   4    1.72    2.13
   1  -7  -4    2.31    0.89
  -1  -7   4    4.36    1.48
   1  -7  -4    1.65    1.28
   1   7  -4    7.59    2.47
  -1   7   4    3.13    2.08
  -1   7   4    2.77    1.33
   1   7  -4    3.86    1.97
   0  -7  -4   11.03    1.12
   0  -7   4   15.53    1.96
   0  -7  -4   14.00    2.05
   0  -7  -4   14.71    1.58
   0   7  -4   10.68    2.92
   0   7   4   11.53    1.75
   0   7   4   13.08    2.48
   0   7  -4   10.51    2.34
   1  -7   4    2.24    1.29
  -1  -7  -4    1.92    1.55
  -1  -7  -4    0.90    1.01
  -1  -7  -4    0.97    0.49
   1   7   4    1.45    1.60
  -1   7  -4    3.60    2.17
  -2  -7  -4    1.79    1.16
  -2  -7  -4    1.21    1.44
   2  -7   4   -0.48    1.15
  -2   7  -4    1.94    1.90
   2   7   4    0.03    1.17
  -2   7  -4    3.45    2.49
  -3  -7  -4   -0.13    1.60
   3  -7   4    0.55    1.43
  -3  -7  -4   -2.07    1.17
  -3   7  -4    1.26    1.87
  -3   7  -4   -0.63    2.31
  -4  -7  -4    0.13    1.53
  -4  -7  -4   -1.91    1.41
   4  -7   4   -0.99    1.23
  -4   7  -4   -3.23    2.54
  -4   7  -4   -1.61    1.82
   4   7   4   -1.01    1.04
  -5  -7  -4    0.91    1.57
  -5  -7  -4    3.19    1.91
  -5   7  -4   -0.26    2.84
  -5   7  -4   -2.09    2.26
  -6  -7  -4   11.31    2.46
  -6  -7  -4   13.24    2.61
  -6   7  -4   11.22    3.00
  -6   7  -4    5.23    3.45
  -7  -7  -4    4.78    2.18
  -7  -7  -4    3.56    2.21
  -7   7  -4    7.59    3.88
  -7   7  -4    5.20    2.62
  -8  -7  -4   -1.06    2.00
  -8  -7  -4    0.22    1.97
  -8   7  -4    2.56    2.80
  -8   7  -4    6.34    4.21
  -9  -7  -4    3.38    2.49
  -9  -7  -4    7.24    2.75
  -9   7  -4    5.54    4.72
  -9   7  -4    5.76    3.16
 -10  -7  -4   -3.96    4.03
 -10  -7  -4    3.08    2.63
 -10   7  -4   -2.23    5.34
 -11  -7  -4    0.66    2.82
 -11  -7  -4   -5.14    2.44
 -11   7  -4    2.27    5.93
 -11   7  -4    1.34    2.99
 -12  -7  -4    0.88    3.03
 -12  -7  -4   -1.65    2.83
 -12   7  -4    5.38    6.25
 -12   7  -4    0.73    3.26
 -13  -8   4   -0.10    2.78
 -13  -8   4    3.45    3.01
 -13   8   4   -1.14    3.61
 -13   8   4    0.06    3.20
 -12  -8   4   -2.90    2.44
 -12  -8   4    5.35    2.94
 -12  -8   4    2.37    2.76
 -12   8   4    5.24    3.48
 -12   8   4    2.05    3.25
 -11  -8   4    5.96    1.84
 -11  -8   4    7.37    3.05
 -11  -8   4    3.73    2.73
 -11   8   4   11.46    3.97
 -11   8   4    5.92    3.29
 -10  -8   4    9.76    2.01
 -10  -8   4   13.92    3.10
 -10  -8   4    8.89    3.10
 -10   8   4    7.70    3.25
 -10   8   4    3.17    3.53
  -9  -8   4    6.02    2.72
  -9  -8   4    3.09    2.54
  -9  -8   4    3.37    1.62
  -9   8   4    1.82    2.88
  -9   8   4    4.35    2.72
  -8  -8   4   10.06    2.75
  -8  -8   4    2.78    1.53
  -8   8   4    5.02    2.33
  -8   8   4    3.96    2.98
  -7  -8   4    5.80    1.54
  -7  -8   4    4.84    2.24
  -7   8   4    5.32    2.95
  -7   8   4    3.22    2.01
  -6  -8   4    6.93    1.61
  -6  -8   4    8.20    2.41
  -6   8   4    9.47    3.18
   6   8  -4    9.24    2.59
  -6   8   4    7.47    2.17
  -5  -8   4    5.25    2.05
  -5  -8   4    5.58    1.56
  -5   8   4    6.78    2.00
  -5   8   4    2.90    2.83
   5   8  -4    8.87    2.51
  -4  -8   4    6.16    2.25
   4  -8  -4    5.04    1.41
  -4  -8   4    9.17    1.76
   4   8  -4    3.08    2.16
  -4   8   4    9.16    1.86
  -4   8   4    5.75    2.77
   3  -8  -4   17.21    2.23
  -3  -8   4   19.12    2.26
  -3  -8   4   23.93    3.16
   3  -8  -4   19.27    1.33
  -3   8   4   23.50    3.79
   3   8  -4   22.09    3.33
  -3   8   4   24.40    2.58
   2  -8  -4   39.93    2.16
   2  -8  -4   41.50    2.83
  -2  -8   4   39.81    2.81
   2   8  -4   41.67    4.04
  -2   8   4   45.69    3.23
   1  -8  -4   36.54    2.23
  -1  -8   4   34.25    3.10
   1  -8  -4   36.21    2.80
  -1   8   4   38.61    4.00
   1   8  -4   38.88    4.36
  -1   8   4   35.42    2.98
   1   8  -4   43.74    3.78
   0  -8  -4   15.05    2.22
   0  -8   4   12.35    2.40
   0  -8  -4   12.16    1.28
   0  -8  -4   12.23    1.62
   0   8  -4   11.17    2.59
   0   8   4   16.35    2.79
   0   8   4   14.78    2.19
   0   8  -4   10.28    2.84
   1  -8   4   17.01    2.36
  -1  -8  -4    9.16    0.90
  -1  -8  -4    9.19    2.08
  -1  -8  -4   11.19    1.71
   1   8   4   13.11    2.51
  -1   8  -4   13.09    2.83
  -1   8  -4   13.63    3.05
   2  -8   4   30.10    2.98
  -2  -8  -4   39.82    2.82
   2   8   4   38.08    3.32
  -2   8  -4   44.12    4.77
  -2   8  -4   34.99    4.19
   3  -8   4   67.21    3.99
  -3  -8  -4   70.58    4.31
  -3  -8  -4   62.85    3.90
  -3   8  -4   65.20    5.76
   3   8   4   70.42    4.15
  -3   8  -4   55.86    4.98
   4  -8   4   33.52    3.08
  -4  -8  -4   41.73    3.46
  -4  -8  -4   31.05    3.13
   4   8   4   41.06    3.57
  -4   8  -4   31.58    4.19
  -4   8  -4   34.79    4.85
  -5  -8  -4    8.73    2.28
  -5  -8  -4    7.81    2.39
   5  -8   4    7.76    2.15
  -5   8  -4    8.15    3.50
  -5   8  -4   10.47    3.07
  -6  -8  -4    1.28    2.10
  -6  -8  -4    1.30    1.93
   6  -8   4    1.86    1.89
  -6   8  -4    1.56    2.63
  -6   8  -4   -0.99    3.21
  -7  -8  -4    4.19    2.53
  -7  -8  -4    1.38    2.06
  -7   8  -4    7.25    3.86
  -7   8  -4   -0.40    2.40
  -8  -8  -4   -0.59    2.22
  -8   8  -4    8.85    8.86
  -9  -8  -4    2.89    2.74
  -9   8  -4    4.22    4.63
  -9   8  -4    0.70    3.36
 -10  -8  -4   -1.80    2.59
 -10  -8  -4    2.35    2.94
 -10   8  -4    2.34    5.38
 -10   8  -4   -0.30    3.14
 -11  -8  -4    3.29    3.16
 -11  -8  -4   -1.68    3.15
 -11   8  -4   -4.94    2.59
 -11   8  -4  -10.99    5.32
 -11  -9   4    4.80    3.28
 -11  -9   4   -2.51    2.39
 -11   9   4    0.14    3.49
 -11   9   4   -0.21    3.18
 -10  -9   4    2.71    2.60
 -10  -9   4   -5.70    2.11
 -10   9   4   -2.66    3.43
 -10   9   4    0.50    2.64
  -9  -9   4   -1.15    1.46
  -9  -9   4    1.36    2.42
  -9  -9   4    1.37    2.80
  -9   9   4    3.56    2.74
  -9   9   4    2.75    3.61
  -8  -9   4    0.93    1.47
  -8  -9   4    5.25    2.71
  -8  -9   4    4.93    2.63
  -8   9   4    1.37    2.30
  -8   9   4    3.35    3.57
  -7  -9   4    2.82    1.50
  -7  -9   4    4.97    2.51
  -7   9   4    4.53    2.15
  -6  -9   4   -1.43    1.94
  -6  -9   4    0.75    1.29
   6   9  -4    1.21    2.17
  -6   9   4   -0.19    2.87
  -5  -9   4    3.97    1.62
  -5  -9   4    3.66    2.11
  -5   9   4    4.82    2.92
  -5   9   4    2.47    1.93
   5   9  -4    3.73    2.32
  -4  -9   4    4.75    1.58
  -4  -9   4   -0.15    1.67
   4   9  -4    0.36    1.98
  -4   9   4    0.39    1.68
  -4   9   4    8.44    3.24
   3  -9  -4    0.22    1.24
  -3  -9   4    1.03    1.84
  -3  -9   4   -0.28    1.22
   3   9  -4   -2.86    1.76
  -3   9   4   -2.00    1.31
  -3   9   4   -0.11    2.45
   2  -9  -4   -2.57    1.26
  -2  -9   4   -0.32    1.80
   2  -9  -4    0.00    0.91
  -2  -9   4    2.82    1.54
  -2   9   4    1.96    2.50
  -2   9   4   -0.02    1.45
   2   9  -4    1.59    2.16
  -1  -9   4   -1.53    1.40
   1  -9  -4    0.92    1.03
   1  -9  -4   -0.09    1.58
   1  -9  -4    2.18    1.03
   1   9  -4    0.17    2.30
  -1   9   4    2.06    1.67
  -1   9   4    2.08    2.31
   1   9  -4    2.72    2.27
   0  -9  -4    4.43    1.85
   0  -9   4    1.36    1.40
   0  -9  -4    2.38    1.23
   0  -9  -4    1.76    0.81
   0   9  -4    3.74    2.55
   0   9   4    1.03    2.08
   0   9   4   -1.24    1.42
   0   9  -4    1.87    2.07
   1  -9   4   -0.12    1.31
  -1  -9  -4   -0.56    1.25
  -1  -9  -4   -1.94    1.58
  -1   9  -4    3.84    2.97
  -1   9  -4   -3.09    1.78
   1   9   4    0.61    1.81
  -2  -9  -4    1.17    1.38
   2  -9   4    0.56    1.43
  -2  -9  -4    1.00    1.71
  -2   9  -4    1.56    2.14
  -2   9  -4    0.21    2.47
   2   9   4    1.24    1.86
   3  -9   4    0.78    1.67
  -3  -9  -4    1.85    2.06
   3   9   4    0.49    1.68
  -3   9  -4   -2.91    2.56
  -3   9  -4   -3.42    1.99
  -4  -9  -4   -0.29    1.78
  -4  -9  -4   -1.48    2.06
   4  -9   4    1.70    1.62
  -4   9  -4    1.19    2.39
  -4   9  -4   -0.02    2.89
   4   9   4   -0.32    1.48
  -5  -9  -4   -1.45    2.21
   5  -9   4   -0.72    1.64
  -5  -9  -4   -0.82    1.91
  -5   9  -4   -4.87    2.77
  -6  -9  -4    1.74    2.94
  -6  -9  -4    1.40    2.21
  -6   9  -4    2.75    2.74
  -7  -9  -4    2.04    2.45
  -7  -9  -4    1.51    2.40
   7  -9   4    0.87    1.95
  -7   9  -4    9.59    3.35
  -7   9  -4    3.34    4.59
  -8  -9  -4    2.89    3.01
   8  -9   4   -0.05    2.04
  -8  -9  -4    3.63    2.80
  -8   9  -4   -7.80    4.17
  -8   9  -4    1.33    2.91
  -9  -9  -4   -0.56    3.09
   9  -9   4   -0.12    2.28
  -9  -9  -4    1.13    2.82
  -9   9  -4   -2.96    4.63
  -9   9  -4   -1.41    3.02
 -10  -9  -4    1.07    2.93
 -10  -9  -4   -4.33    2.55
 -10   9  -4   -1.27    3.23
 -10   9  -4   -6.96    4.37
  -9 -10   4    1.90    3.12
  -9 -10   4    4.92    3.17
  -9  10   4    0.63    2.97
  -8 -10   4    4.94    3.01
  -8 -10   4    1.84    2.83
  -8  10   4    0.18    2.54
  -8  10   4    2.51    3.21
  -7 -10   4    5.41    2.66
  -7 -10   4    1.74    2.70
  -7 -10   4    4.63    1.66
  -7  10   4    3.33    2.33
  -7  10   4    5.86    3.38
  -6 -10   4    7.84    2.77
  -6 -10   4    5.40    1.74
  -6 -10   4    4.02    2.99
  -6  10   4    4.00    3.05
   6  10  -4    9.86    3.09
  -6  10   4    6.68    2.47
  -5 -10   4    8.58    2.07
  -5  10   4   14.57    5.41
  -5  10   4   11.63    2.46
   5  10  -4   10.25    3.08
  -4 -10   4   10.62    2.02
  -4 -10   4   15.95    3.41
  -4  10   4   12.06    3.49
   4  10  -4   11.85    3.32
  -4  10   4    9.50    2.29
  -3 -10   4    8.97    1.92
  -3 -10   4   11.41    2.85
   3 -10  -4    7.28    1.91
   3  10  -4    8.88    3.09
  -3  10   4    5.24    2.09
  -3  10   4    3.38    2.89
  -2 -10   4    4.36    2.44
  -2 -10   4    5.23    1.85
   2 -10  -4    3.64    1.84
   2 -10  -4    4.01    1.34
  -2  10   4    2.29    1.82
  -2  10   4    3.59    2.74
  -1 -10   4    4.03    1.64
  -1 -10   4    2.26    2.19
  -1  10   4    7.95    3.06
  -1  10   4    8.51    2.18
   0 -10  -4   11.37    2.44
   0 -10   4   11.01    2.61
   0 -10   4    6.20    1.93
   0 -10  -4   10.98    2.17
   0  10  -4   11.25    3.05
   0  10   4   12.91    2.99
   1 -10   4   11.95    2.30
  -1 -10  -4    8.58    1.98
  -1 -10  -4   10.24    2.54
  -1  10  -4    8.06    3.35
   1  10   4   13.37    3.01
  -2 -10  -4    5.36    1.85
   2 -10   4   11.10    2.34
  -2 -10  -4    3.43    2.13
  -2  10  -4    0.79    3.31
   2  10   4    2.88    2.34
  -2  10  -4    5.58    2.99
  -3 -10  -4    0.42    2.12
   3 -10   4    2.61    1.82
  -3 -10  -4    1.85    1.94
  -3  10  -4    2.45    2.61
   3  10   4    3.60    2.16
  -3  10  -4    2.87    3.07
   4 -10   4    2.03    1.94
  -4 -10  -4    5.44    2.04
  -4 -10  -4    0.67    2.52
  -4  10  -4    2.61    2.71
  -4  10  -4    2.43    3.27
   5 -10   4    8.79    2.74
  -5 -10  -4    3.58    2.77
  -5 -10  -4    6.10    2.37
  -5  10  -4    5.73    3.08
  -5  10  -4    6.93    4.29
   6 -10   4   10.73    2.92
  -6 -10  -4    6.16    2.83
  -6 -10  -4    7.29    3.20
  -6  10  -4    4.04    4.16
  -6  10  -4    4.90    3.17
  -7 -10  -4    6.82    3.44
   7 -10   4    4.47    2.48
  -7 -10  -4    3.89    2.91
  -7  10  -4    5.44    4.48
  -7  10  -4    2.04    3.06
   8 -10   4    0.15    2.47
  -8  10  -4   -1.89    4.25
  -8  10  -4   -1.35    2.87
  -6 -11   4   -0.14    2.13
  -6 -11   4    3.83    2.88
  -6  11   4    2.93    3.65
  -5 -11   4   -1.99    2.09
  -5 -11   4   -2.29    1.44
  -5 -11   4    1.10    2.30
  -5  11   4    2.09    3.16
  -5  11   4    1.76    2.33
   5  11  -4    1.61    2.74
  -4 -11   4    0.13    1.55
  -4 -11   4    1.73    2.37
  -4 -11   4   -0.54    2.10
   4  11  -4   -1.16    2.37
  -4  11   4    1.62    3.32
  -4  11   4    1.30    1.95
  -3 -11   4   -1.72    1.87
  -3 -11   4   -1.22    1.85
  -3 -11   4   -4.15    1.34
  -3  11   4   -2.67    2.88
   3  11  -4   -0.78    2.23
  -3  11   4    1.20    1.95
  -2 -11   4   -1.12    2.04
  -2 -11   4   -0.91    1.43
  -2  11   4   -3.23    3.13
  -2  11   4    2.47    1.99
   2  11  -4   -4.20    2.38
  -1 -11   4    0.17    1.48
  -1 -11   4    1.02    2.13
  -1 -11   4   -0.59    1.86
  -1  11   4   -0.44    2.91
   1  11  -4    2.57    2.40
  -1  11   4    0.97    1.86
   0 -11  -4   -1.84    1.92
   0 -11   4    0.71    2.04
   0  11  -4   -2.84    2.35
   0  11   4   -3.68    2.28
  -1 -11  -4    1.08    2.19
   1 -11   4   -1.11    1.65
   1 -11   4    1.16    1.92
  -1  11  -4   -2.96    2.01
  -1  11  -4   -2.13    2.78
   1  11   4    0.51    2.40
  -2 -11  -4   -2.57    2.40
   2 -11   4   -2.08    1.34
   2  11   4    0.42    2.50
  -2  11  -4   -3.84    2.59
  -2  11  -4    0.49    2.68
  -3 -11  -4    1.44    2.15
   3 -11   4    2.83    1.77
  -3 -11  -4   -3.29    2.25
  -3  11  -4   -1.10    3.59
  -3  11  -4   -1.45    2.54
   4 -11   4   -0.17    1.72
  -4 -11  -4   -5.33    2.26
  -4 -11  -4   -2.16    1.97
  -4  11  -4   -4.36    2.73
  -4  11  -4    5.00    3.49
 -17   0   5    1.78    2.32
 -17   0   5    0.89    2.85
 -17   0   5   -1.27    4.32
 -16   0   5    2.96    2.27
 -16   0   5    6.82    3.22
 -16   0   5    3.17    2.62
 -16   0   5    5.35    2.86
 -15   0   5    4.03    1.98
 -15   0   5    6.18    2.60
 -15   0   5    2.97    2.68
 -15   0   5    4.89    2.42
 -14   0   5    3.93    2.12
 -14   0   5   -0.83    1.62
 -14   0   5    0.62    1.99
 -14   0   5    2.11    2.32
 -13   0   5    0.01    2.22
 -13   0   5    1.92    1.88
 -13   0   5   -2.10    1.65
 -13   0   5   -0.13    1.33
 -12   0   5   11.43    1.90
 -12   0   5    8.23    2.05
 -12   0   5    6.35    2.06
 -12   0   5    3.90    2.10
 -11   0   5   43.60    3.79
 -11   0   5   37.51    2.74
 -11   0   5   34.82    3.70
 -10   0   5   31.75    2.42
 -10   0   5   35.19    2.83
 -10   0   5   29.42    3.33
  -9   0   5   23.93    2.27
  -9   0   5   20.79    2.03
  -8   0   5   26.09    2.22
  -8   0   5   26.53    1.97
  -7   0   5   26.23    1.81
  -7   0   5   27.15    2.06
  -6   0   5   12.59    1.35
  -6   0   5    8.24    1.32
   5   0  -5    3.12    1.08
  -5   0   5    3.93    0.88
  -5   0   5    3.18    0.81
   4   0  -5   15.63    1.60
  -4   0   5   18.27    1.36
   3   0  -5  389.57   12.88
   3   0  -5  387.97   13.41
  -3   0   5  378.64   13.06
  -2   0   5  893.15   29.02
  -2   0   5  869.60   28.89
   2   0  -5  902.98   29.47
   2   0  -5  870.93   29.02
  -1   0   5  603.09   19.49
   1   0  -5  597.67   19.49
   1   0  -5  607.55   20.10
  -1   0   5  515.11   19.62
   1   0  -5  623.08   19.91
   0   0  -5  166.13    6.06
   0   0   5  158.41    5.80
   0   0  -5  163.96    6.61
   0   0  -5  172.32    6.48
   1   0   5   21.43    1.20
  -1   0  -5   24.21    2.30
  -1   0  -5   22.10    2.48
  -1   0  -5   19.04    1.99
  -2   0  -5   64.77    3.58
  -2   0  -5   60.89    3.55
   2   0   5   58.14    2.45
   3   0   5   92.85    3.54
  -3   0  -5   98.81    4.61
  -3   0  -5   88.82    4.43
  -4   0  -5   34.15    3.13
  -5   0  -5   12.80    2.26
  -5   0  -5   11.09    2.54
  -6   0  -5   15.41    2.88
  -6   0  -5   17.52    2.78
  -7   0  -5   39.44    3.35
  -7   0  -5   35.24    3.70
  -8   0  -5   18.00    2.82
  -8   0  -5   15.76    3.27
  -9   0  -5    4.71    2.47
 -10   0  -5    4.88    3.10
 -10   0  -5   10.36    2.81
 -11   0  -5   18.55    4.31
 -12   0  -5    9.66    3.50
 -12   0  -5   16.09    4.33
 -13   0  -5    6.66    3.78
 -13   0  -5    6.21    4.23
 -14   0  -5   -0.77    3.70
 -14   0  -5   -2.93    4.13
 -15   0  -5    1.45    4.04
 -15   0  -5   -1.48    4.41
 -17  -1   5   -0.66    2.33
 -17  -1   5   -2.32    2.55
 -17  -1   5   -0.07    2.68
 -17  -1   5    1.48    3.14
 -17   1   5   -1.22    2.27
 -17   1   5   -0.83    3.08
 -17   1   5    0.00    2.99
 -16  -1   5    2.30    2.74
 -16  -1   5   -2.44    1.87
 -16  -1   5    2.01    2.42
 -16  -1   5   -1.50    2.54
 -16   1   5    4.09    2.82
 -16   1   5    1.02    2.83
 -16   1   5    1.50    2.42
 -15  -1   5   -1.14    1.97
 -15  -1   5    0.15    2.25
 -15  -1   5   -1.71    2.14
 -15  -1   5    1.70    1.90
 -15   1   5   -1.78    2.58
 -15   1   5    1.58    1.68
 -15   1   5   -2.40    2.40
 -15   1   5   -2.19    2.08
 -14  -1   5   -0.19    1.94
 -14  -1   5   -2.66    1.85
 -14  -1   5   -3.56    4.12
 -14  -1   5   -3.85    1.64
 -14   1   5   -2.56    1.92
 -14   1   5   -0.12    2.33
 -14   1   5    0.65    4.15
 -14   1   5    1.76    1.53
 -13  -1   5    4.79    2.35
 -13  -1   5    2.71    2.09
 -13  -1   5    2.74    1.69
 -13  -1   5   -2.02    1.51
 -13   1   5   -2.75    2.34
 -13   1   5    0.69    1.87
 -13   1   5    1.86    1.95
 -13   1   5    1.00    1.31
 -12  -1   5    0.43    1.51
 -12  -1   5    0.73    1.62
 -12  -1   5    3.75    2.16
 -12   1   5    0.06    1.79
 -12   1   5   -0.06    1.61
 -12   1   5    0.43    1.13
 -12   1   5   -1.27    2.14
 -11  -1   5    2.40    1.57
 -11  -1   5    2.31    1.49
 -11  -1   5    3.89    1.96
 -11   1   5    3.50    1.55
 -11   1   5    2.71    2.11
 -11   1   5    3.71    1.62
 -10  -1   5    4.04    1.52
 -10  -1   5    4.97    1.64
 -10   1   5    3.76    1.99
 -10   1   5    3.56    1.36
 -10   1   5    2.57    1.65
  -9  -1   5   12.15    1.83
  -9  -1   5    6.60    1.51
  -9   1   5    4.95    1.30
  -9   1   5    9.82    1.82
  -9   1   5    6.09    1.91
  -8  -1   5   62.68    3.40
  -8  -1   5   71.58    3.37
  -8   1   5   61.39    3.50
  -8   1   5   63.38    3.02
  -8   1   5   62.72    3.96
  -7  -1   5   34.40    2.25
  -7   1   5   33.63    1.92
  -7   1   5   33.44    2.38
  -6  -1   5   12.47    1.53
  -6  -1   5    9.51    1.33
  -6   1   5    8.04    1.40
  -6   1   5    9.05    1.00
  -5  -1   5  130.44    5.16
  -5  -1   5  133.50    5.52
   5  -1  -5  141.78    5.24
  -5   1   5  130.88    4.80
  -5   1   5  128.51    5.21
   4  -1  -5   92.59    3.99
  -4  -1   5   90.14    3.75
   4   1  -5   95.42    3.79
  -4   1   5   97.55    3.85
   4   1  -5   94.60    4.19
  -4   1   5   90.37    3.37
   3  -1  -5   16.14    1.87
  -3  -1   5   13.63    1.12
   3   1  -5   16.90    1.84
   3   1  -5   14.61    1.22
  -3   1   5   14.05    1.15
  -3   1   5   12.66    0.71
  -2  -1   5   10.93    1.00
   2  -1  -5   14.46    1.91
   2   1  -5   10.95    1.19
   2   1  -5   15.76    1.80
  -2   1   5   13.25    1.01
   1  -1  -5    4.04    1.23
  -1  -1   5    2.46    0.67
   1  -1  -5    2.47    1.44
   1  -1  -5    3.47    0.55
   1   1  -5    2.44    0.86
  -1   1   5    3.01    0.60
   1   1  -5    1.51    1.33
   0  -1  -5   22.52    2.06
   0  -1   5   25.91    1.44
   0  -1  -5   25.32    2.17
   0   1  -5   24.66    2.28
   0   1  -5   23.76    2.12
   0   1  -5   25.05    1.86
   0   1   5   26.61    1.29
  -1  -1  -5  127.98    5.11
  -1  -1  -5  106.40    5.01
   1  -1   5  121.37    4.58
   1   1   5  125.96    4.37
  -1   1  -5  127.18    5.51
  -1   1  -5  123.58    5.33
  -1   1  -5  127.51    5.16
  -2  -1  -5   63.51    3.41
  -2  -1  -5   66.34    3.48
   2  -1   5   65.47    2.77
  -2   1  -5   70.07    3.97
  -2   1  -5   60.24    3.83
  -2   1  -5   67.09    3.62
   2   1   5   69.48    2.55
  -3  -1  -5    3.72    1.59
   3  -1   5    3.93    0.79
  -3  -1  -5    3.79    1.60
  -3   1  -5    4.00    2.49
  -3   1  -5    3.87    1.87
  -3   1  -5    3.03    1.98
   3   1   5    4.42    0.62
  -4  -1  -5   17.38    2.16
  -4  -1  -5   14.38    2.22
  -4   1  -5   14.20    2.76
   4   1   5   16.31    1.04
  -4   1  -5   12.67    2.60
  -4   1  -5   14.89    2.66
  -5  -1  -5    0.60    1.82
  -5  -1  -5   -0.08    1.46
  -5   1  -5   -3.34    2.26
  -5   1  -5    0.49    0.98
  -5   1  -5    0.50    2.20
  -6  -1  -5   15.26    2.38
  -6  -1  -5   13.77    2.29
  -6   1  -5   11.26    3.11
  -6   1  -5   14.91    1.86
  -6   1  -5   17.26    2.88
  -7  -1  -5    2.37    2.25
  -7  -1  -5    0.96    1.68
  -7   1  -5    2.39    1.26
  -7   1  -5    1.10    2.92
  -7   1  -5    3.89    2.88
  -8  -1  -5    5.00    2.51
  -8  -1  -5   13.06    2.40
  -8   1  -5   11.52    2.82
  -8   1  -5    6.96    2.67
  -9  -1  -5   11.83    2.98
  -9  -1  -5   16.36    2.79
  -9   1  -5   12.76    1.87
  -9   1  -5   10.61    2.93
 -10  -1  -5    3.19    2.92
 -10   1  -5    1.44    2.73
 -10   1  -5    4.08    3.51
 -10   1  -5   -0.20    1.40
 -11  -1  -5   -1.58    2.92
 -11  -1  -5   -4.74    2.51
 -11   1  -5   -0.30    3.39
 -11   1  -5    0.54    2.88
 -11   1  -5    1.98    1.43
 -12  -1  -5   -5.91    3.04
 -12  -1  -5    1.88    2.71
 -12   1  -5   -0.24    1.45
 -12   1  -5    5.54    3.60
 -12   1  -5    5.56    4.05
 -13  -1  -5   -0.14    4.51
 -13  -1  -5   -0.19    2.93
 -13   1  -5    1.28    4.28
 -13   1  -5   -0.77    3.56
 -14  -1  -5   -3.12    3.06
 -14  -1  -5    7.43    4.25
 -14   1  -5   -0.71    5.11
 -14   1  -5    0.46    3.85
 -15  -1  -5   -1.59    4.11
 -15  -1  -5   -5.86    5.27
 -15   1  -5    3.87    4.36
 -15   1  -5    0.77    4.83
 -17  -2   5   -2.68    2.32
 -17  -2   5    0.85    3.24
 -17  -2   5    0.91    2.59
 -17   2   5   -5.07    3.11
 -17   2   5    4.12    3.61
 -16  -2   5   -5.88    3.25
 -16  -2   5    3.76    2.42
 -16  -2   5   -2.80    2.17
 -16   2   5   -1.18    3.22
 -16   2   5   -2.17    2.08
 -16   2   5   -0.45    3.13
 -15  -2   5    0.49    1.93
 -15  -2   5   -3.38    2.11
 -15  -2   5    2.77    2.17
 -15  -2   5    2.62    2.34
 -15   2   5    4.01    3.33
 -15   2   5    2.59    2.85
 -14  -2   5    4.64    2.41
 -14  -2   5   -0.12    1.92
 -14  -2   5    5.42    2.09
 -14  -2   5    5.20    2.59
 -14   2   5    2.65    2.73
 -14   2   5    1.49    2.41
 -14   2   5    2.59    2.55
 -13  -2   5    8.42    2.20
 -13  -2   5    7.91    2.31
 -13  -2   5   10.64    2.54
 -13  -2   5    8.15    2.39
 -13   2   5    8.41    2.68
 -13   2   5    5.59    1.38
 -13   2   5    6.71    3.10
 -13   2   5    4.91    2.41
 -12  -2   5    4.07    2.20
 -12  -2   5    0.55    1.77
 -12  -2   5    3.12    1.69
 -12   2   5    3.93    1.09
 -12   2   5    3.26    2.42
 -12   2   5    5.55    2.18
 -12   2   5    6.10    2.03
 -11  -2   5    0.54    1.43
 -11  -2   5    3.08    1.51
 -11   2   5    0.79    0.86
 -11   2   5    2.08    2.21
 -11   2   5    0.76    1.70
 -11   2   5    0.06    1.52
 -10  -2   5    9.85    1.93
 -10  -2   5    5.72    1.61
 -10   2   5    3.71    1.83
 -10   2   5    5.83    2.33
 -10   2   5    6.28    1.56
  -9  -2   5   22.92    2.24
  -9  -2   5   27.31    2.31
  -9   2   5   24.37    2.05
  -9   2   5   23.60    2.24
  -9   2   5   23.83    2.95
  -8  -2   5   45.47    2.77
  -8  -2   5   50.50    2.93
  -8   2   5   46.23    3.06
  -8   2   5   43.69    3.54
  -8   2   5   40.55    2.41
  -7  -2   5   66.70    3.35
  -7  -2   5   71.09    3.54
  -7   2   5   71.53    4.17
  -7   2   5   66.62    3.62
  -7   2   5   71.61    2.97
  -6  -2   5  153.18    5.93
  -6  -2   5  155.76    6.10
  -6   2   5  147.95    5.38
  -6   2   5  146.32    6.66
  -6   2   5  156.26    6.15
  -5  -2   5  355.78   12.15
   5  -2  -5  347.43   11.94
   5   2  -5  343.28   12.29
  -5   2   5  346.11   12.78
  -5   2   5  343.04   11.46
   4  -2  -5  218.62    7.92
  -4  -2   5  229.12    7.93
  -4   2   5  222.08    8.63
  -4   2   5  208.73    7.37
  -4   2   5  234.30    8.02
  -4   2   5  215.51    7.27
   4   2  -5  228.85    8.15
  -4   2   5  205.04    7.48
   3  -2  -5    7.86    1.56
  -3  -2   5   11.24    1.03
  -3   2   5   12.29    0.93
   3   2  -5   12.57    1.35
  -3   2   5   12.82    1.18
   3   2  -5   13.91    1.85
   2  -2  -5   42.05    2.82
  -2  -2   5   39.93    2.10
   2   2  -5   41.95    2.39
  -2   2   5   44.40    1.89
   2   2  -5   42.69    2.55
  -2   2   5   46.18    2.10
   1  -2  -5    4.41    1.17
  -1  -2   5    3.84    0.81
   1  -2  -5    2.56    0.33
   1  -2  -5    2.39    1.43
   1   2  -5    5.70    1.54
   1   2  -5    2.62    1.09
  -1   2   5    3.78    0.69
   0  -2   5  111.79    4.40
   0  -2  -5  106.04    4.75
   0  -2  -5  109.37    4.51
   0   2  -5  114.48    4.88
   0   2  -5  123.27    5.03
   0   2   5  115.44    4.08
   1  -2   5  237.96    8.45
  -1  -2  -5  247.59    8.69
  -1  -2  -5  219.15    8.06
  -1  -2  -5  244.97    8.85
  -1   2  -5  249.95    9.13
  -1   2  -5  239.40    9.12
  -1   2  -5  240.51    9.29
  -2  -2  -5  122.81    5.31
  -2  -2  -5  130.88    5.23
   2  -2   5  132.37    4.91
  -2   2  -5  132.52    5.81
  -2   2  -5  130.22    5.77
   2   2   5  125.38    4.40
  -2   2  -5  122.10    6.31
  -3  -2  -5   60.67    3.32
  -3  -2  -5   58.53    3.26
  -3   2  -5   64.79    3.37
  -3   2  -5   65.84    4.47
  -3   2  -5   57.65    4.14
  -3   2  -5   59.58    3.94
  -4  -2  -5  109.08    4.88
  -4  -2  -5  110.66    4.92
   4   2   5  104.24    3.71
   4   2   5   96.85    3.79
  -4   2  -5  100.75    5.64
  -4   2  -5  107.86    5.76
  -4   2  -5  106.07    5.48
  -4   2  -5  112.75    4.83
  -5  -2  -5  136.73    5.98
  -5  -2  -5  136.33    5.86
  -5   2  -5  124.95    6.83
  -5   2  -5  140.47    5.88
   5   2   5  128.98    4.64
  -5   2  -5  127.07    6.93
  -6  -2  -5   64.82    3.99
  -6  -2  -5   65.75    3.83
  -6   2  -5   63.42    5.11
  -6   2  -5   65.59    5.14
  -6   2  -5   64.83    3.70
  -6   2  -5   55.55    5.19
  -7  -2  -5   18.86    2.48
  -7  -2  -5   21.36    2.90
  -7   2  -5   16.55    3.86
  -7   2  -5   17.20    3.77
  -7   2  -5   20.96    2.38
  -7   2  -5   19.96    3.83
  -8  -2  -5   12.29    2.34
  -8  -2  -5    9.28    2.53
  -8   2  -5   13.79    3.84
  -8   2  -5   12.58    2.03
  -8   2  -5    8.20    3.15
  -8   2  -5    8.05    3.65
  -9  -2  -5   26.45    3.58
  -9  -2  -5   23.82    3.51
  -9   2  -5   19.13    4.07
  -9   2  -5   22.09    2.62
  -9   2  -5   22.28    5.07
  -9   2  -5   11.67    4.27
 -10  -2  -5    9.53    2.64
 -10  -2  -5   10.51    3.08
 -10   2  -5    9.46    4.23
 -10   2  -5    4.71    3.65
 -10   2  -5    8.01    4.21
 -10   2  -5    9.78    2.19
 -11  -2  -5    0.38    2.72
 -11  -2  -5    2.59    2.70
 -11   2  -5   -1.17    3.52
 -11   2  -5    0.85    3.88
 -11   2  -5   -1.34    3.91
 -11   2  -5    2.37    1.80
 -12  -2  -5   -0.16    3.03
 -12  -2  -5   -3.72    2.46
 -12   2  -5    2.97    3.92
 -12   2  -5   -5.47    4.09
 -12   2  -5   -1.74    1.72
 -12   2  -5    1.32    4.82
 -13  -2  -5   -2.60    2.69
 -13   2  -5   -5.15    4.13
 -13   2  -5   -2.60    1.81
 -13   2  -5    2.98    4.10
 -14  -2  -5    5.37    4.07
 -14  -2  -5    3.70    5.80
 -14   2  -5   -2.23    4.42
 -14   2  -5   -5.18    4.26
 -14   2  -5   -4.40    4.71
 -15  -2  -5    5.55    4.11
 -15  -2  -5    4.51    4.50
 -15   2  -5    0.84    5.00
 -15   2  -5    0.86    5.52
 -17  -3   5   -1.18    2.45
 -17  -3   5   -1.26    2.55
 -17  -3   5    2.08    2.91
 -17   3   5    2.17    3.40
 -17   3   5   -4.10    4.51
 -16  -3   5   -2.44    2.38
 -16  -3   5   -1.27    3.95
 -16  -3   5    1.66    3.17
 -16   3   5    0.03    3.62
 -15  -3   5    1.29    2.31
 -15  -3   5   -2.26    1.99
 -15  -3   5    6.20    2.57
 -15   3   5    6.14    3.37
 -15   3   5   -1.44    3.23
 -14  -3   5   -1.31    1.84
 -14  -3   5   -1.16    1.94
 -14  -3   5    0.32    2.01
 -14  -3   5    4.72    2.62
 -14   3   5    1.78    3.16
 -14   3   5    1.25    2.83
 -14   3   5    0.73    2.27
 -13  -3   5    0.67    2.03
 -13  -3   5    5.02    2.16
 -13  -3   5   -0.92    2.03
 -13  -3   5    0.74    2.18
 -13   3   5    3.15    2.66
 -13   3   5   -0.96    2.63
 -13   3   5   -0.54    2.04
 -12  -3   5   -1.32    1.74
 -12  -3   5    0.97    1.54
 -12   3   5    2.98    2.40
 -12   3   5   -1.34    2.37
 -12   3   5    1.71    1.98
 -11  -3   5    1.97    1.77
 -11  -3   5    4.21    1.85
 -11   3   5    5.45    2.42
 -11   3   5    0.85    2.07
 -11   3   5    1.51    1.80
 -10  -3   5    4.02    1.47
 -10  -3   5    4.18    1.72
 -10   3   5   -0.65    1.84
 -10   3   5    5.75    2.18
  -9  -3   5    4.40    1.40
  -9  -3   5    6.00    1.68
  -9   3   5    4.91    2.15
  -9   3   5    5.00    1.79
  -9   3   5    2.49    1.81
  -8  -3   5   43.87    2.96
  -8  -3   5   44.16    2.67
  -8   3   5   36.22    3.52
  -8   3   5   36.83    2.74
  -8   3   5   43.72    3.14
  -8   3   5   44.54    4.16
  -7  -3   5   26.99    1.99
  -7  -3   5   28.27    2.30
  -7   3   5   25.19    2.41
  -7   3   5   21.57    2.68
  -7   3   5   22.57    2.87
  -7   3   5   23.17    1.84
   6  -3  -5   11.32    1.17
  -6  -3   5    9.60    1.39
  -6  -3   5   13.50    1.91
   6   3  -5    9.44    1.60
  -6   3   5   11.37    1.75
  -6   3   5    7.65    1.64
  -6   3   5    8.06    1.92
  -5  -3   5   81.71    3.61
   5  -3  -5   77.97    3.39
  -5   3   5   81.19    4.47
   5   3  -5   82.18    3.96
  -5   3   5   82.09    3.39
  -5   3   5   84.68    3.88
  -4  -3   5   57.82    2.75
   4  -3  -5   54.26    2.88
  -4   3   5   58.49    3.55
   4   3  -5   55.13    3.11
  -4   3   5   62.60    2.94
  -4   3   5   54.78    2.29
   3  -3  -5   16.56    1.97
  -3  -3   5   14.49    1.31
  -3   3   5   12.81    0.69
   3   3  -5   13.07    1.76
  -3   3   5   14.68    1.55
   2  -3  -5    3.49    1.54
   2  -3  -5    3.22    0.75
  -2   3   5    1.94    1.14
  -2   3   5    4.25    0.41
   2   3  -5    3.78    1.27
  -2   3   5    4.80    0.94
   1  -3  -5    0.71    0.47
   1  -3  -5   -0.08    1.25
   1  -3  -5   -1.33    0.84
  -1   3   5    0.17    0.60
   1   3  -5    0.05    1.23
   1   3  -5   -0.03    1.08
  -1   3   5    0.31    0.91
   0  -3   5   29.27    2.07
   0  -3  -5   26.57    2.08
   0  -3  -5   28.97    1.79
   0   3  -5   28.44    2.46
   0   3   5   30.72    2.18
   0   3  -5   31.13    2.47
   0   3   5   28.69    1.45
  -1  -3  -5   87.94    3.15
  -1  -3  -5   94.45    3.90
   1  -3   5   92.79    3.86
  -1  -3  -5   87.25    4.10
  -1   3  -5   97.86    4.56
   1   3   5   95.11    4.04
  -1   3  -5   91.68    5.11
  -1   3  -5   94.41    4.41
   1   3   5   88.04    3.23
  -2  -3  -5   52.77    3.04
   2  -3   5   51.51    2.63
  -2  -3  -5   55.26    2.85
   2   3   5   58.36    2.73
  -2   3  -5   52.29    3.75
  -2   3  -5   55.01    3.53
  -2   3  -5   54.67    3.22
  -2   3  -5   52.85    3.91
  -3  -3  -5    3.86    1.60
   3  -3   5    4.13    1.05
  -3  -3  -5    2.18    1.36
  -3   3  -5    2.82    1.37
   3   3   5    1.86    0.80
  -3   3  -5    4.26    2.32
  -3   3  -5    2.35    2.07
  -3   3  -5    1.26    2.40
  -4  -3  -5   20.25    2.37
  -4  -3  -5   17.54    2.25
  -4   3  -5   18.25    3.48
   4   3   5   21.31    1.17
  -4   3  -5   16.25    2.91
  -4   3  -5   19.14    2.31
  -4   3  -5   19.17    3.22
  -5  -3  -5   -0.77    1.51
  -5  -3  -5    0.85    1.52
  -5   3  -5    0.47    2.77
   5   3   5    0.63    0.24
  -5   3  -5    2.02    1.42
  -5   3  -5    0.05    3.05
  -6  -3  -5    7.57    2.15
  -6  -3  -5   15.32    2.33
  -6   3  -5    7.08    1.91
   6   3   5    7.62    1.11
  -6   3  -5    3.31    3.41
  -6   3  -5   14.25    3.51
  -6   3  -5    6.72    3.60
  -7  -3  -5   -0.23    1.66
  -7  -3  -5    3.09    2.04
  -7   3  -5    2.70    3.60
  -7   3  -5   -2.00    2.90
  -7   3  -5   -1.17    3.47
  -7   3  -5    1.41    1.66
  -8  -3  -5    5.52    2.37
  -8   3  -5    2.68    4.00
  -8   3  -5   12.00    2.42
  -8   3  -5    4.98    3.75
  -8   3  -5    0.03    3.67
  -9  -3  -5    8.87    2.83
  -9  -3  -5   15.78    2.75
  -9   3  -5   12.11    2.58
  -9   3  -5    7.53    4.10
  -9   3  -5    4.94    4.14
  -9   3  -5    6.72    4.17
 -10  -3  -5    0.35    2.16
 -10  -3  -5   -2.30    2.38
 -10   3  -5  -11.77    3.56
 -10   3  -5    0.48    1.92
 -10   3  -5   -0.21    4.15
 -10   3  -5    3.28    4.30
 -11  -3  -5    1.27    2.63
 -11  -3  -5    1.12    2.31
 -11   3  -5    3.84    5.08
 -11   3  -5   -0.28    3.98
 -11   3  -5    1.80    4.16
 -11   3  -5   -0.55    1.93
 -12  -3  -5    0.30    2.87
 -12  -3  -5   -0.15    2.92
 -12   3  -5    3.00    4.50
 -12   3  -5    1.13    5.24
 -12   3  -5    9.48    5.07
 -12   3  -5    0.11    2.17
 -13  -3  -5   -0.65    2.71
 -13  -3  -5   -2.28    3.38
 -13   3  -5   -1.73    4.75
 -13   3  -5    0.47    2.15
 -13   3  -5    2.77    5.01
 -13   3  -5   -4.58    4.10
 -14  -3  -5   -1.85    2.97
 -14  -3  -5    1.89    3.87
 -14   3  -5  -12.25    4.34
 -14   3  -5   -4.38    2.18
 -14   3  -5    0.50    5.00
 -15  -3  -5    2.36    3.48
 -15  -3  -5   -0.21    3.80
 -15   3  -5    6.67    5.95
 -15   3  -5   -8.24    4.74
 -16  -4   5   -1.42    2.73
 -16  -4   5    3.05    2.45
 -16  -4   5    0.79    2.14
 -16   4   5    1.65    3.74
 -16   4   5    4.02    4.86
 -15  -4   5    2.89    2.28
 -15  -4   5   -0.36    2.61
 -15   4   5    1.82    5.20
 -15   4   5    2.63    4.58
 -14  -4   5   -2.07    1.82
 -14  -4   5    0.43    1.88
 -14  -4   5    1.25    2.04
 -14  -4   5    0.98    2.32
 -14   4   5   -6.59    3.75
 -14   4   5    0.13    2.87
 -13  -4   5    1.65    1.84
 -13  -4   5   -2.06    1.81
 -13  -4   5    0.51    1.96
 -13   4   5    9.02    4.31
 -13   4   5    0.40    3.92
 -13   4   5   -1.14    2.64
 -12  -4   5    6.69    2.35
 -12  -4   5    5.56    1.85
 -12   4   5    3.92    3.81
 -12   4   5    6.20    2.49
 -12   4   5    1.01    2.71
 -12   4   5   12.16    3.22
 -11  -4   5   18.58    2.91
 -11   4   5   17.70    3.46
 -11   4   5   20.49    3.04
 -11   4   5   12.46    4.05
 -11   4   5   13.84    2.75
 -10  -4   5   24.62    2.30
 -10  -4   5   21.33    2.93
 -10   4   5   18.63    2.89
 -10   4   5   15.27    2.39
 -10   4   5   14.85    3.53
 -10   4   5   15.09    3.15
  -9  -4   5   17.48    2.95
  -9  -4   5   14.92    1.95
  -9   4   5   12.14    2.97
  -9   4   5   13.77    2.45
  -8  -4   5   19.28    1.87
  -8  -4   5   20.86    2.61
  -8   4   5   21.21    2.70
  -8   4   5   11.96    2.48
  -8   4   5   13.55    2.78
  -7  -4   5   18.49    2.35
  -7  -4   5   19.38    1.77
  -7   4   5   15.83    2.26
  -7   4   5   22.90    2.54
  -7   4   5   16.39    2.82
  -6  -4   5    7.05    1.33
  -6  -4   5   10.57    1.91
  -6   4   5    5.65    0.85
  -6   4   5    4.31    1.43
  -6   4   5    8.57    2.20
  -6   4   5    6.33    1.84
   6   4  -5    8.37    1.66
   5  -4  -5    0.42    1.05
  -5  -4   5    0.62    1.20
  -5  -4   5    1.36    0.92
  -5   4   5    0.10    1.52
  -5   4   5    1.49    0.96
  -5   4   5    1.14    1.21
   5   4  -5    1.14    1.17
  -4  -4   5   13.85    1.59
   4  -4  -5   13.44    1.88
  -4   4   5   14.80    2.05
  -4   4   5   15.63    2.31
  -4   4   5   16.50    1.33
   4   4  -5   15.84    2.08
   3  -4  -5  182.53    7.26
  -3  -4   5  195.93    7.26
   3   4  -5  202.42    7.92
  -3   4   5  196.15    6.90
  -3   4   5  181.78    7.94
  -3   4   5  200.67    7.29
  -2  -4   5  434.59   15.16
   2  -4  -5  411.04   14.44
   2  -4  -5  431.35   15.16
   2   4  -5  459.48   15.93
  -2   4   5  446.29   14.99
  -2   4   5  454.74   14.66
  -2   4   5  443.43   15.89
  -1  -4   5  304.07   10.80
   1  -4  -5  305.40   10.86
   1  -4  -5  299.24   10.30
  -1   4   5  303.61   11.29
  -1   4   5  307.09   10.41
   1   4  -5  299.36   11.45
   0  -4  -5   63.37    2.93
   0  -4  -5   66.54    3.60
   0  -4   5   62.20    3.16
   0   4   5   70.92    3.63
   0   4  -5   67.61    3.77
   0   4  -5   67.21    3.78
   0   4  -5   65.90    3.99
  -1  -4  -5   20.17    1.98
  -1  -4  -5   20.33    1.73
   1  -4   5   19.88    1.74
   1   4   5   17.96    1.98
  -1   4  -5   23.11    3.03
  -1   4  -5   21.59    2.46
  -1   4  -5   23.24    2.81
  -2  -4  -5   52.60    2.85
   2  -4   5   47.93    2.68
  -2  -4  -5   48.70    3.02
  -2   4  -5   47.85    3.55
   2   4   5   52.02    2.82
  -2   4  -5   49.22    3.30
   3  -4   5   72.10    3.52
  -3  -4  -5   77.78    3.84
  -3  -4  -5   80.45    4.01
  -3   4  -5   70.21    4.90
   3   4   5   81.74    3.35
  -3   4  -5   73.27    4.21
  -3   4  -5   63.57    4.87
  -4  -4  -5   28.19    2.56
  -4  -4  -5   30.75    2.63
  -4   4  -5   23.40    3.75
  -4   4  -5   29.36    2.81
  -4   4  -5   18.11    3.38
   4   4   5   28.23    1.44
  -5  -4  -5    4.99    1.53
  -5  -4  -5    2.06    1.54
  -5   4  -5    3.37    2.64
  -5   4  -5    5.01    1.83
  -5   4  -5    3.04    2.92
  -5   4  -5    9.46    3.61
  -6  -4  -5   13.45    2.14
  -6  -4  -5    9.50    2.17
  -6   4  -5    8.25    3.37
  -6   4  -5    7.50    3.57
  -6   4  -5   12.47    2.49
  -6   4  -5   11.38    3.23
  -7  -4  -5   24.25    3.07
  -7   4  -5   21.31    2.89
  -7   4  -5   12.45    3.49
  -7   4  -5   18.11    4.59
  -8  -4  -5   18.15    3.15
  -8  -4  -5   12.79    2.60
  -8   4  -5   12.86    3.74
  -8   4  -5   13.52    2.57
  -8   4  -5    8.08    4.02
  -9  -4  -5    2.51    2.37
  -9  -4  -5    0.84    2.18
  -9   4  -5    5.71    4.44
  -9   4  -5    4.06    4.17
  -9   4  -5    3.50    3.62
 -10  -4  -5    5.41    2.80
 -10  -4  -5    0.97    2.32
 -10   4  -5   -1.31    3.94
 -10   4  -5   -5.26    4.19
 -10   4  -5    2.00    2.39
 -10   4  -5    5.44    3.71
 -11  -4  -5    5.42    3.36
 -11  -4  -5   11.84    3.44
 -11   4  -5   17.43    3.49
 -11   4  -5    8.37    5.50
 -11   4  -5    6.35    4.12
 -11   4  -5   19.31    5.63
 -12  -4  -5    7.50    3.13
 -12   4  -5    6.14    5.71
 -12   4  -5    5.70    2.86
 -12   4  -5    5.51    5.65
 -13  -4  -5    4.04    3.59
 -13  -4  -5    0.61    2.95
 -13   4  -5    2.95    2.78
 -13   4  -5   -0.56    4.93
 -14  -4  -5   -0.56    3.68
 -14  -4  -5   -3.68    2.82
 -14   4  -5   -2.77    4.89
 -14   4  -5   -1.09    5.64
 -14   4  -5   -1.65    2.59
 -16  -5   5    2.00    2.49
 -16  -5   5   -3.85    2.70
 -16  -5   5    0.40    2.26
 -16   5   5    1.62    3.79
 -15  -5   5   -0.06    1.95
 -15  -5   5    2.16    2.72
 -15  -5   5    0.88    2.68
 -15   5   5   -4.88    3.32
 -15   5   5    0.85    4.13
 -14  -5   5    4.47    2.13
 -14  -5   5    0.53    2.07
 -14  -5   5    2.09    2.83
 -14   5   5    0.10    3.96
 -14   5   5   -1.41    2.93
 -13  -5   5    1.35    1.85
 -13  -5   5    0.04    2.19
 -13  -5   5    1.08    2.41
 -13   5   5    4.18    4.08
 -13   5   5    4.55    3.31
 -12  -5   5   -0.52    1.97
 -12  -5   5    1.06    1.51
 -12   5   5    1.75    3.42
 -12   5   5   -0.27    2.56
 -11  -5   5    0.53    1.50
 -11  -5   5   -0.96    1.66
 -11   5   5    2.74    2.92
 -11   5   5    0.31    2.49
 -10  -5   5    2.04    1.86
 -10  -5   5   -0.34    1.40
 -10   5   5   -0.90    2.23
 -10   5   5    3.28    2.73
  -9  -5   5    4.53    1.93
  -9  -5   5    2.68    1.53
  -9   5   5   -1.44    1.96
  -9   5   5   -2.91    1.89
  -8  -5   5   17.93    2.70
  -8  -5   5   23.64    2.39
  -8   5   5   19.75    3.25
  -7  -5   5   16.10    1.84
  -7  -5   5   15.45    2.38
  -7   5   5   14.13    2.03
   7   5  -5   14.03    2.29
  -7   5   5    7.90    2.65
  -6  -5   5    2.53    1.10
  -6  -5   5    2.90    1.62
   6   5  -5    3.53    1.63
  -6   5   5    4.04    2.07
  -6   5   5    4.37    1.43
   5  -5  -5   37.74    2.28
  -5  -5   5   35.76    2.87
  -5  -5   5   36.63    2.35
  -5   5   5   34.16    2.38
  -5   5   5   37.75    3.61
   5   5  -5   34.81    3.06
   4  -5  -5   29.45    2.43
  -4  -5   5   32.64    2.16
   4   5  -5   27.10    2.76
  -4   5   5   35.09    3.31
  -4   5   5   30.77    2.03
  -3  -5   5    5.01    1.19
   3  -5  -5    5.01    1.61
  -3   5   5    6.73    1.07
   3   5  -5    6.11    1.80
  -3   5   5    8.95    2.28
  -2  -5   5    3.44    1.11
   2  -5  -5    2.43    1.37
   2  -5  -5    1.73    0.73
   2   5  -5    0.34    1.53
  -2   5   5    2.49    0.84
  -2   5   5    2.62    1.69
   1  -5  -5    0.24    0.78
  -1  -5   5    0.10    0.92
  -1   5   5    0.02    1.53
   1   5  -5    0.71    1.63
   0  -5   5   13.82    1.79
   0  -5  -5   13.54    1.46
   0  -5  -5   11.45    1.76
   0   5   5   14.07    2.41
   0   5  -5   14.76    2.59
   0   5  -5   12.37    2.14
  -1  -5  -5   46.94    2.92
   1  -5   5   46.25    2.72
  -1  -5  -5   48.15    2.53
  -1   5  -5   36.47    3.46
  -1   5  -5   45.18    3.85
   1   5   5   43.70    3.11
   2  -5   5   26.10    2.10
  -2  -5  -5   26.73    2.45
  -2   5  -5   31.06    2.90
   2   5   5   30.15    2.38
  -2   5  -5   26.42    3.22
  -2   5  -5   29.90    2.76
   3  -5   5    0.34    0.91
  -3  -5  -5    0.14    1.31
  -3  -5  -5   -0.13    1.48
   3   5   5    2.49    1.07
  -3   5  -5    0.53    1.84
  -3   5  -5    0.37    1.48
  -3   5  -5    1.06    2.39
  -4  -5  -5    3.85    1.66
   4  -5   5    6.46    1.50
  -4  -5  -5    7.84    2.01
  -4   5  -5   10.94    2.36
  -4   5  -5    7.21    2.12
   4   5   5    8.48    1.26
  -4   5  -5    2.40    2.68
  -5  -5  -5    0.89    1.55
  -5  -5  -5   -1.21    1.49
  -5   5  -5   -0.13    2.66
  -5   5  -5   -0.02    1.67
  -5   5  -5   -0.31    1.91
  -5   5  -5   -0.26    3.11
  -6  -5  -5    2.52    2.05
  -6  -5  -5    6.16    2.11
  -6   5  -5    4.94    2.38
  -6   5  -5    2.80    3.85
  -6   5  -5    4.31    3.21
  -6   5  -5    5.21    2.46
  -7  -5  -5   -0.43    1.82
  -7  -5  -5   -0.28    2.12
  -7   5  -5    1.58    2.41
  -7   5  -5   -2.48    3.61
  -7   5  -5    0.90    3.34
  -7   5  -5    1.16    2.06
  -8  -5  -5    2.23    2.30
  -8  -5  -5    4.63    2.34
  -8   5  -5    6.15    4.59
  -8   5  -5    4.75    2.65
  -8   5  -5    4.74    3.78
  -8   5  -5    0.14    2.08
  -9  -5  -5    4.81    2.37
  -9  -5  -5    6.71    3.07
  -9   5  -5    6.15    4.53
  -9   5  -5    7.44    2.85
  -9   5  -5    5.61    2.79
  -9   5  -5    6.83    5.46
 -10  -5  -5   -0.02    2.37
 -10  -5  -5   -2.71    2.38
 -10   5  -5    3.67    2.58
 -10   5  -5   -0.37    2.41
 -10   5  -5   10.09    4.99
 -10   5  -5   -2.00    4.51
 -11  -5  -5    2.81    2.79
 -11  -5  -5   -2.66    2.78
 -11   5  -5   11.23    6.20
 -11   5  -5   -0.63    2.69
 -11   5  -5   -0.36    4.81
 -12  -5  -5    0.11    3.13
 -12  -5  -5   -0.17    2.72
 -12   5  -5    4.74    2.62
 -12   5  -5   -4.85    5.37
 -12   5  -5   -3.73    4.46
 -13  -5  -5   -1.27    2.74
 -13  -5  -5   -4.25    2.78
 -13   5  -5    4.65    5.16
 -13   5  -5    6.47    6.18
 -13   5  -5    2.38    3.15
 -14  -5  -5   -1.27    3.36
 -14  -5  -5    0.34    3.23
 -14   5  -5   -2.05    2.92
 -14   5  -5   -7.20    5.59
 -14   5  -5    3.61    5.41
 -15  -6   5    0.53    2.64
 -15  -6   5    3.59    2.75
 -15  -6   5   -4.89    3.08
 -15   6   5    3.77    4.25
 -15   6   5   -4.31    3.10
 -14  -6   5    3.26    3.03
 -14  -6   5    2.22    2.66
 -14  -6   5   -1.02    2.02
 -14   6   5   -3.62    3.73
 -14   6   5    4.47    3.58
 -13  -6   5    0.03    1.83
 -13  -6   5    5.08    2.92
 -13  -6   5    3.43    2.46
 -13   6   5    5.25    3.51
 -13   6   5    2.64    3.37
 -12  -6   5    1.75    1.73
 -12  -6   5    2.27    2.39
 -12  -6   5    0.54    2.27
 -12   6   5    7.10    3.73
 -12   6   5    7.98    4.07
 -11  -6   5    0.08    1.45
 -11  -6   5   -1.02    1.88
 -11   6   5    1.17    2.90
 -11   6   5    5.67    2.76
 -10  -6   5    2.22    2.17
 -10  -6   5    3.14    1.66
 -10   6   5    5.39    2.85
 -10   6   5    3.09    2.49
  -9  -6   5   10.14    1.93
  -9  -6   5   11.82    2.74
  -9   6   5    7.34    2.40
  -9   6   5   13.03    3.10
  -8  -6   5   21.03    3.07
  -8  -6   5   17.30    2.22
  -8   6   5   16.39    3.45
  -8   6   5   12.50    2.29
  -7  -6   5   25.83    2.86
  -7  -6   5   27.59    2.29
  -7   6   5   26.33    2.78
  -7   6   5   26.94    3.95
   7   6  -5   27.84    3.05
  -6  -6   5   54.82    3.83
  -6  -6   5   54.82    3.09
   6   6  -5   59.44    4.66
  -6   6   5   44.88    3.11
  -5  -6   5   88.90    4.93
   5  -6  -5   82.12    3.77
  -5  -6   5   99.80    4.43
  -5   6   5   95.64    5.75
  -5   6   5   88.91    4.23
   5   6  -5   91.22    5.24
   4  -6  -5   62.10    3.44
  -4  -6   5   70.60    3.54
  -4   6   5   68.33    3.40
  -4   6   5   70.11    4.82
   4   6  -5   69.87    4.43
   3  -6  -5    2.74    1.49
  -3  -6   5    4.24    1.32
  -3   6   5    9.88    2.56
  -3   6   5    6.73    1.25
   3   6  -5    9.42    2.20
  -2  -6   5    3.40    1.25
   2   6  -5    0.28    1.73
  -2   6   5    2.96    1.02
  -2   6   5    3.82    1.92
   1  -6  -5    0.82    0.82
   1  -6  -5    3.39    1.35
  -1  -6   5    2.18    1.19
  -1   6   5    1.00    1.59
   1   6  -5    1.73    1.97
  -1   6   5    0.70    0.91
   0  -6  -5   45.25    2.51
   0  -6  -5   49.86    3.02
   0  -6   5   45.00    2.88
   0   6   5   48.50    3.66
   0   6  -5   45.82    3.64
   0   6  -5   47.58    4.06
   1  -6   5   85.42    4.08
  -1  -6  -5   82.61    4.24
  -1  -6  -5   80.83    3.80
   1   6   5   80.62    4.44
  -1   6  -5   81.03    4.86
  -1   6  -5   78.66    5.19
  -2  -6  -5   39.46    2.67
  -2  -6  -5   42.66    3.08
   2  -6   5   36.93    2.68
   2   6   5   46.23    3.00
  -2   6  -5   41.25    4.14
  -2   6  -5   44.19    3.62
   3  -6   5   25.70    2.24
  -3  -6  -5   24.31    2.18
  -3  -6  -5   27.07    3.06
  -3   6  -5   23.00    3.60
   3   6   5   23.00    2.13
  -3   6  -5   25.33    3.22
  -4  -6  -5   41.29    3.13
   4  -6   5   42.02    3.29
  -4  -6  -5   40.12    3.26
  -4   6  -5   28.46    4.18
  -4   6  -5   37.03    4.07
   4   6   5   39.95    2.26
  -5  -6  -5   46.31    3.49
  -5  -6  -5   50.24    3.79
   5  -6   5   49.70    3.34
  -5   6  -5   51.91    4.26
  -5   6  -5   49.30    5.22
  -6  -6  -5   23.58    3.19
  -6   6  -5   23.97    4.47
  -6   6  -5   33.21    3.98
  -7  -6  -5    7.95    2.46
  -7  -6  -5    3.81    2.37
  -7   6  -5   14.24    3.24
  -7   6  -5    8.33    3.93
  -8  -6  -5   10.48    2.72
  -8  -6  -5    4.14    2.50
  -8   6  -5    8.54    2.88
  -8   6  -5    4.02    4.10
  -8   6  -5    3.95    4.27
  -9  -6  -5    2.01    2.63
  -9  -6  -5    7.62    2.84
  -9   6  -5   10.02    3.03
  -9   6  -5    6.94    5.13
  -9   6  -5    2.85    4.51
 -10  -6  -5    8.01    5.18
 -10  -6  -5    3.98    3.20
 -10   6  -5   -4.60    5.62
 -10   6  -5    8.35    3.36
 -10   6  -5    2.10    4.88
 -11  -6  -5   -0.76    2.79
 -11  -6  -5   -1.99    2.58
 -11   6  -5   -0.69    4.83
 -11   6  -5   -3.58    2.89
 -11   6  -5    9.89    5.86
 -12  -6  -5    0.64    2.95
 -12  -6  -5    0.61    3.15
 -12   6  -5    7.97    6.03
 -12   6  -5    2.15    2.85
 -13  -6  -5    3.42    3.42
 -13  -6  -5   -0.39    3.66
 -13   6  -5   -5.72    6.04
 -13   6  -5    1.54    5.86
 -13   6  -5   -4.58    2.93
 -14  -7   5    4.11    2.05
 -14  -7   5    1.41    2.79
 -14  -7   5    1.17    2.74
 -14   7   5    4.75    5.57
 -14   7   5    0.66    3.40
 -13  -7   5    0.88    2.59
 -13  -7   5    1.93    1.85
 -13  -7   5   -0.47    2.58
 -13   7   5    1.79    3.51
 -13   7   5    4.53    3.36
 -12  -7   5   -2.28    2.09
 -12  -7   5   -0.57    1.51
 -12  -7   5   -0.63    2.34
 -12   7   5    3.78    3.31
 -12   7   5   -0.70    2.97
 -11  -7   5    0.63    2.18
 -11  -7   5    1.26    1.40
 -11   7   5   -0.19    5.00
 -11   7   5   12.17    5.84
 -10  -7   5    2.26    1.55
 -10  -7   5    0.94    2.16
 -10   7   5   -0.06    2.27
 -10   7   5    0.37    2.58
  -9  -7   5    3.04    2.04
  -9  -7   5    1.12    1.20
  -9   7   5    0.37    2.44
  -9   7   5   -1.54    1.77
  -8  -7   5    7.77    2.41
  -8   7   5    3.60    2.77
  -8   7   5    3.96    1.96
  -7  -7   5    5.49    2.18
  -7  -7   5    8.32    1.73
   7   7  -5    2.39    2.01
  -7   7   5    4.11    2.67
  -7   7   5    5.14    1.78
  -6  -7   5    2.03    1.35
  -6  -7   5    1.06    1.73
  -6   7   5   -0.30    1.31
   6   7  -5    3.48    1.99
  -6   7   5    1.81    2.29
  -5  -7   5   17.47    2.90
   5  -7  -5   12.36    1.63
  -5  -7   5   13.88    1.95
  -5   7   5   10.19    3.00
   5   7  -5   13.93    2.64
  -5   7   5   16.11    1.99
   4  -7  -5   11.09    1.83
  -4  -7   5   10.67    2.43
  -4  -7   5   10.69    1.74
   4   7  -5    8.51    2.37
  -4   7   5    9.96    1.68
  -3  -7   5    1.92    1.20
  -3   7   5    2.87    2.16
   3   7  -5    2.98    1.74
  -3   7   5    0.96    1.10
  -2  -7   5   -0.22    0.98
   2  -7  -5    0.78    1.28
   2  -7  -5    0.20    0.72
   2   7  -5   -0.07    1.84
  -2   7   5   -1.63    0.92
  -2   7   5    2.33    2.16
  -1  -7   5   -0.98    1.02
   1  -7  -5    0.50    1.43
   1  -7  -5    0.23    0.79
  -1   7   5   -0.32    1.82
  -1   7   5    0.29    0.98
   1   7  -5    1.19    1.63
   0  -7   5    3.79    1.43
   0  -7  -5    4.89    1.62
   0  -7  -5    6.17    1.23
   0   7   5    3.54    2.04
   0   7  -5    2.19    2.05
   0   7  -5    2.71    2.16
  -1  -7  -5   19.93    1.93
  -1  -7  -5   15.87    2.50
  -1   7  -5   16.83    2.91
  -1   7  -5   14.22    3.18
   1   7   5   19.08    2.59
   2  -7   5   11.75    1.94
  -2  -7  -5   10.99    1.82
  -2  -7  -5   10.02    2.16
   2   7   5    9.49    1.97
  -2   7  -5    7.26    2.33
  -2   7  -5   11.93    3.13
  -3  -7  -5   -0.65    1.42
   3  -7   5    0.34    1.30
  -3   7  -5   -0.30    1.80
  -3   7  -5    0.09    2.60
   3   7   5    1.11    1.84
  -4  -7  -5    4.03    2.07
  -4  -7  -5    3.82    1.86
   4  -7   5    2.97    1.55
  -4   7  -5    3.82    2.25
  -4   7  -5    1.60    2.90
   4   7   5    1.91    1.14
  -5  -7  -5   -2.65    1.79
   5  -7   5   -0.54    1.48
  -5  -7  -5    5.15    2.39
  -5   7  -5    4.00    3.33
  -5   7  -5    0.24    1.95
  -6  -7  -5   -1.56    1.80
  -6  -7  -5    1.80    2.07
   6  -7   5    1.85    1.78
  -6   7  -5    0.76    2.31
  -6   7  -5    0.76    3.31
  -7  -7  -5    4.49    2.54
  -7  -7  -5    1.67    2.30
  -7   7  -5    1.10    3.57
  -7   7  -5    2.51    2.48
  -8  -7  -5    3.24    2.49
  -8  -7  -5    1.13    2.64
  -8   7  -5    3.61    4.13
  -8   7  -5    3.58    2.77
  -9  -7  -5   -0.34    2.55
  -9   7  -5   -2.59    2.33
 -10  -7  -5    2.34    2.71
 -10  -7  -5    1.37    2.80
 -10   7  -5    1.43    5.12
 -10   7  -5    2.73    2.86
 -11  -7  -5   -2.26    2.71
 -11  -7  -5    6.62    3.15
 -11   7  -5    5.42    5.22
 -11   7  -5   -0.88    2.85
 -12  -7  -5   -4.10    2.96
 -12  -7  -5    3.00    3.23
 -12   7  -5   -2.17    3.24
 -12   7  -5    0.19    5.28
 -13  -8   5    4.62    3.15
 -13  -8   5    0.29    2.54
 -13   8   5    8.94    4.22
 -12  -8   5    8.68    3.20
 -12  -8   5   -0.67    1.84
 -12  -8   5    0.56    2.74
 -12   8   5    2.19    3.17
 -11  -8   5    5.46    2.97
 -11  -8   5    4.61    1.89
 -11  -8   5    6.05    3.05
 -11   8   5    3.95    2.82
 -11   8   5    7.70    3.99
 -10  -8   5    8.63    3.07
 -10  -8   5   -1.16    1.61
 -10   8   5    2.08    3.77
 -10   8   5    3.47    3.27
  -9  -8   5    3.09    1.64
  -9   8   5    1.76    2.25
  -9   8   5   11.45    5.02
  -8  -8   5    7.20    2.77
  -8  -8   5    4.66    1.62
  -8   8   5    7.48    2.25
  -8   8   5    1.77    3.14
  -7  -8   5    3.37    2.13
  -7  -8   5    5.04    1.73
  -7   8   5    2.08    1.76
   7   8  -5    8.12    2.66
  -7   8   5    1.67    3.03
  -6  -8   5    4.74    2.29
  -6  -8   5    2.87    1.60
   6   8  -5    1.95    2.03
  -6   8   5    2.16    1.53
  -6   8   5   -0.56    2.72
  -5  -8   5    1.77    1.90
  -5  -8   5    1.93    1.49
   5   8  -5   -0.07    2.00
  -5   8   5    1.30    2.42
  -5   8   5    1.80    1.47
  -4  -8   5    5.98    2.35
   4  -8  -5    3.57    1.60
  -4  -8   5    7.56    1.75
   4   8  -5    5.07    2.32
  -4   8   5    3.67    2.90
  -4   8   5    3.83    1.43
  -3  -8   5   40.06    3.05
  -3  -8   5   41.64    3.63
   3  -8  -5   38.27    2.82
  -3   8   5   37.38    4.44
   3   8  -5   34.93    3.85
  -3   8   5   34.47    2.88
   2  -8  -5   78.85    4.14
  -2  -8   5   77.06    4.19
   2  -8  -5   72.62    3.19
   2   8  -5   78.10    5.48
  -2   8   5   75.08    6.16
  -2   8   5   76.17    4.16
   1  -8  -5   54.89    3.53
   1  -8  -5   49.89    2.68
  -1  -8   5   52.37    3.35
   1   8  -5   45.83    4.56
  -1   8   5   50.64    4.54
  -1   8   5   52.82    3.34
   0  -8  -5   16.05    1.22
   0  -8  -5   19.60    1.85
   0  -8   5   16.74    2.33
   0  -8  -5   19.67    2.55
   0   8   5   16.39    2.87
   0   8  -5   14.37    3.30
   0   8  -5   18.33    3.10
  -1  -8  -5    7.34    1.61
  -1  -8  -5    9.02    2.13
   1  -8   5   10.11    1.93
   1   8   5   12.64    2.47
  -1   8  -5    6.07    2.92
  -1   8  -5    6.45    2.47
   2  -8   5   17.03    2.34
  -2  -8  -5   14.82    2.68
  -2  -8  -5   14.62    2.17
  -2   8  -5   14.50    3.60
   2   8   5   16.93    2.48
  -2   8  -5   13.32    2.83
  -3  -8  -5   23.10    2.69
   3  -8   5   18.62    2.62
  -3  -8  -5   19.33    3.12
  -3   8  -5    6.88    3.21
  -3   8  -5   18.89    3.36
   3   8   5   17.68    2.30
   4  -8   5    7.50    2.00
  -4  -8  -5    7.86    2.46
  -4  -8  -5   11.23    2.70
  -4   8  -5    4.23    2.59
  -4   8  -5    5.42    3.13
  -5  -8  -5    0.78    2.10
  -5  -8  -5    5.39    2.12
   5  -8   5    3.13    1.91
  -5   8  -5    3.23    3.36
  -5   8  -5    2.19    2.80
  -6  -8  -5    0.23    2.24
   6  -8   5    4.47    2.14
  -6  -8  -5    1.86    2.38
  -6   8  -5    3.52    3.59
  -6   8  -5    5.71    2.72
  -7  -8  -5    6.77    2.94
  -7  -8  -5    6.00    2.89
  -7   8  -5    2.53    4.70
  -7   8  -5    5.35    4.48
  -8  -8  -5    6.05    2.87
   8  -8   5    5.85    2.57
  -8  -8  -5    6.17    2.84
  -8   8  -5    8.83    3.52
  -8   8  -5   -0.29    4.13
  -9  -8  -5    0.12    2.65
  -9  -8  -5    4.72    2.94
  -9   8  -5   -0.60    3.15
  -9   8  -5   -8.79    3.98
 -10  -8  -5   -1.38    2.75
 -10  -8  -5    0.50    2.84
 -10   8  -5    0.08    5.32
 -10   8  -5    5.63    3.39
 -11  -8  -5    1.32    3.21
 -11  -8  -5   -0.73    3.02
 -11   8  -5    2.83    5.84
 -11   8  -5    0.87    3.08
 -11  -9   5    1.31    3.06
 -11  -9   5    0.01    2.70
 -11   9   5    0.81    3.79
 -10  -9   5   -3.64    1.38
 -10  -9   5    1.07    2.57
 -10  -9   5    0.86    2.62
 -10   9   5   -0.25    3.22
  -9  -9   5    3.55    2.63
  -9  -9   5   -3.02    2.42
  -9  -9   5    1.33    1.45
  -9   9   5    0.95    2.98
  -9   9   5   -4.71    2.86
  -8  -9   5    3.46    2.55
  -8  -9   5    3.16    1.61
  -8   9   5    2.97    3.27
  -7  -9   5   -1.09    1.35
  -7   9   5    2.16    1.95
   7   9  -5    0.86    2.13
  -6  -9   5    3.65    2.33
  -6  -9   5    1.24    1.39
   6   9  -5    2.89    3.95
  -6   9   5   -2.89    2.55
  -6   9   5    1.10    1.63
  -5  -9   5    3.71    2.24
  -5  -9   5    0.26    1.37
  -5   9   5    3.06    1.65
   5   9  -5    5.80    2.60
  -5   9   5    2.87    3.04
  -4  -9   5    2.97    1.46
  -4  -9   5    2.87    2.17
   4   9  -5    0.37    2.11
  -4   9   5    2.30    2.80
  -4   9   5    2.57    1.59
   3  -9  -5    3.03    1.67
  -3  -9   5   -2.17    1.97
  -3  -9   5   -0.25    1.37
  -3   9   5    0.95    2.42
   3   9  -5    0.80    2.27
  -3   9   5    0.03    1.29
   2  -9  -5    0.01    1.62
  -2  -9   5   -3.14    1.56
  -2  -9   5   -0.24    1.55
   2   9  -5    1.47    2.28
  -2   9   5   -2.60    1.27
  -2   9   5    0.96    2.25
   1  -9  -5    2.09    1.84
  -1  -9   5    0.23    1.39
  -1   9   5    0.46    2.26
   1   9  -5    3.91    2.65
   0  -9   5    0.96    1.39
   0  -9  -5   -1.53    1.09
   0  -9  -5    2.60    2.21
   0   9   5    1.10    2.26
   0   9  -5    4.76    2.21
   0   9  -5   -1.00    2.27
  -1  -9  -5    7.86    1.74
   1  -9   5    3.23    1.68
  -1  -9  -5    4.70    2.24
   1   9   5    2.30    2.08
  -1   9  -5    1.47    2.75
  -1   9  -5    3.46    2.68
  -2  -9  -5    3.14    1.70
  -2  -9  -5    3.79    2.30
   2  -9   5    0.96    1.63
   2   9   5    4.28    1.99
  -2   9  -5    3.77    2.82
  -2   9  -5   -2.53    2.62
  -3  -9  -5   -1.63    1.82
   3  -9   5    0.45    1.53
  -3   9  -5   -0.36    2.42
  -3   9  -5    0.66    2.85
   3   9   5   -1.70    1.59
   4  -9   5    3.97    1.87
  -4  -9  -5    2.35    2.27
  -4  -9  -5    1.55    1.91
  -4   9  -5    1.07    3.12
  -4   9  -5    1.71    4.24
  -5  -9  -5    1.38    2.14
  -5  -9  -5    0.05    2.27
  -5   9  -5   -0.67    2.50
  -5   9  -5    0.22    3.58
   6  -9   5   -2.57    1.88
  -6  -9  -5    3.98    2.53
  -6  -9  -5    2.02    2.18
  -6   9  -5   -4.46    3.93
  -6   9  -5   -0.70    2.57
  -7  -9  -5    4.87    2.98
  -7  -9  -5   -5.57    2.39
   7  -9   5   -0.05    2.04
  -7   9  -5   -0.77    3.04
  -7   9  -5    0.91    3.73
  -8  -9  -5   -2.95    2.60
  -8  -9  -5   -0.62    2.75
   8  -9   5   -2.20    2.26
  -8   9  -5    1.42    3.14
  -8   9  -5   -2.21    4.04
   9  -9   5   -4.23    2.09
  -9  -9  -5    2.15    2.79
  -9  -9  -5    0.66    3.60
  -9   9  -5    6.90    5.70
  -9   9  -5    1.85    3.33
  -9 -10   5    2.09    3.05
  -9 -10   5    1.18    3.22
  -9  10   5    7.55    4.00
  -8 -10   5    1.95    3.18
  -8 -10   5    5.52    1.87
  -8 -10   5    4.85    3.21
  -8  10   5   -5.21    3.38
  -7 -10   5    5.12    2.61
  -7 -10   5    0.66    1.66
  -7  10   5    4.37    3.67
  -6 -10   5    7.50    2.77
  -6 -10   5    5.13    1.84
   6  10  -5    6.24    2.81
  -6  10   5    9.64    3.77
  -6  10   5   12.69    4.04
  -5 -10   5   12.81    3.14
  -5 -10   5    8.73    2.06
  -5  10   5    6.88    3.74
  -5  10   5    8.40    2.16
   5  10  -5   11.16    3.46
  -4 -10   5    9.86    2.16
   4  10  -5   12.78    3.39
  -4  10   5    9.12    2.12
  -4  10   5    4.94    3.60
  -3 -10   5    4.30    2.96
  -3 -10   5    0.77    1.61
   3 -10  -5    0.53    1.19
  -3  10   5    1.44    1.72
  -3  10   5    4.87    3.16
   3  10  -5    0.38    2.50
  -2 -10   5   -1.42    1.22
  -2 -10   5   -4.86    1.74
   2 -10  -5    1.80    1.93
  -2  10   5    0.54    2.72
   2  10  -5   -1.64    2.46
  -2  10   5   -1.42    1.63
  -1 -10   5    2.92    1.71
  -1 -10   5    2.08    2.18
   1 -10  -5    6.52    2.28
  -1  10   5    0.25    2.59
   1  10  -5    0.47    2.53
   0 -10   5    9.11    2.42
   0 -10  -5    6.55    2.35
   0  10   5    4.69    2.64
   0  10  -5    3.53    3.14
   1 -10   5    9.54    2.32
  -1 -10  -5    9.59    2.72
   1  10   5   16.32    3.27
  -1  10  -5   20.44    4.14
  -1  10  -5   18.06    3.81
   2 -10   5    3.80    3.32
  -2 -10  -5    6.80    2.69
  -2  10  -5    1.08    2.91
   2  10   5    7.22    2.56
  -2  10  -5    1.96    3.23
  -3 -10  -5    6.18    2.49
  -3 -10  -5    2.39    2.18
   3 -10   5    5.35    2.19
  -3  10  -5   -0.65    3.14
  -3  10  -5    2.65    3.12
   4 -10   5    7.98    2.38
  -4 -10  -5    7.14    2.57
  -4 -10  -5    6.79    4.56
  -4  10  -5    5.32    3.88
  -4  10  -5    4.08    2.89
  -5 -10  -5    8.41    3.29
   5 -10   5   10.10    2.63
  -5 -10  -5    7.28    2.81
  -5  10  -5   -5.40    3.32
  -5  10  -5   10.03    3.50
   6 -10   5    6.68    2.48
  -6 -10  -5    4.02    3.17
  -6  10  -5    7.14    4.36
  -6  10  -5   -0.90    2.86
   7 -10   5    3.37    2.37
  -7 -10  -5   -2.10    2.98
  -7 -10  -5   -3.11    2.46
  -7  10  -5    8.76    3.82
  -7  10  -5    5.21    4.50
  -5 -11   5    2.34    2.73
  -5 -11   5    0.52    1.51
  -5 -11   5    0.20    2.50
   5  11  -5    1.83    2.89
  -5  11   5    0.40    3.29
  -4 -11   5    1.52    1.96
  -4 -11   5    0.59    2.22
   4  11  -5   -2.22    2.56
  -4  11   5    1.81    3.49
  -3 -11   5   -0.20    2.19
  -3  11   5    1.64    3.41
   3  11  -5    3.79    3.24
  -2 -11   5   -0.45    1.97
   2  11  -5   -0.01    2.72
  -2  11   5    1.27    3.00
  -1 -11   5   -2.19    2.13
  -1 -11   5   -1.93    1.39
   1  11  -5   -4.68    2.31
  -1  11   5    3.97    5.18
   0 -11  -5   -2.82    2.03
   0 -11   5   -1.47    1.37
   0 -11   5   -0.11    2.17
   0  11  -5   -1.63    2.98
   0  11   5   -2.70    2.35
   1 -11   5    0.48    1.87
   1 -11   5   -0.71    1.67
  -1 -11  -5    3.19    2.39
   1  11   5    2.06    2.64
  -1  11  -5    7.17    3.47
   2 -11   5   -2.42    1.78
  -2 -11  -5    2.04    3.73
  -2  11  -5    2.77    3.10
  -2  11  -5   -1.15    3.60
   3 -11   5    1.30    1.79
  -3 -11  -5    0.29    2.43
  -3  11  -5   -2.16    2.52
  -3  11  -5   -3.34    3.35
 -17   0   6    0.14    2.84
 -17   0   6    3.37    2.97
 -17   0   6    1.51    2.54
 -16   0   6    1.62    2.83
 -16   0   6    4.28    2.20
 -16   0   6    3.98    2.70
 -16   0   6    3.49    2.96
 -15   0   6    4.42    2.95
 -15   0   6    3.71    2.63
 -15   0   6    0.29    2.53
 -15   0   6    5.25    2.25
 -14   0   6   -0.92    1.93
 -14   0   6    1.83    2.43
 -14   0   6    2.47    2.13
 -14   0   6    6.32    1.85
 -13   0   6    1.10    1.83
 -13   0   6   -0.38    1.72
 -13   0   6    5.47    1.75
 -13   0   6    3.21    2.28
 -12   0   6    2.28    1.85
 -12   0   6    3.50    1.78
 -12   0   6    2.92    2.25
 -11   0   6    0.76    1.79
 -11   0   6    5.86    1.84
 -11   0   6    3.74    1.54
 -10   0   6    2.24    1.28
 -10   0   6    5.23    1.44
 -10   0   6    0.48    1.75
  -9   0   6    3.57    1.53
  -9   0   6    7.78    1.47
  -8   0   6   69.18    3.69
  -8   0   6   64.60    3.50
  -7   0   6  104.09    4.35
  -7   0   6  102.41    4.62
  -6   0   6   45.35    2.35
  -6   0   6   45.17    2.58
   5   0  -6    9.45    1.65
  -5   0   6    8.85    1.30
   4   0  -6   40.77    2.65
  -4   0   6   44.58    2.27
   3   0  -6  316.48   10.68
   3   0  -6  311.77   11.41
  -3   0   6  319.40   10.96
  -2   0   6  524.64   17.69
   2   0  -6  529.75   17.53
   2   0  -6  530.62   18.30
   1   0  -6  196.71    7.76
   1   0  -6  201.54    7.05
  -1   0   6  194.75    7.00
   1   0  -6  196.15    7.55
   0   0  -6   38.54    3.24
   0   0  -6   44.23    2.93
   0   0   6   38.89    1.89
   0   0  -6   40.10    2.42
  -1   0  -6   10.44    2.33
  -1   0  -6   13.83    1.71
   1   0   6   13.75    1.10
  -1   0  -6   15.55    2.36
   2   0   6   17.70    1.18
  -2   0  -6   17.72    2.73
  -2   0  -6   16.91    2.16
  -3   0  -6    8.88    2.53
  -3   0  -6    8.87    2.42
   3   0   6   11.15    1.06
  -4   0  -6    2.64    2.24
  -4   0  -6    2.81    2.52
   4   0   6    2.23    0.70
  -5   0  -6   16.52    3.12
  -5   0  -6    9.87    2.65
   5   0   6   17.66    1.31
  -6   0  -6   86.75    5.53
  -6   0  -6   97.28    5.31
  -7   0  -6   97.06    5.50
  -7   0  -6  100.44    5.79
  -8   0  -6   46.53    4.01
  -8   0  -6   27.56    4.26
  -9   0  -6   -1.05    2.59
  -9   0  -6    1.23    3.19
 -10   0  -6   -0.17    3.38
 -10   0  -6    1.71    3.19
 -11   0  -6   13.35    4.09
 -11   0  -6    3.40    3.70
 -12   0  -6    0.93    3.48
 -12   0  -6    6.85    4.34
 -13   0  -6    2.01    4.50
 -13   0  -6   -4.18    3.82
 -14   0  -6   -2.80    3.90
 -14   0  -6    1.01    4.47
 -15   0  -6    3.01    4.74
 -15   0  -6   -3.18    4.12
 -17  -1   6    0.37    2.82
 -17  -1   6    0.28    2.88
 -17  -1   6    0.12    2.35
 -17  -1   6    2.17    2.57
 -17   1   6    2.33    2.44
 -17   1   6    0.88    3.06
 -16  -1   6   -0.41    2.63
 -16  -1   6    0.11    2.02
 -16  -1   6   -0.84    2.59
 -16  -1   6    0.31    2.16
 -16   1   6   -0.63    2.30
 -16   1   6    0.30    2.52
 -16   1   6    2.16    3.01
 -15  -1   6    2.48    1.96
 -15  -1   6    1.39    2.64
 -15  -1   6    4.04    2.47
 -15  -1   6   -1.33    2.10
 -15   1   6   -1.79    3.52
 -15   1   6    1.60    1.81
 -15   1   6    6.66    2.99
 -15   1   6   -1.02    2.31
 -14  -1   6    0.15    1.96
 -14  -1   6    0.58    1.87
 -14  -1   6   -1.52    2.31
 -14  -1   6    0.75    1.85
 -14   1   6    3.07    2.73
 -14   1   6   -0.48    1.43
 -14   1   6   -2.30    1.87
 -14   1   6   -1.01    1.95
 -13  -1   6    4.66    2.22
 -13  -1   6    6.09    2.21
 -13  -1   6    2.80    3.20
 -13   1   6    4.81    2.31
 -13   1   6    7.44    2.18
 -13   1   6    6.68    1.65
 -13   1   6    6.56    2.98
 -12  -1   6    2.55    2.29
 -12  -1   6    0.91    1.77
 -12  -1   6    3.05    1.82
 -12   1   6    4.29    2.50
 -12   1   6    2.13    1.62
 -12   1   6    0.54    1.70
 -11  -1   6    0.00    1.46
 -11  -1   6    2.68    1.48
 -11   1   6    0.28    1.27
 -11   1   6    2.49    2.01
 -11   1   6    3.06    1.79
 -10  -1   6    5.80    1.77
 -10  -1   6   13.18    2.02
 -10   1   6   10.25    2.42
 -10   1   6    6.48    1.85
 -10   1   6   10.28    1.62
  -9  -1   6    1.31    1.29
  -9  -1   6    0.76    1.19
  -9   1   6    3.03    1.45
  -9   1   6    3.78    1.12
  -9   1   6    1.57    1.71
  -8  -1   6    4.45    1.37
  -8  -1   6    2.36    1.30
  -8   1   6    3.50    1.00
  -8   1   6    2.70    1.42
  -7  -1   6    1.94    1.05
  -7  -1   6   -0.39    0.97
  -7   1   6    0.88    0.77
  -7   1   6    2.00    1.26
  -6  -1   6    7.49    1.30
  -6  -1   6    7.44    1.27
   6  -1  -6    5.38    1.29
  -6   1   6    6.08    0.95
  -6   1   6    4.52    1.27
   5  -1  -6   12.23    1.62
  -5  -1   6    8.49    1.29
  -5   1   6   10.29    1.02
  -5   1   6    9.09    1.30
  -4  -1   6    1.74    0.81
   4  -1  -6    2.65    1.39
  -4   1   6    1.97    0.49
  -4   1   6    1.80    0.84
   4   1  -6    3.03    1.33
   3  -1  -6   -0.09    1.34
  -3  -1   6    0.91    0.69
   3   1  -6   -0.16    0.67
  -3   1   6    1.27    0.74
   3   1  -6    0.32    1.24
   2  -1  -6   16.57    0.79
   2  -1  -6   18.96    2.46
  -2  -1   6   16.78    1.30
  -2   1   6   16.80    1.29
   2   1  -6   16.16    1.37
   2   1  -6   17.64    2.24
   1  -1  -6    2.25    1.84
  -1  -1   6    3.67    0.80
   1  -1  -6    3.56    1.45
   1  -1  -6    3.76    0.71
  -1   1   6    2.61    0.68
   1   1  -6   -0.73    1.46
   1   1  -6    2.75    1.07
   0  -1   6  134.10    5.01
   0  -1  -6  123.81    5.79
   0  -1  -6  130.23    5.60
   0  -1  -6  135.43    5.03
   0   1  -6  134.22    5.86
   0   1  -6  134.32    5.98
   0   1   6  131.97    4.82
   0   1  -6  139.15    5.51
  -1  -1  -6  201.99    8.30
  -1  -1  -6  196.67    8.05
   1  -1   6  212.40    7.50
  -1   1  -6  214.96    8.52
  -1   1  -6  213.92    8.17
   1   1   6  216.47    7.29
  -1   1  -6  215.66    8.48
  -2  -1  -6   31.60    2.75
   2  -1   6   28.40    1.64
  -2  -1  -6   26.66    2.90
  -2   1  -6   33.90    3.13
   2   1   6   27.60    1.43
  -2   1  -6   25.11    3.23
  -3  -1  -6   48.94    3.48
   3  -1   6   49.92    2.34
  -3  -1  -6   50.97    3.49
   3   1   6   52.16    2.13
  -3   1  -6   38.66    3.86
  -3   1  -6   45.86    3.89
  -4  -1  -6   85.67    4.71
   4  -1   6   91.93    3.68
  -4  -1  -6   83.94    4.75
   4   1   6   87.58    3.37
  -4   1  -6   88.54    5.21
  -4   1  -6   83.09    5.17
  -4   1  -6   94.79    5.45
  -5  -1  -6   13.47    2.53
  -5  -1  -6   13.08    2.43
  -5   1  -6   10.40    3.15
   5   1   6   14.67    1.16
  -5   1  -6   12.95    3.18
  -5   1  -6    6.27    2.65
  -6  -1  -6    3.20    2.50
  -6  -1  -6    0.49    2.06
  -6   1  -6   -1.70    2.70
   6   1   6    0.27    0.63
  -6   1  -6    0.46    2.91
  -7  -1  -6    1.66    2.48
  -7  -1  -6   -1.84    1.99
  -7   1  -6   -0.33    2.69
  -7   1  -6   -0.12    2.99
  -8  -1  -6    0.26    2.22
  -8  -1  -6   -2.29    2.07
  -8   1  -6    3.19    3.01
  -8   1  -6    1.44    3.62
  -9  -1  -6   -1.12    2.60
  -9   1  -6    0.66    3.31
  -9   1  -6    2.94    3.63
 -10  -1  -6    9.44    3.26
 -10  -1  -6    2.83    3.22
 -10   1  -6    4.24    3.64
 -10   1  -6    1.42    3.76
 -11  -1  -6    1.14    2.84
 -11  -1  -6    3.11    3.41
 -11   1  -6   -2.87    3.66
 -11   1  -6   -2.32    3.22
 -12  -1  -6   -1.16    3.42
 -12  -1  -6   -0.69    3.35
 -12   1  -6    2.15    4.13
 -12   1  -6   -6.58    3.95
 -13  -1  -6    1.25    3.36
 -13  -1  -6   -3.59    3.69
 -13   1  -6   -1.18    3.84
 -13   1  -6   -6.79    5.61
 -14  -1  -6    4.03    4.38
 -14   1  -6    5.46    4.23
 -14   1  -6   -6.02    4.23
 -15  -1  -6   -3.89    4.80
 -15  -1  -6    2.48    4.17
 -15   1  -6    4.43    4.78
 -15   1  -6    4.30    4.75
 -15   1  -6    1.96    5.41
 -17  -2   6   -3.16    2.09
 -17  -2   6   -0.24    3.04
 -17  -2   6   -5.81    4.04
 -17  -2   6    5.37    4.52
 -17   2   6   -3.19    3.27
 -17   2   6    0.00    2.51
 -16  -2   6   -0.99    2.14
 -16  -2   6    1.95    2.29
 -16  -2   6    3.84    2.70
 -16   2   6   -1.21    2.24
 -16   2   6   -2.18    2.94
 -16   2   6    0.58    5.09
 -15  -2   6   -1.00    1.92
 -15  -2   6    0.31    2.35
 -15  -2   6   -1.13    2.22
 -15  -2   6    0.99    1.98
 -15   2   6   -5.57    4.76
 -15   2   6   -1.05    2.06
 -15   2   6   -0.57    2.62
 -14  -2   6    0.52    1.85
 -14  -2   6    3.97    2.40
 -14  -2   6    1.35    2.53
 -14  -2   6    1.38    1.98
 -14   2   6    3.67    2.44
 -14   2   6    4.72    3.12
 -14   2   6    2.55    2.28
 -13  -2   6    4.74    2.10
 -13  -2   6    4.22    3.32
 -13  -2   6    5.50    2.47
 -13   2   6    3.57    2.59
 -13   2   6    4.35    2.41
 -13   2   6    4.72    1.38
 -13   2   6    2.75    2.06
 -12  -2   6   11.25    2.37
 -12  -2   6    7.72    2.10
 -12   2   6    1.91    1.77
 -12   2   6   14.37    3.06
 -12   2   6    6.92    1.33
 -12   2   6    3.78    2.13
 -11  -2   6   14.29    2.38
 -11  -2   6   15.83    2.38
 -11   2   6   15.50    3.04
 -11   2   6   13.08    2.26
 -11   2   6   13.24    2.10
 -10  -2   6   35.76    2.90
 -10  -2   6   41.99    3.13
 -10   2   6   32.43    3.65
 -10   2   6   37.26    2.55
  -9  -2   6   34.27    2.66
  -9  -2   6   35.24    2.65
  -9   2   6   36.02    2.28
  -9   2   6   36.24    3.57
  -9   2   6   37.55    3.03
  -8  -2   6   10.74    1.79
  -8  -2   6    9.52    1.66
  -8   2   6   11.64    1.27
  -8   2   6    9.36    2.26
  -8   2   6    9.47    1.83
  -7  -2   6    2.69    1.23
  -7  -2   6    9.04    1.62
  -7   2   6    4.91    1.80
  -7   2   6    7.66    0.94
  -7   2   6    7.54    1.64
  -6  -2   6   57.40    2.99
  -6  -2   6   61.57    3.17
   6  -2  -6   58.96    2.91
  -6   2   6   57.75    3.15
  -6   2   6   52.41    3.68
  -6   2   6   56.30    2.33
   5  -2  -6  152.61    5.84
  -5  -2   6  152.38    5.82
  -5   2   6  132.83    5.36
  -5   2   6  142.98    5.03
  -5   2   6  152.00    5.97
   5   2  -6  153.12    5.94
   4  -2  -6  112.44    4.95
  -4  -2   6  118.67    4.68
  -4   2   6  103.44    4.26
   4   2  -6  126.01    5.38
  -4   2   6  118.47    4.73
   4   2  -6  117.38    4.84
  -3  -2   6    3.06    0.76
   3  -2  -6    0.44    1.78
   3   2  -6    1.98    1.47
  -3   2   6    5.33    1.44
  -3   2   6    3.68    1.02
   3   2  -6    3.32    1.11
   2  -2  -6    9.19    1.29
   2  -2  -6   12.37    2.07
  -2   2   6   10.19    1.12
   2   2  -6    8.97    1.45
   1  -2  -6   20.49    1.90
   1  -2  -6   23.52    2.55
   1  -2  -6   20.46    1.09
   1   2  -6   20.96    1.92
  -1   2   6   24.91    1.41
   0  -2  -6  146.52    6.45
   0  -2  -6  149.99    6.14
   0   2  -6  169.88    6.51
   0   2   6  160.71    5.57
  -1  -2  -6  191.89    7.70
  -1  -2  -6  190.22    7.97
   1  -2   6  204.62    7.74
  -1   2  -6  214.79    8.54
   1   2   6  208.75    7.02
  -1   2  -6  215.83    8.21
  -2  -2  -6  177.89    7.23
   2  -2   6  177.39    6.56
  -2  -2  -6  174.08    7.03
  -2   2  -6  187.63    7.88
  -2   2  -6  172.87    7.65
  -2   2  -6  175.70    8.11
   2   2   6  174.29    6.08
  -3  -2  -6  166.65    6.82
   3  -2   6  162.84    6.04
  -3  -2  -6  159.77    6.72
  -3   2  -6  160.49    7.32
  -3   2  -6  157.45    7.39
  -3   2  -6  158.15    7.49
   3   2   6  157.64    5.53
   4  -2   6  160.80    6.22
  -4  -2  -6  167.58    7.07
  -4  -2  -6  171.42    7.13
  -4   2  -6  165.56    7.95
   4   2   6  163.14    5.73
  -4   2  -6  165.93    8.02
  -4   2  -6  171.45    7.88
  -5  -2  -6   60.21    4.07
  -5  -2  -6   68.56    4.10
  -5   2  -6   64.69    5.17
  -5   2  -6   62.02    5.01
  -5   2  -6   73.23    3.91
   5   2   6   66.02    2.61
  -5   2  -6   66.44    5.28
  -6  -2  -6    1.34    1.92
  -6  -2  -6    4.65    2.32
  -6   2  -6    2.06    3.18
  -6   2  -6   -0.72    2.98
  -6   2  -6    0.56    1.40
  -6   2  -6    1.36    3.47
   6   2   6    0.39    0.59
  -7  -2  -6    1.25    2.22
  -7  -2  -6   -0.81    1.84
   7   2   6    1.79    0.70
  -7   2  -6    3.08    3.40
  -7   2  -6    3.67    3.56
  -7   2  -6    6.33    3.36
  -7   2  -6    4.22    1.62
  -8  -2  -6    1.03    2.25
  -8  -2  -6    1.05    2.68
  -8   2  -6    0.89    2.67
  -8   2  -6    2.17    1.56
  -8   2  -6    5.36    3.83
  -9  -2  -6    9.13    2.74
  -9  -2  -6   13.72    3.27
  -9   2  -6   19.87    4.73
  -9   2  -6   10.56    3.70
  -9   2  -6   12.61    4.22
  -9   2  -6   18.82    2.52
 -10  -2  -6    4.92    2.76
 -10  -2  -6    9.39    3.35
 -10   2  -6   11.91    2.34
 -10   2  -6    4.29    3.68
 -10   2  -6    4.05    4.07
 -10   2  -6    2.75    4.09
 -11  -2  -6   -2.78    2.53
 -11  -2  -6    4.69    3.40
 -11   2  -6    0.36    4.21
 -11   2  -6    2.04    1.87
 -11   2  -6   -1.51    4.26
 -11   2  -6   -2.00    4.19
 -12  -2  -6    7.15    3.75
 -12  -2  -6    2.46    3.17
 -12   2  -6   -0.06    4.26
 -12   2  -6   -2.35    1.81
 -12   2  -6   -1.29    4.45
 -12   2  -6    4.69    4.69
 -13  -2  -6    3.45    3.52
 -13  -2  -6    2.74    3.88
 -13   2  -6   -1.79    4.29
 -13   2  -6   -0.77    4.63
 -13   2  -6    1.66    4.95
 -14  -2  -6   -6.66    3.89
 -14  -2  -6   12.10    4.28
 -14   2  -6    0.21    4.54
 -14   2  -6   -2.23    5.13
 -14   2  -6    5.94    5.15
 -15  -2  -6    3.32    4.53
 -15  -2  -6    2.90    4.29
 -15   2  -6   -2.69    4.97
 -15   2  -6   -5.98    4.30
 -17  -3   6    2.27    2.15
 -17  -3   6   -5.41    2.60
 -17  -3   6    3.44    2.56
 -17   3   6    4.58    3.76
 -17   3   6   -2.29    4.80
 -16  -3   6   -0.45    2.07
 -16  -3   6    2.24    2.60
 -16  -3   6    3.29    2.58
 -16   3   6   -6.63    3.91
 -16   3   6    3.38    3.65
 -15  -3   6   -1.35    1.85
 -15  -3   6    0.60    2.46
 -15  -3   6   -0.64    2.19
 -15  -3   6    1.98    2.77
 -15   3   6    3.42    3.22
 -15   3   6   -5.54    1.93
 -14  -3   6   -4.14    1.57
 -14  -3   6   -3.83    2.07
 -14  -3   6   -1.99    1.86
 -14  -3   6    5.19    2.48
 -14   3   6   -0.90    2.78
 -14   3   6    2.84    2.38
 -14   3   6    1.06    3.10
 -13  -3   6    1.28    1.78
 -13  -3   6    4.57    2.33
 -13   3   6   -0.12    2.47
 -13   3   6    4.22    2.79
 -13   3   6   -0.26    1.59
 -12  -3   6    3.29    1.99
 -12  -3   6    1.44    1.56
 -12   3   6   -0.26    1.86
 -12   3   6    3.11    2.54
 -11  -3   6    0.94    1.39
 -11  -3   6    1.94    1.87
 -11   3   6    4.23    2.16
 -11   3   6    0.81    1.97
 -11   3   6   -2.19    2.45
 -10  -3   6    8.71    2.07
 -10  -3   6    8.47    1.86
 -10   3   6    6.00    2.81
 -10   3   6    4.44    1.97
 -10   3   6    6.27    1.84
  -9  -3   6    1.40    1.56
  -9  -3   6    0.31    1.21
  -9   3   6   -1.03    1.54
  -9   3   6    0.51    1.91
  -9   3   6   -0.21    1.42
  -8  -3   6    1.18    1.35
  -8  -3   6    1.13    1.15
  -8   3   6    3.35    2.10
  -8   3   6   -0.27    1.73
  -8   3   6    0.09    1.45
  -7  -3   6    1.04    1.05
  -7  -3   6   -1.63    1.05
  -7   3   6    0.26    1.54
  -7   3   6   -0.75    1.59
  -7   3   6    0.64    1.35
   6  -3  -6    3.55    1.15
  -6  -3   6    4.36    1.19
  -6  -3   6    5.16    1.45
  -6   3   6    4.02    1.12
   6   3  -6    3.83    1.46
  -6   3   6    3.36    1.43
  -6   3   6    1.64    1.70
   5  -3  -6    6.39    1.58
  -5  -3   6    8.54    1.36
   5   3  -6    9.42    1.65
  -5   3   6    6.19    1.88
  -5   3   6    8.60    0.85
  -5   3   6    9.56    1.61
  -4  -3   6    1.48    0.96
   4  -3  -6    0.11    1.69
   4   3  -6    1.80    1.19
  -4   3   6    1.18    1.12
  -4   3   6    1.90    1.49
  -3  -3   6    1.82    0.93
   3  -3  -6    0.04    1.77
   3   3  -6   -0.22    1.02
   3   3  -6    1.76    1.26
  -3   3   6    0.42    0.96
  -3   3   6    1.95    1.51
  -2  -3   6    4.89    0.99
   2  -3  -6    2.97    1.78
  -2   3   6    4.41    0.65
   2   3  -6    4.69    1.41
   2   3  -6    5.01    1.74
  -2   3   6    3.50    1.57
  -2   3   6    5.86    1.09
   1  -3  -6    1.61    1.80
  -1  -3   6    0.44    0.82
   1  -3  -6    0.60    0.49
   1  -3  -6    1.08    1.29
   1   3  -6    1.74    1.37
   1   3  -6    4.81    1.80
  -1   3   6    1.85    1.31
  -1   3   6    1.01    0.78
   0  -3  -6   74.62    3.65
   0  -3  -6   69.83    4.30
   0  -3   6   83.32    3.64
   0   3  -6   86.27    4.46
   0   3   6   87.15    4.13
   0   3   6   82.65    3.21
   0   3  -6   83.33    4.36
   1  -3   6  132.57    5.19
  -1  -3  -6  131.79    5.33
  -1  -3  -6  128.92    5.63
  -1  -3  -6  122.13    4.79
   1   3   6  131.11    5.48
  -1   3  -6  131.13    6.08
  -1   3  -6  125.80    6.03
  -2  -3  -6   18.48    2.34
  -2  -3  -6   15.29    2.02
   2  -3   6   17.59    1.61
  -2   3  -6   12.96    2.73
   2   3   6   18.57    1.84
  -2   3  -6   13.83    3.14
   2   3   6   15.56    0.91
  -2   3  -6   18.11    2.73
  -3  -3  -6   31.02    2.57
   3  -3   6   27.70    1.91
  -3  -3  -6   27.93    2.61
  -3   3  -6   27.32    2.74
  -3   3  -6   25.24    3.46
   3   3   6   30.04    1.94
  -3   3  -6   29.49    3.52
   3   3   6   24.25    1.07
  -3   3  -6   25.72    3.82
  -4  -3  -6   57.65    3.63
  -4  -3  -6   56.81    3.70
   4  -3   6   59.29    3.01
  -4   3  -6   63.35    4.70
  -4   3  -6   65.46    4.89
  -4   3  -6   57.91    3.64
  -4   3  -6   62.38    5.03
  -5  -3  -6   11.33    2.34
  -5  -3  -6   15.84    2.48
  -5   3  -6   17.20    3.99
  -5   3  -6   11.17    2.15
  -5   3  -6    9.10    3.28
  -5   3  -6    5.66    3.75
   5   3   6    9.71    0.61
  -6  -3  -6    0.02    1.95
  -6  -3  -6    1.44    1.81
  -6   3  -6   -0.40    3.05
  -6   3  -6    1.30    3.35
  -6   3  -6   -2.27    1.41
  -6   3  -6   -3.35    3.48
  -7  -3  -6    0.14    2.11
  -7  -3  -6   -0.06    1.94
  -7   3  -6    2.14    3.58
   7   3   6   -0.41    0.43
  -7   3  -6    4.12    3.58
  -7   3  -6    0.04    1.45
  -7   3  -6    1.33    3.82
  -8  -3  -6    0.07    2.12
  -8  -3  -6    0.44    2.35
   8   3   6    1.30    0.62
  -8   3  -6   -1.10    1.64
  -8   3  -6   -0.52    3.33
  -8   3  -6    4.53    4.21
  -8   3  -6   -4.00    3.86
  -9  -3  -6    0.33    2.44
  -9  -3  -6    3.58    2.57
  -9   3  -6   -8.50    3.31
  -9   3  -6    6.45    4.49
  -9   3  -6   -1.00    1.77
  -9   3  -6    5.69    4.10
   9   3   6    1.45    0.73
 -10  -3  -6    2.24    3.02
 -10  -3  -6    4.33    2.61
 -10   3  -6    2.22    4.31
 -10   3  -6    4.72    2.20
 -10   3  -6    3.46    4.40
 -10   3  -6    4.83    4.49
 -11  -3  -6    4.49    2.97
 -11  -3  -6    0.60    3.12
 -11   3  -6   -2.43    4.25
 -11   3  -6   -0.36    4.24
 -11   3  -6   -1.45    4.53
 -11   3  -6    3.05    2.31
 -12  -3  -6    3.09    3.43
 -12   3  -6    2.05    4.96
 -12   3  -6   -0.69    2.07
 -13  -3  -6   -1.52    3.07
 -13  -3  -6   -1.06    3.83
 -13   3  -6    1.32    4.45
 -13   3  -6    1.46    4.99
 -13   3  -6   -1.60    2.17
 -13   3  -6   -1.15    4.62
 -14  -3  -6   -1.20    3.43
 -14  -3  -6    2.84    4.11
 -14   3  -6    4.06    3.69
 -14   3  -6    0.08    5.11
 -14   3  -6    1.33    5.05
 -16  -4   6   -2.46    2.46
 -16  -4   6    4.04    2.87
 -16  -4   6    1.66    2.26
 -16   4   6    7.27    3.91
 -16   4   6    4.49    4.29
 -15  -4   6   -0.32    2.50
 -15  -4   6    3.47    2.54
 -15  -4   6    0.22    2.41
 -15   4   6    4.95    3.55
 -15   4   6   -0.86    3.89
 -14  -4   6   -1.17    2.23
 -14  -4   6    2.61    2.07
 -14  -4   6   -0.26    2.09
 -14   4   6    1.26    3.81
 -14   4   6    4.62    3.48
 -13  -4   6    1.36    2.21
 -13  -4   6    2.00    1.98
 -13   4   6    2.35    2.35
 -13   4   6   -2.73    3.40
 -13   4   6    0.88    3.13
 -12  -4   6    2.33    1.94
 -12  -4   6    2.76    1.63
 -12   4   6    4.81    2.89
 -12   4   6    2.91    2.27
 -12   4   6    1.14    3.14
 -11  -4   6    8.74    2.29
 -11  -4   6    2.17    1.62
 -11   4   6    5.10    3.04
 -11   4   6    4.51    2.60
 -11   4   6    0.75    1.93
 -10  -4   6    2.18    1.75
 -10   4   6   -0.73    2.42
 -10   4   6   -0.31    1.70
 -10   4   6    3.19    2.40
  -9  -4   6    7.13    2.30
  -9  -4   6    5.08    1.64
  -9   4   6    3.68    2.36
  -9   4   6    2.80    2.06
  -8  -4   6   41.68    3.15
  -8  -4   6   37.07    2.62
  -8   4   6   40.04    3.23
  -8   4   6   35.95    3.80
  -8   4   6   29.72    2.97
  -7  -4   6   59.27    3.71
  -7  -4   6   56.05    3.23
   7   4  -6   67.18    3.92
  -7   4   6   60.18    4.49
  -7   4   6   57.69    3.78
  -7   4   6   60.57    3.21
  -6  -4   6   26.63    2.30
   6  -4  -6   24.88    1.87
  -6  -4   6   29.66    2.64
  -6   4   6   30.33    3.48
  -6   4   6   28.52    1.92
   6   4  -6   25.88    2.59
  -6   4   6   30.27    2.80
   5  -4  -6    6.75    1.66
  -5  -4   6    8.24    1.47
  -5   4   6    3.62    1.96
  -5   4   6    6.77    1.65
   5   4  -6   11.24    1.99
  -4  -4   6   24.78    1.95
   4  -4  -6   26.68    2.72
  -4   4   6   29.29    3.04
  -4   4   6   23.38    1.15
  -4   4   6   23.99    2.25
   4   4  -6   24.32    2.49
   3  -4  -6  146.04    6.53
  -3  -4   6  159.85    6.26
  -3   4   6  170.03    6.33
  -3   4   6  159.68    7.16
   3   4  -6  161.07    6.93
   2  -4  -6  252.56    9.63
   2  -4  -6  245.77    8.67
  -2  -4   6  263.79    9.42
   2  -4  -6  235.03    8.68
  -2   4   6  261.62   10.13
   2   4  -6  265.42   10.12
  -2   4   6  271.38    9.22
  -1  -4   6  132.85    5.51
   1  -4  -6  129.42    5.15
   1   4  -6  135.40    6.26
   1   4  -6  139.83    6.30
  -1   4   6  139.47    5.14
   0  -4  -6   30.68    2.59
   0  -4  -6   28.50    2.16
   0  -4   6   29.49    2.13
   0   4  -6   28.53    3.13
   0   4   6   30.34    2.71
   0   4   6   31.75    1.62
   0   4  -6   24.87    2.97
  -1  -4  -6   11.65    1.70
  -1  -4  -6   10.03    1.93
   1  -4   6   11.99    1.64
  -1   4  -6   12.49    2.41
   1   4   6   11.00    1.82
  -1   4  -6   12.62    2.49
  -2  -4  -6   11.73    2.06
  -2  -4  -6   11.57    1.99
   2  -4   6   11.37    1.57
   2   4   6    9.85    1.61
  -2   4  -6    7.99    2.51
  -2   4  -6   10.58    2.02
  -2   4  -6   11.46    2.57
  -3  -4  -6    4.51    1.78
  -3  -4  -6    0.81    1.62
   3  -4   6    5.82    1.33
  -3   4  -6    5.57    1.81
  -3   4  -6    3.72    2.67
  -3   4  -6    6.57    3.18
   3   4   6    4.77    1.23
  -3   4  -6    6.75    2.69
   4  -4   6    2.89    1.21
  -4  -4  -6    1.84    1.74
  -4  -4  -6    1.39    1.64
  -4   4  -6   -2.51    2.48
  -4   4  -6    2.56    1.63
  -4   4  -6    2.45    2.74
  -4   4  -6    2.70    3.13
   5  -4   6   16.98    1.95
  -5  -4  -6    9.15    2.15
  -5  -4  -6   10.64    2.17
  -5   4  -6   11.40    3.74
  -5   4  -6   10.48    2.28
  -5   4  -6   15.30    3.62
  -5   4  -6    8.89    2.82
  -6  -4  -6   67.01    4.23
  -6   4  -6   67.29    4.47
  -6   4  -6   37.47    5.76
  -6   4  -6   58.98    5.81
  -6   4  -6   61.19    4.94
  -7  -4  -6   67.23    4.44
  -7   4  -6   68.79    4.50
  -7   4  -6   68.07    6.16
  -7   4  -6   59.01    6.16
  -8  -4  -6   18.60    3.09
  -8  -4  -6   19.30    3.66
  -8   4  -6   21.61    5.07
  -8   4  -6   28.11    5.32
  -8   4  -6   11.91    4.40
  -8   4  -6   21.23    4.59
  -9  -4  -6    3.74    2.40
  -9  -4  -6    5.13    2.78
  -9   4  -6    2.68    2.10
  -9   4  -6   -3.59    3.56
  -9   4  -6   -2.86    4.93
  -9   4  -6   -1.17    3.87
 -10  -4  -6    3.13    2.61
 -10  -4  -6    3.68    2.64
 -10   4  -6    1.59    2.35
 -10   4  -6    6.94    5.15
 -10   4  -6   -1.94    3.86
 -10   4  -6    2.86    4.33
 -11  -4  -6    8.12    3.22
 -11  -4  -6    0.24    3.20
 -11   4  -6    1.45    4.20
 -11   4  -6   -4.46    4.30
 -11   4  -6   -1.17    2.49
 -11   4  -6    2.62    5.40
 -12  -4  -6    2.06    3.53
 -12  -4  -6    7.07    3.44
 -12   4  -6    1.68    4.60
 -12   4  -6    2.39    8.99
 -12   4  -6    2.83    4.73
 -12   4  -6   -1.53    2.55
 -13  -4  -6    4.97    3.82
 -13  -4  -6   -2.23    3.07
 -13   4  -6    3.41    2.57
 -13   4  -6    2.05    4.89
 -13   4  -6   -8.88    5.83
 -14  -4  -6   -2.07    3.92
 -14  -4  -6    1.90    3.45
 -14   4  -6   -2.44    4.61
 -14   4  -6    0.92    2.36
 -14   4  -6  -11.26    4.98
 -16   5   6    1.96    3.58
 -16   5   6   -0.67    5.58
 -15  -5   6   -2.76    2.25
 -15  -5   6   -0.10    4.06
 -15  -5   6   -1.62    2.30
 -15   5   6   -8.25    3.42
 -15   5   6   -3.15    3.09
 -14  -5   6    2.92    2.77
 -14  -5   6   -2.94    1.54
 -14  -5   6    0.92    2.37
 -14   5   6   -2.07    3.33
 -14   5   6    5.76    3.59
 -13  -5   6    4.53    2.60
 -13  -5   6    1.89    1.81
 -13   5   6    0.20    6.07
 -13   5   6    1.19    4.18
 -12  -5   6    2.04    2.15
 -12  -5   6    2.85    1.85
 -12   5   6   -1.73    2.56
 -12   5   6   -1.96    2.73
 -11  -5   6    1.05    2.10
 -11  -5   6    2.02    1.46
 -11   5   6    2.16    2.47
 -11   5   6   -2.29    2.30
 -10  -5   6    3.74    1.55
 -10  -5   6    1.79    1.91
 -10   5   6    3.55    2.68
 -10   5   6    5.93    2.27
 -10   5   6    7.18    2.33
  -9  -5   6    1.83    1.50
  -9  -5   6    1.13    1.68
  -9   5   6    2.33    2.03
  -9   5   6   -1.18    2.02
  -8  -5   6   -0.26    1.65
  -8  -5   6    1.94    1.25
  -8   5   6    1.07    2.00
  -8   5   6    2.11    2.15
  -8   5   6    1.95    1.49
  -7  -5   6    0.63    1.12
  -7   5   6    1.23    1.15
   7   5  -6    1.29    1.52
  -7   5   6   -1.44    1.44
   6  -5  -6    2.60    1.05
  -6  -5   6    1.81    1.60
  -6  -5   6    2.46    1.25
   6   5  -6    3.27    1.71
  -6   5   6    2.90    1.04
  -6   5   6    1.13    2.04
  -6   5   6    1.58    1.63
  -5  -5   6    7.03    1.45
   5  -5  -6    0.66    1.47
  -5   5   6    4.00    0.94
  -5   5   6    3.63    2.34
  -5   5   6    9.53    1.91
   5   5  -6    5.82    1.88
  -4  -5   6    1.20    1.09
   4  -5  -6    1.93    1.84
  -4   5   6    2.28    1.90
  -4   5   6    0.39    0.64
   4   5  -6    0.16    1.46
  -4   5   6    2.59    1.50
  -3  -5   6   -0.66    0.93
   3  -5  -6    1.21    1.85
   3   5  -6    0.55    1.58
  -3   5   6    1.41    1.94
  -2  -5   6    0.73    1.08
   2  -5  -6    0.07    1.24
  -2   5   6    2.07    1.87
   2   5  -6    0.19    1.72
   1  -5  -6    0.10    1.59
  -1  -5   6    0.96    1.10
   1  -5  -6   -0.21    0.98
  -1   5   6   -1.00    1.61
   1   5  -6    1.20    1.86
   0  -5   6   41.33    2.64
   0  -5  -6   37.89    3.03
   0  -5  -6   40.82    2.41
   0   5   6   39.84    3.23
   0   5  -6   38.52    3.68
  -1  -5  -6   63.08    3.75
   1  -5   6   62.77    3.38
  -1  -5  -6   63.73    3.37
  -1   5  -6   64.40    4.69
  -1   5  -6   63.56    4.17
  -1   5  -6   69.44    4.27
   1   5   6   67.40    3.90
   2  -5   6    8.36    1.55
  -2  -5  -6    7.79    1.98
  -2  -5  -6    4.15    1.61
   2   5   6    6.41    1.58
  -2   5  -6    8.12    2.26
  -2   5  -6   10.49    2.73
  -2   5  -6    6.18    2.15
  -3  -5  -6   14.95    2.21
  -3  -5  -6   16.92    2.49
   3  -5   6   18.87    2.04
  -3   5  -6   11.59    3.09
  -3   5  -6   15.36    2.57
  -3   5  -6   21.89    3.26
   3   5   6   16.77    1.79
   4  -5   6   35.36    2.56
  -4  -5  -6   32.29    3.02
  -4  -5  -6   34.99    2.85
   4   5   6   33.54    2.03
  -4   5  -6   33.88    3.67
  -4   5  -6   30.80    4.17
  -4   5  -6   27.56    3.56
   5  -5   6    4.85    1.37
  -5  -5  -6    6.00    2.14
  -5   5  -6    0.99    2.14
  -5   5  -6    2.69    3.01
  -5   5  -6    7.90    3.63
  -5   5  -6    7.34    2.27
  -6  -5  -6   -3.08    1.72
  -6  -5  -6   -1.81    2.06
  -6   5  -6   -1.31    3.06
  -6   5  -6   -2.89    3.97
  -6   5  -6   -0.02    1.90
  -6   5  -6    1.42    2.91
  -7  -5  -6   -0.78    1.98
  -7  -5  -6    3.55    2.37
  -7   5  -6   -1.64    3.33
  -7   5  -6    3.92    2.26
  -7   5  -6    3.70    4.17
  -7   5  -6   -1.99    2.98
  -8  -5  -6   -1.70    1.94
  -8  -5  -6   -2.84    2.29
  -8   5  -6    4.00    3.12
  -8   5  -6    0.88    2.28
  -8   5  -6   -2.26    4.25
  -8   5  -6   -6.61    3.34
  -9  -5  -6   -1.74    2.37
  -9  -5  -6   -2.83    2.15
  -9   5  -6    6.33    3.41
  -9   5  -6   -0.38    3.73
  -9   5  -6    0.10    2.37
  -9   5  -6    2.96    4.84
 -10  -5  -6    2.05    3.29
 -10  -5  -6    6.30    3.04
 -10   5  -6    3.47    5.84
 -10   5  -6   -3.79    3.12
 -10   5  -6   -1.28    2.51
 -10   5  -6    5.89    4.91
 -11  -5  -6   -2.76    2.68
 -11  -5  -6    9.41    5.74
 -11   5  -6    6.90    5.73
 -11   5  -6    6.38    4.84
 -11   5  -6    3.08    2.56
 -12  -5  -6   -3.17    3.19
 -12  -5  -6    4.52    3.60
 -12   5  -6    0.04    2.77
 -12   5  -6    0.80    4.82
 -12   5  -6    4.13    5.59
 -13  -5  -6    0.36    3.27
 -13  -5  -6    0.72    3.64
 -13   5  -6   -3.28    5.04
 -13   5  -6   -7.56    5.29
 -13   5  -6    0.53    3.05
 -15  -6   6    0.49    2.62
 -15  -6   6    0.81    2.78
 -15  -6   6   -0.43    1.96
 -15   6   6   -0.81    3.38
 -14  -6   6    5.72    3.06
 -14  -6   6    2.46    2.88
 -14  -6   6    0.57    2.13
 -14   6   6    1.53    3.62
 -14   6   6    1.30    3.34
 -13  -6   6    4.26    2.10
 -13  -6   6    6.52    2.83
 -13  -6   6    2.69    2.64
 -13   6   6    2.45    2.95
 -13   6   6    2.84    3.47
 -12  -6   6    4.15    1.94
 -12   6   6    2.37    2.86
 -11  -6   6    2.92    1.82
 -11  -6   6   10.96    3.06
 -11   6   6    4.59    2.59
 -11   6   6    1.66    3.02
 -10  -6   6   13.88    2.24
 -10  -6   6   10.80    2.85
 -10   6   6   14.03    3.59
 -10   6   6    8.12    2.41
  -9  -6   6   12.86    2.20
  -9  -6   6   14.91    2.93
  -9   6   6   15.92    2.41
  -9   6   6   17.80    3.53
  -8  -6   6    4.96    2.07
  -8   6   6    5.67    2.73
  -7  -6   6    3.48    1.57
  -7  -6   6    7.64    2.23
  -7   6   6    3.48    2.56
   7   6  -6    3.85    2.06
  -7   6   6    2.66    1.25
  -6  -6   6   28.73    2.88
   6  -6  -6   21.55    2.22
  -6  -6   6   19.34    2.32
   6   6  -6   25.34    3.19
  -6   6   6   17.90    3.32
  -6   6   6   18.78    1.85
  -5  -6   6   50.97    3.77
   5  -6  -6   44.71    2.96
  -5  -6   6   52.55    3.12
  -5   6   6   50.09    2.67
  -5   6   6   55.00    4.62
   4  -6  -6   36.33    3.07
  -4  -6   6   35.54    2.65
  -4   6   6   38.77    3.96
   4   6  -6   42.31    3.62
  -4   6   6   42.23    2.25
  -3  -6   6    4.17    1.34
  -3   6   6    7.15    2.55
  -3   6   6    3.35    0.90
   3   6  -6    5.88    2.13
   2  -6  -6   -0.20    1.52
  -2  -6   6    0.39    1.10
  -2   6   6    0.54    1.80
   2   6  -6    2.74    1.96
  -1  -6   6   14.69    1.90
   1  -6  -6   10.78    2.07
   1  -6  -6   13.19    1.46
   1   6  -6   13.37    2.79
  -1   6   6    6.76    2.16
   0  -6  -6   52.73    3.59
   0  -6  -6   54.93    2.85
   0  -6   6   48.80    3.11
   0   6  -6   58.26    4.41
   0   6   6   46.28    3.76
  -1  -6  -6   73.87    4.15
   1  -6   6   74.65    3.88
  -1   6  -6   75.91    4.97
  -1   6  -6   61.69    5.06
   1   6   6   72.63    4.25
  -2  -6  -6   60.43    3.87
   2  -6   6   60.91    3.90
  -2  -6  -6   58.44    3.41
   2   6   6   60.01    3.74
  -3  -6  -6   54.65    3.88
   3  -6   6   57.98    3.45
  -3  -6  -6   60.13    3.58
   3   6   6   58.29    3.28
  -3   6  -6   52.98    4.29
  -3   6  -6   48.09    4.96
  -4  -6  -6   63.76    3.86
   4  -6   6   65.63    3.72
  -4  -6  -6   54.76    4.14
  -4   6  -6   53.92    5.30
   4   6   6   62.54    3.01
  -4   6  -6   63.23    4.63
   5  -6   6   29.37    2.47
  -5  -6  -6   28.38    3.00
  -5  -6  -6   29.10    3.44
  -5   6  -6   30.27    3.72
  -5   6  -6   26.32    3.46
  -5   6  -6   19.30    4.02
  -6  -6  -6   -0.60    2.32
   6  -6   6    1.45    1.54
  -6  -6  -6   -0.67    1.98
  -6   6  -6    2.26    3.53
  -6   6  -6    2.17    2.23
  -6   6  -6    1.54    2.33
   7  -6   6    0.95    1.68
  -7  -6  -6   -0.44    2.19
  -7  -6  -6    2.53    2.28
  -7   6  -6    0.84    2.20
  -7   6  -6    2.71    2.30
  -7   6  -6   -5.48    3.07
  -8  -6  -6    3.37    2.55
  -8  -6  -6    3.15    2.82
  -8   6  -6    1.92    2.40
  -8   6  -6    1.69    4.55
  -8   6  -6    0.11    2.51
  -8   6  -6   -1.29    3.70
  -9  -6  -6    2.56    2.90
  -9  -6  -6    5.91    2.96
  -9   6  -6   -3.46    3.94
  -9   6  -6    5.80    6.00
  -9   6  -6    7.86    3.32
  -9   6  -6    3.62    2.41
 -10  -6  -6    6.72    5.29
 -10  -6  -6    0.95    2.84
 -10   6  -6    1.79    2.77
 -10   6  -6    7.70    5.30
 -10   6  -6    6.17    5.70
 -11  -6  -6   -5.03    3.06
 -11  -6  -6   -0.05    3.00
 -11   6  -6    5.51    5.26
 -11   6  -6    5.65    5.14
 -12  -6  -6   -0.63    3.23
 -12  -6  -6    0.88    3.02
 -12   6  -6    1.65    5.41
 -12   6  -6    5.74    3.44
 -12   6  -6   -3.75    5.25
 -14  -7   6   -0.82    2.39
 -14  -7   6    1.12    2.74
 -14  -7   6    1.17    2.59
 -14   7   6    0.74    3.49
 -13  -7   6   -0.68    2.68
 -13  -7   6    3.38    2.09
 -13  -7   6    2.66    2.82
 -13   7   6   -3.67    3.14
 -12  -7   6    1.44    2.42
 -12  -7   6    0.94    1.64
 -12   7   6    2.81    3.58
 -11  -7   6   -2.34    2.24
 -11  -7   6    3.72    1.88
 -11   7   6    1.14    2.89
 -11   7   6   -0.26    2.42
 -10  -7   6    2.18    2.35
 -10  -7   6   -2.26    1.54
 -10   7   6   -0.91    1.96
 -10   7   6   -1.15    2.87
  -9  -7   6    1.22    1.42
  -9  -7   6    2.65    2.37
  -9   7   6   -2.06    1.72
  -9   7   6    3.98    3.09
  -8  -7   6   -0.10    2.02
  -8  -7   6   -1.80    1.08
  -8   7   6   -3.60    2.51
  -8   7   6    0.64    1.54
  -7  -7   6    0.67    1.29
  -7  -7   6   -2.08    1.69
  -7   7   6    0.22    2.46
  -7   7   6   -1.44    1.22
   7   7  -6   -1.93    1.48
  -6  -7   6    3.44    1.47
  -6  -7   6   -0.07    1.81
   6   7  -6    0.98    1.81
  -6   7   6    3.10    2.44
   5  -7  -6   -0.71    1.42
  -5  -7   6    3.75    2.14
  -5   7   6    0.78    0.96
   5   7  -6    0.06    1.99
  -5   7   6    5.81    2.83
   4  -7  -6   -1.65    1.59
  -4   7   6   -0.54    2.39
  -4   7   6    0.25    0.94
   4   7  -6    1.04    1.84
   3  -7  -6    1.55    1.78
   3   7  -6    1.49    1.99
  -3   7   6    0.18    1.97
  -3   7   6    0.70    0.94
   2  -7  -6    0.14    1.52
  -2   7   6    0.50    1.92
   2   7  -6    1.21    2.02
   1  -7  -6    0.13    0.95
  -1  -7   6   -0.55    1.18
   1  -7  -6    1.89    1.77
   1   7  -6   -0.36    2.10
  -1   7   6    4.67    2.12
   0  -7   6   17.11    2.25
   0  -7  -6   14.20    1.69
   0  -7  -6   18.36    2.56
   0   7   6   12.92    2.67
   0   7  -6   14.45    3.14
  -1  -7  -6   22.67    2.24
   1  -7   6   22.38    2.63
  -1  -7  -6   26.95    3.18
   1   7   6   21.36    2.90
  -1   7  -6   31.95    3.92
  -1   7  -6   23.35    3.31
  -2  -7  -6    4.76    1.68
   2  -7   6    2.23    1.49
   2   7   6    3.27    1.65
  -2   7  -6    2.55    2.13
  -2   7  -6    6.65    2.98
  -3  -7  -6   10.24    2.43
  -3  -7  -6    8.42    1.95
   3  -7   6    8.22    1.92
  -3   7  -6    1.85    2.10
   3   7   6    4.74    2.12
  -3   7  -6    5.20    2.92
   4  -7   6   16.61    2.41
  -4  -7  -6   13.66    2.46
  -4  -7  -6   12.89    2.69
   4   7   6    8.85    1.43
  -4   7  -6    9.57    3.55
  -4   7  -6   17.30    3.23
  -5  -7  -6    6.33    2.43
   5  -7   6    2.21    1.67
  -5  -7  -6    5.66    2.38
  -5   7  -6    2.01    3.21
  -5   7  -6    0.23    2.11
  -6  -7  -6   -1.13    1.97
   6  -7   6    1.35    1.73
  -6  -7  -6   -0.15    2.09
  -6   7  -6    0.48    3.31
  -6   7  -6    0.71    2.56
  -7  -7  -6    1.55    2.26
   7  -7   6    1.41    1.83
  -7  -7  -6    2.04    2.66
  -7   7  -6    1.49    4.02
  -7   7  -6   -1.22    2.25
  -8  -7  -6   -1.76    2.37
  -8   7  -6   -4.39    4.67
  -8   7  -6   -0.20    2.47
  -9  -7  -6    0.97    3.50
  -9  -7  -6    0.58    2.73
   9  -7   6   -1.43    2.03
  -9   7  -6   -1.19    4.28
  -9   7  -6   -3.43    4.05
 -10  -7  -6   -1.16    3.03
 -10  -7  -6    0.12    3.06
 -10   7  -6   -6.33    4.15
 -10   7  -6   -1.53    2.60
 -11  -7  -6    2.39    3.56
 -11  -7  -6    5.14    3.64
 -11   7  -6   -4.10    2.94
 -11   7  -6    0.78    5.20
 -12  -8   6   -1.76    2.84
 -12  -8   6    0.91    2.55
 -12  -8   6    1.27    1.75
 -12   8   6   -0.57    3.43
 -11  -8   6    2.99    2.68
 -11  -8   6    1.44    1.81
 -11   8   6   -0.01    3.01
 -10  -8   6   -0.94    1.57
 -10  -8   6   -0.16    2.35
 -10   8   6    3.04    3.06
  -9  -8   6    0.95    2.41
  -9  -8   6    0.89    1.70
  -9   8   6    6.67    4.99
  -8  -8   6    6.05    1.66
  -8  -8   6    6.13    2.59
  -8   8   6    7.06    3.46
  -8   8   6    4.47    1.89
  -7  -8   6   16.49    3.28
  -7  -8   6   12.58    2.18
  -7   8   6   11.27    2.04
   7   8  -6   14.02    3.22
  -7   8   6    5.04    3.18
  -6  -8   6    6.91    2.61
  -6  -8   6    7.21    1.83
   6   8  -6    9.73    2.80
  -6   8   6    5.60    2.90
  -6   8   6    6.78    1.65
  -5  -8   6    3.79    2.39
  -5  -8   6    7.44    1.70
  -5   8   6    6.76    3.19
   5   8  -6    3.59    2.22
  -5   8   6    4.82    1.47
  -4  -8   6    6.31    1.89
   4  -8  -6    9.50    3.16
  -4  -8   6   11.58    2.83
  -4   8   6    3.47    2.76
   4   8  -6   10.11    2.87
  -4   8   6    8.14    1.58
  -3  -8   6   32.38    2.76
   3  -8  -6   29.99    2.90
  -3   8   6   35.65    4.61
   3   8  -6   27.75    3.99
  -3   8   6   32.20    2.49
  -2  -8   6   50.01    3.45
   2  -8  -6   51.29    3.58
   2   8  -6   46.25    4.63
  -2   8   6   57.30    5.06
  -1  -8   6   25.10    2.85
   1  -8  -6   30.45    2.08
   1  -8  -6   32.79    3.12
  -1   8   6   36.90    4.29
   1   8  -6   29.89    4.11
   0  -8   6   11.26    2.04
   0  -8  -6   11.17    2.42
   0   8   6    6.09    2.40
   0   8  -6   11.68    2.97
  -1  -8  -6    1.52    2.03
   1  -8   6    4.65    1.78
  -1  -8  -6    4.84    1.52
   1   8   6    4.11    1.97
  -1   8  -6    1.92    2.59
  -1   8  -6    8.66    2.53
  -2  -8  -6    3.30    2.18
  -2  -8  -6    6.21    1.85
   2  -8   6    4.58    1.82
  -2   8  -6    7.11    2.63
   2   8   6    5.08    1.94
  -2   8  -6    2.36    2.72
   3  -8   6    3.47    1.96
  -3  -8  -6    3.24    1.86
  -3  -8  -6    3.03    2.21
  -3   8  -6    2.52    3.16
  -3   8  -6    1.50    2.30
   3   8   6    3.71    1.73
  -4  -8  -6    0.57    2.11
  -4  -8  -6    2.98    2.38
   4  -8   6    4.15    1.87
  -4   8  -6    2.35    2.36
  -4   8  -6    5.08    3.48
  -5  -8  -6    4.29    2.77
   5  -8   6    5.39    2.15
  -5  -8  -6    2.67    2.30
  -5   8  -6    4.20    3.74
  -5   8  -6    6.31    3.07
   6  -8   6   21.48    3.64
  -6  -8  -6   12.02    3.03
  -6  -8  -6   16.70    3.60
  -6   8  -6    6.24    3.44
  -6   8  -6    6.18    4.79
   7  -8   6    9.19    2.80
  -7  -8  -6   16.21    3.53
  -7  -8  -6   12.36    3.27
  -7   8  -6   16.69    3.80
  -7   8  -6   14.91    4.82
  -8  -8  -6    3.83    3.02
  -8  -8  -6    5.76    3.33
   8  -8   6    3.70    2.79
  -8   8  -6   -1.34    4.25
  -8   8  -6    5.33    3.53
  -9  -8  -6   -1.98    2.99
  -9  -8  -6   -3.22    2.69
   9  -8   6   -1.62    2.25
  -9   8  -6   -3.95    4.71
  -9   8  -6    0.42    3.11
 -10  -8  -6    0.97    3.08
  10  -8   6    2.17    2.49
 -10  -8  -6   -2.24    3.05
 -10   8  -6   -0.33    3.10
 -10   8  -6    3.50    5.22
 -11  -9   6   -1.04    2.55
 -11  -9   6    0.16    1.78
 -11  -9   6   -2.84    2.54
 -11   9   6   -3.30    3.73
 -10  -9   6   -3.10    2.43
 -10  -9   6    0.65    1.72
 -10   9   6   -0.02    3.35
  -9  -9   6   -3.30    2.19
  -9  -9   6    2.02    1.67
  -9   9   6   -0.05    3.32
  -8  -9   6    0.90    1.57
  -8  -9   6   -2.03    2.18
  -8   9   6   -0.23    2.83
  -7  -9   6   -0.21    2.22
  -7  -9   6   -0.09    1.53
   7   9  -6    3.52    2.48
  -7   9   6    2.39    2.89
  -6  -9   6   -1.18    1.41
  -6   9   6   -2.47    2.41
   6   9  -6    0.59    2.16
  -5  -9   6   -1.33    2.11
  -5  -9   6   -2.35    1.36
   5   9  -6    3.28    2.92
  -5   9   6    2.51    1.56
  -5   9   6   -0.20    3.05
  -4  -9   6   -0.97    1.20
  -4  -9   6    1.90    2.24
  -4   9   6    0.00    1.32
  -4   9   6    0.48    2.47
   4   9  -6    0.06    2.36
  -3  -9   6    1.33    1.57
   3  -9  -6    5.26    2.05
  -3  -9   6   -1.60    1.77
   3   9  -6    0.26    2.16
  -3   9   6   -0.81    2.54
  -3   9   6   -0.78    1.25
  -2  -9   6   -0.57    1.28
   2  -9  -6    3.29    2.04
   2   9  -6   -0.28    2.22
  -2   9   6   -2.21    2.55
  -1  -9   6    1.05    1.54
   1  -9  -6    3.49    2.20
  -1   9   6    2.23    2.45
   1   9  -6    1.70    2.54
   0  -9   6    7.50    2.02
   0  -9  -6    4.88    2.28
   0   9  -6    0.21    2.74
   0   9   6    3.66    2.39
  -1  -9  -6    5.58    1.73
  -1  -9  -6    6.22    2.28
   1  -9   6    5.52    1.93
   1   9   6    5.72    2.34
  -1   9  -6    8.46    3.30
  -1   9  -6   11.54    3.11
  -2  -9  -6    0.75    2.07
  -2  -9  -6   -3.11    1.65
   2  -9   6    0.90    1.66
   2   9   6   -0.64    1.90
  -2   9  -6   -1.71    2.26
  -2   9  -6    5.36    3.27
   3  -9   6    0.01    1.58
  -3  -9  -6    0.04    2.47
   3   9   6    3.31    2.98
  -4  -9  -6    4.32    2.23
  -4  -9  -6    3.50    2.58
  -4   9  -6    3.16    2.58
  -4   9  -6   -0.62    3.40
   5  -9   6   -1.32    1.83
  -5  -9  -6    0.40    2.22
  -5   9  -6    0.67    2.70
  -5   9  -6    2.22    3.38
  -6  -9  -6    0.92    2.54
  -6  -9  -6    3.14    2.72
   6  -9   6    0.15    1.97
  -6   9  -6    2.89    2.87
  -6   9  -6    2.29    3.89
   7  -9   6   -0.37    1.83
  -7  -9  -6    1.87    2.80
  -7   9  -6    0.16    2.80
  -7   9  -6    7.58    4.69
   8  -9   6   -2.81    2.12
  -8  -9  -6    4.54    3.35
  -8  -9  -6   -0.75    2.74
  -8   9  -6    2.09    3.00
  -8   9  -6    5.21    5.21
  -8 -10   6   -2.68    2.47
  -8 -10   6   -0.46    1.78
  -8  10   6    5.37    4.05
  -7 -10   6   -0.46    2.33
  -7 -10   6    6.73    1.92
   7  10  -6    3.77    2.81
  -7  10   6    1.40    3.75
  -6 -10   6    3.57    1.83
  -6 -10   6    2.36    2.53
   6  10  -6    2.77    2.70
  -6  10   6    2.71    3.54
  -5 -10   6    6.90    3.02
  -5 -10   6    7.69    2.24
  -5  10   6   14.56    4.08
   5  10  -6    4.63    2.95
  -4 -10   6    6.05    2.12
  -4 -10   6   10.23    2.93
   4  10  -6    6.82    2.90
  -3 -10   6    2.38    1.80
  -3 -10   6    2.30    2.41
  -3  10   6    3.45    3.21
   3  10  -6    2.60    3.07
  -2 -10   6    2.04    1.81
  -2  10   6    1.43    2.81
   2  10  -6    3.68    2.94
  -1 -10   6    2.05    1.61
   1 -10  -6    2.91    2.14
   1  10  -6    4.41    3.27
  -1  10   6    5.03    2.79
   0 -10  -6    5.64    2.71
   0 -10   6    6.78    2.32
   0  10  -6    5.67    3.31
   0  10   6    6.89    2.75
  -1 -10  -6   12.23    2.88
   1  10   6   14.14    3.10
  -1  10  -6    2.27    3.30
  -2 -10  -6    7.22    2.61
   2 -10   6    4.94    2.16
  -2  10  -6   12.81    3.79
  -2  10  -6    1.88    2.99
  -3 -10  -6   10.34    2.73
   3 -10   6    7.34    2.30
  -3  10  -6   11.45    4.07
  -3  10  -6    6.00    3.11
   4 -10   6    4.49    2.27
  -4 -10  -6    6.10    2.65
  -4 -10  -6    8.44    2.91
  -4  10  -6    6.63    3.84
  -4  10  -6   13.59    4.07
  -5 -10  -6   -1.16    2.51
   5 -10   6    3.98    2.35
  -5 -10  -6    4.83    3.12
  -5  10  -6    4.95    4.06
  -5  10  -6    5.44    3.35
  -6 -10  -6   -0.66    3.11
   6 -10   6    3.42    2.50
  -6  10  -6    3.14    4.15
  -6  10  -6   -0.78    3.11
  -4 -11   6   -5.70    1.73
  -4 -11   6    1.22    1.81
   4  11  -6    4.63    3.12
  -4  11   6    0.65    3.40
  -3 -11   6   -3.67    1.25
  -3 -11   6   -1.38    1.92
  -3  11   6   -2.78    2.88
   3  11  -6    1.36    2.94
  -2 -11   6   -0.56    2.11
  -2 -11   6   -4.36    1.60
   2  11  -6   -2.77    2.64
  -2  11   6    1.37    2.94
  -1 -11   6    1.04    2.48
  -1 -11   6    0.00    1.67
   1  11  -6   -3.56    2.43
   0 -11   6   -0.91    1.70
   0 -11  -6    1.09    2.57
   0 -11   6    0.28    2.04
   0  11   6    5.34    2.90
   0  11  -6    0.61    3.06
   1 -11   6    0.88    1.75
  -1  11  -6    1.96    3.54
   1  11   6    2.03    3.05
   2 -11   6   -0.74    1.96
  -2 -11  -6    1.03    2.56
  -2  11  -6    0.71    3.45
 -17   0   7   -0.08    4.58
 -17   0   7    2.88    2.78
 -17   0   7    1.12    2.77
 -16   0   7    2.69    2.64
 -16   0   7    0.60    3.18
 -16   0   7    4.73    2.99
 -16   0   7    7.80    2.34
 -15   0   7    9.32    3.47
 -15   0   7   -0.75    2.25
 -15   0   7    1.05    2.30
 -14   0   7    2.62    2.05
 -14   0   7   -1.09    2.62
 -14   0   7    1.74    2.15
 -14   0   7    2.26    1.72
 -13   0   7   -0.11    1.79
 -13   0   7    4.93    1.85
 -13   0   7    7.09    3.06
 -12   0   7    2.12    1.57
 -12   0   7    7.13    2.68
 -12   0   7    1.68    1.77
 -11   0   7   -0.74    2.16
 -11   0   7   -0.14    1.22
 -11   0   7   -1.69    1.41
 -10   0   7   -0.21    1.17
  -9   0   7    9.08    1.86
  -9   0   7    6.19    1.42
  -8   0   7   94.18    4.70
  -8   0   7   99.77    4.40
  -7   0   7  204.03    7.93
  -7   0   7  202.20    7.62
  -6   0   7  101.69    4.27
   6   0  -7  104.90    4.85
  -6   0   7  103.26    4.57
  -5   0   7   29.13    2.02
   5   0  -7   25.65    2.42
  -4   0   7   20.02    1.61
   3   0  -7   46.17    2.15
  -2   0   7   87.14    3.64
   2   0  -7   87.73    3.51
   1   0  -7   19.65    2.90
   1   0  -7   20.62    1.71
   1   0  -7   22.26    2.60
  -1   0   7   18.35    1.35
   0   0  -7   23.09    2.00
   0   0  -7   15.91    2.48
   0   0   7   18.71    1.36
   0   0  -7   18.54    3.06
  -1   0  -7   55.34    3.27
  -1   0  -7   45.96    3.96
   1   0   7   51.05    2.36
   2   0   7   59.17    2.57
  -2   0  -7   47.23    4.18
  -2   0  -7   55.96    4.10
  -2   0  -7   55.28    3.82
  -3   0  -7   23.57    3.58
  -3   0  -7   21.32    3.46
   3   0   7   22.36    1.53
  -4   0  -7    6.62    3.03
   4   0   7    6.44    1.07
  -4   0  -7    5.80    2.89
   5   0   7   33.70    1.89
  -5   0  -7   45.55    4.27
  -5   0  -7   28.97    3.85
   6   0   7  101.10    4.14
  -6   0  -7  109.47    6.47
  -7   0  -7   78.60    5.86
  -7   0  -7   77.29    5.50
   7   0   7   97.22    3.85
  -8   0  -7   20.52    3.73
  -8   0  -7   11.61    3.68
  -9   0  -7    0.78    3.08
  -9   0  -7    3.06    3.49
 -10   0  -7    0.63    3.26
 -10   0  -7    1.29    3.64
 -11   0  -7    8.90    4.45
 -11   0  -7    2.22    4.10
 -12   0  -7    1.87    3.71
 -13   0  -7    2.81    4.54
 -13   0  -7   -5.24    4.17
 -14   0  -7    3.15    4.91
 -17  -1   7    1.24    2.22
 -17  -1   7    5.74    3.16
 -17  -1   7    1.99    3.50
 -17  -1   7   -0.86    2.53
 -17   1   7   -0.06    2.85
 -17   1   7   -1.03    3.01
 -17   1   7    3.17    3.45
 -16  -1   7   -1.43    2.52
 -16  -1   7   -2.67    2.17
 -16  -1   7   -1.33    2.61
 -16  -1   7    0.04    2.14
 -16   1   7   -1.31    2.79
 -16   1   7   -1.52    3.20
 -16   1   7   -0.30    2.33
 -15  -1   7   -3.12    2.04
 -15  -1   7   -1.30    1.93
 -15  -1   7    0.57    2.82
 -15   1   7    2.34    2.51
 -15   1   7    1.86    3.18
 -15   1   7    4.29    2.86
 -15   1   7    1.93    2.38
 -14  -1   7    0.29    1.97
 -14  -1   7   -0.32    2.17
 -14  -1   7    0.00    2.77
 -14   1   7    2.05    2.10
 -14   1   7   -1.17    2.84
 -14   1   7   -0.48    1.99
 -14   1   7    0.90    1.57
 -13  -1   7    3.09    2.02
 -13  -1   7    8.43    2.30
 -13  -1   7    3.05    2.43
 -13   1   7    7.39    2.31
 -13   1   7    2.67    1.94
 -13   1   7    1.39    2.48
 -12  -1   7    2.29    1.55
 -12  -1   7    1.44    1.65
 -12   1   7   -2.13    1.33
 -12   1   7   -1.18    1.70
 -12   1   7    0.41    2.30
 -11  -1   7    0.77    1.53
 -11  -1   7    1.16    1.60
 -11   1   7    2.66    1.28
 -11   1   7    1.59    2.11
 -11   1   7    0.87    1.30
 -10  -1   7   13.67    2.09
 -10   1   7    6.17    1.42
 -10   1   7   10.50    2.68
  -9  -1   7    6.91    1.58
  -9  -1   7    7.33    1.64
  -9   1   7    8.47    1.89
  -9   1   7    8.21    1.36
  -9   1   7    6.03    2.15
  -8  -1   7    4.42    1.50
  -8  -1   7    5.63    1.42
  -8   1   7    4.86    1.54
  -8   1   7    6.22    1.15
  -7  -1   7    5.34    1.46
  -7  -1   7    8.78    1.60
  -7   1   7    7.68    1.16
  -7   1   7    4.93    1.51
   6  -1  -7    3.95    1.57
  -6  -1   7    0.80    1.06
  -6   1   7    0.91    0.74
  -6   1   7   -0.04    1.01
  -5  -1   7   34.91    2.24
   5  -1  -7   32.03    2.59
  -5   1   7   32.12    2.23
   5   1  -7   35.58    2.87
  -5   1   7   34.60    2.12
   5   1  -7   33.95    2.11
  -4  -1   7   76.39    3.43
   4  -1  -7   71.25    3.90
  -4   1   7   74.25    3.12
   4   1  -7   70.06    3.98
  -4   1   7   76.30    3.47
   4   1  -7   71.20    3.29
  -3  -1   7   14.54    1.39
   3  -1  -7   13.36    2.29
   3   1  -7   10.82    1.98
  -3   1   7   10.93    1.34
   3   1  -7   14.46    1.51
   2  -1  -7   10.67    2.85
  -2  -1   7   12.59    1.39
   2  -1  -7   12.23    0.81
   2   1  -7   10.21    2.27
  -2   1   7   13.78    1.32
   2   1  -7   13.56    1.53
   1  -1  -7   20.82    3.24
   1  -1  -7   21.79    2.40
  -1   1   7   20.79    1.39
   1   1  -7   21.57    1.97
   1   1  -7   20.86    2.85
   0  -1  -7    6.73    2.21
   0  -1  -7    4.14    2.42
   0  -1  -7    6.32    1.39
   0   1  -7    7.46    2.06
   0   1  -7    9.24    2.33
   0   1  -7    7.53    1.57
   0   1   7    7.09    0.98
  -1  -1  -7   20.69    2.82
  -1  -1  -7   21.69    2.29
  -1  -1  -7   22.18    3.08
  -1   1  -7   25.70    2.70
  -1   1  -7   19.15    3.27
  -1   1  -7   20.96    3.07
   1   1   7   25.26    1.45
  -2  -1  -7    0.82    2.35
  -2  -1  -7    1.41    2.14
   2  -1   7    3.73    0.91
   2   1   7    2.51    0.70
  -2   1  -7    2.53    2.07
  -2   1  -7    2.32    1.96
  -2   1  -7    1.70    2.81
  -3  -1  -7   41.90    3.66
  -3  -1  -7   39.25    3.68
   3  -1   7   37.29    2.09
   3   1   7   41.91    1.93
  -3   1  -7   44.51    4.20
  -3   1  -7   41.51    3.67
  -3   1  -7   30.31    4.04
   4  -1   7   35.20    2.07
  -4  -1  -7   33.95    3.66
  -4  -1  -7   39.64    3.72
  -4   1  -7   35.51    3.69
  -4   1  -7   30.39    3.98
  -4   1  -7   26.46    3.64
   4   1   7   38.41    1.86
   5  -1   7    4.07    1.08
  -5  -1  -7    1.45    2.75
  -5  -1  -7    1.56    2.43
   5   1   7    1.58    0.77
  -5   1  -7   -1.08    3.19
  -5   1  -7    4.14    3.16
  -5   1  -7    4.17    2.86
  -6  -1  -7    3.05    2.62
   6  -1   7   -0.03    0.78
  -6  -1  -7    0.50    2.67
  -6   1  -7    3.02    3.01
  -6   1  -7    0.69    3.02
  -6   1  -7   -0.78    3.14
   6   1   7    1.54    0.78
  -7  -1  -7   -0.81    2.39
  -7  -1  -7    3.33    2.89
  -7   1  -7   -2.78    3.00
  -7   1  -7   -0.10    3.15
  -7   1  -7    3.88    3.33
   7   1   7   -0.60    0.69
  -8  -1  -7    0.02    2.81
  -8   1  -7   -3.37    3.01
  -8   1  -7    1.26    3.70
  -8   1  -7   -3.63    3.17
   8   1   7    0.03    0.87
  -9  -1  -7    6.91    3.23
  -9  -1  -7    1.49    3.11
  -9   1  -7    5.44    3.82
 -10  -1  -7    7.76    3.64
 -10  -1  -7    8.49    3.80
 -10   1  -7    5.64    4.13
 -10   1  -7    2.15    3.98
 -11  -1  -7   -1.26    3.13
 -11  -1  -7    0.65    3.75
 -11   1  -7    8.16    4.43
 -11   1  -7   -0.78    3.83
 -12  -1  -7   -4.58    3.41
 -12   1  -7   -7.28    3.59
 -13  -1  -7    0.74    4.38
 -13  -1  -7   -2.61    4.08
 -13   1  -7    7.06    4.62
 -13   1  -7   -7.52    4.17
 -13   1  -7    0.80    4.70
 -14  -1  -7   -2.25    4.47
 -14  -1  -7    9.18    4.70
 -14   1  -7   -4.03    4.62
 -14   1  -7    0.00    4.41
 -14   1  -7   11.86    5.59
 -17  -2   7   -5.57    2.36
 -17  -2   7   -4.60    2.71
 -17  -2   7    1.29    2.95
 -17   2   7   -4.29    2.32
 -17   2   7    0.88    3.56
 -16  -2   7    0.30    2.27
 -16  -2   7    1.99    2.76
 -16  -2   7    0.69    2.10
 -16   2   7    2.04    2.90
 -16   2   7    2.46    2.54
 -15  -2   7   -2.11    2.40
 -15  -2   7   -0.40    2.08
 -15  -2   7    0.84    2.46
 -15   2   7    2.36    2.61
 -15   2   7    2.48    2.88
 -15   2   7    0.64    3.17
 -14  -2   7   -0.23    2.35
 -14  -2   7   -1.42    1.99
 -14  -2   7    1.26    2.10
 -14   2   7    0.82    2.21
 -14   2   7   -0.48    2.20
 -14   2   7    1.95    2.67
 -13  -2   7    3.24    2.06
 -13  -2   7    1.00    1.95
 -13   2   7    0.94    2.54
 -13   2   7    1.61    1.96
 -13   2   7   -0.97    2.02
 -12  -2   7    7.75    2.18
 -12  -2   7    8.02    2.19
 -12   2   7    7.82    2.13
 -12   2   7    6.88    1.81
 -12   2   7    3.64    2.61
 -11  -2   7   23.89    2.94
 -11  -2   7   31.18    2.82
 -11   2   7   28.78    3.32
 -11   2   7   19.63    3.51
 -10  -2   7   54.12    3.44
 -10   2   7   47.56    3.74
 -10   2   7   48.10    2.86
  -9  -2   7   24.60    2.42
  -9  -2   7   27.39    2.45
  -9   2   7   28.70    2.72
  -9   2   7   23.53    1.79
  -9   2   7   23.73    3.22
  -8  -2   7    1.56    1.22
  -8  -2   7    1.55    1.27
  -8   2   7    1.57    1.40
  -8   2   7    0.92    0.77
  -8   2   7    0.47    1.69
  -7  -2   7    5.62    1.42
  -7  -2   7    9.19    1.71
   7  -2  -7    3.45    1.33
  -7   2   7    5.41    0.85
  -7   2   7    6.38    1.60
  -7   2   7    8.42    2.27
   6  -2  -7    8.54    1.63
  -6  -2   7    6.78    1.48
  -6   2   7    6.76    0.74
   6   2  -7    7.84    1.47
  -6   2   7   10.97    1.75
  -6   2   7    8.64    0.88
  -5  -2   7   70.90    3.44
   5  -2  -7   69.21    3.64
  -5   2   7   71.83    3.53
   5   2  -7   71.33    3.63
  -5   2   7   68.89    2.73
  -4  -2   7  102.53    4.35
   4  -2  -7  100.97    4.77
   4   2  -7  100.07    5.08
   4   2  -7  100.53    4.43
  -4   2   7   97.89    4.34
  -3  -2   7   68.48    3.24
   3  -2  -7   65.59    4.04
  -3   2   7   70.63    3.26
   3   2  -7   68.48    4.06
   3   2  -7   67.14    3.49
  -2  -2   7   66.38    3.18
   2  -2  -7   67.49    3.32
   2  -2  -7   57.56    4.52
   2   2  -7   68.84    3.63
  -2   2   7   72.32    3.11
   2   2  -7   70.81    4.14
   1  -2  -7  138.36    4.97
   1  -2  -7  133.35    6.44
  -1  -2   7  148.44    5.67
   1  -2  -7  143.21    5.89
   1   2  -7  153.93    6.22
  -1   2   7  151.14    5.43
   1   2  -7  146.69    6.59
   0  -2   7  137.41    5.48
   0  -2  -7  134.27    5.95
   0  -2  -7  137.30    6.35
   0   2   7  144.33    5.16
   0   2  -7  143.52    6.60
   0   2  -7  143.41    6.15
  -1  -2  -7   64.35    4.11
  -1  -2  -7   60.60    3.86
   1  -2   7   62.80    2.99
  -1   2  -7   65.44    3.99
  -1   2  -7   62.38    4.43
  -1   2  -7   62.23    4.41
   1   2   7   59.27    2.56
  -2  -2  -7   32.11    2.94
   2  -2   7   42.12    2.29
  -2  -2  -7   35.45    3.13
  -2   2  -7   38.25    3.57
  -2   2  -7   42.06    4.12
  -2   2  -7   45.83    4.18
   2   2   7   40.86    1.86
  -3  -2  -7   70.39    4.39
   3  -2   7   67.76    3.21
  -3  -2  -7   77.30    4.38
  -3   2  -7   71.73    5.17
  -3   2  -7   60.63    5.04
  -3   2  -7   73.97    4.83
   3   2   7   70.79    2.79
   4  -2   7   84.98    3.73
  -4  -2  -7   88.31    4.97
  -4  -2  -7   83.59    4.95
  -4   2  -7   86.82    5.61
  -4   2  -7   88.36    5.82
  -4   2  -7   86.82    5.85
   4   2   7   83.59    3.25
  -5  -2  -7   18.33    3.00
  -5  -2  -7   23.73    3.33
   5  -2   7   20.52    1.70
  -5   2  -7   17.46    3.45
   5   2   7   19.94    1.25
  -5   2  -7   18.33    3.55
  -5   2  -7   18.37    4.06
   6  -2   7    1.46    0.98
  -6  -2  -7    3.06    2.30
  -6  -2  -7   -2.22    2.23
  -6   2  -7    1.32    3.49
   6   2   7    1.37    0.63
  -6   2  -7    0.45    3.04
  -6   2  -7    3.97    3.49
  -7  -2  -7    3.99    3.10
  -7   2  -7   -1.10    3.11
   7   2   7    5.19    0.87
  -7   2  -7    2.62    3.55
  -8  -2  -7    3.61    2.93
  -8  -2  -7    0.63    2.47
  -8   2  -7    0.93    3.51
  -8   2  -7    1.64    3.96
  -8   2  -7    2.50    3.97
   8   2   7    5.08    0.97
  -9  -2  -7   13.93    3.65
  -9  -2  -7   15.72    3.42
  -9   2  -7    8.52    4.25
  -9   2  -7   15.90    4.68
   9   2   7   19.21    1.79
  -9   2  -7   13.75    4.72
 -10  -2  -7    9.92    3.74
 -10  -2  -7    6.55    3.17
 -10   2  -7   13.94    4.65
  10   2   7   13.75    1.63
 -10   2  -7    7.29    5.43
 -10   2  -7    3.55    4.68
 -11  -2  -7    6.06    3.45
 -11  -2  -7   -2.86    3.45
 -11   2  -7   -2.64    4.59
 -11   2  -7    0.59    4.27
 -11   2  -7    8.37    4.96
  11   2   7    2.52    1.29
 -12  -2  -7   -3.07    3.60
 -12  -2  -7    1.71    3.38
  12   2   7    2.61    2.42
 -12   2  -7   -0.49    4.70
 -12   2  -7   -0.85    4.48
 -13  -2  -7    4.55    4.34
 -13  -2  -7    0.88    3.58
 -13   2  -7  -11.67    4.27
 -13   2  -7   -2.57    4.73
 -13   2  -7    3.42    4.82
 -14  -2  -7   -1.60    4.16
 -14  -2  -7    6.67    4.83
 -14   2  -7    7.43    6.11
 -14   2  -7   -4.75    4.87
 -14   2  -7    2.57    4.63
 -16  -3   7    1.54    2.72
 -16  -3   7    0.30    2.28
 -16  -3   7   -2.00    2.12
 -16  -3   7    1.08    2.45
 -16   3   7    2.64    4.00
 -16   3   7    3.68    2.81
 -16   3   7    2.66    3.25
 -15  -3   7    1.95    2.16
 -15  -3   7    0.05    2.49
 -15   3   7    2.49    5.70
 -15   3   7    0.49    2.22
 -14  -3   7    2.24    2.16
 -14  -3   7   -1.37    2.06
 -14  -3   7   -1.28    2.40
 -14   3   7    5.11    3.19
 -13  -3   7   -0.74    2.24
 -13  -3   7    0.86    2.16
 -13   3   7    8.47    3.51
 -13   3   7    1.88    2.30
 -12  -3   7   -0.07    1.70
 -12  -3   7    0.83    1.54
 -12   3   7    3.80    2.69
 -12   3   7   -3.48    1.75
 -12   3   7   -2.73    1.79
 -11  -3   7    1.11    1.73
 -11  -3   7    3.12    1.76
 -11   3   7   -0.82    2.26
 -11   3   7   -1.08    1.78
 -11   3   7    0.39    1.63
 -10  -3   7    5.43    1.73
 -10   3   7    5.01    2.45
 -10   3   7    2.88    1.60
 -10   3   7    7.67    2.21
  -9  -3   7    4.88    1.76
  -9  -3   7    2.23    1.46
  -9   3   7   10.05    2.23
  -9   3   7    6.20    2.09
  -8  -3   7    3.92    1.61
  -8  -3   7    2.55    1.35
  -8   3   7    0.71    2.06
  -8   3   7    1.84    0.91
  -8   3   7    2.44    1.55
  -8   3   7    1.77    1.62
  -7  -3   7    3.97    1.64
  -7  -3   7    4.18    1.31
   7  -3  -7    2.98    1.18
  -7   3   7    4.10    2.06
  -7   3   7    6.76    1.79
  -7   3   7    3.81    1.34
   6  -3  -7    1.34    1.33
  -6  -3   7    0.32    1.06
   6   3  -7    0.31    1.28
  -6   3   7    0.70    1.70
  -6   3   7    0.54    0.45
  -6   3   7    1.21    1.39
   5  -3  -7   23.92    2.49
  -5  -3   7   26.97    2.07
  -5   3   7   27.38    3.26
  -5   3   7   27.09    2.27
   5   3  -7   27.25    2.34
  -4  -3   7   52.41    2.79
   4  -3  -7   48.87    3.60
  -4   3   7   49.80    2.96
  -4   3   7   44.60    3.59
   4   3  -7   48.08    3.13
   3  -3  -7    7.17    2.53
  -3  -3   7    7.03    1.21
   3   3  -7    9.36    2.24
  -3   3   7    5.29    1.82
  -3   3   7    4.66    0.72
  -3   3   7    7.51    1.44
   3   3  -7    8.87    1.83
   2  -3  -7   12.28    2.77
   2  -3  -7   10.53    1.55
  -2  -3   7   15.06    1.71
  -2   3   7   12.85    1.53
   2   3  -7   11.50    2.40
  -2   3   7   11.25    2.18
   2   3  -7    9.81    1.90
   1  -3  -7   11.29    2.43
   1  -3  -7    7.21    1.79
  -1  -3   7   10.79    1.50
   1   3  -7   11.55    2.11
   1   3  -7   10.51    2.43
  -1   3   7   11.32    1.36
   0  -3  -7    7.46    1.98
   0  -3   7    7.67    1.33
   0  -3  -7    3.69    2.10
   0   3  -7   10.47    2.53
   0   3  -7    9.51    2.38
   0   3   7    7.40    1.07
  -1  -3  -7   18.09    2.67
   1  -3   7   23.81    1.84
  -1  -3  -7   19.31    2.52
  -1   3  -7   17.26    2.68
   1   3   7   20.21    1.38
  -1   3  -7   24.41    3.35
  -2  -3  -7    0.12    1.86
   2  -3   7    1.73    1.03
  -2  -3  -7    0.34    1.89
  -2   3  -7   -1.03    2.14
  -2   3  -7    1.81    2.80
  -2   3  -7    2.00    2.77
   3  -3   7   35.85    2.28
  -3  -3  -7   39.21    3.13
  -3  -3  -7   37.20    3.33
   3   3   7   36.66    2.51
   3   3   7   34.52    1.68
  -3   3  -7   29.62    3.76
  -3   3  -7   41.77    4.18
  -3   3  -7   21.51    3.97
  -4  -3  -7   29.92    3.03
  -4  -3  -7   21.77    3.00
   4  -3   7   28.00    2.00
  -4   3  -7   26.38    4.25
  -4   3  -7   22.30    3.60
  -4   3  -7   22.32    3.95
   4   3   7   24.14    1.20
   4   3   7   23.44    1.24
   4   3   7   30.38    1.95
   5  -3   7    2.41    1.14
  -5  -3  -7    0.52    1.49
  -5  -3  -7    3.57    2.28
  -5   3  -7   -0.07    2.86
  -5   3  -7    0.43    3.25
  -5   3  -7   -0.59    3.30
   6  -3   7   -0.04    1.03
  -6  -3  -7    0.11    2.56
  -6   3  -7    0.85    3.47
  -6   3  -7   -0.08    3.40
  -6   3  -7    3.70    3.13
  -6   3  -7    2.34    1.83
  -7  -3  -7   -2.73    2.47
  -7  -3  -7   -3.03    2.05
   7   3   7    0.52    0.47
  -7   3  -7    0.44    1.71
  -7   3  -7    3.45    3.71
  -7   3  -7    5.20    3.58
  -7   3  -7    2.55    3.85
  -8  -3  -7    2.37    2.50
  -8  -3  -7    1.61    2.70
   8   3   7    0.36    0.58
  -8   3  -7    0.05    1.61
  -8   3  -7    6.52    4.61
  -8   3  -7   -1.49    3.68
  -8   3  -7    0.64    4.10
  -9  -3  -7    4.05    2.82
  -9  -3  -7    1.23    2.94
  -9   3  -7    5.62    2.15
  -9   3  -7    3.28    4.44
  -9   3  -7   -0.84    3.90
   9   3   7    3.54    0.81
  -9   3  -7    3.97    4.08
 -10  -3  -7   -0.87    3.11
 -10  -3  -7    7.47    3.17
 -10   3  -7    3.94    2.72
 -10   3  -7   -6.83    4.80
 -10   3  -7    0.79    4.66
 -10   3  -7    3.70    4.33
 -11  -3  -7    2.80    3.09
 -11  -3  -7   -1.84    3.10
 -11   3  -7    1.41    4.79
 -11   3  -7    1.46    2.10
 -11   3  -7   -0.15    4.62
 -11   3  -7   -0.15    4.64
 -12  -3  -7   -0.19    4.08
 -12  -3  -7    1.96    3.88
 -12   3  -7    5.85    4.86
 -12   3  -7    8.20    5.26
 -12   3  -7    0.82    4.94
 -13  -3  -7   -0.29    3.41
 -13  -3  -7   -1.40    3.91
 -13   3  -7    1.45    5.35
 -13   3  -7    2.70    4.84
 -13   3  -7   -4.13    4.59
 -14  -3  -7   -0.27    3.77
 -14  -3  -7   -1.90    4.11
 -14   3  -7    6.83    5.05
 -14   3  -7   10.50    6.06
 -16  -4   7    0.78    2.13
 -16  -4   7    4.05    3.00
 -16  -4   7   -1.72    2.30
 -16   4   7    2.30    4.19
 -15  -4   7    3.85    2.58
 -15  -4   7    3.48    2.38
 -15  -4   7   -5.58    2.01
 -15  -4   7   -1.87    2.39
 -15   4   7   -0.33    3.48
 -15   4   7    0.41    3.41
 -14  -4   7   -1.07    2.03
 -14   4   7   -1.03    2.27
 -14   4   7   -3.39    3.40
 -13  -4   7    4.32    2.37
 -13  -4   7    1.77    1.95
 -13   4   7    3.58    3.24
 -13   4   7    1.09    2.83
 -13   4   7    0.90    2.33
 -12  -4   7    0.24    1.65
 -12  -4   7    1.56    2.20
 -12   4   7    0.64    2.63
 -12   4   7    2.18    2.18
 -12   4   7   -0.45    2.34
 -11  -4   7    0.77    1.46
 -11  -4   7   -1.16    1.60
 -11   4   7    1.31    2.56
 -11   4   7    4.69    2.14
 -11   4   7    2.61    2.33
 -10  -4   7    1.06    1.71
 -10  -4   7   -0.42    1.32
 -10   4   7   -0.01    1.82
 -10   4   7   -0.01    2.08
 -10   4   7   -1.22    2.80
  -9  -4   7    8.33    2.13
  -9   4   7    2.96    2.01
  -9   4   7    7.50    2.62
  -9   4   7    7.15    1.80
  -8  -4   7   60.78    4.41
  -8  -4   7   63.14    3.59
  -8   4   7   60.12    5.31
  -8   4   7   54.89    3.05
  -8   4   7   59.48    3.98
  -7  -4   7   94.28    4.74
   7  -4  -7   98.52    4.18
  -7  -4   7  109.64    5.38
  -7   4   7   94.35    4.72
  -7   4   7  105.22    5.42
   7   4  -7  109.43    5.36
  -7   4   7   99.60    6.14
  -6  -4   7   67.26    3.44
   6  -4  -7   62.60    3.23
   6   4  -7   68.93    3.98
  -6   4   7   51.75    2.18
  -6   4   7   66.02    4.77
  -6   4   7   55.49    3.66
  -5  -4   7   16.59    1.97
   5  -4  -7   17.56    2.35
   5   4  -7   16.53    2.33
  -5   4   7   15.65    2.75
  -5   4   7   15.08    2.13
  -4  -4   7   14.27    1.83
   4  -4  -7   19.88    2.70
  -4   4   7   18.38    2.25
  -4   4   7   15.67    2.67
   4   4  -7   18.94    2.48
  -3  -4   7   43.84    2.61
   3  -4  -7   34.71    3.89
   3   4  -7   41.02    3.21
  -3   4   7   30.82    3.38
  -3   4   7   43.37    2.66
   2  -4  -7   31.18    3.13
   2  -4  -7   32.59    2.46
  -2  -4   7   40.04    2.52
  -2   4   7   34.18    3.30
  -2   4   7   41.78    2.49
   2   4  -7   36.31    3.21
   2   4  -7   38.25    3.37
   1  -4  -7   18.00    2.62
   1  -4  -7   11.51    1.11
   1  -4  -7   15.31    1.90
  -1  -4   7   14.80    1.82
  -1   4   7   13.44    1.50
   1   4  -7   13.02    2.64
   1   4  -7   14.03    2.51
  -1   4   7   13.73    2.24
   0  -4  -7    9.97    1.87
   0  -4  -7    5.66    2.14
   0  -4   7    9.88    1.55
   0   4  -7    8.80    2.39
   0   4   7    7.61    1.08
   0   4  -7    6.14    2.39
   1  -4   7   40.93    2.51
  -1  -4  -7   34.70    3.11
  -1  -4  -7   34.00    2.79
  -1   4  -7   36.95    3.70
   1   4   7   39.07    2.96
   1   4   7   34.96    2.01
  -1   4  -7   38.53    3.73
   2  -4   7   40.04    2.57
  -2  -4  -7   43.10    2.98
  -2  -4  -7   38.36    3.34
   2   4   7   43.59    2.87
  -2   4  -7   46.29    4.13
  -2   4  -7   30.84    3.83
  -3  -4  -7   19.30    2.53
   3  -4   7   12.68    1.77
  -3  -4  -7   18.03    2.76
  -3   4  -7   14.47    3.56
  -3   4  -7   12.92    3.13
   3   4   7   14.11    1.78
   4  -4   7    6.55    1.42
  -4  -4  -7    3.24    2.04
  -4  -4  -7    4.13    2.08
  -4   4  -7    5.21    3.37
  -4   4  -7    7.86    2.06
  -4   4  -7    4.62    3.12
   4   4   7    4.47    1.08
  -4   4  -7    4.28    3.00
  -5  -4  -7   19.22    2.94
   5  -4   7   20.29    1.99
  -5   4  -7   14.94    3.77
  -5   4  -7   15.54    4.15
  -5   4  -7   18.15    2.68
  -5   4  -7   13.69    3.70
  -6  -4  -7   69.30    4.62
  -6  -4  -7   66.16    4.62
   6  -4   7   70.49    3.71
  -6   4  -7   41.24    5.82
  -6   4  -7   66.02    4.69
  -6   4  -7   63.59    5.84
   7  -4   7   58.16    3.47
  -7  -4  -7   65.69    4.60
  -7  -4  -7   52.47    4.45
  -7   4  -7   38.10    5.36
  -7   4  -7   39.23    5.42
  -7   4  -7   46.81    6.17
  -8  -4  -7   19.56    3.44
  -8  -4  -7   12.24    3.12
  -8   4  -7   10.08    4.34
  -8   4  -7    9.07    4.72
  -8   4  -7   11.88    5.01
  -8   4  -7   13.47    2.66
  -9  -4  -7   -0.15    2.76
  -9  -4  -7    1.12    2.74
  -9   4  -7   -2.21    3.73
  -9   4  -7   -1.33    2.10
  -9   4  -7   -5.57    4.14
  -9   4  -7   -1.88    4.30
 -10  -4  -7    3.64    3.42
 -10  -4  -7    3.20    2.97
 -10   4  -7   -0.01    4.11
 -10   4  -7    3.18    2.19
 -10   4  -7   -8.08    4.83
 -10   4  -7    0.42    4.59
 -11  -4  -7   12.77    6.82
 -11   4  -7    0.21    4.30
 -11   4  -7    3.10    5.29
 -11   4  -7    0.17    2.45
 -12  -4  -7   -3.13    3.56
 -12  -4  -7    5.59    3.53
 -12   4  -7    8.14    4.80
 -12   4  -7   -2.11    6.15
 -12   4  -7   -1.52    5.19
 -12   4  -7   -1.59    2.43
 -13  -4  -7    4.51    4.54
 -13  -4  -7    2.33    3.83
 -13   4  -7    2.11    5.43
 -13   4  -7   -3.21    2.20
 -13   4  -7   -1.32    5.99
 -15  -5   7   -0.97    1.92
 -15  -5   7   -0.12    2.72
 -15  -5   7   -0.89    2.32
 -15   5   7    2.57    3.77
 -14  -5   7    2.12    2.37
 -14  -5   7    1.54    2.60
 -14   5   7    0.03    3.41
 -13  -5   7    0.81    2.16
 -13   5   7    2.06    4.91
 -13   5   7    0.57    2.76
 -12  -5   7    1.77    2.17
 -12  -5   7    0.29    1.62
 -12   5   7   -2.06    2.15
 -12   5   7    0.48    2.92
 -11  -5   7   -0.21    1.96
 -11  -5   7    0.99    1.83
 -11   5   7    0.28    1.96
 -11   5   7   -2.63    1.91
 -11   5   7    0.54    2.92
 -10  -5   7    2.29    1.61
 -10  -5   7    1.11    1.88
 -10   5   7    0.78    2.01
 -10   5   7    2.38    2.47
  -9  -5   7    2.70    1.49
  -9  -5   7    0.45    1.81
  -9   5   7   -1.06    2.15
  -9   5   7    0.64    1.34
  -9   5   7    2.09    2.37
  -8  -5   7    0.79    1.62
  -8  -5   7    0.73    1.79
  -8   5   7    0.99    1.15
  -8   5   7    0.52    2.28
  -7  -5   7    1.13    1.24
   7  -5  -7    1.15    0.85
  -7  -5   7   -0.32    1.65
  -7   5   7    2.60    0.87
  -7   5   7    1.98    1.98
  -7   5   7    0.87    2.18
  -6  -5   7    0.55    1.16
   6  -5  -7   -1.03    1.17
  -6   5   7    2.36    2.10
  -6   5   7    0.39    0.73
  -6   5   7    0.94    1.70
   6   5  -7   -0.42    1.43
  -5  -5   7   12.53    1.90
   5  -5  -7   14.29    2.30
   5   5  -7   14.37    2.43
  -5   5   7    9.71    2.63
  -5   5   7   20.09    2.53
  -4  -5   7   27.64    2.22
   4  -5  -7   18.56    2.72
  -4   5   7   28.96    2.75
   4   5  -7   23.55    2.92
  -4   5   7   21.63    3.24
  -3  -5   7    4.39    1.35
   3  -5  -7    4.06    2.18
  -3   5   7    3.46    1.99
  -3   5   7    3.88    1.64
   3   5  -7    6.97    2.29
  -2  -5   7    8.74    1.62
   2  -5  -7    5.27    2.22
  -2   5   7    7.37    1.41
  -2   5   7    3.29    1.88
   2   5  -7    6.28    2.20
   1  -5  -7    9.21    2.19
  -1  -5   7    7.38    1.53
   1  -5  -7    6.08    1.56
   1   5  -7    8.92    2.38
  -1   5   7    9.12    2.31
   0  -5  -7    0.14    1.72
   0  -5   7    1.35    1.20
   0  -5  -7    1.94    1.43
   0   5  -7    2.35    2.16
   0   5   7    2.80    1.73
   0   5  -7    5.10    2.45
  -1  -5  -7    7.68    2.14
   1  -5   7    8.13    1.65
  -1  -5  -7    7.84    1.81
  -1   5  -7    3.85    2.51
  -1   5  -7    6.20    2.80
   2  -5   7    2.12    1.25
  -2  -5  -7    0.66    1.81
  -2  -5  -7   -0.61    1.52
   2   5   7    2.03    1.45
  -2   5  -7    0.15    2.28
  -2   5  -7    0.54    2.31
  -3  -5  -7   16.41    2.77
  -3  -5  -7   18.70    2.46
   3  -5   7   15.18    2.30
  -3   5  -7   14.34    3.39
  -3   5  -7   14.84    2.69
   3   5   7   19.44    2.03
  -3   5  -7   18.08    3.66
  -4  -5  -7   10.97    2.55
   4  -5   7   14.89    2.08
   4   5   7   12.93    1.42
  -4   5  -7   19.53    3.80
  -4   5  -7   10.69    3.34
  -5  -5  -7   -0.94    1.93
   5  -5   7    1.57    1.16
  -5  -5  -7    0.85    2.05
  -5   5  -7    0.99    2.76
  -5   5  -7   -0.31    1.78
  -5   5  -7   -0.63    2.94
  -6  -5  -7   -1.65    2.29
   6  -5   7   -0.21    1.33
  -6  -5  -7    2.91    2.29
  -6   5  -7   -3.44    3.72
  -6   5  -7    1.09    2.02
  -6   5  -7   -3.73    3.05
  -6   5  -7    0.57    3.33
   7  -5   7   -1.44    1.33
  -7  -5  -7    1.46    2.66
  -7  -5  -7   -3.45    1.96
  -7   5  -7   -0.03    3.41
  -7   5  -7    4.01    2.40
  -7   5  -7    2.16    3.41
  -7   5  -7    4.63    4.29
  -8  -5  -7   -1.26    2.40
   8  -5   7    2.55    1.85
  -8  -5  -7   -2.18    2.22
  -8   5  -7    0.59    3.93
  -8   5  -7    2.33    2.25
  -8   5  -7   -0.45    3.72
  -8   5  -7    3.27    4.48
  -9  -5  -7    1.58    2.80
  -9  -5  -7    3.96    3.07
  -9   5  -7    0.83    4.70
  -9   5  -7    4.77    3.92
  -9   5  -7    0.03    2.49
  -9   5  -7    4.00    4.43
 -10  -5  -7    4.13    3.26
 -10   5  -7   -1.33    4.73
 -10   5  -7    0.65    3.75
 -10   5  -7   -1.49    5.41
 -10   5  -7    6.50    2.89
 -11  -5  -7    0.14    3.34
 -11  -5  -7   10.68    3.79
 -11   5  -7   -3.26    2.41
 -11   5  -7    2.05    4.60
 -11   5  -7    0.75    5.33
 -12  -5  -7    3.11    4.10
 -12  -5  -7   -2.26    3.24
 -12   5  -7    1.40    4.79
 -12   5  -7    4.44    6.43
 -13   5  -7    2.61    2.78
 -13   5  -7    4.77    5.26
 -14  -6   7   -3.68    1.96
 -14  -6   7    0.09    2.60
 -14  -6   7    0.41    2.53
 -14   6   7    3.73    3.71
 -13  -6   7   -3.64    2.08
 -13  -6   7   -0.41    1.79
 -13   6   7   -0.91    3.46
 -12  -6   7    3.29    2.02
 -12  -6   7    1.47    2.50
 -12   6   7    6.53    3.48
 -11  -6   7   10.18    2.89
 -11  -6   7    2.86    1.93
 -11   6   7    6.82    3.66
 -10  -6   7   19.11    3.47
 -10  -6   7   16.19    2.54
 -10   6   7   16.32    3.83
 -10   6   7   13.59    2.28
  -9  -6   7   17.05    2.51
  -9  -6   7   15.92    2.98
  -9   6   7   13.79    3.44
  -8  -6   7   -2.19    1.09
  -8  -6   7   -0.19    1.88
  -8   6   7    0.85    1.10
  -8   6   7   -0.81    2.31
  -7  -6   7    1.81    1.41
  -7  -6   7   -0.19    1.70
  -7   6   7    1.53    2.56
   7   6  -7    2.28    1.92
  -7   6   7    0.33    0.83
  -6  -6   7    3.95    1.66
   6  -6  -7    2.15    1.29
  -6  -6   7    4.51    2.15
  -6   6   7    4.52    0.87
   6   6  -7    7.17    2.33
  -6   6   7    7.38    2.82
   5  -6  -7   22.58    2.56
  -5   6   7   24.08    1.47
  -5   6   7   21.19    5.56
   5   6  -7   29.22    3.46
  -4  -6   7   36.35    2.72
   4   6  -7   37.75    3.73
  -4   6   7   33.37    4.27
  -3  -6   7   27.49    2.40
   3  -6  -7   21.10    2.88
  -3   6   7   26.37    3.57
  -2  -6   7   23.92    2.29
   2  -6  -7   19.92    2.79
  -2   6   7   29.55    3.78
   1  -6  -7   42.96    2.53
  -1  -6   7   47.12    3.39
   1  -6  -7   46.41    3.38
  -1   6   7   45.05    4.05
   0  -6  -7   51.71    3.64
   0  -6  -7   47.66    2.88
   0   6  -7   48.93    5.12
   0   6   7   52.46    4.05
  -1  -6  -7   29.56    3.28
   1  -6   7   28.83    2.28
  -1  -6  -7   27.20    2.47
  -1   6  -7   27.03    3.90
   1   6   7   25.72    3.02
   2  -6   7   23.01    2.47
  -2  -6  -7   21.62    3.03
  -2  -6  -7   24.82    2.48
  -2   6  -7   18.87    3.07
  -2   6  -7   18.74    3.71
  -3  -6  -7   29.49    2.97
  -3  -6  -7   28.73    3.48
   3  -6   7   30.27    2.60
  -3   6  -7   25.60    3.52
  -3   6  -7   22.81    3.98
   3   6   7   28.54    2.54
  -3   6  -7   25.81    3.71
   4  -6   7   29.08    2.44
  -4  -6  -7   32.27    3.36
  -4  -6  -7   34.12    3.53
  -4   6  -7   25.83    3.89
   4   6   7   29.33    2.12
  -4   6  -7   31.71    4.01
  -4   6  -7   24.18    4.10
   5  -6   7   10.91    2.08
  -5  -6  -7   10.49    2.77
  -5  -6  -7    9.38    2.51
  -5   6  -7    7.99    2.58
  -5   6  -7    8.07    3.07
  -5   6  -7    0.17    3.15
   6  -6   7   -0.13    1.55
  -6  -6  -7    3.89    2.48
  -6  -6  -7    0.23    2.17
  -6   6  -7    2.10    2.45
  -6   6  -7   -1.34    3.22
  -6   6  -7    1.80    2.89
   7  -6   7   -0.80    1.67
  -7  -6  -7   -2.73    2.18
  -7  -6  -7   -0.25    2.65
  -7   6  -7    1.64    3.65
  -7   6  -7   -0.65    2.84
  -7   6  -7   -3.13    1.97
  -8  -6  -7    5.34    2.83
  -8  -6  -7    2.89    2.87
   8  -6   7    1.92    2.04
  -8   6  -7    3.45    2.57
  -8   6  -7    8.16    3.28
  -8   6  -7    7.93    4.41
  -9  -6  -7    4.22    3.05
  -9  -6  -7    6.23    3.67
  -9   6  -7    8.87    3.03
  -9   6  -7   10.72    5.21
  -9   6  -7    3.92    3.16
  -9   6  -7    1.67    5.22
  10  -6   7    4.34    2.62
 -10  -6  -7    1.55    3.28
 -10  -6  -7    5.55    3.35
 -10   6  -7   -0.75    4.51
 -11  -6  -7   -1.46    3.51
  11  -6   7    3.69    2.59
 -11  -6  -7   -0.13    3.26
 -11   6  -7    0.63    2.95
 -11   6  -7   -5.32    4.75
 -11   6  -7  -12.96    5.22
 -12  -6  -7   -1.84    3.44
 -12  -6  -7    5.57    3.87
 -12   6  -7    4.04    3.17
 -12   6  -7    0.04    6.57
 -12   6  -7   -6.92    4.73
 -13  -7   7    0.97    2.42
 -13  -7   7    5.54    3.06
 -13   7   7    2.30    3.77
 -12  -7   7    6.73    2.82
 -12  -7   7    1.91    1.67
 -12   7   7    1.28    3.56
 -11  -7   7    3.39    2.73
 -11  -7   7    2.62    1.98
 -11   7   7   -0.07    3.43
 -10  -7   7    1.37    1.76
  -9  -7   7    2.09    1.67
  -9  -7   7    1.32    2.16
  -9   7   7    1.72    3.30
  -8  -7   7    2.68    2.42
  -8  -7   7    1.57    1.63
  -8   7   7    2.35    2.95
   8   7  -7   -0.90    1.97
  -7  -7   7    2.61    2.30
  -7  -7   7    0.30    1.47
   7   7  -7   -0.81    1.88
  -7   7   7   -0.33    1.03
  -7   7   7   -0.19    2.57
  -6  -7   7    2.06    1.44
  -6  -7   7   -0.65    1.90
   6  -7  -7   -0.24    1.49
   6   7  -7   -0.48    1.78
  -6   7   7   -0.86    0.79
  -6   7   7   -3.75    2.30
  -5  -7   7    3.52    2.16
  -5  -7   7    2.43    1.46
   5  -7  -7    2.69    1.73
  -5   7   7    4.23    2.83
   5   7  -7    7.35    2.58
  -5   7   7    3.83    0.92
  -4  -7   7    9.42    1.97
   4  -7  -7    9.63    2.28
   4   7  -7   12.07    2.84
  -4   7   7    5.26    2.76
   3  -7  -7   -0.22    1.92
  -3  -7   7    1.34    1.30
   3   7  -7    2.72    2.30
  -2  -7   7    1.72    1.60
   2  -7  -7    0.35    2.06
   2   7  -7    4.23    2.60
  -2   7   7    4.36    2.56
  -1  -7   7    2.88    1.57
   1  -7  -7    7.53    2.38
   1  -7  -7    0.55    1.14
  -1   7   7   -1.09    2.01
   1   7  -7    2.72    2.39
   0  -7   7   -0.54    1.26
   0  -7  -7   -2.96    1.94
   0  -7  -7    0.97    1.27
   0   7   7    1.00    1.98
   0   7  -7    2.53    2.49
  -1  -7  -7    2.16    1.52
   1  -7   7    1.96    1.48
  -1   7  -7   -0.62    2.24
   1   7   7    1.18    1.80
  -2  -7  -7   -1.02    1.86
   2  -7   7   -0.58    1.27
  -2  -7  -7   -0.81    1.46
  -2   7  -7    0.64    1.85
  -2   7  -7   -2.85    2.42
   2   7   7   -1.26    1.51
  -3  -7  -7    9.36    2.30
  -3  -7  -7    6.41    2.70
   3  -7   7    9.11    1.98
  -3   7  -7    6.08    3.23
  -3   7  -7    7.75    2.54
  -4  -7  -7    1.87    2.31
   4  -7   7    5.63    1.83
  -4  -7  -7    2.63    2.19
  -4   7  -7    1.52    3.11
  -4   7  -7    1.46    2.16
   5  -7   7   -0.53    1.52
  -5  -7  -7    3.98    2.55
  -5  -7  -7   -0.02    2.14
  -5   7  -7    2.60    2.40
  -5   7  -7    1.65    3.21
   6  -7   7   -0.33    1.64
  -6  -7  -7   -1.20    2.63
  -6  -7  -7    3.58    2.58
  -6   7  -7    3.07    2.69
  -6   7  -7    1.14    3.61
  -7  -7  -7   -0.15    2.47
  -7  -7  -7   -4.04    2.12
   7  -7   7    3.42    2.43
  -7   7  -7    1.86    4.59
  -7   7  -7   -0.12    2.51
  -8  -7  -7    1.07    3.02
  -8  -7  -7    4.81    3.06
   8  -7   7    2.16    2.30
  -8   7  -7    4.32    4.18
   9  -7   7    1.09    2.32
  -9  -7  -7    3.44    3.16
  -9  -7  -7    1.82    2.97
  -9   7  -7    1.21    4.28
  -9   7  -7   -0.59    2.72
  10  -7   7   -0.88    2.39
 -10  -7  -7    2.32    3.70
 -10  -7  -7    0.59    3.31
 -10   7  -7    5.64    3.33
 -10   7  -7   -1.77    4.86
 -11  -7  -7   -2.97    3.12
 -11  -7  -7    1.83    3.36
  11  -7   7   -1.61    2.51
 -11   7  -7    6.23    5.33
 -11   7  -7    0.85    3.12
 -12  -8   7    1.89    1.62
 -12  -8   7    2.62    2.97
 -12   8   7    1.93    3.76
 -11  -8   7    1.56    3.07
 -11  -8   7   -0.86    1.80
 -11   8   7   -4.43    3.14
 -10  -8   7   -2.14    2.06
 -10  -8   7   -0.54    1.66
 -10   8   7    2.13    3.64
  -9  -8   7    4.79    2.70
  -9  -8   7    0.67    1.62
  -9   8   7   -3.36    2.89
  -8  -8   7   14.87    2.54
  -7  -8   7   18.36    3.77
  -7  -8   7   25.46    3.10
  -7   8   7    8.42    3.77
   7   8  -7   24.48    3.83
  -6  -8   7   14.65    2.39
  -6  -8   7   15.56    3.32
  -6   8   7   14.34    3.98
   6   8  -7   11.48    3.09
  -5  -8   7    6.88    2.73
  -5  -8   7    3.72    1.67
   5   8  -7    3.90    2.46
  -5   8   7    3.85    2.82
  -4  -8   7    7.36    1.85
   4  -8  -7    4.90    2.08
   4   8  -7    5.14    2.53
  -4   8   7    9.37    3.45
   3  -8  -7   10.61    2.55
  -3  -8   7    9.82    2.05
   3   8  -7    9.00    3.28
  -3   8   7    6.45    3.05
   2  -8  -7   10.35    2.51
  -2  -8   7   10.08    2.06
  -2   8   7    8.77    2.77
   2   8  -7    7.50    2.91
  -1  -8   7    6.15    1.90
   1  -8  -7    4.09    2.25
   1   8  -7    3.10    2.93
   0  -8  -7    5.78    2.45
   0  -8   7    6.39    1.82
   0   8   7    2.87    2.19
   0   8  -7    4.58    2.94
  -1  -8  -7    8.75    1.84
  -1  -8  -7   11.02    2.68
   1  -8   7   12.68    2.27
  -1   8  -7   11.62    3.39
   1   8   7   12.03    2.59
   2  -8   7    8.65    2.09
  -2  -8  -7   11.27    2.81
  -2  -8  -7   11.21    2.27
  -2   8  -7   11.15    3.46
   2   8   7    8.89    2.35
  -3  -8  -7    7.90    2.37
   3  -8   7    4.50    1.88
  -3  -8  -7    8.25    3.00
   3   8   7    3.89    1.68
  -3   8  -7    1.68    3.30
  -3   8  -7    5.06    2.70
  -4  -8  -7    1.25    2.20
  -4  -8  -7    5.81    2.72
   4  -8   7    6.13    2.04
  -4   8  -7   -2.54    2.95
  -4   8  -7    0.54    2.39
  -5  -8  -7    7.00    2.86
  -5  -8  -7    5.86    2.71
   5  -8   7   11.00    2.85
  -6  -8  -7   13.22    3.38
   6  -8   7   21.43    3.45
  -6   8  -7    9.83    4.64
  -6   8  -7   15.64    3.65
  -7  -8  -7    5.96    3.21
   7  -8   7   17.62    3.19
  -7  -8  -7    7.69    3.30
  -7   8  -7    6.77    4.52
  -7   8  -7   17.34    3.89
  -8  -8  -7    2.31    3.40
  -8  -8  -7    3.08    3.12
   8  -8   7    1.13    2.47
  -8   8  -7    0.44    4.35
  -8   8  -7   -1.59    3.34
  -9  -8  -7    0.99    3.16
   9  -8   7    5.18    2.89
  -9  -8  -7    3.03    3.29
  -9   8  -7   -2.93    3.04
  -9   8  -7    2.88    4.84
 -10  -9   7    2.26    3.28
 -10  -9   7   -0.01    2.64
 -10   9   7    1.34    3.55
  -9  -9   7    0.16    2.45
  -9  -9   7   -4.42    1.55
  -9   9   7   -6.72    2.76
  -8  -9   7    0.06    1.74
  -8  -9   7    0.21    2.29
  -8   9   7   -4.42    2.78
  -7  -9   7    0.22    1.42
  -7  -9   7   -0.36    2.34
  -7   9   7    2.72    3.07
   7   9  -7    0.72    2.26
  -6  -9   7   -0.72    1.55
  -6  -9   7    3.40    2.91
   6   9  -7    1.02    2.39
  -5  -9   7    1.99    1.81
  -5   9   7    6.27    3.36
   5   9  -7   -0.71    2.33
  -4  -9   7    3.71    2.63
  -4  -9   7    2.43    1.74
  -4   9   7   -1.01    2.91
   4   9  -7    9.75    5.79
   3  -9  -7    0.11    2.29
  -3  -9   7   -0.68    1.43
  -3   9   7   -6.54    2.67
  -2  -9   7   -1.08    1.28
   2  -9  -7    1.22    2.33
   2   9  -7   -2.24    2.75
  -2   9   7    2.75    2.92
  -1  -9   7   -1.08    1.32
   1  -9  -7   -1.47    2.14
  -1   9   7   -0.54    2.50
   1   9  -7    6.12    3.29
   0  -9  -7    3.65    2.51
   0  -9   7    1.21    1.50
   0   9   7   -0.10    2.25
   0   9  -7   -2.60    5.01
   1  -9   7    2.78    1.65
  -1  -9  -7    2.10    2.55
  -2  -9  -7   -0.46    2.62
  -2  -9  -7   -1.22    1.78
   2   9   7    0.36    2.00
  -2   9  -7    0.62    2.96
   3  -9   7    2.71    1.86
  -3  -9  -7    1.03    2.51
  -3  -9  -7   -2.66    2.20
  -3   9  -7    3.94    3.51
  -3   9  -7    7.02    3.13
  -4  -9  -7    1.22    2.34
   4  -9   7   -2.21    1.71
  -4   9  -7   -2.53    3.41
  -4   9  -7   -0.81    2.79
   5  -9   7   -0.21    1.76
  -5  -9  -7    1.92    2.81
  -5  -9  -7   -0.96    2.46
  -5   9  -7    1.10    2.71
  -5   9  -7   -0.95    3.50
   6  -9   7    0.90    2.15
  -6  -9  -7   -3.66    2.54
  -6  -9  -7    0.92    2.52
  -6   9  -7   -0.54    2.89
  -6   9  -7   -1.67    4.43
   7  -9   7    1.57    2.22
  -7  -9  -7    0.46    2.95
  -7  -9  -7   -0.02    3.05
  -7   9  -7   -1.57    2.82
  -7   9  -7   -3.34    4.39
  -8 -10   7   -0.51    2.81
  -8 -10   7    2.40    1.91
  -8  10   7   -3.03    3.69
  -7 -10   7    1.99    2.76
  -7 -10   7   -1.37    1.68
  -7  10   7   -1.00    3.73
   7  10  -7   -0.42    2.86
  -6 -10   7    3.01    2.21
  -6 -10   7   -1.56    2.45
  -6  10   7    0.50    3.56
   6  10  -7    2.51    2.77
  -5 -10   7    2.93    2.62
  -5  10   7   -5.70    2.89
   5  10  -7    3.13    2.97
  -4 -10   7    4.48    2.67
  -4  10   7    2.29    3.96
   4  10  -7    3.27    2.86
  -3 -10   7    0.07    2.41
  -3  10   7    1.72    3.36
   3  10  -7    6.66    3.16
  -2 -10   7    3.70    2.08
   2 -10  -7    0.22    2.65
  -2  10   7    8.33    3.48
   2  10  -7    5.87    3.13
   1 -10  -7    4.38    2.92
  -1 -10   7   11.19    2.35
   1  10  -7    8.10    3.88
  -1  10   7    5.42    3.09
   0 -10  -7    6.86    2.88
   0 -10   7    6.95    2.01
   0  10  -7    7.46    3.61
   0  10   7    9.33    3.13
  -1 -10  -7    5.74    2.96
   1 -10   7    3.98    2.03
   1  10   7    5.87    2.55
  -1  10  -7    2.85    3.69
   2 -10   7    4.41    2.11
  -2 -10  -7    2.20    4.36
  -2  10  -7   10.32    4.10
  -3 -10  -7   -1.24    2.99
   3 -10   7    4.47    2.43
  -3  10  -7   -0.28    3.92
  -4 -10  -7    6.72    3.17
   4 -10   7    5.14    2.40
  -4  10  -7    6.46    3.13
  -4  10  -7    3.93    3.99
  -5 -10  -7    2.72    2.56
   5 -10   7    2.12    2.32
  -5 -10  -7    1.37    3.15
  -5  10  -7   -2.43    2.64
  -5  10  -7    6.27    4.07
  -2  11   7   -1.24    2.96
   2  11  -7   -0.44    2.85
  -1 -11   7   -0.80    1.48
   1  11  -7    2.15    3.05
  -1  11   7   -0.22    5.25
 -17   0   8    4.54    3.37
 -17   0   8    0.58    2.54
 -17   0   8    2.73    2.94
 -16   0   8    0.66    2.30
 -16   0   8   -1.88    2.49
 -16   0   8    3.85    2.38
 -15   0   8    4.06    2.41
 -15   0   8    2.29    2.85
 -15   0   8    1.27    2.06
 -15   0   8   -2.61    2.05
 -14   0   8    3.55    2.33
 -14   0   8   -1.38    2.43
 -14   0   8    0.48    1.80
 -13   0   8    6.29    2.43
 -13   0   8    6.19    2.00
 -13   0   8   10.05    3.05
 -12   0   8   10.02    2.35
 -12   0   8    5.70    1.86
 -12   0   8    9.85    2.83
 -11   0   8    0.28    1.30
 -11   0   8    2.09    1.66
 -10   0   8    4.53    1.72
 -10   0   8    2.92    1.35
  -9   0   8   11.37    2.05
  -9   0   8    8.86    1.53
  -8   0   8   61.17    3.20
  -8   0   8   56.74    3.56
  -7   0   8   90.17    4.45
   6   0  -8   73.59    4.24
  -6   0   8   63.63    3.50
   5   0  -8   25.32    2.88
  -5   0   8   28.45    2.12
   4   0  -8   16.77    1.35
  -4   0   8   17.64    1.68
   4   0  -8   22.93    2.82
  -3   0   8    3.13    0.99
   3   0  -8    7.46    2.28
   3   0  -8    3.81    0.86
   2   0  -8    3.72    2.32
  -2   0   8    2.32    0.93
   2   0  -8    1.31    0.92
   1   0  -8    1.39    1.14
  -1   0   8    0.91    0.78
   1   0  -8    1.01    2.03
   0   0  -8   48.20    3.82
   0   0  -8   48.82    3.14
   0   0  -8   53.29    4.50
  -1   0  -8  199.56    7.84
  -1   0  -8  195.59    8.45
  -1   0  -8  191.13    8.76
  -2   0  -8  156.12    7.81
  -2   0  -8  157.52    7.54
  -2   0  -8  172.94    7.24
  -3   0  -8   48.41    3.95
  -3   0  -8   43.09    4.57
  -3   0  -8   54.91    4.55
   3   0   8   50.35    2.43
  -4   0  -8   14.11    3.60
   4   0   8   14.26    1.48
  -4   0  -8   13.24    2.97
  -4   0  -8   12.72    3.45
  -5   0  -8   19.33    3.53
   5   0   8   24.55    1.67
  -5   0  -8   13.33    3.68
  -5   0  -8   21.81    3.83
  -6   0  -8   25.44    4.15
  -6   0  -8   29.47    4.42
   6   0   8   37.71    2.14
   7   0   8   18.51    1.65
  -7   0  -8   13.90    3.91
  -7   0  -8   13.88    4.30
   8   0   8    1.37    1.04
  -8   0  -8   -7.18    3.09
  -8   0  -8    1.42    3.41
  -9   0  -8   -0.20    3.44
   9   0   8   -1.49    0.96
  -9   0  -8    4.69    3.73
 -10   0  -8    1.02    3.75
 -10   0  -8    2.18    3.82
  10   0   8    0.64    1.25
 -11   0  -8   10.77    4.63
  11   0   8    1.60    1.43
 -11   0  -8   -4.48    3.67
 -12   0  -8    8.24    4.82
 -12   0  -8    1.02    4.42
  12   0   8   -1.49    1.54
 -13   0  -8    3.36    4.70
  13   0   8   -2.23    1.67
 -14   0  -8    1.07    4.60
  14   0   8    3.57    2.15
 -14   0  -8    0.76    5.02
 -17  -1   8    3.39    2.53
 -17  -1   8    5.82    3.37
 -17  -1   8    3.62    2.85
 -17  -1   8    1.27    2.85
 -17   1   8   -3.41    2.30
 -17   1   8    0.98    3.47
 -16  -1   8    2.24    2.50
 -16  -1   8   -0.23    3.08
 -16  -1   8    3.71    2.43
 -16  -1   8   -3.59    2.03
 -16   1   8   -0.66    2.64
 -16   1   8   -1.38    3.56
 -16   1   8    2.09    2.55
 -15  -1   8   -2.20    2.03
 -15  -1   8   -1.86    2.10
 -15  -1   8   -1.46    2.53
 -15   1   8   -1.35    2.18
 -15   1   8   -2.16    1.99
 -15   1   8    3.50    3.05
 -14  -1   8    2.23    2.50
 -14  -1   8   -1.27    1.87
 -14  -1   8   -1.00    1.83
 -14   1   8    3.09    2.34
 -14   1   8   -0.33    2.60
 -14   1   8    1.05    2.03
 -13  -1   8   -0.39    2.70
 -13  -1   8   -0.05    1.69
 -13  -1   8   -1.04    1.51
 -13   1   8   -0.81    1.88
 -13   1   8    1.81    1.60
 -13   1   8    1.23    2.83
 -12  -1   8    2.31    1.95
 -12  -1   8    0.01    1.56
 -12   1   8   -1.38    1.23
 -12   1   8   -0.85    2.21
 -12   1   8    2.27    1.87
 -11  -1   8    0.04    1.42
 -11  -1   8    0.70    1.51
 -11   1   8   -1.23    2.07
 -11   1   8    1.13    1.12
 -11   1   8   -0.74    1.60
 -10  -1   8   -0.42    1.27
 -10  -1   8    1.07    1.17
 -10   1   8    1.56    1.13
 -10   1   8    0.75    1.49
 -10   1   8   -0.49    2.08
  -9  -1   8    2.84    1.38
  -9  -1   8    1.10    1.34
  -9   1   8   -0.82    0.94
  -9   1   8    0.65    1.49
  -8  -1   8    4.18    1.36
  -8  -1   8    3.65    1.48
  -8   1   8    2.13    0.99
  -8   1   8    3.67    1.62
   7  -1  -8    4.21    1.63
  -7  -1   8    6.07    1.56
  -7  -1   8    4.62    1.52
  -7   1   8    6.14    1.06
  -7   1   8    2.24    1.43
  -6  -1   8    2.68    1.29
   6  -1  -8    2.06    1.60
   6   1  -8    3.50    1.87
  -6   1   8    2.40    1.28
  -6   1   8    2.60    0.93
  -5  -1   8   61.63    3.19
   5  -1  -8   64.53    3.81
   5   1  -8   65.93    4.01
   5   1  -8   66.11    3.18
  -5   1   8   66.52    3.32
  -5   1   8   56.24    2.49
   4  -1  -8   62.95    4.06
  -4  -1   8   67.75    3.33
  -4   1   8   67.85    3.38
   4   1  -8   65.55    3.20
   4   1  -8   70.56    4.16
  -3  -1   8    1.14    0.95
   3  -1  -8    2.68    2.20
   3   1  -8   -1.36    1.85
   3   1  -8    3.11    1.08
  -3   1   8    1.24    0.94
  -2  -1   8   40.23    2.29
   2  -1  -8   37.80    1.76
   2  -1  -8   36.54    3.79
   2   1  -8   38.35    2.58
   2   1  -8   42.76    3.67
   1  -1  -8   59.91    2.80
   1  -1  -8   67.02    4.64
   1  -1  -8   62.35    3.89
  -1  -1   8   61.10    2.99
   1   1  -8   61.79    4.42
   1   1  -8   66.11    3.47
  -1   1   8   60.70    2.84
   0  -1   8   15.44    1.46
   0  -1  -8   19.50    2.10
   0  -1  -8   14.11    3.05
   0  -1  -8   14.90    3.02
   0   1  -8   10.18    2.83
   0   1   8   15.47    1.30
   0   1  -8   17.28    2.12
   0   1  -8   13.26    3.17
  -1  -1  -8   -0.55    1.65
  -1  -1  -8   -2.44    2.16
   1  -1   8    1.86    0.90
  -1  -1  -8   -1.69    2.60
  -1   1  -8    3.05    2.80
  -1   1  -8    0.10    2.84
  -1   1  -8    2.14    1.84
   1   1   8    3.65    0.92
   2  -1   8    4.47    1.07
  -2  -1  -8   -2.18    2.63
  -2  -1  -8    6.37    3.09
  -2  -1  -8    2.78    2.10
   2   1   8    5.62    0.95
  -2   1  -8    3.28    3.25
  -2   1  -8    2.52    2.30
  -2   1  -8    0.95    2.81
   3  -1   8    0.06    0.92
  -3  -1  -8    0.18    2.53
  -3  -1  -8    2.26    2.79
   3   1   8    0.83    0.74
  -3   1  -8   -1.88    3.11
  -3   1  -8   -2.07    2.24
  -3   1  -8   -1.32    2.90
   4  -1   8    7.69    1.20
  -4  -1  -8    3.53    2.96
  -4  -1  -8    2.35    2.89
  -4   1  -8    2.70    2.73
  -4   1  -8    0.12    3.27
   4   1   8    7.27    1.01
  -4   1  -8    7.37    3.57
  -5  -1  -8    9.30    3.40
   5  -1   8   13.61    1.55
  -5  -1  -8   10.06    3.19
  -5   1  -8   12.53    3.86
   5   1   8   12.59    1.19
  -5   1  -8    8.22    3.81
  -5   1  -8   12.51    3.68
   6  -1   8    1.12    0.95
  -6  -1  -8    0.83    2.88
  -6  -1  -8    2.86    2.94
  -6   1  -8    1.85    3.48
   6   1   8    2.81    0.92
  -6   1  -8   -1.68    3.27
  -7  -1  -8    2.35    3.36
  -7  -1  -8    5.10    3.12
   7  -1   8    0.73    1.04
  -7   1  -8    0.23    3.46
   7   1   8    0.21    0.84
  -7   1  -8    2.60    3.78
  -8  -1  -8   -0.63    3.11
  -8  -1  -8    1.42    3.34
   8  -1   8    0.24    1.06
  -8   1  -8    2.17    3.68
  -8   1  -8    1.89    3.60
  -8   1  -8   -2.51    3.29
   8   1   8   -0.33    0.88
  -9  -1  -8    0.10    3.29
  -9  -1  -8   -2.12    3.34
  -9   1  -8    3.02    3.79
  -9   1  -8    5.69    4.32
  -9   1  -8   -5.13    3.55
   9   1   8    3.81    1.17
 -10  -1  -8    0.79    3.71
  10  -1   8    1.55    1.42
 -10  -1  -8    4.01    4.13
 -10   1  -8    5.77    4.26
 -10   1  -8    4.99    4.59
  10   1   8    1.13    1.19
 -10   1  -8   -7.84    3.55
 -11  -1  -8   -1.81    4.58
 -11  -1  -8    1.11    3.83
  11  -1   8    0.70    1.36
 -11   1  -8   -6.49    4.38
  11   1   8    0.03    1.29
 -11   1  -8    0.35    4.31
 -11   1  -8    3.61    4.68
  12  -1   8    2.37    1.65
 -12  -1  -8   -4.31    4.29
 -12  -1  -8   -1.52    3.98
 -12   1  -8   -2.00    4.82
  12   1   8   -0.80    1.61
 -12   1  -8    2.80    4.72
 -12   1  -8    5.04    5.14
 -13  -1  -8   -1.01    4.43
  13  -1   8    0.36    1.79
 -13  -1  -8    3.60    4.76
 -13   1  -8    1.43    4.33
 -13   1  -8    3.20    4.67
 -13   1  -8    0.96    5.21
 -14  -1  -8    2.14    4.86
  14  -1   8    2.84    2.14
 -14  -1  -8   -4.52    4.67
 -14   1  -8   -3.82    4.85
 -14   1  -8    2.10    4.63
 -14   1  -8    0.25    4.85
 -17  -2   8   -0.96    3.57
 -17   2   8   -5.48    3.35
 -16  -2   8    2.14    2.98
 -16  -2   8    0.65    2.68
 -16  -2   8    2.25    2.35
 -16  -2   8   -2.03    2.79
 -16   2   8    0.37    2.62
 -16   2   8    0.46    3.61
 -15  -2   8   -0.98    2.40
 -15  -2   8    5.08    2.92
 -15  -2   8    4.95    2.34
 -15   2   8    0.57    2.42
 -14  -2   8    2.91    2.90
 -14  -2   8    3.48    2.31
 -14  -2   8   -2.49    1.66
 -14   2   8   -0.17    3.02
 -14   2   8    0.93    2.12
 -13  -2   8    1.16    1.88
 -13  -2   8   -1.36    1.49
 -13   2   8    3.65    2.29
 -13   2   8   -1.32    1.64
 -13   2   8    0.70    2.62
 -12  -2   8    0.97    1.76
 -12  -2   8    0.50    1.67
 -12   2   8    1.16    1.93
 -12   2   8    0.02    1.43
 -12   2   8    1.39    2.78
 -11  -2   8    8.30    2.14
 -11   2   8   10.54    3.11
 -11   2   8    7.28    2.40
 -11   2   8   10.48    1.85
 -10  -2   8   26.23    3.01
 -10  -2   8   26.43    2.66
 -10   2   8   26.75    3.89
 -10   2   8   21.40    1.95
 -10   2   8   28.81    2.84
  -9  -2   8   18.03    2.35
  -9   2   8    9.81    1.28
  -8  -2   8    2.34    1.31
  -8  -2   8    1.40    1.36
  -8   2   8    0.00    1.75
  -8   2   8    1.06    0.71
  -8   2   8    0.33    1.14
  -7  -2   8    1.08    1.27
   7  -2  -8    0.17    1.38
  -7  -2   8    2.16    1.24
  -7   2   8    1.65    1.38
  -7   2   8    1.09    0.68
   6  -2  -8   10.18    2.10
  -6  -2   8   12.11    1.77
  -6   2   8    9.45    1.78
  -6   2   8   11.20    1.06
   6   2  -8   11.95    1.68
  -5  -2   8   43.00    2.75
   5  -2  -8   45.27    3.45
  -5   2   8   45.87    2.95
   5   2  -8   50.08    3.44
   5   2  -8   42.84    2.91
   4  -2  -8   68.23    4.31
  -4  -2   8   73.13    3.62
   4   2  -8   73.21    4.17
   4   2  -8   78.31    4.58
  -4   2   8   75.77    3.73
  -3  -2   8  116.36    5.02
   3  -2  -8  116.60    6.22
  -3   2   8  119.86    5.09
   3   2  -8  117.06    5.95
   3   2  -8  127.78    5.37
  -2  -2   8  169.00    6.66
   2  -2  -8  160.16    7.58
  -2   2   8  174.71    6.46
   2   2  -8  177.66    7.14
   2   2  -8  170.63    7.66
   1  -2  -8  148.73    6.13
  -1  -2   8  143.54    5.66
   1  -2  -8  120.09    6.58
   1  -2  -8  138.68    4.91
  -1   2   8  144.17    5.41
   1   2  -8  141.98    6.85
   0  -2   8   40.44    2.40
   0  -2  -8   37.98    3.93
   0  -2  -8   41.80    3.44
   0  -2  -8   40.09    2.51
   0   2  -8   45.79    3.53
   0   2   8   41.46    2.15
   0   2  -8   45.15    4.09
  -1  -2  -8    0.88    2.12
  -1  -2  -8   -1.90    2.47
   1  -2   8    0.91    0.92
   1   2   8   -0.76    0.58
  -1   2  -8   -0.91    1.83
  -1   2  -8   -1.82    2.59
  -1   2  -8    1.72    2.61
   2  -2   8    1.55    0.94
  -2  -2  -8   -1.12    2.44
  -2  -2  -8    3.68    2.66
  -2   2  -8    1.06    2.97
  -2   2  -8   -2.97    2.77
   2   2   8    0.47    0.65
  -2   2  -8   -2.49    2.02
   3  -2   8   17.53    1.59
  -3  -2  -8   10.52    2.56
  -3  -2  -8   14.90    3.00
  -3   2  -8   15.01    3.29
  -3   2  -8    9.75    3.66
   3   2   8   17.02    1.26
  -3   2  -8   14.42    3.85
  -4  -2  -8   28.13    3.95
   4  -2   8   33.86    2.13
  -4  -2  -8   26.09    3.61
   4   2   8   37.32    1.73
  -4   2  -8   30.58    4.56
  -4   2  -8   24.92    4.08
  -4   2  -8   25.72    4.39
  -5  -2  -8   12.34    3.12
   5  -2   8   14.10    1.69
  -5  -2  -8   12.45    3.10
   5   2   8   14.12    1.14
  -5   2  -8   11.59    4.08
  -5   2  -8   11.08    3.52
  -5   2  -8   10.95    3.88
  -6  -2  -8    1.48    2.96
   6  -2   8    2.19    1.08
  -6  -2  -8    0.40    2.73
  -6   2  -8    0.45    3.02
  -6   2  -8    6.91    3.91
  -6   2  -8    5.01    3.77
   6   2   8    1.91    0.70
   7  -2   8    5.67    1.33
  -7  -2  -8    9.83    3.43
  -7  -2  -8    4.48    3.08
  -7   2  -8    2.29    3.95
  -7   2  -8    6.26    4.55
  -7   2  -8    5.04    3.55
   7   2   8    4.82    0.92
  -8  -2  -8   10.01    3.44
  -8  -2  -8    8.71    3.60
  -8   2  -8    9.64    4.42
  -8   2  -8    5.45    3.92
  -9  -2  -8    8.64    3.90
  -9  -2  -8   16.24    3.83
   9  -2   8   16.93    2.30
  -9   2  -8   10.27    4.32
   9   2   8   16.17    1.59
  -9   2  -8    8.37    4.71
  -9   2  -8   15.64    5.18
 -10  -2  -8    4.13    3.35
 -10  -2  -8   -0.76    3.61
  10  -2   8    6.16    1.74
 -10   2  -8    2.81    4.82
 -10   2  -8    8.99    4.95
 -10   2  -8    0.01    4.53
  10   2   8    3.76    1.27
 -11  -2  -8    0.77    3.63
 -11   2  -8    5.01    5.20
 -11   2  -8   -4.24    4.47
 -12  -2  -8    5.70    4.06
 -12  -2  -8    0.56    4.03
 -12   2  -8    2.78    5.18
 -12   2  -8    3.27    4.92
 -12   2  -8   -4.93    4.82
 -13  -2  -8   -3.41    3.93
 -13  -2  -8    4.90    4.79
 -13   2  -8    6.83    4.66
 -13   2  -8   -0.83    5.46
 -13   2  -8    1.07    4.99
 -16  -3   8    2.81    2.65
 -16  -3   8   -3.16    2.26
 -16  -3   8    5.15    2.82
 -16  -3   8    2.54    2.95
 -16   3   8   -5.98    3.27
 -16   3   8    1.74    2.51
 -15  -3   8    2.14    2.28
 -15  -3   8    0.72    2.42
 -15  -3   8   -0.03    2.71
 -15   3   8    1.60    3.13
 -15   3   8    1.29    2.90
 -15   3   8   -1.92    3.37
 -14  -3   8   -0.38    2.10
 -14  -3   8   -0.68    2.36
 -14   3   8   -0.50    5.67
 -14   3   8    2.39    2.51
 -14   3   8   -5.10    2.91
 -13  -3   8   -1.30    1.91
 -13  -3   8   -1.56    1.73
 -13   3   8    1.34    2.93
 -13   3   8   -1.38    2.10
 -13   3   8    2.73    2.99
 -12  -3   8   -0.97    1.60
 -12  -3   8   -0.71    1.76
 -12   3   8   -1.22    1.96
 -12   3   8    3.05    2.68
 -12   3   8    0.18    2.55
 -11  -3   8    1.33    1.83
 -11  -3   8   -0.74    1.55
 -11   3   8    0.51    1.89
 -11   3   8    2.84    2.53
 -11   3   8    5.25    2.40
 -11   3   8    0.28    2.99
 -10  -3   8   -0.02    1.39
 -10  -3   8    0.78    1.59
 -10   3   8    1.28    1.87
 -10   3   8   -0.92    1.63
 -10   3   8    0.59    2.42
  -9  -3   8    0.78    1.54
  -9  -3   8    0.51    1.43
  -9   3   8   -0.37    2.03
  -9   3   8    5.42    2.10
  -9   3   8   -0.67    1.40
  -8  -3   8    2.54    1.80
  -8  -3   8   -0.34    1.22
  -8   3   8   -0.42    1.61
  -8   3   8   -1.37    1.48
  -7  -3   8    8.04    2.08
   7  -3  -8    5.17    1.45
  -7  -3   8    3.10    1.39
  -7   3   8    3.40    1.71
   7   3  -8    1.63    1.38
  -7   3   8    4.62    2.18
   6  -3  -8    1.89    1.66
  -6  -3   8    3.04    1.17
   6   3  -8    1.58    1.27
  -6   3   8   -2.86    1.58
  -6   3   8    4.24    1.49
  -5  -3   8   47.49    2.83
  -5   3   8   48.48    3.17
   5   3  -8   40.19    3.04
  -5   3   8   47.08    3.99
  -4  -3   8   53.52    2.96
   4  -3  -8   51.04    4.02
  -4   3   8   50.96    4.33
  -4   3   8   41.50    2.55
  -4   3   8   51.29    2.98
   4   3  -8   52.04    3.91
   4   3  -8   47.30    3.21
   3  -3  -8    1.07    2.64
  -3  -3   8    0.13    1.05
   3   3  -8    2.33    1.48
   3   3  -8    1.24    1.67
  -3   3   8    1.30    1.76
  -3   3   8    2.45    2.65
   2  -3  -8   21.86    3.41
  -2  -3   8   23.25    2.01
   2  -3  -8   23.81    2.19
  -2   3   8   24.93    2.01
   2   3  -8   21.35    3.20
   2   3  -8   27.58    2.69
   1  -3  -8   43.01    3.88
   1  -3  -8   39.73    3.09
  -1  -3   8   39.47    2.45
  -1   3   8   48.91    2.51
   1   3  -8   43.88    3.43
   1   3  -8   45.52    3.93
   0  -3   8   19.36    1.81
   0  -3  -8   11.97    3.12
   0  -3  -8   13.06    2.42
   0   3   8   11.75    1.44
   0   3  -8   15.03    3.01
   0   3  -8   18.29    2.70
  -1  -3  -8    2.73    2.38
   1  -3   8    1.92    1.13
  -1  -3  -8    1.55    1.93
  -1   3  -8    4.06    2.22
   1   3   8    2.41    0.90
  -1   3  -8    2.41    2.73
  -2  -3  -8    5.19    2.23
  -2  -3  -8    7.48    2.66
   2  -3   8    1.82    1.13
  -2   3  -8    1.32    2.96
   2   3   8    1.61    0.79
  -2   3  -8    3.53    3.06
  -2   3  -8    2.94    2.51
  -3  -3  -8   -0.61    2.25
   3  -3   8    0.99    1.00
  -3  -3  -8    1.05    2.17
   3   3   8    0.35    0.63
  -3   3  -8   -1.57    2.93
  -3   3  -8    0.55    2.55
  -3   3  -8    2.50    3.18
   4  -3   8    7.23    1.49
  -4  -3  -8    4.49    2.48
  -4  -3  -8    6.51    2.55
  -4   3  -8    6.28    3.81
  -4   3  -8   -0.08    3.85
  -4   3  -8    4.70    2.98
  -5  -3  -8    9.28    3.03
   5  -3   8    9.66    1.56
  -5   3  -8    6.74    3.86
  -5   3  -8    9.95    3.49
   5   3   8    5.07    1.26
  -6  -3  -8    1.42    2.10
  -6   3  -8   -2.54    3.06
  -6   3  -8    5.58    3.92
  -6   3  -8    4.81    4.51
  -7  -3  -8   -3.15    2.48
  -7  -3  -8    0.46    2.88
   7  -3   8    2.58    1.32
  -7   3  -8    2.00    4.38
   7   3   8   -0.28    0.50
  -7   3  -8    5.10    4.27
  -7   3  -8    1.05    3.45
   8  -3   8    0.63    1.31
  -8  -3  -8   -2.74    2.93
  -8  -3  -8    0.39    2.80
  -8   3  -8    2.45    4.49
  -8   3  -8    4.56    4.87
  -8   3  -8   -6.08    3.45
   9  -3   8    3.81    1.80
  -9  -3  -8    3.40    3.16
  -9  -3  -8   -3.14    2.99
  -9   3  -8    5.39    4.78
  -9   3  -8   -7.35    4.01
  -9   3  -8   -1.22    3.53
 -10  -3  -8    3.59    3.79
  10  -3   8   -0.02    1.59
 -10  -3  -8    3.41    3.31
 -10   3  -8   -0.42    4.21
 -10   3  -8   -0.90    4.76
 -10   3  -8   -3.16    4.96
  11  -3   8   -0.34    1.79
 -11  -3  -8    5.73    6.35
 -11  -3  -8    0.93    4.16
 -11   3  -8   -2.12    4.17
 -11   3  -8    4.43    4.88
 -11   3  -8    7.53    5.60
  12  -3   8    1.30    1.94
 -12  -3  -8    6.99    4.40
 -12  -3  -8    1.32    4.22
 -12   3  -8   -5.30    4.90
 -12   3  -8   -4.39    4.30
 -12   3  -8    4.42    5.53
 -13  -3  -8   -0.15    3.88
 -13  -3  -8    1.25    4.77
  13  -3   8    0.73    2.07
 -13   3  -8   -0.23    4.56
 -13   3  -8    1.52    5.67
 -13   3  -8    1.82    5.26
 -16  -4   8   -1.71    2.31
 -16  -4   8   -2.47    2.65
 -16  -4   8   -0.03    2.75
 -16  -4   8   -0.44    2.75
 -16   4   8    2.14    4.05
 -15  -4   8   -1.04    2.28
 -15  -4   8    1.76    2.60
 -15   4   8   -2.81    2.30
 -15   4   8    1.51    3.10
 -14   4   8    3.31    2.51
 -14   4   8   -2.17    2.77
 -13  -4   8    1.17    2.16
 -13  -4   8    7.62    2.88
 -13   4   8   12.75    5.15
 -13   4   8    2.49    3.81
 -13   4   8    8.23    2.85
 -12  -4   8   12.76    2.64
 -12  -4   8    2.64    1.96
 -12   4   8    2.44    2.40
 -12   4   8    7.58    3.56
 -12   4   8    2.97    2.39
 -11  -4   8    2.73    1.97
 -11  -4   8    4.51    1.78
 -11   4   8    1.73    2.11
 -11   4   8    2.43    2.87
 -10  -4   8   -0.63    1.52
 -10  -4   8    3.75    2.17
 -10   4   8   -0.42    1.33
 -10   4   8    0.40    1.92
 -10   4   8    1.49    2.67
  -9  -4   8    6.74    1.85
  -9  -4   8    5.52    2.23
  -9   4   8    6.03    2.16
  -9   4   8    4.22    1.23
  -9   4   8    5.09    2.93
  -8  -4   8   36.46    2.89
  -8  -4   8   38.63    3.28
  -8   4   8   26.57    1.97
  -8   4   8   27.70    3.28
  -8   4   8   31.97    4.12
   7  -4  -8   51.14    3.07
  -7  -4   8   51.48    3.71
  -7  -4   8   71.28    4.16
   7   4  -8   59.76    3.92
  -7   4   8   50.53    3.77
   6  -4  -8   40.93    2.90
  -6  -4   8   35.65    2.69
   6   4  -8   37.18    3.38
  -6   4   8   27.61    3.82
  -6   4   8   36.03    3.02
  -5  -4   8   18.19    2.16
  -5   4   8   19.75    2.57
  -5   4   8   15.47    3.19
   5   4  -8   20.52    2.64
  -4  -4   8    8.44    1.64
   4  -4  -8    9.75    2.63
   4   4  -8    9.32    2.07
  -4   4   8    9.97    1.91
  -4   4   8    9.43    2.57
   3  -4  -8    3.75    2.32
  -3  -4   8    3.27    1.33
  -3   4   8    2.83    2.30
   3   4  -8    4.41    2.09
   2  -4  -8   -1.52    2.21
   2  -4  -8    3.74    1.34
  -2  -4   8    3.45    1.27
  -2   4   8    1.08    1.23
  -2   4   8    2.41    2.13
   2   4  -8    0.97    2.13
   2   4  -8   -1.80    1.58
  -1  -4   8    3.08    1.07
   1  -4  -8    2.70    1.69
   1  -4  -8    1.56    2.62
   1   4  -8    3.40    2.36
  -1   4   8    3.18    2.08
   1   4  -8    3.11    2.07
  -1   4   8    1.28    1.12
   0  -4  -8   26.19    2.74
   0  -4  -8   26.33    3.38
   0  -4   8   34.43    2.44
   0   4  -8   35.72    3.72
   0   4   8   31.78    3.33
   0   4   8   33.78    2.07
   0   4  -8   38.41    3.90
  -1  -4  -8   93.85    5.03
  -1  -4  -8  107.62    5.63
   1  -4   8  104.05    4.71
  -1   4  -8  110.84    6.29
  -1   4  -8  105.76    6.09
  -2  -4  -8   93.45    5.37
  -2  -4  -8   99.40    5.14
   2  -4   8   97.36    4.50
  -2   4  -8  104.05    6.16
   2   4   8  100.45    4.95
  -2   4  -8   81.97    5.80
   3  -4   8   29.13    2.25
  -3  -4  -8   31.03    3.12
  -3  -4  -8   26.16    3.51
  -3   4  -8   25.09    4.25
  -3   4  -8   28.65    3.95
   3   4   8   28.79    2.59
  -4  -4  -8   12.16    3.13
  -4  -4  -8   10.00    2.61
  -4   4  -8   10.08    4.41
   4   4   8   10.52    1.47
  -4   4  -8    7.14    3.57
  -5  -4  -8   17.49    3.16
  -5  -4  -8   10.86    3.19
   5  -4   8   19.13    2.17
  -5   4  -8   20.04    4.56
  -5   4  -8   17.16    3.90
  -5   4  -8   23.05    4.68
  -6  -4  -8   18.80    3.48
  -6  -4  -8   25.66    3.61
   6  -4   8   25.97    2.31
  -6   4  -8   15.81    4.09
  -6   4  -8   14.90    4.44
  -6   4  -8   11.22    4.52
   7  -4   8   15.71    2.16
  -7  -4  -8   12.18    3.25
  -7  -4  -8   13.11    3.22
  -7   4  -8    8.52    3.90
  -7   4  -8   10.79    4.90
  -7   4  -8    7.13    4.58
  -8  -4  -8    3.67    3.12
  -8  -4  -8    3.04    2.95
   8  -4   8    2.58    1.56
  -8   4  -8    1.60    4.75
  -8   4  -8    0.35    3.85
  -8   4  -8    5.08    5.12
  -9  -4  -8    5.68    3.39
  -9  -4  -8   -1.69    3.54
   9  -4   8    0.32    1.54
  -9   4  -8   -4.35    4.57
  -9   4  -8    2.23    4.10
  -9   4  -8   -2.34    4.73
  10  -4   8   -1.22    1.75
 -10  -4  -8    0.93    4.08
 -10   4  -8    2.00    4.83
 -10   4  -8    5.25    5.46
 -11  -4  -8    3.20    3.72
  11  -4   8    4.94    2.29
 -11  -4  -8    0.77    3.77
 -11   4  -8    1.80    4.92
 -11   4  -8    1.24    5.15
 -11   4  -8    2.68    4.58
  12  -4   8    0.08    2.14
 -12  -4  -8   -0.06    3.99
 -12  -4  -8    0.41    3.57
 -12   4  -8   10.18    6.82
 -12   4  -8   -4.14    5.83
 -12   4  -8    3.13    5.25
 -13   4  -8    8.19    5.38
 -15  -5   8   -2.08    2.46
 -15  -5   8   -0.68    2.02
 -15  -5   8    1.10    2.82
 -15   5   8   -1.01    3.33
 -14  -5   8    4.07    2.45
 -14  -5   8   -3.00    2.31
 -13  -5   8   -1.01    2.02
 -13  -5   8    3.02    2.40
 -13   5   8    1.53    2.55
 -13   5   8   -4.00    2.83
 -12  -5   8    1.06    1.81
 -12  -5   8    1.30    2.17
 -12   5   8    3.18    2.68
 -12   5   8   -4.05    2.80
 -11  -5   8   -0.79    1.89
 -11  -5   8   -1.62    1.76
 -11   5   8   -1.45    2.53
 -11   5   8    1.40    2.30
 -10  -5   8   -0.96    1.79
 -10  -5   8    1.37    1.55
 -10   5   8   -1.77    2.05
 -10   5   8    1.37    2.60
  -9  -5   8    0.74    1.35
  -9  -5   8   -1.45    1.80
  -9   5   8    1.52    2.41
  -9   5   8   -0.04    1.91
  -8  -5   8    2.55    1.54
  -8  -5   8    1.73    1.83
  -8   5   8    3.24    2.56
  -8   5   8   -0.59    1.78
  -7  -5   8   -0.56    1.96
   7  -5  -8    2.79    1.14
  -7  -5   8   -0.42    1.25
  -7   5   8    3.39    2.54
   7   5  -8    1.31    1.78
  -7   5   8    7.30    2.05
  -6  -5   8    2.57    1.43
   6  -5  -8    0.95    1.53
   6   5  -8   -1.55    1.71
  -6   5   8    3.18    1.82
  -6   5   8    2.52    2.32
  -5  -5   8   23.27    2.82
   5   5  -8   24.82    3.10
  -5   5   8   20.10    3.59
  -5   5   8   23.26    2.79
  -4  -5   8   26.58    2.33
   4  -5  -8   26.42    3.19
  -4   5   8   21.90    2.60
  -4   5   8   23.57    3.69
   4   5  -8   20.27    2.97
   3  -5  -8    5.37    2.31
  -3  -5   8    2.95    1.30
   3   5  -8   -0.86    1.68
  -3   5   8    2.87    1.52
  -3   5   8   -0.40    2.05
  -2  -5   8   13.99    1.97
   2  -5  -8   11.29    2.68
  -2   5   8   12.57    2.92
   2   5  -8   12.48    2.62
  -2   5   8    9.28    1.62
   1  -5  -8   20.70    2.22
  -1  -5   8   16.31    2.16
   1  -5  -8   19.34    3.21
  -1   5   8   21.77    1.74
  -1   5   8   14.85    2.70
   1   5  -8   17.67    3.05
   1   5  -8   18.58    3.23
   0  -5   8    7.64    1.64
   0  -5  -8    3.73    1.82
   0  -5  -8    2.01    2.20
   0   5   8    4.36    1.96
   0   5  -8    2.71    2.27
   0   5  -8    4.82    2.79
  -1  -5  -8    1.16    1.69
  -1  -5  -8    1.18    2.11
   1   5   8   -2.79    1.55
  -1   5  -8   -0.72    2.43
  -1   5  -8    0.19    2.38
  -2  -5  -8    5.07    2.08
   2  -5   8    1.23    1.20
  -2  -5  -8    0.63    2.15
   2   5   8    1.75    1.58
  -2   5  -8    2.56    2.93
  -3  -5  -8    0.55    2.14
  -3  -5  -8    1.24    2.34
   3  -5   8    0.42    1.15
   3   5   8    1.31    1.36
  -3   5  -8    1.00    3.26
  -3   5  -8   -1.96    2.62
   4  -5   8    2.06    1.34
  -4  -5  -8    2.79    2.53
  -4  -5  -8    0.51    2.25
  -4   5  -8    1.76    2.97
  -4   5  -8   10.55    3.95
   4   5   8    1.42    1.10
  -5  -5  -8    5.37    2.75
  -5  -5  -8    7.22    2.66
   5  -5   8   10.34    1.95
  -5   5  -8    4.64    3.31
  -5   5  -8    3.32    3.93
   6  -5   8    2.72    1.52
  -6  -5  -8    3.45    2.70
  -6  -5  -8    2.30    2.61
  -6   5  -8   -0.75    1.99
  -6   5  -8    0.20    3.65
  -6   5  -8    0.10    4.15
  -6   5  -8   -0.83    3.26
  -7  -5  -8   -3.61    2.42
  -7  -5  -8    0.38    2.76
   7  -5   8    0.39    1.53
  -7   5  -8    4.71    4.76
  -7   5  -8   -3.43    3.34
  -7   5  -8   -0.12    2.03
  -7   5  -8    0.06    3.85
  -8  -5  -8   -1.87    2.84
   8  -5   8   -0.10    1.62
  -8  -5  -8   -1.37    2.84
  -8   5  -8   -4.60    4.29
  -8   5  -8    4.11    4.17
  -8   5  -8    0.60    2.35
  -9  -5  -8    0.92    3.75
   9  -5   8   -0.74    1.71
  -9   5  -8    0.55    4.19
  -9   5  -8    1.67    5.09
  -9   5  -8    1.39    2.55
 -10  -5  -8    0.14    3.46
  10  -5   8   -1.20    1.95
 -10  -5  -8    3.63    3.54
 -10   5  -8   -0.13    5.38
 -10   5  -8    3.73    5.07
 -10   5  -8   -4.85    3.78
 -10   5  -8   -3.29    2.14
 -11  -5  -8   -3.50    3.37
  11  -5   8    1.03    2.25
 -11  -5  -8   -0.25    3.74
 -11   5  -8   -1.85    4.58
 -11   5  -8   -2.73    6.07
  12  -5   8    3.17    2.47
 -12  -5  -8   -0.51    3.62
 -12  -5  -8   -1.36    4.08
 -12   5  -8    9.07    6.83
 -12   5  -8    1.82    5.11
 -14  -6   8   -0.07    2.08
 -14  -6   8    2.67    2.76
 -14   6   8    1.97    3.78
 -13  -6   8    3.20    2.52
 -13  -6   8    0.97    2.33
 -13   6   8    0.69    3.61
 -12  -6   8    2.92    2.63
 -12  -6   8    3.64    1.99
 -12   6   8    1.20    3.61
 -11  -6   8    1.60    1.90
 -10  -6   8    9.39    2.36
 -10  -6   8   10.43    2.96
 -10   6   8   11.94    3.83
  -9  -6   8   12.59    3.05
  -9  -6   8    5.18    1.88
  -9   6   8   12.56    3.77
  -8  -6   8    0.76    1.38
  -8  -6   8   -3.79    1.70
   8   6  -8    0.78    1.94
  -8   6   8    0.78    2.57
  -7  -6   8   -0.47    1.98
   7  -6  -8    0.85    0.99
  -7  -6   8    0.65    1.33
   7   6  -8    1.53    2.25
  -7   6   8   -1.07    2.21
  -6  -6   8   11.01    2.58
  -6  -6   8    6.04    1.82
   6  -6  -8    4.76    1.68
  -6   6   8    1.74    2.76
   6   6  -8    5.04    2.31
  -5  -6   8   15.67    2.42
   5  -6  -8   20.82    2.89
   5   6  -8   16.43    2.97
  -5   6   8   17.19    3.41
   4  -6  -8   25.91    3.22
  -4  -6   8   29.21    2.66
   4   6  -8   29.47    3.58
  -3  -6   8   39.11    3.02
   3  -6  -8   37.63    3.94
  -3   6   8   45.10    4.71
   3   6  -8   44.88    4.26
  -2  -6   8   60.73    3.66
   2  -6  -8   52.60    4.30
   2   6  -8   48.03    4.46
  -2   6   8   63.67    4.78
   1  -6  -8   50.48    4.22
  -1  -6   8   47.17    3.27
   1  -6  -8   44.08    2.80
   1   6  -8   54.44    4.70
  -1   6   8   47.55    4.45
   0  -6   8   19.10    2.36
   0  -6  -8   16.86    3.20
   0  -6  -8   15.55    2.21
   0   6  -8   21.91    3.51
   0   6   8   13.47    2.71
  -1  -6  -8    0.17    2.04
  -1  -6  -8   -0.52    1.69
   1  -6   8   -0.05    1.21
   1   6   8    2.44    1.74
  -1   6  -8   -1.14    2.46
  -2  -6  -8   -1.90    1.66
  -2  -6  -8    0.45    2.10
   2  -6   8    0.41    1.31
   2   6   8   -0.04    1.59
  -2   6  -8   -1.08    2.48
  -2   6  -8   -2.39    2.55
  -3  -6  -8    6.64    2.34
  -3  -6  -8    4.91    2.58
   3  -6   8    7.53    1.74
   3   6   8    7.06    1.65
  -3   6  -8    3.72    3.08
  -3   6  -8    2.45    2.93
   4  -6   8   15.55    2.32
  -4  -6  -8   16.30    3.08
  -4  -6  -8   12.82    3.10
  -4   6  -8    7.99    3.60
  -4   6  -8    7.83    3.50
   4   6   8   12.36    1.85
  -5  -6  -8    6.29    2.60
   5  -6   8    9.43    2.17
  -5  -6  -8    5.25    2.77
  -5   6  -8    4.18    3.68
  -5   6  -8    3.86    2.42
  -5   6  -8    7.32    3.60
  -6  -6  -8    2.99    2.69
   6  -6   8    3.19    1.77
  -6  -6  -8    2.08    2.60
  -6   6  -8    0.64    3.21
  -6   6  -8   -1.94    3.40
  -6   6  -8   -0.11    2.08
  -7  -6  -8   -0.51    2.70
   7  -6   8    2.68    1.88
  -7  -6  -8   -0.85    2.71
  -7   6  -8    7.81    4.27
  -7   6  -8    7.01    2.95
  -7   6  -8    5.32    4.22
  -8  -6  -8   11.89    6.68
  -8  -6  -8    3.05    3.47
  -8   6  -8    0.64    7.66
  -8   6  -8   12.29    3.46
  -9  -6  -8   10.60    4.26
   9  -6   8    8.32    2.70
  -9   6  -8    8.61    4.82
  -9   6  -8   -0.24    4.10
  -9   6  -8    7.15    6.81
 -10  -6  -8    0.34    3.51
  10  -6   8    2.72    2.23
 -10  -6  -8    5.42    3.70
 -10   6  -8    1.89    2.84
 -10   6  -8    5.64    5.87
 -10   6  -8    1.48    4.58
 -11  -6  -8    7.71    4.36
  11  -6   8    3.37    2.76
 -11  -6  -8   -5.59    3.33
 -11   6  -8   16.85    7.07
 -11   6  -8   -2.38    2.57
 -11   6  -8   -0.89    4.59
 -13  -7   8    1.74    2.16
 -13  -7   8   -5.21    2.47
 -13   7   8    0.30    3.08
 -12  -7   8   -2.58    2.32
 -12  -7   8    5.81    2.01
 -12   7   8   -1.01    3.33
 -11  -7   8   -2.00    2.18
 -11  -7   8   -3.50    1.65
 -11   7   8   -2.05    3.26
 -10  -7   8    0.48    1.64
 -10  -7   8    1.84    2.46
 -10   7   8   -2.72    2.85
  -9  -7   8   -1.62    1.61
  -9  -7   8    0.10    2.59
  -9   7   8   -1.57    3.66
  -8  -7   8    2.69    1.70
  -8  -7   8    0.65    2.21
   8   7  -8    0.69    2.26
  -8   7   8    1.51    3.25
  -7  -7   8    4.12    2.38
  -7  -7   8    0.65    1.52
  -7   7   8    0.47    2.79
   7   7  -8    1.69    2.31
  -6  -7   8   -0.39    2.04
   6  -7  -8    0.32    1.57
  -6  -7   8    4.18    1.65
  -6   7   8   -0.06    2.65
   6   7  -8    1.58    2.22
   5  -7  -8    3.31    2.11
  -5  -7   8    7.58    1.83
   5   7  -8    6.34    2.54
  -5   7   8    7.74    3.15
   4  -7  -8    3.42    2.27
  -4  -7   8    5.10    1.80
   4   7  -8    6.52    2.62
  -4   7   8    6.42    2.98
  -3  -7   8   -0.34    1.42
   3  -7  -8   -0.76    2.24
  -3   7   8    1.35    2.57
   3   7  -8   -2.64    2.11
   2  -7  -8    6.43    2.61
  -2  -7   8    5.82    1.84
   2   7  -8    3.48    2.46
  -2   7   8    5.32    2.91
   1  -7  -8    5.83    1.39
  -1  -7   8    7.12    1.81
   1  -7  -8    7.26    2.77
  -1   7   8    6.39    2.60
   1   7  -8    6.58    2.85
   0  -7  -8    1.65    1.49
   0  -7   8    3.07    1.56
   0   7   8   -0.13    2.03
   0   7  -8    0.75    2.45
  -1  -7  -8   -0.21    2.31
   1  -7   8    0.63    1.33
  -1  -7  -8    0.95    1.60
  -1   7  -8   -0.46    2.52
   1   7   8   -1.65    1.78
  -2  -7  -8    0.30    2.21
  -2  -7  -8   -0.83    1.69
   2  -7   8    1.18    1.46
  -2   7  -8   -2.82    2.57
   2   7   8    2.19    1.84
  -3  -7  -8    2.92    2.50
   3  -7   8    1.23    1.57
  -3  -7  -8    0.57    2.10
  -3   7  -8    5.50    3.35
  -4  -7  -8   -1.71    2.31
   4  -7   8    1.86    1.67
  -4   7  -8    4.02    3.35
  -5  -7  -8    4.14    2.98
   5  -7   8    3.56    1.91
  -5  -7  -8    2.84    2.68
  -5   7  -8    0.44    2.48
  -5   7  -8    4.01    3.57
  -6  -7  -8    3.58    2.99
  -6  -7  -8   -0.38    3.00
  -6   7  -8   -1.14    2.34
  -6   7  -8   11.64    7.14
   7  -7   8    0.70    2.05
  -7  -7  -8   -0.19    2.96
  -7  -7  -8    2.56    3.07
  -7   7  -8   -1.28    4.05
  -8  -7  -8   -0.85    3.13
  -8  -7  -8    4.12    3.68
   8  -7   8    0.18    2.41
  -8   7  -8    1.56    2.98
  -8   7  -8   -7.78    3.93
  -9  -7  -8    0.59    3.55
  -9  -7  -8    1.17    3.41
   9  -7   8   -0.69    2.29
  -9   7  -8   -1.10    4.41
  -9   7  -8    1.30    2.99
 -10  -7  -8   -0.36    3.95
 -10  -7  -8   -0.05    3.81
  10  -7   8    1.08    2.45
 -10   7  -8    0.16    3.02
 -10   7  -8   -6.84    3.98
 -12  -8   8   -0.05    1.65
 -12   8   8   -2.41    4.18
 -11  -8   8   -1.47    1.98
 -11  -8   8    1.13    3.26
 -11   8   8    2.74    3.70
 -10  -8   8    0.51    2.41
 -10   8   8   -6.66    3.31
  -9  -8   8    0.06    2.46
  -9  -8   8    3.12    2.02
  -9   8   8    4.26    3.87
  -8  -8   8    7.34    2.15
  -8  -8   8   19.74    3.92
  -8   8   8    8.02    3.95
   8   8  -8    4.02    2.75
  -7  -8   8   18.98    6.42
  -7  -8   8   14.52    2.58
  -7   8   8    9.24    3.96
  -6  -8   8    6.14    2.91
  -6  -8   8    7.67    2.01
  -6   8   8    5.84    3.60
   6   8  -8   12.57    3.20
  -5  -8   8    5.28    2.16
  -5  -8   8    5.59    2.60
   5   8  -8    1.85    2.70
  -5   8   8    3.40    3.15
   4  -8  -8    1.02    2.33
  -4  -8   8    1.60    1.60
  -4   8   8    5.49    3.23
   4   8  -8    2.49    2.55
   3  -8  -8    6.39    2.63
  -3  -8   8    3.06    1.64
  -3   8   8    0.26    2.51
   3   8  -8    2.65    2.63
   2  -8  -8   -0.77    2.51
  -2  -8   8    1.28    1.45
   2   8  -8   -1.06    2.51
  -2   8   8    2.12    2.73
   1  -8  -8    5.30    2.92
  -1  -8   8    0.91    1.52
  -1   8   8    3.31    2.57
   1   8  -8    2.85    2.79
   0  -8   8    5.96    1.91
   0  -8  -8    9.62    3.08
   0   8  -8    4.50    3.19
   0   8   8    5.44    2.66
  -1  -8  -8   26.98    3.94
   1  -8   8   25.86    2.98
  -1  -8  -8   20.15    2.55
  -1   8  -8   24.65    4.39
   1   8   8   14.74    2.98
   2  -8   8   25.58    2.99
  -2  -8  -8   24.86    3.99
  -2  -8  -8   20.73    2.93
  -2   8  -8   16.90    4.25
   2   8   8   15.17    2.67
  -3  -8  -8   10.70    3.24
   3  -8   8    8.58    2.20
  -3  -8  -8   10.17    2.74
  -3   8  -8    2.33    3.55
  -4  -8  -8    3.65    2.54
  -4  -8  -8    3.80    2.95
  -4   8  -8    4.49    3.84
   5  -8   8    7.40    2.39
  -5  -8  -8    2.71    2.61
  -5   8  -8   -0.20    3.61
  -5   8  -8    2.16    2.77
  -6  -8  -8    6.92    2.96
  -6  -8  -8    5.34    3.40
   6  -8   8    7.78    2.60
  -6   8  -8    7.44    4.16
  -6   8  -8    5.46    3.07
  -7  -8  -8    3.81    3.19
   7  -8   8    4.53    2.46
  -7  -8  -8    1.58    3.30
  -7   8  -8    4.57    2.88
  -7   8  -8    1.60    4.09
   8  -8   8    1.68    2.22
  -8  -8  -8    0.03    3.32
  -8  -8  -8    2.18    3.72
  -8   8  -8   -7.20    4.20
  -8   8  -8    0.47    3.24
 -10  -9   8    1.63    1.91
 -10  -9   8   -0.16    2.96
 -10   9   8    6.69    4.10
  -9  -9   8    3.46    2.05
  -9  -9   8   -3.27    2.48
  -9   9   8   -3.70    3.04
  -8  -9   8   -0.37    1.85
  -8  -9   8    2.11    2.89
  -8   9   8    2.13    3.33
   8   9  -8    1.17    2.60
  -7  -9   8    2.70    2.66
   7   9  -8    1.29    2.40
  -7   9   8    1.90    3.22
  -6  -9   8    0.09    2.61
  -6  -9   8    2.13    1.77
   6   9  -8   -2.48    2.25
  -6   9   8    2.14    3.25
  -5  -9   8    2.39    2.71
  -5  -9   8    0.23    1.71
  -5   9   8   -0.87    3.69
   5   9  -8    4.45    2.59
  -4  -9   8    6.76    2.90
  -4  -9   8    1.12    1.89
   4   9  -8    2.87    2.85
  -4   9   8    0.51    3.16
   3  -9  -8   -1.92    2.61
  -3  -9   8    0.23    1.70
   3   9  -8   -2.06    2.29
  -3   9   8    0.68    2.86
   2  -9  -8    0.50    2.60
  -2  -9   8    2.90    1.88
   2   9  -8   -1.10    3.04
  -2   9   8   -6.96    2.52
  -1  -9   8    2.79    2.10
   1  -9  -8    2.43    2.75
  -1   9   8    2.73    2.77
   1   9  -8   -0.62    2.70
   0  -9  -8   -0.66    2.38
   0   9   8    3.25    2.53
   0   9  -8    2.02    3.21
  -1  -9  -8   -2.41    2.67
   1  -9   8   -1.12    1.62
   1   9   8    1.38    3.11
  -1   9  -8   -1.86    3.06
   2  -9   8    1.65    1.73
  -2  -9  -8    1.66    2.72
  -2   9  -8   -1.00    2.96
  -3  -9  -8    1.21    2.36
   3  -9   8    2.45    1.94
  -3  -9  -8   -0.32    3.06
  -3   9  -8    1.70    3.51
  -4  -9  -8   -1.55    2.43
   4  -9   8   -2.15    1.68
  -4  -9  -8   -0.32    3.03
  -4   9  -8    1.49    3.53
  -5  -9  -8   -2.10    2.44
  -5  -9  -8    0.40    3.05
   5  -9   8    3.23    2.24
  -5   9  -8   -2.08    3.55
   6  -9   8   -0.65    1.96
  -6  -9  -8   -0.91    2.64
  -6  -9  -8    4.44    3.28
  -6   9  -8    1.91    4.18
  -7 -10   8    2.01    2.71
  -7 -10   8    1.41    1.77
   7  10  -8   -3.47    2.39
  -7  10   8    4.26    4.32
  -6 -10   8   -1.48    2.66
  -6 -10   8    0.87    1.80
   6  10  -8    0.63    2.87
  -6  10   8    0.64    3.30
  -5 -10   8    2.28    2.02
  -5 -10   8    3.09    3.10
   5  10  -8    5.46    3.21
  -5  10   8    0.37    3.69
  -4 -10   8    2.77    2.33
  -4 -10   8    2.90    2.90
   4  10  -8    5.60    3.45
  -4  10   8    1.93    3.45
  -3 -10   8    3.31    2.09
  -3 -10   8    3.18    2.64
   3  10  -8    3.24    3.15
  -2 -10   8    7.13    2.33
  -2  10   8    8.37    3.67
   2  10  -8   -2.05    2.91
  -1 -10   8    7.37    2.47
   1 -10  -8    4.16    3.04
   1  10  -8    6.20    3.51
  -1  10   8    6.44    3.26
   0 -10  -8   -0.96    2.86
   0 -10   8    4.01    2.02
   0  10  -8   -4.10    3.03
   0  10   8    0.09    2.88
  -1 -10  -8   -6.37    2.82
   1 -10   8    1.30    1.90
  -1  10  -8    1.29    3.37
   2 -10   8   -0.48    1.86
  -2 -10  -8    5.92    3.39
  -2  10  -8   -1.52    3.03
  -3 -10  -8    2.23    3.17
   3 -10   8   -1.05    2.10
  -3  10  -8    6.46    4.24
   4 -10   8    1.41    2.46
  -4  10  -8    2.06    3.84
 -16   0   9    1.17    2.52
 -16   0   9    5.73    3.53
 -16   0   9    2.12    2.41
 -15   0   9    0.49    2.16
 -15   0   9   -1.82    1.91
 -15   0   9   -3.36    3.39
 -14   0   9    4.00    2.92
 -14   0   9   -0.45    1.85
 -13   0   9    7.56    2.19
 -13   0   9   11.91    3.31
 -13   0   9    6.38    2.51
 -12   0   9   13.04    2.72
 -12   0   9   10.46    3.21
 -12   0   9   12.59    2.20
 -11   0   9   11.12    2.26
 -11   0   9    5.21    1.65
 -10   0   9    2.23    1.71
 -10   0   9    4.41    1.44
  -9   0   9    5.25    1.75
  -9   0   9    6.31    1.47
  -8   0   9    6.63    1.77
  -8   0   9   14.49    1.84
  -7   0   9    8.34    1.77
  -7   0   9    9.87    1.62
   7   0  -9    8.53    2.33
   6   0  -9    8.56    2.27
  -6   0   9    7.87    1.68
   5   0  -9   24.44    3.13
  -5   0   9   23.61    2.12
   4   0  -9   46.91    2.35
  -4   0   9   50.68    2.83
   4   0  -9   47.41    3.88
  -3   0   9   31.14    2.12
   3   0  -9   27.65    1.82
   3   0  -9   30.69    3.61
   2   0  -9   -0.76    1.88
   2   0  -9    2.16    1.03
  -2   0   9    1.32    0.99
   1   0  -9    7.07    3.17
  -1   0   9    9.98    1.39
   1   0  -9    9.61    1.59
   0   0  -9   73.33    5.61
   0   0  -9   80.95    4.23
   0   0   9   84.16    3.65
   0   0  -9   80.90    5.01
   1   0   9  185.63    6.86
  -1   0  -9  181.15    8.56
  -1   0  -9  178.34    8.74
  -1   0  -9  179.39    7.54
  -2   0  -9  110.01    6.58
  -2   0  -9  122.57    6.78
  -2   0  -9  135.87    6.31
   2   0   9  131.93    5.07
  -3   0  -9   14.18    3.13
  -3   0  -9   13.13    3.96
   3   0   9   24.82    1.77
  -3   0  -9   19.63    3.84
  -4   0  -9    3.62    3.48
   4   0   9    4.04    0.96
  -4   0  -9   -1.80    2.94
  -4   0  -9   -1.53    2.78
  -5   0  -9    2.36    2.89
  -5   0  -9    5.80    3.56
  -5   0  -9   -0.04    3.61
   5   0   9    4.79    1.02
  -6   0  -9    4.04    3.17
  -6   0  -9    1.22    3.74
   6   0   9    4.93    1.14
  -6   0  -9    3.45    3.62
   7   0   9    0.71    0.97
  -7   0  -9    2.44    3.60
  -7   0  -9   -2.19    3.49
  -7   0  -9    2.02    3.64
  -8   0  -9   -1.66    3.28
  -8   0  -9   -1.15    3.69
  -8   0  -9   -1.10    3.68
   8   0   9    1.15    1.06
  -9   0  -9    0.18    4.29
   9   0   9    2.52    1.25
  -9   0  -9    7.48    4.02
  -9   0  -9   -3.86    3.67
 -10   0  -9   -2.09    4.08
 -10   0  -9    8.48    4.93
  10   0   9    9.19    1.81
 -10   0  -9    2.24    4.12
  11   0   9    5.01    1.77
 -11   0  -9    5.22    4.93
 -11   0  -9   -1.28    4.38
 -12   0  -9    0.92    5.37
  12   0   9   -0.06    1.67
 -12   0  -9   -2.22    4.36
 -12   0  -9    3.39    5.71
 -13   0  -9    2.85    4.89
 -13   0  -9    1.39    5.07
 -13   0  -9    2.75    5.10
  13   0   9    0.31    2.02
 -16  -1   9    2.51    2.53
 -16  -1   9    1.30    2.37
 -16  -1   9    3.80    3.36
 -16  -1   9   -1.77    2.22
 -16   1   9   -1.70    2.23
 -16   1   9    0.71    3.54
 -15  -1   9    0.86    2.16
 -15  -1   9   -0.48    2.10
 -15  -1   9   -2.53    3.06
 -15   1   9    5.17    2.24
 -15   1   9   -2.08    2.41
 -14  -1   9    0.16    1.68
 -14  -1   9   -0.06    2.92
 -14   1   9    2.59    1.87
 -14   1   9    0.48    2.68
 -14   1   9   -2.59    2.60
 -13  -1   9    1.49    2.28
 -13  -1   9    0.34    1.74
 -13   1   9    1.68    2.11
 -13   1   9    1.48    3.00
 -13   1   9    2.07    1.54
 -12  -1   9   -1.83    1.61
 -12   1   9   -0.95    2.29
 -12   1   9   -1.88    1.60
 -12   1   9   -1.16    1.19
 -11  -1   9   -0.55    1.58
 -11  -1   9    1.45    1.52
 -11   1   9    0.14    1.83
 -11   1   9   -0.14    2.23
 -11   1   9    0.85    1.16
 -10  -1   9    8.02    1.82
 -10  -1   9   10.24    2.07
 -10   1   9    5.31    2.07
 -10   1   9    8.54    1.51
  -9  -1   9    8.87    1.95
  -9  -1   9    7.24    1.70
  -9   1   9    7.54    1.98
  -8  -1   9    0.58    1.30
  -8  -1   9    0.89    1.13
  -8   1   9    0.59    0.92
  -8   1   9    2.67    1.50
  -7  -1   9    4.10    1.49
   7  -1  -9    7.66    2.21
  -7  -1   9    8.86    1.70
  -7   1   9    4.38    1.61
  -7   1   9    5.23    1.18
  -6  -1   9    0.79    1.22
   6  -1  -9    2.22    1.83
   6   1  -9    0.81    1.83
  -6   1   9    0.48    1.21
  -5  -1   9    7.49    1.53
   5  -1  -9    5.05    2.42
   5   1  -9    6.27    1.30
   5   1  -9   12.44    2.60
  -5   1   9    7.18    1.59
   4  -1  -9    9.44    2.53
  -4  -1   9    8.79    1.55
  -4   1   9    5.86    1.40
   4   1  -9    7.54    2.49
   4   1  -9    8.71    1.40
  -3  -1   9    3.18    1.20
   3  -1  -9    7.07    2.74
   3   1  -9    7.34    1.43
  -3   1   9    4.25    1.28
   3   1  -9    7.84    2.65
   2  -1  -9   18.72    3.51
  -2  -1   9   21.62    1.84
   2   1  -9   16.56    1.92
  -2   1   9   18.34    1.70
   2   1  -9   13.34    3.06
   1  -1  -9   14.32    2.76
   1  -1  -9   11.96    1.40
   1  -1  -9   14.80    3.58
  -1  -1   9   13.68    1.63
   1   1  -9   16.14    2.12
   1   1  -9   17.33    2.96
  -1   1   9   11.97    1.51
   0  -1  -9    5.76    3.18
   0  -1   9    2.06    1.06
   0  -1  -9    3.58    1.53
   0  -1  -9   -0.64    2.13
   0   1  -9    0.83    2.81
   0   1   9    3.12    1.05
   0   1  -9    1.93    2.60
   0   1  -9    0.95    1.79
  -1  -1  -9    1.82    2.57
   1  -1   9    1.23    0.96
  -1  -1  -9    0.97    1.80
  -1  -1  -9    2.65    3.16
  -1   1  -9    2.82    2.89
  -1   1  -9   -0.52    2.04
  -1   1  -9    1.63    2.48
  -2  -1  -9   -2.70    2.96
  -2  -1  -9    4.61    2.29
  -2  -1  -9    2.02    3.13
   2  -1   9    1.10    0.95
  -2   1  -9   -1.64    3.38
  -2   1  -9   -0.96    2.01
  -2   1  -9   -0.43    2.97
  -3  -1  -9    6.78    3.15
  -3  -1  -9    2.13    3.21
  -3  -1  -9    5.83    2.65
  -3   1  -9    3.81    3.45
  -3   1  -9   11.78    3.12
  -3   1  -9   12.59    3.29
  -4  -1  -9   35.36    3.72
   4  -1   9   33.98    2.09
  -4  -1  -9   28.19    4.07
  -4  -1  -9   27.53    4.26
  -4   1  -9   24.22    3.60
  -4   1  -9   32.10    4.57
   4   1   9   35.46    1.92
  -4   1  -9   28.05    4.52
  -5  -1  -9   11.84    3.64
   5  -1   9   18.02    1.62
   5   1   9   21.06    1.49
  -5   1  -9    5.86    3.82
  -5   1  -9   15.09    3.54
  -6  -1  -9    0.35    3.31
   6  -1   9    0.47    1.04
  -6  -1  -9    4.04    3.48
  -6   1  -9   -1.71    2.88
  -6   1  -9    1.99    3.71
   6   1   9   -1.38    0.70
  -6   1  -9    2.55    4.17
  -7  -1  -9    7.08    3.74
  -7  -1  -9    9.71    3.94
   7  -1   9    6.85    1.46
   7   1   9    7.19    1.23
  -7   1  -9    1.88    3.95
  -7   1  -9    7.57    3.63
  -7   1  -9    3.56    3.26
  -8  -1  -9    1.09    3.61
  -8  -1  -9    1.59    3.50
   8   1   9    2.19    1.11
  -8   1  -9    4.87    4.16
  -8   1  -9   -1.13    4.14
  -8   1  -9    5.47    3.73
  -9  -1  -9   -2.36    3.72
  -9  -1  -9    6.75    4.19
   9  -1   9   -1.20    1.18
  -9   1  -9    4.27    4.30
  -9   1  -9    0.80    4.56
   9   1   9   -0.77    1.12
  -9   1  -9   -4.90    4.07
 -10  -1  -9    6.29    4.35
 -10  -1  -9   -0.97    3.83
  10  -1   9   -0.86    1.25
 -10   1  -9    5.05    5.04
  10   1   9    0.32    1.20
 -10   1  -9    2.89    4.69
 -10   1  -9    5.59    4.34
 -11  -1  -9   -4.05    7.52
  11  -1   9   -1.88    1.38
 -11  -1  -9    2.46    5.02
 -11   1  -9   -0.46    4.52
 -11   1  -9    3.64    4.63
  11   1   9    1.07    1.63
 -11   1  -9   -0.64    4.66
 -12  -1  -9    2.11    4.46
  12  -1   9   -0.04    1.65
 -12  -1  -9   -5.31    4.31
 -12   1  -9    6.81    5.75
 -12   1  -9   11.46    5.57
 -12   1  -9   -3.99    4.85
 -13  -1  -9   -1.58    4.92
 -13  -1  -9    2.80    5.05
 -13   1  -9   -7.87    4.69
 -13   1  -9   -2.89    4.88
 -13   1  -9    8.38    4.74
 -16  -2   9    5.25    4.13
 -16  -2   9    3.85    2.92
 -16  -2   9    4.83    2.64
 -16   2   9    1.89    2.70
 -16   2   9    0.31    3.85
 -15  -2   9    1.64    2.84
 -15  -2   9    4.46    2.43
 -15  -2   9    3.31    2.28
 -15   2   9    0.40    2.52
 -15   2   9    3.39    3.18
 -14  -2   9    2.36    2.18
 -14  -2   9    2.77    2.71
 -14   2   9   -2.01    1.99
 -14   2   9    3.82    4.27
 -13  -2   9    0.60    1.96
 -13  -2   9   -0.29    1.85
 -13   2   9    1.43    2.81
 -13   2   9   -0.81    2.18
 -13   2   9   -1.61    1.96
 -12  -2   9   -0.06    1.69
 -12  -2   9   -1.30    1.61
 -12   2   9    0.21    1.35
 -12   2   9   -1.43    2.33
 -12   2   9    1.83    1.97
 -11  -2   9    1.90    1.84
 -11  -2   9    2.60    1.79
 -11   2   9    3.67    2.05
 -11   2   9    2.26    2.58
 -11   2   9    2.89    1.22
 -10  -2   9   15.16    2.45
 -10  -2   9   12.29    2.31
 -10   2   9    7.63    2.31
 -10   2   9    7.40    1.28
 -10   2   9   11.21    3.17
  -9  -2   9   11.69    2.15
  -9  -2   9   13.61    2.10
  -9   2   9   10.88    1.32
  -9   2   9   13.10    2.39
  -9   2   9    9.43    2.81
  -8  -2   9   17.32    2.51
  -8  -2   9   10.86    2.34
  -8   2   9   11.86    3.16
  -8   2   9   18.93    2.55
  -8   2   9   14.28    1.34
  -7  -2   9   23.33    2.35
   7  -2  -9   25.96    2.78
  -7   2   9   25.83    1.57
  -7   2   9   25.59    2.53
  -6  -2   9   37.47    2.68
   6  -2  -9   34.30    3.30
   6   2  -9   35.67    2.71
  -6   2   9   34.63    1.89
  -6   2   9   37.08    2.79
  -5  -2   9   26.59    2.25
   5  -2  -9   20.53    2.95
   5   2  -9   21.63    2.27
   5   2  -9   28.86    3.41
  -5   2   9   24.91    2.47
  -4  -2   9   12.73    1.77
   4  -2  -9   12.87    2.99
  -4   2   9   13.93    1.93
   4   2  -9   16.81    2.12
   4   2  -9    6.30    2.55
   3  -2  -9   40.45    3.99
  -3  -2   9   35.47    2.37
   3   2  -9   35.61    2.67
   3   2  -9   35.46    3.28
  -3   2   9   36.62    2.54
  -2  -2   9   92.85    4.36
   2  -2  -9   92.35    5.76
  -2   2   9   95.34    4.28
   2   2  -9   93.93    5.63
   2   2  -9  106.07    4.97
   1  -2  -9   72.50    4.23
  -1  -2   9   66.37    3.50
   1  -2  -9   78.20    3.34
   1  -2  -9   70.28    5.19
   1   2  -9   72.55    4.30
  -1   2   9   66.41    3.35
   1   2  -9   75.62    5.11
   0  -2  -9    2.18    2.98
   0  -2   9    4.72    1.25
   0  -2  -9    4.97    1.44
   0  -2  -9    5.25    2.53
   0   2  -9    5.41    3.04
   0   2  -9    5.90    2.26
   0   2   9    3.55    1.01
   1  -2   9    5.70    1.28
  -1  -2  -9   10.49    3.24
  -1  -2  -9    6.40    1.91
  -1  -2  -9    7.34    2.88
   1   2   9    4.93    1.01
  -1   2  -9   11.11    2.41
  -1   2  -9    6.25    3.16
  -1   2  -9    3.72    3.14
  -2  -2  -9    1.92    2.88
  -2  -2  -9   -0.26    2.46
   2  -2   9    1.24    1.02
   2   2   9    2.11    0.82
  -2   2  -9    0.18    2.94
  -2   2  -9    4.71    2.41
  -2   2  -9    0.57    3.02
  -3  -2  -9   14.37    3.13
   3  -2   9   14.09    1.71
  -3  -2  -9   13.18    2.97
   3   2   9   19.80    1.37
  -3   2  -9    7.41    3.94
  -3   2  -9   14.65    3.14
  -3   2  -9   14.50    3.90
  -4  -2  -9   29.93    4.62
  -4  -2  -9   40.60    4.21
   4  -2   9   37.38    2.36
   4   2   9   41.80    2.02
  -4   2  -9   36.84    5.12
  -4   2  -9   30.43    4.94
  -4   2  -9   31.56    4.08
  -5  -2  -9   22.07    4.03
  -5  -2  -9   23.59    4.04
   5  -2   9   23.65    1.92
  -5   2  -9   17.68    4.68
  -5   2  -9   20.45    4.69
  -5   2  -9   16.64    3.65
   5   2   9   23.97    1.55
  -6  -2  -9   13.61    3.85
   6  -2   9   21.36    1.96
  -6  -2  -9   14.69    3.20
   6   2   9   18.20    1.40
  -6   2  -9   13.83    4.55
  -6   2  -9    8.80    3.71
   7  -2   9   23.26    2.37
  -7  -2  -9   16.43    4.22
  -7  -2  -9   16.15    4.12
  -7   2  -9    8.09    3.96
  -7   2  -9   14.08    5.26
   7   2   9   23.91    2.27
  -7   2  -9   13.67    4.54
  -8  -2  -9    9.16    4.06
   8  -2   9   15.91    2.11
  -8  -2  -9    8.66    3.97
   8   2   9   12.39    1.80
  -8   2  -9   12.22    4.84
  -8   2  -9   17.30    4.27
  -8   2  -9   12.85    4.68
  -9  -2  -9   -1.91    3.56
   9  -2   9    1.82    1.35
  -9  -2  -9    0.82    3.72
  -9   2  -9    5.08    4.82
  -9   2  -9    1.90    3.89
  -9   2  -9   -1.02    4.44
   9   2   9    2.24    1.05
  10  -2   9   -0.13    1.45
 -10  -2  -9    1.80    6.76
 -10  -2  -9   -0.95    3.86
 -10   2  -9    7.55    4.75
 -10   2  -9    1.05    8.16
 -10   2  -9    0.48    4.27
 -11  -2  -9   -3.36    4.02
  11  -2   9    0.66    1.71
 -11  -2  -9    2.26    4.60
 -11   2  -9   -0.79    4.18
 -11   2  -9   -1.70    4.73
 -11   2  -9    3.60    4.67
 -12  -2  -9    0.29    4.59
 -12  -2  -9    3.93    4.40
 -12   2  -9    4.61    5.42
 -12   2  -9   -3.58    4.88
 -12   2  -9    1.87    4.50
 -13  -2  -9    2.31    5.17
  13  -2   9   -1.57    1.86
 -13  -2  -9   -3.57    4.87
 -13   2  -9   -0.15    5.08
 -13   2  -9    5.63    5.58
 -13   2  -9    1.56    4.46
 -16  -3   9    0.65    2.36
 -16  -3   9   -3.24    2.05
 -16  -3   9   -0.11    2.65
 -16  -3   9    2.77    3.32
 -16   3   9    8.59    4.14
 -16   3   9    4.99    2.78
 -15  -3   9    4.18    2.69
 -15  -3   9   -2.62    3.01
 -15  -3   9    1.12    2.48
 -15   3   9   -1.43    2.99
 -15   3   9   -0.14    2.43
 -14  -3   9    0.75    2.27
 -14  -3   9   -1.22    2.40
 -14   3   9   -1.14    3.35
 -14   3   9    3.26    2.68
 -13  -3   9    1.87    2.33
 -13  -3   9    6.33    2.20
 -13   3   9   -2.09    2.11
 -13   3   9   -2.25    2.81
 -12  -3   9    2.22    1.94
 -12  -3   9   -0.65    1.66
 -12   3   9    4.29    2.44
 -12   3   9    3.29    2.32
 -12   3   9    3.42    2.87
 -11  -3   9    1.68    1.81
 -11  -3   9   -1.57    1.50
 -11   3   9   -1.83    1.62
 -11   3   9   -1.32    2.28
 -11   3   9   -0.77    1.82
 -10  -3   9    5.41    1.93
 -10  -3   9    6.59    2.05
 -10   3   9    5.07    2.51
 -10   3   9    3.17    1.43
 -10   3   9    0.53    2.78
  -9  -3   9    5.37    1.72
  -9  -3   9    5.55    2.02
  -9   3   9    2.94    2.39
  -9   3   9    3.23    1.97
  -8  -3   9    0.49    1.65
  -8  -3   9    0.10    1.28
   8  -3  -9    1.89    1.47
  -8   3   9    2.24    1.95
  -8   3   9   -0.20    2.02
   7  -3  -9    6.68    1.86
   7   3  -9    5.44    1.82
  -7   3   9    6.12    1.86
  -6  -3   9   -0.71    1.10
   6  -3  -9   -0.93    1.75
  -6   3   9    2.44    1.71
  -6   3   9   -1.30    1.83
   6   3  -9    1.62    1.53
   5  -3  -9    4.34    2.36
  -5  -3   9    4.13    1.36
  -5   3   9    7.64    2.46
  -5   3   9    5.35    1.64
   5   3  -9    5.04    1.81
  -4  -3   9    3.43    1.37
   4  -3  -9    2.68    2.38
   4   3  -9    5.10    1.68
   4   3  -9    2.05    2.27
  -4   3   9    3.95    1.45
   3  -3  -9    4.04    3.01
  -3  -3   9    2.43    1.26
  -3   3   9    2.06    1.39
   3   3  -9    1.40    1.51
   3   3  -9    1.89    2.20
  -2  -3   9   14.82    1.97
   2  -3  -9   10.58    3.12
   2   3  -9   15.51    2.45
   2   3  -9   19.17    2.94
   1  -3  -9    3.85    2.11
   1  -3  -9    6.88    3.37
  -1  -3   9    6.56    1.43
  -1   3   9    7.92    1.35
   1   3  -9   10.53    2.86
   1   3  -9    7.02    2.32
   0  -3   9    1.02    1.13
   0  -3  -9    2.49    2.46
   0  -3  -9   -1.37    2.55
   0  -3  -9    2.31    1.16
   0   3  -9   -0.31    2.52
   0   3   9    2.44    1.05
   0   3  -9    1.63    1.94
  -1  -3  -9   -0.31    2.67
   1  -3   9   -0.23    1.06
  -1  -3  -9    2.85    2.46
  -1   3  -9    1.78    2.47
  -1   3  -9   -3.99    2.78
   1   3   9   -0.55    0.83
  -2  -3  -9   -1.16    2.39
   2  -3   9   -0.25    0.97
  -2  -3  -9    0.16    2.60
  -2   3  -9    0.47    2.35
   2   3   9    2.65    0.88
  -2   3  -9   -1.73    2.87
  -2   3  -9    1.14    3.09
  -3  -3  -9    4.40    2.73
  -3  -3  -9    0.80    2.64
   3  -3   9    5.67    1.35
  -3   3  -9    6.38    3.19
  -3   3  -9    6.81    3.57
   3   3   9    5.03    0.96
  -4  -3  -9   19.76    3.62
   4  -3   9   27.69    2.11
  -4  -3  -9   21.77    3.53
   4   3   9   23.57    1.49
  -4   3  -9   19.40    4.50
  -4   3  -9   24.22    3.88
  -4   3  -9   21.16    4.58
  -5  -3  -9   14.36    3.54
   5  -3   9   13.91    1.82
  -5  -3  -9   10.16    3.45
  -5   3  -9    5.98    4.00
  -5   3  -9    6.26    4.08
   5   3   9   10.70    1.57
  -5   3  -9   13.15    3.78
   5   3   9   11.74    1.10
   6  -3   9    0.85    1.19
  -6  -3  -9   -2.76    2.75
  -6  -3  -9    1.60    3.03
  -6   3  -9   -1.30    3.83
   6   3   9    0.76    0.67
  -6   3  -9   -3.41    3.09
  -7  -3  -9    4.25    3.28
   7  -3   9    2.49    1.36
  -7  -3  -9    2.02    3.33
  -7   3  -9    3.62    3.91
  -7   3  -9    2.40    4.37
  -7   3  -9   -2.03    4.81
  -8  -3  -9    1.42    3.31
   8  -3   9    0.46    1.43
  -8  -3  -9    1.69    3.45
  -8   3  -9    2.44    4.67
  -8   3  -9    3.18    4.49
  -8   3  -9    3.25    3.89
  -9  -3  -9    2.20    3.50
   9  -3   9    0.20    1.29
  -9  -3  -9    0.58    3.70
  -9   3  -9    0.35    5.14
  -9   3  -9    0.47    3.95
  -9   3  -9    0.16    4.58
  10  -3   9   -0.68    1.66
 -10  -3  -9   -2.71    3.81
 -10  -3  -9    4.85    6.78
 -10   3  -9    5.90    7.69
 -10   3  -9    3.30    5.96
 -10   3  -9    1.91    5.22
 -11  -3  -9   -2.01    3.92
 -11  -3  -9    1.63    3.94
 -11   3  -9    3.02    5.42
 -11   3  -9    5.48    5.27
 -11   3  -9    2.14    4.48
  12  -3   9   -0.56    1.81
 -12  -3  -9   -1.28    4.26
 -12  -3  -9   -0.25    4.51
 -12   3  -9    4.14    5.67
 -12   3  -9   -3.17    4.35
 -12   3  -9    1.09    5.03
 -15  -4   9    3.99    2.64
 -15  -4   9    1.07    2.69
 -15   4   9    2.60    2.76
 -15   4   9   -5.63    2.81
 -14  -4   9    1.25    2.37
 -14  -4   9    1.76    2.58
 -14   4   9   12.02    3.95
 -14   4   9   -1.56    2.28
 -13  -4   9    6.58    2.72
 -13  -4   9    4.57    2.62
 -13   4   9    1.62    4.08
 -13   4   9    5.64    2.87
 -12  -4   9   11.53    2.91
 -12  -4   9    7.34    2.28
 -12   4   9    7.86    3.74
 -12   4   9    5.77    2.81
 -11  -4   9    3.15    2.02
 -11  -4   9    4.43    2.25
 -11   4   9    1.04    3.08
 -11   4   9    1.79    2.26
 -10  -4   9    1.60    1.93
 -10  -4   9    1.82    1.70
 -10   4   9    2.07    2.21
 -10   4   9    4.20    3.15
  -9  -4   9    5.92    1.87
  -9  -4   9    6.74    2.33
  -9   4   9    2.56    2.14
  -9   4   9    4.40    2.86
  -8  -4   9    6.57    2.31
  -8  -4   9    7.72    1.88
  -8   4   9   11.68    3.09
  -8   4   9   11.56    2.57
  -7  -4   9   10.15    2.26
   7  -4  -9    5.93    1.80
  -7  -4   9    6.99    1.81
   7   4  -9    8.42    2.08
  -7   4   9    7.24    2.71
  -7   4   9    7.73    2.15
  -6  -4   9    3.95    1.52
   6  -4  -9    4.61    2.02
  -6   4   9    9.33    2.21
   6   4  -9    7.69    2.03
   5  -4  -9    7.99    2.58
  -5   4   9   13.87    2.26
   5   4  -9   13.21    2.41
  -5   4   9   13.14    3.19
  -4  -4   9   26.36    2.40
   4  -4  -9   23.32    3.43
   4   4  -9   34.94    3.45
  -4   4   9   24.66    3.58
  -4   4   9   27.56    2.91
  -3  -4   9   14.12    2.04
   3  -4  -9   16.30    3.35
   3   4  -9   14.43    2.53
   3   4  -9   15.48    3.19
  -3   4   9   15.06    2.17
  -3   4   9   14.08    3.11
   2  -4  -9    3.77    2.92
   2  -4  -9    3.12    1.41
  -2  -4   9    2.79    1.32
  -2   4   9    1.41    2.29
  -2   4   9    2.28    1.36
   2   4  -9    1.47    2.30
   2   4  -9    3.26    1.97
  -1  -4   9    2.67    1.34
   1  -4  -9    5.91    1.92
   1  -4  -9    3.68    3.05
  -1   4   9    7.61    2.45
   1   4  -9    2.31    2.18
  -1   4   9    2.90    1.33
   1   4  -9    5.15    2.79
   0  -4   9   48.55    3.03
   0  -4  -9   44.73    4.65
   0   4   9   46.66    2.67
   0   4  -9   51.35    4.72
   0   4  -9   47.23    4.21
   0   4   9   43.44    4.03
  -1  -4  -9   99.96    5.26
  -1  -4  -9   89.54    5.81
   1  -4   9  103.84    4.78
  -1   4  -9  107.21    6.22
   1   4   9  109.74    5.76
   1   4   9   97.81    4.09
  -1   4  -9  103.55    6.57
  -2  -4  -9   65.16    4.91
  -2  -4  -9   67.74    4.62
  -2   4  -9   74.53    5.39
  -2   4  -9   67.56    5.73
  -3  -4  -9   20.37    3.08
   3  -4   9   12.89    1.93
  -3  -4  -9   15.64    3.40
   3   4   9   10.53    1.92
  -3   4  -9   10.46    3.79
  -4  -4  -9    2.69    2.68
   4  -4   9    1.73    1.27
  -4  -4  -9   -0.73    2.73
   4   4   9    2.54    1.39
  -4   4  -9    7.27    3.33
  -4   4  -9    6.35    3.84
  -4   4  -9    3.68    3.88
  -5  -4  -9   -2.52    1.96
   5  -4   9    4.07    1.43
  -5   4  -9    7.21    3.60
  -5   4  -9    0.57    3.97
   6  -4   9    0.38    1.29
  -6  -4  -9    3.81    3.00
  -6  -4  -9    0.57    2.92
  -6   4  -9   -1.05    4.50
  -6   4  -9    1.40    3.53
  -6   4  -9    2.84    4.05
   7  -4   9   -0.91    1.27
  -7  -4  -9   -1.56    2.78
  -7  -4  -9   -0.73    2.93
  -7   4  -9    1.88    4.90
  -7   4  -9    2.12    4.36
  -7   4  -9   -1.96    3.33
  -8  -4  -9    1.10    3.62
  -8  -4  -9    0.91    3.33
   8  -4   9    0.90    1.58
  -8   4  -9    3.70    4.22
  -8   4  -9   -2.16    4.79
  -8   4  -9   -0.46    4.77
  -9  -4  -9   -3.68    3.19
   9  -4   9    3.46    1.88
  -9   4  -9    7.51    4.77
  -9   4  -9    9.97    7.82
  -9   4  -9    0.43    5.76
  10  -4   9    7.04    4.16
 -10  -4  -9    4.78    3.90
 -10  -4  -9   -1.74    3.80
 -10   4  -9   -3.11    4.18
 -10   4  -9   -2.46    5.18
 -10   4  -9    6.62    5.45
 -11  -4  -9   -1.73    3.75
  11  -4   9    1.54    2.03
 -11  -4  -9    0.15    3.86
 -11   4  -9   -5.44    5.29
 -11   4  -9    1.83    4.38
 -11   4  -9    5.22    5.34
  12  -4   9    3.48    2.23
 -12  -4  -9   -2.32    3.94
 -12  -4  -9    1.02    4.12
 -12   4  -9    4.40    5.15
 -12   4  -9   -1.78    6.07
 -12   4  -9   -9.26    7.77
 -15  -5   9   -3.35    2.52
 -15  -5   9   -1.34    2.07
 -15   5   9   -5.19    3.22
 -14  -5   9    3.55    2.53
 -14  -5   9   -1.54    2.44
 -14   5   9    0.33    2.47
 -14   5   9   -6.67    2.89
 -13  -5   9    2.46    2.37
 -13  -5   9    0.88    2.32
 -13   5   9    0.30    3.09
 -13   5   9   -0.69    2.44
 -12  -5   9   -1.42    1.63
 -12   5   9    1.81    2.96
 -11  -5   9    5.50    2.70
 -11  -5   9   -1.24    1.61
 -11   5   9   -1.86    2.18
 -11   5   9    2.56    3.04
 -10  -5   9    2.55    2.22
 -10  -5   9    2.93    2.03
 -10   5   9    6.30    2.70
 -10   5   9    5.55    3.09
  -9  -5   9    2.71    1.65
  -9  -5   9    0.52    2.16
  -9   5   9    2.45    2.98
  -9   5   9    3.05    2.28
  -8  -5   9   -0.24    1.80
  -8  -5   9   -0.01    1.38
  -8   5   9   -1.46    2.33
   8   5  -9    0.54    1.77
  -8   5   9    1.09    2.37
  -7  -5   9    3.67    1.69
  -7  -5   9    4.33    2.21
  -7   5   9    3.14    2.70
  -7   5   9    2.93    2.14
   7   5  -9    5.58    2.29
  -6  -5   9   -0.52    1.26
   6  -5  -9    0.85    1.76
  -6   5   9    3.79    2.06
  -6   5   9    1.26    2.55
   6   5  -9    1.38    1.76
  -5  -5   9    1.47    1.41
   5  -5  -9    5.04    2.48
  -5   5   9    6.65    3.19
  -5   5   9    0.21    1.95
  -4  -5   9    2.21    1.41
   4  -5  -9    2.38    2.53
   4   5  -9    1.81    2.02
  -4   5   9    4.62    2.73
  -4   5   9    2.92    1.82
  -3  -5   9    3.47    1.48
   3  -5  -9    1.63    2.71
   3   5  -9    2.24    2.05
  -3   5   9   -2.58    2.03
  -3   5   9    1.05    1.53
   2  -5  -9    7.06    2.78
  -2  -5   9    8.19    1.79
  -2   5   9    9.16    1.66
   2   5  -9    9.90    2.56
  -2   5   9    4.68    2.61
   1  -5  -9    6.81    2.75
  -1  -5   9    6.64    1.68
   1  -5  -9    6.07    1.80
  -1   5   9    6.21    1.33
   1   5  -9    4.49    2.71
  -1   5   9    1.92    2.28
   0  -5  -9    1.84    2.61
   0  -5   9    3.19    1.45
   0  -5  -9    1.93    2.17
   0   5  -9    3.77    3.26
   0   5   9   -1.21    1.78
  -1  -5  -9    0.43    2.13
   1  -5   9    0.46    1.22
  -1   5  -9    1.19    3.04
  -1   5  -9   -0.63    2.56
   1   5   9   -0.55    1.72
   2  -5   9    1.07    1.28
  -2  -5  -9    3.45    2.72
  -2  -5  -9    1.31    2.28
  -2   5  -9   -2.34    2.42
  -2   5  -9   -3.13    3.19
   2   5   9    1.95    1.68
   3  -5   9    3.30    1.54
  -3  -5  -9    3.33    2.63
  -3  -5  -9    5.45    3.22
  -3   5  -9    6.29    3.18
   3   5   9    2.22    1.62
   4  -5   9   16.21    2.16
  -4  -5  -9   12.66    3.16
  -4  -5  -9    9.50    3.26
  -4   5  -9   13.29    3.82
   4   5   9   13.14    1.71
  -5  -5  -9    8.27    3.19
   5  -5   9    9.50    1.87
  -5  -5  -9    5.54    2.83
  -5   5  -9    9.16    4.65
  -5   5  -9    6.38    3.43
   6  -5   9   -0.32    1.38
  -6  -5  -9   -0.91    2.88
  -6  -5  -9   -3.63    2.98
  -6   5  -9    1.83    4.23
  -6   5  -9    3.77    3.54
  -6   5  -9   -1.39    4.39
  -7  -5  -9    2.88    3.34
   7  -5   9    2.73    1.91
  -7  -5  -9    0.89    3.59
  -7   5  -9   -1.70    4.46
  -7   5  -9    4.63    4.82
  -7   5  -9   -3.61    3.59
  -8  -5  -9   -1.03    3.73
   8  -5   9    3.11    1.84
  -8   5  -9    5.42    4.73
  -8   5  -9   -3.02    4.63
   9  -5   9   -3.72    1.53
  -9  -5  -9   -0.50    3.52
  -9   5  -9   -8.11    4.44
  -9   5  -9   -1.32    4.27
  -9   5  -9    3.17    5.31
  10  -5   9   -2.64    1.87
 -10  -5  -9    6.70    3.96
 -10  -5  -9   -5.48    3.42
 -10   5  -9   -6.35    4.68
 -10   5  -9    2.48    4.78
 -10   5  -9   -4.05    4.25
 -11  -5  -9    3.66    4.28
  11  -5   9    0.68    2.06
 -11  -5  -9   -6.84    3.60
 -11   5  -9   12.99    6.36
 -11   5  -9   -6.93    4.22
 -14  -6   9    0.81    2.87
 -14  -6   9    0.96    2.20
 -14   6   9   -1.13    3.88
 -13  -6   9    0.41    2.50
 -13  -6   9    1.64    1.99
 -13   6   9   -0.77    3.66
 -12  -6   9   -1.46    2.17
 -12  -6   9   -1.70    2.30
 -12   6   9    2.97    3.79
 -11  -6   9    3.28    1.96
 -11  -6   9    1.59    2.44
 -11   6   9    2.72    3.18
 -10  -6   9    5.71    2.17
 -10  -6   9    8.87    3.17
 -10   6   9    4.46    3.91
  -9  -6   9    3.98    2.09
  -9  -6   9    8.12    2.97
  -9   6   9   -1.21    2.99
  -9   6   9    1.47    2.50
  -8  -6   9   14.19    3.30
  -8  -6   9    6.25    2.04
  -8   6   9   -0.03    2.48
   8   6  -9    2.42    2.16
  -8   6   9    4.80    3.25
   7  -6  -9   12.07    1.72
  -7  -6   9   14.62    2.47
  -7  -6   9   13.72    3.24
  -7   6   9    3.21    3.02
   7   6  -9   13.58    2.87
  -7   6   9   12.15    3.06
   6  -6  -9   15.97    2.36
  -6  -6   9   11.60    2.18
   6   6  -9   16.46    3.30
  -6   6   9    7.13    3.55
  -6   6   9   12.75    2.79
   5  -6  -9   10.73    2.55
  -5  -6   9    9.49    2.08
  -5   6   9   13.76    2.59
  -5   6   9    9.80    3.38
   5   6  -9   10.53    2.84
  -4  -6   9    9.92    2.07
   4  -6  -9    7.21    2.69
  -4   6   9    6.56    3.01
   4   6  -9   11.27    2.85
   3  -6  -9   10.63    3.03
  -3  -6   9   14.09    2.27
   3   6  -9   13.46    3.12
  -2  -6   9   37.17    2.97
   2  -6  -9   26.36    3.87
  -2   6   9   40.03    4.46
   2   6  -9   35.00    4.30
   1  -6  -9   21.26    3.74
  -1  -6   9   29.85    2.62
   1  -6  -9   24.27    2.26
   1   6  -9   18.42    3.59
  -1   6   9   18.16    3.38
   0  -6   9    3.09    1.65
   0   6  -9    4.87    2.95
   0   6   9    2.43    2.25
   1  -6   9    1.31    1.35
  -1  -6  -9   -1.05    2.73
  -1  -6  -9   -0.45    1.91
  -1   6  -9    4.66    2.80
   1   6   9    2.51    2.08
   2  -6   9    0.06    1.22
  -2  -6  -9    0.11    2.11
  -2  -6  -9    3.58    2.94
   2   6   9   -0.76    1.72
  -2   6  -9   -3.51    2.45
  -2   6  -9    0.26    3.17
  -3  -6  -9    0.81    2.43
  -3  -6  -9    4.90    2.84
   3  -6   9    9.20    1.94
  -3   6  -9    4.97    3.34
  -3   6  -9    0.33    3.76
   3   6   9    5.40    2.64
  -4  -6  -9   15.44    3.64
   4  -6   9   21.12    2.64
  -4  -6  -9   11.83    5.79
  -4   6  -9   23.98    4.99
  -4   6  -9   13.63    3.86
  -5  -6  -9   13.04    3.66
   5  -6   9   13.65    2.34
  -5  -6  -9    3.43    2.96
  -5   6  -9    7.43    4.37
  -5   6  -9    9.22    4.15
  -6  -6  -9    9.18    3.66
   6  -6   9   10.92    2.39
  -6  -6  -9    8.73    3.47
  -6   6  -9    5.85    4.29
  -6   6  -9    4.04    4.30
   7  -6   9   14.35    4.45
  -7  -6  -9    7.16    6.32
  -7  -6  -9    6.33    3.85
  -7   6  -9    9.12    4.94
  -7   6  -9   11.97    5.55
  -8  -6  -9    8.09    3.98
   8  -6   9    8.18    2.45
  -8  -6  -9    3.38    3.51
  -8   6  -9   10.63    4.78
  -8   6  -9    7.88    4.58
  -9  -6  -9    6.74    3.95
  -9  -6  -9   -1.46    4.17
   9  -6   9    3.41    2.24
  -9   6  -9   -4.59    4.34
  -9   6  -9    2.40    4.48
 -10  -6  -9    1.83    3.89
  10  -6   9    2.75    2.14
 -10  -6  -9    0.71    3.50
 -10   6  -9   -1.97    4.32
 -12  -7   9   -1.53    1.69
 -12  -7   9    0.94    2.83
 -12   7   9   -0.61    3.50
 -11  -7   9    1.22    1.85
 -11  -7   9    2.95    2.64
 -11   7   9   -5.33    3.37
 -10  -7   9    2.22    2.69
 -10  -7   9    3.60    3.88
 -10   7   9   -1.37    3.24
  -9  -7   9    1.25    1.79
  -9  -7   9   -3.32    2.41
  -9   7   9   -4.40    4.87
  -8  -7   9    2.42    1.81
  -8  -7   9    0.58    2.83
  -8   7   9    5.68    3.74
   8   7  -9   -0.18    2.21
  -7  -7   9    2.76    2.61
  -7  -7   9   -0.46    1.65
  -7   7   9   -3.69    2.58
   7   7  -9    0.71    2.22
  -6  -7   9   -1.55    1.31
  -6  -7   9    0.67    2.42
   6  -7  -9    4.41    2.11
  -6   7   9   -3.97    2.44
   6   7  -9   -0.58    2.05
  -5  -7   9    2.47    1.63
   5  -7  -9   -0.79    2.01
   5   7  -9    1.09    2.51
  -5   7   9   -0.13    2.72
  -4  -7   9   -0.02    1.48
   4  -7  -9    0.57    2.46
  -4   7   9   -1.62    2.65
   4   7  -9    2.16    2.40
   3  -7  -9   -1.31    2.56
  -3  -7   9    2.23    1.61
  -3   7   9    4.04    3.09
   3   7  -9   -0.75    2.38
   2  -7  -9    1.66    2.62
  -2  -7   9    3.21    1.69
  -2   7   9    4.36    2.71
   2   7  -9    3.14    2.57
  -1  -7   9    2.71    1.66
   1  -7  -9   -1.98    2.39
   1   7  -9   -0.56    2.81
  -1   7   9    1.33    2.45
   0  -7   9    1.23    1.62
   0  -7  -9    2.12    2.92
   0   7   9   -1.06    2.19
   0   7  -9   -2.64    2.76
  -1  -7  -9   -0.11    1.88
   1  -7   9    3.05    1.63
  -1  -7  -9   -3.78    2.44
  -1   7  -9    3.75    2.97
   1   7   9    1.67    2.05
   2  -7   9   -1.01    1.36
  -2  -7  -9   -0.42    2.19
  -2  -7  -9    2.77    2.89
   2   7   9    3.28    2.08
  -2   7  -9    0.23    2.99
  -3  -7  -9   -6.42    2.08
  -3  -7  -9    1.65    2.97
   3  -7   9    1.95    1.55
  -3   7  -9   -0.03    3.27
  -4  -7  -9    7.67    2.92
   4  -7   9    6.47    1.99
  -4  -7  -9    5.36    3.09
  -4   7  -9    3.09    3.52
  -5  -7  -9    0.70    3.12
   5  -7   9    2.30    3.90
  -5  -7  -9    2.03    3.05
  -5   7  -9    3.75    5.66
  -6  -7  -9   -2.95    3.00
  -6  -7  -9    1.38    3.37
   6  -7   9   -2.69    1.48
  -6   7  -9    2.97    3.99
   7  -7   9    0.47    1.99
  -7  -7  -9   -1.23    3.13
  -7  -7  -9    0.78    3.44
  -7   7  -9   -1.85    4.04
   8  -7   9    1.01    2.19
  -8  -7  -9   -1.32    3.58
  -8  -7  -9   -1.32    3.64
  -8   7  -9    9.30    5.31
  -9  -7  -9    5.49    4.22
   9  -7   9   -3.27    1.97
  -9  -7  -9   -5.94    3.46
  -9   7  -9    2.30    4.56
 -11  -8   9    1.41    2.02
 -11  -8   9    5.31    3.06
 -11   8   9   -1.06    3.49
 -10  -8   9   -1.53    1.98
 -10  -8   9    3.76    2.89
 -10   8   9    0.60    3.99
  -9  -8   9    3.99    2.88
  -9  -8   9    6.10    2.16
  -9   8   9    3.40    3.62
  -8  -8   9    6.31    3.06
   8   8  -9    8.56    2.89
  -8   8   9    2.66    3.73
  -7  -8   9    0.16    2.66
  -7  -8   9    3.14    1.84
  -7   8   9    6.41    6.18
   7   8  -9    3.18    2.95
  -6  -8   9    1.46    2.80
  -6  -8   9    0.69    1.62
  -6   8   9    6.11    3.79
  -5  -8   9    4.20    1.92
  -5   8   9   -1.28    3.04
   5   8  -9    9.80    3.12
  -4  -8   9    2.64    2.03
   4  -8  -9    5.08    2.75
   4   8  -9    2.74    2.73
  -4   8   9    2.81    3.53
  -3  -8   9    5.47    2.16
   3  -8  -9    6.79    2.89
  -3   8   9    2.86    2.87
   3   8  -9    0.92    2.69
   2  -8  -9    1.77    3.03
  -2  -8   9    1.39    1.81
   2   8  -9    2.53    2.77
  -2   8   9    0.17    2.71
  -1  -8   9    1.26    1.62
   1  -8  -9    6.65    3.23
  -1   8   9    1.67    2.85
   1   8  -9    3.15    3.19
   0  -8  -9    6.32    3.20
   0  -8   9    9.87    2.28
   0   8  -9    6.47    3.59
  -1  -8  -9   17.41    3.77
   1  -8   9   16.07    2.71
   1   8   9   18.45    3.38
  -1   8  -9   26.73    6.83
  -2  -8  -9   17.68    3.02
  -2  -8  -9   15.78    3.79
  -3  -8  -9    9.39    5.62
  -3  -8  -9    2.47    3.09
   3  -8   9    4.35    1.93
  -3   8  -9    4.03    3.69
  -4  -8  -9    3.90    2.87
   4  -8   9    5.33    2.13
  -4   8  -9    6.11    4.06
  -5  -8  -9    1.31    3.28
   5  -8   9    2.81    2.21
  -5  -8  -9   -3.94    2.69
  -5   8  -9   -0.17    3.74
   6  -8   9    2.65    2.53
  -6  -8  -9    0.82    3.35
  -6  -8  -9    7.79    3.19
  -6   8  -9   -2.81    3.34
  -7  -8  -9   -3.31    3.29
  -7  -8  -9    2.55    3.10
   7  -8   9   -1.18    1.94
  -7   8  -9    2.43    4.15
  -9  -9   9    5.39    3.11
  -9  -9   9   -0.45    1.84
  -9   9   9    2.96    3.96
  -8  -9   9   -0.49    1.60
  -8  -9   9   -5.38    2.30
  -8   9   9   -2.92    3.55
   8   9  -9   -1.47    2.60
  -7  -9   9    1.20    1.86
  -7  -9   9   -1.84    2.45
  -7   9   9   -0.35    3.26
   7   9  -9    0.08    2.65
  -6  -9   9   -0.09    1.88
  -6  -9   9   -0.89    2.38
  -6   9   9   -5.23    2.67
   6   9  -9    3.56    2.82
  -5  -9   9   -0.80    2.55
  -5  -9   9   -1.82    1.58
   5   9  -9    2.00    2.65
  -5   9   9    3.86    6.58
  -4  -9   9   -0.42    1.76
   4   9  -9    4.01    2.92
  -4   9   9   -2.20    3.04
   3  -9  -9    0.96    2.65
  -3  -9   9    1.78    1.81
  -3   9   9   -3.39    2.81
   3   9  -9    2.54    2.90
   2  -9  -9    1.78    3.10
  -2  -9   9   -1.17    1.58
  -2   9   9    0.25    2.82
   2   9  -9   -1.19    2.67
   1  -9  -9    7.74    3.19
  -1  -9   9    3.64    1.86
   1   9  -9    2.90    3.03
  -1   9   9   -1.78    2.54
   0  -9  -9    1.44    3.13
   0  -9   9   -0.43    1.45
   0   9   9    0.79    2.52
   0   9  -9   -2.88    2.91
  -1  -9  -9    0.03    2.87
   1  -9   9   -1.30    1.71
  -1   9  -9   -1.05    3.12
   2  -9   9   -2.19    1.60
  -2   9  -9    2.34    3.61
  -3  -9  -9    4.07    3.23
   3  -9   9   -1.01    1.96
  -3   9  -9   -4.71    3.68
  -4  -9  -9   14.37    4.15
   4  -9   9    4.33    2.23
  -4   9  -9    3.03    4.09
  -5  -9  -9   -2.16    2.95
  -5  -9  -9   -3.74    2.94
   5  -9   9   -2.41    2.21
  -5   9  -9   -3.88    3.67
  -5 -10   9    3.10    1.94
  -5 -10   9    3.52    2.82
   5  10  -9    3.61    3.31
  -5  10   9    0.37    3.90
  -4 -10   9   -1.21    2.79
  -4 -10   9    0.51    1.80
  -4  10   9    2.77    3.50
   4  10  -9    2.78    3.07
  -3 -10   9    0.01    1.74
  -3  10   9    5.03    3.42
   3  10  -9    3.37    3.02
  -2 -10   9    4.94    2.17
   2  10  -9    1.12    3.06
   1 -10  -9   -0.77    2.99
  -1 -10   9    2.67    2.00
   1  10  -9    0.03    3.33
  -1  10   9    0.64    3.12
   0 -10   9   -1.30    1.63
   0 -10  -9    4.72    3.61
   0  10  -9    2.22    3.55
   1 -10   9   -1.16    1.76
  -1 -10  -9   -4.55    3.05
  -1  10  -9   -0.37    3.48
  -2 -10  -9    2.55    3.39
   2 -10   9    0.71    1.81
  -2  10  -9   -3.00    3.20
 -16   0  10   -4.22    3.38
 -16   0  10    1.24    2.66
 -16   0  10    2.79    2.66
 -15   0  10   -0.55    2.23
 -15   0  10   -2.56    1.86
 -15   0  10    2.52    3.09
 -14   0  10    1.16    2.23
 -14   0  10    1.18    2.82
 -14   0  10    1.85    1.87
 -13   0  10    3.82    3.56
 -13   0  10    1.22    2.07
 -13   0  10    0.80    2.80
 -12   0  10   10.52    2.18
 -12   0  10    9.63    2.55
 -11   0  10    7.16    2.38
 -11   0  10   12.33    2.05
 -10   0  10    3.90    1.43
 -10   0  10    4.35    1.94
  -9   0  10    3.64    1.33
  -9   0  10    2.81    1.75
  -8   0  10    3.09    1.65
  -8   0  10    2.43    1.22
  -7   0  10   -1.42    1.08
   7   0 -10   -1.17    2.02
   6   0 -10    3.03    2.40
  -6   0  10    2.14    1.38
   5   0 -10   35.39    4.12
  -5   0  10   33.77    2.62
  -4   0  10   94.88    4.34
   4   0 -10   86.90    3.71
   4   0 -10   80.40    5.40
  -3   0  10   79.97    3.83
   3   0 -10   71.65    5.22
   3   0 -10   72.59    3.34
  -2   0  10   21.14    1.93
   2   0 -10   21.11    1.93
   2   0 -10   18.80    3.68
   1   0 -10   10.48    1.78
   1   0 -10   14.00    3.69
  -1   0  10   13.00    1.63
   0   0 -10   39.16    3.94
   0   0 -10   29.56    4.57
   0   0  10   32.32    2.31
   0   0 -10   29.77    2.79
  -1   0 -10   36.60    4.38
  -1   0 -10   39.59    3.47
  -1   0 -10   37.01    4.87
   1   0  10   43.56    2.44
   2   0  10   18.17    1.81
  -2   0 -10   15.97    3.68
  -2   0 -10   16.77    2.82
  -2   0 -10   11.03    3.93
  -3   0 -10   -0.03    2.74
  -3   0 -10    2.55    2.60
  -3   0 -10   -0.71    3.15
   3   0  10    3.96    1.10
   4   0  10    2.02    1.03
  -4   0 -10    0.58    2.85
  -4   0 -10    0.12    2.81
  -5   0 -10    1.42    2.85
   5   0  10    5.93    1.21
  -5   0 -10   -2.79    3.65
  -5   0 -10    1.49    3.55
   6   0  10    3.23    1.12
  -6   0 -10    1.50    3.98
  -6   0 -10    6.59    6.14
  -6   0 -10    3.20    3.85
  -7   0 -10    3.09    3.92
   7   0  10    1.63    1.11
  -7   0 -10   -2.81    3.57
  -7   0 -10    1.92    4.02
  -8   0 -10    2.62    4.81
  -8   0 -10   -2.80    3.97
   8   0  10    1.88    1.28
  -8   0 -10    5.24    3.81
  -9   0 -10    7.26    4.25
   9   0  10    7.89    1.71
  -9   0 -10   -0.45    4.59
  -9   0 -10    3.89    4.61
 -10   0 -10    5.52    5.55
  10   0  10    8.53    1.90
 -10   0 -10    5.71    5.00
 -10   0 -10    8.11    5.37
 -11   0 -10   -0.73    5.39
 -11   0 -10    2.21    4.94
  11   0  10    0.42    1.68
 -11   0 -10    3.18    5.20
 -12   0 -10   10.07    4.77
 -12   0 -10  -11.04    4.42
  12   0  10    2.45    2.68
 -12   0 -10    6.88    5.43
 -16  -1  10   -2.22    2.19
 -16  -1  10   -1.79    2.20
 -16  -1  10   -2.53    3.09
 -16   1  10   -1.79    2.41
 -16   1  10   -2.62    3.47
 -15  -1  10   -0.43    2.15
 -15  -1  10    2.54    2.98
 -15  -1  10    0.30    2.09
 -15   1  10    1.72    2.35
 -15   1  10    1.03    2.99
 -14  -1  10    0.36    1.71
 -14  -1  10    1.99    2.49
 -14  -1  10   -1.56    2.72
 -14   1  10    0.61    1.80
 -14   1  10   -1.49    2.07
 -13  -1  10    0.82    1.96
 -13  -1  10    0.79    1.87
 -13   1  10    0.51    3.01
 -13   1  10    0.10    1.51
 -13   1  10   -2.43    1.79
 -12  -1  10   -1.45    1.52
 -12  -1  10    1.76    2.04
 -12   1  10   -0.72    2.00
 -12   1  10    1.55    1.35
 -12   1  10    3.31    2.75
 -11  -1  10   -0.01    1.30
 -11  -1  10    0.32    1.85
 -11   1  10   -0.56    2.45
 -11   1  10   -0.11    1.20
 -11   1  10    0.53    1.76
 -10  -1  10    8.01    1.79
 -10  -1  10    8.81    2.13
 -10   1  10    5.55    2.11
 -10   1  10   10.24    1.58
  -9  -1  10    5.49    1.89
  -9  -1  10    9.08    1.93
  -9   1  10    6.73    1.38
  -9   1  10    8.83    2.09
  -8  -1  10    1.59    1.46
  -8  -1  10    0.49    1.50
   8  -1 -10   -0.04    1.69
  -8   1  10   -0.60    1.50
  -8   1  10    0.80    1.50
   7  -1 -10    6.12    2.36
  -7   1  10    4.67    1.79
   7   1 -10    7.63    2.46
  -7   1  10   11.32    2.03
  -6  -1  10    7.95    1.66
   6  -1 -10    9.04    2.36
  -6   1  10   12.03    2.00
   6   1 -10   14.68    2.84
   5  -1 -10    4.36    2.38
  -5  -1  10    3.98    1.40
   5   1 -10    2.52    1.10
   5   1 -10    4.91    2.49
  -5   1  10    5.14    1.58
   4  -1 -10    1.47    2.55
  -4  -1  10    1.74    1.29
   4   1 -10   -1.37    2.10
  -4   1  10    3.67    1.30
   4   1 -10    1.13    1.02
   3  -1 -10    1.09    3.02
  -3  -1  10    1.57    1.16
  -3   1  10    1.72    1.36
   3   1 -10    1.41    1.26
   3   1 -10   -2.54    2.40
   2  -1 -10    2.07    3.06
   2  -1 -10    0.44    0.73
  -2  -1  10    1.11    1.15
   2   1 -10    3.35    2.81
   2   1 -10    0.00    1.33
  -2   1  10    0.65    0.97
   1  -1 -10   10.29    2.92
  -1  -1  10    9.44    1.52
   1  -1 -10   10.13    1.39
   1  -1 -10    9.88    3.61
   1   1 -10   11.52    3.32
  -1   1  10    9.18    1.42
   1   1 -10    7.44    3.49
   0  -1 -10    5.91    1.69
   0  -1  10    7.36    1.40
   0  -1 -10    5.37    2.64
   0  -1 -10    4.96    3.53
   0   1  10    7.62    1.35
   0   1 -10    4.86    3.27
   0   1 -10    9.00    2.22
   1  -1  10   -0.58    0.91
  -1  -1 -10   -0.90    1.70
  -1  -1 -10   -2.92    3.11
  -1  -1 -10    2.56    3.08
  -1   1 -10    2.95    3.06
   1   1  10    0.71    0.84
  -1   1 -10    8.05    3.61
  -1   1 -10   -0.96    2.02
  -2  -1 -10   -4.67    3.08
   2  -1  10    0.55    0.96
  -2  -1 -10    1.76    2.09
  -2  -1 -10    1.24    2.75
  -2   1 -10    2.65    3.23
  -2   1 -10    1.75    3.57
   2   1  10   -0.49    0.83
  -2   1 -10    1.98    2.41
  -3  -1 -10    0.87    2.37
   3  -1  10    1.26    1.01
  -3  -1 -10    2.72    3.39
  -3   1 -10    6.21    2.90
  -3   1 -10    2.52    3.30
   3   1  10    1.31    0.92
  -3   1 -10    4.46    4.09
  -4  -1 -10    6.86    2.94
  -4  -1 -10    5.17    3.54
  -4  -1 -10    9.18    3.72
   4  -1  10    9.52    1.40
  -4   1 -10    2.85    3.68
   4   1  10    7.33    1.25
  -4   1 -10    5.25    3.23
  -4   1 -10    9.10    4.12
  -5  -1 -10    1.19    2.95
  -5  -1 -10    4.49    3.79
  -5  -1 -10   -0.37    3.42
   5  -1  10    2.13    1.18
  -5   1 -10   -1.46    2.84
   5   1  10    0.90    0.92
  -5   1 -10    3.46    3.93
  -5   1 -10   -0.49    3.56
  -6  -1 -10   -0.39    3.62
  -6  -1 -10   -1.61    3.23
  -6  -1 -10    5.65    3.94
   6  -1  10    2.55    1.11
  -6   1 -10    4.54    4.01
  -6   1 -10   10.65    4.62
   6   1  10    2.86    1.04
  -6   1 -10    2.83    3.29
  -7  -1 -10    2.17    3.19
  -7  -1 -10    6.35    3.96
  -7  -1 -10    8.28    4.22
  -7   1 -10    7.55    3.81
  -7   1 -10    3.04    4.85
   7   1  10    6.82    1.27
  -7   1 -10   -1.17    4.04
  -8  -1 -10   -2.14    3.86
   8  -1  10    0.13    1.08
  -8  -1 -10    2.10    4.06
  -8   1 -10    2.60    4.04
  -8   1 -10   -5.04    3.81
   8   1  10    3.03    1.21
  -8   1 -10    1.62    4.54
  -9  -1 -10    4.05    4.47
   9  -1  10   -1.01    1.24
  -9  -1 -10    1.36    4.54
  -9   1 -10   -1.96    4.39
   9   1  10   -0.01    1.25
  -9   1 -10    2.13    4.14
  -9   1 -10    9.60    4.95
  10  -1  10    2.77    1.60
 -10  -1 -10   -3.18    4.55
 -10   1 -10   -5.81    4.44
 -10   1 -10   -8.05    4.40
  10   1  10    0.64    1.42
  11  -1  10   -2.06    1.38
 -11  -1 -10   -0.51    4.49
 -11  -1 -10   -0.99    4.66
 -11   1 -10    4.55    5.13
 -11   1 -10    2.32    4.15
  12  -1  10    1.01    1.89
 -12  -1 -10   -3.87    4.45
 -12  -1 -10    2.44    4.44
 -12  -1 -10    3.64    5.32
 -12   1 -10   -3.45    4.18
 -12   1 -10    7.13    5.59
 -12   1 -10   -3.93    4.94
 -16  -2  10   -0.13    2.26
 -16  -2  10    0.53    3.29
 -16  -2  10   -2.02    2.40
 -16   2  10   -0.74    3.75
 -16   2  10    3.62    2.85
 -15  -2  10   -0.05    2.40
 -15  -2  10    0.74    3.44
 -15  -2  10    1.40    2.46
 -15   2  10    0.17    2.43
 -15   2  10   -0.10    3.16
 -14  -2  10    1.25    2.15
 -14  -2  10    0.11    2.09
 -14   2  10   -0.80    3.17
 -14   2  10    1.48    2.44
 -13  -2  10    2.33    1.99
 -13  -2  10    0.75    2.22
 -13   2  10    0.06    2.94
 -12  -2  10   -1.43    1.51
 -12  -2  10   -0.49    1.86
 -12   2  10   -0.79    2.91
 -12   2  10   -1.66    1.80
 -11  -2  10    2.28    1.83
 -11  -2  10    2.58    1.77
 -11   2  10    1.60    1.20
 -11   2  10    1.12    2.48
 -11   2  10   -3.05    1.73
 -10  -2  10    5.77    1.99
 -10  -2  10    2.82    2.00
 -10   2  10    3.69    2.53
 -10   2  10    2.13    0.98
 -10   2  10    2.48    1.98
  -9  -2  10    8.26    2.16
  -9  -2  10   10.22    2.41
  -9   2  10   13.62    2.46
  -9   2  10   14.64    3.45
  -9   2  10   13.53    1.43
  -8  -2  10   24.48    2.84
  -8  -2  10   30.37    3.31
   8  -2 -10   25.61    3.06
  -8   2  10   29.92    2.89
  -8   2  10   23.74    1.67
   7  -2 -10   43.03    3.69
  -7  -2  10   51.97    3.45
  -7   2  10   41.84    3.39
  -7   2  10   50.72    2.42
  -6  -2  10   35.52    3.28
   6  -2 -10   36.32    3.64
  -6   2  10   46.22    3.24
   6   2 -10   39.39    3.82
   6   2 -10   34.36    2.93
  -5  -2  10    6.77    1.67
   5  -2 -10   12.43    2.71
   5   2 -10    8.00    1.63
  -5   2  10    5.94    1.67
   5   2 -10    6.89    2.59
  -4  -2  10    0.41    1.08
   4  -2 -10    0.13    2.33
   4   2 -10   -1.62    1.13
  -4   2  10    0.79    1.15
   4   2 -10    3.88    2.53
  -3  -2  10   -0.42    1.12
   3  -2 -10   -4.07    2.55
  -3   2  10   -0.67    1.04
   3   2 -10   -0.09    2.43
   3   2 -10    0.53    1.38
  -2  -2  10   17.19    1.96
   2  -2 -10   10.11    3.80
   2   2 -10   11.56    3.23
   2   2 -10   17.16    2.40
  -2   2  10   12.95    1.74
  -1  -2  10   30.16    2.31
   1  -2 -10   19.15    3.91
   1  -2 -10   24.02    3.19
   1   2 -10   21.75    3.86
  -1   2  10   28.40    2.08
   1   2 -10   35.79    3.19
   0  -2 -10   11.17    1.61
   0  -2 -10   11.40    3.45
   0  -2 -10    8.75    2.57
   0  -2  10    8.89    1.54
   0   2 -10   10.23    2.55
   0   2 -10    7.47    3.35
   0   2  10    8.53    1.38
  -1  -2 -10    3.81    1.71
  -1  -2 -10    1.67    3.19
   1  -2  10    5.94    1.37
  -1  -2 -10    3.83    2.87
  -1   2 -10    2.94    3.15
  -1   2 -10    4.82    2.27
  -2  -2 -10   16.17    3.35
  -2  -2 -10    8.08    2.94
  -2  -2 -10    8.80    2.28
   2  -2  10   15.45    1.81
  -2   2 -10   12.94    3.72
  -2   2 -10   10.27    3.01
  -2   2 -10   12.22    3.88
   2   2  10   11.79    1.43
  -3  -2 -10   27.99    3.38
  -3  -2 -10   26.11    4.28
  -3  -2 -10   28.52    4.37
   3  -2  10   32.90    2.24
  -3   2 -10   21.75    4.61
  -3   2 -10   29.18    3.92
  -4  -2 -10   19.90    4.12
  -4  -2 -10   28.04    4.22
   4  -2  10   24.12    2.12
  -4   2 -10   15.71    4.70
  -4   2 -10   23.74    3.93
   4   2  10   24.81    1.72
  -4   2 -10   18.72    4.44
  -5  -2 -10    4.64    3.78
  -5  -2 -10    9.70    3.79
   5   2  10   13.14    1.51
  -5   2 -10   12.13    4.48
  -5   2 -10   15.56    4.83
  -5   2 -10    7.29    3.36
   6  -2  10   12.34    1.68
  -6  -2 -10   10.09    4.04
  -6  -2 -10    5.93    3.77
  -6   2 -10    5.61    4.28
  -6   2 -10   15.24    4.78
  -6   2 -10    6.18    4.02
  -7  -2 -10    7.92    4.12
   7  -2  10   13.41    1.84
  -7  -2 -10    5.56    4.01
  -7   2 -10    6.74    4.77
  -7   2 -10   11.06    4.86
  -7   2 -10    6.52    3.79
   7   2  10   11.30    1.53
   8  -2  10    4.07    1.47
  -8  -2 -10    4.44    4.13
  -8  -2 -10    4.77    3.90
  -8   2 -10   -2.47    4.55
   8   2  10    6.62    1.21
  -8   2 -10    9.74    4.39
  -8   2 -10   12.64    5.71
  -9  -2 -10    4.15    4.29
  -9  -2 -10   -1.00    4.65
   9  -2  10    2.24    1.49
  -9   2 -10   -2.44    4.43
  -9   2 -10    5.67    4.70
 -10  -2 -10    1.81    4.41
  10  -2  10    2.73    1.52
 -10  -2 -10   13.07    5.48
 -10   2 -10    5.95    5.43
 -10   2 -10    0.54    4.31
 -10   2 -10    0.74    5.21
 -11  -2 -10    1.07    4.17
  11  -2  10    1.47    1.75
 -11  -2 -10    0.38    4.83
 -11   2 -10   -5.81    8.94
 -11   2 -10    0.74    5.30
 -11   2 -10   -5.38    3.92
  12  -2  10    2.48    1.85
 -12  -2 -10   -3.82    4.44
 -12  -2 -10   -2.77    4.54
 -12   2 -10   -0.41    5.33
 -12   2 -10   -0.88    4.54
 -12   2 -10   -3.78    5.18
 -15  -3  10   -1.64    2.13
 -15  -3  10    0.78    2.12
 -15   3  10    4.62    2.85
 -15   3  10    2.61    3.15
 -14  -3  10   -1.15    4.14
 -14  -3  10   -0.32    1.96
 -14   3  10    1.32    3.57
 -14   3  10    1.74    2.82
 -13  -3  10    2.51    2.15
 -13  -3  10    3.15    2.56
 -13   3  10   -1.68    2.11
 -13   3  10    3.61    3.50
 -12  -3  10    0.90    1.73
 -12  -3  10   -1.65    1.68
 -12   3  10   -1.93    2.71
 -12   3  10   -3.19    1.84
 -11  -3  10    0.78    1.64
 -11  -3  10    0.55    1.80
 -11   3  10   -1.90    2.37
 -11   3  10   -3.30    1.81
 -10  -3  10    9.21    2.37
 -10  -3  10    3.04    2.06
 -10   3  10    6.55    2.32
 -10   3  10    8.04    3.01
  -9  -3  10    5.13    1.82
  -9  -3  10    5.35    2.09
  -9   3  10    5.05    2.56
  -9   3  10    6.84    2.25
  -8  -3  10    2.41    1.86
  -8  -3  10    0.93    1.59
   8  -3 -10    0.14    1.61
  -8   3  10    1.36    1.74
  -8   3  10    4.07    2.70
  -7  -3  10    7.17    1.83
   7  -3 -10    7.64    2.23
  -7   3  10   11.63    2.24
   7   3 -10    5.05    1.92
  -7   3  10    4.15    2.73
   6  -3 -10    7.90    2.55
  -6  -3  10    6.94    1.50
   6   3 -10   10.14    1.95
  -6   3  10    9.37    2.14
  -6   3  10    2.48    2.37
   5  -3 -10    0.31    2.38
  -5  -3  10    4.64    1.76
  -5   3  10    2.07    1.59
   5   3 -10    0.86    1.54
  -5   3  10   -0.71    2.09
   4  -3 -10   -0.41    2.77
  -4  -3  10   -1.74    1.14
   4   3 -10    2.60    1.68
   4   3 -10    1.87    2.71
  -4   3  10   -0.54    1.23
   3  -3 -10    3.89    2.83
  -3  -3  10   -0.58    1.12
   3   3 -10   -2.56    2.27
   3   3 -10   -1.44    1.37
  -3   3  10    2.31    1.41
  -2  -3  10   -2.28    1.05
   2  -3 -10    1.41    2.89
   2   3 -10   -0.49    2.50
   2   3 -10   -0.13    1.88
  -2   3  10    0.01    1.18
   1  -3 -10    4.13    3.12
   1  -3 -10    8.34    2.61
  -1  -3  10    5.45    1.52
   1   3 -10    6.80    2.26
   1   3 -10    6.03    3.12
   0  -3  10    6.89    1.46
   0  -3 -10    3.42    2.36
   0  -3 -10   -3.46    2.78
   0  -3 -10    3.85    1.20
   0   3 -10    6.97    2.50
   0   3  10    2.23    1.15
   0   3 -10    5.54    3.05
  -1  -3 -10   -1.06    2.44
  -1  -3 -10   -1.06    2.79
   1  -3  10    0.55    1.13
  -1  -3 -10   -0.77    1.47
   1   3  10    2.22    1.07
  -1   3 -10    0.34    2.89
  -1   3 -10   -2.37    2.01
  -2  -3 -10   -2.06    2.85
  -2  -3 -10    4.40    2.78
   2   3  10    0.77    0.94
  -2   3 -10    1.97    2.47
   3  -3  10    0.18    1.11
  -3  -3 -10    1.24    3.17
  -3  -3 -10    0.42    3.10
  -3   3 -10   -3.85    3.20
  -3   3 -10    0.74    2.68
   3   3  10    1.96    0.92
  -3   3 -10   -0.91    4.52
  -4  -3 -10    2.87    3.12
   4  -3  10    5.86    1.44
  -4  -3 -10    9.33    3.57
  -4   3 -10   -1.53    4.20
   4   3  10    3.65    0.95
  -4   3 -10    8.43    3.31
  -4   3 -10    5.56    3.87
   5  -3  10    3.00    1.41
  -5  -3 -10    0.38    3.37
  -5  -3 -10    4.18    3.41
  -5   3 -10    3.76    4.61
  -5   3 -10    5.15    3.63
  -5   3 -10    2.47    3.85
   5   3  10    1.33    0.82
   6  -3  10    4.61    1.45
  -6  -3 -10   -2.05    3.15
  -6  -3 -10   -1.17    3.22
  -6   3 -10   -0.44    3.47
  -6   3 -10    1.33    4.13
  -6   3 -10   -1.17    3.96
  -7  -3 -10    2.05    3.75
  -7  -3 -10    0.94    3.53
   7  -3  10    5.81    1.73
  -7   3 -10    2.15    4.59
  -7   3 -10   -0.82    4.83
  -7   3 -10    1.00    3.78
  -8  -3 -10    1.03    3.94
  -8  -3 -10   -4.33    3.56
   8  -3  10    0.34    1.41
  -8   3 -10   11.12    5.03
  -8   3 -10    4.35    4.48
  -8   3 -10   -2.85    4.66
  -9  -3 -10   -7.31    4.00
   9  -3  10    0.70    1.46
  -9   3 -10   -7.26    5.06
  -9   3 -10   -2.31    4.91
 -10  -3 -10   -0.56    4.28
 -10  -3 -10    1.26    4.63
 -10   3 -10   -5.67    5.07
 -10   3 -10    0.10    4.17
 -10   3 -10    0.20    5.84
  11  -3  10    0.86    2.03
 -11  -3 -10    0.10    4.53
 -11  -3 -10   -0.91    4.39
 -11   3 -10    1.29    5.39
 -11   3 -10   -2.03    4.77
 -11   3 -10    1.78    5.16
 -15  -4  10    1.14    2.34
 -15  -4  10   -0.05    2.09
 -15   4  10    1.66    2.66
 -15   4  10    0.57    3.64
 -14  -4  10   -2.39    2.45
 -14  -4  10   -0.07    2.11
 -14   4  10   -3.45    2.96
 -14   4  10    0.09    2.46
 -13  -4  10    4.90    2.25
 -13   4  10    0.74    2.63
 -13   4  10   -1.23    2.88
 -12  -4  10    3.36    2.69
 -12  -4  10    7.02    2.65
 -12   4  10   -0.20    2.85
 -12   4  10    5.49    3.09
 -11  -4  10    7.63    2.68
 -11  -4  10    4.10    2.01
 -11   4  10   -1.04    2.24
 -11   4  10    4.20    3.46
 -10  -4  10   11.34    2.39
 -10  -4  10    3.76    2.31
 -10   4  10    3.45    2.41
 -10   4  10    1.80    2.68
  -9  -4  10    3.78    2.20
  -9  -4  10    3.31    1.82
  -9   4  10    2.30    2.22
  -9   4  10   -0.41    2.24
  -8  -4  10    0.20    1.44
   8  -4 -10   -0.19    1.41
  -8  -4  10   -0.52    1.82
  -8   4  10   -2.77    2.22
  -8   4  10   -0.02    1.83
   7  -4 -10    0.76    1.81
  -7  -4  10    1.92    1.51
  -7   4  10    1.90    2.61
   7   4 -10    1.68    1.70
  -7   4  10    2.66    2.15
   6  -4 -10    0.95    2.09
  -6  -4  10    1.12    1.46
   6   4 -10    1.88    1.86
  -6   4  10    0.06    2.43
  -6   4  10   -0.79    1.53
   5  -4 -10   18.50    2.96
  -5  -4  10   18.42    2.41
  -5   4  10   15.53    3.32
  -5   4  10   20.99    2.79
   5   4 -10   23.23    2.99
  -4  -4  10   54.50    3.47
   4  -4 -10   50.91    4.81
   4   4 -10   54.43    4.30
  -4   4  10   53.88    5.14
  -4   4  10   49.70    3.71
  -3  -4  10   47.00    3.15
   3  -4 -10   47.26    4.32
   3   4 -10   38.46    4.72
   3   4 -10   52.90    4.22
  -3   4  10   29.32    4.14
  -3   4  10   42.08    3.19
   2  -4 -10   18.16    3.54
  -2  -4  10   10.85    1.93
   2   4 -10   19.32    3.15
   2   4 -10   12.77    3.28
  -2   4  10    8.07    2.84
  -2   4  10   12.63    2.03
  -1  -4  10    9.40    1.79
   1  -4 -10    7.82    2.10
   1  -4 -10    5.24    2.99
  -1   4  10    4.93    1.61
   1   4 -10   14.10    3.65
   1   4 -10    7.42    2.71
  -1   4  10    6.83    2.75
   0  -4 -10   17.69    3.90
   0  -4 -10   14.89    1.90
   0  -4 -10   17.87    2.75
   0  -4  10   23.15    2.23
   0   4  10   15.86    1.94
   0   4  10    7.06    2.61
   0   4 -10   16.29    3.13
   0   4 -10   21.29    4.06
  -1  -4 -10   17.93    3.97
   1  -4  10   28.88    2.37
  -1  -4 -10   19.61    3.22
   1   4  10   19.68    1.94
  -1   4 -10   20.92    3.59
   1   4  10   17.73    2.96
  -1   4 -10   16.58    4.12
  -2  -4 -10    9.17    3.02
   2  -4  10    8.22    1.74
  -2  -4 -10    9.75    3.50
  -2   4 -10    8.86    3.84
   2   4  10    3.31    2.04
  -2   4 -10    5.93    3.15
   3  -4  10    5.40    1.50
  -3  -4 -10   -0.17    2.95
  -3  -4 -10   -0.66    2.83
  -3   4 -10    1.14    3.67
  -3   4 -10    3.87    3.05
  -4  -4 -10    4.46    3.36
   4  -4  10    2.11    1.37
  -4   4 -10   -3.78    3.56
   4   4  10    1.63    1.57
  -4   4 -10    7.24    3.50
  -5  -4 -10    2.04    3.29
   5  -4  10    3.47    1.44
  -5  -4 -10   -0.13    2.92
  -5   4 -10    4.33    5.02
  -5   4 -10    2.04    4.06
  -5   4 -10   -3.12    3.23
  -6  -4 -10    1.85    3.23
   6  -4  10    0.14    1.38
  -6  -4 -10    1.54    3.54
  -6   4 -10    5.27    5.12
  -6   4 -10   -1.35    4.18
  -6   4 -10   -2.74    3.34
   7  -4  10   -0.31    1.26
  -7  -4 -10   -0.01    3.55
  -7  -4 -10   -0.13    3.69
  -7   4 -10    3.48    3.96
  -7   4 -10    7.97    4.84
  -7   4 -10   -3.47    4.38
  -8  -4 -10   -1.55    6.61
   8  -4  10    0.52    1.69
  -8  -4 -10   -2.96    3.70
  -8   4 -10    3.09    5.30
  -8   4 -10    0.29    4.80
  -9  -4 -10    0.99    4.07
   9  -4  10   12.84    3.97
  -9  -4 -10   -0.77    3.92
  -9   4 -10    2.84    4.94
  -9   4 -10    3.53    5.42
  -9   4 -10    4.08    5.26
  10  -4  10   10.93    2.49
 -10  -4 -10    6.84    4.50
 -10  -4 -10    8.29    4.53
 -10   4 -10    0.74    5.76
 -10   4 -10   -2.18    4.33
 -10   4 -10   -5.55    5.32
 -11  -4 -10   -4.33    4.10
  11  -4  10   -0.20    2.07
 -11  -4 -10   -0.57    4.20
 -11   4 -10   -2.75    5.33
 -11   4 -10   -0.90    5.48
 -11   4 -10    3.09    4.75
 -14  -5  10    3.76    2.20
 -14  -5  10   -2.03    2.29
 -14   5  10    4.03    3.18
 -14   5  10    3.38    3.70
 -13  -5  10    3.27    2.31
 -13  -5  10    1.06    2.47
 -13   5  10    2.66    3.14
 -13   5  10   -6.17    2.78
 -12  -5  10    2.15    2.59
 -12  -5  10    3.07    2.20
 -12   5  10    5.25    3.64
 -12   5  10    1.40    2.48
 -11  -5  10    0.92    2.28
 -11  -5  10   -1.75    1.97
 -11   5  10    1.86    2.68
 -11   5  10    0.43    3.28
 -10  -5  10    4.01    2.17
 -10  -5  10    4.91    2.63
 -10   5  10    4.25    3.42
 -10   5  10    6.03    2.77
  -9  -5  10    5.67    2.54
  -9  -5  10    4.70    2.09
  -9   5  10    2.94    2.97
  -9   5  10    4.41    2.84
  -8  -5  10   -2.43    1.99
  -8  -5  10    0.95    1.56
   8  -5 -10    1.55    1.44
  -8   5  10   -2.50    2.53
  -8   5  10    0.30    2.10
   8   5 -10   -1.64    1.71
   7  -5 -10    1.41    1.69
  -7  -5  10   -0.70    1.38
  -7   5  10    2.47    2.21
  -7   5  10    3.53    3.18
   7   5 -10    5.09    2.24
  -6  -5  10    0.15    1.51
   6  -5 -10    3.45    2.12
   6   5 -10    0.15    2.23
  -6   5  10   -0.43    2.55
  -6   5  10    6.69    2.39
   5  -5 -10    0.66    2.50
  -5  -5  10    1.13    1.55
   5   5 -10    1.55    2.22
  -5   5  10    4.54    3.22
  -5   5  10    2.13    2.00
   4  -5 -10    2.38    2.78
  -4  -5  10    2.92    1.57
  -4   5  10   -0.26    2.85
  -4   5  10   -0.02    1.71
   4   5 -10   -0.36    1.94
   3  -5 -10    0.84    2.96
  -3  -5  10    0.56    1.47
   3   5 -10    2.09    2.23
  -3   5  10    2.35    2.89
  -3   5  10    0.57    1.69
   2  -5 -10    0.78    2.74
  -2  -5  10   -1.92    1.18
   2   5 -10    1.94    2.25
   2   5 -10   -1.73    2.60
  -2   5  10    3.20    2.72
   1  -5 -10    1.67    2.91
  -1  -5  10    4.68    1.59
   1  -5 -10    4.73    1.78
   1   5 -10    6.47    3.18
  -1   5  10    1.70    2.53
   1   5 -10    0.28    2.18
  -1   5  10    2.86    1.38
   0  -5 -10    3.90    2.09
   0  -5  10    2.45    1.48
   0  -5 -10    6.55    3.29
   0   5 -10    5.71    3.66
   0   5 -10    7.97    2.86
   0   5  10    2.39    2.40
  -1  -5 -10    3.72    2.49
   1  -5  10    1.41    1.39
  -1  -5 -10    0.37    2.90
   1   5  10   -1.65    1.74
  -1   5 -10   -5.41    2.75
  -1   5 -10    0.90    2.75
  -2  -5 -10    0.01    2.52
   2  -5  10   -2.47    1.10
  -2  -5 -10    0.69    3.32
  -2   5 -10   -1.54    2.86
  -2   5 -10   -3.44    3.47
   2   5  10    0.46    1.85
  -3  -5 -10    2.40    2.90
   3  -5  10    1.29    1.30
  -3  -5 -10   -0.86    2.92
  -3   5 -10   -1.00    2.81
  -3   5 -10   -2.05    3.61
   4  -5  10    3.48    1.57
  -4  -5 -10    7.42    3.48
  -4  -5 -10    2.30    3.21
  -4   5 -10    9.09    4.60
  -4   5 -10    4.24    3.51
   5  -5  10    1.17    1.50
  -5  -5 -10    1.46    3.38
  -5  -5 -10    0.74    3.63
  -5   5 -10    2.02    4.68
  -5   5 -10    0.83    3.46
  -6  -5 -10    0.61    3.34
   6  -5  10    4.54    1.76
  -6  -5 -10   -1.48    3.39
  -6   5 -10    3.53    5.26
  -6   5 -10    2.82    3.81
  -7  -5 -10    7.36    3.84
   7  -5  10    3.98    2.12
  -7  -5 -10    3.03    4.23
  -7   5 -10    8.81    5.38
  -8  -5 -10    0.52    3.85
  -8  -5 -10   -1.33    4.05
   8  -5  10    1.23    1.69
  -8   5 -10   -1.04    4.68
  -8   5 -10    2.11    5.11
  -8   5 -10    1.33    5.31
  -9  -5 -10   -7.08    3.53
  -9  -5 -10    5.97    4.23
   9  -5  10   -1.13    1.71
  -9   5 -10    3.49    5.18
  -9   5 -10   -2.12    3.97
  -9   5 -10   -8.11    4.81
 -10  -5 -10    5.81    4.38
  10  -5  10   -1.04    1.89
 -10  -5 -10    5.04    4.29
 -10   5 -10    7.87    6.65
 -10   5 -10   -2.38    4.23
 -10   5 -10   -5.66    5.22
 -13  -6  10   -2.57    1.81
 -13  -6  10   -3.88    2.61
 -13   6  10    3.71    4.20
 -12  -6  10    1.89    2.13
 -12  -6  10   -0.55    2.48
 -12   6  10    3.25    3.54
 -11  -6  10    2.49    2.01
 -11  -6  10   -0.20    2.39
 -11   6  10    3.10    3.16
 -10  -6  10    4.06    2.71
 -10  -6  10   -4.20    3.10
 -10   6  10    7.26    3.36
 -10   6  10    3.29    3.21
  -9  -6  10    6.39    3.31
  -9  -6  10    4.13    2.04
  -9   6  10   -2.00    2.43
  -9   6  10    3.56    3.46
  -8  -6  10    9.06    2.39
  -8  -6  10   12.22    3.30
  -8   6  10    9.38    3.68
   8   6 -10   10.82    2.99
  -8   6  10    8.90    3.20
  -7  -6  10   15.49    2.72
   7  -6 -10   11.81    2.19
  -7  -6  10   20.33    3.77
  -7   6  10   17.94    4.06
   7   6 -10   11.13    2.97
  -7   6  10   12.96    3.29
  -6  -6  10   13.86    2.45
   6  -6 -10   15.33    2.61
  -6   6  10   11.10    3.06
   6   6 -10   15.74    3.36
  -6   6  10   17.91    4.39
  -5  -6  10    4.33    1.73
   5  -6 -10    1.18    2.32
  -5   6  10    5.78    2.46
  -5   6  10   -0.92    2.95
   5   6 -10    1.47    2.22
   4  -6 -10   -2.11    2.70
  -4  -6  10   -1.43    1.38
  -4   6  10   -1.13    1.81
   4   6 -10    1.31    2.16
  -4   6  10    0.64    3.01
   3  -6 -10   -1.49    2.64
  -3  -6  10    1.25    1.53
   3   6 -10   -1.96    2.13
  -3   6  10    4.20    3.14
  -2  -6  10    7.19    1.91
   2  -6 -10    4.08    3.28
   2   6 -10   17.63    3.60
   1  -6 -10   12.26    3.70
   1  -6 -10   10.24    1.79
  -1  -6  10   14.45    2.39
   1   6 -10   14.03    3.41
  -1   6  10   11.67    3.25
   0  -6 -10    3.06    2.23
   0  -6  10    4.14    1.72
   0  -6 -10    0.63    2.97
   0   6 -10    0.80    2.86
   0   6  10    3.27    2.44
   1  -6  10    0.39    1.41
  -1  -6 -10    5.26    2.28
  -1  -6 -10    3.05    3.08
  -1   6 -10   -0.62    3.35
  -1   6 -10    1.15    2.93
   1   6  10    2.74    2.36
   2  -6  10    4.93    1.75
  -2  -6 -10    3.49    2.74
  -2  -6 -10    7.67    3.42
  -2   6 -10    9.14    3.64
  -2   6 -10    6.33    4.11
   2   6  10    5.12    2.30
   3  -6  10   13.01    2.21
  -3  -6 -10   10.27    3.70
  -3  -6 -10    7.51    3.04
  -3   6 -10   18.93    4.90
  -3   6 -10   14.98    4.37
  -4  -6 -10    5.32    3.59
   4  -6  10    9.04    2.08
  -4  -6 -10   10.07    3.65
  -4   6 -10    9.49    4.03
  -4   6 -10    5.17    4.50
  -5  -6 -10    1.81    3.60
   5  -6  10    5.12    2.44
  -5  -6 -10    0.75    3.38
  -5   6 -10    8.17    4.96
  -5   6 -10    5.38    3.93
   6  -6  10    4.33    1.89
  -6  -6 -10    2.67    4.17
  -6  -6 -10    1.40    3.65
  -6   6 -10    2.70    4.19
  -6   6 -10    4.28    4.65
   7  -6  10    9.02    2.37
  -7  -6 -10    4.57    3.54
  -7  -6 -10    3.25    3.89
  -7   6 -10   -6.52    4.61
  -7   6 -10   -4.03    3.80
  -8  -6 -10    2.13    3.89
  -8  -6 -10    4.92    3.81
   8  -6  10    3.61    2.13
  -8   6 -10    8.54    4.71
  -8   6 -10    8.61    4.94
   9  -6  10   -0.73    1.88
  -9  -6 -10    5.45    4.78
  -9  -6 -10   -2.72    3.48
  -9   6 -10   -5.18    4.00
  -9   6 -10    4.30    5.13
 -12  -7  10    5.28    2.94
 -12  -7  10   -0.58    2.33
 -12   7  10    6.51    4.15
 -11  -7  10    1.52    2.71
 -11  -7  10    1.95    2.18
 -11   7  10   -3.93    3.76
 -10  -7  10    3.10    2.11
 -10  -7  10    8.50    3.26
 -10   7  10    2.36    3.72
  -9  -7  10   -0.76    2.62
  -9  -7  10    0.59    1.78
  -9   7  10   -2.30    3.62
  -8  -7  10    1.92    1.95
  -8  -7  10    1.36    2.68
   8   7 -10    0.90    2.47
  -7  -7  10    3.64    1.78
   7   7 -10    2.74    2.49
  -7   7  10    6.49    3.54
  -6  -7  10    2.21    1.77
   6  -7 -10    2.77    2.11
  -6   7  10   -1.96    3.07
   6   7 -10    0.55    2.24
  -5  -7  10    2.12    1.82
   5  -7 -10    2.08    2.57
  -5   7  10    1.30    2.97
   5   7 -10    0.42    2.36
   4  -7 -10    1.13    2.65
  -4  -7  10   -0.12    1.64
   4   7 -10    1.37    2.71
  -4   7  10    3.57    3.04
   3  -7 -10    3.86    3.38
  -3  -7  10   -1.25    1.49
  -3   7  10    1.65    3.34
   3   7 -10   -0.72    2.49
  -2  -7  10   -1.05    1.42
   2  -7 -10    3.25    2.91
   2   7 -10   -2.00    2.36
  -2   7  10    2.69    2.98
  -1  -7  10    0.00    1.55
   1  -7 -10   -2.91    2.71
  -1   7  10   -1.45    2.79
   1   7 -10    2.22    2.84
   0  -7 -10    1.13    3.44
   0  -7  10    1.54    1.55
   0   7  10    2.15    2.67
   0   7 -10   -2.72    2.82
   1  -7  10    1.60    1.62
  -1  -7 -10   -3.52    2.92
  -1  -7 -10   -3.58    1.85
  -1   7 -10    2.84    3.35
   1   7  10    2.38    2.47
  -2  -7 -10    3.29    3.30
   2  -7  10   -1.91    1.55
  -2  -7 -10    0.42    2.48
   2   7  10   -1.46    2.03
  -2   7 -10    7.96    3.88
  -3  -7 -10   -3.66    2.98
  -3   7 -10   -0.44    3.81
  -4  -7 -10    2.59    3.20
  -4  -7 -10    2.39    5.97
   4  -7  10    0.75    1.63
  -4   7 -10    1.45    3.74
  -5  -7 -10    8.46    3.63
   5  -7  10    0.88    1.86
  -5  -7 -10   -2.89    2.85
  -5   7 -10    1.19    3.78
  -6  -7 -10    0.96    3.28
   6  -7  10   -0.71    1.79
  -6  -7 -10    4.57    3.86
  -6   7 -10    1.05    3.70
  -7  -7 -10    1.42    5.96
   7  -7  10   -0.19    2.14
  -7  -7 -10    3.45    3.84
  -7   7 -10    5.38    4.31
  -8  -7 -10    3.11    3.86
  -8  -7 -10    0.08    3.78
   8  -7  10   -0.66    2.01
  -8   7 -10   -1.34    3.89
 -10  -8  10    3.66    3.40
 -10  -8  10    1.96    2.20
 -10   8  10    6.69    3.86
  -9  -8  10    1.80    2.77
  -9  -8  10    1.48    1.97
  -9   8  10    7.42    4.38
  -8  -8  10   -3.78    2.46
  -8  -8  10   -4.51    1.75
   8   8 -10   -0.99    2.53
  -8   8  10   -3.18    3.55
  -7  -8  10    4.22    3.02
  -7  -8  10    1.61    2.06
  -7   8  10   -5.29    3.36
   7   8 -10   -2.30    2.15
  -6  -8  10   -0.52    1.71
  -6  -8  10    3.60    2.93
   6   8 -10   -0.09    2.55
  -5   8  10    1.48    3.99
   5   8 -10    4.66    3.11
   4  -8 -10    8.17    3.22
   4   8 -10   11.08    4.25
  -4   8  10   19.88    4.74
   3  -8 -10    8.96    3.52
   3   8 -10    8.13    5.66
  -3   8  10    5.17    3.52
   2  -8 -10    0.30    3.15
  -2   8  10    7.37    3.28
   2   8 -10    0.60    5.20
   1  -8 -10    6.91    3.57
  -1  -8  10    5.42    1.98
  -1   8  10    2.71    3.15
   1   8 -10    1.93    5.73
   0  -8 -10    1.46    3.46
   0  -8  10    8.27    2.29
   0   8 -10    6.11    3.58
   0   8  10    5.49    3.01
   1  -8  10    8.70    2.48
  -1  -8 -10    9.43    3.61
   1   8  10   10.13    3.01
  -1   8 -10    1.38    3.46
   2  -8  10    5.18    2.11
  -2  -8 -10   -0.70    3.10
  -2   8 -10    0.59    3.50
   3  -8  10    2.30    1.85
  -3  -8 -10   -2.97    3.02
  -3  -8 -10   -2.76    2.68
  -3   8 -10   -4.79    3.16
   4  -8  10    0.67    1.88
  -4  -8 -10    3.00    3.14
  -4  -8 -10    0.99    3.83
  -4   8 -10   -4.62    3.26
  -5  -8 -10   -4.95    2.74
  -5  -8 -10   -3.62    3.41
   5  -8  10    2.34    2.08
  -5   8 -10   -1.19    3.83
   6  -8  10   -1.84    1.98
  -6  -8 -10    8.29    3.99
  -6  -8 -10    5.21    6.08
  -6   8 -10    0.84    3.96
  -8  -9  10    1.99    2.14
  -8  -9  10    2.82    2.92
   8   9 -10    6.08    3.18
  -8   9  10    0.68    4.17
  -7  -9  10   -2.64    1.80
  -7  -9  10    3.04    2.86
  -7   9  10    3.49    4.04
   7   9 -10    2.70    2.97
  -6  -9  10    3.39    2.99
  -6  -9  10   -0.54    1.90
   6   9 -10    1.50    2.91
  -6   9  10   -0.31    4.01
  -5  -9  10   -1.61    1.85
  -5  -9  10   -0.46    2.61
   5   9 -10    1.59    2.80
  -5   9  10    1.22    3.85
  -4  -9  10    2.79    2.33
   4   9 -10   -2.97    2.66
  -4   9  10    2.10    6.24
   3  -9 -10    0.97    2.91
  -3  -9  10   -2.79    1.52
  -3   9  10   -0.95    3.14
   3   9 -10   -3.54    2.59
   2  -9 -10    1.22    3.20
  -2  -9  10   -3.73    1.48
   2   9 -10    0.42    3.18
  -2   9  10    2.26    3.10
  -1  -9  10    3.14    1.94
   1  -9 -10   -0.06    3.08
   1   9 -10    0.89    3.04
  -1   9  10   -5.20    2.75
   0  -9 -10    0.88    3.36
   0  -9  10    0.09    1.63
   0   9 -10   -0.92    3.22
   0   9  10   -5.27    2.67
   1  -9  10   -0.83    1.80
  -1   9 -10    1.23    3.67
   2  -9  10   -0.16    1.83
  -2  -9 -10   -5.34    2.80
  -2   9 -10    0.61    3.64
  -3  -9 -10   -2.03    3.58
   3  -9  10   -2.70    1.59
  -3   9 -10    4.83    3.76
   4  -9  10    5.81    2.29
  -4  -9 -10    3.72    3.61
  -4   9 -10   -2.03    3.82
 -16   0  11   -0.27    2.35
 -16   0  11    1.33    3.69
 -15   0  11    1.34    2.58
 -15   0  11    2.52    3.07
 -15   0  11    1.21    2.31
 -14   0  11    4.56    2.45
 -14   0  11    2.17    1.90
 -14   0  11    7.14    3.37
 -13   0  11   -9.90    3.28
 -13   0  11   -1.53    2.06
 -13   0  11   -1.62    1.53
 -12   0  11    1.24    2.02
 -12   0  11   -0.75    1.49
 -11   0  11    6.20    2.26
 -11   0  11    3.16    1.49
 -10   0  11    7.78    1.80
 -10   0  11    1.41    1.90
  -9   0  11    7.57    2.19
  -9   0  11    9.92    1.80
  -8   0  11    3.10    1.73
  -8   0  11    1.47    1.32
   7   0 -11   -2.12    1.89
  -7   0  11    2.21    1.54
   6   0 -11    5.83    2.52
  -5   0  11   33.83    2.72
   5   0 -11   29.19    3.89
   4   0 -11   59.54    5.01
  -4   0  11   66.20    3.73
   4   0 -11   66.18    3.07
   3   0 -11   55.88    2.79
   3   0 -11   45.66    4.66
   2   0 -11   19.21    1.94
  -2   0  11   15.15    1.90
   2   0 -11    9.13    3.41
  -1   0  11    4.93    1.28
   1   0 -11    2.87    1.45
   1   0 -11    7.06    2.78
   0   0 -11    0.09    3.09
   0   0  11    2.94    1.36
  -1   0 -11   -2.57    3.53
  -1   0 -11    0.15    1.73
   1   0  11    0.75    1.10
  -1   0 -11   -0.30    2.79
  -2   0 -11   -4.66    2.79
   2   0  11   -0.01    1.01
  -2   0 -11    0.83    2.32
  -2   0 -11   -4.01    3.53
   3   0  11    1.23    1.07
  -3   0 -11   -2.13    3.78
  -3   0 -11    0.64    2.56
  -3   0 -11    2.98    3.92
  -4   0 -11    8.00    3.36
   4   0  11   10.97    1.59
  -4   0 -11   11.92    4.22
  -4   0 -11   16.18    4.77
   5   0  11   19.58    1.89
  -5   0 -11   14.13    4.73
  -5   0 -11   10.97    4.54
  -5   0 -11   11.78    3.75
   6   0  11    7.53    1.46
  -6   0 -11    7.37    4.53
  -6   0 -11    4.36    3.37
  -6   0 -11    5.57    4.44
   7   0  11    0.15    1.19
  -7   0 -11    1.28    3.75
  -7   0 -11    7.68    4.81
  -7   0 -11   -2.12    4.02
  -8   0 -11    7.33    4.09
  -8   0 -11    4.01    4.90
  -8   0 -11   -0.42    4.45
   8   0  11    0.49    1.32
  -9   0 -11   -4.77    4.34
   9   0  11    5.82    1.71
  -9   0 -11   -3.27    4.27
  -9   0 -11    5.20    8.63
 -10   0 -11   -0.94    4.40
 -10   0 -11    5.00    4.84
  10   0  11    0.91    1.62
 -10   0 -11   -4.61    4.79
 -11   0 -11    5.83    5.23
 -11   0 -11    3.20    4.84
 -11   0 -11   -7.40    5.31
 -15  -1  11   -0.07    2.09
 -15  -1  11   -2.94    2.11
 -15  -1  11   -7.93    2.78
 -15   1  11    2.92    3.36
 -15   1  11   -0.21    2.29
 -14  -1  11   -3.75    1.99
 -14  -1  11   -0.86    3.26
 -14  -1  11   -5.56    1.72
 -14   1  11    0.55    3.31
 -14   1  11    5.60    2.74
 -13  -1  11    2.36    1.97
 -13  -1  11    0.16    2.02
 -13   1  11    2.50    2.31
 -13   1  11    0.09    2.15
 -12  -1  11    0.99    2.11
 -12  -1  11    0.47    1.69
 -12   1  11    0.11    2.06
 -12   1  11   -0.63    2.93
 -12   1  11   -2.02    1.28
 -11  -1  11    1.91    1.90
 -11  -1  11   -1.81    1.52
 -11   1  11    3.78    2.23
 -11   1  11   -0.17    2.53
 -11   1  11    0.96    1.28
 -10  -1  11   -0.25    1.50
 -10  -1  11    1.70    1.64
 -10   1  11    1.09    1.98
 -10   1  11    2.48    1.32
  -9  -1  11    2.03    1.57
  -9  -1  11   -0.40    1.54
  -9   1  11    0.42    1.15
  -9   1  11    2.33    1.77
   8  -1 -11   -0.51    1.87
  -8  -1  11   -1.78    1.34
  -8  -1  11   -0.88    1.40
  -8   1  11    0.41    1.58
  -8   1  11    0.70    1.10
   7  -1 -11    2.14    2.16
  -7  -1  11    1.31    1.54
  -7   1  11   -0.93    1.38
  -7   1  11    1.58    1.12
   6  -1 -11    2.15    2.23
  -6  -1  11    1.92    1.44
  -6   1  11    1.85    1.46
  -5  -1  11    1.48    1.20
   5  -1 -11    0.90    2.38
   5   1 -11    3.16    2.51
   5   1 -11    3.14    1.21
  -5   1  11   -0.22    1.43
   4  -1 -11    4.65    3.12
  -4  -1  11    2.19    1.39
   4   1 -11    0.91    2.46
  -4   1  11    4.04    1.59
   4   1 -11    5.04    1.33
  -3  -1  11    1.20    1.28
   3  -1 -11   -3.13    2.73
   3   1 -11   -1.38    0.98
  -3   1  11    2.30    1.34
   3   1 -11   -4.39    2.36
   2  -1 -11   12.07    1.24
  -2  -1  11   11.72    1.82
   2  -1 -11   13.51    3.73
   2   1 -11   12.88    2.29
  -2   1  11   12.90    1.90
   2   1 -11   11.34    3.47
  -1  -1  11   29.12    2.31
   1  -1 -11   27.66    2.07
   1  -1 -11   24.26    4.33
  -1   1  11   28.48    2.28
   1   1 -11   29.79    2.96
   1   1 -11   20.85    4.68
   0  -1 -11    8.27    3.13
   0  -1 -11    9.99    1.82
   0  -1  11    9.47    1.59
   0   1  11    6.16    1.36
   0   1 -11    9.19    2.27
  -1  -1 -11    0.43    2.81
   1  -1  11    1.22    1.26
  -1  -1 -11    0.36    3.49
  -1  -1 -11    1.18    2.08
  -1   1 -11   -4.08    2.85
   1   1  11    0.81    1.05
  -1   1 -11    1.00    2.08
  -1   1 -11   -0.02    3.50
   2  -1  11    5.81    1.46
  -2  -1 -11    1.71    3.60
  -2  -1 -11    2.49    2.08
  -2  -1 -11    6.01    3.41
  -2   1 -11    5.66    4.03
  -2   1 -11    6.35    4.10
   2   1  11    8.19    1.24
  -2   1 -11    2.36    2.61
  -3  -1 -11    0.02    3.65
  -3  -1 -11    0.13    2.39
   3  -1  11    2.25    1.17
  -3   1 -11   -0.13    3.49
  -3   1 -11    4.23    2.61
   3   1  11    1.37    1.00
  -3   1 -11   -0.33    3.84
  -4  -1 -11    3.20    3.90
  -4  -1 -11   -4.44    3.23
  -4  -1 -11    3.52    2.77
   4  -1  11   -1.94    0.98
  -4   1 -11    0.17    2.93
   4   1  11   -0.58    0.83
  -4   1 -11   -2.98    3.44
  -4   1 -11   -1.74    3.88
   5  -1  11    2.90    1.24
  -5  -1 -11   -3.05    2.83
  -5  -1 -11    3.48    3.74
  -5  -1 -11    5.17    4.12
   5   1  11    0.35    0.98
  -5   1 -11   -1.19    2.94
  -5   1 -11    6.62    4.58
  -5   1 -11    5.30    4.21
   6  -1  11    2.66    1.35
  -6  -1 -11    3.92    3.50
  -6  -1 -11   -1.61    3.94
  -6  -1 -11    0.74    3.91
  -6   1 -11    1.40    3.79
   6   1  11    0.92    1.08
  -6   1 -11   -2.00    4.20
  -6   1 -11   -1.25    4.04
  -7  -1 -11    6.94    3.71
   7  -1  11   -0.21    1.23
  -7  -1 -11   -0.45    3.98
  -7  -1 -11   -0.24    4.33
   7   1  11    1.34    1.15
  -7   1 -11    1.36    3.51
  -7   1 -11    0.48    4.24
  -7   1 -11   -3.06    4.37
   8  -1  11    0.28    1.36
  -8  -1 -11    1.42    4.57
  -8  -1 -11   -0.55    4.38
  -8  -1 -11   -0.94    4.05
   8   1  11    0.23    1.23
  -8   1 -11   -1.76    3.86
  -8   1 -11   -3.14    4.55
  -8   1 -11    0.33    5.01
  -9  -1 -11   -3.14    4.46
  -9  -1 -11    1.08    4.44
   9  -1  11    0.70    1.28
  -9  -1 -11    2.31    4.88
  -9   1 -11   -8.30    5.23
  -9   1 -11   10.40    4.49
   9   1  11    1.81    1.44
  -9   1 -11    3.82    4.96
 -10  -1 -11    5.38    4.83
  10  -1  11    4.23    1.68
 -10  -1 -11    2.79    4.88
 -10  -1 -11    6.57    5.02
 -10   1 -11   -5.60    5.37
 -10   1 -11    5.33    4.90
 -10   1 -11   -1.18    4.81
 -11  -1 -11    1.25    5.08
 -11  -1 -11    0.19    4.76
  11  -1  11    1.11    1.74
 -11  -1 -11   -4.04    4.73
 -11   1 -11    6.90    5.62
 -11   1 -11    4.93    5.33
 -11   1 -11   -6.27    4.46
 -15  -2  11    1.23    2.57
 -15  -2  11   -0.59    3.30
 -15   2  11   -3.07    3.17
 -15   2  11   -0.23    2.41
 -14  -2  11    5.19    2.37
 -14  -2  11   -2.40    1.87
 -14   2  11    0.00    3.58
 -14   2  11    0.08    2.26
 -13  -2  11    1.51    2.54
 -13  -2  11    2.74    2.23
 -13   2  11    1.11    2.38
 -13   2  11    1.48    3.02
 -12  -2  11    4.87    2.60
 -12  -2  11    1.03    1.82
 -12   2  11    0.77    2.95
 -12   2  11    1.72    2.13
 -11  -2  11    4.04    1.92
 -11  -2  11    1.61    1.83
 -11   2  11   -0.41    2.76
 -11   2  11   -1.51    1.83
 -10  -2  11    2.47    1.93
 -10  -2  11    1.20    1.67
 -10   2  11    0.36    1.79
 -10   2  11    0.91    0.91
 -10   2  11   -2.40    2.35
  -9  -2  11    3.95    1.89
  -9  -2  11    2.41    2.00
  -9   2  11    3.16    1.01
  -9   2  11    0.22    2.51
  -9   2  11    3.63    2.19
  -8  -2  11    7.37    2.07
  -8  -2  11   13.24    2.98
   8  -2 -11   10.55    2.63
  -8   2  11   13.03    2.50
  -8   2  11    9.54    1.31
   7  -2 -11   25.09    3.44
  -7  -2  11   29.50    2.80
  -7   2  11   23.46    1.79
  -7   2  11   25.82    3.27
   6  -2 -11   13.54    2.94
  -6  -2  11   19.03    2.47
  -6   2  11   13.07    2.26
   6   2 -11   15.64    2.04
   6   2 -11   16.93    3.40
  -5  -2  11   -0.23    1.29
   5  -2 -11    1.32    2.47
  -5   2  11   -0.51    1.44
   5   2 -11    1.48    2.49
   5   2 -11    1.44    1.42
   4  -2 -11   -1.37    2.49
   4   2 -11    5.52    2.77
   4   2 -11    1.24    1.26
  -4   2  11    3.01    1.45
  -3  -2  11    2.27    1.55
   3  -2 -11   -3.79    2.59
   3   2 -11    2.46    1.62
  -3   2  11   -0.13    1.21
   3   2 -11    3.51    3.06
   2  -2 -11   13.88    3.62
  -2  -2  11   15.56    2.00
   2   2 -11   10.24    2.27
  -2   2  11    7.68    1.56
   2   2 -11    7.18    3.68
   1  -2 -11   19.96    3.17
   1  -2 -11   17.90    4.00
  -1  -2  11   19.00    2.20
   1   2 -11   18.36    4.20
   1   2 -11   28.58    3.11
  -1   2  11   20.71    2.06
   0  -2  11   23.38    2.16
   0  -2 -11   20.57    3.46
   0  -2 -11   25.98    2.14
   0   2  11   24.09    2.01
   0   2 -11   23.60    3.20
   0   2 -11   21.36    4.27
  -1  -2 -11   27.13    4.59
   1  -2  11   30.10    2.34
  -1  -2 -11   29.58    2.79
  -1  -2 -11   30.27    4.13
  -1   2 -11   25.85    3.53
  -1   2 -11   17.96    4.57
   1   2  11   28.28    2.08
   2  -2  11   35.80    2.76
  -2  -2 -11   24.93    4.72
  -2  -2 -11   30.29    3.46
  -2  -2 -11   41.90    4.42
  -2   2 -11   45.93    4.47
   2   2  11   33.88    2.16
  -2   2 -11   28.85    5.10
  -2   2 -11   29.09    4.89
   3  -2  11   15.29    2.22
  -3  -2 -11   16.75    4.82
  -3  -2 -11   18.31    3.10
  -3  -2 -11   20.98    4.51
   3   2  11   18.31    1.71
  -3   2 -11   16.65    4.66
  -3   2 -11   18.81    4.60
  -3   2 -11   10.83    3.43
   4  -2  11    4.95    1.33
  -4  -2 -11    6.08    3.77
  -4  -2 -11    7.01    3.62
  -4  -2 -11   -1.36    2.48
   4   2  11    2.45    0.99
  -4   2 -11    3.66    2.99
  -4   2 -11    2.48    4.14
  -4   2 -11   -1.64    3.62
   5  -2  11    0.84    1.21
  -5  -2 -11   -3.26    3.51
  -5  -2 -11   -5.01    3.24
  -5  -2 -11   -1.61    2.76
  -5   2 -11   -0.60    3.07
  -5   2 -11    1.75    4.04
  -5   2 -11   -4.75    4.13
   5   2  11   -1.79    0.84
  -6  -2 -11   -3.65    3.81
  -6  -2 -11   -1.99    3.01
  -6  -2 -11   -0.13    4.11
   6  -2  11    2.08    1.22
  -6   2 -11   -3.39    4.29
  -6   2 -11    4.12    3.55
   6   2  11    0.36    0.93
  -6   2 -11   -0.99    4.25
  -7  -2 -11    2.35    4.48
   7  -2  11    2.87    1.53
  -7  -2 -11    1.61    4.33
  -7   2 -11    7.69    5.15
  -7   2 -11    0.22    3.62
  -7   2 -11   13.89    5.12
   7   2  11    5.85    1.32
  -8  -2 -11    5.31    5.06
   8  -2  11   -0.39    1.44
  -8   2 -11    4.60    4.57
  -8   2 -11    2.35    5.54
  -9  -2 -11   -2.14    4.44
   9  -2  11    0.65    1.39
  -9  -2 -11   -5.65    4.22
  -9   2 -11    2.64    4.82
  -9   2 -11   -5.67    4.29
  -9   2 -11   -0.78    5.60
 -10  -2 -11    3.44    4.82
  10  -2  11   -0.02    1.60
 -10  -2 -11    4.83    5.10
 -10   2 -11   -1.78    6.20
 -10   2 -11    2.90    4.17
 -10   2 -11    1.12    5.72
  11  -2  11    0.87    1.84
 -11  -2 -11   10.32    5.31
 -11  -2 -11   -0.26    5.49
 -11   2 -11   10.22    5.71
 -11   2 -11    8.34    5.16
 -11   2 -11   -0.48    5.11
 -15  -3  11   -2.37    2.16
 -15  -3  11   -1.77    2.10
 -15   3  11   -0.75    3.32
 -15   3  11    1.77    2.81
 -14  -3  11    3.25    2.86
 -14  -3  11    0.84    2.28
 -14   3  11   -4.78    2.92
 -14   3  11    2.53    2.55
 -13  -3  11    1.35    2.23
 -13  -3  11    4.81    2.64
 -13   3  11   -5.46    3.03
 -13   3  11   -3.24    2.06
 -12  -3  11    0.32    3.45
 -12  -3  11   -1.15    1.79
 -12   3  11    5.41    4.90
 -11  -3  11   -1.21    2.07
 -11  -3  11    2.31    1.88
 -11   3  11    0.61    2.79
 -11   3  11    1.58    2.11
 -10  -3  11   -0.40    1.64
 -10  -3  11   -0.09    1.65
 -10   3  11    3.52    2.75
 -10   3  11    1.94    2.24
  -9  -3  11    0.16    1.82
  -9  -3  11   -0.36    1.53
  -9   3  11   -1.42    2.27
  -9   3  11    2.06    1.95
  -8  -3  11    0.49    1.55
  -8  -3  11    0.37    1.98
   8  -3 -11    1.27    1.94
  -8   3  11    1.60    2.33
  -8   3  11    1.11    1.95
   7  -3 -11    0.29    2.08
  -7  -3  11   -1.34    1.21
   7   3 -11    4.84    1.89
  -7   3  11   -1.37    2.24
  -7   3  11   -0.37    1.60
   6  -3 -11    5.23    2.66
  -6  -3  11    3.21    1.60
  -6   3  11    1.12    0.75
  -6   3  11    4.27    1.85
  -6   3  11    0.03    2.26
   6   3 -11    2.79    1.82
   5  -3 -11    0.94    2.50
  -5  -3  11    1.71    1.25
   5   3 -11    2.86    2.71
   5   3 -11    1.21    1.76
  -5   3  11    4.14    1.87
   4  -3 -11    3.82    3.14
  -4  -3  11    4.22    1.64
   4   3 -11    2.61    2.11
   4   3 -11    0.37    1.51
  -4   3  11    0.79    1.58
   3  -3 -11    1.61    3.02
  -3  -3  11   -0.41    1.34
   3   3 -11    2.83    2.04
   3   3 -11    0.32    2.65
  -3   3  11    1.05    1.40
  -2  -3  11    9.86    1.87
   2  -3 -11   10.86    3.87
   2   3 -11    8.61    2.35
   2   3 -11    7.88    3.27
  -2   3  11    7.57    1.74
  -1  -3  11   25.88    2.34
   1  -3 -11   20.15    2.90
   1   3 -11    8.36    3.52
   1   3 -11   24.65    3.33
  -1   3  11   16.63    2.11
   0  -3 -11    1.04    3.38
   0  -3  11    6.72    1.62
   0  -3 -11    1.70    2.50
   0   3  11    3.79    1.45
   0   3 -11    9.26    2.73
   0   3 -11    6.81    3.62
  -1  -3 -11    0.13    1.48
  -1  -3 -11    0.92    3.25
  -1  -3 -11   -0.12    2.76
   1  -3  11    0.67    1.19
  -1   3 -11   -3.89    3.08
   1   3  11    0.58    1.21
  -1   3 -11    2.93    2.46
  -2  -3 -11    8.32    3.50
  -2  -3 -11    1.02    3.44
  -2  -3 -11    0.97    2.76
   2  -3  11    4.07    1.46
  -2   3 -11    7.95    3.28
   2   3  11    3.80    1.19
  -2   3 -11    3.83    3.93
   3  -3  11    2.81    1.33
  -3  -3 -11   -2.71    2.15
  -3  -3 -11   -2.72    3.27
  -3  -3 -11    1.52    3.00
   3   3  11    0.69    1.00
  -3   3 -11    0.96    2.79
  -3   3 -11   -0.95    3.85
  -3   3 -11   -0.92    3.60
   4  -3  11    0.77    1.16
  -4  -3 -11    2.04    3.51
  -4  -3 -11   -2.54    3.50
  -4   3 -11   -1.18    4.04
  -4   3 -11   -6.29    3.47
  -4   3 -11    4.31    3.27
   4   3  11   -0.90    0.93
  -5  -3 -11   -2.53    3.65
   5  -3  11    2.90    1.36
  -5  -3 -11   -5.94    3.56
  -5   3 -11   -3.88    3.98
  -5   3 -11    2.44    4.27
  -5   3 -11   -2.78    2.94
   6  -3  11    2.41    1.59
  -6  -3 -11   -3.40    3.62
  -6  -3 -11    0.51    3.91
  -6   3 -11   -0.44    4.71
  -6   3 -11   -4.62    4.31
  -6   3 -11    4.52    4.08
  -7  -3 -11    0.66    4.25
   7  -3  11    1.35    1.47
  -7  -3 -11    0.72    4.15
  -7   3 -11    2.91    4.66
  -7   3 -11   -3.30    4.74
  -7   3 -11   -0.90    4.11
  -8  -3 -11   -3.19    4.32
   8  -3  11    0.56    1.38
  -8  -3 -11    1.39    4.47
  -8   3 -11    2.02    4.93
  -8   3 -11   -1.31    4.83
  -8   3 -11   -0.42    6.18
  -9  -3 -11    9.42    4.66
  -9  -3 -11   -0.50    4.35
  -9   3 -11   -4.79    5.07
  -9   3 -11   -4.32    5.15
  -9   3 -11    0.49    4.10
 -10  -3 -11    0.66    4.71
 -10  -3 -11   -7.14    4.14
  10  -3  11   -0.89    1.53
 -10   3 -11   -2.95    5.53
 -10   3 -11    0.89    5.30
 -10   3 -11   -1.34    4.22
 -14  -4  11   -3.06    1.84
 -14  -4  11   -0.22    2.22
 -14   4  11    2.57    2.72
 -14   4  11   -0.71    3.23
 -13  -4  11    0.42    2.61
 -13  -4  11    0.50    1.97
 -13   4  11   -1.45    2.89
 -13   4  11    0.76    2.53
 -12  -4  11    2.08    2.39
 -12  -4  11    0.41    1.89
 -12   4  11    5.51    3.29
 -12   4  11    3.04    2.69
 -11  -4  11    1.81    2.17
 -11   4  11   -1.64    4.36
 -11   4  11    1.76    2.59
 -10  -4  11    1.32    1.96
 -10  -4  11    9.36    2.95
 -10   4  11    0.80    2.33
 -10   4  11    0.55    2.78
  -9  -4  11    1.72    1.89
  -9  -4  11    4.01    2.35
  -9   4  11    1.96    3.12
  -9   4  11    3.35    2.29
  -8  -4  11    0.16    1.56
  -8  -4  11    2.14    2.38
   8  -4 -11   -0.60    1.71
  -8   4  11   -0.34    2.73
  -8   4  11   -1.45    1.95
   7  -4 -11    3.27    2.04
  -7  -4  11   -0.39    1.35
  -7   4  11    0.05    2.89
   7   4 -11   -1.84    1.61
  -7   4  11   -0.70    1.82
   6  -4 -11    1.94    2.35
  -6  -4  11    1.89    1.63
   6   4 -11    2.69    2.23
  -6   4  11    4.64    2.32
  -6   4  11    3.74    2.83
   5  -4 -11   19.77    3.55
  -5  -4  11   17.04    2.46
  -5   4  11   26.24    3.16
   5   4 -11   20.12    2.91
  -5   4  11   13.75    3.74
  -4  -4  11   45.64    3.30
   4  -4 -11   31.71    4.49
   4   4 -11   38.87    4.83
  -4   4  11   39.53    3.45
  -4   4  11   26.42    4.29
   4   4 -11   37.08    3.96
  -3  -4  11   23.18    2.78
   3  -4 -11   29.10    4.22
   3   4 -11   30.78    4.59
  -3   4  11   26.54    3.06
   3   4 -11   31.73    3.76
  -2  -4  11   12.14    2.08
   2  -4 -11   10.87    3.93
  -2   4  11    7.74    1.95
  -2   4  11    1.67    2.84
   2   4 -11    9.42    3.56
   2   4 -11   13.91    2.87
   1  -4 -11    0.91    1.93
   1  -4 -11    5.02    3.30
  -1  -4  11    1.96    1.45
  -1   4  11    0.38    2.20
   1   4 -11    4.73    3.19
   1   4 -11    1.77    2.42
  -1   4  11   -0.36    2.40
   0  -4 -11    0.35    3.16
   0  -4 -11    6.23    2.62
   0  -4  11    2.88    1.54
   0   4 -11   -1.94    3.02
   0   4 -11    3.77    3.45
   0   4  11    1.41    2.42
   0   4  11    1.58    1.38
  -1  -4 -11    0.02    3.30
   1  -4  11   -0.99    1.11
  -1  -4 -11    4.97    2.67
  -1  -4 -11   -0.88    1.37
  -1   4 -11   -1.86    3.15
   1   4  11    2.44    2.39
   1   4  11    0.99    1.26
  -1   4 -11    1.05    2.69
  -2  -4 -11    1.23    3.39
  -2  -4 -11   -2.87    2.29
   2  -4  11   -0.75    1.19
   2   4  11    3.61    1.97
   2   4  11    0.98    2.03
  -2   4 -11   -2.48    2.54
  -2   4 -11   -8.60    3.58
  -3  -4 -11   -1.45    3.27
  -3  -4 -11   -0.47    3.38
   3  -4  11    0.41    1.41
  -3   4 -11    0.69    4.33
  -3   4 -11   -1.95    2.78
   3   4  11    1.89    2.04
  -4  -4 -11    2.85    3.24
   4  -4  11    7.91    1.75
  -4  -4 -11    4.92    3.85
  -4   4 -11    3.33    4.58
  -4   4 -11    3.20    3.81
   5  -4  11   12.80    2.06
  -5  -4 -11   10.07    3.89
  -5  -4 -11    6.83    4.05
  -5   4 -11   13.86    4.11
  -5   4 -11    8.13    4.78
  -5   4 -11    6.80    4.87
  -6  -4 -11    5.72    4.39
  -6  -4 -11   -0.35    3.88
   6  -4  11    4.66    1.67
  -6   4 -11   -1.67    4.49
  -6   4 -11    3.01    5.01
  -6   4 -11    0.47    3.93
  -7  -4 -11    7.67    4.37
  -7  -4 -11   -1.18    3.92
   7  -4  11    1.24    1.53
  -7   4 -11    1.96    4.90
  -7   4 -11    4.10    5.66
  -7   4 -11    2.54    4.69
  -8  -4 -11    7.60    5.30
  -8  -4 -11   -2.55    4.21
   8  -4  11    2.36    1.60
  -8   4 -11    3.40    4.47
  -8   4 -11   -3.36    4.52
  -8   4 -11   -1.40    5.82
   9  -4  11    2.60    1.87
  -9  -4 -11   -2.95    4.45
  -9  -4 -11    7.03    4.64
  -9   4 -11    8.20    5.05
  -9   4 -11   -2.58    5.57
  -9   4 -11   -1.06    5.18
 -10  -4 -11   -2.10    4.69
  10  -4  11    2.98    1.92
 -10  -4 -11   -1.11    4.51
 -10   4 -11    3.73    4.88
 -10   4 -11   -1.01    5.53
 -10   4 -11    1.93    5.74
 -13  -5  11    2.37    2.12
 -13  -5  11    2.35    2.71
 -13   5  11   -3.83    2.44
 -13   5  11   -2.25    3.38
 -12  -5  11    2.14    2.54
 -12  -5  11    0.17    1.95
 -12   5  11   -0.28    2.76
 -12   5  11   -7.47    2.93
 -11  -5  11    3.48    2.58
 -11  -5  11    0.61    1.94
 -11   5  11   -2.58    3.21
 -10  -5  11   -0.99    3.16
 -10  -5  11    1.02    2.54
 -10   5  11   -2.70    3.22
 -10   5  11   -2.35    2.79
  -9  -5  11    0.30    1.77
  -9  -5  11    0.49    2.42
  -9   5  11   -3.38    2.58
  -9   5  11   -1.81    2.86
  -8  -5  11    3.15    2.67
  -8  -5  11   -0.37    1.65
   8  -5 -11    0.26    1.67
  -8   5  11    1.05    2.29
  -8   5  11   -1.15    3.29
   8   5 -11    1.69    2.06
   7  -5 -11   -0.74    1.86
  -7  -5  11    1.10    1.64
  -7   5  11    2.54    2.46
   7   5 -11    1.90    2.23
  -7   5  11   12.58    3.52
   6  -5 -11    2.02    2.43
  -6  -5  11   -2.86    1.21
   6   5 -11    0.61    2.40
  -6   5  11    4.04    2.67
  -6   5  11    3.41    3.15
   5  -5 -11    1.28    2.64
  -5  -5  11    1.19    1.62
  -5   5  11    2.04    2.89
   5   5 -11    1.25    2.16
  -5   5  11    0.79    2.12
  -4  -5  11    2.81    1.62
   4  -5 -11   -2.83    2.74
   4   5 -11    0.31    2.21
  -4   5  11    5.31    3.26
  -4   5  11    3.45    2.17
  -3  -5  11   -1.36    1.29
   3  -5 -11    1.45    3.60
  -3   5  11    1.42    2.76
   3   5 -11   -0.95    1.98
  -3   5  11    0.77    1.82
   2  -5 -11    5.47    3.66
  -2  -5  11    8.33    1.94
   2   5 -11   -0.53    3.11
   2   5 -11    3.26    2.48
  -2   5  11    4.05    1.93
  -1  -5  11   15.64    2.25
   1  -5 -11    4.67    3.77
   1   5 -11    1.61    3.32
  -1   5  11    5.60    3.05
  -1   5  11    7.04    1.77
   1   5 -11    9.79    3.04
   0  -5 -11    6.52    2.36
   0  -5  11    0.90    1.43
   0  -5 -11   -0.50    3.26
   0   5 -11    0.88    3.37
   0   5 -11   -2.28    2.54
   0   5  11    6.12    2.82
   0   5  11    3.15    1.94
   1  -5  11    0.66    1.41
  -1  -5 -11   -1.77    2.39
  -1  -5 -11    0.47    3.12
   1   5  11    1.90    2.31
  -1   5 -11   -2.77    2.59
  -1   5 -11    2.59    3.62
   2  -5  11    1.58    1.41
  -2  -5 -11    1.64    3.85
  -2  -5 -11    3.64    2.91
   2   5  11   -1.51    1.96
  -2   5 -11    1.61    3.00
  -2   5 -11    1.91    3.83
  -3  -5 -11   -2.07    3.40
   3  -5  11    0.79    1.43
  -3   5 -11   -2.34    3.85
  -3   5 -11    0.48    3.07
   3   5  11   -1.62    1.91
   4  -5  11    0.53    1.40
  -4  -5 -11   -0.78    2.93
  -4  -5 -11    1.29    3.72
  -4   5 -11    3.18    4.53
  -4   5 -11    0.73    3.30
  -5  -5 -11    4.27    4.38
  -5  -5 -11    1.62    3.68
   5  -5  11   -1.02    1.36
  -5   5 -11   -6.19    4.94
  -5   5 -11    3.59    3.78
  -6  -5 -11    0.56    3.91
  -6  -5 -11    0.54    4.16
  -6   5 -11    0.95    4.92
   7  -5  11    1.87    1.67
  -7  -5 -11    9.18    4.60
  -7  -5 -11    4.22    4.16
  -7   5 -11    0.15    5.46
  -7   5 -11    2.61    4.05
  -8  -5 -11    2.26    4.51
   8  -5  11   -1.23    1.44
  -8  -5 -11    2.24    4.17
  -8   5 -11    9.09    5.65
  -8   5 -11   -3.49    4.55
  -8   5 -11   -2.62    5.05
  -9  -5 -11   -0.48    4.17
  -9  -5 -11   -8.92    4.06
   9  -5  11    2.60    1.91
  -9   5 -11   -4.24    4.82
  -9   5 -11    3.78    4.57
  -9   5 -11   -1.42    9.53
 -12  -6  11    1.17    2.47
 -12  -6  11    1.44    2.83
 -12   6  11    3.17    3.77
 -12   6  11    1.38    3.14
 -11  -6  11   -1.17    2.29
 -11  -6  11   -1.98    2.09
 -11   6  11   -1.06    3.18
 -11   6  11   -6.01    2.88
 -10  -6  11    3.76    2.09
 -10  -6  11   -2.15    2.43
 -10   6  11   -2.73    2.68
 -10   6  11    2.61    3.73
  -9  -6  11    0.48    2.12
  -9  -6  11    2.57    2.77
  -9   6  11   -0.05    2.86
  -9   6  11   -1.65    3.29
  -8  -6  11    8.63    5.10
  -8  -6  11    2.97    2.23
  -8   6  11    4.33    2.85
   8   6 -11    4.06    2.45
  -8   6  11    5.89    4.47
   7  -6 -11    6.09    2.24
  -7  -6  11   14.32    3.48
  -7  -6  11    5.04    2.27
  -7   6  11   12.96    3.32
  -7   6  11    8.44    4.11
   7   6 -11   10.96    3.05
  -6  -6  11    8.43    2.27
   6  -6 -11    4.54    2.60
  -6   6  11    4.78    3.59
   6   6 -11    4.65    2.77
  -6   6  11    5.05    3.32
  -5  -6  11    0.18    1.64
   5  -6 -11   -1.59    2.49
   5   6 -11   -1.70    2.24
  -5   6  11   -3.23    2.97
  -5   6  11    2.96    2.45
  -4  -6  11    0.73    1.63
   4  -6 -11   -1.87    2.96
  -4   6  11    3.40    3.50
   4   6 -11    0.13    2.58
  -4   6  11   -1.86    1.90
  -3  -6  11    1.82    1.62
   3  -6 -11    3.54    3.34
  -3   6  11   -1.58    3.03
   3   6 -11    0.85    2.36
  -2  -6  11    3.46    1.84
   2  -6 -11    5.19    3.69
   2   6 -11    4.20    2.83
  -2   6  11    4.36    3.26
   1  -6 -11   11.33    4.08
  -1  -6  11    5.45    1.91
   1   6 -11    8.07    3.57
   0  -6 -11    9.48    2.43
   0  -6 -11   15.25    4.11
   0  -6  11    6.96    1.86
   0   6  11   10.31    3.14
   0   6 -11   13.46    3.65
   0   6 -11    3.76    4.05
  -1  -6 -11    9.69    3.92
  -1  -6 -11    9.57    2.91
   1  -6  11   14.06    2.34
   1   6  11    7.48    2.91
  -1   6 -11   17.09    4.41
  -1   6 -11    8.43    4.44
  -2  -6 -11    8.58    3.26
   2  -6  11   10.87    2.20
  -2  -6 -11   12.73    4.09
   2   6  11    8.75    2.69
  -2   6 -11    8.98    3.89
  -2   6 -11    1.80    4.93
   3  -6  11    7.57    2.12
  -3  -6 -11    4.46    3.27
  -3  -6 -11    4.34    3.84
  -3   6 -11    5.31    3.91
  -3   6 -11   -4.99    4.95
  -4  -6 -11   -0.50    3.26
  -4  -6 -11    5.47    4.57
   4  -6  11   -1.07    2.83
  -4   6 -11    1.79    5.72
  -4   6 -11    6.47    4.66
  -5  -6 -11   -2.71    3.59
   5  -6  11   -0.71    1.53
  -5  -6 -11    1.55    3.83
  -5   6 -11    0.17    4.04
  -5   6 -11    0.19    5.07
   6  -6  11   -1.07    1.58
  -6  -6 -11   -5.72    4.12
  -6  -6 -11    5.28    3.79
  -6   6 -11   -0.64    4.77
  -6   6 -11   -2.05    4.14
   7  -6  11    1.25    1.78
  -7  -6 -11    4.03    5.02
  -7  -6 -11    6.53    4.17
  -7   6 -11    6.69    5.28
  -7   6 -11    4.61    4.99
  -8  -6 -11   -0.17    4.22
  -8  -6 -11   -1.63    3.94
   8  -6  11   -1.11    1.85
  -8   6 -11   -2.95    4.34
  -8   6 -11  -10.64    5.29
 -11  -7  11   -1.54    2.00
 -11  -7  11   -3.31    2.91
 -11   7  11   -1.99    3.61
 -10  -7  11    2.63    3.33
 -10  -7  11    0.70    2.07
 -10   7  11    1.14    3.99
  -9  -7  11    0.21    2.57
  -9  -7  11    1.66    1.81
  -9   7  11   -2.36    3.33
  -8  -7  11   -4.26    2.46
  -8  -7  11   -0.72    1.70
  -8   7  11    1.29    3.99
   8   7 -11    0.85    2.16
  -7  -7  11   -2.25    1.60
  -7  -7  11    2.97    2.91
   6  -7 -11   -1.77    2.45
   6   7 -11   -1.18    2.18
  -6   7  11    3.33    3.31
   5  -7 -11   -4.78    2.57
   5   7 -11   -2.21    2.68
  -5   7  11    0.26    3.49
  -4  -7  11   -0.35    1.93
   4  -7 -11    1.86    2.95
   4   7 -11    0.48    2.46
  -4   7  11   -1.48    3.21
   3  -7 -11   -0.33    3.24
  -3  -7  11    1.30    1.67
   3   7 -11    1.96    2.71
  -3   7  11    0.50    3.12
  -2  -7  11    0.77    1.73
   2  -7 -11    2.87    3.51
   2   7 -11   -1.66    2.65
  -2   7  11    5.75    3.52
   1  -7 -11    4.19    3.40
  -1  -7  11    7.65    2.56
  -1   7  11    4.85    3.27
   1   7 -11    7.49    3.40
   0  -7 -11   -2.04    3.74
   0   7 -11    1.22    3.19
   0   7  11   -0.50    2.76
   1  -7  11   -0.88    1.58
  -1  -7 -11   -0.50    3.42
   1   7  11   -0.20    2.54
  -1   7 -11    3.73    4.10
  -2  -7 -11    4.77    3.81
  -2  -7 -11   -0.88    2.63
   2  -7  11   -2.25    1.50
  -2   7 -11    6.37    3.81
  -3  -7 -11    5.16    3.32
   3  -7  11   -1.01    1.46
  -3   7 -11    0.98    3.67
   4  -7  11   -0.63    1.47
  -4  -7 -11    2.93    3.45
  -4  -7 -11   -1.95    3.38
  -4   7 -11    2.43    3.86
  -5  -7 -11   -3.54    3.52
  -5  -7 -11   -1.91    3.46
   5  -7  11   -0.38    1.79
  -5   7 -11    4.40    3.96
  -6  -7 -11    2.72    4.30
   6  -7  11    2.26    2.11
  -6  -7 -11   -8.42    6.41
  -6   7 -11   -2.03    3.69
  -6   7 -11    2.74    4.60
  -7  -7 -11   -4.59    3.58
  -7  -7 -11   -3.08    4.08
   7  -7  11    0.42    2.03
  -7   7 -11   -0.21    3.90
  -7   7 -11   -5.78    8.35
  -9  -8  11    3.60    2.18
  -9  -8  11    2.76    3.62
  -9   8  11   -5.07    3.84
  -8  -8  11   -1.86    2.75
  -8  -8  11   -0.16    1.94
   8   8 -11    0.82    2.55
  -8   8  11    6.21    4.81
  -7  -8  11   -5.69    2.43
  -7  -8  11    0.24    1.99
  -7   8  11    1.15    4.53
   7   8 -11   -3.22    2.41
  -6  -8  11    1.07    2.10
  -6  -8  11    0.39    2.96
   6   8 -11    1.31    2.69
  -6   8  11    3.51    4.38
  -5  -8  11    3.01    2.09
   5   8 -11    4.25    3.06
  -4  -8  11    4.78    2.32
   4  -8 -11    7.62    3.32
   4   8 -11    5.30    3.24
  -4   8  11    1.96    3.71
  -3  -8  11    5.46    2.31
   3  -8 -11    4.86    3.58
   3   8 -11    3.77    3.25
  -3   8  11    4.35    4.19
  -2  -8  11    4.65    2.09
   2  -8 -11    2.10    3.63
  -2   8  11    2.10    3.45
   2   8 -11    1.00    2.99
   1  -8 -11   -4.52    3.46
  -1  -8  11   -0.22    1.62
   1   8 -11    6.29    4.02
  -1   8  11    7.71    3.33
   0  -8 -11    3.38    3.84
   0  -8  11    2.27    1.81
   0   8  11    0.23    2.91
   0   8 -11    0.92    3.26
  -1  -8 -11    6.93    6.59
   1  -8  11    1.80    1.72
  -1   8 -11    0.00    3.64
   2  -8  11    1.56    1.87
  -2  -8 -11    0.18    3.60
  -2   8 -11   -4.66    3.46
   3  -8  11    1.86    1.92
  -3  -8 -11    1.84    3.71
  -3   8 -11   -0.35    3.69
  -4  -8 -11    4.00    4.21
   4  -8  11    5.47    2.32
  -4   8 -11    8.62    4.49
  -5  -8 -11    4.02    4.22
  -5  -8 -11    0.94    3.66
   5  -8  11    1.23    2.13
  -5   8 -11   -2.98    3.93
  -6  -9  11    3.52    3.56
  -6  -9  11    2.23    2.04
  -6   9  11    5.22    4.68
   6   9 -11    3.00    3.12
  -5  -9  11   -1.51    2.46
  -5  -9  11    1.62    2.02
   5   9 -11    2.57    3.21
  -5   9  11   -0.82    3.65
  -4  -9  11   -3.62    1.67
  -4   9  11    0.71    3.91
   4   9 -11   -1.44    2.84
  -3  -9  11   -0.71    1.80
  -3   9  11    2.70    6.07
   3   9 -11    2.05    3.17
  -2  -9  11    0.53    1.89
   2  -9 -11   -0.99    3.49
   2   9 -11    4.52    3.89
  -2   9  11    0.02    3.25
   1  -9 -11    1.56    3.51
  -1  -9  11    2.92    2.23
  -1   9  11   -1.79    3.21
   1   9 -11   -2.83    3.41
   0  -9  11    0.88    1.88
   0  -9 -11    3.09    3.75
   0   9 -11   -1.18    3.52
  -1  -9 -11   -3.42    3.31
   1  -9  11    2.04    2.23
  -1   9 -11    1.18    3.46
  -2   9 -11   -3.44    3.91
 -15   0  12    1.88    2.59
 -15   0  12    3.45    3.87
 -14   0  12   -0.50    2.26
 -14   0  12   -1.61    2.78
 -13   0  12    2.24    3.17
 -13   0  12   -0.72    1.63
 -13   0  12   -0.93    1.86
 -12   0  12    0.37    2.77
 -12   0  12    2.03    2.48
 -11   0  12    3.31    1.72
 -11   0  12   -0.42    1.99
 -10   0  12    5.61    2.35
 -10   0  12    7.87    1.93
  -9   0  12   11.59    2.09
  -9   0  12   11.67    2.57
  -8   0  12    7.61    1.82
   8   0 -12    5.24    2.63
  -8   0  12    6.66    2.19
  -7   0  12    1.73    1.74
   7   0 -12   -0.14    2.37
   6   0 -12    2.78    2.54
  -6   0  12    4.07    1.75
  -5   0  12    9.92    2.01
   5   0 -12   15.93    3.51
   4   0 -12   10.99    3.51
   4   0 -12    8.66    1.21
  -3   0  12    7.93    1.80
   3   0 -12    1.37    3.19
   3   0 -12    5.18    1.16
  -2   0  12    1.05    1.38
   2   0 -12    1.09    3.29
   2   0 -12    3.96    1.26
  -1   0  12    6.04    1.56
   1   0 -12    2.59    1.44
   1   0 -12    4.24    3.46
   0   0  12    1.49    1.24
   0   0 -12    0.06    3.66
   0   0 -12    0.62    1.78
   1   0  12    1.18    1.06
  -1   0 -12    3.12    3.98
  -1   0 -12    0.07    2.00
  -2   0 -12    2.94    4.07
  -2   0 -12    2.99    2.45
   2   0  12    0.80    1.04
  -2   0 -12    0.50    3.77
  -3   0 -12    0.04    2.55
  -3   0 -12    3.44    4.38
  -3   0 -12    3.90    3.77
   3   0  12    5.10    1.44
  -4   0 -12   12.46    3.45
  -4   0 -12   16.89    5.06
  -4   0 -12    8.55    4.22
  -5   0 -12   18.47    4.07
  -5   0 -12   15.61    5.12
  -5   0 -12    5.19    4.34
   5   0  12   16.79    2.04
  -6   0 -12    3.67    4.57
  -6   0 -12    8.16    3.70
  -6   0 -12    0.95    4.92
  -7   0 -12    1.44    3.96
   7   0  12    1.49    1.46
  -7   0 -12    1.97    4.79
  -7   0 -12    4.07    4.93
  -8   0 -12    3.29    4.72
  -8   0 -12   -2.70    4.05
   8   0  12    4.03    1.60
  -8   0 -12   -0.24    6.27
  -9   0 -12   -4.54    4.45
  -9   0 -12   -4.15    5.63
   9   0  12   -0.65    1.58
  -9   0 -12    4.55    5.48
 -10   0 -12   -0.57    3.98
 -10   0 -12    3.10    5.26
 -10   0 -12    2.38    5.76
 -15  -1  12    3.73    2.48
 -15  -1  12    1.04    3.65
 -15  -1  12   -2.15    2.17
 -15   1  12   -3.29    3.45
 -15   1  12    3.40    2.57
 -14  -1  12   -1.64    2.18
 -14  -1  12   -1.97    3.03
 -14  -1  12    5.97    2.31
 -14   1  12    5.52    2.53
 -14   1  12    6.95    3.65
 -13  -1  12    2.89    2.32
 -13  -1  12    3.15    1.90
 -13   1  12    2.07    2.29
 -13   1  12    2.02    3.32
 -12  -1  12   -0.78    1.72
 -12  -1  12    0.12    2.12
 -12   1  12    3.14    2.77
 -12   1  12    3.54    5.12
 -11  -1  12    2.90    2.14
 -11  -1  12    3.05    1.70
 -11   1  12    4.33    2.21
 -11   1  12   -1.16    1.27
 -10  -1  12   -2.33    1.51
 -10  -1  12    2.58    1.86
 -10   1  12   -3.08    1.77
 -10   1  12    0.04    1.26
  -9  -1  12    2.99    1.86
  -9  -1  12   -1.34    1.58
  -9   1  12    0.41    1.73
  -9   1  12    0.62    1.22
  -8  -1  12    3.63    1.78
  -8  -1  12    2.66    1.78
   8  -1 -12    1.35    2.41
  -8   1  12   -1.14    1.49
  -8   1  12   -0.29    1.16
   7  -1 -12   -1.52    2.80
  -7  -1  12    4.03    1.74
   7   1 -12    1.21    2.50
  -7   1  12    1.22    1.70
  -6  -1  12    4.33    1.73
   6  -1 -12    2.72    2.92
   6   1 -12    2.16    2.66
  -6   1  12    3.12    1.72
  -5  -1  12    1.15    1.43
   5  -1 -12   -5.32    2.56
   5   1 -12   -0.32    2.56
   4  -1 -12   -1.26    2.77
  -4  -1  12   -0.85    1.29
   4   1 -12    1.75    2.88
  -4   1  12    1.89    1.43
  -3  -1  12    0.69    1.53
   3  -1 -12   -1.00    2.99
  -3   1  12    0.08    1.24
   3   1 -12   -0.97    1.20
   3   1 -12    0.99    2.95
   2  -1 -12   -0.01    3.25
   2  -1 -12    2.27    0.87
  -2   1  12    6.13    1.51
   2   1 -12    4.35    3.19
   2   1 -12    2.48    1.48
   1  -1 -12    4.05    1.22
   1  -1 -12   -0.47    3.62
  -1  -1  12    7.68    1.70
  -1   1  12    4.16    1.42
   1   1 -12    6.96    2.03
   1   1 -12    7.83    3.71
   0  -1 -12   -0.66    1.34
   0  -1  12    0.92    1.18
   0  -1 -12   -1.11    3.70
   0  -1 -12    1.10    2.74
   0   1 -12   -0.60    1.82
   0   1 -12    3.53    3.50
   0   1  12    1.40    1.18
  -1  -1 -12    2.81    3.44
  -1  -1 -12    1.17    3.89
   1  -1  12    5.31    1.50
  -1  -1 -12    4.35    2.01
  -1   1 -12    4.89    2.40
  -1   1 -12    1.15    3.93
  -1   1 -12    4.50    3.50
   1   1  12    6.98    1.50
  -2  -1 -12    6.66    2.44
  -2  -1 -12    3.18    3.38
  -2  -1 -12    8.16    4.22
  -2   1 -12    9.33    4.36
  -2   1 -12    9.02    4.40
   2   1  12    6.08    1.34
  -2   1 -12    5.71    2.79
   3  -1  12    0.14    1.20
  -3  -1 -12    2.61    2.44
  -3  -1 -12   -5.18    3.78
  -3  -1 -12    5.96    3.69
   3   1  12    1.46    1.14
  -3   1 -12   -2.72    2.72
  -3   1 -12    1.05    4.03
  -3   1 -12    1.50    3.77
  -4  -1 -12   -0.89    2.77
  -4  -1 -12   -3.94    3.35
   4  -1  12    2.50    1.38
  -4  -1 -12    4.47    4.28
  -4   1 -12   -0.27    3.62
   4   1  12   -0.68    0.98
  -4   1 -12    2.57    4.46
  -4   1 -12    0.34    2.75
  -5  -1 -12   -2.64    3.70
  -5  -1 -12   -4.21    4.03
   5  -1  12    1.10    1.17
  -5   1 -12   -0.26    3.84
  -5   1 -12   -0.43    3.39
  -5   1 -12    0.04    4.58
   5   1  12   -0.56    1.05
   6  -1  12   -0.06    1.14
  -6  -1 -12    2.57    3.50
  -6  -1 -12   10.27    5.00
  -6  -1 -12   -0.69    4.04
   6   1  12   -0.32    1.08
  -6   1 -12   -1.23    3.71
  -6   1 -12    1.32    4.49
  -6   1 -12    5.82    4.90
  -7  -1 -12    3.94    3.46
   7  -1  12    1.11    1.26
  -7  -1 -12    8.77    4.58
  -7   1 -12   -5.06    3.78
  -7   1 -12   -0.87    4.86
   7   1  12    0.64    1.27
  -8  -1 -12    0.63    5.00
  -8  -1 -12    0.38    4.14
   8  -1  12    1.87    1.50
  -8  -1 -12   -1.98    4.56
  -8   1 -12    0.37    3.93
  -8   1 -12    8.21    9.63
  -8   1 -12   -2.42    5.32
   9  -1  12   -0.32    1.49
  -9  -1 -12    2.78    4.57
  -9  -1 -12   -0.03    4.97
  -9   1 -12    3.54    5.21
  -9   1 -12    3.98    4.47
  -9   1 -12   -4.69    4.90
 -10  -1 -12   -7.67    5.24
 -10  -1 -12    6.33    5.93
 -10  -1 -12   -1.76    4.17
  10  -1  12   -0.46    1.64
 -10   1 -12   -6.43    5.04
 -10   1 -12    7.59    5.41
 -10   1 -12    2.30    4.16
 -15  -2  12    0.12    2.23
 -15  -2  12    1.66    3.38
 -15   2  12    0.17    2.42
 -15   2  12    0.31    3.84
 -14  -2  12    4.90    2.57
 -14  -2  12    3.34    2.55
 -14   2  12    1.50    2.68
 -14   2  12   -1.20    3.29
 -13  -2  12    7.44    2.50
 -13  -2  12    3.44    2.55
 -13   2  12   -2.99    2.77
 -13   2  12    2.48    2.44
 -12  -2  12    4.90    2.39
 -12  -2  12    3.21    2.29
 -12   2  12    5.08    2.60
 -12   2  12    3.14    3.03
 -11  -2  12   -0.42    1.84
 -11  -2  12    6.28    2.35
 -11   2  12    3.88    3.52
 -11   2  12    2.22    2.20
 -10  -2  12    1.22    1.82
 -10  -2  12   -0.29    1.79
 -10   2  12    2.89    2.79
 -10   2  12    1.76    2.14
  -9  -2  12   -0.75    1.63
  -9  -2  12   -0.94    1.55
  -9   2  12   -0.12    1.18
  -9   2  12   -0.40    2.34
  -9   2  12    1.56    1.84
  -8  -2  12    0.09    1.62
  -8  -2  12   -2.03    1.48
   8  -2 -12   -0.69    1.92
  -8   2  12    0.08    0.88
  -8   2  12    3.65    1.91
  -7  -2  12    4.12    1.88
   7  -2 -12    6.10    2.68
  -7   2  12    3.78    1.19
  -7   2  12    7.54    2.18
  -6  -2  12    7.28    2.02
   6  -2 -12    6.35    3.16
   6   2 -12   10.76    3.34
  -6   2  12    7.38    2.06
   6   2 -12    6.96    1.84
  -5  -2  12    3.28    1.74
   5   2 -12    3.89    2.91
  -5   2  12    4.62    1.69
   5   2 -12    2.31    1.63
  -4  -2  12    1.03    1.47
   4   2 -12    3.46    1.65
   4   2 -12    3.77    2.99
  -4   2  12    4.26    1.73
   3  -2 -12    5.72    3.24
  -3  -2  12    6.09    1.72
  -3   2  12    7.08    1.68
   3   2 -12    2.50    1.69
   3   2 -12    7.83    3.43
   2  -2 -12    7.66    3.70
  -2  -2  12   12.83    2.01
  -2   2  12   13.38    1.98
   2   2 -12    4.92    3.47
   2   2 -12   17.52    2.51
   1  -2 -12   13.75    4.25
  -1  -2  12   13.40    1.98
  -1   2  12    8.77    1.63
   1   2 -12    9.23    3.58
   1   2 -12   12.33    2.61
   0  -2 -12    9.60    1.49
   0  -2 -12   10.71    3.42
   0  -2  12   13.72    2.06
   0  -2 -12    8.71    4.25
   0   2  12   11.39    1.70
   0   2 -12   18.16    4.57
   0   2 -12   14.94    2.95
   1  -2  12   25.13    2.23
  -1  -2 -12   17.22    2.25
  -1  -2 -12   15.82    3.77
  -1  -2 -12    5.12    4.21
   1   2  12   15.50    1.85
  -1   2 -12   20.36    4.66
  -1   2 -12   18.91    3.37
  -2  -2 -12   13.50    4.37
   2  -2  12   14.83    2.13
  -2  -2 -12   17.77    2.61
  -2   2 -12   11.34    4.53
   2   2  12   19.54    1.88
  -2   2 -12   14.73    3.18
   3  -2  12    5.37    1.52
  -3  -2 -12   -0.60    3.90
  -3  -2 -12   -0.14    3.76
  -3  -2 -12    4.83    2.47
   3   2  12    1.74    1.10
  -3   2 -12    0.91    3.96
  -3   2 -12    4.63    3.01
  -3   2 -12   10.02    4.24
  -4  -2 -12    2.41    4.15
  -4  -2 -12    1.46    2.61
  -4  -2 -12    4.23    3.84
   4  -2  12    2.10    1.24
  -4   2 -12    2.99    4.00
  -4   2 -12   -6.05    3.71
  -4   2 -12   -2.64    3.11
   4   2  12    2.17    1.13
  -5  -2 -12    3.11    3.91
  -5  -2 -12    1.51    2.89
  -5  -2 -12    2.66    4.31
   5  -2  12    1.56    1.41
  -5   2 -12   -4.58    4.42
  -5   2 -12   -2.61    4.01
   5   2  12   -0.14    0.99
  -5   2 -12    0.74    3.02
  -6  -2 -12   -3.28    4.27
  -6  -2 -12   -2.79    3.33
  -6  -2 -12    1.38    4.06
   6  -2  12   -0.77    1.31
  -6   2 -12    3.63    3.92
  -6   2 -12   -0.24    5.35
  -6   2 -12   -6.20    4.15
  -7  -2 -12   -1.00    3.24
  -7  -2 -12   -2.71    4.08
  -7  -2 -12   -5.82    4.27
   7  -2  12    5.32    1.72
  -7   2 -12   -2.73    4.94
  -7   2 -12    6.02    5.15
  -7   2 -12   -3.32    3.38
  -8  -2 -12   -0.30    4.99
  -8  -2 -12   -0.40    5.39
  -8  -2 -12    3.07    4.19
   8  -2  12    2.27    1.48
  -8   2 -12   -5.39    6.40
  -8   2 -12    0.23    5.62
  -9  -2 -12    7.76    5.14
   9  -2  12    1.23    1.82
  -9  -2 -12   -1.43    5.23
  -9   2 -12    2.50    4.55
  -9   2 -12    0.75    5.20
  -9   2 -12   -5.53    5.27
 -10  -2 -12   -1.58    4.99
 -10  -2 -12    6.45    4.73
 -10  -2 -12   -1.10    5.02
  10  -2  12    1.16    1.47
 -10   2 -12   -3.48    4.04
 -10   2 -12   -0.37    5.02
 -10   2 -12    6.79    5.79
 -14  -3  12   -2.19    2.02
 -14  -3  12    1.88    2.35
 -14   3  12   -3.26    3.12
 -14   3  12   -0.20    2.30
 -13  -3  12    2.71    2.37
 -13   3  12    0.82    2.30
 -13   3  12   -5.21    2.81
 -12  -3  12   -1.49    1.93
 -12  -3  12    0.56    1.92
 -12   3  12   -1.37    2.22
 -12   3  12    1.45    2.98
 -11  -3  12   -2.97    1.77
 -11  -3  12    2.17    2.32
 -11   3  12   -1.55    2.64
 -11   3  12   -2.43    1.95
 -10  -3  12   -1.94    1.93
 -10  -3  12    2.97    2.02
 -10   3  12   -1.03    2.32
 -10   3  12    3.15    2.66
  -9  -3  12    1.46    2.24
  -9  -3  12    0.98    1.79
   9  -3 -12   -1.68    1.84
  -9   3  12   -2.72    1.96
  -9   3  12    2.29    2.96
  -8  -3  12   -0.16    1.69
  -8  -3  12   -3.26    1.52
   8  -3 -12   -0.30    2.06
  -8   3  12   -1.27    2.30
  -8   3  12    1.97    1.93
   7  -3 -12   -1.01    2.25
  -7  -3  12   -1.84    1.45
  -7   3  12   -1.32    1.59
  -7   3  12   -2.66    2.17
   7   3 -12    1.71    1.69
  -6  -3  12    4.11    1.85
   6  -3 -12   -0.59    2.52
  -6   3  12    2.87    1.99
   6   3 -12    1.28    1.65
  -6   3  12    4.79    2.93
  -6   3  12    1.88    1.00
  -5  -3  12   -0.47    1.51
   5   3 -12   -2.75    2.60
   5   3 -12   -0.21    1.70
  -5   3  12   -2.22    1.57
   4  -3 -12    1.26    3.34
  -4  -3  12   -1.28    1.40
   4   3 -12    1.39    1.86
  -4   3  12    0.78    1.37
   4   3 -12    1.17    2.72
  -3  -3  12    0.25    1.41
   3  -3 -12   -2.02    2.95
  -3   3  12   -1.50    1.44
   3   3 -12   -2.21    2.26
   3   3 -12   -0.34    1.89
  -2  -3  12    2.16    1.51
   2  -3 -12    2.06    3.36
   2   3 -12    3.61    3.33
   2   3 -12    2.93    2.20
  -2   3  12   -1.05    1.34
  -1  -3  12    3.64    1.59
   1  -3 -12    2.27    3.63
   1  -3 -12    3.18    2.48
   1   3 -12    2.74    2.44
  -1   3  12    2.29    1.39
   1   3 -12    2.90    3.48
   0  -3 -12   -2.05    3.31
   0  -3  12   -1.39    1.33
   0  -3 -12    0.45    2.53
   0   3  12   -0.47    1.26
   0   3 -12    3.18    2.61
   0   3 -12    8.28    4.00
   1  -3  12    0.88    1.33
  -1  -3 -12    5.56    3.15
  -1  -3 -12    4.95    3.98
  -1  -3 -12    2.79    1.50
  -1   3 -12    1.24    3.58
  -1   3 -12    4.11    5.04
   1   3  12    2.64    1.32
  -2  -3 -12   -1.99    3.65
   2  -3  12    4.80    1.52
  -2  -3 -12   -1.51    3.78
  -2   3 -12    2.36    2.88
  -2   3 -12   -6.15    3.42
  -3  -3 -12    3.01    3.34
  -3  -3 -12    0.95    2.16
  -3  -3 -12   -2.24    3.89
   3  -3  12    1.83    1.29
  -3   3 -12    2.18    4.13
  -3   3 -12   -0.90    2.74
   3   3  12    0.39    1.25
  -4  -3 -12   -1.65    3.82
  -4  -3 -12   -0.82    2.52
  -4  -3 -12    2.43    3.93
   4  -3  12   -0.70    1.15
  -4   3 -12    2.86    4.34
  -4   3 -12   -3.76    3.23
  -4   3 -12    3.38    4.31
  -5  -3 -12   -6.30    3.85
  -5  -3 -12   -6.51    3.40
   5  -3  12    2.98    1.57
  -5  -3 -12    1.29    2.89
  -5   3 -12   -0.96    4.70
  -5   3 -12   -3.28    4.17
  -5   3 -12    4.10    3.54
  -6  -3 -12    4.76    3.40
   6  -3  12   -0.46    1.37
  -6  -3 -12    1.96    4.11
  -6   3 -12    6.27    3.87
  -6   3 -12   -1.40    5.24
  -7  -3 -12   -5.07    8.10
  -7  -3 -12    0.91    4.60
  -7  -3 -12   -0.31    3.24
   7  -3  12    1.73    1.50
  -7   3 -12    7.69    5.25
  -7   3 -12    1.49    4.61
  -7   3 -12    1.66    4.87
  -8  -3 -12   -2.69    4.53
  -8  -3 -12    5.71    4.98
  -8   3 -12    2.25    4.98
  -8   3 -12   -4.99    3.79
   9  -3  12    0.37    1.73
  -9  -3 -12    2.63    5.05
  -9  -3 -12    2.34    5.04
  -9   3 -12    1.64    5.30
  -9   3 -12   -2.46    4.49
  -9   3 -12   -3.98    5.25
 -13  -4  12    0.62    2.31
 -13  -4  12    2.52    2.38
 -13   4  12   -6.03    3.23
 -13   4  12    1.38    2.78
 -12  -4  12    1.86    2.05
 -12  -4  12    3.86    2.55
 -12   4  12    2.80    2.89
 -12   4  12    0.57    3.50
 -11  -4  12   -3.19    1.74
 -11  -4  12    1.65    2.39
 -11   4  12    0.95    3.15
 -10  -4  12    1.11    2.43
 -10  -4  12    4.31    2.67
 -10   4  12    6.51    5.35
 -10   4  12    6.27    3.04
  -9  -4  12   14.14    2.71
   9  -4 -12    5.79    2.21
  -9  -4  12    7.50    3.19
  -9   4  12    7.12    2.97
  -9   4  12   -0.59    3.45
  -8  -4  12    3.00    2.06
   8  -4 -12    5.85    2.34
  -8  -4  12    5.57    2.66
  -8   4  12    4.99    3.24
  -8   4  12    7.54    2.84
  -7  -4  12    0.53    1.78
   7  -4 -12    1.99    2.34
  -7   4  12    2.02    2.48
  -7   4  12    3.03    3.03
   7   4 -12   -0.59    1.69
   6  -4 -12    0.98    2.53
  -6  -4  12    1.39    1.65
  -6   4  12    1.41    2.25
   6   4 -12    2.29    1.86
  -6   4  12   -0.44    2.85
  -5  -4  12    8.08    2.05
  -5   4  12    8.73    2.41
  -5   4  12    5.58    3.10
   5   4 -12    8.00    2.31
   4  -4 -12   -1.57    3.33
  -4  -4  12    5.50    1.88
  -4   4  12    4.13    3.32
   4   4 -12    6.41    2.57
   4   4 -12    3.60    3.22
  -4   4  12    2.21    2.02
  -3  -4  12    2.44    1.79
   3  -4 -12    6.13    3.81
   3   4 -12   -2.95    2.18
   3   4 -12    5.29    3.46
  -3   4  12   -0.48    1.67
  -3   4  12    0.68    2.57
  -2  -4  12    4.02    1.68
   2  -4 -12    4.88    3.45
  -2   4  12    1.16    1.69
   2   4 -12    2.88    3.18
  -2   4  12    0.43    2.31
   2   4 -12    4.49    2.52
   1  -4 -12    2.85    2.10
  -1  -4  12    8.63    1.79
   1  -4 -12    1.37    3.81
   1   4 -12    2.14    2.78
  -1   4  12    4.55    2.88
  -1   4  12    4.09    1.80
   1   4 -12    3.50    3.52
   0  -4 -12    1.88    2.36
   0  -4 -12    4.83    3.69
   0  -4  12    3.08    1.54
   0   4 -12    2.99    3.65
   0   4 -12    2.77    2.60
   0   4  12   -5.06    2.17
  -1  -4 -12    1.65    2.83
  -1  -4 -12    5.16    3.70
   1  -4  12    0.25    1.33
  -1   4 -12   -0.49    2.67
   1   4  12    1.21    1.47
   1   4  12    0.99    2.44
  -1   4 -12    3.01    3.84
  -2  -4 -12    4.12    4.37
   2  -4  12    2.09    1.52
  -2  -4 -12    4.80    3.30
  -2   4 -12   -3.75    3.55
  -2   4 -12    1.22    2.93
   2   4  12    0.03    2.19
   3  -4  12    3.87    1.51
  -3  -4 -12    1.07    2.21
  -3  -4 -12   -0.88    3.39
  -3  -4 -12    8.64    4.27
   3   4  12    0.89    2.33
  -3   4 -12   -0.09    4.15
  -3   4 -12    2.15    3.09
  -4  -4 -12    8.70    4.71
  -4  -4 -12   10.67    4.52
   4  -4  12   11.32    2.01
  -4   4 -12    7.29    4.81
  -4   4 -12   10.01    4.48
   5  -4  12   10.16    1.99
  -5  -4 -12   10.19    4.76
  -5   4 -12   12.41    4.26
  -5   4 -12    0.94    4.85
  -6  -4 -12    3.03    4.66
  -6  -4 -12   -0.58    4.09
  -6   4 -12   -1.60    4.83
  -6   4 -12    8.01    5.31
  -7  -4 -12    2.84    8.71
   7  -4  12    1.48    1.43
  -7  -4 -12   -1.23    4.52
  -7   4 -12    5.35    4.26
  -7   4 -12    5.19    6.63
  -7   4 -12   -0.32    4.90
  -8  -4 -12    0.37    4.66
   8  -4  12    0.83    1.52
  -8  -4 -12    1.03    4.43
  -8   4 -12    1.54    5.27
  -8   4 -12   -0.86    4.31
  -8   4 -12   -3.49    5.27
  -9  -4 -12    0.77    4.53
   9  -4  12    0.75    1.69
  -9  -4 -12   -0.39    4.91
  -9   4 -12   -3.67    4.87
  -9   4 -12   -1.37    4.13
  -9   4 -12   -2.53    4.93
 -13  -5  12    0.65    2.96
 -13  -5  12   -0.47    2.07
 -13   5  12    3.71    3.42
 -13   5  12   -0.76    3.39
 -12  -5  12   -0.48    2.17
 -12  -5  12    1.16    2.86
 -12   5  12    4.56    3.48
 -12   5  12    2.42    3.38
 -11  -5  12    2.57    2.15
 -11  -5  12    3.85    2.57
 -11   5  12    3.34    3.47
 -11   5  12    0.54    3.05
 -10  -5  12    1.76    2.03
 -10  -5  12    0.54    2.46
 -10   5  12   -0.08    3.47
 -10   5  12   -1.00    2.56
  -9  -5  12    0.45    4.15
  -9  -5  12    0.62    1.85
  -9   5  12    1.45    2.63
  -9   5  12   -1.98    3.67
   8  -5 -12   -1.29    1.86
  -8  -5  12   -1.54    2.71
  -8  -5  12    0.15    2.10
  -8   5  12    0.99    2.61
  -8   5  12   -4.14    2.72
   8   5 -12   -3.11    1.76
  -7  -5  12   -0.40    1.73
   7  -5 -12   -0.62    2.22
  -7   5  12    2.79    2.58
  -7   5  12    0.03    3.24
   7   5 -12    6.27    2.37
   6  -5 -12    3.49    2.62
  -6  -5  12   -1.25    1.66
  -6   5  12    1.22    2.47
  -6   5  12   -6.53    2.48
   6   5 -12   -2.61    2.35
  -5  -5  12   -1.40    1.47
   5  -5 -12    3.80    3.53
  -5   5  12    0.08    2.34
  -5   5  12   -2.77    3.11
   5   5 -12    0.25    2.00
   4  -5 -12    2.00    3.37
  -4  -5  12    0.63    1.74
   4   5 -12   -0.09    2.11
  -4   5  12   -1.35    3.01
  -4   5  12   -0.67    2.16
   3  -5 -12   -1.58    3.09
  -3  -5  12    0.63    1.65
  -3   5  12   -0.74    1.93
   3   5 -12    0.57    2.40
  -3   5  12    1.45    3.16
  -2  -5  12    1.96    1.70
   2  -5 -12    0.91    3.38
  -2   5  12    2.60    3.05
  -2   5  12    2.68    1.93
   2   5 -12    3.47    3.46
   2   5 -12   -0.65    2.31
   1  -5 -12    5.90    3.82
   1  -5 -12   -1.21    1.82
  -1  -5  12    3.45    1.68
   1   5 -12    1.88    2.53
   1   5 -12   -0.43    3.66
  -1   5  12    5.69    3.28
   0  -5 -12   -3.01    3.46
   0  -5 -12    3.87    2.33
   0  -5  12   -1.09    1.39
   0   5 -12    2.93    3.31
   0   5 -12    4.76    3.95
   0   5  12   -5.83    2.58
  -1  -5 -12    2.06    2.80
  -1  -5 -12    4.67    4.36
   1  -5  12    1.47    1.61
   1   5  12    0.21    2.74
  -1   5 -12   13.62    3.96
  -1   5 -12   -2.86    3.55
   2  -5  12    1.92    1.56
  -2  -5 -12   -2.90    2.78
  -2  -5 -12    4.32    3.97
  -2   5 -12    7.57    3.53
  -2   5 -12   -1.21    4.08
   2   5  12   -2.82    2.48
  -3  -5 -12   -3.04    3.13
   3  -5  12    2.59    1.61
  -3  -5 -12   -4.18    4.26
  -3   5 -12    3.74    4.73
  -3   5 -12    0.24    3.19
  -4  -5 -12   -4.48    3.41
  -4   5 -12  -15.33    4.72
  -4   5 -12    2.70    3.97
  -5  -5 -12   -1.52    4.07
  -5  -5 -12    5.51    4.10
   5  -5  12    0.95    1.56
  -5   5 -12    1.87    6.16
  -5   5 -12    7.19    5.30
  -6  -5 -12   -2.09    3.69
  -6  -5 -12   -0.60    4.34
   6  -5  12    1.52    1.55
  -6   5 -12   -2.52    3.71
  -6   5 -12    3.27    6.16
  -7  -5 -12    0.34    4.68
  -7  -5 -12  -10.36    4.11
   7  -5  12    0.09    1.59
  -7   5 -12    4.01    4.19
  -7   5 -12    4.52    8.86
  -8  -5 -12    4.28    4.64
  -8  -5 -12    3.69    4.87
   8  -5  12    1.99    1.78
  -8   5 -12   16.26    5.90
  -8   5 -12    9.41    4.77
 -11  -6  12    1.97    2.18
 -11  -6  12    0.89    3.25
 -11   6  12   -4.21    3.11
 -11   6  12   -1.38    3.04
 -10  -6  12    2.38    2.17
 -10  -6  12   -1.24    2.60
 -10   6  12    2.04    3.60
  -9  -6  12   -1.80    1.73
  -9  -6  12    0.86    2.69
  -9   6  12   -1.43    3.60
  -9   6  12    1.16    3.00
  -8  -6  12    6.19    3.14
  -8  -6  12   -2.77    1.71
   8   6 -12   -0.09    2.18
  -8   6  12   -1.99    2.86
  -8   6  12    5.88    4.00
   7  -6 -12   -0.56    2.07
  -7  -6  12    3.44    2.10
   7   6 -12    6.56    2.78
  -7   6  12   -2.15    5.42
  -7   6  12    0.90    2.93
   6  -6 -12   -0.83    2.87
  -6   6  12    0.14    3.60
  -6   6  12    0.26    2.64
   6   6 -12    5.70    2.93
  -5  -6  12    0.79    1.62
   5  -6 -12   -2.07    2.81
  -5   6  12   -2.10    2.35
   5   6 -12   -0.85    2.42
  -5   6  12   -2.28    3.04
   4  -6 -12    0.59    3.39
  -4  -6  12    4.51    1.98
   4   6 -12    2.97    2.60
  -4   6  12   -3.95    2.87
  -4   6  12   -0.93    2.28
   3  -6 -12    2.49    3.57
  -3  -6  12    3.54    1.99
  -3   6  12    3.99    3.63
   3   6 -12    5.42    3.16
  -3   6  12    8.35    2.60
   2  -6 -12    4.52    3.60
  -2  -6  12    6.17    2.14
  -2   6  12    4.78    3.62
   2   6 -12    8.86    3.45
  -1  -6  12    2.15    1.85
   1  -6 -12    0.02    4.04
  -1   6  12    5.12    3.57
   1   6 -12    5.01    3.21
   0  -6 -12    0.23    3.61
   0  -6  12    3.67    2.12
   0   6 -12    7.35    3.60
   0   6  12   -1.86    3.50
   0   6 -12    8.08    4.61
  -1  -6 -12    3.87    4.48
  -1  -6 -12    6.43    3.04
   1   6  12    1.78    2.95
  -1   6 -12    5.21    3.50
  -1   6 -12    2.93    4.67
  -2  -6 -12    4.25    5.84
  -2  -6 -12    3.58    4.36
   2  -6  12    4.38    1.93
  -2   6 -12   11.39    5.36
  -2   6 -12    5.92    4.01
   3  -6  12    0.75    1.68
  -3  -6 -12    1.74    3.94
  -3  -6 -12    2.75    3.32
  -3   6 -12    3.29    4.21
  -3   6 -12   -3.20    5.32
  -4  -6 -12   -2.02    3.49
   4  -6  12   -0.77    1.41
  -4  -6 -12   -0.21    4.15
  -4   6 -12    0.06    4.44
  -4   6 -12    3.79    3.98
  -5  -6 -12    2.83    4.15
   5  -6  12   -0.01    1.53
  -5  -6 -12   -1.74    3.45
  -5   6 -12    4.44    4.27
   6  -6  12   -1.22    1.70
  -6  -6 -12    8.38    4.68
  -6   6 -12    4.40    4.07
  -6   6 -12   -0.42    4.71
  -7  -6 -12    1.75    3.76
  -7  -6 -12    0.67    4.60
   7  -6  12    4.33    2.29
  -7   6 -12   -0.06    5.34
  -7   6 -12    0.48    4.50
 -10  -7  12    2.10    3.12
 -10  -7  12    6.41    2.51
 -10   7  12   -3.74    3.33
  -9  -7  12   -1.08    1.95
  -9  -7  12    1.99    3.06
  -9   7  12   -2.25    4.28
  -8  -7  12    2.21    3.03
  -8  -7  12    8.07    2.46
   8   7 -12    0.93    2.40
  -8   7  12   -1.00    3.34
  -7  -7  12   -1.03    1.81
  -7  -7  12    5.55    3.13
  -7   7  12    0.61    3.40
   7   7 -12   -0.57    2.53
  -6  -7  12   -1.04    1.84
  -6   7  12    2.21    5.35
   6   7 -12   -0.43    2.32
   5  -7 -12   -2.18    2.89
  -5  -7  12   -0.24    1.78
  -5   7  12   -4.52    3.81
  -4  -7  12   -1.66    1.78
   4  -7 -12    2.55    3.23
  -4   7  12   -0.23    3.59
   3  -7 -12    3.30    3.63
  -3  -7  12   -0.93    1.70
  -3   7  12    1.88    3.48
  -2  -7  12   -0.21    1.75
   2  -7 -12    4.92    3.99
  -2   7  12   -3.52    3.09
   1  -7 -12   -0.44    4.03
  -1  -7  12    3.21    2.01
   1   7 -12    1.06    5.70
  -1   7  12   -5.30    3.17
   0  -7  12    1.73    1.74
   0  -7 -12   -0.26    4.07
   0   7  12    1.61    3.19
   0   7 -12    1.52    3.56
   1  -7  12   -1.08    1.75
  -1   7 -12    6.82    3.52
   2  -7  12    1.32    1.75
  -2  -7 -12    9.00    4.28
  -2   7 -12    1.80    3.42
   3  -7  12    2.67    1.86
  -3  -7 -12    2.75    3.95
  -3  -7 -12    3.30    4.12
  -3   7 -12    5.21    3.81
  -4  -7 -12   -4.49    3.27
  -4  -7 -12   -5.10    3.72
   4  -7  12   -0.44    1.77
  -4   7 -12   -1.85    4.18
  -5  -7 -12   -2.36    4.22
   5  -7  12   -0.85    1.79
  -5  -7 -12    4.74    3.85
  -5   7 -12    4.61    4.69
  -5   7 -12   -1.23    4.49
   8   8 -12   -2.79    2.86
  -8   8  12    1.40    4.67
  -7  -8  12    1.63    2.10
  -7  -8  12   -1.03    3.05
  -7   8  12    4.77    4.33
   7   8 -12   -3.56    2.59
  -6  -8  12   -0.04    2.98
  -6  -8  12   -2.02    1.79
  -6   8  12   -2.07    3.97
   6   8 -12   -4.28    2.59
  -5  -8  12    0.13    1.95
   5   8 -12    1.06    3.03
  -5   8  12   -2.36    4.10
   4  -8 -12    0.41    3.31
  -4  -8  12    3.64    2.48
   4   8 -12    3.95    3.10
  -4   8  12   -0.01    6.05
  -3  -8  12    3.59    2.28
   3  -8 -12   -1.79    3.43
  -3   8  12   -1.92    3.81
   3   8 -12   -3.70    3.00
   2  -8 -12   -0.36    3.82
  -2  -8  12   -1.44    1.72
  -2   8  12   -3.49    3.68
   2   8 -12    3.28    3.51
  -1  -8  12    0.22    1.73
   1  -8 -12    0.13    4.13
   1   8 -12   -4.23    2.88
  -1   8  12    2.68    3.63
   0  -8 -12    1.14    3.65
   0  -8  12    0.04    1.85
   0   8 -12    4.24    3.50
  -1  -8 -12   -2.18    3.51
   1  -8  12    1.04    1.99
  -1   8 -12   -3.91    3.69
   2  -8  12    0.22    1.95
  -2  -8 -12   -0.33    3.84
  -2   8 -12    3.87    3.83
  -3  -8 -12   -2.84    3.81
   3  -8  12    1.88    1.85
  -3   8 -12    4.21    4.08
 -14   0  13    1.47    2.52
 -14   0  13   -1.45    3.82
 -13   0  13   -0.40    2.28
 -13   0  13   -2.73    3.03
 -12   0  13   -0.60    2.35
 -12   0  13    0.73    1.68
 -11   0  13    0.10    2.89
 -11   0  13    0.07    2.41
 -10   0  13    2.22    2.20
 -10   0  13    4.34    1.88
  -9   0  13    7.34    1.90
  -9   0  13    5.93    2.31
  -8   0  13    3.87    1.83
   8   0 -13    8.91    3.44
  -8   0  13    5.69    2.22
  -7   0  13    4.29    1.96
   7   0 -13    3.78    2.90
   6   0 -13   -2.57    2.42
  -6   0  13   -1.67    1.79
   5   0 -13   -3.87    3.06
  -5   0  13   -0.88    1.41
   4   0 -13   -1.36    2.93
  -4   0  13    0.13    1.37
  -3   0  13    1.05    1.39
   3   0 -13    0.60    0.95
   3   0 -13   -0.39    3.13
   2   0 -13   -0.76    3.32
  -2   0  13    3.68    1.63
   2   0 -13    0.31    1.14
   1   0 -13   12.39    2.78
   1   0 -13    5.36    3.90
   0   0 -13    9.81    4.25
   0   0 -13    8.80    2.16
   0   0  13   11.15    2.98
  -1   0 -13   -2.09    3.94
  -1   0 -13    2.98    3.44
   1   0  13    4.12    2.21
  -1   0 -13    4.91    2.17
  -2   0 -13   -1.08    4.00
  -2   0 -13    2.71    2.27
  -2   0 -13    7.05    3.88
  -3   0 -13    4.83    4.71
  -3   0 -13    4.91    2.85
  -3   0 -13   -0.95    4.11
  -4   0 -13    1.86    4.68
  -4   0 -13    7.05    4.51
   4   0  13    9.05    1.76
  -4   0 -13   10.15    3.46
   5   0  13    3.48    1.55
  -5   0 -13    9.71    5.40
  -5   0 -13   -0.83    4.54
  -5   0 -13    1.23    3.32
   6   0  13    1.26    1.36
  -6   0 -13    0.36    3.40
  -7   0 -13    4.20    3.97
  -7   0 -13  -10.69    4.84
   7   0  13   -1.04    1.43
  -7   0 -13    4.02    4.84
  -8   0 -13    2.96    5.24
  -8   0 -13    1.04    5.04
   8   0  13   -0.07    1.64
  -9   0 -13    0.95    5.24
  -9   0 -13   -6.26    4.99
  -9   0 -13   -0.86    4.08
 -14  -1  13   -4.69    1.97
 -14  -1  13   -0.82    2.25
 -14   1  13   -0.35    3.56
 -14   1  13   -3.09    2.61
 -13  -1  13    1.90    2.37
 -13  -1  13   -3.62    1.99
 -13   1  13   -3.20    2.95
 -13   1  13   -1.30    2.47
 -12  -1  13   -0.69    2.00
 -12  -1  13    0.86    1.81
 -12   1  13    0.19    2.20
 -12   1  13   -0.71    2.79
 -11  -1  13    0.13    2.00
 -11  -1  13   -0.02    1.63
 -11   1  13    0.47    3.56
 -10  -1  13    1.04    1.92
 -10  -1  13    0.05    1.71
 -10   1  13   -0.40    1.35
 -10   1  13   -4.14    1.64
  -9  -1  13   -2.40    1.67
  -9  -1  13   -2.56    1.54
  -9   1  13    2.60    2.19
  -9   1  13   -0.34    1.29
   8  -1 -13    1.46    2.49
  -8  -1  13    1.13    1.79
  -8   1  13   -0.12    1.27
  -8   1  13   -3.29    1.75
  -7  -1  13    2.60    1.93
   7  -1 -13    9.16    3.40
  -7   1  13    0.30    1.72
   7   1 -13    5.39    3.06
   6  -1 -13    4.13    3.06
  -6  -1  13    3.70    1.89
   6   1 -13    4.93    3.55
  -6   1  13    6.10    1.94
   5  -1 -13    3.27    3.31
  -5  -1  13    2.00    1.65
   5   1 -13    3.76    1.98
   5   1 -13   -0.41    3.41
  -5   1  13    1.55    1.57
   4  -1 -13   -2.51    2.73
  -4  -1  13    1.60    1.60
   4   1 -13   -1.16    2.81
   4   1 -13    2.12    1.25
  -4   1  13   -0.36    1.39
   3  -1 -13    1.89    3.42
  -3  -1  13    2.15    1.51
   3   1 -13    5.27    3.32
   3   1 -13    3.43    1.44
   2  -1 -13   -2.79    3.14
   2  -1 -13   -0.60    1.03
  -2  -1  13    1.38    1.46
  -2   1  13   -0.07    1.32
   2   1 -13    0.22    3.49
   2   1 -13    0.87    1.47
  -1  -1  13    1.19    1.45
   1  -1 -13    0.10    1.06
   1  -1 -13    0.51    3.88
   1   1 -13    1.97    3.68
   1   1 -13    1.75    1.70
  -1   1  13   -0.03    1.19
   0  -1 -13   -6.73    3.35
   0  -1  13   -0.28    1.27
   0  -1 -13    0.06    1.47
   0   1 -13   -0.94    1.96
   0   1 -13    2.09    3.83
   0   1  13   -0.89    1.21
  -1  -1 -13   -6.54    3.87
  -1  -1 -13    3.33    3.26
   1  -1  13    3.29    1.43
  -1  -1 -13    3.44    1.88
  -1   1 -13    1.44    2.15
  -1   1 -13    0.15    3.87
   1   1  13    2.07    1.31
  -2  -1 -13   -1.47    4.23
   2  -1  13   -2.72    1.05
  -2  -1 -13   -1.03    3.73
  -2  -1 -13   -0.45    1.97
  -2   1 -13    0.70    2.33
  -2   1 -13   -0.17    3.39
   2   1  13    0.64    1.13
  -2   1 -13    5.44    4.28
   3  -1  13   -1.95    1.19
  -3  -1 -13    0.09    3.54
  -3  -1 -13    1.45    4.55
  -3  -1 -13   -0.09    2.42
  -3   1 -13    2.43    3.99
  -3   1 -13   -1.34    4.30
   3   1  13   -0.93    1.11
  -3   1 -13   -1.33    3.45
  -4  -1 -13    0.72    4.54
   4  -1  13   -0.07    1.32
  -4  -1 -13    1.18    2.83
  -4  -1 -13    1.90    4.49
   4   1  13    0.41    1.19
  -4   1 -13   -2.17    3.08
  -4   1 -13    2.51    4.27
  -4   1 -13   -9.75    4.34
   5  -1  13    0.79    1.36
  -5  -1 -13   -8.46    4.35
  -5  -1 -13    0.09    3.02
  -5  -1 -13    4.65    5.55
  -5   1 -13   -5.15    4.64
  -5   1 -13   -1.29    4.38
  -5   1 -13   -1.07    3.34
   5   1  13    1.28    1.30
  -6  -1 -13   -3.96    6.76
  -6  -1 -13    5.30    3.43
   6  -1  13    1.72    1.49
  -6  -1 -13    1.73    5.00
  -6   1 -13    8.53    5.51
   6   1  13   -2.04    1.30
  -6   1 -13    3.69    3.75
  -7  -1 -13    5.90    3.96
  -7  -1 -13    2.92    5.29
   7  -1  13   -0.14    1.42
  -7  -1 -13    4.29    4.95
  -7   1 -13   -4.01    3.69
  -7   1 -13   -3.20    5.62
  -7   1 -13   -4.87    4.61
  -8  -1 -13    1.00    5.32
  -8  -1 -13   -3.98    3.82
  -8  -1 -13    2.09    4.76
   8  -1  13    3.06    1.70
  -8   1 -13   -3.33    4.85
  -8   1 -13    1.10    5.19
  -8   1 -13    5.86    4.38
   9  -1  13    2.72    1.83
  -9  -1 -13   -4.26    5.40
  -9  -1 -13   -2.35    4.06
  -9  -1 -13    5.80    5.19
  -9   1 -13   -2.09    3.64
  -9   1 -13   -6.88    4.37
  -9   1 -13    2.13    5.33
 -14  -2  13    1.43    2.57
 -14  -2  13   -3.12    2.42
 -14   2  13    0.96    2.43
 -14   2  13   -0.01    3.66
 -13  -2  13   10.67    3.23
 -13  -2  13   -0.05    2.13
 -13   2  13    2.84    2.49
 -13   2  13    6.40    3.52
 -12  -2  13    3.21    2.39
 -12  -2  13    5.93    2.61
 -12   2  13    0.37    3.11
 -12   2  13    4.73    2.65
 -11  -2  13    3.80    2.21
 -11  -2  13    1.51    2.19
 -11   2  13   -0.94    2.73
 -11   2  13    1.38    2.84
 -10  -2  13    0.17    1.83
 -10   2  13    2.84    2.16
  -9  -2  13   -3.12    1.60
   9  -2 -13    3.20    2.48
  -9  -2  13   -1.63    1.83
  -9   2  13   -2.73    1.61
   8  -2 -13    0.97    2.50
  -8  -2  13    2.23    1.92
  -7  -2  13   -0.47    1.77
   7  -2 -13    4.81    2.83
  -7   2  13    1.51    1.83
  -7   2  13    2.76    1.58
   6  -2 -13    6.33    3.21
  -6  -2  13    5.03    1.98
  -6   2  13    5.40    2.16
   6   2 -13    7.47    1.72
   6   2 -13   -0.44    3.31
   5  -2 -13    6.46    3.28
  -5  -2  13    9.36    2.21
   5   2 -13    7.68    1.89
  -5   2  13    4.71    1.90
   5   2 -13    9.81    3.50
  -4  -2  13   11.08    2.24
   4  -2 -13   13.34    4.22
   4   2 -13   13.81    2.24
   4   2 -13   16.87    3.91
   3  -2 -13    8.97    4.23
  -3  -2  13   17.31    2.64
   3   2 -13   15.59    2.52
   3   2 -13   16.76    4.37
  -3   2  13   15.04    2.38
   2  -2 -13    6.71    3.83
  -2  -2  13    3.74    1.76
   2   2 -13    6.12    3.68
   2   2 -13    7.49    2.18
  -2   2  13    4.00    1.68
  -1  -2  13   -0.55    1.33
   1  -2 -13    1.73    3.89
   1   2 -13   -0.14    1.98
  -1   2  13   -0.96    1.23
   1   2 -13    1.14    3.41
   0  -2 -13   -0.25    3.68
   0  -2  13    0.43    1.31
   0  -2 -13    2.38    2.88
   0   2  13    1.54    1.26
   0   2 -13   -2.17    3.44
   0   2 -13    1.93    2.25
  -1  -2 -13    2.44    1.54
   1  -2  13    6.35    1.64
  -1  -2 -13    2.23    3.34
  -1  -2 -13    0.49    3.98
   1   2  13    1.80    1.27
  -1   2 -13    0.07    4.06
  -1   2 -13    6.41    2.43
  -2  -2 -13    4.63    2.09
  -2  -2 -13    5.90    4.45
  -2  -2 -13    5.30    3.46
   2  -2  13    1.26    1.36
  -2   2 -13    5.11    4.36
   2   2  13    2.50    1.30
  -2   2 -13    2.16    2.90
   3  -2  13    2.61    1.34
  -3  -2 -13    1.60    2.35
  -3  -2 -13   -2.28    4.23
  -3  -2 -13    0.01    3.90
  -3   2 -13    0.96    2.96
   3   2  13    2.02    1.24
  -3   2 -13   -0.15    4.40
  -3   2 -13   -1.48    3.96
  -4  -2 -13   -2.64    3.75
   4  -2  13   -0.36    1.35
  -4  -2 -13   -0.25    2.66
  -4  -2 -13    4.46    4.58
  -4   2 -13    4.67    4.49
  -4   2 -13   -0.31    3.14
   4   2  13    0.63    1.15
  -4   2 -13   -7.89    3.97
  -5  -2 -13    5.05    4.30
  -5  -2 -13    4.21    8.69
  -5  -2 -13    0.38    3.05
   5  -2  13   -1.04    1.37
  -5   2 -13   -0.17    4.60
  -5   2 -13    5.72    3.95
   6  -2  13    2.12    1.56
  -6  -2 -13    0.51    5.00
  -6  -2 -13   -2.06    2.99
  -6  -2 -13   -1.81    4.78
  -6   2 -13    1.09    4.79
  -6   2 -13    1.05    4.02
   7  -2  13    1.74    1.54
  -7  -2 -13    3.27    5.27
  -7  -2 -13   11.35    4.94
  -7  -2 -13   -0.68    3.71
  -7   2 -13   -0.97    4.96
  -7   2 -13   -1.72    5.02
  -8  -2 -13   -3.10    3.74
  -8  -2 -13    1.13    5.21
  -8  -2 -13   -0.60    4.52
  -8   2 -13    5.16    5.49
  -8   2 -13    3.09    4.49
  -8   2 -13   -0.03    5.07
  -9  -2 -13    2.15    4.24
   9  -2  13    2.51    1.74
  -9  -2 -13   -6.52    4.75
  -9  -2 -13   -4.13    4.74
  -9   2 -13    1.44    5.08
  -9   2 -13    0.52    4.05
  -9   2 -13   -1.02    5.18
 -13  -3  13   -1.49    1.94
 -13  -3  13    0.98    2.56
 -13   3  13   -6.55    2.10
 -13   3  13    1.27    3.57
 -12  -3  13    2.45    2.22
 -12   3  13   -4.06    2.68
 -12   3  13   -1.96    3.43
 -11  -3  13    1.68    2.10
 -11  -3  13    0.94    2.23
 -11   3  13   -1.69    2.09
 -11   3  13    3.13    3.32
 -10  -3  13   -1.82    1.95
 -10  -3  13    3.05    2.62
 -10   3  13    0.81    2.81
 -10   3  13    4.40    2.53
   9  -3 -13    3.16    2.42
  -9  -3  13    1.23    2.20
  -9   3  13   -1.02    2.06
  -9   3  13   10.98    3.59
   8  -3 -13   -0.86    2.41
  -8  -3  13   -0.34    1.60
  -8   3  13   -1.31    2.95
  -8   3  13   -1.37    1.82
  -7  -3  13    4.48    2.06
   7  -3 -13   -3.92    2.40
   7   3 -13    0.09    1.74
  -7   3  13    1.71    3.24
  -7   3  13    2.97    2.27
   6  -3 -13    2.73    2.66
  -6  -3  13    3.28    1.95
  -6   3  13    5.04    2.37
  -6   3  13   -0.39    2.59
   6   3 -13    1.11    1.78
  -5  -3  13    0.40    1.51
   5  -3 -13   -0.10    3.28
  -5   3  13   -1.02    1.70
   5   3 -13   -3.68    2.79
   5   3 -13    0.40    1.74
   4  -3 -13    0.74    3.12
  -4  -3  13   -0.16    1.66
   4   3 -13    1.12    1.87
   4   3 -13    0.43    3.16
  -4   3  13    0.45    1.50
   3  -3 -13   -2.75    3.21
  -3  -3  13   -0.91    1.49
   3   3 -13    3.94    2.96
  -3   3  13   -1.49    1.51
   3   3 -13    2.35    2.05
  -2  -3  13    0.11    1.56
   2  -3 -13   -0.83    3.65
   2   3 -13    1.69    2.14
  -2   3  13   -0.68    1.47
   2   3 -13    0.60    3.33
  -1  -3  13    0.57    1.57
   1  -3 -13   -2.33    3.60
  -1   3  13    0.73    1.37
   1   3 -13   -5.41    3.22
   1   3 -13   -3.60    3.60
   0  -3 -13   -4.73    2.37
   0  -3 -13    5.84    4.09
   0  -3  13   -1.41    1.26
   0   3 -13    0.10    2.47
   0   3  13    0.27    1.33
   0   3 -13    0.49    3.74
  -1  -3 -13    1.15    6.22
   1  -3  13    2.22    1.45
  -1  -3 -13   -5.64    3.45
   1   3  13    2.29    1.54
  -1   3 -13    1.64    3.94
  -1   3 -13    3.58    3.05
  -2  -3 -13    0.16    3.92
   2  -3  13    0.94    1.37
  -2  -3 -13   -0.45    3.53
   2   3  13   -1.77    1.31
  -2   3 -13   -4.07    3.90
  -2   3 -13    1.48    3.09
  -3  -3 -13   -0.75    3.31
  -3  -3 -13    2.72    4.43
   3  -3  13    0.78    1.25
  -3  -3 -13    0.75    2.23
  -3   3 -13   -9.73    4.10
  -3   3 -13    2.28    3.28
  -4  -3 -13   -2.45    3.53
  -4  -3 -13    1.03    2.63
   4  -3  13    0.03    1.41
  -4   3 -13   -2.31    2.99
  -4   3 -13    1.61    5.45
   5  -3  13    0.75    1.56
  -5  -3 -13    3.31    5.55
  -5  -3 -13   -2.78    4.66
  -5  -3 -13   -1.65    3.89
  -5   3 -13    8.23    5.87
  -5   3 -13    2.14    4.58
  -5   3 -13   -5.00    3.64
  -6  -3 -13   -1.24    4.74
  -6  -3 -13    0.93    3.14
   6  -3  13   -0.05    1.76
  -6   3 -13   -1.27    4.96
  -6   3 -13   -3.88    6.00
  -7  -3 -13    2.89    3.81
  -7  -3 -13    0.03    4.82
   7  -3  13    1.94    1.59
  -7  -3 -13    1.11    5.07
  -7   3 -13    3.80    4.35
  -7   3 -13   -5.95    4.88
  -7   3 -13   -9.10    4.35
   8  -3  13   -0.62    1.54
  -8  -3 -13    0.80    4.64
  -8  -3 -13    3.28    5.15
  -8  -3 -13    0.75    3.84
  -8   3 -13    4.74    4.64
  -8   3 -13   -1.73    4.93
  -8   3 -13   -5.55    4.94
 -13  -4  13   -3.85    2.49
 -13  -4  13    1.05    2.62
 -13   4  13   -0.87    2.49
 -13   4  13    0.34    3.38
 -12  -4  13    1.97    2.26
 -12  -4  13    1.29    2.02
 -12   4  13   -1.51    3.27
 -12   4  13   -0.17    2.51
 -11  -4  13    2.32    2.07
 -11  -4  13   -1.44    2.22
 -11   4  13   -3.78    2.75
 -11   4  13    3.60    2.70
 -10  -4  13   -0.38    2.01
 -10   4  13    4.14    3.60
 -10   4  13    3.65    3.11
   9  -4 -13    4.00    2.78
  -9  -4  13    1.68    2.26
  -9  -4  13    4.34    2.80
  -9   4  13    1.89    2.58
  -9   4  13   -1.02    3.13
   8  -4 -13    3.13    2.63
  -8   4  13    4.94    4.12
  -8   4  13   -0.71    2.26
   7  -4 -13    2.93    2.68
  -7  -4  13    0.81    1.97
  -7   4  13    3.10    2.61
  -7   4  13    2.30    2.96
   7   4 -13    5.49    2.33
  -6  -4  13    1.50    1.75
   6  -4 -13   -0.43    2.84
  -6   4  13    0.93    2.25
   6   4 -13    4.23    2.37
  -6   4  13    0.16    2.98
   5  -4 -13    0.27    3.00
  -5  -4  13    3.12    1.86
  -5   4  13    2.65    3.22
  -5   4  13    1.02    2.29
   5   4 -13    0.27    2.12
   4  -4 -13    2.05    3.62
  -4  -4  13    0.78    1.61
  -4   4  13    5.27    3.23
   4   4 -13    6.40    3.61
   4   4 -13   -0.82    2.13
  -4   4  13   -2.61    1.86
  -3  -4  13   -0.71    1.55
   3  -4 -13   -3.55    3.75
  -3   4  13   -2.35    1.80
   3   4 -13    0.21    2.26
  -3   4  13    1.07    2.70
   3   4 -13   -1.15    3.28
   2  -4 -13    0.23    4.07
  -2  -4  13    4.43    1.93
  -2   4  13    1.48    3.00
   2   4 -13    4.17    3.68
  -2   4  13   -5.42    1.64
   2   4 -13    0.54    2.33
  -1  -4  13    8.81    2.11
   1  -4 -13    7.08    4.26
   1   4 -13    4.50    3.97
   1   4 -13   10.63    3.33
  -1   4  13   -0.98    2.73
  -1   4  13    7.27    2.13
   0  -4 -13    5.79    4.57
   0  -4  13    4.75    1.83
   0  -4 -13    3.29    2.64
   0   4  13    3.04    1.99
   0   4 -13    4.04    4.02
   0   4 -13   -0.84    2.60
   0   4  13    5.81    3.21
   1  -4  13    3.15    1.67
  -1  -4 -13    7.74    3.24
  -1  -4 -13   -0.13    4.07
  -1   4 -13    6.18    3.20
   1   4  13    5.31    3.18
  -1   4 -13   -3.42    3.92
   2  -4  13    1.41    1.47
  -2  -4 -13    2.93    4.48
  -2  -4 -13   -0.66    3.46
   2   4  13    1.07    2.84
  -2   4 -13    2.68    4.46
  -2   4 -13    2.04    3.04
  -3  -4 -13    8.56    4.13
  -3  -4 -13   -0.25    4.91
   3  -4  13    5.01    1.78
  -3   4 -13   -2.27    4.39
  -3   4 -13    5.78    3.48
   3   4  13    5.92    2.87
  -4  -4 -13    2.98    4.12
   4  -4  13    7.62    2.96
  -4  -4 -13    8.37    4.97
  -4   4 -13   10.12    6.76
  -4   4 -13    4.40    4.08
  -5  -4 -13    7.99    4.51
   5  -4  13    5.69    1.79
  -5  -4 -13    7.69    4.86
   6  -4  13    0.43    1.53
  -6  -4 -13   -2.35    4.69
  -6  -4 -13    5.48    7.53
  -6  -4 -13    4.85    3.48
  -6   4 -13   -3.30    3.47
  -6   4 -13    5.61    5.73
  -7  -4 -13   -2.06    3.59
  -7  -4 -13   -1.42    4.63
   7  -4  13    0.57    1.50
  -7  -4 -13    7.01    5.29
  -7   4 -13    2.51    5.37
  -7   4 -13    0.05    4.14
  -7   4 -13    5.67    5.15
  -8  -4 -13    6.60    6.07
  -8   4 -13   -1.62    4.30
 -12  -5  13    0.36    2.28
 -12  -5  13   -1.47    2.65
 -12   5  13    2.57    3.95
 -12   5  13   -6.38    2.66
 -11  -5  13    0.59    2.61
 -11  -5  13    3.52    2.41
 -11   5  13    1.50    3.92
 -11   5  13    0.80    2.68
 -10  -5  13    1.87    2.92
 -10  -5  13    1.75    2.13
 -10   5  13   -2.69    3.29
 -10   5  13    0.84    3.45
  -9  -5  13   -1.40    2.52
  -9  -5  13   -1.15    1.84
  -9   5  13   -2.47    2.81
  -9   5  13   -2.02    3.27
   8  -5 -13    0.38    2.60
  -8  -5  13    0.56    1.94
  -8  -5  13    3.80    3.34
   8   5 -13   -0.34    1.90
  -8   5  13   -1.37    3.56
  -8   5  13    4.46    2.61
  -7  -5  13    0.52    2.06
   7  -5 -13   -2.08    2.44
  -7   5  13    7.44    3.08
  -7   5  13    4.18    6.26
   7   5 -13   -2.84    2.11
   6  -5 -13   -1.67    2.85
  -6   5  13    8.44    4.32
   6   5 -13    1.54    2.16
  -6   5  13    1.66    2.72
  -5  -5  13    1.12    3.04
   5  -5 -13    0.97    3.04
   5   5 -13    1.45    2.36
  -5   5  13   -2.87    2.47
  -5   5  13   -1.60    3.50
  -4  -5  13    0.25    1.70
   4  -5 -13   -3.43    3.43
  -4   5  13    2.95    3.16
  -4   5  13    1.61    2.45
   4   5 -13    1.78    2.63
  -3  -5  13    1.58    1.85
   3  -5 -13    3.73    4.03
  -3   5  13    3.06    2.55
   3   5 -13    0.34    2.33
  -3   5  13   -1.66    2.79
  -2  -5  13   -1.40    1.48
   2  -5 -13    4.47    4.30
  -2   5  13    0.57    2.30
   2   5 -13   -0.99    3.62
  -2   5  13    0.48    3.19
   2   5 -13   -2.49    2.75
   1  -5 -13   -0.82    3.72
  -1  -5  13   -0.58    1.54
   1   5 -13   -5.23    3.51
   1   5 -13   -3.79    2.86
  -1   5  13    1.98    3.23
   0  -5 -13    2.74    2.56
   0  -5 -13   -1.10    4.49
   0  -5  13    0.98    1.61
   0   5  13    1.97    3.41
   0   5 -13    1.14    3.18
   0   5 -13    3.52    4.11
  -1  -5 -13   -0.76    2.87
  -1  -5 -13    4.40    4.30
  -1   5 -13    1.66    3.39
   1   5  13    0.10    3.64
  -1   5 -13    2.60    4.51
   2  -5  13    0.73    1.56
  -2  -5 -13    0.97    3.41
   2   5  13   -0.54    3.06
  -2   5 -13   -2.79    4.29
  -2   5 -13    0.83    3.71
  -3  -5 -13   -1.95    4.27
   3  -5  13    0.69    1.74
  -3  -5 -13   -1.02    3.53
  -3   5 -13    4.77    4.17
   4  -5  13    0.38    1.61
  -4  -5 -13    0.26    4.45
  -4  -5 -13   -4.02    3.28
  -4   5 -13    9.25    4.39
  -4   5 -13    3.40    7.55
  -5  -5 -13    4.75    3.94
  -5  -5 -13    0.31    4.46
   5  -5  13    0.58    1.69
  -5   5 -13    0.53    3.96
  -5   5 -13   -9.20    4.86
  -6  -5 -13    6.01    4.85
   6  -5  13   -2.99    1.32
  -6  -5 -13    0.92    4.25
  -6   5 -13   -1.46    3.84
  -6   5 -13   -6.13    5.35
   7  -5  13   -2.78    1.60
  -7   5 -13    1.62    4.71
 -10  -6  13    1.30    2.26
 -10  -6  13    3.60    2.98
 -10   6  13    1.52    2.93
 -10   6  13   -0.05    3.79
  -9  -6  13    1.48    2.33
  -9  -6  13   -2.70    2.60
  -9   6  13    2.90    3.71
  -9   6  13   -4.61    5.27
  -8  -6  13    7.66    3.17
  -8  -6  13   -1.21    2.25
  -8   6  13   -3.27    3.83
  -8   6  13   -0.37    3.10
   7  -6 -13   -0.64    2.33
  -7  -6  13    4.13    2.14
  -7   6  13   -0.35    2.94
  -7   6  13    8.09    4.19
   7   6 -13    2.07    2.40
   6  -6 -13    0.43    2.75
  -6  -6  13    1.45    2.01
   6   6 -13    3.78    2.61
  -6   6  13   -0.14    2.87
  -5  -6  13    1.38    2.09
   5  -6 -13    1.05    3.22
  -5   6  13    1.88    3.80
   5   6 -13    0.00    2.76
  -5   6  13   -3.58    3.01
   4  -6 -13   10.81    3.94
  -4  -6  13    3.89    2.22
  -4   6  13    3.31    4.19
   4   6 -13    8.76    3.19
  -4   6  13   -1.92    4.11
   3  -6 -13    2.94    3.96
  -3  -6  13    2.00    1.99
   3   6 -13    1.48    2.75
  -3   6  13    3.16    3.63
  -2  -6  13    1.19    1.83
   2  -6 -13   -0.94    3.96
   2   6 -13    0.67    3.15
  -2   6  13    0.88    3.56
   1  -6 -13   -1.69    3.76
  -1  -6  13   -0.87    1.52
  -1   6  13    0.52    3.43
   1   6 -13   -2.58    3.14
   0  -6  13    0.08    1.77
   0  -6 -13   -1.52    4.33
   0   6  13    3.74    3.32
   0   6 -13    9.19    5.21
   0   6 -13   -2.55    3.06
  -1  -6 -13   -3.40    9.03
   1  -6  13    0.39    1.66
  -1   6 -13   -5.61    4.23
   1   6  13   -2.70    3.36
  -1   6 -13    6.02    6.59
  -2  -6 -13   -0.64    3.13
   2  -6  13    1.60    1.90
  -2  -6 -13   -3.97    4.61
  -2   6 -13    0.44    3.40
  -2   6 -13    3.64    5.02
   3  -6  13    2.45    1.78
  -3  -6 -13   -0.94    4.18
  -3  -6 -13    6.82    3.77
  -3   6 -13    7.00    5.87
  -3   6 -13   -6.03    3.07
  -4  -6 -13    0.46    4.49
   4  -6  13   -0.72    1.47
  -4  -6 -13   -3.51    3.33
  -4   6 -13    5.92    4.28
  -4   6 -13    1.38    5.09
   5  -6  13   -1.08    1.83
  -5  -6 -13   -0.25    5.14
  -5   6 -13    0.66    4.23
  -5   6 -13   -4.45    5.61
  -8  -7  13    0.93    3.05
  -8  -7  13   -1.41    2.06
  -8   7  13   -0.09    4.69
   8   7 -13   -2.26    2.46
  -7  -7  13   -3.05    2.92
  -7  -7  13    2.45    2.17
  -7   7  13   -5.19    3.76
   7   7 -13    0.58    2.55
  -6  -7  13    0.54    2.14
  -6   7  13   -1.91    3.88
   6   7 -13    4.16    2.75
  -5  -7  13    3.76    2.10
   5  -7 -13   -3.31    2.96
   5   7 -13    0.35    2.62
  -5   7  13    0.54    4.03
  -4  -7  13    0.55    1.94
   4  -7 -13   -1.70    3.49
   4   7 -13   -2.24    2.49
   3  -7 -13   -0.45    3.75
  -3  -7  13    0.23    2.05
  -3   7  13    5.36    3.74
   3   7 -13   -3.27    2.57
  -2  -7  13    0.16    1.82
   2  -7 -13   -1.30    3.93
   2   7 -13    3.26    2.90
  -2   7  13   -7.69    3.11
  -1  -7  13   -1.19    1.73
  -1   7  13   -9.59    3.02
   1   7 -13   -2.88    3.11
   0  -7 -13   -6.91    3.72
   0  -7  13   -0.38    1.84
   0   7 -13    3.05    3.30
   0   7  13   -2.81    3.54
  -1  -7 -13   -2.96    4.00
   1  -7  13   -0.88    1.61
  -1   7 -13   -2.92    3.54
   2  -7  13   -0.11    1.75
  -2  -7 -13   -5.80    3.89
  -2   7 -13   -1.58    3.31
  -3  -7 -13   -0.38    4.20
   3  -7  13   -0.81    1.67
  -3   7 -13    0.54    3.95
  -5  -8  13    1.86    2.15
   5   8 -13   -4.55    3.03
  -5   8  13    9.69    5.19
  -4  -8  13    0.74    2.10
   4   8 -13   -4.58    2.98
  -4   8  13   -3.50    4.00
  -3  -8  13    2.39    1.99
   3  -8 -13   -0.95    3.61
   3   8 -13    0.76    2.96
  -3   8  13   -6.14    3.97
  -2  -8  13    2.57    2.02
   2  -8 -13    3.99    4.52
   2   8 -13    2.58    3.46
  -2   8  13   -5.47    4.04
  -1  -8  13   -0.74    1.77
   1  -8 -13   -0.82    4.08
   1   8 -13    2.29    3.80
   0  -8  13    1.44    2.02
   0  -8 -13    3.55    4.14
   0   8 -13    3.85    4.06
 -13   0  14   -1.99    3.30
 -13   0  14   -1.66    2.30
 -12   0  14   -1.36    2.35
 -11   0  14    3.30    1.73
 -11   0  14    2.55    2.33
 -10   0  14    2.76    2.32
 -10   0  14   -1.16    1.73
  -9   0  14    3.25    2.15
  -8   0  14    1.29    1.94
  -8   0  14    4.81    2.28
   8   0 -14    3.57    3.13
   7   0 -14    1.03    2.98
  -7   0  14   -2.52    1.90
  -6   0  14   -0.19    1.59
   6   0 -14    2.90    2.97
  -5   0  14    2.41    1.72
   5   0 -14    3.27    3.48
   4   0 -14   -1.32    3.24
  -4   0  14    2.18    1.83
  -3   0  14    2.07    1.59
   3   0 -14   -1.17    3.51
  -2   0  14    2.23    1.80
   2   0 -14    8.07    4.11
   1   0 -14   12.03    2.06
   1   0 -14    4.19    4.41
  -1   0  14   12.44    2.15
   0   0 -14   11.72    2.35
   0   0 -14    8.61    4.60
   0   0  14   10.83    2.07
   1   0  14    5.03    1.70
  -1   0 -14    5.39    2.30
  -1   0 -14    0.25    4.85
   2   0  14    2.02    1.51
  -2   0 -14   -0.96    4.46
  -2   0 -14    0.23    2.29
  -2   0 -14    5.09    4.04
   3   0  14   -0.64    1.16
  -3   0 -14   -9.29    3.51
  -3   0 -14   -4.39    4.67
  -3   0 -14   -2.83    4.71
  -4   0 -14   -2.66    3.95
  -4   0 -14   -1.50    2.97
   4   0  14    0.99    1.39
  -4   0 -14    3.74    5.16
  -5   0 -14    1.85    3.30
  -5   0 -14    5.93    5.29
  -5   0 -14    3.07    4.31
   5   0  14   -0.91    1.35
  -6   0 -14    5.67    5.43
  -6   0 -14   -7.09    4.57
  -6   0 -14   -0.78    3.25
   6   0  14   -0.30    1.58
  -7   0 -14   -8.83    4.37
  -7   0 -14    2.80    5.21
   7   0  14    0.77    1.77
  -8   0 -14   -2.54    6.04
  -8   0 -14    1.99    3.98
  -8   0 -14    0.85    4.86
 -13  -1  14   -3.17    2.09
 -13  -1  14    1.21    2.41
 -13   1  14   -0.49    2.48
 -13   1  14   -0.74    3.11
 -12  -1  14    1.85    2.56
 -12  -1  14    1.77    2.09
 -12   1  14   -1.95    3.39
 -12   1  14    2.91    2.35
 -11  -1  14    2.89    1.91
 -11  -1  14   -4.59    1.94
 -11   1  14    1.21    2.11
 -10  -1  14    0.98    1.97
 -10  -1  14    2.09    2.04
 -10   1  14   -3.65    2.70
  -9  -1  14    0.99    2.04
  -9   1  14   -0.40    1.48
  -9   1  14    0.16    2.12
   8  -1 -14   -5.05    2.55
  -8  -1  14   -2.07    1.78
  -8   1  14    0.23    1.42
  -8   1  14    0.40    2.04
  -7  -1  14   -2.83    1.58
   7  -1 -14   -0.30    3.14
   7   1 -14    4.13    3.55
  -7   1  14    0.81    1.72
   6  -1 -14    1.55    3.02
  -6  -1  14    3.64    2.11
  -6   1  14    1.80    1.93
   6   1 -14   -0.58    3.57
  -5  -1  14   -1.58    1.53
   5  -1 -14    1.96    3.26
  -5   1  14   -1.66    1.60
   5   1 -14    1.46    3.21
  -4  -1  14    1.04    1.61
   4  -1 -14    1.50    3.35
   4   1 -14   -0.17    3.20
  -4   1  14   -0.51    1.71
   4   1 -14    2.08    1.33
  -3  -1  14    3.73    1.88
   3  -1 -14    2.55    3.97
  -3   1  14    2.93    1.64
   3   1 -14    4.12    1.55
   3   1 -14    4.79    3.82
  -2  -1  14   -0.17    1.43
   2  -1 -14    1.67    4.34
   2   1 -14   -0.57    1.50
  -2   1  14   -0.42    1.56
   2   1 -14   -1.83    3.19
   1  -1 -14   -0.30    4.01
  -1  -1  14   -0.51    1.30
   1   1 -14   -0.66    1.72
   1   1 -14    4.23    4.36
  -1   1  14   -0.02    1.25
   0  -1  14    1.22    1.58
   0  -1 -14   -4.81    3.78
   0   1 -14    3.05    4.25
   0   1 -14    0.99    1.94
   0   1  14   -2.51    1.29
  -1  -1 -14    4.87    4.41
  -1  -1 -14    0.09    1.83
  -1  -1 -14   -6.62    3.36
   1  -1  14   -0.12    1.32
  -1   1 -14   -3.58    2.13
  -1   1 -14   -2.79    3.79
  -2  -1 -14   -4.38    3.23
  -2  -1 -14    4.74    2.29
  -2  -1 -14   -6.60    4.18
   2  -1  14    3.62    1.62
  -2   1 -14    3.77    4.59
  -2   1 -14    0.89    4.78
   3  -1  14    1.84    1.70
  -3  -1 -14    1.42    2.53
  -3  -1 -14    1.40    4.54
   3   1  14    4.23    2.84
  -3   1 -14    1.12    2.89
  -3   1 -14    8.18    4.85
  -3   1 -14    8.15    5.77
  -4  -1 -14   -0.27    4.17
   4  -1  14   -1.70    1.36
  -4  -1 -14   -8.01    4.70
  -4  -1 -14    1.54    2.82
  -4   1 -14    0.65    3.07
   4   1  14   -0.21    1.62
  -4   1 -14    2.10    5.52
  -5  -1 -14   -4.59    7.69
   5  -1  14   -1.60    1.31
  -5  -1 -14    7.99    5.45
  -5  -1 -14   -0.72    2.91
  -5   1 -14    2.17    4.52
  -5   1 -14    3.14    3.52
  -5   1 -14    0.05    4.77
   5   1  14   -0.10    1.45
  -6  -1 -14    5.28    5.72
  -6  -1 -14   -9.21    4.78
   6  -1  14   -0.50    1.55
  -6  -1 -14   -1.61    3.17
  -6   1 -14   -5.90    4.87
  -6   1 -14   -1.12    3.26
  -6   1 -14  -10.11    4.84
  -7  -1 -14    3.77    3.75
  -7  -1 -14    4.49    5.42
   7  -1  14    2.65    1.66
  -7  -1 -14   -3.53    4.53
  -7   1 -14   -4.39    5.08
  -7   1 -14   -1.41    3.70
  -7   1 -14    3.83    5.24
  -8  -1 -14  -10.78    5.46
  -8  -1 -14    7.44    4.06
  -8  -1 -14   -3.32    4.85
  -8   1 -14   -5.15    4.93
  -8   1 -14   -4.21    5.63
  -8   1 -14   -6.28    3.92
 -13  -2  14   -2.54    3.59
 -13  -2  14   -2.08    2.23
 -13   2  14   -0.79    2.50
 -13   2  14    1.93    3.11
 -12  -2  14    2.83    2.47
 -12  -2  14    2.14    2.13
 -12   2  14   -1.75    2.37
 -12   2  14   -0.71    3.10
 -11  -2  14    1.47    2.24
 -11  -2  14    1.37    2.05
 -11   2  14   -2.85    2.19
 -11   2  14   -0.20    2.86
 -10  -2  14    5.20    2.43
 -10  -2  14   -0.07    2.12
 -10   2  14   -2.28    2.06
 -10   2  14    0.74    3.36
   9  -2 -14    0.25    2.87
  -9  -2  14    0.62    1.96
  -9  -2  14    2.49    2.16
  -9   2  14    0.95    2.06
   8  -2 -14    0.76    2.77
  -8  -2  14    1.06    2.31
  -8   2  14   -1.17    2.22
   7  -2 -14    1.77    2.78
  -7  -2  14    3.52    2.11
   7   2 -14    3.43    3.34
  -7   2  14   -1.74    1.75
  -6  -2  14    0.73    1.82
   6  -2 -14    2.86    3.42
   6   2 -14    1.16    1.55
  -6   2  14    0.87    1.79
   6   2 -14    1.03    3.26
  -5  -2  14    6.41    2.22
   5  -2 -14    3.36    3.79
   5   2 -14    4.36    1.75
  -5   2  14    2.13    2.08
   5   2 -14    8.17    3.69
   4  -2 -14   11.26    3.98
  -4  -2  14   10.18    2.17
   4   2 -14   15.10    4.30
   4   2 -14    9.85    2.15
  -4   2  14    5.50    2.03
   3  -2 -14    9.11    4.43
  -3  -2  14   12.14    2.55
   3   2 -14    7.89    2.22
   3   2 -14   11.14    4.46
  -3   2  14    4.13    1.98
   2  -2 -14    3.07    3.88
  -2  -2  14    4.40    1.67
   2   2 -14    3.60    1.84
   2   2 -14   -5.29    3.27
  -2   2  14   -1.84    2.98
  -1  -2  14    1.00    1.45
   1  -2 -14    1.31    4.02
   1   2 -14    0.91    3.70
   1   2 -14    1.63    2.15
  -1   2  14    0.74    1.43
   0  -2  14   -0.17    1.34
   0  -2 -14    0.05    4.29
   0   2 -14   -1.94    3.83
   0   2  14   -1.23    1.27
   0   2 -14    2.37    2.18
   1  -2  14   -0.72    1.32
  -1  -2 -14    3.68    4.58
  -1  -2 -14    1.82    3.58
  -1   2 -14    1.81    2.72
   1   2  14   -0.06    1.26
  -1   2 -14    5.93    4.64
   2  -2  14    2.87    1.50
  -2  -2 -14    4.60    4.82
  -2  -2 -14   -0.79    3.84
   2   2  14    2.52    1.47
  -2   2 -14    1.96    4.80
  -2   2 -14   -1.59    2.73
  -3  -2 -14    2.97    2.66
   3  -2  14   -0.61    1.42
  -3  -2 -14    4.66    4.13
  -3  -2 -14   15.48    6.30
  -3   2 -14    0.26    2.96
   3   2  14    1.88    1.45
   4  -2  14    5.52    1.81
  -4  -2 -14   -0.02    5.09
  -4  -2 -14    4.19    4.39
  -4  -2 -14    8.12    3.00
  -4   2 -14    5.27    3.77
  -4   2 -14    6.95    4.90
  -4   2 -14   -1.43    4.54
   5  -2  14    3.50    1.74
  -5  -2 -14   -2.80    3.11
  -5  -2 -14    0.50    4.86
  -5   2 -14    2.85    5.12
  -5   2 -14   -3.30    3.03
  -5   2 -14   -1.45    4.77
   6  -2  14   -0.46    1.90
  -6  -2 -14    3.38    5.45
  -6  -2 -14    6.57    3.71
  -6  -2 -14   -2.92    4.55
  -6   2 -14    6.72    5.68
  -6   2 -14    9.76    5.37
  -7  -2 -14   -2.34    3.66
   7  -2  14    1.06    1.49
  -7  -2 -14    0.88    5.39
  -7  -2 -14   -9.94    5.12
  -7   2 -14    7.01    5.07
  -7   2 -14   -9.94    4.48
  -7   2 -14    3.68    3.65
 -12  -3  14   -0.39    2.15
 -12  -3  14    1.74    2.35
 -12   3  14    2.84    2.69
 -12   3  14    3.41    3.56
 -11  -3  14   -1.76    2.11
 -11   3  14   -2.20    2.28
 -11   3  14   -1.45    3.01
 -10  -3  14   -2.56    1.85
 -10  -3  14   -0.90    2.14
 -10   3  14   -1.44    2.84
 -10   3  14    0.97    2.43
  -9  -3  14    0.51    2.73
   9  -3 -14    0.62    2.50
  -9  -3  14    3.40    2.09
  -9   3  14   11.63    2.99
  -9   3  14    0.71    2.78
   8  -3 -14   -1.73    2.57
  -8  -3  14    0.61    2.03
  -8   3  14    1.59    4.86
  -8   3  14   -0.95    2.28
   7  -3 -14    3.27    2.84
  -7   3  14   -1.59    3.09
  -7   3  14   -0.47    2.15
   6  -3 -14    0.75    3.10
  -6  -3  14   -1.37    1.81
   6   3 -14   -2.68    2.04
  -6   3  14    0.69    2.08
  -6   3  14    1.16    2.96
   6   3 -14   -5.08    3.01
  -5  -3  14    2.53    1.88
   5  -3 -14    1.59    3.33
   5   3 -14   -2.03    3.17
   5   3 -14    1.41    2.01
  -5   3  14    3.88    2.08
  -4  -3  14    1.41    1.65
   4  -3 -14    0.40    3.33
  -4   3  14    3.42    2.00
   4   3 -14    3.17    3.57
   4   3 -14    1.89    2.23
   3  -3 -14    1.97    3.70
  -3  -3  14    3.45    1.80
   3   3 -14   -1.17    3.58
   3   3 -14    0.44    3.33
  -2  -3  14    2.31    1.74
   2  -3 -14   -0.66    3.81
   2   3 -14    7.27    4.03
   2   3 -14   -3.02    2.09
  -2   3  14    1.05    1.84
  -1  -3  14    4.38    1.78
   1  -3 -14   -1.97    3.96
  -1   3  14    2.40    1.80
   1   3 -14    0.34    4.00
   1   3 -14    2.21    2.54
   0  -3 -14    4.42    4.47
   0  -3  14   -0.02    1.48
   0   3 -14    0.93    2.41
   0   3  14    0.96    1.60
   0   3 -14   -1.09    3.85
  -1  -3 -14    6.53    4.69
   1  -3  14   -0.72    1.29
  -1  -3 -14    1.54    3.44
  -1   3 -14    1.38    2.97
  -1   3 -14   -7.75    3.78
   1   3  14    0.17    1.63
  -2  -3 -14   -0.24    3.69
   2  -3  14    1.06    1.61
  -2   3 -14    0.52    3.14
  -3  -3 -14    1.84    4.67
   3  -3  14    1.94    1.62
  -3  -3 -14   -1.75    3.67
  -3   3 -14    8.93    5.16
  -3   3 -14    1.50    3.34
  -4  -3 -14    0.87    3.80
  -4  -3 -14    2.87    4.81
  -4   3 -14   -0.06    3.34
  -4   3 -14   -4.56    4.84
   5  -3  14   -1.34    1.51
  -5  -3 -14   -7.87    4.76
  -5   3 -14   -3.93    4.59
  -6  -3 -14    0.25    4.49
  -6  -3 -14   -0.32    5.12
   6  -3  14   -1.43    1.57
  -6   3 -14   -8.69    4.69
  -6   3 -14    5.35    5.14
  -6   3 -14    3.51    4.12
  -7  -3 -14    0.36    3.85
   7  -3  14    1.25    1.52
  -7  -3 -14    2.70    5.79
  -7  -3 -14   -9.64    4.56
  -7   3 -14   -1.67    5.02
  -7   3 -14    6.21    5.82
  -7   3 -14    0.57    3.47
 -11  -4  14    0.40    2.71
 -11  -4  14    3.86    2.62
 -11   4  14   -0.23    2.55
 -11   4  14   -0.93    3.16
 -10  -4  14    3.26    2.74
 -10  -4  14   -3.71    1.92
 -10   4  14   -3.67    2.23
 -10   4  14    2.08    3.30
  -9  -4  14    0.28    2.39
  -9  -4  14    1.41    2.17
   9  -4 -14    3.55    2.58
  -9   4  14   -1.09    2.64
  -9   4  14   -0.29    3.29
  -8  -4  14   -0.45    1.86
   8  -4 -14    0.65    2.59
  -8   4  14   -0.41    3.45
  -8   4  14   -1.59    2.20
  -7  -4  14   -2.54    1.78
   7  -4 -14    5.72    2.88
  -7   4  14    1.19    2.36
   7   4 -14   -2.09    1.98
  -6  -4  14   -1.84    1.70
   6  -4 -14    5.38    3.31
  -6   4  14    1.06    2.35
   6   4 -14   -2.60    1.91
  -6   4  14    2.03    3.16
   5  -4 -14    2.12    3.26
  -5   4  14    4.56    2.44
   5   4 -14    2.16    2.25
  -5   4  14   -1.18    3.11
   4  -4 -14    0.21    3.78
  -4  -4  14   -0.45    1.63
  -4   4  14    6.02    3.64
   4   4 -14    4.64    2.45
  -4   4  14   -3.46    2.15
  -3  -4  14   -1.36    1.51
   3  -4 -14    2.86    4.15
  -3   4  14    0.08    2.17
   3   4 -14    1.18    4.35
  -3   4  14   -3.64    2.71
   3   4 -14    3.29    2.52
   2  -4 -14    9.19    4.37
  -2  -4  14    3.48    2.00
  -2   4  14   -0.78    2.72
   2   4 -14    9.81    7.73
  -2   4  14    1.57    2.08
   2   4 -14    5.30    2.65
  -1  -4  14    6.13    2.16
   1  -4 -14    3.09    4.33
   1   4 -14    5.50    3.21
  -1   4  14    3.16    3.25
  -1   4  14    5.97    2.56
   0  -4 -14    2.01    4.49
   0  -4  14    2.32    1.76
   0  -4 -14    6.45    3.46
   0   4 -14    8.28    3.27
   0   4  14    9.57    3.67
  -1  -4 -14    3.48    3.49
   1   4  14    1.58    3.53
  -1   4 -14    5.81    3.18
  -2  -4 -14    8.15    5.05
  -2  -4 -14   -2.96    3.30
   2  -4  14    1.97    1.60
  -2   4 -14    5.31    3.36
  -2   4 -14   -5.65    4.99
  -3  -4 -14    1.78    3.92
  -3  -4 -14    3.93    5.04
   3  -4  14    0.34    1.61
  -3   4 -14    8.36    5.07
  -3   4 -14   -3.92    3.30
  -4  -4 -14    2.47    5.47
   4  -4  14    0.98    1.58
  -4  -4 -14    1.53    3.75
  -4   4 -14    6.05    3.54
  -4   4 -14    3.61    4.87
  -5  -4 -14   -0.07    4.13
  -5  -4 -14    1.01    5.14
   5  -4  14    1.78    1.67
  -5   4 -14    1.90    3.87
  -5   4 -14    4.57    5.62
  -6  -4 -14   -0.47    4.00
   6  -4  14    0.89    1.60
  -6  -4 -14   -3.53    4.56
  -6   4 -14    2.25    5.11
  -6   4 -14   -1.48    3.97
 -10  -5  14    2.41    2.25
 -10  -5  14   -0.03    2.67
 -10   5  14    0.59    2.71
 -10   5  14   -1.20    3.71
  -9  -5  14   -4.75    2.41
  -9  -5  14    0.74    2.14
  -9   5  14    1.03    3.57
  -8  -5  14   -0.41    2.23
   8  -5 -14   -1.58    2.38
  -8  -5  14   -2.52    2.53
  -8   5  14   -1.91    2.81
  -8   5  14    0.96    3.68
   7  -5 -14   -1.95    2.48
  -7  -5  14   -0.88    1.96
  -7   5  14   -0.38    2.66
   7   5 -14   -1.78    2.15
  -7   5  14   -3.59    3.21
   6  -5 -14    5.02    3.14
  -6  -5  14    3.71    2.08
  -6   5  14    5.03    2.93
  -6   5  14  -11.37    4.67
   6   5 -14   -1.16    2.29
  -5  -5  14   -0.89    1.92
   5  -5 -14    3.99    3.33
  -5   5  14    1.09    3.53
  -5   5  14    2.52    2.75
   5   5 -14    3.24    2.71
  -4  -5  14   -1.26    1.58
   4  -5 -14    0.79    3.65
   4   5 -14    2.35    2.56
  -4   5  14    2.34    3.49
  -3  -5  14   -0.23    1.85
   3  -5 -14    1.63    4.17
   3   5 -14   -4.03    2.31
  -3   5  14   -9.22    4.26
  -3   5  14   -1.73    3.17
  -2  -5  14   -0.84    1.66
   2  -5 -14    0.22    3.90
   2   5 -14   18.12    4.90
   2   5 -14    0.22    2.90
  -2   5  14    1.74    3.44
   1  -5 -14    0.04    4.46
  -1  -5  14    0.16    1.79
   1   5 -14   -4.15    3.91
  -1   5  14    1.99    3.59
   1   5 -14    3.22    3.07
   0  -5  14   -0.98    1.48
   0  -5 -14   -7.05    7.37
   0   5 -14    7.68    4.56
   0   5  14    0.64    3.73
   0   5 -14    1.25    3.30
  -1  -5 -14    0.26    4.31
  -1  -5 -14   -0.03    2.96
   1  -5  14    3.26    1.77
  -1   5 -14    3.96    3.62
   1   5  14    2.52    3.60
  -1   5 -14    5.05    4.65
   2  -5  14    2.27    1.65
  -2  -5 -14    0.52    3.33
  -2  -5 -14   -3.15    4.50
  -2   5 -14   -4.19    4.48
  -2   5 -14    1.32    5.23
  -3  -5 -14   -4.85    4.60
  -3  -5 -14    2.84    4.06
   3  -5  14    1.50    1.65
  -3   5 -14   -1.48    3.30
  -3   5 -14    2.28    4.58
   4  -5  14    1.01    1.71
  -4  -5 -14   -0.62    5.40
  -4  -5 -14    4.86    4.20
  -4   5 -14    1.41    3.75
  -4   5 -14   -2.22    4.94
  -5  -5 -14   -2.78    4.06
   5  -5  14   -2.24    1.48
  -5  -5 -14  -11.43    4.52
  -5   5 -14    5.67    6.08
  -5   5 -14    2.05    4.25
  -9  -6  14   -3.45    1.90
  -9  -6  14    0.23    2.78
  -9   6  14    0.92    4.00
  -9   6  14   -0.69    3.31
  -8  -6  14    3.45    2.29
  -8  -6  14   -2.79    2.60
   8   6 -14   -1.49    2.35
  -8   6  14    3.57    3.42
  -8   6  14    5.24    4.54
  -7  -6  14    1.10    2.25
   7   6 -14    3.34    2.72
  -7   6  14    3.51    3.35
  -7   6  14   -1.12    3.56
  -6  -6  14    1.92    2.19
   6  -6 -14    2.35    2.88
  -6   6  14   -0.58    4.20
  -6   6  14   -6.36    2.87
   6   6 -14    4.48    3.17
   5  -6 -14    2.36    3.51
  -5  -6  14    3.77    2.40
  -5   6  14    1.79    4.34
  -4  -6  14    1.02    2.03
   4  -6 -14   -4.04    3.36
  -3  -6  14    0.14    1.78
   3  -6 -14    0.77    3.70
  -3   6  14   -1.13    3.82
   2  -6 -14   -8.90    3.77
  -2  -6  14    4.59    2.19
   2   6 -14   -4.42    4.87
  -2   6  14    1.89    3.82
  -1  -6  14    0.86    1.67
   1  -6 -14   13.27    6.05
  -1   6  14    0.31    3.78
   1   6 -14   -0.62    3.29
   0  -6  14   -1.68    1.43
   0  -6 -14    2.69    4.24
   0   6 -14   -3.78    4.18
   0   6  14   -3.55    3.34
   0   6 -14    1.42    3.52
   1  -6  14    1.57    1.88
  -1  -6 -14    1.06    4.39
  -1   6 -14   -4.38    4.25
  -1   6 -14   -0.02    3.03
  -2  -6 -14   -6.34    4.43
   2  -6  14    3.07    1.81
  -2   6 -14    5.49    5.75
  -2   6 -14   -3.35    3.08
   3  -6  14   -1.45    1.67
  -3  -6 -14    0.12    5.12
  -3   6 -14   -0.09    3.25
  -3   6 -14   -2.03    5.07
  -6  -7  14    2.14    2.27
   6   7 -14    4.49    3.03
  -6   7  14    5.16    4.40
  -5  -7  14    0.23    2.31
   5  -7 -14    1.43    3.05
  -5   7  14    2.53    3.89
   5   7 -14   -0.79    2.83
  -4  -7  14   -1.08    1.75
   4  -7 -14    3.05    3.52
  -4   7  14    1.47    3.99
   4   7 -14    2.48    3.12
  -3  -7  14   -1.06    1.93
   3   7 -14   -0.20    3.26
  -3   7  14   -3.81    4.10
  -2  -7  14    0.11    1.95
   2  -7 -14   -3.59    4.03
   2   7 -14    0.41    3.22
  -2   7  14   -5.33    3.59
  -1  -7  14   -0.66    1.68
   1  -7 -14    3.28    4.52
   1   7 -14    1.64    3.78
  -1   7  14   -6.00    4.16
   0  -7  14    2.25    1.92
   0  -7 -14   -1.99    3.89
   0   7 -14    1.17    3.17
   1  -7  14    0.08    2.00
  -1   7 -14   -2.38    3.46
 -12   0  15   -0.27    2.45
 -11   0  15   -5.14    1.99
 -10   0  15    1.09    2.13
 -10   0  15   -1.90    1.90
  -9   0  15    1.73    1.87
  -9   0  15    0.23    2.00
   8   0 -15   -3.27    2.92
  -8   0  15    0.69    1.83
  -7   0  15   -1.97    1.85
   7   0 -15    3.97    3.45
   6   0 -15    2.43    3.48
  -6   0  15    4.01    2.12
   5   0 -15   -0.16    3.56
  -5   0  15    1.83    1.84
   4   0 -15    4.18    3.79
  -4   0  15   -0.25    1.72
   3   0 -15    7.20    4.16
  -3   0  15    0.96    1.68
  -2   0  15    5.03    1.96
   2   0 -15    6.35    4.66
   1   0 -15    4.05    4.49
  -1   0  15    4.07    1.65
   0   0 -15    5.66    3.46
   0   0  15    5.13    1.88
   1   0  15    0.03    1.45
  -1   0 -15    1.13    2.13
  -1   0 -15    0.58    4.36
   2   0  15    1.68    1.49
  -2   0 -15    3.17    4.54
  -2   0 -15    2.06    2.42
  -3   0 -15    0.03    2.48
   3   0  15    3.40    1.62
  -3   0 -15   -2.31    4.72
   4   0  15   -0.72    1.47
  -4   0 -15    0.86    2.71
  -4   0 -15   -1.18    5.01
  -4   0 -15    2.63    4.25
   5   0  15    0.08    1.74
  -5   0 -15    2.97    5.36
  -5   0 -15    6.11    3.41
  -5   0 -15   -2.90    4.39
  -6   0 -15   -0.90    5.28
  -6   0 -15   -1.75    5.21
   6   0  15    1.96    2.72
  -6   0 -15   -2.15    3.71
 -12  -1  15   -1.61    2.46
 -12  -1  15   -0.61    2.52
 -12   1  15   -1.35    2.10
 -12   1  15    4.73    4.03
 -11  -1  15   -0.77    1.98
 -11  -1  15    1.16    2.47
 -11   1  15   -1.20    2.25
 -10  -1  15   -2.26    2.03
 -10  -1  15   -2.10    1.84
 -10   1  15   -0.62    2.56
  -9  -1  15    2.53    2.22
  -9  -1  15    0.88    2.02
  -9   1  15    1.34    2.15
   8  -1 -15   -2.17    2.81
  -8  -1  15   -4.18    1.63
  -8   1  15    0.72    3.21
   7  -1 -15    0.95    3.31
   7   1 -15   -1.11    3.91
  -7   1  15   -1.24    1.77
  -6  -1  15    0.50    1.87
   6  -1 -15    1.45    3.80
   6   1 -15    1.26    3.26
  -6   1  15    0.58    1.85
  -5  -1  15    4.70    2.19
   5  -1 -15   -2.28    3.62
  -5   1  15    0.27    1.91
   5   1 -15   -4.12    3.15
   4  -1 -15   -5.84    2.95
  -4  -1  15   -0.94    1.61
   4   1 -15    1.80    3.88
  -4   1  15   -4.60    1.39
  -3  -1  15   -1.09    1.38
   3  -1 -15    3.28    4.22
   3   1 -15   -7.43    3.31
  -3   1  15   -2.74    1.58
  -2  -1  15   -0.10    1.51
   2  -1 -15   -4.92    3.80
   2   1 -15    0.46    1.53
   2   1 -15   -0.35    3.94
  -2   1  15   -2.14    1.55
   1  -1 -15   -5.56    3.85
  -1  -1  15    2.26    1.69
  -1   1  15   -0.84    1.30
   1   1 -15   -3.45    4.41
   1   1 -15    0.25    1.78
   0  -1  15   -1.87    1.28
   0   1  15   -1.37    1.40
   0   1 -15   -0.64    1.95
  -1  -1 -15   -3.38    4.28
   1  -1  15    2.11    1.65
   1   1  15   -1.73    1.39
  -1   1 -15    2.82    4.39
  -2  -1 -15   -0.90    4.64
  -2  -1 -15    0.60    4.31
   2  -1  15   -1.73    1.60
  -2   1 -15   -1.45    2.64
  -2   1 -15    1.61    4.84
   2   1  15    2.03    1.53
  -3  -1 -15   -0.22    3.86
  -3  -1 -15   -6.81    4.64
   3  -1  15    0.67    1.56
  -3   1 -15    3.37    5.01
  -3   1 -15   -2.94    2.59
   3   1  15    0.06    1.51
  -4  -1 -15    7.21    5.47
   4  -1  15   -0.74    1.54
  -4  -1 -15   -4.37    3.65
  -4  -1 -15   -0.37    2.76
   4   1  15    0.02    1.53
  -4   1 -15    3.68    5.03
  -4   1 -15    0.78    4.20
  -4   1 -15    4.53    3.28
  -5  -1 -15   -1.81    5.00
  -5  -1 -15    1.15    4.29
   5  -1  15    0.87    1.65
  -5  -1 -15    1.47    3.22
  -5   1 -15   -0.72    3.16
  -5   1 -15    2.13    4.73
  -5   1 -15    5.95    4.66
  -6  -1 -15    0.31    3.50
  -6  -1 -15    8.39    5.26
  -6  -1 -15    4.13    5.52
  -6   1 -15    2.11    3.28
  -6   1 -15   -5.78    4.57
  -6   1 -15    1.94    5.31
 -12  -2  15   -0.87    2.21
 -12  -2  15   -1.47    2.44
 -12   2  15    2.08    3.04
 -12   2  15    3.67    3.53
 -11  -2  15    1.12    2.21
 -11  -2  15    3.15    3.33
 -11   2  15    2.60    2.60
 -11   2  15   -2.16    3.02
 -10  -2  15    3.14    2.62
 -10  -2  15    2.29    2.43
 -10   2  15   -0.61    3.43
 -10   2  15    1.24    2.39
  -9  -2  15    0.29    2.15
   9  -2 -15    0.89    3.16
  -9  -2  15    2.02    2.46
  -9   2  15   -1.77    2.10
  -8  -2  15    1.13    2.13
   8  -2 -15    1.47    3.14
  -8   2  15    3.57    2.96
   7  -2 -15   -1.87    3.19
  -7  -2  15    2.75    2.11
  -7   2  15    3.27    2.18
   7   2 -15    0.01    3.82
   6  -2 -15   -0.08    3.17
  -6   2  15   -0.66    1.77
   5  -2 -15   -3.06    3.20
  -5  -2  15   -4.14    1.75
  -5   2  15    2.09    1.97
   5   2 -15    1.42    1.66
  -4  -2  15    1.40    1.75
   4  -2 -15    0.22    3.76
   4   2 -15    3.00    1.82
  -4   2  15   -1.69    1.77
  -3  -2  15    1.95    1.91
   3  -2 -15   -5.65    3.63
   3   2 -15   -0.06    1.82
  -3   2  15   -0.67    1.77
   2  -2 -15   -0.54    3.85
  -2  -2  15   -0.61    1.59
   2   2 -15   -1.81    1.80
  -2   2  15    1.66    1.68
   1  -2 -15    5.17    4.51
  -1  -2  15   -1.59    1.52
  -1   2  15    0.97    1.72
   1   2 -15   -4.09    7.02
   1   2 -15    3.85    3.37
   0  -2  15    0.53    1.52
   0   2 -15    0.63    2.26
   0   2  15   -2.70    1.49
   0   2 -15    4.51    4.46
  -1  -2 -15    2.64    4.94
   1  -2  15    2.03    1.61
   1   2  15   -0.49    2.57
  -1   2 -15   -5.63    4.29
  -1   2 -15    8.24    3.09
  -2  -2 -15    3.63    4.19
  -2  -2 -15   -0.35    4.78
   2  -2  15    1.96    1.86
  -2   2 -15    4.43    2.97
   2   2  15    2.91    2.76
  -2   2 -15   -3.69    4.66
  -3  -2 -15    8.93    4.34
  -3  -2 -15    2.12    5.01
   3  -2  15    1.31    1.77
  -3   2 -15    2.41    3.13
  -3   2 -15    6.35    5.16
  -4  -2 -15   -3.95    4.41
  -4  -2 -15   -1.04    4.98
  -4   2 -15    3.61    3.37
  -4   2 -15   -2.46    4.73
  -5  -2 -15   11.56    6.05
  -5  -2 -15    2.86    4.80
   5  -2  15    1.65    1.68
  -5   2 -15   12.25    5.53
  -5   2 -15   -1.62    5.04
  -6  -2 -15    7.22    5.56
  -6  -2 -15    1.56    4.72
   6  -2  15    0.77    1.69
  -6   2 -15   -4.81    4.75
  -6   2 -15   -2.95    5.54
  -6   2 -15    2.52    3.62
 -11  -3  15    1.01    2.50
 -11  -3  15    1.92    2.57
 -11   3  15    1.10    3.36
 -11   3  15    3.38    2.63
 -10  -3  15    1.61    2.51
 -10  -3  15    1.64    2.28
 -10   3  15   -0.15    3.01
 -10   3  15   -2.06    2.30
   9  -3 -15   -1.23    2.59
  -9  -3  15    4.25    2.28
  -9   3  15    3.46    3.37
  -9   3  15   -3.40    2.29
  -8  -3  15    1.88    2.25
   8  -3 -15    1.72    2.55
  -8   3  15    0.88    2.78
  -8   3  15   -0.70    3.15
   7  -3 -15    2.43    3.30
  -7  -3  15    1.35    2.06
  -7   3  15   -0.80    2.26
  -7   3  15   -1.44    2.85
  -6  -3  15    1.22    1.97
   6  -3 -15    0.13    3.00
   6   3 -15    7.31    3.99
   6   3 -15    1.00    1.89
  -6   3  15   -3.27    4.64
  -6   3  15   -0.98    2.19
   5  -3 -15   -4.49    2.93
  -5  -3  15    0.26    1.81
   5   3 -15    0.97    1.98
  -5   3  15    1.60    2.20
   5   3 -15   -2.10    3.39
   4  -3 -15    0.44    3.53
   4   3 -15    6.42    4.05
  -4   3  15   -1.08    1.96
   4   3 -15   -0.24    1.78
   3  -3 -15   -0.96    3.75
   3   3 -15    7.57    4.14
   3   3 -15    2.51    2.19
  -3   3  15   -2.79    1.77
   2  -3 -15    1.00    3.88
  -2  -3  15    3.15    2.03
   2   3 -15   -1.55    2.17
   2   3 -15   -0.85    3.72
  -2   3  15   -0.14    1.86
  -1  -3  15   -3.47    2.47
   1   3 -15    4.35    4.42
   1   3 -15    1.44    2.33
  -1   3  15    0.01    3.15
   0  -3 -15   -5.34    4.07
   0   3 -15    4.72    4.63
   0   3  15    3.20    2.08
   0   3 -15   -3.88    2.38
  -1  -3 -15    3.20    3.51
  -1  -3 -15   -8.99    4.22
   1  -3  15   -3.30    2.37
  -1   3 -15    2.82    4.51
  -1   3 -15   -1.14    2.69
  -2  -3 -15    2.82    3.77
   2  -3  15    1.65    1.67
  -2  -3 -15   -2.64    4.62
  -2   3 -15   -2.94    4.95
  -2   3 -15    3.67    3.24
   3  -3  15   -0.38    1.44
  -3  -3 -15    2.21    5.14
  -3  -3 -15    0.37    3.73
  -3   3 -15   -2.54    4.38
  -3   3 -15   -0.90    2.95
  -4  -3 -15    0.22    4.42
   4  -3  15    1.78    1.64
  -4  -3 -15    3.99    5.29
  -4   3 -15   -1.54    5.00
  -4   3 -15   -2.36    4.95
  -5  -3 -15    1.19    5.46
  -5  -3 -15   -1.80    4.56
   5  -3  15    2.38    1.83
  -5   3 -15    5.12    5.95
  -5   3 -15   -0.66    3.73
 -10  -4  15   -0.26    2.14
 -10  -4  15    2.01    2.56
 -10   4  15   -0.16    2.46
 -10   4  15    1.60    3.38
   9  -4 -15   -1.76    2.32
  -9  -4  15   -2.31    2.77
  -9  -4  15    3.65    2.58
  -9   4  15   -2.74    3.17
  -9   4  15    0.08    2.38
   8  -4 -15    3.20    2.71
  -8  -4  15   -3.13    1.93
  -8   4  15    0.48    3.61
  -8   4  15   -0.73    3.81
  -7  -4  15    1.72    2.18
   7  -4 -15   -1.35    2.99
  -7   4  15    2.07    3.49
  -7   4  15   -0.41    2.57
   7   4 -15    0.67    1.91
   6  -4 -15    0.23    2.89
  -6  -4  15   -0.83    2.12
  -6   4  15    5.15    3.39
   6   4 -15    4.92    2.37
  -6   4  15    6.78    2.96
  -5  -4  15    6.25    2.31
   5  -4 -15   -0.86    3.79
   5   4 -15    4.17    2.41
  -5   4  15    5.64    2.49
  -5   4  15    1.52    5.09
   4  -4 -15    2.36    4.13
  -4  -4  15    1.04    2.04
   4   4 -15   -0.70    4.03
  -4   4  15   -1.72    3.58
   4   4 -15    0.31    2.08
  -4   4  15    4.77    2.56
  -3  -4  15    3.96    2.05
   3  -4 -15    6.89    4.32
  -3   4  15    0.74    3.63
  -3   4  15    0.10    2.25
   3   4 -15   -0.06    3.83
   3   4 -15    2.35    2.62
  -2  -4  15    2.79    1.93
  -2   4  15    7.06    3.72
   2   4 -15    0.73    2.59
   2   4 -15    0.59    4.15
   1  -4 -15    0.17    4.22
  -1  -4  15    1.15    1.85
   1   4 -15    5.41    3.12
   1   4 -15   -0.49    4.11
  -1   4  15   -1.11    3.46
   0  -4 -15    4.78    5.22
   0  -4  15   -0.73    1.50
   0   4 -15   -0.51    4.33
   0   4 -15   -1.46    2.87
   0   4  15   -0.17    3.20
   1  -4  15   -1.17    1.46
  -1  -4 -15    2.79    5.23
  -1  -4 -15    0.42    3.31
   1   4  15   -3.45    3.45
  -1   4 -15    2.33    3.22
  -1   4 -15   -6.20    4.31
   2  -4  15   -0.59    1.43
  -2  -4 -15   -2.81    3.37
  -2  -4 -15    0.79    5.57
  -2   4 -15    5.24    4.84
  -3  -4 -15    4.24    5.22
  -3  -4 -15    4.50    4.06
   3  -4  15    0.05    1.54
  -3   4 -15    1.81    3.52
  -3   4 -15    3.66    4.90
  -4  -4 -15    0.07    3.85
   4  -4  15    0.36    1.62
  -4  -4 -15   -0.83    5.28
  -4   4 -15    0.16    3.48
  -4   4 -15    0.17    4.80
  -9  -5  15   -1.01    2.05
  -9  -5  15    0.28    2.80
  -9   5  15   -1.56    2.86
  -9   5  15    1.47    3.83
  -8  -5  15   -1.12    2.49
   8  -5 -15   -0.90    2.80
  -8  -5  15   -2.24    2.09
  -8   5  15   -1.22    4.52
  -8   5  15    6.40    4.38
   7  -5 -15   -1.61    2.91
  -7  -5  15    4.20    2.51
  -7   5  15    1.75    3.01
   7   5 -15    4.93    2.47
  -7   5  15    1.77    3.63
   6  -5 -15   -1.79    3.05
  -6  -5  15   -1.64    2.02
   6   5 -15    2.79    2.22
  -6   5  15   -1.68    3.79
  -6   5  15   -2.15    2.81
  -5  -5  15   -2.97    1.95
   5  -5 -15    0.49    3.19
   5   5 -15   -1.03    2.35
  -5   5  15   -6.32    2.70
  -5   5  15    4.28    4.06
   4  -5 -15    1.82    3.81
  -4  -5  15   -0.58    2.11
   4   5 -15    3.69    2.41
  -4   5  15    1.12    5.59
  -3  -5  15    4.85    2.27
   3   5 -15    2.62    2.79
  -3   5  15   -7.23    3.65
  -2  -5  15    1.66    1.84
   2  -5 -15    4.11    4.53
  -2   5  15   -3.20    3.72
   2   5 -15    2.33    4.27
   2   5 -15   -6.04    2.68
   1  -5 -15   -0.12    4.03
  -1  -5  15   -1.02    1.66
   1   5 -15    0.88    4.42
  -1   5  15   -1.51    3.63
   1   5 -15    0.66    4.31
   0  -5  15    0.19    1.64
   0  -5 -15   -1.11    4.88
   0   5 -15   -0.15    3.86
   0   5  15   -7.44    3.72
   0   5 -15    0.96    4.43
   1  -5  15   -0.26    1.58
  -1  -5 -15   -0.58    5.35
  -1   5 -15   -1.95    3.15
  -1   5 -15   -2.04    5.19
   2  -5  15   -0.12    1.67
  -2  -5 -15   -5.35    5.08
  -2   5 -15   -6.79    3.10
  -2   5 -15   -1.21    4.51
   3  -5  15   -1.07    1.49
  -3  -5 -15    2.11    3.92
  -3  -5 -15    0.17    4.98
  -3   5 -15   -7.91    3.16
  -3   5 -15    1.58    4.72
  -6  -6  15    1.79    2.24
   6  -6 -15    1.24    3.23
  -6   6  15    1.12    4.27
   6   6 -15    0.80    2.58
  -5  -6  15    0.60    2.41
  -5   6  15   -2.47    4.04
   5   6 -15    0.83    2.68
   4  -6 -15   -2.92    3.49
  -4  -6  15   -3.09    1.99
  -4   6  15   -1.38    3.97
   4   6 -15   -2.69    2.81
   3  -6 -15   -0.83    4.08
  -3  -6  15   -0.63    1.77
  -3   6  15    8.90    4.67
   3   6 -15    1.92    2.90
   2  -6 -15    2.13    4.33
  -2  -6  15    1.09    2.00
  -2   6  15    7.92    6.80
   2   6 -15    3.87    2.72
   1  -6 -15    2.14    4.32
  -1  -6  15    0.00    1.87
  -1   6  15   11.44    4.82
   1   6 -15   -1.36    3.12
   0  -6 -15   -4.13    4.14
   0  -6  15    0.74    1.69
   0   6 -15   -6.00    3.17
   0   6 -15    3.48    4.81
 -11   0  16    0.70    2.44
  -9   0  16   -1.73    1.90
  -8   0  16    2.93    2.09
  -8   0  16   -2.53    1.88
   8   0 -16    3.47    3.49
  -7   0  16    3.38    2.16
   7   0 -16    0.52    3.51
  -6   0  16    2.51    2.62
   6   0 -16    6.17    4.09
  -5   0  16    3.81    2.62
   5   0 -16    4.12    4.51
   4   0 -16   -2.75    3.87
  -4   0  16    4.67    2.08
   3   0 -16   -2.70    3.84
  -3   0  16    1.65    2.06
   2   0 -16   -0.39    4.24
  -2   0  16    0.40    1.89
  -1   0  16    0.75    1.57
   1   0 -16    5.21    4.59
   0   0  16   -0.82    1.50
   0   0 -16    5.41    4.67
   1   0  16    1.01    1.65
  -1   0 -16    0.97    4.46
  -2   0 -16    2.54    4.62
   2   0  16   -1.56    1.56
   3   0  16   -0.95    1.59
  -3   0 -16    7.12    5.40
  -4   0 -16    1.37    5.78
   4   0  16   -0.46    1.73
  -4   0 -16   -2.73    3.93
 -10  -1  16   -0.01    2.18
 -10  -1  16   -1.93    2.27
 -10   1  16   -0.21    2.18
  -9  -1  16    0.76    2.33
  -9  -1  16    2.98    2.50
  -9   1  16    0.94    2.63
   8  -1 -16   -1.12    3.06
  -8  -1  16    0.40    2.10
  -8   1  16   -1.29    1.96
  -7  -1  16   -3.23    1.80
   7  -1 -16   -2.26    2.94
   7   1 -16   -4.45    3.08
  -7   1  16    0.43    1.91
   6  -1 -16   -3.18    3.25
  -6  -1  16    0.96    2.02
   6   1 -16   -1.31    3.43
  -6   1  16   -4.60    2.61
   5  -1 -16    4.59    4.11
  -5  -1  16   -0.08    2.07
   5   1 -16    3.98    4.00
  -5   1  16   -1.71    1.78
   4  -1 -16    0.29    3.71
   4   1 -16    5.59    4.32
  -4   1  16   -1.20    1.75
  -3  -1  16    0.20    1.76
   3  -1 -16    8.32    4.47
   3   1 -16    0.49    4.05
  -3   1  16    1.50    1.93
  -2  -1  16   -0.42    1.61
   2  -1 -16    2.76    4.54
   2   1 -16   -1.54    4.12
  -2   1  16    0.19    1.69
   1  -1 -16   -0.82    4.58
  -1  -1  16    0.85    1.79
   1   1 -16    2.82    4.23
  -1   1  16    0.78    1.62
   0  -1  16    0.27    1.76
   0  -1 -16   -2.87    4.46
   0   1 -16   -6.97    4.11
   0   1  16   -2.66    1.63
   1  -1  16   -0.98    1.58
  -1  -1 -16   -2.73    4.60
   1   1  16    1.93    1.71
  -1   1 -16    2.27    4.61
  -1   1 -16   -3.92    3.95
   2  -1  16    1.02    1.47
  -2  -1 -16  -10.46    4.36
  -2   1 -16   -1.43    4.46
  -2   1 -16   -4.30    2.59
   2   1  16    2.18    1.74
  -3  -1 -16    0.18    4.43
  -3  -1 -16    4.65    5.44
  -3   1 -16   -2.87    4.87
  -3   1 -16   -0.99    2.54
  -4  -1 -16   -2.00    5.09
  -4  -1 -16    0.97    4.77
   4  -1  16   -4.46    1.73
  -4   1 -16    6.15    5.82
  -4   1 -16   -3.25    3.03
 -10  -2  16    2.15    2.55
 -10  -2  16   -1.99    2.23
 -10   2  16    3.06    3.51
 -10   2  16    0.55    2.52
  -9  -2  16    1.84    2.83
   9  -2 -16    0.86    3.39
  -9   2  16    2.07    2.43
  -9   2  16   -2.01    2.98
  -8  -2  16   -0.38    2.21
   8  -2 -16    0.82    3.44
  -8   2  16    3.79    2.40
  -7  -2  16    0.31    1.97
   7  -2 -16   -0.11    3.37
   7   2 -16    0.02    3.60
   6  -2 -16    0.73    5.90
  -6  -2  16   -1.91    1.92
  -6   2  16   -0.41    2.20
   6   2 -16   -4.26    3.37
   5  -2 -16    2.17    3.48
  -5  -2  16    0.36    1.97
   5   2 -16   -6.79    3.38
  -5   2  16   -1.00    1.95
   4  -2 -16   -0.41    3.64
  -4  -2  16   -2.67    1.53
   4   2 -16   -2.62    3.45
  -4   2  16    3.65    1.88
   3  -2 -16    1.09    4.03
  -3  -2  16    1.42    2.00
  -3   2  16    0.79    1.73
   3   2 -16   -5.12    3.94
   2  -2 -16    3.56    4.25
  -2  -2  16    1.12    1.85
   2   2 -16   -0.80    4.19
  -2   2  16    8.10    2.15
  -1  -2  16    4.12    1.94
   1  -2 -16    0.33    4.97
  -1   2  16    1.16    1.92
   1   2 -16    0.71    2.30
   1   2 -16   -0.95    4.12
   0  -2 -16    4.85    5.12
   0  -2  16    4.81    2.11
   0   2 -16   -6.45    3.98
   0   2 -16    4.08    2.42
   0   2  16    5.74    2.04
  -1  -2 -16   -3.40    4.72
   1  -2  16    1.98    1.88
  -1   2 -16    2.65    2.81
  -1   2 -16   -3.51    4.35
   2  -2  16    1.47    1.78
  -2  -2 -16    3.54    5.68
  -2   2 -16   -0.09    2.86
  -2   2 -16    2.10    5.07
   3  -2  16   -1.20    1.51
  -3  -2 -16    1.20    4.36
  -3  -2 -16   -1.34    4.98
  -3   2 -16   -0.15    5.02
  -3   2 -16   -0.60    2.76
  -4  -2 -16    2.78    4.70
   4  -2  16   -0.43    1.73
  -4  -2 -16   -1.71    5.18
  -4   2 -16    1.34    4.86
  -4   2 -16   -5.11    4.22
  -9  -3  16   -0.24    2.86
  -9  -3  16    2.94    2.49
  -9   3  16    0.80    3.41
  -9   3  16   -1.23    2.33
  -8  -3  16   -0.98    2.36
  -8   3  16   -1.65    2.31
  -8   3  16   -0.81    3.30
  -7  -3  16    4.58    2.50
  -7   3  16   -1.07    2.88
  -6  -3  16    3.95    2.21
  -6   3  16    1.56    2.36
  -6   3  16    1.04    3.13
   5  -3 -16    4.21    3.97
  -5  -3  16    0.28    1.98
   5   3 -16   -1.99    3.17
  -5   3  16   -4.86    1.98
  -5   3  16   -3.01    2.66
   5   3 -16    1.85    4.17
  -4  -3  16   -0.27    1.85
   4  -3 -16    2.94    3.82
   4   3 -16   -0.49    2.16
  -4   3  16   -1.59    2.19
   4   3 -16    1.82    3.83
  -3  -3  16    0.58    1.96
   3  -3 -16    0.12    4.06
   3   3 -16   -1.66    2.16
   3   3 -16    1.01    4.03
  -3   3  16    6.26    2.36
  -2  -3  16   -0.34    1.93
   2  -3 -16    6.79    5.02
   2   3 -16    7.23    4.38
  -2   3  16   -0.46    2.00
   2   3 -16    1.57    2.38
   1  -3 -16   -2.97    4.18
  -1  -3  16   -0.46    1.66
   1   3 -16   -1.46    4.36
   1   3 -16    1.36    2.36
   0  -3 -16    0.37    4.56
   0  -3  16    1.01    1.65
   0   3 -16   -5.38    4.20
   0   3 -16    1.92    2.78
   1  -3  16   -0.03    1.59
  -1  -3 -16    5.03    5.05
  -1   3 -16   -3.33    4.62
  -1   3 -16   -5.96    2.60
  -2  -3 -16   -1.59    4.96
  -2  -3 -16   -8.09    6.10
   2  -3  16   -1.18    1.54
  -2   3 -16   -1.67    2.99
  -2   3 -16   -6.43    4.21
   3  -3  16    2.30    1.71
  -3  -3 -16   -2.28    3.45
  -3  -3 -16   -5.85    4.77
  -3   3 -16    4.04    5.63
  -3   3 -16    5.47    3.35
  -8  -4  16   -0.98    2.17
  -8   4  16   -5.12    2.37
  -8   4  16    0.59    3.86
   7  -4 -16    5.18    3.96
  -7  -4  16   -0.49    2.32
  -7   4  16   -1.87    3.23
  -6  -4  16   -0.17    2.30
   6  -4 -16    3.21    3.77
  -6   4  16    0.62    3.47
  -6   4  16   -3.75    2.56
   6   4 -16    0.54    1.93
  -5  -4  16    2.30    2.18
   5  -4 -16   -0.28    3.92
  -5   4  16   -1.67    3.24
   5   4 -16    1.09    2.24
  -5   4  16    3.25    2.99
   4  -4 -16   -0.34    4.13
  -4  -4  16    1.88    2.05
   4   4 -16    0.39    2.45
  -4   4  16   -1.30    3.34
  -4   4  16    6.59    2.81
   4   4 -16   -2.63    3.87
  -3  -4  16   -1.14    1.77
   3  -4 -16    6.73    4.31
   3   4 -16   -5.98    3.96
  -3   4  16   -1.48    3.72
   3   4 -16    4.58    2.62
   2  -4 -16    2.25    4.59
  -2  -4  16   -1.25    1.91
   2   4 -16    7.47    4.78
   2   4 -16   -0.86    2.65
  -1  -4  16   -0.74    1.74
   1  -4 -16    4.58    4.72
   1   4 -16    6.54    4.85
   1   4 -16    1.53    2.81
  -1   4  16   -1.54    3.43
   0  -4  16    0.30    1.87
   0  -4 -16    9.66    4.95
   0   4  16   -4.68    3.28
   0   4 -16    5.87    4.75
   0   4 -16   -5.83    3.11
  -1  -4 -16   -4.13    4.51
   1  -4  16   -0.76    1.59
  -1   4 -16    0.80    3.17
  -1   4 -16   -6.71    4.93
  -2  -4 -16    2.50    3.95
   2  -4  16   -0.24    1.54
  -2   4 -16    2.35    3.25
  -2   4 -16   -0.35    4.59
  -6  -5  16    0.20    2.43
   6   5 -16   -0.68    2.69
  -6   5  16   -0.85    4.38
   5  -5 -16    0.33    3.46
  -5  -5  16    1.15    2.21
   5   5 -16   -3.14    3.49
  -5   5  16   -5.75    3.93
  -4  -5  16   -2.00    2.21
   4  -5 -16    0.69    3.73
   4   5 -16   -2.63    4.01
  -4   5  16   -2.43    3.80
  -3  -5  16    0.04    1.98
   3  -5 -16    5.34    4.18
  -3   5  16   -4.31    3.62
   3   5 -16    4.76    2.92
  -2  -5  16    1.01    1.73
   2  -5 -16  -10.44    3.89
   2   5 -16   -0.14    4.19
  -2   5  16   -1.15    3.98
   2   5 -16    1.58    3.04
   1  -5 -16    1.03    4.37
  -1  -5  16   -0.01    1.87
   1   5 -16   -2.62    4.25
   1   5 -16   -4.02    2.88
  -8   0  17    2.42    2.32
   8   0 -17    1.42    4.08
  -7   0  17    2.62    2.18
   7   0 -17    8.44    4.45
   6   0 -17   -1.73    3.53
  -6   0  17    1.21    2.39
   5   0 -17    6.92    4.14
  -5   0  17    0.82    2.04
  -4   0  17   -1.20    1.68
   4   0 -17    0.32    3.84
   3   0 -17    0.58    4.31
  -3   0  17   -0.81    2.07
   2   0 -17    2.07    4.34
   1   0 -17    8.20    4.56
   0   0 -17   -6.11    4.25
  -1   0 -17   -2.31    4.30
  -2   0 -17    4.38    4.86
  -8  -1  17   -0.67    2.39
   8  -1 -17   -3.59    3.52
  -8   1  17   -1.75    2.44
  -7  -1  17   -0.59    2.15
   7  -1 -17    5.12    4.09
   7   1 -17   -2.45    3.60
  -7   1  17   -1.01    2.06
   6  -1 -17   -2.36    3.81
  -6  -1  17    0.51    2.21
   6   1 -17    1.18    3.92
  -6   1  17   -2.53    1.75
   5  -1 -17   -0.88    3.63
  -5  -1  17   -3.54    1.73
  -5   1  17   -1.27    2.03
   5   1 -17   -2.86    3.51
   4  -1 -17   -2.81    3.83
  -4  -1  17    0.62    2.27
   4   1 -17    1.82    4.16
   3  -1 -17    0.21    4.02
  -3  -1  17    2.31    2.19
  -3   1  17   -5.15    1.86
   3   1 -17   -2.09    4.26
  -2  -1  17   -0.97    1.75
   2  -1 -17    5.63    4.61
  -2   1  17    1.12    1.97
   2   1 -17    2.50    4.36
   1  -1 -17    4.17    4.79
  -1  -1  17    0.75    1.72
   1   1 -17   -1.12    4.94
  -1   1  17    1.15    1.90
   0  -1 -17    6.91    4.99
   0  -1  17    0.26    1.80
   0   1  17    4.56    2.01
   0   1 -17    1.13    5.26
  -1  -1 -17   -0.65    4.69
   1  -1  17    0.37    1.82
  -1   1 -17   -5.47    4.18
   1   1  17   -1.60    1.98
  -8  -2  17   -2.49    2.31
  -8   2  17   -1.18    2.34
  -7  -2  17    1.47    2.19
  -7   2  17    0.34    2.09
   6  -2 -17    0.99    4.00
  -6  -2  17   -0.01    2.25
  -6   2  17   -2.17    1.80
   6   2 -17   -4.12    3.73
  -5  -2  17   -0.11    2.06
   5  -2 -17    0.12    4.14
  -5   2  17   -0.69    3.15
   5   2 -17   -0.52    4.52
   4  -2 -17   -1.03    3.60
  -4  -2  17   -3.25    1.74
  -4   2  17   -1.44    1.78
   4   2 -17   -1.13    3.91
  -3  -2  17   -2.05    1.98
   3  -2 -17    1.10    4.20
  -3   2  17    2.57    2.03
   3   2 -17    4.86    4.14
   2  -2 -17   -1.18    4.31
  -2  -2  17    1.47    1.86
   2   2 -17   -0.76    5.08
  -2   2  17    0.15    1.99
  -1  -2  17    0.02    1.89
   1  -2 -17    4.21    4.61
   1   2 -17    3.42    4.89
  -1   2  17    7.42    2.34
   0  -2  17    0.11    1.77
   0  -2 -17    0.38    5.17
   0   2 -17    2.74    5.42
   1  -2  17   -1.57    1.59
  -1  -2 -17    0.29    4.67
  -1   2 -17   -0.37    4.55
  -6  -3  17    0.77    2.28
   6  -3 -17    5.74    4.02
  -6   3  17    0.17    3.05
  -6   3  17    0.15    2.35
   5  -3 -17   -0.23    3.73
  -5  -3  17    0.57    2.09
   5   3 -17    3.86    4.52
  -5   3  17    2.21    3.50
   4  -3 -17   -3.04    4.16
  -4  -3  17   -0.33    1.92
   4   3 -17   -0.54    4.26
  -4   3  17    6.30    2.68
  -4   3  17   -2.54    2.78
   3  -3 -17   -2.07    3.66
  -3  -3  17    0.83    1.94
  -3   3  17    0.71    4.12
   3   3 -17    0.24    4.37
   2  -3 -17    0.56    4.07
  -2  -3  17   -0.83    1.83
   2   3 -17   -3.82    4.52
  -1  -3  17   -1.32    1.96
   1  -3 -17   -5.78    4.60
   1   3 -17   -6.59    4.63
   0   3 -17    4.49    4.51
   0   0   0    0.00    0.00
;
_shelx_hkl_checksum              94272
loop_
_space_group_symop_operation_xyz
'x, y, z'
'-x, y+1/2, -z'
'-x, -y, -z'
'x, -y-1/2, z'
loop_
_atom_site_type_symbol
_atom_site_label
_atom_site_fract_x
_atom_site_fract_y
_atom_site_fract_z
_atom_site_U_iso_or_equiv
_atom_site_adp_type
_atom_site_calc_flag
_atom_site_refinement_flags_adp
_atom_site_refinement_flags_occupancy
_atom_site_refinement_flags_posn
_atom_site_occupancy
_atom_site_disorder_assembly
_atom_site_disorder_group
C C1 0.9306(15) 0.121(2) 0.3058(16) 0.106(5) Uani d U P DG 0.5 A -1
H H1 0.900481 0.015886 0.279454 0.127 Uiso calc U P R 0.5 A -1
C C2 1.0494(14) 0.142(2) 0.3400(18) 0.112(5) Uani d U P G 0.5 A -1
H H2 1.098781 0.050623 0.336642 0.134 Uiso calc U P R 0.5 A -1
C C3 1.0945(11) 0.299(3) 0.3793(17) 0.114(5) Uani d U P G 0.5 A -1
H H3 1.174017 0.312615 0.402271 0.137 Uiso calc U P R 0.5 A -1
C C4 1.0208(16) 0.435(2) 0.3844(18) 0.113(5) Uani d U P G 0.5 A -1
H H4 1.050952 0.539872 0.410714 0.135 Uiso calc U P R 0.5 A -1
C C5 0.9020(15) 0.414(3) 0.3501(17) 0.106(5) Uani d U P DG 0.5 A -1
H H5 0.852652 0.505139 0.353527 0.127 Uiso calc U P R 0.5 A -1
C C6 0.8569(10) 0.257(3) 0.3108(14) 0.097(4) Uani d U P G 0.5 A -1
C C7 0.7285(14) 0.241(5) 0.2689(14) 0.101(4) Uani d U P D 0.5 A -1
H H7A 0.702395 0.139712 0.302816 0.121 Uiso calc U P R 0.5 A -1
H H7B 0.691354 0.337362 0.297621 0.121 Uiso calc U P R 0.5 A -1
N N1 0.6881(13) 0.232(3) 0.1407(11) 0.109(4) Uani d U P G 0.5 A -1
C C8 0.6502(19) 0.077(3) 0.0916(15) 0.117(5) Uani d U P DG 0.5 A -1
H H8 0.648311 -0.017651 0.138476 0.14 Uiso calc U P R 0.5 A -1
C C9 0.615(2) 0.063(3) -0.0275(16) 0.122(6) Uani d U P G 0.5 A -1
H H9 0.589609 -0.041215 -0.060365 0.146 Uiso calc U P R 0.5 A -1
C C10 0.6177(17) 0.204(3) -0.0975(11) 0.125(6) Uani d U P G 0.5 A -1
H H10 0.594199 0.194371 -0.177237 0.149 Uiso calc U P R 0.5 A -1
C C11 0.656(2) 0.359(2) -0.0484(15) 0.121(6) Uani d U P G 0.5 A -1
H H11 0.657493 0.453523 -0.095269 0.145 Uiso calc U P R 0.5 A -1
C C12 0.6908(18) 0.373(2) 0.0707(16) 0.114(5) Uani d U P DG 0.5 A -1
H H12 0.716196 0.47709 0.103572 0.137 Uiso calc U P R 0.5 A -1
I I1 0.41616(10) 0.25 0.28567(9) 0.0662(3) Uani d T P S 1 . .
I I2 0.28563(9) 0.75 0.41591(10) 0.0662(3) Uani d T P S 1 . .
I I3 0.35959(10) 0.25 0.64047(10) 0.0659(3) Uani d T P S 1 . .
Pb Pb1 0.5 0.5 0.5 0.0512(2) Uani d . P S 1 . .
loop_
_atom_site_aniso_label
_atom_site_aniso_U_11
_atom_site_aniso_U_22
_atom_site_aniso_U_33
_atom_site_aniso_U_12
_atom_site_aniso_U_13
_atom_site_aniso_U_23
C1 0.101(8) 0.104(8) 0.113(9) 0.006(8) 0.025(8) 0.014(8)
C2 0.106(8) 0.105(9) 0.123(9) 0.010(8) 0.017(8) 0.014(8)
C3 0.107(8) 0.107(10) 0.124(9) 0.011(8) 0.011(8) 0.004(8)
C4 0.104(9) 0.111(9) 0.121(9) 0.005(8) 0.019(8) 0.001(8)
C5 0.098(8) 0.109(8) 0.113(9) 0.005(8) 0.027(8) 0.004(8)
C6 0.090(6) 0.107(7) 0.100(7) 0.003(7) 0.032(6) 0.010(8)
C7 0.095(7) 0.113(8) 0.098(7) 0.002(8) 0.027(7) 0.012(8)
N1 0.111(7) 0.114(8) 0.103(7) 0.004(8) 0.025(6) 0.012(7)
C8 0.125(9) 0.116(9) 0.109(8) -0.001(8) 0.021(8) 0.009(8)
C9 0.132(9) 0.119(9) 0.112(9) 0.000(9) 0.019(8) 0.008(8)
C10 0.135(9) 0.115(10) 0.117(9) 0.004(9) 0.009(8) 0.015(8)
C11 0.132(9) 0.109(9) 0.115(8) 0.013(8) 0.011(8) 0.017(8)
C12 0.124(9) 0.107(9) 0.110(8) 0.012(8) 0.020(8) 0.018(8)
I1 0.0859(8) 0.0496(5) 0.0576(6) 0 0.0003(5) 0
I2 0.0601(6) 0.0496(5) 0.0836(8) 0 0.0008(5) 0
I3 0.0765(7) 0.0518(5) 0.0749(7) 0 0.0286(6) 0
Pb1 0.0623(4) 0.0287(2) 0.0618(4) -0.0002(2) 0.0108(3) 0.0004(2)
loop_
_atom_type_symbol
_atom_type_description
_atom_type_scat_dispersion_real
_atom_type_scat_dispersion_imag
_atom_type_scat_source
C C 0.0033 0.0016 'International Tables Vol C Tables 4.2.6.8 and 6.1.1.4'
H H 0.0000 0.0000 'International Tables Vol C Tables 4.2.6.8 and 6.1.1.4'
I I -0.4742 1.8119 'International Tables Vol C Tables 4.2.6.8 and 6.1.1.4'
N N 0.0061 0.0033 'International Tables Vol C Tables 4.2.6.8 and 6.1.1.4'
Pb Pb -3.3944 10.1111 'International Tables Vol C Tables 4.2.6.8 and 6.1.1.4'
loop_
_geom_angle_atom_site_label_1
_geom_angle_atom_site_label_2
_geom_angle_atom_site_label_3
_geom_angle_site_symmetry_1
_geom_angle_site_symmetry_3
_geom_angle
_geom_angle_publ_flag
C2 C1 C6 . . 120.0 ?
C2 C1 H1 . . 120.0 ?
C6 C1 H1 . . 120.0 ?
C3 C2 C1 . . 120.0 ?
C3 C2 H2 . . 120.0 ?
C1 C2 H2 . . 120.0 ?
C2 C3 C4 . . 120.0 ?
C2 C3 H3 . . 120.0 ?
C4 C3 H3 . . 120.0 ?
C5 C4 C3 . . 120.0 ?
C5 C4 H4 . . 120.0 ?
C3 C4 H4 . . 120.0 ?
C4 C5 C6 . . 120.0 ?
C4 C5 H5 . . 120.0 ?
C6 C5 H5 . . 120.0 ?
C5 C6 C1 . . 120.0 ?
C5 C6 C7 . . 118.6(8) ?
C1 C6 C7 . . 121.3(8) ?
N1 C7 C6 . . 115.9(15) ?
N1 C7 H7A . . 108.3 ?
C6 C7 H7A . . 108.3 ?
N1 C7 H7B . . 108.3 ?
C6 C7 H7B . . 108.3 ?
H7A C7 H7B . . 107.4 ?
C8 N1 C12 . . 120.0 ?
C8 N1 C7 . . 118.4(8) ?
C12 N1 C7 . . 121.5(8) ?
N1 C8 C9 . . 120.0 ?
N1 C8 H8 . . 120.0 ?
C9 C8 H8 . . 120.0 ?
C8 C9 C10 . . 120.0 ?
C8 C9 H9 . . 120.0 ?
C10 C9 H9 . . 120.0 ?
C11 C10 C9 . . 120.0 ?
C11 C10 H10 . . 120.0 ?
C9 C10 H10 . . 120.0 ?
C10 C11 C12 . . 120.0 ?
C10 C11 H11 . . 120.0 ?
C12 C11 H11 . . 120.0 ?
C11 C12 N1 . . 120.0 ?
C11 C12 H12 . . 120.0 ?
N1 C12 H12 . . 120.0 ?
Pb1 I1 Pb1 . 2_646 75.86(2) ?
Pb1 I2 Pb1 2_656 . 75.86(2) ?
Pb1 I3 Pb1 2_646 . 75.12(2) ?
I1 Pb1 I1 . 3_666 180.0 ?
I1 Pb1 I2 . . 91.78(2) ?
I1 Pb1 I2 3_666 . 88.22(2) ?
I1 Pb1 I2 . 3_666 88.22(2) ?
I1 Pb1 I2 3_666 3_666 91.78(2) ?
I2 Pb1 I2 . 3_666 180.0 ?
I1 Pb1 I3 . 3_666 94.59(3) ?
I1 Pb1 I3 3_666 3_666 85.41(3) ?
I2 Pb1 I3 . 3_666 85.35(3) ?
I2 Pb1 I3 3_666 3_666 94.65(2) ?
I1 Pb1 I3 . . 85.41(3) ?
I1 Pb1 I3 3_666 . 94.59(3) ?
I2 Pb1 I3 . . 94.65(3) ?
I2 Pb1 I3 3_666 . 85.35(2) ?
I3 Pb1 I3 3_666 . 180.0 ?
loop_
_geom_bond_atom_site_label_1
_geom_bond_atom_site_label_2
_geom_bond_site_symmetry_2
_geom_bond_distance
_geom_bond_publ_flag
C1 C2 . 1.39 ?
C1 C6 . 1.39 ?
C1 H1 . 0.93 ?
C2 C3 . 1.39 ?
C2 H2 . 0.93 ?
C3 C4 . 1.39 ?
C3 H3 . 0.93 ?
C4 C5 . 1.39 ?
C4 H4 . 0.93 ?
C5 C6 . 1.39 ?
C5 H5 . 0.93 ?
C6 C7 . 1.504(15) ?
C7 N1 . 1.496(15) ?
C7 H7A . 0.97 ?
C7 H7B . 0.97 ?
N1 C8 . 1.39 ?
N1 C12 . 1.39 ?
C8 C9 . 1.39 ?
C8 H8 . 0.93 ?
C9 C10 . 1.39 ?
C9 H9 . 0.93 ?
C10 C11 . 1.39 ?
C10 H10 . 0.93 ?
C11 C12 . 1.39 ?
C11 H11 . 0.93 ?
C12 H12 . 0.93 ?
I1 Pb1 . 3.2058(8) ?
I1 Pb1 2_646 3.2058(8) ?
I2 Pb1 2_656 3.2059(9) ?
I2 Pb1 . 3.2059(9) ?
I3 Pb1 2_646 3.2326(8) ?
I3 Pb1 . 3.2326(8) ?
