#------------------------------------------------------------------------------
#$Date: 2019-10-29 23:38:58 +0200 (Tue, 29 Oct 2019) $
#$Revision: 220464 $
#$URL: file:///home/coder/svn-repositories/cod/cif/4/00/30/4003045.cif $
#------------------------------------------------------------------------------
#
# This file is available in the Crystallography Open Database (COD),
# http://www.crystallography.net/
#
# All data on this site have been placed in the public domain by the
# contributors.
#
data_4003045
loop_
_publ_author_name
'Ayoub, Ghada'
'Karadeniz, Bahar'
'Howarth, Ashlee J.'
'Farha, Omar K.'
'\/Dilovi\'c, Ivica'
'Germann, Luzia S.'
'Dinnebier, Robert E.'
'U\<zarevi\'c, Krunoslav'
'Fri\<s\<ci\'c, Tomislav'
_publ_section_title
;
 Rational Synthesis of Mixed-Metal Microporous Metal--Organic Frameworks
 with Controlled Composition Using Mechanochemistry
;
_journal_issue                   15
_journal_name_full               'Chemistry of Materials'
_journal_page_first              5494
_journal_paper_doi               10.1021/acs.chemmater.9b01068
_journal_volume                  31
_journal_year                    2019
_chemical_formula_moiety         ' C8 H12 Co O10, 2(H2 O) '
_chemical_formula_structural     ' Co (C8 H4 O6) (H2 O)4, 2(H2 O) '
_chemical_formula_sum            'C8 H16 Co O12'
_chemical_formula_weight         363.14
_chemical_name_systematic
' tetra-aqua-(2,5-dihydroxyterephthalato)-cobalt dihydrate '
_space_group_IT_number           2
_space_group_name_Hall           '-P 1'
_space_group_name_H-M_alt        'P -1'
_symmetry_cell_setting           triclinic
_symmetry_Int_Tables_number      2
_symmetry_space_group_name_Hall  '-P 1'
_symmetry_space_group_name_H-M   'P -1'
_audit_creation_date             ' 2019-01-31 '
_audit_creation_method           ' created with TOPAS V5 '
_cell_angle_alpha                88.911(2)
_cell_angle_beta                 87.481(2)
_cell_angle_gamma                68.358(2)
_cell_formula_units_Z            2
_cell_length_a                   6.93886(14)
_cell_length_b                   8.6940(2)
_cell_length_c                   12.4532(3)
_cell_measurement_radiation      ' Mo K\a~1~ '
_cell_measurement_temperature    295
_cell_measurement_wavelength     0.7093
_cell_volume                     697.62(3)
_diffrn_ambient_environment      air
_diffrn_ambient_temperature      295
_diffrn_detector                 ' Mythen 1K Dectris Ltd. '
_diffrn_detector_type            ' Position sensitive silicon strip detector '
_diffrn_measurement_device_type  ' ? '
_diffrn_radiation_monochromator  ' Ge(111) Johann-type monochromator '
_diffrn_radiation_type           ' Mo K\a~1~ '
_diffrn_radiation_wavelength     0.7093
_diffrn_reflns_limit_h_max       6
_diffrn_reflns_limit_k_max       10
_diffrn_reflns_limit_l_max       14
_diffrn_reflns_theta_max         50
_diffrn_reflns_theta_min         2
_diffrn_source                   'sealed X-ray tube '
_diffrn_source_target            Molybdenum
_diffrn_source_type              ' Stoe Stadi-P '
_exptl_absorpt_coefficient_mu    1.291
_exptl_absorpt_correction_type   none
_exptl_crystal_colour            ' brown '
_exptl_crystal_density_diffrn    1.729
_exptl_crystal_description       ' powder '
_exptl_crystal_F_000             374
_pd_meas_2theta_range_inc        0.015
_pd_meas_2theta_range_max        50
_pd_meas_2theta_range_min        2
_pd_meas_number_of_points        3200
_pd_meas_scan_method             step
_pd_proc_2theta_range_inc        0.0075
_pd_proc_2theta_range_max        50.00
_pd_proc_2theta_range_min        2.00
_pd_proc_ls_background_function  ' Chebychev polynoms '
_pd_proc_ls_profile_function     ' Fundamental parameter approach '
_pd_proc_ls_prof_R_factor        0.023
_pd_proc_ls_prof_wR_expected     0.011
_pd_proc_ls_prof_wR_factor       0.030
_pd_proc_wavelength              0.7093
_pd_spec_mount_mode              transmission
_refine_ls_goodness_of_fit_all   2.70
_refine_ls_R_factor_all          1.24
_cod_data_source_file            cm9b01068_si_003.cif
_cod_data_source_block           TOPAS-CIF-macro
_cod_depositor_comments
;
The following automatic conversions were performed:

'_symmetry_cell_setting' value 'Triclinic' changed to 'triclinic'
according to
/home/data/users/saulius/crontab/automatic-downloads/current/ACS/lib/dictionaries/cif_core.dic
dictionary named 'cif_core.dic' version 2.4.2 from 2011-04-26.

Automatic conversion script
Id: cif_fix_values 4973 2017-02-22 13:04:09Z antanas 
;
_cod_original_sg_symbol_H-M      P-1
_cod_original_formula_sum        ' C8 H16 Co O12 '
_cod_database_code               4003045
loop_
_symmetry_equiv_pos_as_xyz
'x, y, z '
'-x, -y, -z '
loop_
_atom_site_label
_atom_site_type_symbol
_atom_site_fract_x
_atom_site_fract_y
_atom_site_fract_z
_atom_site_occupancy
_atom_site_symmetry_multiplicity
_atom_site_U_iso_or_equiv
_atom_site_adp_type
Co1 Co 0.5308(3) 0.4986(3) 0.20905(16) 1 2 0.0127 Uiso
C11 C 0.488 0.9171 0.4058 1 2 0.0127 Uiso
C12 C 0.396 1.0923 0.413 1 2 0.0127 Uiso
C13 C 0.5921 0.827 0.4939 1 2 0.0127 Uiso
H13 H 0.6543 0.711 0.49 1 2 0.0127 Uiso
C14 C 0.4717 0.8267 0.3077 1 2 0.0127 Uiso
C21 C 0.9022 0.0837 0.4076 1 2 0.0127 Uiso
C22 C 0.9092 0.1744 0.4986 1 2 0.0127 Uiso
C23 C 1.0055 0.0911 0.5892 1 2 0.0127 Uiso
H23 H 1.0093 0.1523 0.6496 1 2 0.0127 Uiso
C24 C 0.7967 0.1681 0.3079 1 2 0.0127 Uiso
O11 O 0.5464 0.6703 0.31 1 2 0.0127 Uiso
O12 O 0.3833 0.9123 0.22689 1 2 0.0127 Uiso
O13 O 0.2898 1.1857 0.32899 1 2 0.0127 Uiso
H13O H 0.292 1.1238 0.2791 1 2 0.0127 Uiso
O21 O 0.7102 0.3265 0.31246 1 2 0.0127 Uiso
O22 O 0.7951 0.085 0.22684 1 2 0.0127 Uiso
O23 O 0.8225 0.3449 0.50292 1 2 0.0127 Uiso
H23O H 0.763 0.3813 0.4468 1 2 0.0127 Uiso
O1W O 0.2618 0.5061 0.29052 1 2 0.0127 Uiso
O2W O 0.5219 0.3066 0.10767 1 2 0.0127 Uiso
O3W O 0.7845 0.4996 0.11772 1 2 0.0127 Uiso
O4W O 0.3402 0.6815 0.10606 1 2 0.0127 Uiso
H2WB H 0.4127 0.2868 0.1066 1 2 0.0127 Uiso
H4WB H 0.3764 0.679 0.04049 1 2 0.0127 Uiso
H4WA H 0.3509 0.7681 0.1302 1 2 0.0127 Uiso
H2WA H 0.603 0.2292 0.145 1 2 0.0127 Uiso
H1WA H 0.2511 0.5503 0.35144 1 2 0.0127 Uiso
H3WA H 0.8132 0.574 0.148 1 2 0.0127 Uiso
H1WB H 0.261 0.4107 0.3036 1 2 0.0127 Uiso
H3WB H 0.8949 0.4141 0.1187 1 2 0.0127 Uiso
O5W O 0.9023 0.7739 0.12574 1 2 0.0127 Uiso
H5WA H 1.0311 0.7483 0.1164 1 2 0.0127 Uiso
H5WB H 0.8608 0.8635 0.161 1 2 0.0127 Uiso
O6W O 0.8323 0.7803 -0.08919 1 2 0.0127 Uiso
H6WA H 0.8621 0.7785 -0.0241 1 2 0.0127 Uiso
H6WB H 0.803 0.88 -0.1085 1 2 0.0127 Uiso
loop_
_geom_angle_atom_site_label_1
_geom_angle_atom_site_label_2
_geom_angle_atom_site_label_3
_geom_angle
_geom_angle_site_symmetry_1
_geom_angle_site_symmetry_2
_geom_angle_site_symmetry_3
O21 Co1 O11 86.887 1_555 1_555 1_555
loop_
_geom_bond_atom_site_label_1
_geom_bond_atom_site_label_2
_geom_bond_distance
_geom_bond_site_symmetry_1
_geom_bond_site_symmetry_2
Co1 O11 2.00577 1_555 1_555
loop_
_pd_meas_2theta_scan
_pd_proc_intensity_total
_pd_calc_intensity_total
_pd_proc_ls_weight
2.00000 7481.00000 7345.47351 0.00013
2.01500 7505.00000 7377.29546 0.00013
2.03000 7551.00000 7408.81320 0.00013
2.04500 7570.00000 7440.04199 0.00013
2.06000 7550.00000 7470.99727 0.00013
2.07500 7403.00000 7501.69475 0.00014
2.09000 7636.00000 7532.15038 0.00013
2.10500 7580.00000 7562.38039 0.00013
2.12000 7571.00000 7592.40132 0.00013
2.13500 7684.00000 7622.23006 0.00013
2.15000 7723.00000 7651.88385 0.00013
2.16500 7581.00000 7681.38035 0.00013
2.18000 7596.00000 7710.73765 0.00013
2.19500 7708.00000 7739.97431 0.00013
2.21000 7723.00000 7769.10945 0.00013
2.22500 7764.00000 7798.16273 0.00013
2.24000 7783.00000 7827.15447 0.00013
2.25500 7849.00000 7856.10568 0.00013
2.27000 7896.00000 7885.03815 0.00013
2.28500 7870.00000 7913.97450 0.00013
2.30000 7863.00000 7942.93834 0.00013
2.31500 7922.00000 7971.95434 0.00013
2.33000 7939.00000 8001.04842 0.00013
2.34500 8026.00000 8030.24790 0.00012
2.36000 8074.00000 8059.58182 0.00012
2.37500 7996.00000 8089.08154 0.00013
2.39000 7991.00000 8118.78120 0.00013
2.40500 8035.00000 8148.71876 0.00012
2.42000 7939.00000 8178.93890 0.00013
2.43500 8021.00000 8209.50076 0.00012
2.45000 8146.00000 8240.51578 0.00012
2.46500 8103.00000 8272.31811 0.00012
2.48000 8087.00000 8303.70825 0.00012
2.49500 8275.00000 8335.50407 0.00012
2.51000 8369.00000 8367.77642 0.00012
2.52500 8311.00000 8400.57374 0.00012
2.54000 8490.00000 8433.94784 0.00012
2.55500 8427.00000 8467.95431 0.00012
2.57000 8406.00000 8502.65291 0.00012
2.58500 8443.00000 8538.10805 0.00012
2.60000 8574.00000 8574.38935 0.00012
2.61500 8703.00000 8611.57224 0.00011
2.63000 8650.00000 8649.73868 0.00012
2.64500 8617.00000 8688.97801 0.00012
2.66000 8723.00000 8729.38784 0.00011
2.67500 8738.00000 8771.07523 0.00011
2.69000 8886.00000 8814.15792 0.00011
2.70500 8943.00000 8858.76585 0.00011
2.72000 8980.00000 8905.04294 0.00011
2.73500 8941.00000 8953.14920 0.00011
2.75000 9012.00000 9003.26319 0.00011
2.76500 8961.00000 9055.58502 0.00011
2.78000 9233.00000 9110.33993 0.00011
2.79500 9318.00000 9167.78265 0.00011
2.81000 9387.00000 9228.20276 0.00011
2.82500 9241.00000 9291.93101 0.00011
2.84000 9481.00000 9359.34738 0.00011
2.85500 9529.00000 9430.89118 0.00010
2.87000 9784.00000 9507.07368 0.00010
2.88500 9633.00000 9588.49425 0.00010
2.90000 9797.00000 9675.86111 0.00010
2.91500 9926.00000 9770.01845 0.00010
2.93000 10105.00000 9871.98221 0.00010
2.94500 10033.00000 9982.98826 0.00010
2.96000 10244.00000 10104.55811 0.00010
2.97500 10357.00000 10238.59046 0.00010
2.99000 10725.00000 10387.49160 0.00009
3.00500 10867.00000 10554.36572 0.00009
3.02000 11080.00000 10743.30112 0.00009
3.03500 11121.00000 10959.81568 0.00009
3.05000 11449.00000 11211.57968 0.00009
3.06500 11988.00000 11509.65067 0.00008
3.08000 12211.00000 11870.72639 0.00008
3.09500 12652.00000 12321.63979 0.00008
3.11000 13200.00000 12909.65078 0.00008
3.12500 13963.00000 13732.74059 0.00007
3.14000 15132.00000 15051.11871 0.00007
3.15500 17487.00000 17426.66661 0.00006
3.17000 20502.00000 20240.97045 0.00005
3.18500 19173.00000 18896.09114 0.00005
3.20000 12479.00000 12846.41648 0.00008
3.21500 8744.00000 8995.59752 0.00011
3.23000 7995.00000 8046.45775 0.00013
3.24500 7752.00000 7882.62896 0.00013
3.26000 7764.00000 7824.02581 0.00013
3.27500 7686.00000 7789.61265 0.00013
3.29000 7644.00000 7767.23064 0.00013
3.30500 7716.00000 7752.01661 0.00013
3.32000 7670.00000 7741.82916 0.00013
3.33500 7663.00000 7736.57533 0.00013
3.35000 7700.00000 7736.92663 0.00013
3.36500 7724.00000 7741.80549 0.00013
3.38000 7648.00000 7749.15234 0.00013
3.39500 7778.00000 7757.81652 0.00013
3.41000 7783.00000 7767.39576 0.00013
3.42500 7742.00000 7777.71486 0.00013
3.44000 7787.00000 7788.66375 0.00013
3.45500 7806.00000 7800.16610 0.00013
3.47000 7684.00000 7812.16796 0.00013
3.48500 7712.00000 7824.63120 0.00013
3.50000 7855.00000 7837.52923 0.00013
3.51500 7808.00000 7850.84420 0.00013
3.53000 7830.00000 7864.56510 0.00013
3.54500 7900.00000 7878.68645 0.00013
3.56000 7930.00000 7893.20750 0.00013
3.57500 7862.00000 7908.13171 0.00013
3.59000 7810.00000 7923.46670 0.00013
3.60500 7908.00000 7939.22463 0.00013
3.62000 7831.00000 7955.42338 0.00013
3.63500 7902.00000 7972.08939 0.00013
3.65000 7997.00000 7989.26609 0.00013
3.66500 7937.00000 8007.05731 0.00013
3.68000 8075.00000 8025.91251 0.00012
3.69500 8116.00000 8046.23185 0.00012
3.71000 8103.00000 8068.04355 0.00012
3.72500 8070.00000 8091.85707 0.00012
3.74000 8162.00000 8116.87814 0.00012
3.75500 8127.00000 8142.68566 0.00012
3.77000 8078.00000 8169.19275 0.00012
3.78500 8074.00000 8196.40158 0.00012
3.80000 8342.00000 8224.32951 0.00012
3.81500 8221.00000 8252.99887 0.00012
3.83000 8278.00000 8282.43488 0.00012
3.84500 8433.00000 8312.66433 0.00012
3.86000 8359.00000 8343.71407 0.00012
3.87500 8340.00000 8375.60762 0.00012
3.89000 8368.00000 8408.35034 0.00012
3.90500 8370.00000 8441.80657 0.00012
3.92000 8354.00000 8476.41132 0.00012
3.93500 8438.00000 8512.57902 0.00012
3.95000 8464.00000 8549.85646 0.00012
3.96500 8472.00000 8588.30237 0.00012
3.98000 8562.00000 8627.98091 0.00012
3.99500 8537.00000 8668.96337 0.00012
4.01000 8663.00000 8711.33238 0.00012
4.02500 8704.00000 8755.20076 0.00011
4.04000 8761.00000 8800.80248 0.00011
4.05500 8788.00000 8847.63146 0.00011
4.07000 8798.00000 8896.09415 0.00011
4.08500 8867.00000 8946.35231 0.00011
4.10000 8880.00000 8998.51879 0.00011
4.11500 8846.00000 9052.71659 0.00011
4.13000 8875.00000 9109.08028 0.00011
4.14500 9036.00000 9167.75736 0.00011
4.16000 8987.00000 9228.91008 0.00011
4.17500 9281.00000 9292.71732 0.00011
4.19000 9368.00000 9359.37694 0.00011
4.20500 9432.00000 9429.10904 0.00011
4.22000 9412.00000 9502.15925 0.00011
4.23500 9499.00000 9578.80091 0.00011
4.25000 9561.00000 9659.34058 0.00010
4.26500 9765.00000 9744.12361 0.00010
4.28000 9849.00000 9833.54082 0.00010
4.29500 9806.00000 9928.03657 0.00010
4.31000 9859.00000 10028.11878 0.00010
4.32500 10197.00000 10134.37121 0.00010
4.34000 10200.00000 10247.46879 0.00010
4.35500 10261.00000 10368.19765 0.00010
4.37000 10484.00000 10497.48084 0.00010
4.38500 10766.00000 10636.40929 0.00009
4.40000 11006.00000 10786.28350 0.00009
4.41500 11064.00000 10948.67023 0.00009
4.43000 11165.00000 11125.47804 0.00009
4.44500 11359.00000 11319.06125 0.00009
4.46000 11466.00000 11532.36531 0.00009
4.47500 11920.00000 11769.13400 0.00008
4.49000 12068.00000 12034.21661 0.00008
4.50500 12365.00000 12334.03353 0.00008
4.52000 12831.00000 12677.30959 0.00008
4.53500 12944.00000 13076.28228 0.00008
4.55000 13648.00000 13548.80707 0.00007
4.56500 14109.00000 14122.30875 0.00007
4.58000 14817.00000 14842.05118 0.00007
4.59500 15673.00000 15792.12079 0.00006
4.61000 17063.00000 17164.72735 0.00006
4.62500 18867.00000 19428.18123 0.00005
4.64000 22058.00000 22886.47766 0.00005
4.65500 24508.00000 24804.46787 0.00004
4.67000 20468.00000 20276.99562 0.00005
4.68500 13303.00000 13490.24244 0.00008
4.70000 10111.00000 10303.52234 0.00010
4.71500 9458.00000 9548.46086 0.00011
4.73000 9405.00000 9404.24764 0.00011
4.74500 9282.00000 9382.11865 0.00011
4.76000 9101.00000 9410.08723 0.00011
4.77500 9380.00000 9471.88069 0.00011
4.79000 9443.00000 9561.73507 0.00011
4.80500 9557.00000 9678.84004 0.00010
4.82000 9713.00000 9826.00437 0.00010
4.83500 9964.00000 10010.21154 0.00010
4.85000 9949.00000 10245.51142 0.00010
4.86500 10286.00000 10557.35158 0.00010
4.88000 10636.00000 10987.64908 0.00009
4.89500 11160.00000 11623.30523 0.00009
4.91000 11741.00000 12674.38760 0.00009
4.92500 12464.00000 14254.96547 0.00008
4.94000 13337.00000 15095.54870 0.00007
4.95500 12051.00000 13106.13967 0.00008
4.97000 9978.00000 10170.13223 0.00010
4.98500 9136.00000 8814.27769 0.00011
5.00000 8881.00000 8531.80057 0.00011
5.01500 8802.00000 8514.65969 0.00011
5.03000 8957.00000 8545.43055 0.00011
5.04500 8948.00000 8593.35939 0.00011
5.06000 8963.00000 8651.61700 0.00011
5.07500 9085.00000 8717.17572 0.00011
5.09000 9272.00000 8788.43716 0.00011
5.10500 9201.00000 8864.20375 0.00011
5.12000 9447.00000 8944.52636 0.00011
5.13500 9560.00000 9029.85671 0.00010
5.15000 9668.00000 9120.76489 0.00010
5.16500 9775.00000 9217.02643 0.00010
5.18000 9877.00000 9318.48789 0.00010
5.19500 10099.00000 9425.36891 0.00010
5.21000 10096.00000 9536.10128 0.00010
5.22500 10123.00000 9658.58689 0.00010
5.24000 10265.00000 9800.32960 0.00010
5.25500 10432.00000 9962.01742 0.00010
5.27000 10537.00000 10137.07295 0.00009
5.28500 10732.00000 10320.64354 0.00009
5.30000 10826.00000 10511.45542 0.00009
5.31500 11105.00000 10709.87063 0.00009
5.33000 11368.00000 10916.63640 0.00009
5.34500 11627.00000 11128.45266 0.00009
5.36000 11769.00000 11348.56097 0.00008
5.37500 12126.00000 11578.12719 0.00008
5.39000 12205.00000 11820.61342 0.00008
5.40500 12335.00000 12081.96595 0.00008
5.42000 12838.00000 12368.09383 0.00008
5.43500 13138.00000 12678.83233 0.00008
5.45000 13298.00000 13008.90776 0.00008
5.46500 13305.00000 13355.56424 0.00008
5.48000 13773.00000 13720.18881 0.00007
5.49500 14029.00000 14107.67631 0.00007
5.51000 14646.00000 14522.04348 0.00007
5.52500 15251.00000 14962.00640 0.00007
5.54000 15616.00000 15425.03165 0.00006
5.55500 15977.00000 15910.93369 0.00006
5.57000 16505.00000 16421.18903 0.00006
5.58500 16733.00000 16957.93938 0.00006
5.60000 17415.00000 17523.74512 0.00006
5.61500 18013.00000 18121.60196 0.00006
5.63000 18773.00000 18754.98463 0.00005
5.64500 19427.00000 19428.23350 0.00005
5.66000 19891.00000 20146.34362 0.00005
5.67500 20880.00000 20916.00850 0.00005
5.69000 21693.00000 21744.00990 0.00005
5.70500 22676.00000 22639.48259 0.00004
5.72000 23587.00000 23613.90287 0.00004
5.73500 24763.00000 24681.95483 0.00004
5.75000 25881.00000 25862.83420 0.00004
5.76500 27254.00000 27182.28309 0.00004
5.78000 28692.00000 28675.90778 0.00003
5.79500 30510.00000 30394.89700 0.00003
5.81000 32786.00000 32416.63389 0.00003
5.82500 35140.00000 34866.70880 0.00003
5.84000 38013.00000 37974.54888 0.00003
5.85500 42650.00000 42248.60950 0.00002
5.87000 48488.00000 48840.74791 0.00002
5.88500 56733.00000 58570.42479 0.00002
5.90000 64441.00000 66231.78237 0.00002
5.91500 59379.00000 60424.03291 0.00002
5.93000 43051.00000 43657.48147 0.00002
5.94500 29161.00000 30101.59656 0.00003
5.96000 23979.00000 24797.24358 0.00004
5.97500 23615.00000 23908.04273 0.00004
5.99000 23656.00000 24261.92625 0.00004
6.00500 24344.00000 24952.19569 0.00004
6.02000 25346.00000 25829.52110 0.00004
6.03500 26565.00000 26870.58791 0.00004
6.05000 27809.00000 28081.44536 0.00004
6.06500 29245.00000 29488.25602 0.00003
6.08000 31113.00000 31144.31690 0.00003
6.09500 33243.00000 33160.46983 0.00003
6.11000 36301.00000 35742.31856 0.00003
6.12500 39393.00000 38896.77178 0.00003
6.14000 42180.00000 41618.70648 0.00002
6.15500 43239.00000 43134.38840 0.00002
6.17000 45387.00000 45773.84103 0.00002
6.18500 51022.00000 51909.72319 0.00002
6.20000 59573.00000 61968.87477 0.00002
6.21500 67152.00000 69984.62755 0.00001
6.23000 61320.00000 62679.06659 0.00002
6.24500 44615.00000 44390.32127 0.00002
6.26000 34892.00000 33585.76810 0.00003
6.27500 33455.00000 31570.03084 0.00003
6.29000 34520.00000 32912.33884 0.00003
6.30500 37504.00000 35482.64252 0.00003
6.32000 40735.00000 39304.41212 0.00002
6.33500 46202.00000 45339.47761 0.00002
6.35000 53639.00000 54657.65223 0.00002
6.36500 59688.00000 63325.30085 0.00002
6.38000 57091.00000 59638.13901 0.00002
6.39500 44697.00000 44353.04727 0.00002
6.41000 34676.00000 33937.84254 0.00003
6.42500 33745.00000 33390.40370 0.00003
6.44000 38759.00000 36615.07496 0.00003
6.45500 36153.00000 33032.37548 0.00003
6.47000 21481.00000 21562.54669 0.00005
6.48500 11918.00000 13344.56441 0.00008
6.50000 9860.00000 10491.74542 0.00010
6.51500 9290.00000 9734.64480 0.00011
6.53000 9225.00000 9430.51976 0.00011
6.54500 9074.00000 9249.21912 0.00011
6.56000 8960.00000 9129.65328 0.00011
6.57500 8911.00000 9048.45056 0.00011
6.59000 8876.00000 8992.92500 0.00011
6.60500 8942.00000 8955.53500 0.00011
6.62000 8978.00000 8931.54025 0.00011
6.63500 8880.00000 8917.83049 0.00011
6.65000 8786.00000 8912.29691 0.00011
6.66500 8850.00000 8913.47599 0.00011
6.68000 8882.00000 8920.34245 0.00011
6.69500 8932.00000 8932.13477 0.00011
6.71000 8924.00000 8948.34468 0.00011
6.72500 8865.00000 8968.62835 0.00011
6.74000 8965.00000 8992.76246 0.00011
6.75500 9084.00000 9020.63055 0.00011
6.77000 8893.00000 9052.21033 0.00011
6.78500 8903.00000 9087.56868 0.00011
6.80000 9201.00000 9126.86387 0.00011
6.81500 9085.00000 9170.35655 0.00011
6.83000 9133.00000 9218.43515 0.00011
6.84500 9437.00000 9271.67817 0.00011
6.86000 9473.00000 9330.99779 0.00011
6.87500 9526.00000 9397.64279 0.00010
6.89000 9707.00000 9471.81713 0.00010
6.90500 9716.00000 9550.77649 0.00010
6.92000 9698.00000 9635.07292 0.00010
6.93500 9853.00000 9734.44964 0.00010
6.95000 10066.00000 9856.51746 0.00010
6.96500 10066.00000 10006.88770 0.00010
6.98000 10308.00000 10200.20408 0.00010
6.99500 10592.00000 10477.49112 0.00009
7.01000 10929.00000 10868.11512 0.00009
7.02500 11409.00000 11201.00533 0.00009
7.04000 11077.00000 11070.07472 0.00009
7.05500 10789.00000 10588.17322 0.00009
7.07000 10554.00000 10352.52010 0.00009
7.08500 10727.00000 10464.96006 0.00009
7.10000 11125.00000 10817.54206 0.00009
7.11500 11597.00000 11327.28265 0.00009
7.13000 12045.00000 11602.89515 0.00008
7.14500 11575.00000 11101.90007 0.00009
7.16000 10738.00000 10301.20262 0.00009
7.17500 10269.00000 9921.44602 0.00010
7.19000 10126.00000 9911.89126 0.00010
7.20500 10395.00000 10058.17412 0.00010
7.22000 10696.00000 10307.10455 0.00009
7.23500 10850.00000 10717.66908 0.00009
7.25000 11445.00000 11341.34936 0.00009
7.26500 11848.00000 11835.14013 0.00008
7.28000 11669.00000 11355.83272 0.00009
7.29500 10334.00000 10067.09274 0.00010
7.31000 9423.00000 9178.07242 0.00011
7.32500 9076.00000 8870.30999 0.00011
7.34000 8854.00000 8795.84713 0.00011
7.35500 8837.00000 8774.93411 0.00011
7.37000 8787.00000 8769.10836 0.00011
7.38500 8742.00000 8772.76518 0.00011
7.40000 8767.00000 8786.52622 0.00011
7.41500 8886.00000 8811.30954 0.00011
7.43000 8734.00000 8844.98340 0.00011
7.44500 8917.00000 8885.74834 0.00011
7.46000 8827.00000 8932.22340 0.00011
7.47500 8888.00000 8981.59980 0.00011
7.49000 8830.00000 9033.38319 0.00011
7.50500 8876.00000 9087.52150 0.00011
7.52000 8969.00000 9144.28258 0.00011
7.53500 8920.00000 9204.02567 0.00011
7.55000 9028.00000 9265.45695 0.00011
7.56500 9285.00000 9329.27513 0.00011
7.58000 9204.00000 9395.64556 0.00011
7.59500 9214.00000 9464.73423 0.00011
7.61000 9293.00000 9536.77061 0.00011
7.62500 9451.00000 9612.13304 0.00011
7.64000 9409.00000 9690.32481 0.00011
7.65500 9492.00000 9772.15204 0.00011
7.67000 9521.00000 9857.98741 0.00011
7.68500 9644.00000 9948.29251 0.00010
7.70000 9674.00000 10043.65056 0.00010
7.71500 9833.00000 10144.82533 0.00010
7.73000 9941.00000 10252.88576 0.00010
7.74500 10141.00000 10369.41679 0.00010
7.76000 10314.00000 10497.08823 0.00010
7.77500 10335.00000 10641.41094 0.00010
7.79000 10555.00000 10814.20467 0.00009
7.80500 10717.00000 11022.44985 0.00009
7.82000 10962.00000 11206.66220 0.00009
7.83500 10980.00000 11245.52481 0.00009
7.85000 10866.00000 11208.30344 0.00009
7.86500 10949.00000 11257.62040 0.00009
7.88000 11106.00000 11388.95594 0.00009
7.89500 11308.00000 11556.13908 0.00009
7.91000 11616.00000 11742.80673 0.00009
7.92500 11674.00000 11947.78425 0.00009
7.94000 12086.00000 12173.07663 0.00008
7.95500 12307.00000 12421.89951 0.00008
7.97000 12557.00000 12698.46286 0.00008
7.98500 12852.00000 13007.64328 0.00008
8.00000 13386.00000 13357.49188 0.00007
8.01500 13910.00000 13757.74171 0.00007
8.03000 14378.00000 14222.77781 0.00007
8.04500 14867.00000 14773.23140 0.00007
8.06000 15646.00000 15440.72567 0.00006
8.07500 16616.00000 16277.83624 0.00006
8.09000 17680.00000 17385.26635 0.00006
8.10500 19110.00000 18987.80330 0.00005
8.12000 21705.00000 21484.77620 0.00005
8.13500 24791.00000 24779.79523 0.00004
8.15000 26842.00000 26577.49135 0.00004
8.16500 24512.00000 23755.98865 0.00004
8.18000 18951.00000 18400.07811 0.00005
8.19500 14087.00000 13975.18492 0.00007
8.21000 11432.00000 11626.87072 0.00009
8.22500 10572.00000 10786.41349 0.00009
8.24000 10448.00000 10569.95437 0.00010
8.25500 10424.00000 10539.28204 0.00010
8.27000 10486.00000 10570.94905 0.00010
8.28500 10371.00000 10634.83729 0.00010
8.30000 10512.00000 10720.59993 0.00010
8.31500 10732.00000 10822.60362 0.00009
8.33000 10796.00000 10937.78763 0.00009
8.34500 10871.00000 11064.01529 0.00009
8.36000 10860.00000 11200.31411 0.00009
8.37500 11258.00000 11346.32637 0.00009
8.39000 11260.00000 11501.92256 0.00009
8.40500 11298.00000 11667.25062 0.00009
8.42000 11534.00000 11842.72774 0.00009
8.43500 11606.00000 12028.58717 0.00009
8.45000 11848.00000 12225.92623 0.00008
8.46500 12190.00000 12435.65610 0.00008
8.48000 12387.00000 12659.36230 0.00008
8.49500 12442.00000 12899.98326 0.00008
8.51000 12935.00000 13162.37489 0.00008
8.52500 13022.00000 13451.23217 0.00008
8.54000 13333.00000 13767.66772 0.00008
8.55500 13764.00000 14111.01615 0.00007
8.57000 14209.00000 14482.01189 0.00007
8.58500 14555.00000 14883.65294 0.00007
8.60000 14964.00000 15320.65685 0.00007
8.61500 15614.00000 15799.67810 0.00006
8.63000 16209.00000 16330.21716 0.00006
8.64500 16898.00000 16924.15908 0.00006
8.66000 17576.00000 17593.96207 0.00006
8.67500 18307.00000 18354.03764 0.00005
8.69000 19215.00000 19224.29588 0.00005
8.70500 20225.00000 20233.88505 0.00005
8.72000 21487.00000 21427.96117 0.00005
8.73500 22832.00000 22880.06912 0.00004
8.75000 25115.00000 24723.27303 0.00004
8.76500 27636.00000 27240.78203 0.00004
8.78000 31112.00000 31015.34042 0.00003
8.79500 36304.00000 36431.81629 0.00003
8.81000 41720.00000 41094.17086 0.00002
8.82500 39804.00000 38704.67003 0.00003
8.84000 29917.00000 29194.16564 0.00003
8.85500 21647.00000 21881.81675 0.00005
8.87000 19518.00000 19569.49364 0.00005
8.88500 20168.00000 20107.83221 0.00005
8.90000 21524.00000 21550.01880 0.00005
8.91500 21684.00000 21899.13900 0.00005
8.93000 19547.00000 19618.19155 0.00005
8.94500 16767.00000 16747.39523 0.00006
8.96000 15241.00000 15338.08904 0.00007
8.97500 15024.00000 15041.57662 0.00007
8.99000 14895.00000 15132.74823 0.00007
9.00500 15484.00000 15373.93052 0.00006
9.02000 15819.00000 15723.99000 0.00006
9.03500 16287.00000 16160.30056 0.00006
9.05000 16824.00000 16677.17577 0.00006
9.06500 17763.00000 17284.81313 0.00006
9.08000 18305.00000 18005.84740 0.00005
9.09500 19296.00000 18879.12480 0.00005
9.11000 20499.00000 19973.25831 0.00005
9.12500 22012.00000 21428.94352 0.00005
9.14000 24079.00000 23533.69321 0.00004
9.15500 26871.00000 26509.66707 0.00004
9.17000 29262.00000 29316.74474 0.00003
9.18500 28735.00000 28893.25236 0.00003
9.20000 25170.00000 24562.00140 0.00004
9.21500 21691.00000 20786.99081 0.00005
9.23000 20787.00000 19645.67424 0.00005
9.24500 21318.00000 20302.55797 0.00005
9.26000 22806.00000 22033.43910 0.00004
9.27500 24990.00000 24491.47494 0.00004
9.29000 26596.00000 26284.92582 0.00004
9.30500 25561.00000 25183.06491 0.00004
9.32000 21991.00000 21873.81234 0.00005
9.33500 18649.00000 18649.84255 0.00005
9.35000 16602.00000 16272.38125 0.00006
9.36500 15803.00000 15159.18728 0.00006
9.38000 15983.00000 15032.24295 0.00006
9.39500 16401.00000 15441.57054 0.00006
9.41000 16602.00000 15938.97761 0.00006
9.42500 16402.00000 15834.03038 0.00006
9.44000 15649.00000 15126.19412 0.00006
9.45500 15279.00000 14721.00327 0.00007
9.47000 15394.00000 14776.56726 0.00006
9.48500 15804.00000 15048.75360 0.00006
9.50000 16165.00000 15416.16736 0.00006
9.51500 16660.00000 15862.51395 0.00006
9.53000 17308.00000 16401.55740 0.00006
9.54500 17726.00000 17063.20670 0.00006
9.56000 18520.00000 17904.54653 0.00005
9.57500 19759.00000 19047.41580 0.00005
9.59000 20942.00000 20728.65198 0.00005
9.60500 22296.00000 23067.28375 0.00004
9.62000 23492.00000 25075.21160 0.00004
9.63500 23160.00000 24310.39472 0.00004
9.65000 20791.00000 20698.94309 0.00005
9.66500 18484.00000 17879.97501 0.00005
9.68000 17802.00000 17185.74956 0.00006
9.69500 18064.00000 17883.47553 0.00006
9.71000 19682.00000 18958.25930 0.00005
9.72500 20203.00000 19081.20443 0.00005
9.74000 18093.00000 17559.70334 0.00006
9.75500 15481.00000 15965.70557 0.00006
9.77000 14994.00000 15572.87418 0.00007
9.78500 15521.00000 16025.13330 0.00006
9.80000 15573.00000 16133.42423 0.00006
9.81500 14615.00000 14961.56716 0.00007
9.83000 13080.00000 13416.80005 0.00008
9.84500 12189.00000 12565.19891 0.00008
9.86000 11851.00000 12323.30645 0.00008
9.87500 12050.00000 12344.20078 0.00008
9.89000 12224.00000 12478.29206 0.00008
9.90500 12264.00000 12721.13656 0.00008
9.92000 12720.00000 13124.97309 0.00008
9.93500 13083.00000 13674.40293 0.00008
9.95000 13148.00000 14017.07044 0.00008
9.96500 12812.00000 13543.67701 0.00008
9.98000 11931.00000 12458.44393 0.00008
9.99500 11517.00000 11648.30423 0.00009
10.01000 11170.00000 11308.43660 0.00009
10.02500 11259.00000 11223.68893 0.00009
10.04000 11197.00000 11241.11151 0.00009
10.05500 11107.00000 11304.61687 0.00009
10.07000 11116.00000 11336.34121 0.00009
10.08500 11129.00000 11224.19747 0.00009
10.10000 10936.00000 11011.86420 0.00009
10.11500 10894.00000 10855.24535 0.00009
10.13000 10704.00000 10782.22804 0.00009
10.14500 10597.00000 10751.36702 0.00009
10.16000 10619.00000 10733.45654 0.00009
10.17500 10798.00000 10720.12680 0.00009
10.19000 10766.00000 10709.73854 0.00009
10.20500 10504.00000 10702.26544 0.00010
10.22000 10531.00000 10698.21154 0.00009
10.23500 10696.00000 10697.27269 0.00009
10.25000 10649.00000 10692.99459 0.00009
10.26500 10699.00000 10674.68474 0.00009
10.28000 10537.00000 10646.98311 0.00009
10.29500 10569.00000 10625.34928 0.00009
10.31000 10616.00000 10612.92411 0.00009
10.32500 10656.00000 10605.99598 0.00009
10.34000 10716.00000 10602.18725 0.00009
10.35500 10687.00000 10601.89607 0.00009
10.37000 10692.00000 10606.28275 0.00009
10.38500 10731.00000 10616.05422 0.00009
10.40000 10825.00000 10633.09256 0.00009
10.41500 10861.00000 10659.05462 0.00009
10.43000 10888.00000 10696.59689 0.00009
10.44500 10912.00000 10751.99545 0.00009
10.46000 10950.00000 10834.29493 0.00009
10.47500 10892.00000 10933.54374 0.00009
10.49000 10997.00000 10982.05727 0.00009
10.50500 10966.00000 10895.14784 0.00009
10.52000 10879.00000 10732.86781 0.00009
10.53500 10768.00000 10613.79393 0.00009
10.55000 10647.00000 10564.95740 0.00009
10.56500 10627.00000 10557.16738 0.00009
10.58000 10874.00000 10565.75654 0.00009
10.59500 10656.00000 10581.32777 0.00009
10.61000 10855.00000 10601.78780 0.00009
10.62500 10765.00000 10627.99567 0.00009
10.64000 10833.00000 10656.31260 0.00009
10.65500 10859.00000 10687.81172 0.00009
10.67000 10809.00000 10725.93905 0.00009
10.68500 10801.00000 10772.81008 0.00009
10.70000 10859.00000 10832.34089 0.00009
10.71500 11002.00000 10907.89895 0.00009
10.73000 11157.00000 10999.76216 0.00009
10.74500 11189.00000 11106.41022 0.00009
10.76000 11130.00000 11227.57060 0.00009
10.77500 11113.00000 11364.92788 0.00009
10.79000 11332.00000 11521.81449 0.00009
10.80500 11440.00000 11703.15874 0.00009
10.82000 11721.00000 11916.00405 0.00009
10.83500 12042.00000 12171.32592 0.00008
10.85000 12359.00000 12488.61987 0.00008
10.86500 12784.00000 12905.65715 0.00008
10.88000 13376.00000 13478.48123 0.00007
10.89500 13971.00000 14205.70315 0.00007
10.91000 14572.00000 14889.96200 0.00007
10.92500 15117.00000 15248.90916 0.00007
10.94000 15001.00000 15117.26163 0.00007
10.95500 14303.00000 14472.02023 0.00007
10.97000 13066.00000 13377.27183 0.00008
10.98500 11812.00000 12313.96850 0.00008
11.00000 11300.00000 11752.78618 0.00009
11.01500 11318.00000 11609.06423 0.00009
11.03000 11263.00000 11658.54926 0.00009
11.04500 11503.00000 11783.05139 0.00009
11.06000 11612.00000 11948.99850 0.00009
11.07500 11742.00000 12151.24006 0.00009
11.09000 11936.00000 12392.04536 0.00008
11.10500 12334.00000 12677.57798 0.00008
11.12000 12685.00000 13018.17028 0.00008
11.13500 13273.00000 13430.27248 0.00008
11.15000 13927.00000 13941.72794 0.00007
11.16500 14595.00000 14601.67593 0.00007
11.18000 15454.00000 15495.75062 0.00006
11.19500 16515.00000 16727.90425 0.00006
11.21000 18083.00000 18332.29898 0.00006
11.22500 20073.00000 20091.53645 0.00005
11.24000 21113.00000 20929.09150 0.00005
11.25500 19321.00000 19071.61428 0.00005
11.27000 15429.00000 15429.48316 0.00006
11.28500 12604.00000 12760.89649 0.00008
11.30000 11611.00000 11651.02639 0.00009
11.31500 11434.00000 11410.41196 0.00009
11.33000 11515.00000 11436.85320 0.00009
11.34500 11303.00000 11429.06645 0.00009
11.36000 11363.00000 11399.24887 0.00009
11.37500 11724.00000 11469.73985 0.00009
11.39000 11958.00000 11657.05752 0.00008
11.40500 12266.00000 12009.59901 0.00008
11.42000 12798.00000 12560.23657 0.00008
11.43500 13488.00000 13179.17886 0.00007
11.45000 13742.00000 13532.77378 0.00007
11.46500 13367.00000 13398.75128 0.00007
11.48000 12719.00000 12745.11338 0.00008
11.49500 11712.00000 11768.82998 0.00009
11.51000 10998.00000 11089.74777 0.00009
11.52500 10618.00000 10848.04334 0.00009
11.54000 10617.00000 10861.98941 0.00009
11.55500 10742.00000 10987.52872 0.00009
11.57000 10969.00000 11169.86564 0.00009
11.58500 11151.00000 11394.15525 0.00009
11.60000 11228.00000 11659.12399 0.00009
11.61500 11679.00000 11970.95527 0.00009
11.63000 12074.00000 12340.68641 0.00008
11.64500 12652.00000 12778.54699 0.00008
11.66000 13098.00000 13289.52735 0.00008
11.67500 13865.00000 13906.22553 0.00007
11.69000 14986.00000 14727.12493 0.00007
11.70500 16034.00000 15645.09470 0.00006
11.72000 16001.00000 15999.73323 0.00006
11.73500 15258.00000 15541.83954 0.00007
11.75000 15308.00000 15369.11177 0.00007
11.76500 16098.00000 15981.41508 0.00006
11.78000 17051.00000 16942.21164 0.00006
11.79500 17735.00000 17605.25747 0.00006
11.81000 18093.00000 17853.39410 0.00006
11.82500 18539.00000 18334.05520 0.00005
11.84000 19787.00000 19469.01825 0.00005
11.85500 21628.00000 21316.55273 0.00005
11.87000 24118.00000 23799.63580 0.00004
11.88500 26755.00000 26491.80413 0.00004
11.90000 29129.00000 28453.40122 0.00003
11.91500 29557.00000 28983.96432 0.00003
11.93000 28675.00000 28156.44482 0.00003
11.94500 26701.00000 26219.75733 0.00004
11.96000 22796.00000 22924.39749 0.00004
11.97500 19090.00000 19892.12897 0.00005
11.99000 17014.00000 18468.62753 0.00006
12.00500 17169.00000 18353.30698 0.00006
12.02000 17605.00000 18891.88276 0.00006
12.03500 18629.00000 19726.34963 0.00005
12.05000 19733.00000 20748.80661 0.00005
12.06500 21025.00000 21944.16258 0.00005
12.08000 22504.00000 23326.46677 0.00004
12.09500 24442.00000 24924.89154 0.00004
12.11000 26356.00000 26784.24246 0.00004
12.12500 28737.00000 28970.69746 0.00003
12.14000 31791.00000 31583.15467 0.00003
12.15500 35235.00000 34775.57613 0.00003
12.17000 39622.00000 38809.55354 0.00003
12.18500 45882.00000 44188.81965 0.00002
12.20000 53539.00000 51890.45306 0.00002
12.21500 64652.00000 63067.21781 0.00002
12.23000 78081.00000 76345.83663 0.00001
12.24500 85271.00000 83237.13007 0.00001
12.26000 74093.00000 71610.80337 0.00001
12.27500 47777.00000 46584.32168 0.00002
12.29000 26490.00000 26620.02179 0.00004
12.30500 16782.00000 16807.26160 0.00006
12.32000 13107.00000 13116.70692 0.00008
12.33500 11585.00000 11719.79480 0.00009
12.35000 10929.00000 11085.38043 0.00009
12.36500 10767.00000 10791.15983 0.00009
12.38000 10699.00000 10570.31861 0.00009
12.39500 10252.00000 10120.84780 0.00010
12.41000 9774.00000 9562.13674 0.00010
12.42500 9323.00000 9211.43720 0.00011
12.44000 9170.00000 9065.56922 0.00011
12.45500 9297.00000 9023.15667 0.00011
12.47000 9466.00000 9038.02710 0.00011
12.48500 9660.00000 9106.17040 0.00010
12.50000 9804.00000 9244.44431 0.00010
12.51500 10312.00000 9484.31285 0.00010
12.53000 10919.00000 9817.29683 0.00009
12.54500 11070.00000 10044.67767 0.00009
12.56000 10633.00000 9793.66680 0.00009
12.57500 9733.00000 9136.41473 0.00010
12.59000 8823.00000 8607.24461 0.00011
12.60500 8611.00000 8375.31572 0.00012
12.62000 8445.00000 8315.77894 0.00012
12.63500 8445.00000 8322.47877 0.00012
12.65000 8417.00000 8357.89382 0.00012
12.66500 8556.00000 8412.76213 0.00012
12.68000 8581.00000 8485.14151 0.00012
12.69500 8695.00000 8575.40685 0.00012
12.71000 8924.00000 8685.77125 0.00011
12.72500 9018.00000 8820.19159 0.00011
12.74000 9232.00000 8984.88054 0.00011
12.75500 9446.00000 9189.78669 0.00011
12.77000 9732.00000 9452.13369 0.00010
12.78500 10189.00000 9804.58394 0.00010
12.80000 10871.00000 10303.55452 0.00009
12.81500 11522.00000 10995.70171 0.00009
12.83000 12275.00000 11769.85370 0.00008
12.84500 12292.00000 12189.39994 0.00008
12.86000 12065.00000 11755.69226 0.00008
12.87500 11050.00000 10648.77510 0.00009
12.89000 9943.00000 9459.77652 0.00010
12.90500 8949.00000 8567.07717 0.00011
12.92000 8291.00000 8115.08297 0.00012
12.93500 8252.00000 7975.84490 0.00012
12.95000 8248.00000 7978.08998 0.00012
12.96500 8267.00000 8020.60228 0.00012
12.98000 8196.00000 8067.86589 0.00012
12.99500 8376.00000 8140.90955 0.00012
13.01000 8562.00000 8248.02105 0.00012
13.02500 8655.00000 8388.97564 0.00012
13.04000 8962.00000 8592.32066 0.00011
13.05500 9272.00000 8893.09254 0.00011
13.07000 9594.00000 9276.91833 0.00010
13.08500 9962.00000 9594.18544 0.00010
13.10000 9923.00000 9572.32775 0.00010
13.11500 9527.00000 9204.60781 0.00010
13.13000 9322.00000 8878.96088 0.00011
13.14500 9027.00000 8786.07181 0.00011
13.16000 9165.00000 8886.87692 0.00011
13.17500 9428.00000 9108.69462 0.00011
13.19000 9704.00000 9414.13298 0.00010
13.20500 9886.00000 9787.76059 0.00010
13.22000 10295.00000 10221.78160 0.00010
13.23500 10910.00000 10715.90738 0.00009
13.25000 11436.00000 11278.00714 0.00009
13.26500 12016.00000 11924.70797 0.00008
13.28000 12616.00000 12684.81902 0.00008
13.29500 13487.00000 13605.04187 0.00007
13.31000 14725.00000 14746.03151 0.00007
13.32500 16048.00000 16132.01052 0.00006
13.34000 17723.00000 17601.42537 0.00006
13.35500 18590.00000 18686.89782 0.00005
13.37000 18696.00000 19084.96292 0.00005
13.38500 18469.00000 19109.01049 0.00005
13.40000 18291.00000 18681.11962 0.00005
13.41500 18030.00000 17911.70158 0.00006
13.43000 17846.00000 17700.38372 0.00006
13.44500 18331.00000 18359.28624 0.00005
13.46000 19927.00000 19683.64032 0.00005
13.47500 21626.00000 21461.43275 0.00005
13.49000 23127.00000 23241.00020 0.00004
13.50500 24732.00000 24725.51874 0.00004
13.52000 26461.00000 26357.22794 0.00004
13.53500 27661.00000 27295.18526 0.00004
13.55000 26882.00000 26431.14865 0.00004
13.56500 25669.00000 25529.48547 0.00004
13.58000 26222.00000 26781.04647 0.00004
13.59500 29342.00000 30130.94147 0.00003
13.61000 32342.00000 33100.59528 0.00003
13.62500 31306.00000 31484.95636 0.00003
13.64000 24173.00000 24293.65248 0.00004
13.65500 16382.00000 16713.27145 0.00006
13.67000 11555.00000 12141.07036 0.00009
13.68500 9780.00000 10150.00927 0.00010
13.70000 8913.00000 9337.97447 0.00011
13.71500 8482.00000 8887.72656 0.00012
13.73000 8281.00000 8614.12684 0.00012
13.74500 8223.00000 8493.06116 0.00012
13.76000 8274.00000 8484.42982 0.00012
13.77500 8359.00000 8549.57622 0.00012
13.79000 8496.00000 8668.71163 0.00012
13.80500 8688.00000 8836.82446 0.00012
13.82000 8740.00000 9055.53553 0.00011
13.83500 8977.00000 9329.99404 0.00011
13.85000 9394.00000 9670.91419 0.00011
13.86500 9909.00000 10099.92198 0.00010
13.88000 10440.00000 10653.34538 0.00010
13.89500 11306.00000 11364.20275 0.00009
13.91000 11899.00000 12200.70092 0.00008
13.92500 12772.00000 13002.50710 0.00008
13.94000 13194.00000 13586.08120 0.00008
13.95500 13606.00000 14001.84781 0.00007
13.97000 13804.00000 14434.38516 0.00007
13.98500 14007.00000 14620.90270 0.00007
14.00000 13544.00000 14136.48544 0.00007
14.01500 12949.00000 13060.46518 0.00008
14.03000 12161.00000 12100.24390 0.00008
14.04500 11625.00000 11465.66387 0.00009
14.06000 11038.00000 10981.69705 0.00009
14.07500 10307.00000 10700.13558 0.00010
14.09000 9928.00000 10431.62392 0.00010
14.10500 9855.00000 10112.80656 0.00010
14.12000 9955.00000 10057.83920 0.00010
14.13500 10352.00000 10389.37696 0.00010
14.15000 10810.00000 10828.78554 0.00009
14.16500 10982.00000 10872.56470 0.00009
14.18000 10471.00000 10635.98429 0.00010
14.19500 10619.00000 10676.39321 0.00009
14.21000 11038.00000 11031.94872 0.00009
14.22500 11519.00000 11223.41350 0.00009
14.24000 10789.00000 10680.30077 0.00009
14.25500 9547.00000 9662.57742 0.00010
14.27000 8761.00000 8882.50084 0.00011
14.28500 8317.00000 8387.65528 0.00012
14.30000 7935.00000 7885.20418 0.00013
14.31500 7291.00000 7360.71222 0.00014
14.33000 6769.00000 6970.16354 0.00015
14.34500 6736.00000 6749.20748 0.00015
14.36000 6594.00000 6596.59062 0.00015
14.37500 6470.00000 6459.43407 0.00015
14.39000 6355.00000 6364.78421 0.00016
14.40500 6399.00000 6313.69515 0.00016
14.42000 6286.00000 6290.41225 0.00016
14.43500 6312.00000 6283.29587 0.00016
14.45000 6319.00000 6286.25401 0.00016
14.46500 6331.00000 6296.21622 0.00016
14.48000 6374.00000 6312.23526 0.00016
14.49500 6404.00000 6334.38531 0.00016
14.51000 6427.00000 6363.00441 0.00016
14.52500 6393.00000 6398.32089 0.00016
14.54000 6430.00000 6440.74866 0.00016
14.55500 6542.00000 6491.21802 0.00015
14.57000 6620.00000 6551.73596 0.00015
14.58500 6730.00000 6625.24158 0.00015
14.60000 6852.00000 6718.01519 0.00015
14.61500 6975.00000 6841.88118 0.00014
14.63000 7151.00000 7007.64431 0.00014
14.64500 7238.00000 7197.96531 0.00014
14.66000 7228.00000 7357.49066 0.00014
14.67500 7409.00000 7500.75333 0.00013
14.69000 7619.00000 7722.10349 0.00013
14.70500 7771.00000 8058.45207 0.00013
14.72000 8297.00000 8518.73438 0.00012
14.73500 8502.00000 9084.45722 0.00012
14.75000 9067.00000 9616.12287 0.00011
14.76500 9488.00000 9808.94220 0.00011
14.78000 9225.00000 9494.04640 0.00011
14.79500 8762.00000 9050.90127 0.00011
14.81000 8582.00000 8861.83507 0.00012
14.82500 8672.00000 8959.40180 0.00012
14.84000 8848.00000 9246.03583 0.00011
14.85500 9196.00000 9654.15488 0.00011
14.87000 9795.00000 10170.30159 0.00010
14.88500 10446.00000 10777.98140 0.00010
14.90000 11193.00000 11374.90868 0.00009
14.91500 11674.00000 11845.01593 0.00009
14.93000 12452.00000 12369.32288 0.00008
14.94500 13365.00000 13186.18091 0.00007
14.96000 14448.00000 14371.25520 0.00007
14.97500 16293.00000 16021.59934 0.00006
14.99000 18663.00000 18340.52088 0.00005
15.00500 22153.00000 21419.51719 0.00005
15.02000 25953.00000 24574.44392 0.00004
15.03500 27615.00000 25730.28898 0.00004
15.05000 24391.00000 22703.72763 0.00004
15.06500 17862.00000 17099.19441 0.00006
15.08000 12410.00000 12552.64127 0.00008
15.09500 9825.00000 10149.80616 0.00010
15.11000 9176.00000 9233.39983 0.00011
15.12500 8886.00000 9003.51952 0.00011
15.14000 9016.00000 9047.37338 0.00011
15.15500 9156.00000 9228.81159 0.00011
15.17000 9547.00000 9515.90657 0.00010
15.18500 9873.00000 9908.85099 0.00010
15.20000 10381.00000 10414.58089 0.00010
15.21500 11120.00000 11028.26644 0.00009
15.23000 12083.00000 11734.25299 0.00008
15.24500 12883.00000 12566.98148 0.00008
15.26000 14180.00000 13693.76192 0.00007
15.27500 15748.00000 15335.76732 0.00006
15.29000 17994.00000 17549.43636 0.00006
15.30500 20333.00000 19791.44972 0.00005
15.32000 20946.00000 20550.10750 0.00005
15.33500 18963.00000 18346.22953 0.00005
15.35000 14983.00000 14440.80359 0.00007
15.36500 11443.00000 11372.43509 0.00009
15.38000 9765.00000 9843.57190 0.00010
15.39500 9204.00000 9310.76720 0.00011
15.41000 8908.00000 9086.17398 0.00011
15.42500 8597.00000 8878.69082 0.00012
15.44000 8462.00000 8784.77783 0.00012
15.45500 8641.00000 8866.60326 0.00012
15.47000 8934.00000 9042.84930 0.00011
15.48500 9255.00000 9286.04277 0.00011
15.50000 9636.00000 9705.29749 0.00010
15.51500 10113.00000 10383.60536 0.00010
15.53000 11348.00000 11351.60018 0.00009
15.54500 12499.00000 12513.38777 0.00008
15.56000 13516.00000 13485.44166 0.00007
15.57500 13712.00000 13545.69081 0.00007
15.59000 12436.00000 12297.04482 0.00008
15.60500 10505.00000 10588.52295 0.00010
15.62000 9166.00000 9205.65221 0.00011
15.63500 8121.00000 8248.06883 0.00012
15.65000 7521.00000 7683.87666 0.00013
15.66500 7318.00000 7416.36830 0.00014
15.68000 7258.00000 7332.74527 0.00014
15.69500 7299.00000 7381.82884 0.00014
15.71000 7653.00000 7555.44883 0.00013
15.72500 7741.00000 7878.89736 0.00013
15.74000 8347.00000 8407.78546 0.00012
15.75500 9186.00000 9082.25123 0.00011
15.77000 9553.00000 9398.49280 0.00010
15.78500 8932.00000 8679.12373 0.00011
15.80000 7824.00000 7533.93509 0.00013
15.81500 6898.00000 6884.48585 0.00014
15.83000 6521.00000 6711.62824 0.00015
15.84500 6500.00000 6720.46291 0.00015
15.86000 6530.00000 6729.49572 0.00015
15.87500 6558.00000 6688.68840 0.00015
15.89000 6515.00000 6597.19548 0.00015
15.90500 6463.00000 6470.90312 0.00015
15.92000 6491.00000 6386.58225 0.00015
15.93500 6529.00000 6404.92136 0.00015
15.95000 6727.00000 6527.80255 0.00015
15.96500 6782.00000 6697.93130 0.00015
15.98000 6909.00000 6792.86943 0.00014
15.99500 6820.00000 6778.04313 0.00015
16.01000 6855.00000 6784.25989 0.00015
16.02500 6789.00000 6846.31461 0.00015
16.04000 6770.00000 6953.29564 0.00015
16.05500 7034.00000 7122.66792 0.00014
16.07000 7169.00000 7365.68386 0.00014
16.08500 7508.00000 7672.47115 0.00013
16.10000 7685.00000 8006.37524 0.00013
16.11500 7944.00000 8310.30863 0.00013
16.13000 8297.00000 8570.87834 0.00012
16.14500 8666.00000 8876.09533 0.00012
16.16000 9046.00000 9311.44568 0.00011
16.17500 9735.00000 9915.77694 0.00010
16.19000 10597.00000 10725.21745 0.00009
16.20500 11622.00000 11773.53265 0.00009
16.22000 12782.00000 12996.04609 0.00008
16.23500 13829.00000 14089.84099 0.00007
16.25000 14296.00000 14575.15887 0.00007
16.26500 14142.00000 14440.61979 0.00007
16.28000 14254.00000 14337.36154 0.00007
16.29500 14754.00000 14463.24085 0.00007
16.31000 14765.00000 14312.79244 0.00007
16.32500 13638.00000 13532.22595 0.00007
16.34000 12140.00000 12483.68681 0.00008
16.35500 11645.00000 11868.33538 0.00009
16.37000 11673.00000 11937.19350 0.00009
16.38500 12141.00000 12405.51786 0.00008
16.40000 12567.00000 12811.74871 0.00008
16.41500 12977.00000 12936.04471 0.00008
16.43000 12585.00000 12733.23344 0.00008
16.44500 12164.00000 12190.68657 0.00008
16.46000 11586.00000 11699.63521 0.00009
16.47500 11431.00000 11387.04578 0.00009
16.49000 10847.00000 10800.40426 0.00009
16.50500 9749.00000 9733.01049 0.00010
16.52000 8303.00000 8639.20590 0.00012
16.53500 7622.00000 7938.22042 0.00013
16.55000 7310.00000 7649.29340 0.00014
16.56500 7308.00000 7585.96900 0.00014
16.58000 7487.00000 7638.60796 0.00013
16.59500 7600.00000 7816.15835 0.00013
16.61000 7992.00000 8127.01132 0.00013
16.62500 8328.00000 8585.40375 0.00012
16.64000 9104.00000 9224.41201 0.00011
16.65500 9974.00000 10023.54736 0.00010
16.67000 10900.00000 10757.08791 0.00009
16.68500 11313.00000 10977.38297 0.00009
16.70000 10803.00000 10506.48896 0.00009
16.71500 9972.00000 9883.55128 0.00010
16.73000 9464.00000 9660.40147 0.00011
16.74500 9651.00000 9827.52417 0.00010
16.76000 9777.00000 9915.82079 0.00010
16.77500 9285.00000 9360.67237 0.00011
16.79000 8353.00000 8289.29067 0.00012
16.80500 7522.00000 7425.65503 0.00013
16.82000 7082.00000 7010.09199 0.00014
16.83500 6883.00000 6921.02876 0.00015
16.85000 7142.00000 7018.41693 0.00014
16.86500 7234.00000 7243.61981 0.00014
16.88000 7579.00000 7597.72497 0.00013
16.89500 8142.00000 8079.53345 0.00012
16.91000 8695.00000 8589.41846 0.00012
16.92500 9017.00000 8848.27210 0.00011
16.94000 8725.00000 8522.71805 0.00011
16.95500 7839.00000 7705.92689 0.00013
16.97000 6883.00000 6897.29826 0.00015
16.98500 6196.00000 6390.55111 0.00016
17.00000 6092.00000 6179.72124 0.00016
17.01500 6093.00000 6156.48449 0.00016
17.03000 6133.00000 6227.43862 0.00016
17.04500 6277.00000 6322.89980 0.00016
17.06000 6328.00000 6376.83904 0.00016
17.07500 6252.00000 6346.24986 0.00016
17.09000 6061.00000 6224.24942 0.00016
17.10500 5880.00000 6068.03170 0.00017
17.12000 5869.00000 5966.38401 0.00017
17.13500 5851.00000 5942.55069 0.00017
17.15000 5839.00000 5973.88739 0.00017
17.16500 5878.00000 6039.42203 0.00017
17.18000 6057.00000 6143.81090 0.00017
17.19500 6170.00000 6305.23278 0.00016
17.21000 6413.00000 6537.31428 0.00016
17.22500 6800.00000 6824.22232 0.00015
17.24000 7222.00000 7080.26683 0.00014
17.25500 7393.00000 7141.56517 0.00014
17.27000 6973.00000 6913.13907 0.00014
17.28500 6425.00000 6502.22044 0.00016
17.30000 6180.00000 6058.81255 0.00016
17.31500 5750.00000 5688.10123 0.00017
17.33000 5344.00000 5444.43502 0.00019
17.34500 5187.00000 5312.96812 0.00019
17.36000 5072.00000 5251.62527 0.00020
17.37500 5075.00000 5226.28722 0.00020
17.39000 5173.00000 5218.16245 0.00019
17.40500 5096.00000 5219.39021 0.00020
17.42000 5061.00000 5227.01716 0.00020
17.43500 5168.00000 5240.31270 0.00019
17.45000 5219.00000 5259.33040 0.00019
17.46500 5115.00000 5284.57074 0.00020
17.48000 5207.00000 5316.55394 0.00019
17.49500 5300.00000 5355.70001 0.00019
17.51000 5310.00000 5402.63242 0.00019
17.52500 5373.00000 5458.04672 0.00019
17.54000 5471.00000 5522.84837 0.00018
17.55500 5568.00000 5598.50932 0.00018
17.57000 5703.00000 5688.26301 0.00018
17.58500 5685.00000 5796.32009 0.00018
17.60000 5925.00000 5930.41840 0.00017
17.61500 6137.00000 6103.17514 0.00016
17.63000 6465.00000 6332.10362 0.00015
17.64500 6792.00000 6630.63145 0.00015
17.66000 6986.00000 6967.75790 0.00014
17.67500 7203.00000 7193.74508 0.00014
17.69000 7013.00000 7092.09994 0.00014
17.70500 6666.00000 6768.15642 0.00015
17.72000 6628.00000 6553.49184 0.00015
17.73500 6486.00000 6515.47788 0.00015
17.75000 6680.00000 6608.21525 0.00015
17.76500 6770.00000 6797.50844 0.00015
17.78000 7091.00000 7014.57282 0.00014
17.79500 7205.00000 7144.75973 0.00014
17.81000 7260.00000 7123.55486 0.00014
17.82500 7189.00000 7020.36771 0.00014
17.84000 6934.00000 6891.67605 0.00014
17.85500 6728.00000 6744.30331 0.00015
17.87000 6629.00000 6661.73530 0.00015
17.88500 6730.00000 6731.12850 0.00015
17.90000 7053.00000 6970.82977 0.00014
17.91500 7449.00000 7320.58795 0.00013
17.93000 7680.00000 7598.13693 0.00013
17.94500 7713.00000 7596.95050 0.00013
17.96000 7492.00000 7349.43678 0.00013
17.97500 7091.00000 7069.32164 0.00014
17.99000 6928.00000 6886.31746 0.00014
18.00500 6865.00000 6798.62680 0.00015
18.02000 6864.00000 6785.21267 0.00015
18.03500 6859.00000 6877.36360 0.00015
18.05000 7097.00000 7115.27939 0.00014
18.06500 7562.00000 7495.47735 0.00013
18.08000 7888.00000 7906.64704 0.00013
18.09500 8226.00000 8124.39779 0.00012
18.11000 8086.00000 8075.03984 0.00012
18.12500 7945.00000 7872.36619 0.00013
18.14000 7537.00000 7597.97714 0.00013
18.15500 7414.00000 7433.42932 0.00013
18.17000 7474.00000 7482.94292 0.00013
18.18500 7573.00000 7676.27004 0.00013
18.20000 7834.00000 7818.71598 0.00013
18.21500 7788.00000 7733.84503 0.00013
18.23000 7611.00000 7516.51152 0.00013
18.24500 7565.00000 7420.46178 0.00013
18.26000 7576.00000 7507.25251 0.00013
18.27500 7551.00000 7622.17860 0.00013
18.29000 7581.00000 7536.92043 0.00013
18.30500 7240.00000 7236.92753 0.00014
18.32000 6944.00000 6949.67291 0.00014
18.33500 6713.00000 6752.76480 0.00015
18.35000 6458.00000 6562.24095 0.00015
18.36500 6295.00000 6349.65474 0.00016
18.38000 6086.00000 6176.69863 0.00016
18.39500 6127.00000 6097.90779 0.00016
18.41000 6162.00000 6121.73911 0.00016
18.42500 6095.00000 6222.35550 0.00016
18.44000 6301.00000 6372.85058 0.00016
18.45500 6533.00000 6576.86139 0.00015
18.47000 6805.00000 6862.11450 0.00015
18.48500 7290.00000 7256.36373 0.00014
18.50000 7787.00000 7750.81931 0.00013
18.51500 8183.00000 8194.07147 0.00012
18.53000 8268.00000 8298.68630 0.00012
18.54500 8382.00000 8149.04217 0.00012
18.56000 8327.00000 8196.36176 0.00012
18.57500 8544.00000 8533.92286 0.00012
18.59000 9172.00000 9034.49193 0.00011
18.60500 9953.00000 9583.10803 0.00010
18.62000 10806.00000 10098.63413 0.00009
18.63500 11238.00000 10403.81507 0.00009
18.65000 10986.00000 10344.97558 0.00009
18.66500 10414.00000 10102.61852 0.00010
18.68000 9952.00000 9877.42343 0.00010
18.69500 9860.00000 9751.99311 0.00010
18.71000 10077.00000 9795.40864 0.00010
18.72500 10471.00000 10070.49158 0.00010
18.74000 11219.00000 10532.23658 0.00009
18.75500 12067.00000 11002.58540 0.00008
18.77000 12260.00000 11213.33753 0.00008
18.78500 11762.00000 10925.10678 0.00009
18.80000 10637.00000 10236.16165 0.00009
18.81500 9696.00000 9587.66482 0.00010
18.83000 9427.00000 9312.30402 0.00011
18.84500 9445.00000 9475.55121 0.00011
18.86000 10041.00000 10017.37125 0.00010
18.87500 10852.00000 10863.73961 0.00009
18.89000 11934.00000 11917.39004 0.00008
18.90500 13101.00000 12998.62245 0.00008
18.92000 13999.00000 13869.70010 0.00007
18.93500 14703.00000 14523.45776 0.00007
18.95000 15540.00000 15283.61422 0.00006
18.96500 16854.00000 16153.02721 0.00006
18.98000 17196.00000 16550.45673 0.00006
18.99500 16486.00000 15986.21822 0.00006
19.01000 15164.00000 15043.73465 0.00007
19.02500 14064.00000 14534.37470 0.00007
19.04000 13808.00000 14414.33966 0.00007
19.05500 14007.00000 14282.21286 0.00007
19.07000 14323.00000 14408.72892 0.00007
19.08500 14994.00000 15102.16947 0.00007
19.10000 16050.00000 16292.54909 0.00006
19.11500 18141.00000 17833.19551 0.00006
19.13000 20139.00000 19398.12071 0.00005
19.14500 21952.00000 20485.59309 0.00005
19.16000 22278.00000 20637.63276 0.00004
19.17500 21128.00000 19765.47236 0.00005
19.19000 20126.00000 18502.32370 0.00005
19.20500 19059.00000 17123.14105 0.00005
19.22000 17069.00000 15215.88041 0.00006
19.23500 14045.00000 12979.34122 0.00007
19.25000 11066.00000 11236.51617 0.00009
19.26500 9590.00000 10288.23499 0.00010
19.28000 9069.00000 9881.57393 0.00011
19.29500 8898.00000 9636.55579 0.00011
19.31000 8870.00000 9418.15700 0.00011
19.32500 8904.00000 9277.75105 0.00011
19.34000 8783.00000 9193.88326 0.00011
19.35500 8814.00000 9153.88811 0.00011
19.37000 8917.00000 9140.56915 0.00011
19.38500 9089.00000 9028.38921 0.00011
19.40000 9033.00000 8766.88429 0.00011
19.41500 8828.00000 8448.40779 0.00011
19.43000 8471.00000 8108.42803 0.00012
19.44500 8102.00000 7660.03235 0.00012
19.46000 7417.00000 7168.07282 0.00013
19.47500 6933.00000 6835.60383 0.00014
19.49000 6738.00000 6734.81587 0.00015
19.50500 6646.00000 6812.62127 0.00015
19.52000 6836.00000 6980.67049 0.00015
19.53500 7082.00000 7185.73116 0.00014
19.55000 7300.00000 7434.30736 0.00014
19.56500 7546.00000 7735.39066 0.00013
19.58000 7912.00000 8091.80375 0.00013
19.59500 8400.00000 8528.43626 0.00012
19.61000 8962.00000 9059.78643 0.00011
19.62500 9556.00000 9706.30963 0.00010
19.64000 10449.00000 10513.38697 0.00010
19.65500 11460.00000 11542.04082 0.00009
19.67000 12873.00000 12859.42319 0.00008
19.68500 14612.00000 14507.13557 0.00007
19.70000 17066.00000 16409.74257 0.00006
19.71500 19287.00000 18255.71924 0.00005
19.73000 20727.00000 19369.95535 0.00005
19.74500 19920.00000 18906.83245 0.00005
19.76000 17405.00000 16943.70684 0.00006
19.77500 14154.00000 14504.18298 0.00007
19.79000 11634.00000 12202.81016 0.00009
19.80500 9983.00000 10233.44720 0.00010
19.82000 8868.00000 8813.13069 0.00011
19.83500 8034.00000 8009.70356 0.00012
19.85000 7717.00000 7655.40672 0.00013
19.86500 7545.00000 7510.09152 0.00013
19.88000 7444.00000 7410.37653 0.00013
19.89500 7342.00000 7353.01646 0.00014
19.91000 7406.00000 7398.43219 0.00014
19.92500 7667.00000 7580.44271 0.00013
19.94000 8072.00000 7894.11003 0.00012
19.95500 8483.00000 8324.16298 0.00012
19.97000 9112.00000 8864.58173 0.00011
19.98500 9881.00000 9505.82059 0.00010
20.00000 10670.00000 10227.39141 0.00009
20.01500 11497.00000 11052.86455 0.00009
20.03000 12579.00000 12104.79809 0.00008
20.04500 13434.00000 13389.60625 0.00007
20.06000 14333.00000 14510.68832 0.00007
20.07500 14665.00000 14948.21465 0.00007
20.09000 14335.00000 14451.90674 0.00007
20.10500 13132.00000 12961.45367 0.00008
20.12000 11416.00000 11188.84428 0.00009
20.13500 10231.00000 9900.04380 0.00010
20.15000 9485.00000 9286.82064 0.00011
20.16500 9515.00000 9246.84349 0.00011
20.18000 9716.00000 9582.60257 0.00010
20.19500 10197.00000 10066.62711 0.00010
20.21000 10834.00000 10480.73427 0.00009
20.22500 11400.00000 10736.32557 0.00009
20.24000 11794.00000 10849.56105 0.00008
20.25500 11752.00000 10726.16747 0.00009
20.27000 11011.00000 10351.37368 0.00009
20.28500 10353.00000 9986.35343 0.00010
20.30000 9653.00000 9861.91905 0.00010
20.31500 9690.00000 9970.10424 0.00010
20.33000 10162.00000 10196.95845 0.00010
20.34500 10723.00000 10563.50931 0.00009
20.36000 11672.00000 11184.15930 0.00009
20.37500 12491.00000 11987.41371 0.00008
20.39000 13422.00000 12636.83095 0.00007
20.40500 13568.00000 12707.20046 0.00007
20.42000 12617.00000 12018.47801 0.00008
20.43500 10944.00000 10747.55605 0.00009
20.45000 9454.00000 9447.98636 0.00011
20.46500 8363.00000 8591.17404 0.00012
20.48000 7923.00000 8268.43817 0.00013
20.49500 7949.00000 8378.17731 0.00013
20.51000 8309.00000 8781.41872 0.00012
20.52500 8809.00000 9353.15145 0.00011
20.54000 9349.00000 9975.29141 0.00011
20.55500 9864.00000 10560.78061 0.00010
20.57000 10368.00000 11171.31897 0.00010
20.58500 10978.00000 11930.50200 0.00009
20.60000 11514.00000 12685.88973 0.00009
20.61500 11779.00000 12945.32730 0.00008
20.63000 11443.00000 12270.02910 0.00009
20.64500 10466.00000 11001.21843 0.00010
20.66000 9511.00000 9933.86561 0.00011
20.67500 9096.00000 9453.86049 0.00011
20.69000 9249.00000 9563.69959 0.00011
20.70500 9741.00000 10138.23847 0.00010
20.72000 10721.00000 11006.06814 0.00009
20.73500 11471.00000 11867.32368 0.00009
20.75000 11860.00000 12266.35459 0.00008
20.76500 11303.00000 11868.37905 0.00009
20.78000 10273.00000 10666.41298 0.00010
20.79500 8879.00000 9094.34980 0.00011
20.81000 7712.00000 7736.59544 0.00013
20.82500 6722.00000 6831.06359 0.00015
20.84000 6188.00000 6346.96550 0.00016
20.85500 6071.00000 6153.88116 0.00016
20.87000 6225.00000 6132.58796 0.00016
20.88500 6258.00000 6213.62389 0.00016
20.90000 6283.00000 6366.94691 0.00016
20.91500 6532.00000 6583.80840 0.00015
20.93000 6864.00000 6868.26267 0.00015
20.94500 7055.00000 7234.67760 0.00014
20.96000 7528.00000 7692.17067 0.00013
20.97500 8129.00000 8226.89353 0.00012
20.99000 8700.00000 8795.58286 0.00011
21.00500 9307.00000 9345.93425 0.00011
21.02000 9560.00000 9811.60306 0.00010
21.03500 9966.00000 10072.45448 0.00010
21.05000 10006.00000 10045.33684 0.00010
21.06500 9372.00000 9680.99131 0.00011
21.08000 8916.00000 9076.63696 0.00011
21.09500 8468.00000 8583.94581 0.00012
21.11000 8474.00000 8453.26462 0.00012
21.12500 8824.00000 8713.11911 0.00011
21.14000 9670.00000 9259.20646 0.00010
21.15500 10732.00000 9884.23170 0.00009
21.17000 11190.00000 10284.28340 0.00009
21.18500 11251.00000 10189.69581 0.00009
21.20000 10588.00000 9656.37131 0.00009
21.21500 9558.00000 9060.94510 0.00010
21.23000 8908.00000 8664.06427 0.00011
21.24500 8669.00000 8459.59475 0.00012
21.26000 8593.00000 8391.14312 0.00012
21.27500 8590.00000 8440.91875 0.00012
21.29000 8774.00000 8604.10746 0.00011
21.30500 8976.00000 8899.20666 0.00011
21.32000 9237.00000 9251.55968 0.00011
21.33500 9580.00000 9472.37316 0.00010
21.35000 9493.00000 9404.72868 0.00011
21.36500 9276.00000 9040.66377 0.00011
21.38000 8771.00000 8566.92945 0.00011
21.39500 8249.00000 8223.53562 0.00012
21.41000 8145.00000 8141.23953 0.00012
21.42500 8189.00000 8353.50504 0.00012
21.44000 8662.00000 8813.00730 0.00012
21.45500 9244.00000 9407.35419 0.00011
21.47000 9769.00000 9976.84666 0.00010
21.48500 10290.00000 10453.60915 0.00010
21.50000 10645.00000 10893.53178 0.00009
21.51500 10814.00000 11123.56615 0.00009
21.53000 10318.00000 10737.13963 0.00010
21.54500 9298.00000 9664.05194 0.00011
21.56000 8318.00000 8432.45333 0.00012
21.57500 7541.00000 7487.22360 0.00013
21.59000 7027.00000 6914.37200 0.00014
21.60500 6778.00000 6658.65532 0.00015
21.62000 6908.00000 6649.07000 0.00014
21.63500 6816.00000 6826.39628 0.00015
21.65000 7151.00000 7141.97804 0.00014
21.66500 7477.00000 7521.36851 0.00013
21.68000 7786.00000 7822.93358 0.00013
21.69500 7673.00000 7850.15429 0.00013
21.71000 7446.00000 7535.36021 0.00013
21.72500 7320.00000 7111.61566 0.00014
21.74000 7180.00000 6865.92371 0.00014
21.75500 7480.00000 6907.50180 0.00013
21.77000 7737.00000 7193.33895 0.00013
21.78500 8062.00000 7546.65856 0.00012
21.80000 8272.00000 7651.43679 0.00012
21.81500 7979.00000 7306.23489 0.00013
21.83000 7369.00000 6748.87529 0.00014
21.84500 6860.00000 6305.55992 0.00015
21.86000 6302.00000 6088.15331 0.00016
21.87500 6122.00000 6063.35604 0.00016
21.89000 6070.00000 6158.56314 0.00016
21.90500 6329.00000 6316.59009 0.00016
21.92000 6322.00000 6549.14041 0.00016
21.93500 6636.00000 6889.56313 0.00015
21.95000 7197.00000 7358.37581 0.00014
21.96500 7790.00000 7972.68784 0.00013
21.98000 8360.00000 8673.17873 0.00012
21.99500 8825.00000 9216.61229 0.00011
22.01000 9052.00000 9267.26972 0.00011
22.02500 8828.00000 8865.77158 0.00011
22.04000 8490.00000 8430.47654 0.00012
22.05500 8416.00000 8222.78655 0.00012
22.07000 8362.00000 8236.57954 0.00012
22.08500 8414.00000 8354.98842 0.00012
22.10000 8338.00000 8368.19630 0.00012
22.11500 8022.00000 8067.19375 0.00012
22.13000 7398.00000 7483.49268 0.00014
22.14500 6861.00000 6843.61815 0.00015
22.16000 6432.00000 6338.79500 0.00016
22.17500 6075.00000 6038.13351 0.00016
22.19000 5920.00000 5917.13982 0.00017
22.20500 5992.00000 5931.98465 0.00017
22.22000 6052.00000 6038.49562 0.00017
22.23500 6153.00000 6201.04359 0.00016
22.25000 6185.00000 6398.73251 0.00016
22.26500 6364.00000 6612.49170 0.00016
22.28000 6577.00000 6852.56741 0.00015
22.29500 6886.00000 7135.03013 0.00015
22.31000 7078.00000 7428.67123 0.00014
22.32500 7270.00000 7679.25510 0.00014
22.34000 7338.00000 7885.20640 0.00014
22.35500 7426.00000 8071.89440 0.00013
22.37000 7576.00000 8177.70410 0.00013
22.38500 7643.00000 8106.16142 0.00013
22.40000 7933.00000 7920.64312 0.00013
22.41500 7955.00000 7788.57515 0.00013
22.43000 8088.00000 7785.13105 0.00012
22.44500 8282.00000 7852.48805 0.00012
22.46000 8317.00000 7828.12427 0.00012
22.47500 7912.00000 7585.69676 0.00013
22.49000 7378.00000 7138.68149 0.00014
22.50500 6714.00000 6627.26245 0.00015
22.52000 6153.00000 6229.81845 0.00016
22.53500 5839.00000 6006.23261 0.00017
22.55000 5852.00000 5928.92846 0.00017
22.56500 5974.00000 5975.34290 0.00017
22.58000 6189.00000 6129.12185 0.00016
22.59500 6451.00000 6361.34044 0.00016
22.61000 6651.00000 6621.18750 0.00015
22.62500 6894.00000 6870.23431 0.00015
22.64000 7114.00000 7172.02680 0.00014
22.65500 7426.00000 7610.59400 0.00013
22.67000 7858.00000 8198.93509 0.00013
22.68500 8552.00000 8874.35258 0.00012
22.70000 9082.00000 9490.74929 0.00011
22.71500 9098.00000 9835.62986 0.00011
22.73000 8731.00000 9655.77184 0.00011
22.74500 8274.00000 8851.73997 0.00012
22.76000 7510.00000 7738.80894 0.00013
22.77500 6667.00000 6761.54978 0.00015
22.79000 6216.00000 6114.96956 0.00016
22.80500 5888.00000 5782.17229 0.00017
22.82000 5913.00000 5681.38389 0.00017
22.83500 6005.00000 5744.97088 0.00017
22.85000 6255.00000 5929.28945 0.00016
22.86500 6409.00000 6165.66179 0.00016
22.88000 6483.00000 6314.99171 0.00015
22.89500 6425.00000 6287.34922 0.00016
22.91000 6570.00000 6232.78641 0.00015
22.92500 6707.00000 6273.56963 0.00015
22.94000 6759.00000 6354.93032 0.00015
22.95500 6736.00000 6411.01250 0.00015
22.97000 6534.00000 6442.44320 0.00015
22.98500 6379.00000 6472.80128 0.00016
23.00000 6391.00000 6547.80917 0.00016
23.01500 6584.00000 6687.43518 0.00015
23.03000 6655.00000 6850.72603 0.00015
23.04500 6629.00000 7042.96859 0.00015
23.06000 6764.00000 7338.27665 0.00015
23.07500 7207.00000 7759.43187 0.00014
23.09000 7521.00000 8208.82421 0.00013
23.10500 7833.00000 8477.20859 0.00013
23.12000 7669.00000 8331.67882 0.00013
23.13500 7511.00000 7767.55874 0.00013
23.15000 7055.00000 7093.27175 0.00014
23.16500 6584.00000 6574.42408 0.00015
23.18000 6345.00000 6291.56896 0.00016
23.19500 6280.00000 6224.22552 0.00016
23.21000 6430.00000 6313.42059 0.00016
23.22500 6666.00000 6497.36094 0.00015
23.24000 6840.00000 6693.71411 0.00015
23.25500 6940.00000 6761.47310 0.00014
23.27000 6831.00000 6553.36404 0.00015
23.28500 6422.00000 6105.65125 0.00016
23.30000 5736.00000 5629.47557 0.00017
23.31500 5304.00000 5273.02360 0.00019
23.33000 5158.00000 5060.46151 0.00019
23.34500 5037.00000 4962.84758 0.00020
23.36000 5039.00000 4946.32473 0.00020
23.37500 5001.00000 4986.33883 0.00020
23.39000 5151.00000 5069.69868 0.00019
23.40500 5302.00000 5189.71156 0.00019
23.42000 5509.00000 5331.00087 0.00018
23.43500 5603.00000 5474.67424 0.00018
23.45000 5831.00000 5648.30279 0.00017
23.46500 6018.00000 5879.08458 0.00017
23.48000 6423.00000 6155.13209 0.00016
23.49500 6638.00000 6452.92604 0.00015
23.51000 7023.00000 6753.77204 0.00014
23.52500 7413.00000 7046.58574 0.00013
23.54000 7723.00000 7317.39541 0.00013
23.55500 7939.00000 7534.25663 0.00013
23.57000 8142.00000 7681.50940 0.00012
23.58500 8240.00000 7788.04498 0.00012
23.60000 8217.00000 7907.33979 0.00012
23.61500 8305.00000 8080.93781 0.00012
23.63000 8281.00000 8229.64489 0.00012
23.64500 8109.00000 8170.95647 0.00012
23.66000 7640.00000 7856.09077 0.00013
23.67500 7391.00000 7480.32895 0.00014
23.69000 7051.00000 7203.89439 0.00014
23.70500 6705.00000 6976.71768 0.00015
23.72000 6530.00000 6766.36556 0.00015
23.73500 6446.00000 6644.70792 0.00016
23.75000 6526.00000 6661.88163 0.00015
23.76500 6554.00000 6816.55811 0.00015
23.78000 6936.00000 7081.69861 0.00014
23.79500 7282.00000 7385.64392 0.00014
23.81000 7458.00000 7604.69517 0.00013
23.82500 7461.00000 7626.27694 0.00013
23.84000 7171.00000 7439.40434 0.00014
23.85500 6840.00000 7139.83043 0.00015
23.87000 6475.00000 6841.46903 0.00015
23.88500 6284.00000 6666.75972 0.00016
23.90000 6346.00000 6628.69724 0.00016
23.91500 6329.00000 6580.58917 0.00016
23.93000 6259.00000 6373.38731 0.00016
23.94500 5844.00000 6033.62099 0.00017
23.96000 5576.00000 5717.40616 0.00018
23.97500 5464.00000 5521.80684 0.00018
23.99000 5475.00000 5452.44464 0.00018
24.00500 5445.00000 5468.11534 0.00018
24.02000 5454.00000 5523.54762 0.00018
24.03500 5623.00000 5598.60420 0.00018
24.05000 5649.00000 5685.36545 0.00018
24.06500 5756.00000 5772.20997 0.00017
24.08000 5949.00000 5849.98771 0.00017
24.09500 6063.00000 5900.40045 0.00016
24.11000 5959.00000 5905.34052 0.00017
24.12500 5940.00000 5848.95200 0.00017
24.14000 5847.00000 5712.42052 0.00017
24.15500 5613.00000 5518.42450 0.00018
24.17000 5417.00000 5343.62265 0.00018
24.18500 5311.00000 5247.32591 0.00019
24.20000 5306.00000 5242.99593 0.00019
24.21500 5153.00000 5310.87875 0.00019
24.23000 5342.00000 5406.16578 0.00019
24.24500 5367.00000 5469.09789 0.00019
24.26000 5411.00000 5457.55512 0.00018
24.27500 5579.00000 5393.19257 0.00018
24.29000 5588.00000 5330.54070 0.00018
24.30500 5531.00000 5299.79446 0.00018
24.32000 5578.00000 5315.15281 0.00018
24.33500 5665.00000 5378.74527 0.00018
24.35000 5627.00000 5479.48948 0.00018
24.36500 5609.00000 5593.37271 0.00018
24.38000 5777.00000 5701.05019 0.00017
24.39500 5907.00000 5850.70670 0.00017
24.41000 6104.00000 6085.05181 0.00016
24.42500 6278.00000 6386.79079 0.00016
24.44000 6496.00000 6708.56617 0.00015
24.45500 6892.00000 6970.97339 0.00015
24.47000 6964.00000 7111.45907 0.00014
24.48500 7088.00000 7163.17739 0.00014
24.50000 7129.00000 7244.68311 0.00014
24.51500 7401.00000 7437.56488 0.00014
24.53000 7627.00000 7717.13248 0.00013
24.54500 7793.00000 7978.53865 0.00013
24.56000 7842.00000 8146.54721 0.00013
24.57500 7975.00000 8273.92768 0.00013
24.59000 7977.00000 8442.04520 0.00013
24.60500 8360.00000 8673.69649 0.00012
24.62000 8662.00000 8951.96120 0.00012
24.63500 8940.00000 9250.38222 0.00011
24.65000 9456.00000 9583.42466 0.00011
24.66500 9764.00000 9981.67754 0.00010
24.68000 10271.00000 10421.89992 0.00010
24.69500 10444.00000 10776.46239 0.00010
24.71000 10413.00000 10884.24026 0.00010
24.72500 10347.00000 10727.48234 0.00010
24.74000 9803.00000 10383.39052 0.00010
24.75500 9316.00000 9903.52634 0.00011
24.77000 8891.00000 9410.40486 0.00011
24.78500 8308.00000 9075.56033 0.00012
24.80000 7953.00000 8947.59096 0.00013
24.81500 7657.00000 8881.25416 0.00013
24.83000 7617.00000 8632.32485 0.00013
24.84500 7568.00000 8089.82260 0.00013
24.86000 7109.00000 7418.65688 0.00014
24.87500 6627.00000 6814.75845 0.00015
24.89000 6291.00000 6329.28748 0.00016
24.90500 5981.00000 5945.05231 0.00017
24.92000 5837.00000 5661.38049 0.00017
24.93500 5641.00000 5479.25503 0.00018
24.95000 5452.00000 5390.62492 0.00018
24.96500 5576.00000 5392.46849 0.00018
24.98000 5657.00000 5481.36108 0.00018
24.99500 5813.00000 5650.30800 0.00017
25.01000 6031.00000 5888.36818 0.00017
25.02500 6434.00000 6181.32039 0.00016
25.04000 6675.00000 6510.35068 0.00015
25.05500 7052.00000 6836.10615 0.00014
25.07000 7306.00000 7119.86092 0.00014
25.08500 7564.00000 7360.64365 0.00013
25.10000 7805.00000 7567.44721 0.00013
25.11500 7853.00000 7743.61723 0.00013
25.13000 8116.00000 7918.44505 0.00012
25.14500 8385.00000 8150.68693 0.00012
25.16000 8537.00000 8486.78694 0.00012
25.17500 9270.00000 8917.46469 0.00011
25.19000 9891.00000 9414.08562 0.00010
25.20500 10543.00000 9964.05481 0.00009
25.22000 11149.00000 10522.37440 0.00009
25.23500 11650.00000 11028.46377 0.00009
25.25000 12192.00000 11411.87579 0.00008
25.26500 12213.00000 11546.29530 0.00008
25.28000 11778.00000 11382.57110 0.00008
25.29500 11238.00000 11061.31624 0.00009
25.31000 10787.00000 10753.15791 0.00009
25.32500 10483.00000 10518.93879 0.00010
25.34000 10342.00000 10299.31417 0.00010
25.35500 10166.00000 9950.15964 0.00010
25.37000 9654.00000 9440.86236 0.00010
25.38500 8803.00000 8908.24834 0.00011
25.40000 8178.00000 8463.37291 0.00012
25.41500 7766.00000 8022.79213 0.00013
25.43000 7267.00000 7468.98607 0.00014
25.44500 6721.00000 6881.06739 0.00015
25.46000 6353.00000 6403.29809 0.00016
25.47500 6067.00000 6082.02555 0.00016
25.49000 5918.00000 5882.69710 0.00017
25.50500 5796.00000 5747.91661 0.00017
25.52000 5581.00000 5632.56821 0.00018
25.53500 5566.00000 5536.13852 0.00018
25.55000 5542.00000 5493.82099 0.00018
25.56500 5641.00000 5536.96583 0.00018
25.58000 5687.00000 5676.43254 0.00018
25.59500 5806.00000 5900.01444 0.00017
25.61000 5865.00000 6167.30230 0.00017
25.62500 6275.00000 6433.42087 0.00016
25.64000 6587.00000 6667.98559 0.00015
25.65500 6722.00000 6796.88798 0.00015
25.67000 6484.00000 6746.31057 0.00015
25.68500 6506.00000 6548.05771 0.00015
25.70000 6391.00000 6318.20910 0.00016
25.71500 6147.00000 6164.51230 0.00016
25.73000 6189.00000 6156.13191 0.00016
25.74500 6399.00000 6309.26385 0.00016
25.76000 6809.00000 6598.40107 0.00015
25.77500 7002.00000 6975.90688 0.00014
25.79000 7406.00000 7387.15555 0.00014
25.80500 7764.00000 7793.33218 0.00013
25.82000 8141.00000 8201.22865 0.00012
25.83500 8428.00000 8659.97595 0.00012
25.85000 8733.00000 9182.54036 0.00011
25.86500 9212.00000 9727.08275 0.00011
25.88000 9708.00000 10294.97821 0.00010
25.89500 10459.00000 11003.85947 0.00010
25.91000 11240.00000 11841.20875 0.00009
25.92500 11550.00000 12531.05174 0.00009
25.94000 11541.00000 12715.62655 0.00009
25.95500 10986.00000 12212.93626 0.00009
25.97000 9923.00000 11098.40768 0.00010
25.98500 8985.00000 9748.75178 0.00011
26.00000 8061.00000 8596.47868 0.00012
26.01500 7363.00000 7817.94123 0.00014
26.03000 6951.00000 7367.15862 0.00014
26.04500 6918.00000 7119.19720 0.00014
26.06000 6940.00000 6940.11005 0.00014
26.07500 6879.00000 6766.48029 0.00015
26.09000 6672.00000 6586.51401 0.00015
26.10500 6641.00000 6394.88678 0.00015
26.12000 6601.00000 6185.42506 0.00015
26.13500 6315.00000 5953.91844 0.00016
26.15000 6084.00000 5695.62024 0.00016
26.16500 5706.00000 5439.05681 0.00018
26.18000 5464.00000 5225.52970 0.00018
26.19500 5322.00000 5058.37249 0.00019
26.21000 5209.00000 4949.79373 0.00019
26.22500 5042.00000 4924.56326 0.00020
26.24000 5081.00000 4961.30608 0.00020
26.25500 5269.00000 5008.15134 0.00019
26.27000 5273.00000 5047.10070 0.00019
26.28500 5283.00000 5098.50937 0.00019
26.30000 5318.00000 5133.95236 0.00019
26.31500 5250.00000 5103.05345 0.00019
26.33000 5251.00000 5017.52570 0.00019
26.34500 5084.00000 4937.60951 0.00020
26.36000 5042.00000 4905.96358 0.00020
26.37500 5074.00000 4939.35868 0.00020
26.39000 5103.00000 5039.31302 0.00020
26.40500 5240.00000 5201.60683 0.00019
26.42000 5341.00000 5418.08643 0.00019
26.43500 5525.00000 5672.25073 0.00018
26.45000 5740.00000 5940.84717 0.00017
26.46500 5954.00000 6210.04405 0.00017
26.48000 6155.00000 6468.30267 0.00016
26.49500 6330.00000 6683.34118 0.00016
26.51000 6456.00000 6795.36241 0.00015
26.52500 6422.00000 6727.31910 0.00016
26.54000 6224.00000 6437.02965 0.00016
26.55500 6087.00000 6009.61945 0.00016
26.57000 5879.00000 5599.30995 0.00017
26.58500 5528.00000 5290.21199 0.00018
26.60000 5345.00000 5111.49394 0.00019
26.61500 5329.00000 5056.64971 0.00019
26.63000 5257.00000 5090.54488 0.00019
26.64500 5359.00000 5178.26496 0.00019
26.66000 5461.00000 5287.70842 0.00018
26.67500 5528.00000 5381.01234 0.00018
26.69000 5620.00000 5428.53604 0.00018
26.70500 5745.00000 5445.10276 0.00017
26.72000 5650.00000 5477.09015 0.00018
26.73500 5741.00000 5549.35570 0.00017
26.75000 5912.00000 5659.34806 0.00017
26.76500 6022.00000 5801.69572 0.00017
26.78000 6158.00000 5973.05143 0.00016
26.79500 6240.00000 6150.14592 0.00016
26.81000 6456.00000 6301.26461 0.00015
26.82500 6538.00000 6426.45256 0.00015
26.84000 6529.00000 6501.11341 0.00015
26.85500 6612.00000 6472.72955 0.00015
26.87000 6456.00000 6330.00621 0.00015
26.88500 6170.00000 6118.29094 0.00016
26.90000 6031.00000 5877.59222 0.00017
26.91500 5821.00000 5666.72992 0.00017
26.93000 5708.00000 5567.73336 0.00018
26.94500 5861.00000 5620.78737 0.00017
26.96000 5987.00000 5801.06170 0.00017
26.97500 6209.00000 6048.39754 0.00016
26.99000 6290.00000 6263.90300 0.00016
27.00500 6349.00000 6323.04702 0.00016
27.02000 6363.00000 6214.02490 0.00016
27.03500 6285.00000 6084.57549 0.00016
27.05000 6138.00000 6042.59645 0.00016
27.06500 6137.00000 6105.24523 0.00016
27.08000 6254.00000 6252.77969 0.00016
27.09500 6459.00000 6426.41191 0.00015
27.11000 6556.00000 6577.67146 0.00015
27.12500 6560.00000 6689.74886 0.00015
27.14000 6618.00000 6737.75641 0.00015
27.15500 6748.00000 6770.08786 0.00015
27.17000 6775.00000 6856.09397 0.00015
27.18500 6938.00000 7004.01959 0.00014
27.20000 7210.00000 7200.26946 0.00014
27.21500 7430.00000 7446.06251 0.00013
27.23000 7538.00000 7692.12087 0.00013
27.24500 7853.00000 7814.44162 0.00013
27.26000 7621.00000 7652.78476 0.00013
27.27500 7205.00000 7183.56982 0.00014
27.29000 6751.00000 6628.56919 0.00015
27.30500 6285.00000 6178.71634 0.00016
27.32000 5849.00000 5870.43675 0.00017
27.33500 5687.00000 5668.43982 0.00018
27.35000 5521.00000 5528.50734 0.00018
27.36500 5375.00000 5441.86717 0.00019
27.38000 5314.00000 5419.59887 0.00019
27.39500 5237.00000 5456.82629 0.00019
27.41000 5233.00000 5526.41351 0.00019
27.42500 5218.00000 5586.31285 0.00019
27.44000 5328.00000 5596.98526 0.00019
27.45500 5293.00000 5534.70067 0.00019
27.47000 5410.00000 5402.90473 0.00018
27.48500 5232.00000 5254.80716 0.00019
27.50000 5118.00000 5154.43062 0.00020
27.51500 5242.00000 5127.03167 0.00019
27.53000 5320.00000 5163.11649 0.00019
27.54500 5423.00000 5238.10848 0.00018
27.56000 5415.00000 5323.94967 0.00018
27.57500 5451.00000 5380.43287 0.00018
27.59000 5460.00000 5361.30784 0.00018
27.60500 5342.00000 5281.49779 0.00019
27.62000 5301.00000 5189.94963 0.00019
27.63500 5143.00000 5107.76389 0.00019
27.65000 5058.00000 5032.26618 0.00020
27.66500 4845.00000 4945.52285 0.00021
27.68000 4872.00000 4846.00566 0.00021
27.69500 4919.00000 4758.62458 0.00020
27.71000 4867.00000 4700.48683 0.00021
27.72500 5028.00000 4662.36753 0.00020
27.74000 4838.00000 4620.54309 0.00021
27.75500 4815.00000 4567.67938 0.00021
27.77000 4750.00000 4522.87186 0.00021
27.78500 4771.00000 4505.57121 0.00021
27.80000 4727.00000 4517.91369 0.00021
27.81500 4862.00000 4549.86165 0.00021
27.83000 4791.00000 4588.52113 0.00021
27.84500 4858.00000 4627.07276 0.00021
27.86000 4821.00000 4671.11350 0.00021
27.87500 4823.00000 4728.27425 0.00021
27.89000 4953.00000 4806.44058 0.00020
27.90500 4953.00000 4928.54524 0.00020
27.92000 5088.00000 5107.85749 0.00020
27.93500 5289.00000 5340.81055 0.00019
27.95000 5431.00000 5613.44227 0.00018
27.96500 5654.00000 5900.63713 0.00018
27.98000 5930.00000 6168.25508 0.00017
27.99500 6163.00000 6389.10120 0.00016
28.01000 6394.00000 6553.27682 0.00016
28.02500 6467.00000 6665.14591 0.00015
28.04000 6635.00000 6733.24313 0.00015
28.05500 6818.00000 6718.45124 0.00015
28.07000 6653.00000 6600.13858 0.00015
28.08500 6563.00000 6431.71341 0.00015
28.10000 6350.00000 6251.03716 0.00016
28.11500 6263.00000 6074.58347 0.00016
28.13000 6129.00000 5957.53296 0.00016
28.14500 6140.00000 5946.99599 0.00016
28.16000 6119.00000 6045.65524 0.00016
28.17500 6218.00000 6207.93494 0.00016
28.19000 6386.00000 6385.06106 0.00016
28.20500 6544.00000 6530.05265 0.00015
28.22000 6658.00000 6620.61322 0.00015
28.23500 6715.00000 6685.46367 0.00015
28.25000 6655.00000 6776.39734 0.00015
28.26500 6819.00000 6898.72961 0.00015
28.28000 6859.00000 6989.30015 0.00015
28.29500 6870.00000 6975.07514 0.00015
28.31000 6874.00000 6886.04250 0.00015
28.32500 6765.00000 6844.00807 0.00015
28.34000 6813.00000 6924.02844 0.00015
28.35500 7084.00000 7116.91474 0.00014
28.37000 7360.00000 7354.39560 0.00014
28.38500 7387.00000 7520.69110 0.00014
28.40000 7338.00000 7517.75550 0.00014
28.41500 7406.00000 7408.32391 0.00014
28.43000 7368.00000 7353.28429 0.00014
28.44500 7406.00000 7427.98587 0.00014
28.46000 7424.00000 7621.92593 0.00013
28.47500 7700.00000 7856.15151 0.00013
28.49000 7809.00000 8019.45870 0.00013
28.50500 7785.00000 8009.50730 0.00013
28.52000 7760.00000 7787.24059 0.00013
28.53500 7355.00000 7454.96888 0.00014
28.55000 7078.00000 7179.03538 0.00014
28.56500 6934.00000 7045.84926 0.00014
28.58000 7061.00000 7048.37677 0.00014
28.59500 7160.00000 7129.37906 0.00014
28.61000 7312.00000 7221.58211 0.00014
28.62500 7259.00000 7279.09192 0.00014
28.64000 7236.00000 7299.68362 0.00014
28.65500 7157.00000 7297.74495 0.00014
28.67000 7055.00000 7219.49946 0.00014
28.68500 6941.00000 6981.75088 0.00014
28.70000 6451.00000 6572.95127 0.00016
28.71500 5912.00000 6095.31229 0.00017
28.73000 5393.00000 5681.31038 0.00019
28.74500 5399.00000 5404.44696 0.00019
28.76000 5194.00000 5267.82543 0.00019
28.77500 5175.00000 5238.08422 0.00019
28.79000 5070.00000 5271.65317 0.00020
28.80500 5159.00000 5330.29564 0.00019
28.82000 5159.00000 5380.72070 0.00019
28.83500 5236.00000 5390.07801 0.00019
28.85000 5253.00000 5349.67820 0.00019
28.86500 5226.00000 5292.28335 0.00019
28.88000 5289.00000 5250.13117 0.00019
28.89500 5192.00000 5219.78543 0.00019
28.91000 5197.00000 5178.95516 0.00019
28.92500 5163.00000 5127.77070 0.00019
28.94000 5190.00000 5107.72139 0.00019
28.95500 5256.00000 5155.66717 0.00019
28.97000 5275.00000 5283.18693 0.00019
28.98500 5430.00000 5478.86871 0.00018
29.00000 5557.00000 5707.69772 0.00018
29.01500 5686.00000 5902.58541 0.00018
29.03000 5743.00000 5970.11472 0.00017
29.04500 5633.00000 5869.55055 0.00018
29.06000 5615.00000 5657.01694 0.00018
29.07500 5507.00000 5409.81033 0.00018
29.09000 5382.00000 5192.94732 0.00019
29.10500 5323.00000 5023.41080 0.00019
29.12000 5124.00000 4896.95304 0.00020
29.13500 5150.00000 4815.57918 0.00019
29.15000 5027.00000 4787.41755 0.00020
29.16500 4997.00000 4807.86572 0.00020
29.18000 5032.00000 4862.34594 0.00020
29.19500 5211.00000 4929.07313 0.00019
29.21000 5176.00000 4984.59818 0.00019
29.22500 5281.00000 5024.87920 0.00019
29.24000 5352.00000 5069.54808 0.00019
29.25500 5361.00000 5135.24319 0.00019
29.27000 5465.00000 5228.01400 0.00018
29.28500 5491.00000 5354.96983 0.00018
29.30000 5701.00000 5515.23321 0.00018
29.31500 5833.00000 5683.92847 0.00017
29.33000 5913.00000 5812.92771 0.00017
29.34500 5990.00000 5854.86032 0.00017
29.36000 5843.00000 5794.08838 0.00017
29.37500 5666.00000 5666.48833 0.00018
29.39000 5601.00000 5543.29934 0.00018
29.40500 5537.00000 5475.64727 0.00018
29.42000 5511.00000 5475.25222 0.00018
29.43500 5553.00000 5539.20214 0.00018
29.45000 5817.00000 5661.73987 0.00017
29.46500 5998.00000 5811.83803 0.00017
29.48000 5922.00000 5925.53425 0.00017
29.49500 5898.00000 5934.46036 0.00017
29.51000 5969.00000 5829.87703 0.00017
29.52500 5843.00000 5672.41486 0.00017
29.54000 5666.00000 5500.86428 0.00018
29.55500 5468.00000 5353.46710 0.00018
29.57000 5380.00000 5278.10921 0.00019
29.58500 5345.00000 5282.97931 0.00019
29.60000 5328.00000 5348.94911 0.00019
29.61500 5439.00000 5446.40616 0.00018
29.63000 5630.00000 5537.72337 0.00018
29.64500 5687.00000 5574.17107 0.00018
29.66000 5617.00000 5523.20093 0.00018
29.67500 5396.00000 5409.15549 0.00019
29.69000 5291.00000 5284.96669 0.00019
29.70500 5208.00000 5178.05053 0.00019
29.72000 5010.00000 5088.26073 0.00020
29.73500 4979.00000 5009.97433 0.00020
29.75000 4910.00000 4944.67560 0.00020
29.76500 5013.00000 4902.48459 0.00020
29.78000 5070.00000 4897.64501 0.00020
29.79500 5061.00000 4935.24632 0.00020
29.81000 5051.00000 5004.81825 0.00020
29.82500 5108.00000 5086.40009 0.00020
29.84000 5222.00000 5162.42758 0.00019
29.85500 5418.00000 5234.47197 0.00018
29.87000 5456.00000 5316.86172 0.00018
29.88500 5567.00000 5410.42016 0.00018
29.90000 5634.00000 5498.16238 0.00018
29.91500 5637.00000 5547.36078 0.00018
29.93000 5624.00000 5547.60615 0.00018
29.94500 5620.00000 5517.68842 0.00018
29.96000 5611.00000 5463.82662 0.00018
29.97500 5582.00000 5419.20226 0.00018
29.99000 5490.00000 5420.39338 0.00018
30.00500 5601.00000 5469.50509 0.00018
30.02000 5764.00000 5562.93270 0.00017
30.03500 5931.00000 5713.23667 0.00017
30.05000 6082.00000 5902.60624 0.00016
30.06500 6293.00000 6078.24236 0.00016
30.08000 6515.00000 6191.35567 0.00015
30.09500 6583.00000 6226.94351 0.00015
30.11000 6433.00000 6211.97388 0.00016
30.12500 6328.00000 6205.06306 0.00016
30.14000 6203.00000 6252.64549 0.00016
30.15500 6261.00000 6348.55279 0.00016
30.17000 6327.00000 6461.65769 0.00016
30.18500 6338.00000 6569.13931 0.00016
30.20000 6364.00000 6621.04927 0.00016
30.21500 6455.00000 6553.87060 0.00015
30.23000 6196.00000 6356.55944 0.00016
30.24500 5989.00000 6089.58276 0.00017
30.26000 5865.00000 5832.82867 0.00017
30.27500 5663.00000 5635.99445 0.00018
30.29000 5533.00000 5507.13539 0.00018
30.30500 5389.00000 5433.96104 0.00019
30.32000 5393.00000 5408.42663 0.00019
30.33500 5352.00000 5428.22870 0.00019
30.35000 5414.00000 5483.83980 0.00018
30.36500 5504.00000 5557.58580 0.00018
30.38000 5637.00000 5640.64324 0.00018
30.39500 5839.00000 5739.37912 0.00017
30.41000 6099.00000 5847.57636 0.00016
30.42500 6152.00000 5923.16928 0.00016
30.44000 6206.00000 5901.80112 0.00016
30.45500 6049.00000 5748.84558 0.00017
30.47000 5785.00000 5509.62718 0.00017
30.48500 5558.00000 5274.15740 0.00018
30.50000 5330.00000 5098.15217 0.00019
30.51500 5144.00000 4997.46459 0.00019
30.53000 5080.00000 4968.07744 0.00020
30.54500 5019.00000 4998.66137 0.00020
30.56000 5074.00000 5074.80071 0.00020
30.57500 5073.00000 5174.93681 0.00020
30.59000 5088.00000 5276.64289 0.00020
30.60500 5275.00000 5376.59271 0.00019
30.62000 5329.00000 5489.55364 0.00019
30.63500 5347.00000 5623.65852 0.00019
30.65000 5391.00000 5766.86902 0.00019
30.66500 5509.00000 5894.26430 0.00018
30.68000 5677.00000 5986.56070 0.00018
30.69500 5681.00000 6037.09728 0.00018
30.71000 5681.00000 6047.30753 0.00018
30.72500 5608.00000 6028.69490 0.00018
30.74000 5653.00000 5988.03074 0.00018
30.75500 5645.00000 5921.73177 0.00018
30.77000 5499.00000 5822.07141 0.00018
30.78500 5480.00000 5697.29564 0.00018
30.80000 5383.00000 5564.33342 0.00019
30.81500 5214.00000 5429.49421 0.00019
30.83000 5199.00000 5295.95440 0.00019
30.84500 5165.00000 5171.63990 0.00019
30.86000 5075.00000 5072.53941 0.00020
30.87500 5198.00000 5023.57371 0.00019
30.89000 5091.00000 5042.75431 0.00020
30.90500 5156.00000 5129.40818 0.00019
30.92000 5305.00000 5263.56250 0.00019
30.93500 5520.00000 5409.42553 0.00018
30.95000 5561.00000 5540.90662 0.00018
30.96500 5706.00000 5655.58886 0.00018
30.98000 5542.00000 5744.14325 0.00018
30.99500 5491.00000 5787.02640 0.00018
31.01000 5669.00000 5765.04374 0.00018
31.02500 5675.00000 5670.06728 0.00018
31.04000 5495.00000 5514.84789 0.00018
31.05500 5389.00000 5353.66121 0.00019
31.07000 5270.00000 5245.51367 0.00019
31.08500 5281.00000 5215.30113 0.00019
31.10000 5191.00000 5260.95175 0.00019
31.11500 5305.00000 5367.54931 0.00019
31.13000 5402.00000 5510.86275 0.00019
31.14500 5521.00000 5666.13759 0.00018
31.16000 5603.00000 5822.58331 0.00018
31.17500 5633.00000 5959.76500 0.00018
31.19000 5734.00000 6046.57037 0.00017
31.20500 5700.00000 6064.52784 0.00018
31.22000 5504.00000 6023.15777 0.00018
31.23500 5346.00000 5945.61170 0.00019
31.25000 5336.00000 5848.10979 0.00019
31.26500 5344.00000 5751.31208 0.00019
31.28000 5372.00000 5661.57517 0.00019
31.29500 5407.00000 5560.28065 0.00018
31.31000 5336.00000 5434.65910 0.00019
31.32500 5251.00000 5302.65813 0.00019
31.34000 5170.00000 5203.14347 0.00019
31.35500 5306.00000 5166.34463 0.00019
31.37000 5344.00000 5188.67947 0.00019
31.38500 5311.00000 5251.44182 0.00019
31.40000 5244.00000 5348.40631 0.00019
31.41500 5528.00000 5475.18161 0.00018
31.43000 5716.00000 5622.13044 0.00017
31.44500 6002.00000 5767.22219 0.00017
31.46000 6254.00000 5864.22512 0.00016
31.47500 6197.00000 5840.45161 0.00016
31.49000 6007.00000 5651.28667 0.00017
31.50500 5823.00000 5350.57233 0.00017
31.52000 5344.00000 5042.58013 0.00019
31.53500 4893.00000 4793.68198 0.00020
31.55000 4731.00000 4623.33801 0.00021
31.56500 4625.00000 4528.78713 0.00022
31.58000 4485.00000 4498.56392 0.00022
31.59500 4473.00000 4514.61137 0.00022
31.61000 4551.00000 4552.53232 0.00022
31.62500 4450.00000 4586.75808 0.00022
31.64000 4535.00000 4607.11641 0.00022
31.65500 4587.00000 4621.45323 0.00022
31.67000 4614.00000 4633.30195 0.00022
31.68500 4591.00000 4643.79726 0.00022
31.70000 4492.00000 4659.69280 0.00022
31.71500 4570.00000 4681.25281 0.00022
31.73000 4712.00000 4702.49332 0.00021
31.74500 4603.00000 4715.25360 0.00022
31.76000 4643.00000 4709.78295 0.00022
31.77500 4610.00000 4703.13302 0.00022
31.79000 4763.00000 4730.38047 0.00021
31.80500 4922.00000 4797.90839 0.00020
31.82000 4829.00000 4890.28559 0.00021
31.83500 5031.00000 4990.31743 0.00020
31.85000 5034.00000 5091.50361 0.00020
31.86500 5085.00000 5196.05018 0.00020
31.88000 5073.00000 5302.24841 0.00020
31.89500 5193.00000 5396.39683 0.00019
31.91000 5287.00000 5459.89778 0.00019
31.92500 5240.00000 5479.58222 0.00019
31.94000 5224.00000 5449.35577 0.00019
31.95500 5194.00000 5381.77372 0.00019
31.97000 4962.00000 5311.80916 0.00020
31.98500 5039.00000 5274.30271 0.00020
32.00000 5044.00000 5276.11849 0.00020
32.01500 4952.00000 5301.40211 0.00020
32.03000 4986.00000 5337.12429 0.00020
32.04500 5034.00000 5384.46921 0.00020
32.06000 5146.00000 5442.05068 0.00019
32.07500 5115.00000 5487.92917 0.00020
32.09000 5186.00000 5497.67628 0.00019
32.10500 5201.00000 5466.16734 0.00019
32.12000 5140.00000 5409.55955 0.00019
32.13500 5014.00000 5348.09516 0.00020
32.15000 4912.00000 5288.93909 0.00020
32.16500 4948.00000 5223.94534 0.00020
32.18000 4934.00000 5144.87356 0.00020
32.19500 4852.00000 5060.90359 0.00021
32.21000 4784.00000 4994.66785 0.00021
32.22500 4762.00000 4959.54963 0.00021
32.24000 4911.00000 4948.52101 0.00020
32.25500 4989.00000 4948.87502 0.00020
32.27000 4950.00000 4944.78474 0.00020
32.28500 4897.00000 4916.81352 0.00020
32.30000 4845.00000 4865.02975 0.00021
32.31500 4823.00000 4814.63015 0.00021
32.33000 4833.00000 4792.54097 0.00021
32.34500 4869.00000 4803.10311 0.00021
32.36000 4893.00000 4822.10849 0.00020
32.37500 4949.00000 4819.85428 0.00020
32.39000 4920.00000 4799.95551 0.00020
32.40500 4889.00000 4786.59114 0.00020
32.42000 4912.00000 4783.21622 0.00020
32.43500 4784.00000 4782.03818 0.00021
32.45000 4867.00000 4770.16177 0.00021
32.46500 4749.00000 4732.68931 0.00021
32.48000 4756.00000 4668.29510 0.00021
32.49500 4637.00000 4599.23747 0.00022
32.51000 4617.00000 4555.08814 0.00022
32.52500 4624.00000 4554.71644 0.00022
32.54000 4808.00000 4602.20716 0.00021
32.55500 4816.00000 4691.34666 0.00021
32.57000 4875.00000 4809.29258 0.00021
32.58500 4929.00000 4937.69778 0.00020
32.60000 5027.00000 5053.38809 0.00020
32.61500 5017.00000 5131.36843 0.00020
32.63000 4994.00000 5149.88740 0.00020
32.64500 4904.00000 5103.46337 0.00020
32.66000 4950.00000 5015.55571 0.00020
32.67500 4845.00000 4916.39527 0.00021
32.69000 4710.00000 4833.68139 0.00021
32.70500 4749.00000 4785.24876 0.00021
32.72000 4848.00000 4774.45589 0.00021
32.73500 4827.00000 4797.01629 0.00021
32.75000 4927.00000 4835.81305 0.00020
32.76500 5032.00000 4882.99638 0.00020
32.78000 5051.00000 4949.15473 0.00020
32.79500 5109.00000 5031.35260 0.00020
32.81000 5258.00000 5116.81944 0.00019
32.82500 5315.00000 5193.15826 0.00019
32.84000 5307.00000 5254.05373 0.00019
32.85500 5274.00000 5314.47757 0.00019
32.87000 5237.00000 5399.19654 0.00019
32.88500 5379.00000 5506.77171 0.00019
32.90000 5415.00000 5615.78518 0.00018
32.91500 5540.00000 5709.85259 0.00018
32.93000 5508.00000 5790.73436 0.00018
32.94500 5593.00000 5870.66066 0.00018
32.96000 5735.00000 5960.46351 0.00017
32.97500 5993.00000 6075.43763 0.00017
32.99000 6224.00000 6229.85183 0.00016
33.00500 6458.00000 6415.27889 0.00015
33.02000 6689.00000 6589.79665 0.00015
33.03500 6857.00000 6687.31564 0.00015
33.05000 6698.00000 6651.75272 0.00015
33.06500 6390.00000 6472.36354 0.00016
33.08000 6044.00000 6184.30383 0.00017
33.09500 5670.00000 5853.11753 0.00018
33.11000 5436.00000 5539.57236 0.00018
33.12500 5129.00000 5290.11576 0.00019
33.14000 5080.00000 5113.90848 0.00020
33.15500 4900.00000 4989.09894 0.00020
33.17000 4828.00000 4892.70924 0.00021
33.18500 4771.00000 4812.17083 0.00021
33.20000 4834.00000 4748.20359 0.00021
33.21500 4771.00000 4703.34412 0.00021
33.23000 4859.00000 4672.04606 0.00021
33.24500 4755.00000 4649.03470 0.00021
33.26000 4905.00000 4643.87325 0.00020
33.27500 4841.00000 4673.94323 0.00021
33.29000 4861.00000 4742.55973 0.00021
33.30500 4953.00000 4838.41151 0.00020
33.32000 5082.00000 4945.04010 0.00020
33.33500 5145.00000 5047.88842 0.00019
33.35000 5278.00000 5136.46243 0.00019
33.36500 5339.00000 5201.21604 0.00019
33.38000 5336.00000 5232.40839 0.00019
33.39500 5439.00000 5218.85718 0.00018
33.41000 5380.00000 5158.16533 0.00019
33.42500 5195.00000 5060.07606 0.00019
33.44000 5287.00000 4936.22192 0.00019
33.45500 4976.00000 4796.83628 0.00020
33.47000 4752.00000 4653.86798 0.00021
33.48500 4579.00000 4524.37289 0.00022
33.50000 4441.00000 4420.96742 0.00023
33.51500 4460.00000 4348.90067 0.00022
33.53000 4416.00000 4311.67117 0.00023
33.54500 4428.00000 4303.76802 0.00023
33.56000 4469.00000 4309.90508 0.00022
33.57500 4408.00000 4312.11323 0.00023
33.59000 4425.00000 4307.65677 0.00023
33.60500 4349.00000 4298.15880 0.00023
33.62000 4387.00000 4281.18797 0.00023
33.63500 4385.00000 4268.02778 0.00023
33.65000 4328.00000 4261.17631 0.00023
33.66500 4345.00000 4248.52278 0.00023
33.68000 4363.00000 4223.50967 0.00023
33.69500 4390.00000 4196.22189 0.00023
33.71000 4359.00000 4183.64235 0.00023
33.72500 4249.00000 4195.93276 0.00024
33.74000 4276.00000 4233.05487 0.00023
33.75500 4487.00000 4286.25929 0.00022
33.77000 4502.00000 4342.18715 0.00022
33.78500 4488.00000 4393.96054 0.00022
33.80000 4536.00000 4448.46586 0.00022
33.81500 4642.00000 4513.53413 0.00022
33.83000 4658.00000 4589.43880 0.00021
33.84500 4715.00000 4683.05974 0.00021
33.86000 4811.00000 4805.89133 0.00021
33.87500 4964.00000 4953.40337 0.00020
33.89000 5108.00000 5104.07990 0.00020
33.90500 5274.00000 5223.69147 0.00019
33.92000 5342.00000 5277.77680 0.00019
33.93500 5300.00000 5255.30202 0.00019
33.95000 5283.00000 5176.68567 0.00019
33.96500 5319.00000 5068.22798 0.00019
33.98000 5139.00000 4952.94739 0.00019
33.99500 5080.00000 4847.75769 0.00020
34.01000 4972.00000 4761.39149 0.00020
34.02500 4907.00000 4696.54119 0.00020
34.04000 4766.00000 4652.91350 0.00021
34.05500 4755.00000 4626.41943 0.00021
34.07000 4838.00000 4612.58697 0.00021
34.08500 4735.00000 4610.93778 0.00021
34.10000 4857.00000 4621.34528 0.00021
34.11500 4704.00000 4635.22999 0.00021
34.13000 4762.00000 4635.08519 0.00021
34.14500 4797.00000 4605.14746 0.00021
34.16000 4660.00000 4545.24425 0.00021
34.17500 4517.00000 4474.06496 0.00022
34.19000 4431.00000 4413.63693 0.00023
34.20500 4471.00000 4373.46464 0.00022
34.22000 4413.00000 4350.82185 0.00023
34.23500 4416.00000 4339.80746 0.00023
34.25000 4529.00000 4338.43985 0.00022
34.26500 4459.00000 4350.31004 0.00022
34.28000 4503.00000 4389.42946 0.00022
34.29500 4515.00000 4470.08577 0.00022
34.31000 4578.00000 4589.01907 0.00022
34.32500 4823.00000 4732.40437 0.00021
34.34000 4856.00000 4880.25452 0.00021
34.35500 4857.00000 5000.68733 0.00021
34.37000 4894.00000 5054.67732 0.00020
34.38500 4881.00000 5015.26689 0.00020
34.40000 4838.00000 4889.51412 0.00021
34.41500 4710.00000 4711.62061 0.00021
34.43000 4594.00000 4527.76406 0.00022
34.44500 4413.00000 4380.76252 0.00023
34.46000 4318.00000 4288.16926 0.00023
34.47500 4302.00000 4246.78667 0.00023
34.49000 4185.00000 4243.06066 0.00024
34.50500 4373.00000 4260.26293 0.00023
34.52000 4328.00000 4283.65329 0.00023
34.53500 4302.00000 4302.96566 0.00023
34.55000 4276.00000 4313.68629 0.00023
34.56500 4259.00000 4319.17500 0.00023
34.58000 4463.00000 4336.09074 0.00022
34.59500 4357.00000 4385.03803 0.00023
34.61000 4527.00000 4470.11393 0.00022
34.62500 4629.00000 4582.93561 0.00022
34.64000 4716.00000 4706.15256 0.00021
34.65500 4828.00000 4816.19004 0.00021
34.67000 4903.00000 4897.57797 0.00020
34.68500 4920.00000 4955.55303 0.00020
34.70000 4898.00000 5005.17971 0.00020
34.71500 4878.00000 5050.71925 0.00021
34.73000 4854.00000 5090.91460 0.00021
34.74500 5000.00000 5130.11824 0.00020
34.76000 4907.00000 5165.97929 0.00020
34.77500 5050.00000 5175.90087 0.00020
34.79000 5044.00000 5126.65517 0.00020
34.80500 4931.00000 5001.67834 0.00020
34.82000 4804.00000 4821.51470 0.00021
34.83500 4599.00000 4629.29114 0.00022
34.85000 4462.00000 4459.96501 0.00022
34.86500 4303.00000 4332.74578 0.00023
34.88000 4351.00000 4254.77744 0.00023
34.89500 4378.00000 4226.54223 0.00023
34.91000 4399.00000 4247.00722 0.00023
34.92500 4423.00000 4313.33791 0.00023
34.94000 4504.00000 4419.20275 0.00022
34.95500 4566.00000 4554.06130 0.00022
34.97000 4847.00000 4702.92308 0.00021
34.98500 4919.00000 4845.15626 0.00020
35.00000 5008.00000 4955.02831 0.00020
35.01500 4991.00000 5009.10925 0.00020
35.03000 5000.00000 4998.05772 0.00020
35.04500 5026.00000 4934.31647 0.00020
35.06000 4841.00000 4842.74410 0.00021
35.07500 4800.00000 4746.76706 0.00021
35.09000 4602.00000 4665.30869 0.00022
35.10500 4568.00000 4607.19186 0.00022
35.12000 4515.00000 4574.21819 0.00022
35.13500 4561.00000 4563.12104 0.00022
35.15000 4507.00000 4561.69666 0.00022
35.16500 4520.00000 4559.43637 0.00022
35.18000 4565.00000 4545.41112 0.00022
35.19500 4502.00000 4511.91773 0.00022
35.21000 4434.00000 4457.33493 0.00023
35.22500 4372.00000 4378.51012 0.00023
35.24000 4244.00000 4276.97921 0.00024
35.25500 4167.00000 4169.85531 0.00024
35.27000 4120.00000 4082.42652 0.00024
35.28500 4084.00000 4026.92593 0.00024
35.30000 4121.00000 4006.98637 0.00024
35.31500 4076.00000 4023.67559 0.00025
35.33000 4090.00000 4073.47395 0.00024
35.34500 4071.00000 4147.66697 0.00025
35.36000 4150.00000 4233.80668 0.00024
35.37500 4242.00000 4316.48515 0.00024
35.39000 4277.00000 4376.22280 0.00023
35.40500 4231.00000 4396.25569 0.00024
35.42000 4261.00000 4373.09786 0.00023
35.43500 4171.00000 4316.63274 0.00024
35.45000 4176.00000 4243.11039 0.00024
35.46500 4082.00000 4171.64680 0.00024
35.48000 4068.00000 4116.34089 0.00025
35.49500 4133.00000 4080.21183 0.00024
35.51000 4183.00000 4059.54064 0.00024
35.52500 4087.00000 4048.60541 0.00024
35.54000 4041.00000 4041.55233 0.00025
35.55500 4093.00000 4036.26215 0.00024
35.57000 4031.00000 4038.58253 0.00025
35.58500 4114.00000 4059.15045 0.00024
35.60000 4230.00000 4105.23684 0.00024
35.61500 4096.00000 4174.83866 0.00024
35.63000 4208.00000 4259.53804 0.00024
35.64500 4321.00000 4348.13960 0.00023
35.66000 4432.00000 4423.35811 0.00023
35.67500 4471.00000 4460.36136 0.00022
35.69000 4523.00000 4436.92121 0.00022
35.70500 4377.00000 4347.66095 0.00023
35.72000 4246.00000 4216.24773 0.00024
35.73500 4168.00000 4083.22256 0.00024
35.75000 4014.00000 3978.57311 0.00025
35.76500 3966.00000 3914.00607 0.00025
35.78000 3943.00000 3888.58228 0.00025
35.79500 3899.00000 3895.73074 0.00026
35.81000 3967.00000 3926.07590 0.00025
35.82500 4009.00000 3968.99755 0.00025
35.84000 4152.00000 4017.78429 0.00024
35.85500 4148.00000 4067.23073 0.00024
35.87000 4161.00000 4114.05598 0.00024
35.88500 4195.00000 4157.58836 0.00024
35.90000 4288.00000 4187.90809 0.00023
35.91500 4265.00000 4197.22826 0.00023
35.93000 4286.00000 4195.36705 0.00023
35.94500 4167.00000 4194.54966 0.00024
35.96000 4187.00000 4197.63778 0.00024
35.97500 4071.00000 4200.80328 0.00025
35.99000 4092.00000 4197.43081 0.00024
36.00500 4105.00000 4183.65452 0.00024
36.02000 4004.00000 4162.66267 0.00025
36.03500 4013.00000 4141.33260 0.00025
36.05000 4033.00000 4127.14603 0.00025
36.06500 4096.00000 4123.23449 0.00024
36.08000 4112.00000 4128.09313 0.00024
36.09500 4070.00000 4144.27959 0.00025
36.11000 4091.00000 4179.45495 0.00024
36.12500 4238.00000 4239.38573 0.00024
36.14000 4266.00000 4324.63477 0.00023
36.15500 4317.00000 4431.53133 0.00023
36.17000 4536.00000 4552.56829 0.00022
36.18500 4528.00000 4675.85634 0.00022
36.20000 4624.00000 4785.71023 0.00022
36.21500 4777.00000 4866.64346 0.00021
36.23000 4922.00000 4908.45162 0.00020
36.24500 4846.00000 4908.02849 0.00021
36.26000 4788.00000 4865.57627 0.00021
36.27500 4779.00000 4789.54030 0.00021
36.29000 4666.00000 4703.65083 0.00021
36.30500 4612.00000 4634.30174 0.00022
36.32000 4649.00000 4596.83620 0.00022
36.33500 4577.00000 4592.25451 0.00022
36.35000 4579.00000 4610.54227 0.00022
36.36500 4572.00000 4637.99692 0.00022
36.38000 4706.00000 4666.73239 0.00021
36.39500 4748.00000 4698.26047 0.00021
36.41000 4813.00000 4739.30926 0.00021
36.42500 4873.00000 4795.13569 0.00021
36.44000 4917.00000 4860.27686 0.00020
36.45500 5009.00000 4918.67929 0.00020
36.47000 5039.00000 4953.19097 0.00020
36.48500 4998.00000 4958.12397 0.00020
36.50000 4809.00000 4939.60746 0.00021
36.51500 4686.00000 4902.37122 0.00021
36.53000 4675.00000 4845.12738 0.00021
36.54500 4617.00000 4765.81818 0.00022
36.56000 4568.00000 4667.28459 0.00022
36.57500 4434.00000 4557.78459 0.00023
36.59000 4555.00000 4451.08870 0.00022
36.60500 4395.00000 4364.50605 0.00023
36.62000 4177.00000 4307.27319 0.00024
36.63500 4178.00000 4273.63805 0.00024
36.65000 4258.00000 4249.93054 0.00023
36.66500 4249.00000 4221.14094 0.00024
36.68000 4139.00000 4175.81659 0.00024
36.69500 4080.00000 4114.09793 0.00025
36.71000 3921.00000 4051.06418 0.00026
36.72500 3944.00000 4005.86373 0.00025
36.74000 4037.00000 3989.49229 0.00025
36.75500 4110.00000 4004.00064 0.00024
36.77000 4151.00000 4046.25805 0.00024
36.78500 4165.00000 4111.21467 0.00024
36.80000 4202.00000 4191.87210 0.00024
36.81500 4304.00000 4275.74398 0.00023
36.83000 4386.00000 4340.38731 0.00023
36.84500 4489.00000 4357.25036 0.00022
36.86000 4387.00000 4312.20906 0.00023
36.87500 4342.00000 4218.70925 0.00023
36.89000 4163.00000 4106.52683 0.00024
36.90500 4098.00000 4007.30652 0.00024
36.92000 4021.00000 3939.44658 0.00025
36.93500 4016.00000 3906.26454 0.00025
36.95000 3978.00000 3901.95293 0.00025
36.96500 3958.00000 3914.93989 0.00025
36.98000 3864.00000 3933.35030 0.00026
36.99500 3895.00000 3954.93849 0.00026
37.01000 4001.00000 3989.00663 0.00025
37.02500 4022.00000 4039.65124 0.00025
37.04000 4074.00000 4100.60883 0.00025
37.05500 4087.00000 4160.50015 0.00024
37.07000 4118.00000 4212.34886 0.00024
37.08500 4037.00000 4260.60150 0.00025
37.10000 4120.00000 4313.01704 0.00024
37.11500 4266.00000 4368.63731 0.00023
37.13000 4194.00000 4411.75948 0.00024
37.14500 4163.00000 4415.09452 0.00024
37.16000 4190.00000 4356.57606 0.00024
37.17500 4191.00000 4236.45471 0.00024
37.19000 4016.00000 4080.77260 0.00025
37.20500 3846.00000 3924.51482 0.00026
37.22000 3865.00000 3791.28263 0.00026
37.23500 3796.00000 3692.03432 0.00026
37.25000 3743.00000 3627.18051 0.00027
37.26500 3803.00000 3590.54284 0.00026
37.28000 3752.00000 3575.00317 0.00027
37.29500 3737.00000 3575.50481 0.00027
37.31000 3755.00000 3590.90615 0.00027
37.32500 3715.00000 3621.59539 0.00027
37.34000 3769.00000 3666.72834 0.00027
37.35500 3834.00000 3724.51874 0.00026
37.37000 3908.00000 3792.89934 0.00026
37.38500 3939.00000 3869.34153 0.00025
37.40000 4002.00000 3950.19022 0.00025
37.41500 4053.00000 4030.60231 0.00025
37.43000 3956.00000 4105.99879 0.00025
37.44500 4096.00000 4173.19968 0.00024
37.46000 4109.00000 4228.52040 0.00024
37.47500 4224.00000 4273.72489 0.00024
37.49000 4106.00000 4312.24290 0.00024
37.50500 4151.00000 4337.98137 0.00024
37.52000 4121.00000 4345.94574 0.00024
37.53500 4191.00000 4344.93450 0.00024
37.55000 4246.00000 4347.27545 0.00024
37.56500 4316.00000 4359.16893 0.00023
37.58000 4385.00000 4384.56023 0.00023
37.59500 4288.00000 4420.50630 0.00023
37.61000 4421.00000 4451.99327 0.00023
37.62500 4429.00000 4457.54055 0.00023
37.64000 4351.00000 4418.12726 0.00023
37.65500 4276.00000 4328.94042 0.00023
37.67000 4256.00000 4212.64931 0.00023
37.68500 4167.00000 4101.78476 0.00024
37.70000 4044.00000 4009.97279 0.00025
37.71500 3940.00000 3937.62552 0.00025
37.73000 3850.00000 3882.79418 0.00026
37.74500 3829.00000 3846.39190 0.00026
37.76000 3821.00000 3830.30327 0.00026
37.77500 3797.00000 3831.29785 0.00026
37.79000 3940.00000 3841.26169 0.00025
37.80500 3965.00000 3851.91398 0.00025
37.82000 3984.00000 3857.86031 0.00025
37.83500 4011.00000 3856.66319 0.00025
37.85000 3950.00000 3849.07451 0.00025
37.86500 3964.00000 3839.16937 0.00025
37.88000 4044.00000 3831.28770 0.00025
37.89500 3943.00000 3827.33483 0.00025
37.91000 3914.00000 3828.82902 0.00026
37.92500 3918.00000 3839.40872 0.00026
37.94000 3997.00000 3863.34176 0.00025
37.95500 3917.00000 3902.94571 0.00026
37.97000 3916.00000 3959.31208 0.00026
37.98500 3944.00000 4033.94116 0.00025
38.00000 4069.00000 4126.15872 0.00025
38.01500 4116.00000 4226.78279 0.00024
38.03000 4123.00000 4317.71302 0.00024
38.04500 4103.00000 4378.66447 0.00024
38.06000 4060.00000 4395.36224 0.00025
38.07500 4039.00000 4367.66572 0.00025
38.09000 4104.00000 4305.46146 0.00024
38.10500 4112.00000 4215.74443 0.00024
38.12000 3995.00000 4106.47108 0.00025
38.13500 3909.00000 3994.40545 0.00026
38.15000 3847.00000 3897.82346 0.00026
38.16500 3815.00000 3828.47130 0.00026
38.18000 3992.00000 3790.41631 0.00025
38.19500 3782.00000 3776.18557 0.00026
38.21000 3700.00000 3772.47392 0.00027
38.22500 3788.00000 3769.64536 0.00026
38.24000 3724.00000 3765.66060 0.00027
38.25500 3801.00000 3763.54607 0.00026
38.27000 3783.00000 3764.03850 0.00026
38.28500 3733.00000 3763.23763 0.00027
38.30000 3848.00000 3756.42088 0.00026
38.31500 3801.00000 3743.59818 0.00026
38.33000 3790.00000 3729.09674 0.00026
38.34500 3736.00000 3719.17817 0.00027
38.36000 3712.00000 3719.66273 0.00027
38.37500 3698.00000 3732.07939 0.00027
38.39000 3710.00000 3752.67627 0.00027
38.40500 3664.00000 3774.82446 0.00027
38.42000 3715.00000 3792.44815 0.00027
38.43500 3723.00000 3803.47451 0.00027
38.45000 3780.00000 3811.33892 0.00026
38.46500 3761.00000 3822.56758 0.00027
38.48000 3775.00000 3842.14004 0.00026
38.49500 3932.00000 3871.75244 0.00025
38.51000 3941.00000 3912.58292 0.00025
38.52500 3988.00000 3963.89761 0.00025
38.54000 4011.00000 4016.34848 0.00025
38.55500 4038.00000 4061.60415 0.00025
38.57000 3956.00000 4099.90667 0.00025
38.58500 4100.00000 4129.49444 0.00024
38.60000 4133.00000 4147.18281 0.00024
38.61500 4076.00000 4154.44579 0.00025
38.63000 4022.00000 4158.70578 0.00025
38.64500 3943.00000 4172.62053 0.00025
38.66000 4032.00000 4209.65561 0.00025
38.67500 4049.00000 4274.85962 0.00025
38.69000 4056.00000 4358.65953 0.00025
38.70500 4162.00000 4437.67267 0.00024
38.72000 4034.00000 4479.50112 0.00025
38.73500 4138.00000 4456.54901 0.00024
38.75000 4111.00000 4367.31731 0.00024
38.76500 4047.00000 4238.17898 0.00025
38.78000 4049.00000 4099.73628 0.00025
38.79500 3893.00000 3968.20675 0.00026
38.81000 3767.00000 3848.95207 0.00027
38.82500 3708.00000 3746.98874 0.00027
38.84000 3730.00000 3670.45714 0.00027
38.85500 3821.00000 3625.57044 0.00026
38.87000 3653.00000 3610.82993 0.00027
38.88500 3695.00000 3617.65389 0.00027
38.90000 3719.00000 3638.06282 0.00027
38.91500 3669.00000 3669.11719 0.00027
38.93000 3753.00000 3706.94372 0.00027
38.94500 3826.00000 3744.20268 0.00026
38.96000 3857.00000 3771.70444 0.00026
38.97500 3773.00000 3780.86970 0.00027
38.99000 3839.00000 3768.22735 0.00026
39.00500 3823.00000 3739.36495 0.00026
39.02000 3713.00000 3704.74375 0.00027
39.03500 3725.00000 3673.50664 0.00027
39.05000 3604.00000 3651.03070 0.00028
39.06500 3696.00000 3639.87080 0.00027
39.08000 3738.00000 3641.57127 0.00027
39.09500 3690.00000 3656.72613 0.00027
39.11000 3732.00000 3682.96848 0.00027
39.12500 3833.00000 3715.66280 0.00026
39.14000 3820.00000 3753.04233 0.00026
39.15500 3874.00000 3789.93113 0.00026
39.17000 3939.00000 3816.77118 0.00025
39.18500 3836.00000 3835.40820 0.00026
39.20000 3940.00000 3850.95966 0.00025
39.21500 3838.00000 3863.53401 0.00026
39.23000 3862.00000 3872.47456 0.00026
39.24500 3874.00000 3876.46050 0.00026
39.26000 3849.00000 3872.74132 0.00026
39.27500 3767.00000 3856.66206 0.00027
39.29000 3785.00000 3823.35411 0.00026
39.30500 3716.00000 3771.31045 0.00027
39.32000 3622.00000 3704.61188 0.00028
39.33500 3657.00000 3632.76096 0.00027
39.35000 3557.00000 3567.80552 0.00028
39.36500 3516.00000 3519.21404 0.00028
39.38000 3550.00000 3491.08727 0.00028
39.39500 3579.00000 3482.48036 0.00028
39.41000 3588.00000 3488.94468 0.00028
39.42500 3621.00000 3504.00395 0.00028
39.44000 3706.00000 3521.74116 0.00027
39.45500 3672.00000 3540.68184 0.00027
39.47000 3593.00000 3560.32444 0.00028
39.48500 3719.00000 3577.86830 0.00027
39.50000 3815.00000 3595.79845 0.00026
39.51500 3843.00000 3618.45364 0.00026
39.53000 3818.00000 3641.73787 0.00026
39.54500 3823.00000 3655.50553 0.00026
39.56000 3814.00000 3650.74011 0.00026
39.57500 3730.00000 3627.58720 0.00027
39.59000 3670.00000 3595.58212 0.00027
39.60500 3618.00000 3564.79030 0.00028
39.62000 3576.00000 3540.60530 0.00028
39.63500 3562.00000 3525.86342 0.00028
39.65000 3461.00000 3523.59920 0.00029
39.66500 3527.00000 3535.70008 0.00028
39.68000 3518.00000 3560.68563 0.00028
39.69500 3545.00000 3593.39108 0.00028
39.71000 3659.00000 3629.84059 0.00027
39.72500 3518.00000 3670.51819 0.00028
39.74000 3683.00000 3715.45619 0.00027
39.75500 3677.00000 3762.49075 0.00027
39.77000 3796.00000 3806.92290 0.00026
39.78500 3793.00000 3839.91078 0.00026
39.80000 3713.00000 3850.01209 0.00027
39.81500 3725.00000 3828.06994 0.00027
39.83000 3716.00000 3774.67585 0.00027
39.84500 3735.00000 3705.37159 0.00027
39.86000 3660.00000 3636.41457 0.00027
39.87500 3682.00000 3571.82353 0.00027
39.89000 3549.00000 3509.02875 0.00028
39.90500 3527.00000 3451.15807 0.00028
39.92000 3505.00000 3404.06440 0.00029
39.93500 3440.00000 3365.80546 0.00029
39.95000 3415.00000 3328.89766 0.00029
39.96500 3420.00000 3292.59665 0.00029
39.98000 3378.00000 3262.96969 0.00030
39.99500 3364.00000 3244.69900 0.00030
40.01000 3411.00000 3240.25099 0.00029
40.02500 3396.00000 3250.53648 0.00029
40.04000 3495.00000 3275.74592 0.00029
40.05500 3395.00000 3315.86389 0.00029
40.07000 3365.00000 3371.60204 0.00030
40.08500 3458.00000 3444.55993 0.00029
40.10000 3549.00000 3535.31413 0.00028
40.11500 3638.00000 3643.70529 0.00027
40.13000 3703.00000 3771.10431 0.00027
40.14500 3905.00000 3915.74771 0.00026
40.16000 4068.00000 4066.94759 0.00025
40.17500 4162.00000 4210.20531 0.00024
40.19000 4258.00000 4341.50859 0.00023
40.20500 4405.00000 4459.24223 0.00023
40.22000 4665.00000 4554.40066 0.00021
40.23500 4609.00000 4616.68129 0.00022
40.25000 4554.00000 4636.09221 0.00022
40.26500 4482.00000 4602.22077 0.00022
40.28000 4440.00000 4513.28898 0.00023
40.29500 4258.00000 4382.79490 0.00023
40.31000 4183.00000 4233.45170 0.00024
40.32500 4004.00000 4083.04337 0.00025
40.34000 3896.00000 3939.28160 0.00026
40.35500 3718.00000 3804.62632 0.00027
40.37000 3668.00000 3684.15766 0.00027
40.38500 3630.00000 3586.91262 0.00028
40.40000 3514.00000 3518.35324 0.00028
40.41500 3497.00000 3478.00604 0.00029
40.43000 3543.00000 3461.45832 0.00028
40.44500 3580.00000 3462.73542 0.00028
40.46000 3582.00000 3475.22318 0.00028
40.47500 3549.00000 3490.72470 0.00028
40.49000 3553.00000 3503.09690 0.00028
40.50500 3551.00000 3515.32584 0.00028
40.52000 3581.00000 3530.30347 0.00028
40.53500 3609.00000 3547.08691 0.00028
40.55000 3605.00000 3567.73178 0.00028
40.56500 3650.00000 3599.36372 0.00027
40.58000 3753.00000 3645.11153 0.00027
40.59500 3803.00000 3700.12281 0.00026
40.61000 3926.00000 3755.41028 0.00025
40.62500 3875.00000 3801.71343 0.00026
40.64000 3810.00000 3834.07195 0.00026
40.65500 3892.00000 3855.84565 0.00026
40.67000 3818.00000 3876.52722 0.00026
40.68500 3932.00000 3903.56916 0.00025
40.70000 3912.00000 3937.29032 0.00026
40.71500 3882.00000 3973.16846 0.00026
40.73000 3950.00000 4005.21816 0.00025
40.74500 3934.00000 4027.17512 0.00025
40.76000 3940.00000 4034.32587 0.00025
40.77500 3860.00000 4025.68951 0.00026
40.79000 3998.00000 4004.08075 0.00025
40.80500 3930.00000 3975.42749 0.00025
40.82000 4005.00000 3946.82550 0.00025
40.83500 4029.00000 3923.90639 0.00025
40.85000 4068.00000 3906.60151 0.00025
40.86500 3979.00000 3886.00059 0.00025
40.88000 3919.00000 3853.20493 0.00026
40.89500 3985.00000 3811.77217 0.00025
40.91000 3963.00000 3772.19378 0.00025
40.92500 3964.00000 3742.19028 0.00025
40.94000 3794.00000 3725.97166 0.00026
40.95500 3761.00000 3726.88156 0.00027
40.97000 3829.00000 3746.57558 0.00026
40.98500 3812.00000 3781.57796 0.00026
41.00000 3722.00000 3823.05600 0.00027
41.01500 3844.00000 3860.55683 0.00026
41.03000 3784.00000 3885.29885 0.00026
41.04500 3734.00000 3890.11365 0.00027
41.06000 3739.00000 3873.32913 0.00027
41.07500 3744.00000 3843.22054 0.00027
41.09000 3772.00000 3810.88725 0.00027
41.10500 3729.00000 3785.59028 0.00027
41.12000 3694.00000 3768.44420 0.00027
41.13500 3772.00000 3752.59916 0.00027
41.15000 3696.00000 3731.58651 0.00027
41.16500 3640.00000 3707.03402 0.00027
41.18000 3676.00000 3682.37304 0.00027
41.19500 3649.00000 3659.34937 0.00027
41.21000 3663.00000 3639.81738 0.00027
41.22500 3627.00000 3624.96578 0.00028
41.24000 3629.00000 3616.12684 0.00028
41.25500 3652.00000 3615.56343 0.00027
41.27000 3620.00000 3623.60492 0.00028
41.28500 3763.00000 3640.16854 0.00027
41.30000 3823.00000 3662.56715 0.00026
41.31500 3752.00000 3682.56239 0.00027
41.33000 3743.00000 3691.34348 0.00027
41.34500 3731.00000 3690.03884 0.00027
41.36000 3679.00000 3692.59149 0.00027
41.37500 3707.00000 3707.04184 0.00027
41.39000 3702.00000 3728.26793 0.00027
41.40500 3741.00000 3746.46801 0.00027
41.42000 3782.00000 3758.61069 0.00026
41.43500 3697.00000 3763.53781 0.00027
41.45000 3744.00000 3756.65681 0.00027
41.46500 3791.00000 3733.91060 0.00026
41.48000 3637.00000 3695.86717 0.00027
41.49500 3642.00000 3645.84887 0.00027
41.51000 3734.00000 3587.88878 0.00027
41.52500 3650.00000 3528.68922 0.00027
41.54000 3578.00000 3477.16475 0.00028
41.55500 3499.00000 3438.07601 0.00029
41.57000 3523.00000 3410.16624 0.00028
41.58500 3501.00000 3388.60978 0.00029
41.60000 3504.00000 3367.49023 0.00029
41.61500 3415.00000 3342.30062 0.00029
41.63000 3429.00000 3312.14098 0.00029
41.64500 3470.00000 3279.93593 0.00029
41.66000 3327.00000 3250.52396 0.00030
41.67500 3311.00000 3227.70766 0.00030
41.69000 3301.00000 3211.45653 0.00030
41.70500 3334.00000 3199.24901 0.00030
41.72000 3361.00000 3191.90264 0.00030
41.73500 3343.00000 3194.07004 0.00030
41.75000 3325.00000 3205.71134 0.00030
41.76500 3316.00000 3223.17763 0.00030
41.78000 3310.00000 3251.41257 0.00030
41.79500 3352.00000 3298.11256 0.00030
41.81000 3517.00000 3363.53259 0.00028
41.82500 3548.00000 3440.85503 0.00028
41.84000 3527.00000 3517.57158 0.00028
41.85500 3627.00000 3588.30269 0.00028
41.87000 3628.00000 3660.54010 0.00028
41.88500 3701.00000 3735.83025 0.00027
41.90000 3831.00000 3804.91464 0.00026
41.91500 3883.00000 3861.52006 0.00026
41.93000 3844.00000 3911.22726 0.00026
41.94500 3837.00000 3959.50991 0.00026
41.96000 3893.00000 4004.78932 0.00026
41.97500 3969.00000 4040.97117 0.00025
41.99000 3973.00000 4057.51602 0.00025
42.00500 3931.00000 4046.30646 0.00025
42.02000 3904.00000 4010.22673 0.00026
42.03500 3881.00000 3963.47658 0.00026
42.05000 3768.00000 3920.74524 0.00027
42.06500 3742.00000 3894.62412 0.00027
42.08000 3818.00000 3892.01267 0.00026
42.09500 3848.00000 3913.36164 0.00026
42.11000 3882.00000 3953.51709 0.00026
42.12500 3948.00000 4003.30264 0.00025
42.14000 3997.00000 4052.46012 0.00025
42.15500 4180.00000 4094.37836 0.00024
42.17000 4085.00000 4131.23851 0.00024
42.18500 4138.00000 4172.98039 0.00024
42.20000 4108.00000 4227.10829 0.00024
42.21500 4162.00000 4291.20100 0.00024
42.23000 4234.00000 4353.17822 0.00024
42.24500 4174.00000 4397.75149 0.00024
42.26000 4261.00000 4414.05556 0.00023
42.27500 4217.00000 4396.84357 0.00024
42.29000 4148.00000 4348.23304 0.00024
42.30500 4126.00000 4280.17006 0.00024
42.32000 4123.00000 4208.09387 0.00024
42.33500 4015.00000 4143.07848 0.00025
42.35000 3885.00000 4091.79155 0.00026
42.36500 3936.00000 4056.11888 0.00025
42.38000 3862.00000 4032.71417 0.00026
42.39500 3878.00000 4016.27491 0.00026
42.41000 3852.00000 4000.77835 0.00026
42.42500 3904.00000 3977.14836 0.00026
42.44000 3906.00000 3933.38804 0.00026
42.45500 3826.00000 3865.18507 0.00026
42.47000 3775.00000 3784.94613 0.00026
42.48500 3725.00000 3707.95424 0.00027
42.50000 3644.00000 3641.08374 0.00027
42.51500 3591.00000 3586.78252 0.00028
42.53000 3527.00000 3547.59448 0.00028
42.54500 3555.00000 3527.25920 0.00028
42.56000 3537.00000 3526.66698 0.00028
42.57500 3530.00000 3541.44488 0.00028
42.59000 3442.00000 3561.31155 0.00029
42.60500 3516.00000 3576.48071 0.00028
42.62000 3494.00000 3584.42956 0.00029
42.63500 3522.00000 3583.06445 0.00028
42.65000 3482.00000 3568.47020 0.00029
42.66500 3532.00000 3541.18391 0.00028
42.68000 3446.00000 3507.07415 0.00029
42.69500 3369.00000 3474.19433 0.00030
42.71000 3463.00000 3448.98695 0.00029
42.72500 3459.00000 3434.28882 0.00029
42.74000 3503.00000 3429.49166 0.00029
42.75500 3484.00000 3430.90666 0.00029
42.77000 3473.00000 3433.73005 0.00029
42.78500 3514.00000 3438.29476 0.00028
42.80000 3502.00000 3449.65544 0.00029
42.81500 3464.00000 3468.65726 0.00029
42.83000 3573.00000 3493.10818 0.00028
42.84500 3549.00000 3520.56030 0.00028
42.86000 3558.00000 3547.02719 0.00028
42.87500 3562.00000 3566.02909 0.00028
42.89000 3467.00000 3571.05986 0.00029
42.90500 3538.00000 3562.72221 0.00028
42.92000 3570.00000 3547.77387 0.00028
42.93500 3556.00000 3529.98596 0.00028
42.95000 3600.00000 3507.99995 0.00028
42.96500 3378.00000 3478.72688 0.00030
42.98000 3410.00000 3440.15145 0.00029
42.99500 3459.00000 3392.16599 0.00029
43.01000 3407.00000 3339.05617 0.00029
43.02500 3268.00000 3292.14211 0.00031
43.04000 3269.00000 3261.88960 0.00031
43.05500 3376.00000 3252.43072 0.00030
43.07000 3263.00000 3264.09179 0.00031
43.08500 3341.00000 3295.55053 0.00030
43.10000 3450.00000 3344.26741 0.00029
43.11500 3471.00000 3406.26836 0.00029
43.13000 3440.00000 3476.11318 0.00029
43.14500 3422.00000 3547.00379 0.00029
43.16000 3415.00000 3610.42590 0.00029
43.17500 3583.00000 3655.58734 0.00028
43.19000 3522.00000 3671.86262 0.00028
43.20500 3566.00000 3656.92103 0.00028
43.22000 3532.00000 3621.76910 0.00028
43.23500 3501.00000 3580.80054 0.00029
43.25000 3507.00000 3542.01863 0.00029
43.26500 3461.00000 3506.50311 0.00029
43.28000 3426.00000 3475.23930 0.00029
43.29500 3388.00000 3450.26621 0.00030
43.31000 3538.00000 3429.84418 0.00028
43.32500 3428.00000 3411.74484 0.00029
43.34000 3411.00000 3394.62665 0.00029
43.35500 3400.00000 3379.82565 0.00029
43.37000 3363.00000 3369.56588 0.00030
43.38500 3392.00000 3365.43260 0.00029
43.40000 3334.00000 3371.85977 0.00030
43.41500 3395.00000 3392.11718 0.00029
43.43000 3367.00000 3425.56956 0.00030
43.44500 3332.00000 3469.52836 0.00030
43.46000 3414.00000 3519.34417 0.00029
43.47500 3527.00000 3568.79763 0.00028
43.49000 3430.00000 3611.12867 0.00029
43.50500 3486.00000 3639.80830 0.00029
43.52000 3485.00000 3650.63577 0.00029
43.53500 3395.00000 3644.92767 0.00029
43.55000 3516.00000 3626.61076 0.00028
43.56500 3453.00000 3597.17215 0.00029
43.58000 3425.00000 3556.60305 0.00029
43.59500 3386.00000 3507.52222 0.00030
43.61000 3353.00000 3455.82249 0.00030
43.62500 3420.00000 3406.29409 0.00029
43.64000 3343.00000 3360.59503 0.00030
43.65500 3397.00000 3318.32598 0.00029
43.67000 3248.00000 3280.97851 0.00031
43.68500 3343.00000 3253.91696 0.00030
43.70000 3376.00000 3241.56727 0.00030
43.71500 3314.00000 3244.46967 0.00030
43.73000 3369.00000 3259.92726 0.00030
43.74500 3427.00000 3282.68678 0.00029
43.76000 3477.00000 3306.36909 0.00029
43.77500 3360.00000 3325.30061 0.00030
43.79000 3403.00000 3336.28346 0.00029
43.80500 3429.00000 3339.75037 0.00029
43.82000 3400.00000 3338.96789 0.00029
43.83500 3386.00000 3337.74662 0.00030
43.85000 3360.00000 3339.45718 0.00030
43.86500 3385.00000 3345.92729 0.00030
43.88000 3398.00000 3356.67959 0.00029
43.89500 3479.00000 3370.77429 0.00029
43.91000 3591.00000 3389.01068 0.00028
43.92500 3491.00000 3412.41149 0.00029
43.94000 3460.00000 3440.31735 0.00029
43.95500 3491.00000 3469.81415 0.00029
43.97000 3466.00000 3494.44691 0.00029
43.98500 3492.00000 3507.72278 0.00029
44.00000 3610.00000 3510.96874 0.00028
44.01500 3568.00000 3511.38091 0.00028
44.03000 3522.00000 3512.34865 0.00028
44.04500 3542.00000 3512.21161 0.00028
44.06000 3523.00000 3508.24008 0.00028
44.07500 3526.00000 3499.10470 0.00028
44.09000 3517.00000 3488.28179 0.00028
44.10500 3585.00000 3483.63065 0.00028
44.12000 3662.00000 3490.47452 0.00027
44.13500 3578.00000 3509.22274 0.00028
44.15000 3660.00000 3536.52589 0.00027
44.16500 3572.00000 3566.83064 0.00028
44.18000 3602.00000 3594.25308 0.00028
44.19500 3620.00000 3614.45480 0.00028
44.21000 3588.00000 3623.75163 0.00028
44.22500 3667.00000 3619.45141 0.00027
44.24000 3610.00000 3603.45603 0.00028
44.25500 3653.00000 3581.90315 0.00027
44.27000 3598.00000 3561.79494 0.00028
44.28500 3568.00000 3547.90230 0.00028
44.30000 3574.00000 3542.07508 0.00028
44.31500 3648.00000 3542.16289 0.00027
44.33000 3464.00000 3543.39379 0.00029
44.34500 3583.00000 3541.17177 0.00028
44.36000 3553.00000 3533.09457 0.00028
44.37500 3512.00000 3523.68203 0.00028
44.39000 3523.00000 3520.02474 0.00028
44.40500 3498.00000 3523.68142 0.00029
44.42000 3504.00000 3532.65798 0.00029
44.43500 3531.00000 3544.76081 0.00028
44.45000 3594.00000 3557.73726 0.00028
44.46500 3536.00000 3568.80700 0.00028
44.48000 3493.00000 3575.23941 0.00029
44.49500 3475.00000 3576.69731 0.00029
44.51000 3416.00000 3576.29180 0.00029
44.52500 3432.00000 3576.81064 0.00029
44.54000 3446.00000 3576.12825 0.00029
44.55500 3479.00000 3571.71256 0.00029
44.57000 3418.00000 3564.90736 0.00029
44.58500 3443.00000 3554.20495 0.00029
44.60000 3401.00000 3533.04707 0.00029
44.61500 3442.00000 3494.82587 0.00029
44.63000 3343.00000 3440.09033 0.00030
44.64500 3319.00000 3376.62026 0.00030
44.66000 3269.00000 3314.45456 0.00031
44.67500 3240.00000 3262.18277 0.00031
44.69000 3289.00000 3224.66494 0.00030
44.70500 3230.00000 3202.83687 0.00031
44.72000 3167.00000 3193.98210 0.00032
44.73500 3160.00000 3192.27219 0.00032
44.75000 3261.00000 3192.84698 0.00031
44.76500 3235.00000 3195.88250 0.00031
44.78000 3213.00000 3202.85400 0.00031
44.79500 3259.00000 3211.86287 0.00031
44.81000 3272.00000 3218.09671 0.00031
44.82500 3315.00000 3216.65611 0.00030
44.84000 3252.00000 3204.91827 0.00031
44.85500 3109.00000 3185.68553 0.00032
44.87000 3078.00000 3163.79661 0.00032
44.88500 3164.00000 3142.72518 0.00032
44.90000 3252.00000 3125.79162 0.00031
44.91500 3212.00000 3115.50970 0.00031
44.93000 3196.00000 3113.26387 0.00031
44.94500 3193.00000 3119.22424 0.00031
44.96000 3155.00000 3131.24430 0.00032
44.97500 3219.00000 3144.44517 0.00031
44.99000 3256.00000 3154.54458 0.00031
45.00500 3288.00000 3163.36287 0.00030
45.02000 3171.00000 3175.03880 0.00032
45.03500 3272.00000 3191.31597 0.00031
45.05000 3267.00000 3212.19586 0.00031
45.06500 3291.00000 3236.02062 0.00030
45.08000 3323.00000 3259.83670 0.00030
45.09500 3283.00000 3280.45374 0.00030
45.11000 3308.00000 3295.69477 0.00030
45.12500 3368.00000 3303.84935 0.00030
45.14000 3286.00000 3305.11963 0.00030
45.15500 3244.00000 3301.94547 0.00031
45.17000 3295.00000 3293.87060 0.00030
45.18500 3273.00000 3275.84046 0.00031
45.20000 3247.00000 3246.02991 0.00031
45.21500 3256.00000 3210.89342 0.00031
45.23000 3192.00000 3177.48794 0.00031
45.24500 3127.00000 3149.71676 0.00032
45.26000 3098.00000 3130.74024 0.00032
45.27500 3073.00000 3121.31640 0.00033
45.29000 3062.00000 3118.83880 0.00033
45.30500 3122.00000 3119.32586 0.00032
45.32000 3131.00000 3119.65815 0.00032
45.33500 3176.00000 3119.14704 0.00031
45.35000 3183.00000 3119.34988 0.00031
45.36500 3095.00000 3122.34221 0.00032
45.38000 3121.00000 3129.03751 0.00032
45.39500 3149.00000 3138.72015 0.00032
45.41000 3238.00000 3149.68559 0.00031
45.42500 3227.00000 3161.05796 0.00031
45.44000 3140.00000 3173.49746 0.00032
45.45500 3239.00000 3187.52604 0.00031
45.47000 3230.00000 3203.21568 0.00031
45.48500 3173.00000 3218.46176 0.00032
45.50000 3243.00000 3228.48993 0.00031
45.51500 3155.00000 3229.28513 0.00032
45.53000 3187.00000 3220.62480 0.00031
45.54500 3121.00000 3205.69839 0.00032
45.56000 3140.00000 3188.26436 0.00032
45.57500 3114.00000 3170.69350 0.00032
45.59000 3080.00000 3153.84102 0.00032
45.60500 3097.00000 3137.64908 0.00032
45.62000 3172.00000 3121.41153 0.00032
45.63500 3103.00000 3103.57125 0.00032
45.65000 3088.00000 3082.25381 0.00032
45.66500 3102.00000 3056.91313 0.00032
45.68000 3097.00000 3030.12209 0.00032
45.69500 3058.00000 3005.81235 0.00033
45.71000 3020.00000 2985.72272 0.00033
45.72500 2948.00000 2969.37136 0.00034
45.74000 2882.00000 2955.68103 0.00035
45.75500 2956.00000 2944.65437 0.00034
45.77000 3008.00000 2938.22593 0.00033
45.78500 2972.00000 2938.31598 0.00034
45.80000 2901.00000 2947.18459 0.00034
45.81500 3012.00000 2967.89057 0.00033
45.83000 2990.00000 3001.39956 0.00033
45.84500 3051.00000 3046.10069 0.00033
45.86000 3096.00000 3097.72991 0.00032
45.87500 3097.00000 3149.42782 0.00032
45.89000 3082.00000 3193.37560 0.00032
45.90500 3115.00000 3224.62889 0.00032
45.92000 3092.00000 3244.25759 0.00032
45.93500 3108.00000 3256.40071 0.00032
45.95000 3142.00000 3263.39263 0.00032
45.96500 3218.00000 3264.71766 0.00031
45.98000 3184.00000 3257.43495 0.00031
45.99500 3223.00000 3238.74271 0.00031
46.01000 3204.00000 3208.87759 0.00031
46.02500 3156.00000 3169.23877 0.00032
46.04000 3077.00000 3121.30095 0.00032
46.05500 3067.00000 3069.23447 0.00033
46.07000 3100.00000 3018.62994 0.00032
46.08500 2989.00000 2974.48185 0.00033
46.10000 2968.00000 2940.36985 0.00034
46.11500 2933.00000 2916.55669 0.00034
46.13000 2990.00000 2900.61437 0.00033
46.14500 2861.00000 2889.32198 0.00035
46.16000 2907.00000 2879.78315 0.00034
46.17500 2879.00000 2870.21064 0.00035
46.19000 2874.00000 2860.21705 0.00035
46.20500 2898.00000 2850.61240 0.00035
46.22000 2911.00000 2843.10920 0.00034
46.23500 2873.00000 2839.28792 0.00035
46.25000 2939.00000 2839.00687 0.00034
46.26500 2903.00000 2840.93235 0.00034
46.28000 2833.00000 2843.61619 0.00035
46.29500 2964.00000 2845.56284 0.00034
46.31000 2958.00000 2846.28011 0.00034
46.32500 2959.00000 2846.11444 0.00034
46.34000 3024.00000 2845.27680 0.00033
46.35500 2986.00000 2844.95944 0.00033
46.37000 2986.00000 2847.24602 0.00033
46.38500 2948.00000 2853.50923 0.00034
46.40000 2940.00000 2863.53731 0.00034
46.41500 2983.00000 2876.43030 0.00034
46.43000 2885.00000 2891.77449 0.00035
46.44500 2891.00000 2908.92329 0.00035
46.46000 3004.00000 2926.53484 0.00033
46.47500 2971.00000 2943.02927 0.00034
46.49000 2908.00000 2955.57255 0.00034
46.50500 2932.00000 2960.06853 0.00034
46.52000 3002.00000 2956.13683 0.00033
46.53500 2879.00000 2947.80277 0.00035
46.55000 2941.00000 2936.86729 0.00034
46.56500 2893.00000 2922.40710 0.00035
46.58000 2922.00000 2906.29412 0.00034
46.59500 2918.00000 2893.01292 0.00034
46.61000 2909.00000 2886.55332 0.00034
46.62500 2969.00000 2888.73335 0.00034
46.64000 2891.00000 2897.61366 0.00035
46.65500 2957.00000 2910.34494 0.00034
46.67000 2938.00000 2925.25041 0.00034
46.68500 2942.00000 2941.12050 0.00034
46.70000 2953.00000 2957.61608 0.00034
46.71500 2972.00000 2975.80127 0.00034
46.73000 3080.00000 2996.22314 0.00032
46.74500 2991.00000 3017.88523 0.00033
46.76000 2867.00000 3038.19716 0.00035
46.77500 2934.00000 3053.42992 0.00034
46.79000 2998.00000 3060.42890 0.00033
46.80500 2954.00000 3057.46291 0.00034
46.82000 2946.00000 3043.63322 0.00034
46.83500 2964.00000 3020.01454 0.00034
46.85000 2884.00000 2991.35536 0.00035
46.86500 2866.00000 2963.31633 0.00035
46.88000 2852.00000 2940.08260 0.00035
46.89500 2888.00000 2923.89043 0.00035
46.91000 2888.00000 2914.79073 0.00035
46.92500 2922.00000 2911.30908 0.00034
46.94000 2966.00000 2911.36105 0.00034
46.95500 3004.00000 2913.26738 0.00033
46.97000 3018.00000 2916.59801 0.00033
46.98500 2975.00000 2921.62813 0.00034
47.00000 3019.00000 2928.56848 0.00033
47.01500 2961.00000 2937.58979 0.00034
47.03000 2960.00000 2948.85043 0.00034
47.04500 2959.00000 2962.28116 0.00034
47.06000 3012.00000 2977.05388 0.00033
47.07500 3079.00000 2991.49523 0.00032
47.09000 2922.00000 3003.42854 0.00034
47.10500 2952.00000 3010.62542 0.00034
47.12000 2963.00000 3012.40363 0.00034
47.13500 2949.00000 3009.88326 0.00034
47.15000 3022.00000 3003.96088 0.00033
47.16500 3071.00000 2995.39856 0.00033
47.18000 3005.00000 2987.14967 0.00033
47.19500 3007.00000 2982.99613 0.00033
47.21000 3050.00000 2985.16158 0.00033
47.22500 3093.00000 2993.49607 0.00032
47.24000 3040.00000 3005.70900 0.00033
47.25500 3020.00000 3019.23386 0.00033
47.27000 3051.00000 3032.97558 0.00033
47.28500 3024.00000 3046.36996 0.00033
47.30000 2936.00000 3058.40947 0.00034
47.31500 3013.00000 3068.16938 0.00033
47.33000 3058.00000 3074.60454 0.00033
47.34500 2961.00000 3076.04301 0.00034
47.36000 3025.00000 3071.24889 0.00033
47.37500 3089.00000 3061.11678 0.00032
47.39000 3013.00000 3049.34418 0.00033
47.40500 3026.00000 3041.05469 0.00033
47.42000 3034.00000 3040.40127 0.00033
47.43500 3006.00000 3049.07645 0.00033
47.45000 3099.00000 3066.24356 0.00032
47.46500 3093.00000 3089.06820 0.00032
47.48000 3147.00000 3112.82097 0.00032
47.49500 3096.00000 3131.17439 0.00032
47.51000 3003.00000 3136.66954 0.00033
47.52500 3061.00000 3124.71961 0.00033
47.54000 3048.00000 3098.70083 0.00033
47.55500 2997.00000 3066.71235 0.00033
47.57000 3004.00000 3034.56074 0.00033
47.58500 2996.00000 3004.47342 0.00033
47.60000 2917.00000 2976.17954 0.00034
47.61500 2992.00000 2949.32000 0.00033
47.63000 2936.00000 2925.21849 0.00034
47.64500 2934.00000 2906.01926 0.00034
47.66000 2839.00000 2893.77410 0.00035
47.67500 2860.00000 2890.27400 0.00035
47.69000 2913.00000 2896.02318 0.00034
47.70500 2957.00000 2909.64843 0.00034
47.72000 2903.00000 2928.24983 0.00034
47.73500 2962.00000 2947.55260 0.00034
47.75000 2986.00000 2962.23861 0.00033
47.76500 3075.00000 2968.69352 0.00033
47.78000 3072.00000 2968.69270 0.00033
47.79500 3078.00000 2966.32261 0.00032
47.81000 2996.00000 2963.45778 0.00033
47.82500 2989.00000 2960.17502 0.00033
47.84000 2934.00000 2956.62861 0.00034
47.85500 2817.00000 2953.25347 0.00035
47.87000 2985.00000 2949.93009 0.00034
47.88500 2998.00000 2945.99309 0.00033
47.90000 2901.00000 2940.54470 0.00034
47.91500 2874.00000 2933.01117 0.00035
47.93000 2955.00000 2923.04236 0.00034
47.94500 2965.00000 2910.83346 0.00034
47.96000 2945.00000 2898.00601 0.00034
47.97500 3002.00000 2887.37512 0.00033
47.99000 2928.00000 2880.72528 0.00034
48.00500 2848.00000 2877.12808 0.00035
48.02000 2855.00000 2874.67814 0.00035
48.03500 2908.00000 2873.97796 0.00034
48.05000 2927.00000 2877.79457 0.00034
48.06500 2868.00000 2888.03336 0.00035
48.08000 2931.00000 2904.45516 0.00034
48.09500 2945.00000 2925.40259 0.00034
48.11000 2996.00000 2948.91132 0.00033
48.12500 2960.00000 2973.68096 0.00034
48.14000 3053.00000 2999.39341 0.00033
48.15500 3083.00000 3025.78594 0.00032
48.17000 3025.00000 3051.44862 0.00033
48.18500 3009.00000 3074.19987 0.00033
48.20000 3030.00000 3092.67976 0.00033
48.21500 3039.00000 3106.65547 0.00033
48.23000 3027.00000 3115.76878 0.00033
48.24500 3017.00000 3119.00023 0.00033
48.26000 3041.00000 3116.51415 0.00033
48.27500 3084.00000 3110.63256 0.00032
48.29000 3074.00000 3103.38430 0.00033
48.30500 2991.00000 3094.98166 0.00033
48.32000 3051.00000 3084.19533 0.00033
48.33500 3071.00000 3070.03432 0.00033
48.35000 3037.00000 3053.30414 0.00033
48.36500 2974.00000 3035.52375 0.00034
48.38000 2991.00000 3017.48721 0.00033
48.39500 2948.00000 2999.12042 0.00034
48.41000 2852.00000 2978.98108 0.00035
48.42500 2911.00000 2954.19658 0.00034
48.44000 2882.00000 2923.76417 0.00035
48.45500 2937.00000 2889.99645 0.00034
48.47000 2862.00000 2857.48153 0.00035
48.48500 2875.00000 2831.78931 0.00035
48.50000 2908.00000 2814.95533 0.00034
48.51500 2842.00000 2806.55143 0.00035
48.53000 2836.00000 2806.12616 0.00035
48.54500 2887.00000 2812.75095 0.00035
48.56000 2880.00000 2823.91046 0.00035
48.57500 2867.00000 2836.20281 0.00035
48.59000 2860.00000 2846.90462 0.00035
48.60500 2880.00000 2854.98676 0.00035
48.62000 2899.00000 2860.87040 0.00034
48.63500 2908.00000 2865.24820 0.00034
48.65000 2889.00000 2868.37018 0.00035
48.66500 2845.00000 2870.16538 0.00035
48.68000 2895.00000 2869.95403 0.00035
48.69500 2846.00000 2866.71227 0.00035
48.71000 2787.00000 2860.34404 0.00036
48.72500 2814.00000 2852.98223 0.00036
48.74000 2895.00000 2848.34054 0.00035
48.75500 2891.00000 2849.68978 0.00035
48.77000 2823.00000 2858.34438 0.00035
48.78500 2877.00000 2873.34575 0.00035
48.80000 2878.00000 2892.11980 0.00035
48.81500 2881.00000 2911.75715 0.00035
48.83000 2933.00000 2930.36019 0.00034
48.84500 2903.00000 2947.26396 0.00034
48.86000 2933.00000 2961.92360 0.00034
48.87500 2885.00000 2973.99403 0.00035
48.89000 2901.00000 2983.27346 0.00034
48.90500 2845.00000 2988.28303 0.00035
48.92000 2980.00000 2986.55335 0.00034
48.93500 3048.00000 2977.33445 0.00033
48.95000 2936.00000 2962.87465 0.00034
48.96500 2869.00000 2945.60518 0.00035
48.98000 2824.00000 2926.22822 0.00035
48.99500 2854.00000 2904.64978 0.00035
49.01000 2828.00000 2881.53286 0.00035
49.02500 2758.00000 2858.02316 0.00036
49.04000 2807.00000 2835.02128 0.00036
49.05500 2823.00000 2813.12794 0.00035
49.07000 2773.00000 2792.77946 0.00036
49.08500 2786.00000 2774.46826 0.00036
49.10000 2771.00000 2758.97343 0.00036
49.11500 2782.00000 2747.68292 0.00036
49.13000 2809.00000 2741.49694 0.00036
49.14500 2789.00000 2740.33254 0.00036
49.16000 2797.00000 2743.62425 0.00036
49.17500 2827.00000 2749.83980 0.00035
49.19000 2742.00000 2756.82073 0.00036
49.20500 2747.00000 2762.65023 0.00036
49.22000 2854.00000 2766.67992 0.00035
49.23500 2809.00000 2769.48711 0.00036
49.25000 2772.00000 2771.28529 0.00036
49.26500 2753.00000 2771.97328 0.00036
49.28000 2797.00000 2771.84527 0.00036
49.29500 2769.00000 2771.62209 0.00036
49.31000 2797.00000 2773.01266 0.00036
49.32500 2745.00000 2778.19599 0.00036
49.34000 2867.00000 2786.81713 0.00035
49.35500 2785.00000 2796.00054 0.00036
49.37000 2812.00000 2802.19112 0.00036
49.38500 2806.00000 2802.92370 0.00036
49.40000 2795.00000 2798.49743 0.00036
49.41500 2789.00000 2791.18168 0.00036
49.43000 2779.00000 2782.46459 0.00036
49.44500 2795.00000 2771.71918 0.00036
49.46000 2843.00000 2759.62826 0.00035
49.47500 2862.00000 2750.89718 0.00035
49.49000 2825.00000 2749.49718 0.00035
49.50500 2777.00000 2755.29728 0.00036
49.52000 2783.00000 2765.95242 0.00036
49.53500 2796.00000 2779.19839 0.00036
49.55000 2844.00000 2793.31067 0.00035
49.56500 2830.00000 2806.75751 0.00035
49.58000 2911.00000 2817.92891 0.00034
49.59500 2872.00000 2824.85683 0.00035
49.61000 2753.00000 2825.49433 0.00036
49.62500 2846.00000 2819.08432 0.00035
49.64000 2816.00000 2807.39779 0.00036
49.65500 2759.00000 2793.44593 0.00036
49.67000 2738.00000 2779.89547 0.00037
49.68500 2848.00000 2768.82724 0.00035
49.70000 2801.00000 2761.56027 0.00036
49.71500 2799.00000 2758.44981 0.00036
49.73000 2811.00000 2759.64628 0.00036
49.74500 2769.00000 2765.63403 0.00036
49.76000 2823.00000 2775.44247 0.00035
49.77500 2845.00000 2785.84305 0.00035
49.79000 2794.00000 2793.79217 0.00036
49.80500 2830.00000 2798.54549 0.00035
49.82000 2860.00000 2800.05112 0.00035
49.83500 2768.00000 2797.82490 0.00036
49.85000 2715.00000 2791.80148 0.00037
49.86500 2728.00000 2783.34295 0.00037
49.88000 2824.00000 2775.10467 0.00035
49.89500 2796.00000 2769.83468 0.00036
49.91000 2710.00000 2769.09070 0.00037
49.92500 2700.00000 2772.94054 0.00037
49.94000 2717.00000 2780.56931 0.00037
49.95500 2796.00000 2790.98477 0.00036
49.97000 2741.00000 2803.13019 0.00036
49.98500 2735.00000 2815.65105 0.00037
50.00000 2743.00000 2826.79730 0.00036
