#------------------------------------------------------------------------------
#$Date: 2021-04-04 13:01:04 +0300 (Sun, 04 Apr 2021) $
#$Revision: 263596 $
#$URL: file:///home/coder/svn-repositories/cod/cif/4/00/38/4003886.cif $
#------------------------------------------------------------------------------
#
# This file is available in the Crystallography Open Database (COD),
# http://www.crystallography.net/
#
# All data on this site have been placed in the public domain by the
# contributors.
#
data_4003886
loop_
_publ_author_name
'Bao, Jin-Ke'
'Malliakas, Christos D.'
'Zhang, Chi'
'Cai, Songting'
'Chen, Haijie'
'Rettie, Alexander J. E.'
'Fisher, Brandon L.'
'Chung, Duck Young'
'Dravid, Vinayak P.'
'Kanatzidis, Mercouri G.'
_publ_section_title
;
 Quasi-Two-Dimensional Heterostructures (KM1&#x00A0;--&#x00A0;xTe)(LaTe3)
 (M = Mn and Zn) with Charge Density Waves
;
_journal_issue                   6
_journal_name_full               'Chemistry of Materials'
_journal_page_first              2155
_journal_page_last               2164
_journal_paper_doi               10.1021/acs.chemmater.0c04923
_journal_volume                  33
_journal_year                    2021
_chemical_formula_sum            'K La Mn0.65 Te4'
_chemical_formula_weight         724.1
_space_group_IT_number           59
_space_group_name_Hall           'P 2ac 2ac -1ac'
_space_group_name_H-M_alt        'P m n m :1'
_space_group_ssg_name            Pmnm(01/2\g)s00
_symmetry_cell_setting           orthorhombic
_cell_angle_alpha                90
_cell_angle_beta                 90
_cell_angle_gamma                90
_cell_formula_units_Z            2
_cell_length_a                   4.4815(3)
_cell_length_b                   21.6649(16)
_cell_length_c                   4.5220(3)
_cell_measurement_temperature    293
_cell_modulation_dimension       1
_cell_volume                     439.05(5)
_diffrn_ambient_temperature      293
_diffrn_detector                 'image plate (34 cm diameter)'
_diffrn_detector_area_resol_mean 6.67
_diffrn_detector_type            STOE
_diffrn_measured_fraction_theta_full 0.99
_diffrn_measured_fraction_theta_max 0.99
_diffrn_measurement_details      ' 200 frames, detector distance = 100 mm'
_diffrn_measurement_device       'four-circle diffractometer'
_diffrn_measurement_device_type  'IPDS Stoe'
_diffrn_measurement_method       '??integration method??'
_diffrn_radiation_collimation    '0.5 mm diameter, monocapillary'
_diffrn_radiation_monochromator  graphite
_diffrn_radiation_polarisn_norm  0
_diffrn_radiation_probe          x-ray
_diffrn_radiation_source         'X-ray tube'
_diffrn_radiation_type           'Mo K\a'
_diffrn_radiation_wavelength     0.71075
_diffrn_reflns_av_R_equivalents  0.0275
_diffrn_reflns_av_unetI/netI     0.0066
_diffrn_reflns_limit_h_max       6
_diffrn_reflns_limit_h_min       -6
_diffrn_reflns_limit_index_m_1_max 2
_diffrn_reflns_limit_index_m_1_min -2
_diffrn_reflns_limit_k_max       30
_diffrn_reflns_limit_k_min       -30
_diffrn_reflns_limit_l_max       6
_diffrn_reflns_limit_l_min       -6
_diffrn_reflns_number            18531
_diffrn_reflns_theta_full        29.2
_diffrn_reflns_theta_max         29.2
_diffrn_reflns_theta_min         2.82
_diffrn_source
'sealed X-ray tube, 12 x 0.4 mm long-fine focus'
_diffrn_source_current           40
_diffrn_source_power             2.00
_diffrn_source_voltage           50
_exptl_absorpt_coefficient_mu    19.157
_exptl_absorpt_correction_T_max  0.8553
_exptl_absorpt_correction_T_min  0.0949
_exptl_absorpt_correction_type   integration
_exptl_absorpt_process_details   'STOE X-SHAPE2'
_exptl_crystal_density_diffrn    5.4774
_exptl_crystal_description       plate
_exptl_crystal_F_000             601
_exptl_crystal_size_max          0.13
_exptl_crystal_size_mid          0.10
_exptl_crystal_size_min          0.007
_refine_diff_density_max         4.51
_refine_diff_density_min         -4.01
_refine_ls_extinction_coef       2250(150)
_refine_ls_extinction_method
'B-C type 1 Gaussian isotropic (Becker & Coppens, 1974)'
_refine_ls_goodness_of_fit_gt    4.09
_refine_ls_goodness_of_fit_ref   3.22
_refine_ls_number_constraints    0
_refine_ls_number_parameters     89
_refine_ls_number_reflns         3087
_refine_ls_number_restraints     0
_refine_ls_R_factor_all          0.0728
_refine_ls_R_factor_gt           0.0535
_refine_ls_shift/su_max          0.0293
_refine_ls_shift/su_mean         0.0026
_refine_ls_structure_factor_coef Fsqd
_refine_ls_weighting_details     w=1/(\s^2^(I)+0.0004I^2^)
_refine_ls_weighting_scheme      sigma
_refine_ls_wR_factor_gt          0.1317
_refine_ls_wR_factor_ref         0.1341
_reflns_number_gt                1879
_reflns_number_total             3087
_reflns_threshold_expression     I>2\s(I)
_cod_data_source_file            cm0c04923_si_002.cif
_cod_data_source_block           I
_cod_depositor_comments
;
The following automatic conversions were performed:

data item '_diffrn_radiation_probe' value 'X-ray' was changed to
'x-ray' in accordance with the
/home/data/users/saulius/crontab/automatic-downloads/rss-feeds/ACS/lib/dictionaries/cif_core.dic
dictionary named 'cif_core.dic' version 2.4.2 last updated on
2011-04-26.

Automatic conversion script
Id: cif_fix_values 7556 2019-12-06 15:28:31Z antanas 

 Adding full bibliography for 4003886.cif.
;
_cod_database_code               4003886
loop_
_space_group_symop_id
_space_group_symop_operation_xyz
1 x,y,z
2 -x+0.5,-y,z+0.5
3 -x,y,-z
4 x+0.5,-y,-z+0.5
5 -x+0.5,-y,-z+0.5
6 x,y,-z
7 x+0.5,-y,z+0.5
8 -x,y,z
loop_
_space_group_symop_ssg_id
_space_group_symop_ssg_operation_algebraic
1 x1,x2,x3,x4
2 -x1+1/2,-x2,x3+1/2,-x2+x4+1/2
3 -x1,x2,-x3,x2-x4
4 x1+1/2,-x2,-x3+1/2,-x4+1/2
5 -x1+1/2,-x2,-x3+1/2,-x4
6 x1,x2,-x3,x2-x4+1/2
7 x1+1/2,-x2,x3+1/2,-x2+x4
8 -x1,x2,x3,x4+1/2
loop_
_atom_site_label
_atom_site_type_symbol
_atom_site_fract_x
_atom_site_fract_y
_atom_site_fract_z
_atom_site_adp_type
_atom_site_U_iso_or_equiv
_atom_site_site_symmetry_multiplicity
_atom_site_occupancy
_atom_site_calc_flag
_atom_site_refinement_flags
_atom_site_disorder_assembly
_atom_site_disorder_group
La1 La 0 0.40382(2) 0 Uani 0.01985(15) 2 1 d . . .
Te1 Te 0.5 0.44388(3) 0.5 Uani 0.01925(16) 2 1 d . . .
Te2 Te 0 0.28577(3) 0.5 Uani 0.02969(19) 2 1 d . . .
Te3 Te 0.5 0.28627(3) 0 Uani 0.02791(18) 2 1 d . . .
Te4 Te 0 0.07513(4) 0 Uani 0.0345(2) 2 1 d . . .
Mn1 Mn 0.5 -0.00018(12) 0 Uani 0.0356(9) 2 0.650(12) d . . .
K1 K 0.5 0.15247(12) 0.5 Uani 0.0402(7) 2 1 d . . .
loop_
_atom_site_aniso_label
_atom_site_aniso_type_symbol
_atom_site_aniso_U_11
_atom_site_aniso_U_22
_atom_site_aniso_U_33
_atom_site_aniso_U_12
_atom_site_aniso_U_13
_atom_site_aniso_U_23
La1 La 0.0194(3) 0.0215(3) 0.0186(3) 0 0 0
Te1 Te 0.0184(3) 0.0213(3) 0.0181(3) 0 0 0
Te2 Te 0.0397(4) 0.0241(3) 0.0254(3) 0 0 0
Te3 Te 0.0360(4) 0.0239(3) 0.0238(3) 0 0 0
Te4 Te 0.0332(4) 0.0356(3) 0.0346(3) 0 0 0
Mn1 Mn 0.0361(16) 0.0320(16) 0.0386(16) 0 0 0
K1 K 0.0418(14) 0.0346(12) 0.0442(13) 0 0 0
loop_
_atom_site_displace_Fourier_atom_site_label
_atom_site_displace_Fourier_axis
_atom_site_displace_Fourier_wave_vector_seq_id
_atom_site_displace_Fourier_param_cos
_atom_site_displace_Fourier_param_sin
La1 x 1 0.00871(12) -0.00271(4)
La1 y 1 0 0
La1 z 1 0 0
La1 x 2 0 0
La1 y 2 0.00065(4) -0.00045(3)
La1 z 2 0.00060(8) 0.00086(12)
Te1 x 1 0.00075(14) -0.00013(3)
Te1 y 1 0 0
Te1 z 1 0 0
Te1 x 2 0 0
Te1 y 2 -0.00050(5) 0.000185(17)
Te1 z 2 0.00016(6) 0.00044(16)
Te2 x 1 -0.0334(2) 0.02659(18)
Te2 y 1 0 0
Te2 z 1 0 0
Te2 x 2 0 0
Te2 y 2 -0.000183(14) 0.00080(6)
Te2 z 2 -0.0102(2) -0.00232(5)
Te3 x 1 0.0259(2) -0.02060(16)
Te3 y 1 0 0
Te3 z 1 0 0
Te3 x 2 0 0
Te3 y 2 0.000064(14) -0.00028(6)
Te3 z 2 -0.0048(2) -0.00112(5)
Te4 x 1 -0.00103(5) 0.0043(2)
Te4 y 1 0 0
Te4 z 1 0 0
Te4 x 2 0 0
Te4 y 2 -0.00065(6) -0.00033(3)
Te4 z 2 -0.00005(10) 0.00010(20)
Mn1 x 1 0.0000(20) 0.0048(10)
Mn1 y 1 0 0
Mn1 z 1 0 0
Mn1 x 2 0 0
Mn1 y 2 0 0
Mn1 z 2 0.0000(10) 0.0028(6)
K1 x 1 -0.0064(3) 0.0124(6)
K1 y 1 0 0
K1 z 1 0 0
K1 x 2 0 0
K1 y 2 0.00045(13) 0.00064(18)
K1 z 2 0.0019(7) -0.0014(5)
loop_
_atom_site_displace_special_func_atom_site_label
_atom_site_displace_special_func_sawtooth_ax
_atom_site_displace_special_func_sawtooth_ay
_atom_site_displace_special_func_sawtooth_az
_atom_site_displace_special_func_sawtooth_c
_atom_site_displace_special_func_sawtooth_w
? ? ? ? ? ?
loop_
_atom_site_Fourier_wave_vector_seq_id
_jana_atom_site_fourier_wave_vector_q1_coeff
1 1
2 2
loop_
_atom_site_occ_Fourier_atom_site_label
_atom_site_occ_Fourier_wave_vector_seq_id
_atom_site_occ_Fourier_param_cos
_atom_site_occ_Fourier_param_sin
? ? ? ?
loop_
_atom_site_occ_special_func_atom_site_label
_atom_site_occ_special_func_crenel_c
_atom_site_occ_special_func_crenel_w
? ? ?
loop_
_atom_site_U_Fourier_atom_site_label
_atom_site_U_Fourier_tens_elem
_atom_site_U_Fourier_wave_vector_seq_id
_atom_site_U_Fourier_param_cos
_atom_site_U_Fourier_param_sin
La1 U11 1 0 0
La1 U22 1 0 0
La1 U33 1 0 0
La1 U12 1 -0.0001(2) 0.00002(7)
La1 U13 1 0.00009(5) 0.00027(16)
La1 U23 1 0 0
La1 U11 2 0.0006(3) -0.0004(2)
La1 U22 2 -0.0001(4) 0.0000(3)
La1 U33 2 0.0000(2) 0.00002(15)
La1 U12 2 0 0
La1 U13 2 0 0
La1 U23 2 -0.00030(16) -0.0004(2)
Te1 U11 1 0 0
Te1 U22 1 0 0
Te1 U33 1 0 0
Te1 U12 1 0.0003(2) -0.00005(4)
Te1 U13 1 -0.00003(3) -0.00017(18)
Te1 U23 1 0 0
Te1 U11 2 -0.0005(4) 0.00017(15)
Te1 U22 2 -0.0003(5) 0.00010(17)
Te1 U33 2 0.0001(3) -0.00002(10)
Te1 U12 2 0 0
Te1 U13 2 0 0
Te1 U23 2 0.00011(11) 0.0003(3)
Te2 U11 1 0 0
Te2 U22 1 0 0
Te2 U33 1 0 0
Te2 U12 1 0.0023(3) -0.0019(3)
Te2 U13 1 0.0022(2) 0.0028(3)
Te2 U23 1 0 0
Te2 U11 2 0.0020(2) -0.0086(9)
Te2 U22 2 0.00027(12) -0.0012(5)
Te2 U33 2 -0.00027(9) 0.0012(4)
Te2 U12 2 0 0
Te2 U13 2 0 0
Te2 U23 2 0.0000(4) -0.00001(10)
Te3 U11 1 0 0
Te3 U22 1 0 0
Te3 U33 1 0 0
Te3 U12 1 0.0005(3) -0.0004(2)
Te3 U13 1 -0.0013(2) -0.0017(3)
Te3 U23 1 0 0
Te3 U11 2 0.00150(18) -0.0064(8)
Te3 U22 2 0.00034(11) -0.0015(5)
Te3 U33 2 -0.00035(9) 0.0015(4)
Te3 U12 2 0 0
Te3 U13 2 0 0
Te3 U23 2 0.0000(4) 0.00000(9)
Te4 U11 1 0 0
Te4 U22 1 0 0
Te4 U33 1 0 0
Te4 U12 1 -0.00005(7) 0.0002(3)
Te4 U13 1 0.0011(3) 0.00027(7)
Te4 U23 1 0 0
Te4 U11 2 -0.0003(5) -0.0002(3)
Te4 U22 2 0.0001(6) 0.0000(3)
Te4 U33 2 -0.0001(4) -0.00005(19)
Te4 U12 2 0 0
Te4 U13 2 0 0
Te4 U23 2 -0.00009(18) 0.0002(4)
Mn1 U11 1 0 0
Mn1 U22 1 0 0
Mn1 U33 1 0 0
Mn1 U12 1 0.000000(4) 0.0004(9)
Mn1 U13 1 0 0
Mn1 U23 1 0 0
Mn1 U11 2 0 0
Mn1 U22 2 0 0
Mn1 U33 2 0 0
Mn1 U12 2 0 0
Mn1 U13 2 0 0
Mn1 U23 2 0.000000(3) 0.000(2)
K1 U11 1 0 0
K1 U22 1 0 0
K1 U33 1 0 0
K1 U12 1 -0.0011(6) 0.0022(11)
K1 U13 1 0.0007(9) 0.0004(5)
K1 U23 1 0 0
K1 U11 2 -0.0019(14) -0.003(2)
K1 U22 2 -0.0005(13) -0.0007(18)
K1 U33 2 0.0008(10) 0.0012(14)
K1 U12 2 0 0
K1 U13 2 0 0
K1 U23 2 0.0008(13) -0.0006(9)
loop_
_atom_type_symbol
_atom_type_scat_dispersion_real
_atom_type_scat_dispersion_imag
_atom_type_scat_source
K 0.2009 0.2494 'International Tables Vol C tables 4.2.6.8 and 6.1.1.1'
La -0.2871 2.4523 'International Tables Vol C tables 4.2.6.8 and 6.1.1.1'
Mn 0.3368 0.7283 'International Tables Vol C tables 4.2.6.8 and 6.1.1.1'
Te -0.5308 1.6751 'International Tables Vol C tables 4.2.6.8 and 6.1.1.1'
loop_
_cell_wave_vector_seq_id
_cell_wave_vector_x
_cell_wave_vector_y
_cell_wave_vector_z
1 0.000000 0.500000 0.3478(3)
loop_
_diffrn_standard_refln_index_h
_diffrn_standard_refln_index_k
_diffrn_standard_refln_index_l
? ? ?
loop_
_exptl_crystal_face_index_h
_exptl_crystal_face_index_k
_exptl_crystal_face_index_l
_exptl_crystal_face_perp_dist
? ? ? ?
loop_
_geom_angle_atom_site_label_1
_geom_angle_atom_site_label_2
_geom_angle_atom_site_label_3
_geom_angle_site_ssg_symmetry_1
_geom_angle_site_ssg_symmetry_2
_geom_angle_site_ssg_symmetry_3
_geom_angle_av
_geom_angle_min
_geom_angle_max
_geom_angle_publ_flag
Te1 La1 Te1 1_4545 . 1_4555 86.515(18) 85.778(19) 87.528(19) ?
Te1 La1 Te1 1_4545 . 1_5545 85.547(18) 85.479(19) 85.616(18) ?
Te1 La1 Te1 1_4545 . . 149.49(3) 149.12(4) 149.84(4) ?
Te1 La1 Te1 1_4545 . 2_5645 74.75(2) 74.31(2) 75.38(2) ?
Te1 La1 Te2 1_4545 . 1_5545 75.10(2) 72.67(3) 77.65(2) ?
Te1 La1 Te2 1_4545 . . 130.63(3) 126.98(2) 134.08(3) ?
Te1 La1 Te3 1_4545 . 1_4555 75.47(2) 74.52(2) 76.37(2) ?
Te1 La1 Te3 1_4545 . . 130.24(3) 128.92(2) 131.41(2) ?
Te1 La1 Te1 1_4555 . 1_5545 149.49(3) 149.12(3) 149.84(3) ?
Te1 La1 Te1 1_4555 . . 85.547(18) 85.479(18) 85.616(17) ?
Te1 La1 Te1 1_4555 . 2_5645 74.75(2) 74.31(2) 75.38(2) ?
Te1 La1 Te2 1_4555 . 1_5545 130.58(3) 126.98(3) 134.08(3) ?
Te1 La1 Te2 1_4555 . . 75.14(2) 72.67(2) 77.65(2) ?
Te1 La1 Te3 1_4555 . 1_4555 75.47(2) 74.52(2) 76.37(2) ?
Te1 La1 Te3 1_4555 . . 130.24(3) 128.92(2) 131.41(3) ?
Te1 La1 Te1 1_5545 . . 86.515(18) 85.778(19) 87.528(19) ?
Te1 La1 Te1 1_5545 . 2_5645 74.75(2) 74.31(2) 75.38(2) ?
Te1 La1 Te2 1_5545 . 1_5545 75.14(2) 72.67(3) 77.65(2) ?
Te1 La1 Te2 1_5545 . . 130.58(3) 126.98(2) 134.08(3) ?
Te1 La1 Te3 1_5545 . 1_4555 130.24(3) 128.92(2) 131.41(2) ?
Te1 La1 Te3 1_5545 . . 75.47(2) 74.52(2) 76.37(2) ?
Te1 La1 Te1 . . 2_5645 74.75(2) 74.31(2) 75.38(2) ?
Te1 La1 Te2 . . 1_5545 130.63(3) 126.98(3) 134.08(3) ?
Te1 La1 Te2 . . . 75.10(2) 72.67(2) 77.65(2) ?
Te1 La1 Te3 . . 1_4555 130.24(3) 128.92(2) 131.41(3) ?
Te1 La1 Te3 . . . 75.47(2) 74.52(2) 76.37(2) ?
Te1 La1 Te2 2_5645 . 1_5545 138.43(3) 137.81(2) 139.07(2) ?
Te1 La1 Te2 2_5645 . . 138.43(3) 137.81(3) 139.07(3) ?
Te1 La1 Te3 2_5645 . 1_4555 138.67(2) 138.21(3) 139.40(3) ?
Te1 La1 Te3 2_5645 . . 138.67(2) 138.21(3) 139.40(3) ?
Te2 La1 Te2 1_5545 . . 83.01(3) 81.76(3) 84.22(3) ?
Te2 La1 Te3 1_5545 . 1_4555 55.78(2) 51.67(2) 58.73(2) ?
Te2 La1 Te3 1_5545 . . 55.82(2) 51.67(2) 58.73(2) ?
Te2 La1 Te3 . . 1_4555 55.82(2) 51.67(2) 58.73(2) ?
Te2 La1 Te3 . . . 55.78(2) 51.67(2) 58.73(2) ?
Te3 La1 Te3 1_4555 . . 82.66(3) 82.39(3) 82.93(3) ?
La1 Te1 La1 . . 1_5565 86.516(17) 86.275(18) 86.97(2) ?
La1 Te1 La1 . . 1_6555 85.547(18) 85.479(16) 85.616(17) ?
La1 Te1 La1 . . 1_6565 149.50(4) 149.18(4) 149.66(3) ?
La1 Te1 La1 . . 2_5655 105.26(2) 104.66(3) 105.91(2) ?
La1 Te1 La1 1_5565 . 1_6555 149.50(4) 149.18(4) 149.66(3) ?
La1 Te1 La1 1_5565 . 1_6565 85.547(18) 85.479(16) 85.616(17) ?
La1 Te1 La1 1_5565 . 2_5655 105.25(2) 104.66(2) 105.91(3) ?
La1 Te1 La1 1_6555 . 1_6565 86.522(17) 86.275(18) 86.97(2) ?
La1 Te1 La1 1_6555 . 2_5655 105.25(2) 104.66(3) 105.91(2) ?
La1 Te1 La1 1_6565 . 2_5655 105.25(2) 104.66(2) 105.91(3) ?
La1 Te2 La1 . . 1_5565 82.86(3) 82.69(4) 83.04(4) ?
La1 Te2 Te3 . . 1_4555 61.66(3) 59.93(3) 62.92(3) ?
La1 Te2 Te3 . . 1_4565 117.82(4) 112.92(4) 121.99(5) ?
La1 Te2 Te3 . . . 61.68(3) 59.93(3) 62.92(3) ?
La1 Te2 Te3 . . 1_5565 117.90(4) 112.92(4) 121.99(5) ?
La1 Te2 Te3 1_5565 . 1_4555 117.82(4) 112.92(4) 121.99(5) ?
La1 Te2 Te3 1_5565 . 1_4565 61.67(3) 59.93(3) 62.92(3) ?
La1 Te2 Te3 1_5565 . . 117.90(4) 112.92(4) 121.99(5) ?
La1 Te2 Te3 1_5565 . 1_5565 61.69(3) 59.93(3) 62.92(3) ?
Te3 Te2 Te3 1_4555 . 1_4565 90.69(3) 83.78(3) 97.07(3) ?
Te3 Te2 Te3 1_4555 . . 89.24(2) 87.90(3) 90.62(3) ?
Te3 Te2 Te3 1_4555 . 1_5565 175.73(3) 172.85(3) 179.84(5) ?
Te3 Te2 Te3 1_4565 . . 175.71(3) 172.85(3) 179.84(5) ?
Te3 Te2 Te3 1_4565 . 1_5565 89.26(2) 87.90(3) 90.62(3) ?
Te3 Te2 Te3 . . 1_5565 90.80(3) 83.78(3) 97.07(3) ?
La1 Te3 La1 . . 1_6555 82.66(3) 82.39(3) 82.93(3) ?
La1 Te3 Te2 . . 1_5545 62.52(3) 59.83(3) 65.43(3) ?
La1 Te3 Te2 . . . 62.54(3) 59.83(3) 65.43(3) ?
La1 Te3 Te2 . . 1_6545 117.74(4) 116.36(3) 119.91(3) ?
La1 Te3 Te2 . . 1_6555 117.76(4) 116.36(4) 119.91(3) ?
La1 Te3 Te2 1_6555 . 1_5545 117.76(4) 116.36(3) 119.91(3) ?
La1 Te3 Te2 1_6555 . . 117.74(4) 116.36(4) 119.91(3) ?
La1 Te3 Te2 1_6555 . 1_6545 62.54(3) 59.83(3) 65.43(3) ?
La1 Te3 Te2 1_6555 . 1_6555 62.52(3) 59.83(3) 65.43(3) ?
Te2 Te3 Te2 1_5545 . . 90.76(3) 83.80(3) 95.91(3) ?
Te2 Te3 Te2 1_5545 . 1_6545 89.24(2) 87.90(3) 90.62(3) ?
Te2 Te3 Te2 1_5545 . 1_6555 176.12(3) 173.63(3) 179.48(6) ?
Te2 Te3 Te2 . . 1_6545 176.12(3) 173.63(3) 179.48(6) ?
Te2 Te3 Te2 . . 1_6555 89.24(2) 87.90(2) 90.62(3) ?
Te2 Te3 Te2 1_6545 . 1_6555 90.76(3) 83.80(3) 95.91(3) ?
Mn1 Te4 Mn1 1_4555 . . 107.88(10) 107.35(11) 108.41(9) ?
Mn1 Te4 Mn1 1_4555 . 2_5545 69.92(10) 69.39(10) 70.72(9) ?
Mn1 Te4 Mn1 1_4555 . 2_5555 69.92(10) 69.39(10) 70.72(9) ?
Mn1 Te4 Mn1 . . 2_5545 69.92(10) 69.39(10) 70.72(9) ?
Mn1 Te4 Mn1 . . 2_5555 69.92(10) 69.39(10) 70.72(9) ?
Mn1 Te4 Mn1 2_5545 . 2_5555 108.64(8) 107.86(9) 109.41(9) ?
Te4 Mn1 Te4 . . 1_6555 107.88(9) 107.35(9) 108.41(9) ?
Te4 Mn1 Te4 . . 2_5545 110.08(8) 109.29(8) 110.56(8) ?
Te4 Mn1 Te4 . . 2_5555 110.08(8) 109.29(8) 110.56(8) ?
Te4 Mn1 Mn1 . . 2_5545 55.21(8) 54.95(7) 55.39(9) ?
Te4 Mn1 Mn1 . . 2_5555 55.22(8) 54.95(7) 55.39(9) ?
Te4 Mn1 Mn1 . . 2_6545 124.58(9) 124.01(11) 125.04(11) ?
Te4 Mn1 Mn1 . . 2_6555 124.58(9) 124.01(11) 125.04(11) ?
Te4 Mn1 Te4 1_6555 . 2_5545 110.08(8) 109.29(8) 110.56(8) ?
Te4 Mn1 Te4 1_6555 . 2_5555 110.08(8) 109.29(8) 110.56(8) ?
Te4 Mn1 Mn1 1_6555 . 2_5545 124.58(9) 124.01(11) 125.04(11) ?
Te4 Mn1 Mn1 1_6555 . 2_5555 124.58(9) 124.01(11) 125.04(11) ?
Te4 Mn1 Mn1 1_6555 . 2_6545 55.22(8) 54.95(7) 55.39(9) ?
Te4 Mn1 Mn1 1_6555 . 2_6555 55.21(8) 54.95(7) 55.39(9) ?
Te4 Mn1 Te4 2_5545 . 2_5555 108.63(9) 108.34(9) 108.93(9) ?
Te4 Mn1 Mn1 2_5545 . 2_5545 54.87(7) 54.32(8) 55.26(8) ?
Te4 Mn1 Mn1 2_5545 . 2_5555 125.33(11) 124.98(14) 125.69(12) ?
Te4 Mn1 Mn1 2_5545 . 2_6545 54.87(7) 54.32(8) 55.26(8) ?
Te4 Mn1 Mn1 2_5545 . 2_6555 125.34(11) 124.98(14) 125.69(12) ?
Te4 Mn1 Mn1 2_5555 . 2_5545 125.34(11) 124.98(14) 125.69(12) ?
Te4 Mn1 Mn1 2_5555 . 2_5555 54.87(7) 54.32(8) 55.26(8) ?
Te4 Mn1 Mn1 2_5555 . 2_6545 125.33(11) 124.98(14) 125.69(12) ?
Te4 Mn1 Mn1 2_5555 . 2_6555 54.87(7) 54.32(8) 55.26(8) ?
Mn1 Mn1 Mn1 2_5545 . 2_5555 90.52(11) 89.96(14) 90.82(8) ?
Mn1 Mn1 Mn1 2_5545 . 2_6545 89.48(9) 88.92(9) 90.05(10) ?
Mn1 Mn1 Mn1 2_5545 . 2_6555 179.53(12) 179.23(13) 179.72(11) ?
Mn1 Mn1 Mn1 2_5555 . 2_6545 179.53(12) 179.23(12) 179.72(11) ?
Mn1 Mn1 Mn1 2_5555 . 2_6555 89.48(9) 88.92(10) 90.05(10) ?
Mn1 Mn1 Mn1 2_6545 . 2_6555 90.52(11) 89.96(14) 90.82(8) ?
loop_
_geom_bond_atom_site_label_1
_geom_bond_atom_site_label_2
_geom_bond_site_ssg_symmetry_1
_geom_bond_site_ssg_symmetry_2
_geom_bond_distance_av
_geom_bond_distance_min
_geom_bond_distance_max
_geom_bond_publ_flag
La1 Te1 . 1_4545 3.300(5) 3.271(5) 3.325(5) ?
La1 Te1 . 1_4555 3.300(5) 3.271(5) 3.325(5) ?
La1 Te1 . 1_5545 3.300(5) 3.271(5) 3.325(5) ?
La1 Te1 . . 3.300(5) 3.271(5) 3.325(5) ?
La1 Te1 . 2_5645 3.2998(12) 3.2943(15) 3.3051(15) ?
La1 Te2 . 1_5545 3.4174(12) 3.3960(13) 3.4384(13) ?
La1 Te2 . . 3.4174(12) 3.3960(14) 3.4384(14) ?
La1 Te3 . 1_4555 3.393(5) 3.331(6) 3.472(6) ?
La1 Te3 . . 3.393(5) 3.331(6) 3.472(6) ?
Te2 Te3 . 1_4555 3.188(6) 2.940(7) 3.360(7) ?
Te2 Te3 . 1_4565 3.188(6) 2.940(7) 3.360(7) ?
Te2 Te3 . . 3.186(6) 2.940(7) 3.360(7) ?
Te2 Te3 . 1_5565 3.184(6) 2.940(7) 3.360(7) ?
Te4 Mn1 . 1_4555 2.772(7) 2.763(7) 2.783(7) ?
Te4 Mn1 . . 2.772(7) 2.763(7) 2.783(7) ?
Te4 Mn1 . 2_5545 2.784(2) 2.777(3) 2.790(3) ?
Te4 Mn1 . 2_5555 2.784(2) 2.777(3) 2.790(3) ?
Mn1 Mn1 . 2_5545 3.184(6) 3.166(7) 3.215(7) ?
Mn1 Mn1 . 2_5555 3.183(6) 3.166(7) 3.215(7) ?
Mn1 Mn1 . 2_6545 3.183(6) 3.166(7) 3.215(7) ?
Mn1 Mn1 . 2_6555 3.184(6) 3.166(7) 3.215(7) ?
loop_
_geom_hbond_atom_site_label_D
_geom_hbond_atom_site_label_H
_geom_hbond_atom_site_label_A
_geom_hbond_site_symmetry_D
_geom_hbond_site_symmetry_H
_geom_hbond_site_symmetry_A
_geom_hbond_distance_DH
_geom_hbond_distance_HA
_geom_hbond_distance_DA
_geom_hbond_angle_DHA
_geom_hbond_publ_flag
? ? ? ? ? ? ? ? ? ? ?
loop_
_geom_torsion_atom_site_label_1
_geom_torsion_atom_site_label_2
_geom_torsion_atom_site_label_3
_geom_torsion_atom_site_label_4
_geom_torsion_site_ssg_symmetry_1
_geom_torsion_site_ssg_symmetry_2
_geom_torsion_site_ssg_symmetry_3
_geom_torsion_site_ssg_symmetry_4
_geom_torsion_av
_geom_torsion_min
_geom_torsion_max
? ? ? ? ? ? ? ? ? ? ?
loop_
_refln_index_h
_refln_index_k
_refln_index_l
_refln_index_m_1
_refln_F_squared_calc
_refln_F_squared_meas
_refln_F_squared_sigma
_refln_observed_status
6 0 0 0 6627.78 6402.67 22.30 o
0 1 0 -2 9.10 8.37 4.68 <
1 1 0 -1 192.67 217.59 5.70 o
1 1 0 0 1539.47 1406.66 20.87 o
2 1 0 -2 18.81 21.17 7.88 o
2 1 0 -1 26.19 26.83 3.20 o
2 1 0 0 4711.05 4317.95 36.77 o
3 1 0 -1 389.13 495.71 4.94 o
3 1 0 0 518.65 484.88 14.86 o
4 1 0 -2 101.67 131.76 7.88 o
4 1 0 -1 10.17 10.34 3.94 o
4 1 0 0 2152.90 1938.66 10.03 o
5 1 0 -1 93.94 131.24 2.71 o
5 1 0 0 114.66 111.56 5.91 o
6 1 0 -2 57.80 48.24 3.45 o
6 1 0 -1 0.46 0.49 1.97 <
6 1 0 0 785.48 749.50 7.67 o
0 2 0 -2 0.10 -0.49 3.69 <
1 2 0 -2 0.30 0.74 3.20 <
1 2 0 -1 104.75 135.59 5.68 o
1 2 0 0 115.63 128.74 17.30 o
2 2 0 -2 1.03 0.49 5.66 <
2 2 0 -1 8.80 24.36 3.45 o
2 2 0 0 503.93 447.87 24.34 o
3 2 0 -2 1.76 2.46 2.46 <
3 2 0 -1 261.23 357.43 4.94 o
3 2 0 0 72.91 82.75 14.28 o
4 2 0 -2 4.36 9.60 5.66 <
4 2 0 -1 26.30 41.35 3.69 o
4 2 0 0 879.60 822.61 8.68 o
5 2 0 -2 1.79 2.21 2.46 <
5 2 0 -1 108.30 134.94 2.95 o
5 2 0 0 8.15 12.06 5.66 o
6 2 0 -2 2.59 1.97 1.97 <
6 2 0 -1 23.35 14.77 2.21 o
6 2 0 0 533.98 694.49 7.41 o
0 3 0 -2 8.25 13.29 3.69 o
0 3 0 0 12676.90 19668.40 142.92 o
1 3 0 -2 1.59 2.21 3.20 <
1 3 0 -1 402.41 489.54 7.73 o
1 3 0 0 8940.53 9463.41 49.78 o
2 3 0 -2 10.73 11.81 4.43 o
2 3 0 -1 36.60 51.71 3.69 o
2 3 0 0 5305.22 5134.55 40.53 o
3 3 0 -2 3.54 3.44 2.46 <
3 3 0 -1 884.41 1194.99 7.46 o
3 3 0 0 3388.78 2942.52 16.65 o
4 3 0 -2 64.51 73.86 4.43 o
4 3 0 -1 37.83 52.92 3.69 o
4 3 0 0 773.65 729.63 8.42 o
5 3 0 -2 2.72 1.23 2.46 <
5 3 0 -1 283.60 318.80 4.19 o
5 3 0 0 820.49 851.89 7.42 o
6 3 0 -2 34.36 27.56 2.21 o
6 3 0 -1 18.60 10.58 2.21 o
6 3 0 0 37.44 19.44 6.15 o
0 4 0 -2 1.04 0.49 3.69 <
0 4 0 0 863.49 842.74 38.19 o
1 4 0 -2 1.69 4.92 3.20 <
1 4 0 -1 0.00 6.64 6.40 <
1 4 0 0 14588.50 16888.90 67.20 o
2 4 0 -2 7.77 12.06 3.94 o
2 4 0 -1 38.33 39.15 3.45 o
2 4 0 0 169.41 192.50 20.48 o
3 4 0 -2 0.00 2.95 2.71 <
3 4 0 -1 0.18 3.94 4.18 <
3 4 0 0 4433.43 3891.84 17.10 o
4 4 0 -2 33.38 44.30 4.18 o
4 4 0 -1 29.69 33.47 2.95 o
4 4 0 0 26.38 42.82 9.35 o
5 4 0 -2 0.01 2.46 3.44 <
5 4 0 -1 0.71 2.95 2.21 <
5 4 0 0 850.01 868.63 7.92 o
6 4 0 -2 18.07 12.80 2.46 o
6 4 0 -1 9.84 4.43 2.46 <
6 4 0 0 81.27 120.63 7.14 o
0 5 0 -2 3.33 4.68 3.94 <
0 5 0 0 6749.05 6943.87 51.26 o
1 5 0 -2 1.72 4.92 3.94 <
1 5 0 -1 566.12 729.85 9.75 o
1 5 0 0 213.64 205.42 31.43 o
2 5 0 -2 3.76 6.89 3.69 <
2 5 0 -1 10.06 18.21 4.18 o
2 5 0 0 2163.76 1962.73 20.67 o
3 5 0 -2 2.93 4.92 2.71 <
3 5 0 -1 1408.20 1904.67 8.25 o
3 5 0 0 3.26 16.98 10.83 <
4 5 0 -2 23.34 31.99 3.45 o
4 5 0 -1 11.36 16.98 2.71 o
4 5 0 0 32.82 48.98 11.08 o
5 5 0 -2 0.80 2.71 2.71 <
5 5 0 -1 560.23 628.45 5.68 o
5 5 0 0 67.28 73.85 7.39 o
6 5 0 -2 11.01 7.38 2.71 o
6 5 0 -1 5.71 1.48 2.71 <
6 5 0 0 83.79 107.09 7.63 o
0 6 0 -2 8.09 12.31 4.68 o
1 6 0 -2 3.46 4.68 2.95 <
1 6 0 -1 82.79 103.31 6.16 o
1 6 0 0 22120.80 27841.90 84.58 o
2 6 0 -2 7.60 5.17 3.45 <
2 6 0 -1 14.32 11.81 5.17 o
2 6 0 0 22152.20 24000.70 51.33 o
3 6 0 -2 0.04 1.97 3.20 <
3 6 0 -1 233.42 323.20 5.18 o
3 6 0 0 9471.86 8435.21 24.26 o
4 6 0 -2 52.46 56.37 3.69 o
4 6 0 -1 6.12 6.64 2.71 o
4 6 0 0 7240.65 6876.71 25.09 o
5 6 0 -2 0.61 3.20 2.71 <
5 6 0 -1 109.89 135.19 4.43 o
5 6 0 0 2832.90 3087.48 17.31 o
6 6 0 -2 27.11 20.92 3.45 o
6 6 0 -1 0.35 1.48 2.71 <
6 6 0 0 1699.02 1243.84 13.18 o
0 7 0 -2 9.94 18.21 4.92 o
1 7 0 -2 7.27 11.57 2.95 o
1 7 0 -1 162.58 178.31 5.19 o
1 7 0 0 21684.40 26857.20 66.33 o
2 7 0 -2 0.99 3.20 3.69 <
2 7 0 -1 17.61 23.63 4.18 o
2 7 0 0 30270.50 35832.30 61.57 o
3 7 0 -2 0.46 5.41 4.18 <
3 7 0 -1 375.13 453.40 7.17 o
3 7 0 0 9065.21 8196.01 24.91 o
4 7 0 -2 1.46 0.98 3.94 <
4 7 0 -1 12.97 18.95 3.45 o
4 7 0 0 6948.62 6395.21 20.84 o
5 7 0 -2 0.05 -1.48 2.95 <
5 7 0 -1 100.65 107.85 4.92 o
5 7 0 0 2678.58 2852.40 18.80 o
0 8 0 -2 22.61 28.31 3.94 o
0 8 0 0 18275.40 20617.70 85.02 o
1 8 0 -2 0.54 7.38 3.20 o
1 8 0 -1 144.28 159.43 4.20 o
1 8 0 0 1528.38 1378.33 15.72 o
2 8 0 -2 3.14 3.94 3.44 <
2 8 0 -1 0.83 11.07 3.94 o
2 8 0 0 10876.00 9718.86 32.52 o
3 8 0 -2 0.17 0.74 4.68 <
3 8 0 -1 368.19 437.50 7.41 o
3 8 0 0 924.64 833.95 14.66 o
4 8 0 -2 57.19 69.91 4.18 o
4 8 0 -1 10.25 20.18 4.92 o
4 8 0 0 3361.10 3118.59 14.42 o
5 8 0 -2 0.89 1.97 2.95 <
5 8 0 -1 119.56 145.29 4.68 o
5 8 0 0 444.85 481.53 15.80 o
0 9 0 -2 0.03 2.21 3.44 <
0 9 0 0 19596.30 22176.80 71.06 o
1 9 0 -2 0.68 1.97 2.95 <
1 9 0 -1 21.90 22.15 3.69 o
1 9 0 0 16714.70 17629.20 39.59 o
2 9 0 -2 0.47 -1.23 3.44 <
2 9 0 -1 0.11 4.68 3.69 <
2 9 0 0 9497.91 8946.14 29.79 o
3 9 0 -2 4.08 10.33 4.18 o
3 9 0 -1 48.13 45.54 5.42 o
3 9 0 0 6632.57 5982.23 20.77 o
4 9 0 -2 1.80 3.44 3.44 <
4 9 0 -1 5.53 7.14 3.94 <
4 9 0 0 1547.20 1466.25 12.71 o
5 9 0 -2 2.79 2.71 2.95 <
5 9 0 -1 8.19 10.34 3.69 o
5 9 0 0 1664.96 1672.49 13.94 o
0 10 0 -2 0.88 3.20 3.69 <
0 10 0 0 9918.48 9982.02 31.82 o
1 10 0 -2 0.70 1.97 3.20 <
1 10 0 -1 215.89 229.19 4.69 o
1 10 0 0 4646.68 4101.41 17.50 o
2 10 0 -2 30.51 28.31 3.45 o
2 10 0 -1 26.53 26.83 4.43 o
2 10 0 0 5357.15 5008.06 21.06 o
3 10 0 -2 1.30 1.97 4.18 <
3 10 0 -1 550.93 631.19 6.68 o
3 10 0 0 1651.05 1479.96 16.26 o
4 10 0 -2 84.59 73.37 4.68 o
4 10 0 -1 23.80 22.89 3.20 o
4 10 0 0 1111.86 1077.83 10.92 o
5 10 0 -2 0.96 5.17 3.44 <
5 10 0 -1 163.72 162.58 5.42 o
5 10 0 0 314.70 333.13 11.10 o
0 11 0 -2 3.55 5.17 4.18 <
0 11 0 0 10400.70 10369.30 28.65 o
1 11 0 -2 2.39 3.44 3.44 <
1 11 0 -1 7.16 12.80 3.94 o
1 11 0 0 989.89 928.44 11.74 o
2 11 0 -2 2.02 6.64 3.20 o
2 11 0 -1 6.62 5.66 4.92 <
2 11 0 0 5456.06 5206.29 19.43 o
3 11 0 -2 0.14 0.00 4.43 <
3 11 0 -1 30.28 39.38 4.68 o
3 11 0 0 487.90 472.67 15.08 o
4 11 0 -2 21.86 22.64 4.92 o
4 11 0 -1 1.69 -0.74 2.95 <
4 11 0 0 936.06 895.24 11.90 o
5 11 0 -2 0.48 0.98 3.44 <
5 11 0 -1 25.40 24.36 3.69 o
5 11 0 0 217.07 212.90 10.35 o
0 12 0 -2 2.72 7.63 4.92 <
0 12 0 0 908.19 742.20 14.97 o
1 12 0 -2 2.96 5.66 3.44 <
1 12 0 -1 256.09 301.55 4.69 o
1 12 0 0 15655.70 15612.10 30.37 o
2 12 0 -2 2.06 1.97 3.20 <
2 12 0 -1 18.90 25.10 4.43 o
2 12 0 0 336.77 353.24 12.10 o
3 12 0 -2 3.55 7.14 7.38 <
3 12 0 -1 754.25 899.54 6.69 o
3 12 0 0 8392.95 7987.04 21.75 o
4 12 0 -2 17.32 15.50 3.69 o
4 12 0 -1 23.27 19.93 3.45 o
4 12 0 0 2.50 34.94 10.09 o
5 12 0 -2 1.51 0.98 4.68 <
5 12 0 -1 317.84 293.18 5.18 o
5 12 0 0 2892.34 3256.53 14.29 o
0 13 0 -2 5.90 5.66 5.66 <
0 13 0 0 5318.21 4757.90 19.83 o
1 13 0 -2 18.56 20.92 3.45 o
1 13 0 -1 40.05 50.72 3.94 o
1 13 0 0 13738.60 13597.30 25.84 o
2 13 0 -2 31.06 25.60 3.45 o
2 13 0 -1 10.17 8.12 3.45 o
2 13 0 0 3382.69 2994.49 17.35 o
3 13 0 -2 3.30 -0.98 3.69 <
3 13 0 -1 126.77 149.53 4.43 o
3 13 0 0 7618.15 7427.28 19.18 o
4 13 0 -2 60.29 50.71 3.45 o
4 13 0 -1 7.65 8.86 3.44 o
4 13 0 0 1091.36 1119.23 13.89 o
5 13 0 -2 0.30 5.91 4.18 <
5 13 0 -1 58.20 45.29 3.45 o
5 13 0 0 2795.63 3028.62 14.78 o
0 14 0 -2 23.79 39.63 7.14 o
1 14 0 -2 4.33 3.44 3.20 <
1 14 0 -1 118.13 137.26 3.70 o
1 14 0 0 10197.10 9428.41 19.36 o
2 14 0 -2 9.81 15.01 3.69 o
2 14 0 -1 29.09 39.63 3.20 o
2 14 0 0 14952.40 14989.50 39.80 o
3 14 0 -2 4.16 2.46 3.69 <
3 14 0 -1 349.22 404.03 5.18 o
3 14 0 0 5210.67 4931.16 15.17 o
4 14 0 -2 0.84 3.44 2.95 <
4 14 0 -1 34.44 32.98 3.20 o
4 14 0 0 2994.20 3130.53 15.34 o
5 14 0 -2 1.00 4.43 3.94 <
5 14 0 -1 138.03 104.18 4.43 o
5 14 0 0 1795.80 1732.85 13.44 o
0 15 0 -2 19.43 25.35 7.88 o
0 15 0 0 1900.78 1628.21 13.59 o
1 15 0 -2 1.63 7.38 3.44 o
1 15 0 -1 108.46 127.62 3.45 o
1 15 0 0 6886.09 6305.06 15.12 o
2 15 0 -2 0.03 3.69 3.69 <
2 15 0 -1 5.90 4.68 2.71 <
2 15 0 0 1364.31 1307.93 21.45 o
3 15 0 -2 0.00 0.74 3.69 <
3 15 0 -1 352.93 428.43 4.69 o
3 15 0 0 3338.79 3237.15 12.64 o
4 15 0 -2 23.72 21.66 2.95 o
4 15 0 -1 1.15 0.49 3.20 <
4 15 0 0 573.73 566.51 10.13 o
5 15 0 -2 0.30 2.71 3.44 <
5 15 0 -1 166.73 120.45 4.43 o
5 15 0 0 1040.78 933.79 13.62 o
0 16 0 -2 2.37 11.07 4.92 o
0 16 0 0 7793.46 7410.60 19.25 o
1 16 0 -2 11.09 9.84 3.69 o
1 16 0 -1 13.51 14.52 2.95 o
1 16 0 0 444.46 390.60 7.42 o
2 16 0 -2 0.83 2.21 3.20 <
2 16 0 -1 1.10 4.43 2.71 <
2 16 0 0 4406.75 4246.05 16.91 o
3 16 0 -2 1.63 3.20 3.44 <
3 16 0 -1 30.86 27.32 3.20 o
3 16 0 0 163.72 170.74 7.88 o
4 16 0 -2 0.03 2.21 2.95 <
4 16 0 -1 0.07 3.20 3.20 <
4 16 0 0 946.41 931.02 10.90 o
5 16 0 -2 0.11 2.71 2.95 <
5 16 0 -1 4.32 5.66 3.20 <
5 16 0 0 21.16 50.45 11.32 o
0 17 0 -2 4.49 7.14 4.68 <
0 17 0 0 1949.19 1744.53 12.55 o
1 17 0 -2 0.87 2.95 3.20 <
1 17 0 -1 69.25 72.88 2.95 o
1 17 0 0 336.73 290.58 7.41 o
2 17 0 -2 2.85 1.72 2.95 <
2 17 0 -1 1.49 0.00 2.46 <
2 17 0 0 1032.12 985.34 10.18 o
3 17 0 -2 0.06 4.92 3.20 <
3 17 0 -1 191.56 185.07 3.70 o
3 17 0 0 142.32 148.04 8.62 o
4 17 0 -2 32.23 22.89 3.45 o
4 17 0 -1 0.05 -2.71 2.95 <
4 17 0 0 155.40 176.36 7.88 o
5 17 0 -2 0.10 1.72 2.95 <
5 17 0 -1 55.62 46.27 3.69 o
5 17 0 0 23.26 32.24 10.09 o
0 18 0 -2 0.95 0.00 3.44 <
0 18 0 0 6318.72 6147.63 17.76 o
1 18 0 -2 5.21 8.12 3.20 o
1 18 0 -1 0.00 1.48 2.46 <
1 18 0 0 7718.28 7350.34 13.72 o
2 18 0 -2 6.77 4.43 2.71 <
2 18 0 -1 0.91 3.94 2.95 <
2 18 0 0 3945.87 3895.41 13.73 o
3 18 0 -2 0.12 1.97 2.95 <
3 18 0 -1 0.02 3.69 2.46 <
3 18 0 0 3822.15 3940.43 12.40 o
4 18 0 -2 16.52 10.09 3.20 o
4 18 0 -1 7.00 6.89 2.71 o
4 18 0 0 1168.88 1350.25 9.92 o
0 19 0 -2 6.58 7.14 3.45 o
0 19 0 0 21815.50 23534.00 43.38 o
1 19 0 -2 1.48 2.71 2.95 <
1 19 0 -1 94.16 93.09 2.71 o
1 19 0 0 1198.14 1096.17 7.96 o
2 19 0 -2 17.10 17.23 2.71 o
2 19 0 -1 13.31 14.27 3.20 o
2 19 0 0 14381.60 15568.80 25.54 o
3 19 0 -2 1.82 2.21 2.46 <
3 19 0 -1 300.07 277.67 3.70 o
3 19 0 0 905.67 875.54 8.42 o
4 19 0 -2 26.32 15.01 2.95 o
4 19 0 -1 18.44 15.26 2.46 o
4 19 0 0 4732.93 5495.98 14.71 o
0 20 0 -2 2.64 1.48 2.71 <
0 20 0 0 1640.41 1605.23 10.98 o
1 20 0 -2 0.66 0.25 2.46 <
1 20 0 -1 7.93 8.37 1.97 o
1 20 0 0 1949.31 1830.51 7.75 o
2 20 0 -2 14.96 11.81 2.71 o
2 20 0 -1 13.29 8.12 3.20 o
2 20 0 0 1397.70 1316.57 10.45 o
3 20 0 -2 2.48 0.49 2.46 <
3 20 0 -1 23.44 21.16 2.46 o
3 20 0 0 1257.72 1330.82 8.94 o
4 20 0 -2 34.40 20.18 2.95 o
4 20 0 -1 12.38 9.35 2.46 o
4 20 0 0 840.56 935.64 8.91 o
0 21 0 -2 10.27 17.23 2.95 o
0 21 0 0 1.57 21.16 7.63 o
1 21 0 -2 4.35 4.68 2.21 o
1 21 0 -1 63.77 60.81 2.22 o
1 21 0 0 2456.04 2386.19 8.53 o
2 21 0 -2 4.40 7.63 2.71 o
2 21 0 -1 0.00 3.94 2.95 <
2 21 0 0 63.39 44.56 8.86 o
3 21 0 -2 4.85 2.21 2.46 <
3 21 0 -1 222.87 196.66 3.70 o
3 21 0 0 1218.77 1285.24 8.68 o
4 21 0 -2 0.41 -1.23 2.46 <
4 21 0 -1 0.02 0.25 2.46 <
4 21 0 0 259.62 262.73 7.39 o
0 22 0 -2 5.30 10.33 2.95 o
0 22 0 0 8.35 31.74 7.63 o
1 22 0 -2 34.56 39.63 2.22 o
1 22 0 -1 37.31 33.47 1.97 o
1 22 0 0 306.53 303.61 5.92 o
2 22 0 -2 0.14 1.97 2.95 <
2 22 0 -1 6.57 3.94 2.46 <
2 22 0 0 20.05 19.44 7.87 o
3 22 0 -2 12.84 11.81 2.71 o
3 22 0 -1 134.61 115.51 2.96 o
3 22 0 0 161.86 156.66 6.65 o
4 22 0 -2 11.23 3.69 2.46 <
4 22 0 -1 5.11 0.25 2.46 <
4 22 0 0 41.65 38.15 6.89 o
0 23 0 -2 7.41 2.71 2.71 <
0 23 0 0 3292.62 3543.74 12.10 o
1 23 0 -2 3.02 4.18 1.97 o
1 23 0 -1 5.09 3.69 1.72 o
1 23 0 0 255.59 269.45 5.67 o
2 23 0 -2 6.55 2.95 2.95 <
2 23 0 -1 7.38 4.43 2.71 <
2 23 0 0 1956.32 2150.77 11.47 o
3 23 0 -2 0.78 2.71 2.21 <
3 23 0 -1 13.28 4.18 2.46 <
3 23 0 0 126.49 126.33 6.90 o
4 23 0 -2 3.83 0.00 2.46 <
0 24 0 -2 0.00 3.69 2.71 <
0 24 0 0 299.56 392.33 8.38 o
1 24 0 -2 0.72 2.71 1.72 <
1 24 0 -1 40.76 30.52 1.97 o
1 24 0 0 448.40 442.59 5.68 o
2 24 0 -2 3.86 0.98 2.71 <
2 24 0 -1 0.01 3.69 2.21 <
2 24 0 0 122.68 129.29 6.40 o
3 24 0 -2 0.01 -0.49 2.46 <
3 24 0 -1 141.49 109.10 2.96 o
3 24 0 0 189.14 208.66 6.90 o
0 25 0 -2 0.74 1.48 2.46 <
0 25 0 0 10149.80 11854.40 21.07 o
1 25 0 -2 7.60 7.14 1.72 o
1 25 0 -1 0.14 1.48 1.72 <
1 25 0 0 46.55 56.86 5.17 o
2 25 0 -2 0.08 0.49 2.21 <
2 25 0 -1 0.03 0.98 2.21 <
2 25 0 0 7089.41 8473.31 18.28 o
3 25 0 -2 1.26 2.21 2.46 <
3 25 0 -1 1.12 2.21 2.21 <
3 25 0 0 28.83 25.10 6.40 o
0 26 0 -2 0.65 -1.23 2.46 <
0 26 0 0 5120.05 6118.71 15.53 o
1 26 0 -2 5.07 4.68 1.72 o
1 26 0 -1 21.88 13.54 1.72 o
1 26 0 0 19.01 45.03 4.92 o
2 26 0 -2 0.44 1.23 2.21 <
2 26 0 -1 7.14 2.95 2.21 <
2 26 0 0 3638.38 3984.44 12.59 o
3 26 0 -2 2.55 1.97 2.21 <
3 26 0 -1 69.86 27.82 2.71 o
0 27 0 -2 0.18 1.97 2.46 <
0 27 0 0 3849.07 4284.83 14.88 o
1 27 0 -2 0.03 2.71 1.72 <
1 27 0 -1 2.11 2.46 1.72 <
1 27 0 0 156.45 185.72 5.67 o
2 27 0 -2 3.07 0.74 2.21 <
2 27 0 -1 0.12 0.74 2.21 <
2 27 0 0 3020.67 3027.96 11.79 o
0 28 0 -2 0.01 2.21 2.46 <
0 28 0 0 693.23 843.79 9.14 o
1 28 0 -2 15.15 8.12 1.97 o
1 28 0 -1 18.21 10.09 1.72 o
1 28 0 0 253.87 272.09 5.91 o
2 28 0 -2 0.29 0.49 2.21 <
2 28 0 -1 0.92 0.74 1.97 <
2 28 0 0 338.16 375.04 6.90 o
0 29 0 -2 2.84 2.21 2.46 <
0 29 0 0 14.25 27.81 6.89 o
1 29 0 -2 6.80 4.68 1.72 o
1 29 0 -1 10.94 4.43 1.97 o
1 29 0 0 2.65 19.19 4.92 o
0 30 0 -2 2.10 -0.74 2.46 <
1 30 0 -2 1.35 1.48 1.72 <
1 -1 1 2 32.59 39.39 2.71 o
3 -1 1 2 13.44 14.52 4.92 o
5 -1 1 2 37.70 42.33 3.45 o
0 0 1 2 5.31 6.40 2.95 o
1 0 1 0 9791.47 9736.77 20.75 o
1 0 1 1 0.41 1.23 2.21 <
1 0 1 2 0.79 0.98 1.97 <
2 0 1 1 737.26 932.49 4.23 o
2 0 1 2 0.30 1.97 1.97 <
3 0 1 0 6544.69 5658.41 14.31 o
3 0 1 1 0.41 0.00 4.92 <
3 0 1 2 1.26 5.17 3.69 <
4 0 1 1 589.14 777.98 4.70 o
4 0 1 2 0.56 2.95 2.46 <
5 0 1 0 3362.43 3608.14 15.11 o
5 0 1 1 0.02 3.44 6.15 <
5 0 1 2 2.31 2.21 3.20 <
6 0 1 1 151.93 50.00 5.66 o
0 1 1 0 1623.05 1475.10 12.04 o
0 1 1 2 2.54 2.95 3.20 <
1 1 1 -2 11.15 17.48 10.34 <
1 1 1 -1 0.21 2.46 2.95 <
1 1 1 0 2983.29 2859.42 8.79 o
1 1 1 1 24.17 25.60 2.22 o
1 1 1 2 12.86 23.87 1.97 o
2 1 1 -1 748.38 929.87 6.98 o
2 1 1 0 1199.17 999.91 6.78 o
2 1 1 1 122.32 140.77 2.71 o
2 1 1 2 1.19 0.98 1.97 <
3 1 1 -2 76.86 99.50 6.16 o
3 1 1 -1 0.14 2.71 2.71 <
3 1 1 0 2108.42 1862.97 7.56 o
3 1 1 1 62.49 75.59 4.92 o
3 1 1 2 22.58 20.67 3.94 o
4 1 1 -1 568.71 751.06 9.15 o
4 1 1 0 554.63 519.72 5.69 o
4 1 1 1 69.35 90.11 2.71 o
4 1 1 2 0.55 3.44 2.95 <
5 1 1 -2 63.87 84.19 3.69 o
5 1 1 -1 0.06 1.48 2.46 <
5 1 1 0 1150.70 1168.85 9.18 o
5 1 1 1 28.13 26.83 5.17 o
5 1 1 2 45.71 46.27 3.20 o
6 1 1 -1 144.55 131.76 2.96 o
6 1 1 0 141.98 154.91 4.43 o
0 2 1 0 80.36 89.09 7.90 o
0 2 1 2 3.45 5.41 2.95 <
1 2 1 -2 1.02 2.71 8.86 <
1 2 1 -1 22.90 26.84 3.20 o
1 2 1 1 6.01 12.06 2.21 o
1 2 1 2 10.12 13.04 2.21 o
2 2 1 -2 1.53 0.74 2.95 <
2 2 1 -1 117.94 133.40 5.42 o
2 2 1 0 40.15 48.01 5.91 o
2 2 1 1 852.19 1050.55 4.74 o
2 2 1 2 0.00 1.23 2.21 <
3 2 1 -2 5.21 9.35 4.18 o
3 2 1 -1 54.33 68.69 2.71 o
3 2 1 0 21117.30 20867.50 68.97 o
3 2 1 1 25.32 42.83 3.45 o
3 2 1 2 7.76 8.61 4.43 <
4 2 1 -2 1.74 2.46 2.95 <
4 2 1 -1 60.32 80.75 5.66 o
4 2 1 0 2.58 10.09 5.41 <
4 2 1 1 634.38 838.61 4.45 o
4 2 1 2 2.51 2.46 2.71 <
5 2 1 -2 3.98 3.44 2.21 <
5 2 1 -1 24.60 26.33 2.46 o
5 2 1 0 4207.11 4201.05 12.16 o
5 2 1 1 25.58 27.07 4.18 o
5 2 1 2 18.95 20.18 3.69 o
6 2 1 -2 0.06 0.25 1.97 <
6 2 1 -1 5.14 4.68 1.97 o
6 2 1 0 1.26 6.15 4.43 <
0 3 1 0 8961.61 9504.65 20.92 o
0 3 1 2 4.02 3.20 2.71 <
1 3 1 -2 6.58 7.14 8.37 <
1 3 1 -1 9.01 18.46 3.20 o
1 3 1 1 3.12 0.98 2.21 <
1 3 1 2 11.23 13.54 1.97 o
2 3 1 -2 0.03 0.74 3.20 <
2 3 1 -1 809.98 987.41 6.49 o
2 3 1 0 4612.86 4048.67 10.33 o
2 3 1 1 0.01 1.48 2.21 <
2 3 1 2 0.43 1.72 2.21 <
3 3 1 -2 67.56 80.77 5.17 o
3 3 1 -1 33.47 55.63 2.71 o
3 3 1 0 6566.17 5991.49 10.85 o
3 3 1 1 0.77 3.69 3.69 <
3 3 1 2 10.11 12.06 3.69 o
4 3 1 -2 0.09 0.74 3.20 <
4 3 1 -1 567.98 798.50 6.18 o
4 3 1 0 1126.21 1039.51 7.21 o
4 3 1 1 0.24 2.21 2.21 <
4 3 1 2 0.34 3.69 2.46 <
5 3 1 -2 62.60 72.87 2.71 o
5 3 1 -1 31.10 28.55 2.95 o
5 3 1 0 935.70 813.86 6.93 o
5 3 1 1 4.12 3.69 3.94 <
5 3 1 2 26.00 31.99 3.69 o
6 3 1 -2 0.58 0.98 1.97 <
6 3 1 -1 111.99 64.76 3.20 o
6 3 1 0 177.44 171.94 5.42 o
0 4 1 -2 0.01 0.74 4.43 <
0 4 1 2 2.28 -0.74 2.95 <
1 4 1 -2 2.32 6.15 6.64 <
1 4 1 -1 1.84 3.69 3.20 <
1 4 1 1 5.71 11.07 2.21 o
1 4 1 2 5.15 10.34 1.97 o
2 4 1 -2 1.32 1.23 3.44 <
2 4 1 -1 0.03 2.46 3.20 <
2 4 1 0 8314.33 7442.29 15.35 o
2 4 1 1 447.25 516.65 3.72 o
2 4 1 2 0.42 1.23 1.97 <
3 4 1 -2 30.63 40.86 4.68 o
3 4 1 -1 0.01 3.94 2.71 <
3 4 1 0 14372.50 14139.10 20.60 o
3 4 1 1 20.91 29.29 3.45 o
3 4 1 2 28.65 28.80 4.18 o
4 4 1 -2 3.75 6.15 3.20 <
4 4 1 -1 0.63 2.21 3.69 <
4 4 1 0 2399.81 2199.18 9.04 o
4 4 1 1 274.91 368.20 4.19 o
4 4 1 2 0.01 2.21 2.95 <
5 4 1 -2 28.41 33.96 2.46 o
5 4 1 -1 7.33 9.10 2.95 o
5 4 1 0 2591.81 2504.60 8.27 o
5 4 1 1 15.62 14.03 3.69 o
5 4 1 2 51.04 46.77 3.45 o
6 4 1 -2 1.83 1.48 2.21 <
6 4 1 -1 1.22 2.21 2.46 <
6 4 1 0 467.40 489.11 15.55 o
0 5 1 -2 0.00 0.49 4.43 <
0 5 1 0 156.60 217.21 7.91 o
0 5 1 2 0.87 1.23 2.71 <
1 5 1 -2 0.53 0.25 7.87 <
1 5 1 -1 7.18 10.83 3.20 o
1 5 1 1 2.33 1.23 2.21 <
1 5 1 2 0.05 1.72 1.72 <
2 5 1 -2 0.50 3.44 4.18 <
2 5 1 -1 408.17 468.95 4.95 o
2 5 1 0 25.77 30.52 7.88 o
2 5 1 1 105.80 118.28 2.71 o
2 5 1 2 4.18 6.15 1.97 o
3 5 1 -2 31.46 42.58 4.68 o
3 5 1 -1 24.09 32.98 3.20 o
3 5 1 0 8748.42 8198.56 13.50 o
3 5 1 1 1.65 2.46 2.95 <
3 5 1 2 3.03 5.17 3.20 <
4 5 1 -2 1.04 3.20 2.46 <
4 5 1 -1 231.35 310.90 4.44 o
4 5 1 0 9.14 23.87 7.14 o
4 5 1 1 60.15 71.39 3.20 o
4 5 1 2 6.38 7.38 2.46 o
5 5 1 -2 35.44 45.29 2.46 o
5 5 1 -1 17.14 14.77 2.71 o
5 5 1 0 1834.05 1703.72 7.97 o
5 5 1 1 0.40 2.46 3.69 <
5 5 1 2 2.93 0.74 3.69 <
6 5 1 -2 0.32 1.23 2.71 <
6 5 1 -1 22.17 23.38 3.20 o
0 6 1 -2 0.30 -0.25 5.17 <
0 6 1 2 8.45 11.32 2.71 o
1 6 1 -2 11.20 12.06 6.65 <
1 6 1 -1 1.57 4.92 3.20 <
1 6 1 1 0.01 2.46 2.21 <
1 6 1 2 6.33 8.37 1.97 o
2 6 1 -2 0.00 2.71 4.43 <
2 6 1 -1 94.09 109.66 3.70 o
2 6 1 0 12465.80 12023.60 19.55 o
2 6 1 1 564.69 727.25 4.46 o
2 6 1 2 4.95 8.12 2.71 o
3 6 1 -2 73.41 86.44 4.93 o
3 6 1 -1 0.50 0.74 3.44 <
3 6 1 0 10777.20 10274.00 17.31 o
3 6 1 1 0.77 4.18 2.71 <
3 6 1 2 28.95 28.06 3.45 o
4 6 1 -2 0.03 0.25 2.46 <
4 6 1 -1 47.14 61.05 3.94 o
4 6 1 0 3954.60 3671.38 10.67 o
4 6 1 1 464.25 566.33 5.19 o
4 6 1 2 1.81 5.41 2.46 o
5 6 1 -2 67.69 79.76 3.20 o
5 6 1 -1 1.06 1.72 2.71 <
5 6 1 0 3325.83 3515.38 10.07 o
5 6 1 1 3.40 3.69 4.68 <
5 6 1 2 51.29 44.55 3.94 o
6 6 1 -2 0.02 2.46 2.71 <
6 6 1 -1 2.48 4.68 9.84 <
0 7 1 -2 9.66 13.29 5.91 o
0 7 1 2 16.62 18.21 2.71 o
1 7 1 -2 2.91 3.94 6.64 <
1 7 1 -1 0.45 2.21 2.95 <
1 7 1 0 12974.70 13494.90 19.39 o
1 7 1 1 21.00 23.38 2.22 o
1 7 1 2 0.78 0.74 1.97 <
2 7 1 -2 11.81 14.03 4.92 o
2 7 1 -1 554.64 685.35 5.21 o
2 7 1 0 13128.30 12991.30 21.03 o
2 7 1 1 508.93 632.62 3.96 o
2 7 1 2 4.39 5.91 2.21 o
3 7 1 -2 6.96 8.12 5.91 <
3 7 1 -1 3.48 7.87 4.18 <
3 7 1 0 2690.50 2567.06 8.86 o
3 7 1 1 64.79 74.85 3.69 o
3 7 1 2 4.49 7.87 3.20 o
4 7 1 -2 8.24 12.80 2.95 o
4 7 1 -1 438.61 564.07 5.68 o
4 7 1 0 4804.38 4503.96 11.51 o
4 7 1 1 406.28 468.28 6.42 o
4 7 1 2 0.02 0.49 2.71 <
5 7 1 -2 4.25 1.48 3.44 <
5 7 1 -1 6.55 5.66 2.71 o
5 7 1 0 57.10 52.68 6.40 o
5 7 1 1 34.05 28.80 3.94 o
5 7 1 2 4.82 6.89 3.69 <
6 7 1 -2 1.88 3.69 4.68 <
0 8 1 -2 6.13 12.80 7.14 <
0 8 1 0 1527.77 1326.68 9.13 o
0 8 1 2 2.39 0.49 2.95 <
1 8 1 -2 27.65 37.67 4.68 o
1 8 1 -1 20.62 22.40 2.95 o
1 8 1 0 8889.60 8410.00 13.39 o
1 8 1 1 4.99 7.63 1.97 o
1 8 1 2 35.58 52.44 2.46 o
2 8 1 -2 3.29 8.86 3.94 o
2 8 1 -1 492.90 616.06 5.45 o
2 8 1 0 1485.89 1269.83 8.53 o
2 8 1 1 231.38 299.33 3.45 o
2 8 1 2 1.12 2.71 2.21 <
3 8 1 -2 97.60 113.55 5.42 o
3 8 1 -1 61.85 72.39 4.68 o
3 8 1 0 4126.42 3627.55 10.00 o
3 8 1 1 13.88 15.26 2.95 o
3 8 1 2 2.71 1.97 2.71 <
4 8 1 -2 1.19 3.20 3.69 <
4 8 1 -1 375.79 457.36 6.17 o
4 8 1 0 1063.24 982.26 8.44 o
4 8 1 1 200.44 246.69 5.67 o
4 8 1 2 0.02 1.23 2.46 <
5 8 1 -2 77.40 75.83 4.43 o
5 8 1 -1 33.01 33.23 3.45 o
5 8 1 0 1238.24 1302.90 8.44 o
5 8 1 1 6.66 7.87 3.44 o
5 8 1 2 17.68 20.18 4.18 o
0 9 1 -2 3.48 3.69 7.38 <
0 9 1 2 8.23 16.73 2.95 o
1 9 1 -2 5.05 4.68 3.94 <
1 9 1 -1 4.28 6.40 3.45 <
1 9 1 0 5299.77 4885.44 9.63 o
1 9 1 1 0.88 3.69 2.21 <
1 9 1 2 0.18 1.72 2.46 <
2 9 1 -2 0.20 -0.98 3.94 <
2 9 1 -1 228.16 300.64 4.69 o
2 9 1 0 10990.20 10569.10 19.10 o
2 9 1 1 627.38 772.46 4.71 o
2 9 1 2 1.58 3.69 2.21 <
3 9 1 -2 8.65 10.34 4.68 o
3 9 1 -1 11.74 16.49 5.17 o
3 9 1 0 1550.91 1491.34 8.49 o
3 9 1 1 5.62 10.83 2.71 o
3 9 1 2 11.21 12.55 2.71 o
4 9 1 -2 0.22 0.49 3.94 <
4 9 1 -1 190.21 226.72 5.42 o
4 9 1 0 3542.38 3399.20 11.64 o
4 9 1 1 541.30 669.35 5.93 o
4 9 1 2 0.16 1.97 2.95 <
5 9 1 -2 6.34 7.14 3.94 <
5 9 1 -1 6.09 6.64 3.20 o
5 9 1 0 183.43 148.31 6.90 o
5 9 1 1 7.78 6.40 3.44 <
5 9 1 2 15.19 11.81 4.68 o
0 10 1 -2 11.70 8.37 8.86 <
0 10 1 0 4464.13 3968.92 11.90 o
0 10 1 2 0.70 -0.49 3.20 <
1 10 1 -2 0.78 8.86 4.18 o
1 10 1 -1 1.34 5.17 3.44 <
1 10 1 0 11124.10 10742.20 15.83 o
1 10 1 1 6.36 6.40 2.46 o
1 10 1 2 8.96 12.80 1.97 o
2 10 1 -2 5.35 5.66 4.18 <
2 10 1 -1 610.52 727.17 5.21 o
2 10 1 0 2997.14 2650.78 10.20 o
2 10 1 1 14.88 24.36 2.95 o
2 10 1 2 0.08 -0.25 2.21 <
3 10 1 -2 21.99 27.32 4.68 o
3 10 1 -1 7.31 16.73 5.41 o
3 10 1 0 3258.09 3079.89 10.66 o
3 10 1 1 12.08 9.60 2.71 o
3 10 1 2 5.34 0.74 2.46 <
4 10 1 -2 0.39 6.89 3.20 o
4 10 1 -1 511.04 556.38 7.41 o
4 10 1 0 1037.18 1031.85 11.66 o
4 10 1 1 27.33 35.19 3.20 o
4 10 1 2 0.01 2.95 3.44 <
5 10 1 -2 27.60 28.06 4.92 o
5 10 1 -1 9.10 4.92 3.20 <
5 10 1 0 402.83 381.67 7.65 o
5 10 1 1 1.56 4.43 4.43 <
5 10 1 2 16.93 8.37 4.68 <
0 11 1 -2 2.31 6.89 7.63 <
0 11 1 0 1186.60 1060.49 9.27 o
0 11 1 2 0.43 0.00 2.95 <
1 11 1 -2 15.55 20.18 4.18 o
1 11 1 -1 5.30 2.95 3.45 <
1 11 1 0 7515.68 7069.56 11.43 o
1 11 1 1 0.73 3.44 2.21 <
1 11 1 2 20.88 33.23 2.46 o
2 11 1 -2 0.09 -0.74 5.17 <
2 11 1 -1 15.28 23.38 3.20 o
2 11 1 0 913.94 819.86 7.96 o
2 11 1 1 354.40 398.17 4.69 o
2 11 1 2 0.10 5.41 2.95 <
3 11 1 -2 35.57 37.17 4.43 o
3 11 1 -1 8.99 8.37 5.66 <
3 11 1 0 2348.21 2218.33 10.06 o
3 11 1 1 4.02 8.61 2.71 o
3 11 1 2 5.20 5.66 2.46 o
4 11 1 -2 0.49 1.72 2.95 <
4 11 1 -1 28.05 29.04 4.18 o
4 11 1 0 514.86 502.69 10.37 o
4 11 1 1 255.81 273.15 4.68 o
4 11 1 2 1.46 3.94 3.44 <
5 11 1 -2 23.68 20.92 4.43 o
5 11 1 -1 0.86 0.98 3.69 <
5 11 1 0 347.61 315.67 7.89 o
5 11 1 1 4.53 3.44 4.18 <
5 11 1 2 23.42 13.04 3.94 o
0 12 1 -2 1.99 5.41 5.91 <
0 12 1 0 16711.80 16850.50 22.83 o
0 12 1 2 7.07 12.55 2.71 o
1 12 1 -2 0.08 3.94 3.94 <
1 12 1 -1 0.67 6.15 3.44 <
1 12 1 0 21072.40 21778.60 33.34 o
1 12 1 1 2.49 2.21 2.46 <
1 12 1 2 3.69 2.71 2.46 <
2 12 1 -2 1.75 1.97 4.18 <
2 12 1 -1 316.23 357.60 4.45 o
2 12 1 0 11420.30 10971.80 17.73 o
2 12 1 1 63.52 76.57 3.45 o
2 12 1 2 1.50 3.20 2.46 <
3 12 1 -2 18.76 19.93 4.18 o
3 12 1 -1 3.77 7.14 3.94 <
3 12 1 0 7323.93 7075.32 13.90 o
3 12 1 1 2.17 5.17 2.95 <
3 12 1 2 10.14 11.81 2.46 o
4 12 1 -2 0.51 2.71 3.44 <
4 12 1 -1 214.56 206.04 4.44 o
4 12 1 0 4402.57 4648.21 13.72 o
4 12 1 1 48.51 49.23 3.94 o
4 12 1 2 0.14 1.97 3.44 <
5 12 1 -2 23.62 24.61 3.45 o
5 12 1 -1 4.52 1.23 4.18 <
5 12 1 0 1201.85 1264.22 10.17 o
5 12 1 1 0.78 4.43 3.69 <
5 12 1 2 8.60 1.97 3.69 <
0 13 1 -2 0.06 1.97 4.43 <
0 13 1 0 13262.90 13305.80 21.38 o
0 13 1 2 13.49 18.95 3.20 o
1 13 1 -2 0.08 2.21 3.69 <
1 13 1 -1 1.33 3.69 3.20 <
1 13 1 0 5879.64 5387.67 11.61 o
1 13 1 1 4.77 10.09 2.95 o
1 13 1 2 0.12 0.49 1.97 <
2 13 1 -2 0.28 1.97 3.69 <
2 13 1 -1 58.45 65.99 3.94 o
2 13 1 0 9166.06 8798.96 13.21 o
2 13 1 1 223.05 246.11 3.70 o
2 13 1 2 6.87 10.83 2.95 o
3 13 1 -2 24.29 19.44 4.18 o
3 13 1 -1 0.37 4.43 3.69 <
3 13 1 0 2262.21 2123.23 9.53 o
3 13 1 1 24.21 34.95 2.95 o
3 13 1 2 33.63 28.55 2.95 o
4 13 1 -2 1.32 1.72 3.69 <
4 13 1 -1 42.33 43.07 3.45 o
4 13 1 0 3734.59 3756.86 11.37 o
4 13 1 1 177.09 168.51 4.68 o
4 13 1 2 1.25 4.18 3.20 <
5 13 1 -2 33.87 28.06 3.69 o
5 13 1 -1 2.48 3.69 3.44 <
5 13 1 0 456.32 471.11 9.38 o
5 13 1 1 23.52 17.72 3.69 o
5 13 1 2 47.58 31.26 3.69 o
0 14 1 -2 2.86 7.14 4.43 <
0 14 1 0 9439.23 8764.46 18.38 o
0 14 1 2 0.10 4.68 2.95 <
1 14 1 -2 6.23 8.37 3.45 o
1 14 1 -1 6.34 11.07 3.45 o
1 14 1 0 6698.93 6580.29 12.72 o
1 14 1 1 4.95 3.44 2.71 <
1 14 1 2 9.81 9.84 2.46 o
2 14 1 -2 0.36 1.48 3.20 <
2 14 1 -1 204.73 221.93 4.93 o
2 14 1 0 6864.55 6311.53 13.67 o
2 14 1 1 165.34 176.21 3.20 o
2 14 1 2 1.50 4.43 2.95 <
3 14 1 -2 12.40 13.53 3.94 o
3 14 1 -1 30.34 39.13 3.94 o
3 14 1 0 2145.99 2196.96 10.77 o
3 14 1 1 13.53 10.83 2.71 o
3 14 1 2 11.56 7.87 2.71 o
4 14 1 -2 0.19 1.23 3.44 <
4 14 1 -1 155.52 169.73 3.94 o
4 14 1 0 3061.11 3195.17 10.06 o
4 14 1 1 124.24 130.03 4.43 o
4 14 1 2 3.18 1.48 3.44 <
5 14 1 -2 9.12 7.38 3.20 o
5 14 1 -1 27.96 19.20 3.69 o
5 14 1 0 300.97 282.52 7.64 o
5 14 1 1 4.94 5.66 3.44 <
5 14 1 2 8.42 -0.25 3.69 <
0 15 1 -2 12.50 21.16 4.43 o
0 15 1 0 6782.81 6147.33 18.28 o
0 15 1 2 6.87 5.41 3.69 <
1 15 1 -2 28.43 32.98 3.45 o
1 15 1 -1 4.96 6.89 3.69 <
1 15 1 0 3856.64 3397.84 10.00 o
1 15 1 1 0.38 4.68 3.20 <
1 15 1 2 2.48 8.12 2.71 o
2 15 1 -2 6.12 10.09 2.95 o
2 15 1 -1 149.75 164.86 3.94 o
2 15 1 0 5124.54 4752.22 11.87 o
2 15 1 1 107.67 132.01 3.20 o
2 15 1 2 4.68 6.40 2.71 o
3 15 1 -2 77.22 80.51 3.94 o
3 15 1 -1 13.57 12.06 3.69 o
3 15 1 0 1785.25 1731.07 10.73 o
3 15 1 1 0.42 1.23 2.95 <
3 15 1 2 8.58 7.63 2.71 o
4 15 1 -2 1.01 2.95 3.20 <
4 15 1 -1 106.01 110.81 3.69 o
4 15 1 0 2310.25 2384.80 9.25 o
4 15 1 1 109.25 101.21 3.94 o
4 15 1 2 1.68 4.68 4.68 <
5 15 1 -2 63.66 49.23 3.69 o
5 15 1 -1 5.19 4.92 2.95 <
5 15 1 0 459.64 486.39 7.16 o
5 15 1 1 0.03 2.21 2.95 <
0 16 1 -2 4.07 7.87 3.44 o
0 16 1 0 263.45 265.74 14.06 o
0 16 1 2 4.76 6.89 3.94 <
1 16 1 -2 17.41 21.17 3.20 o
1 16 1 -1 0.08 1.72 3.44 <
1 16 1 0 3041.79 2818.57 9.39 o
1 16 1 1 2.09 4.18 3.20 <
1 16 1 2 0.64 1.97 2.71 <
2 16 1 -2 6.09 9.35 2.71 o
2 16 1 -1 108.31 130.05 3.45 o
2 16 1 0 156.05 147.10 6.65 o
2 16 1 1 399.47 430.85 4.44 o
2 16 1 2 1.00 1.23 2.46 <
3 16 1 -2 16.18 16.24 2.95 o
3 16 1 -1 0.00 3.69 3.20 <
3 16 1 0 848.48 884.26 8.67 o
3 16 1 1 6.71 3.44 3.20 <
3 16 1 2 4.44 3.44 2.71 <
4 16 1 -2 5.07 9.35 3.44 o
4 16 1 -1 108.85 97.51 3.94 o
4 16 1 0 32.11 35.93 6.40 o
4 16 1 1 400.30 341.46 5.43 o
4 16 1 2 0.06 0.00 3.44 <
5 16 1 -2 9.78 7.63 3.45 o
5 16 1 -1 0.33 4.68 3.20 <
5 16 1 0 72.01 57.85 7.39 o
0 17 1 -2 12.83 13.53 3.20 o
0 17 1 0 403.03 371.06 11.86 o
0 17 1 2 0.20 2.21 4.18 <
1 17 1 -2 6.03 4.43 2.95 <
1 17 1 -1 2.04 2.46 3.20 <
1 17 1 0 8085.72 8028.16 12.72 o
1 17 1 1 9.49 10.34 2.95 o
1 17 1 2 30.28 32.00 2.95 o
2 17 1 -2 8.09 9.84 2.71 o
2 17 1 -1 377.20 415.27 4.44 o
2 17 1 0 173.94 168.31 6.16 o
2 17 1 1 0.26 1.23 2.71 <
2 17 1 2 0.18 3.69 2.71 <
3 17 1 -2 28.97 23.13 2.95 o
3 17 1 -1 6.63 6.15 3.20 <
3 17 1 0 3097.67 3276.28 11.08 o
3 17 1 1 32.14 24.61 3.45 o
3 17 1 2 0.91 5.17 3.20 <
4 17 1 -2 2.43 2.95 2.95 <
4 17 1 -1 370.28 305.64 4.93 o
4 17 1 0 8.69 15.99 6.64 o
4 17 1 1 0.00 -0.49 3.44 <
4 17 1 2 0.02 0.49 3.20 <
5 17 1 -2 24.55 19.44 3.69 o
5 17 1 -1 3.46 3.44 2.95 <
0 18 1 -2 1.10 1.48 3.20 <
0 18 1 0 8252.38 7794.81 16.70 o
0 18 1 2 30.69 31.50 4.68 o
1 18 1 -2 3.64 3.94 2.46 <
1 18 1 -1 8.66 11.07 2.95 o
1 18 1 0 1588.53 1554.78 8.24 o
1 18 1 1 0.06 2.95 2.95 <
1 18 1 2 4.89 11.07 2.95 o
2 18 1 -2 0.03 1.48 2.71 <
2 18 1 -1 0.22 1.97 2.95 <
2 18 1 0 5902.41 5770.62 10.84 o
2 18 1 1 188.87 193.69 3.45 o
2 18 1 2 15.67 15.01 2.71 o
3 18 1 -2 14.37 11.57 2.71 o
3 18 1 -1 29.26 20.92 2.71 o
3 18 1 0 348.92 355.48 7.15 o
3 18 1 1 1.00 2.95 3.20 <
3 18 1 2 3.16 4.68 3.94 <
4 18 1 -2 0.30 1.72 2.71 <
4 18 1 -1 0.01 2.95 2.71 <
4 18 1 0 2369.20 2589.50 9.50 o
4 18 1 1 169.91 125.38 4.19 o
4 18 1 2 2.53 3.44 3.44 <
5 18 1 -2 12.85 1.72 3.69 <
0 19 1 -2 3.81 5.41 2.71 <
0 19 1 0 1504.34 1450.72 8.48 o
0 19 1 2 6.07 11.32 5.41 o
1 19 1 -2 10.50 14.27 2.46 o
1 19 1 -1 0.08 0.98 2.46 <
1 19 1 0 362.13 341.11 6.91 o
1 19 1 1 0.20 2.46 2.95 <
1 19 1 2 0.87 3.44 2.46 <
2 19 1 -2 2.33 5.91 2.71 o
2 19 1 -1 174.73 170.52 3.70 o
2 19 1 0 1125.00 1122.60 6.21 o
2 19 1 1 52.09 51.45 2.95 o
2 19 1 2 2.89 3.44 2.46 <
3 19 1 -2 0.23 0.00 2.46 <
3 19 1 -1 1.28 5.17 2.46 o
3 19 1 0 549.95 510.84 7.16 o
3 19 1 1 0.03 3.44 2.95 <
3 19 1 2 4.17 3.69 3.20 <
4 19 1 -2 0.31 6.15 2.71 o
4 19 1 -1 152.93 140.89 3.45 o
4 19 1 0 535.18 601.97 6.67 o
4 19 1 1 59.21 39.14 3.20 o
4 19 1 2 0.53 0.98 3.20 <
0 20 1 -2 32.10 31.01 2.95 o
0 20 1 0 1785.20 1689.92 8.74 o
0 20 1 2 1.46 2.46 4.68 <
1 20 1 -2 1.33 2.95 1.97 <
1 20 1 -1 0.06 -0.25 2.21 <
1 20 1 0 2229.20 2263.79 7.77 o
1 20 1 1 0.00 1.48 2.95 <
1 20 1 2 0.58 1.72 3.20 <
2 20 1 -2 16.81 15.50 3.20 o
2 20 1 -1 49.22 48.74 2.95 o
2 20 1 0 1304.60 1300.17 6.46 o
2 20 1 1 62.97 49.48 2.71 o
2 20 1 2 2.31 3.20 2.46 <
3 20 1 -2 15.29 4.92 2.46 <
3 20 1 -1 0.31 -1.48 2.46 <
3 20 1 0 1279.13 1313.20 9.18 o
3 20 1 1 0.03 1.48 2.71 <
3 20 1 2 18.44 6.15 2.95 o
4 20 1 -2 3.08 3.20 2.46 <
4 20 1 -1 55.44 37.41 2.71 o
4 20 1 0 583.45 602.87 6.17 o
4 20 1 1 46.52 36.92 2.95 o
4 20 1 2 2.75 1.72 5.91 <
0 21 1 -2 1.86 2.95 2.46 <
0 21 1 0 2096.29 2100.47 8.26 o
0 21 1 2 0.24 5.17 3.94 <
1 21 1 -2 0.85 1.48 1.97 <
1 21 1 -1 0.04 3.20 1.97 <
1 21 1 0 20815.90 23879.80 18.29 o
1 21 1 1 1.86 0.74 2.71 <
1 21 1 2 0.26 1.97 2.95 <
2 21 1 -2 0.85 3.94 2.95 <
2 21 1 -1 53.78 42.59 2.95 o
2 21 1 0 1565.26 1604.57 6.97 o
2 21 1 1 76.62 60.07 2.71 o
2 21 1 2 0.17 2.21 2.46 <
3 21 1 -2 3.94 1.72 2.46 <
3 21 1 -1 0.32 0.00 2.46 <
3 21 1 0 9517.01 9678.70 54.97 o
3 21 1 1 3.98 4.18 2.71 <
3 21 1 2 0.04 0.74 2.71 <
4 21 1 -2 0.23 -0.49 2.46 <
4 21 1 -1 36.70 20.92 2.71 o
4 21 1 0 696.35 685.81 6.43 o
4 21 1 1 67.87 39.39 2.95 o
0 22 1 -2 1.66 0.49 2.46 <
0 22 1 0 331.98 342.65 6.17 o
0 22 1 2 6.12 3.69 3.44 <
1 22 1 -2 14.56 9.84 1.97 o
1 22 1 -1 1.52 1.97 1.72 <
1 22 1 0 455.51 462.20 4.94 o
1 22 1 1 0.85 1.97 2.21 <
1 22 1 2 2.13 2.71 2.46 <
2 22 1 -2 2.50 3.20 2.71 <
2 22 1 -1 66.78 52.68 3.20 o
2 22 1 0 179.05 189.21 5.42 o
2 22 1 1 45.27 33.47 2.71 o
2 22 1 2 4.02 2.95 2.46 <
3 22 1 -2 38.10 28.06 2.71 o
3 22 1 -1 2.95 1.23 2.21 <
3 22 1 0 279.98 318.00 9.61 o
3 22 1 1 6.10 4.68 3.20 <
3 22 1 2 3.07 1.72 3.20 <
4 22 1 -2 2.81 1.72 2.46 <
4 22 1 -1 56.09 36.43 2.71 o
4 22 1 0 25.91 28.79 10.09 o
0 23 1 -2 0.06 1.48 2.21 <
0 23 1 0 401.55 422.01 5.68 o
0 23 1 2 0.59 3.20 3.20 <
1 23 1 -2 0.00 0.98 1.72 <
1 23 1 -1 1.33 2.95 1.72 <
1 23 1 0 1036.35 1175.81 5.21 o
1 23 1 1 3.32 2.46 1.97 <
1 23 1 2 3.28 1.48 2.21 <
2 23 1 -2 0.84 0.25 2.46 <
2 23 1 -1 42.69 33.97 2.95 o
2 23 1 0 267.07 288.17 6.16 o
2 23 1 1 101.21 60.82 3.20 o
2 23 1 2 0.01 0.98 2.71 <
3 23 1 -2 0.27 2.71 2.46 <
3 23 1 -1 8.56 6.89 2.46 o
3 23 1 0 328.35 393.30 10.85 o
3 23 1 1 13.07 5.41 3.20 <
3 23 1 2 9.04 3.20 3.20 <
4 23 1 -2 2.27 1.23 2.21 <
0 24 1 -2 8.66 6.15 2.71 o
0 24 1 0 383.83 384.90 5.43 o
0 24 1 2 14.52 10.58 2.71 o
1 24 1 -2 0.57 1.48 1.72 <
1 24 1 -1 3.44 3.20 1.72 <
1 24 1 0 4009.69 4584.29 7.84 o
1 24 1 1 2.05 1.97 1.72 <
1 24 1 2 1.66 1.72 2.21 <
2 24 1 -2 5.51 4.18 2.46 <
2 24 1 -1 92.25 68.20 2.95 o
2 24 1 0 314.70 322.77 5.67 o
2 24 1 1 1.28 1.97 2.71 <
2 24 1 2 10.88 4.92 2.71 <
3 24 1 -2 9.73 3.45 2.21 <
3 24 1 -1 13.63 6.40 2.46 o
3 24 1 0 1913.86 2231.04 7.72 o
3 24 1 1 7.25 3.69 2.95 <
0 25 1 -2 0.03 0.00 2.46 <
0 25 1 0 19.67 30.27 5.17 o
0 25 1 2 14.49 7.38 2.95 o
1 25 1 -2 12.68 8.86 1.72 o
1 25 1 -1 1.77 2.95 1.72 <
1 25 1 0 793.01 781.97 4.45 o
1 25 1 1 0.00 2.21 1.97 <
1 25 1 2 0.01 1.23 1.97 <
2 25 1 -2 0.11 1.97 2.21 <
2 25 1 -1 1.70 4.43 2.21 <
2 25 1 0 12.72 21.90 4.92 o
2 25 1 1 103.19 59.09 2.95 o
2 25 1 2 8.16 3.20 2.21 <
3 25 1 -2 16.91 9.35 2.21 o
3 25 1 -1 6.27 0.49 2.46 <
3 25 1 0 708.58 717.73 5.93 o
0 26 1 -2 22.21 21.16 2.95 o
0 26 1 0 1.32 20.18 5.17 o
0 26 1 2 16.54 9.11 2.95 o
1 26 1 -2 0.16 2.21 1.72 <
1 26 1 -1 0.00 1.97 1.72 <
1 26 1 0 18.67 39.62 3.94 o
1 26 1 1 2.04 0.25 1.97 <
1 26 1 2 2.69 1.97 1.72 <
2 26 1 -2 15.70 12.55 2.21 o
2 26 1 -1 95.91 62.78 2.71 o
2 26 1 0 4.50 14.27 4.68 o
2 26 1 1 20.66 7.87 2.21 o
3 26 1 -2 3.36 0.74 2.21 <
3 26 1 -1 0.08 3.44 2.21 <
0 27 1 -2 12.48 6.40 2.46 o
0 27 1 0 195.90 244.40 5.17 o
0 27 1 2 0.72 0.74 2.71 <
1 27 1 -2 4.97 0.98 1.72 <
1 27 1 -1 1.74 1.23 1.97 <
1 27 1 0 4020.47 4653.82 9.09 o
1 27 1 1 0.02 -1.23 1.72 <
1 27 1 2 2.66 3.44 1.72 <
2 27 1 -2 7.05 5.41 2.21 o
2 27 1 -1 19.52 9.60 2.21 o
2 27 1 0 163.33 194.34 4.93 o
0 28 1 -2 11.08 8.86 2.46 o
0 28 1 0 356.80 367.95 5.43 o
1 28 1 -2 2.73 1.23 1.72 <
1 28 1 -1 0.01 1.97 1.72 <
1 28 1 0 3395.77 3810.93 8.29 o
1 28 1 1 0.14 0.49 1.72 <
2 28 1 -2 7.91 4.18 2.21 <
2 28 1 -1 25.00 8.61 2.21 o
0 29 1 -2 1.25 1.97 2.21 <
0 29 1 0 1.24 9.10 4.92 <
1 29 1 -2 0.02 1.48 1.72 <
1 29 1 -1 0.09 0.74 1.72 <
2 29 1 -2 0.24 1.97 2.46 <
0 30 1 -2 0.00 1.23 2.46 <
1 30 1 -2 0.62 0.98 1.72 <
0 -1 2 2 58.67 73.88 3.45 o
2 -1 2 2 0.79 3.94 2.46 <
4 -1 2 2 42.32 40.12 10.58 o
0 0 2 2 0.74 2.21 2.46 <
1 0 2 1 115.19 124.97 2.22 o
1 0 2 2 3.73 4.92 1.72 o
2 0 2 1 16.64 14.77 1.97 o
2 0 2 2 0.13 1.97 1.72 <
3 0 2 1 300.80 371.87 3.70 o
3 0 2 2 0.15 1.23 1.72 <
4 0 2 0 27024.40 28171.00 76.46 o
4 0 2 1 8.40 8.12 6.89 <
4 0 2 2 2.71 12.30 7.38 <
5 0 2 1 86.38 95.03 3.20 o
5 0 2 2 1.12 1.72 2.21 <
0 1 2 -2 21.83 31.52 5.42 o
0 1 2 0 5333.26 4970.50 10.87 o
0 1 2 2 54.66 72.15 2.95 o
1 1 2 -1 97.27 107.25 2.22 o
1 1 2 0 960.24 828.41 4.50 o
1 1 2 1 62.07 76.35 1.97 o
1 1 2 2 0.27 1.72 2.21 <
2 1 2 -2 73.63 95.34 3.45 o
2 1 2 -1 10.41 11.81 1.97 o
2 1 2 0 3865.01 3507.07 6.73 o
2 1 2 1 3.14 11.07 1.72 o
2 1 2 2 2.52 6.15 1.97 o
3 1 2 -1 222.73 252.07 4.93 o
3 1 2 0 372.38 344.30 5.43 o
3 1 2 1 192.47 261.05 2.71 o
3 1 2 2 1.83 2.21 1.97 <
4 1 2 -2 116.06 148.52 4.68 o
4 1 2 -1 3.44 4.18 2.21 <
4 1 2 0 1856.74 1770.52 6.49 o
4 1 2 1 14.56 26.82 3.94 o
4 1 2 2 22.77 16.00 5.41 o
5 1 2 -1 50.17 57.10 3.20 o
5 1 2 0 86.70 93.06 4.43 o
5 1 2 1 87.52 97.25 2.95 o
5 1 2 2 1.98 2.21 2.71 <
6 1 2 -2 51.90 36.67 3.94 o
0 2 2 -2 0.31 0.00 3.69 <
0 2 2 0 88.53 140.00 5.42 o
0 2 2 2 23.88 26.34 3.20 o
1 2 2 -2 4.41 4.18 2.46 <
1 2 2 -1 59.56 72.43 2.22 o
1 2 2 0 68.92 55.92 3.94 o
1 2 2 1 228.09 259.22 2.72 o
1 2 2 2 5.68 8.37 1.72 o
2 2 2 -2 1.85 2.71 2.21 <
2 2 2 -1 10.79 22.64 2.46 o
2 2 2 0 323.87 268.61 4.45 o
2 2 2 1 20.80 29.29 1.97 o
2 2 2 2 0.94 1.97 2.21 <
3 2 2 -2 4.92 9.35 4.68 <
3 2 2 -1 172.47 228.51 4.68 o
3 2 2 0 39.56 44.55 5.42 o
3 2 2 1 637.38 824.81 4.21 o
3 2 2 2 0.46 1.72 1.72 <
4 2 2 -2 3.76 5.41 2.21 o
4 2 2 -1 27.53 36.92 3.20 o
4 2 2 0 642.74 636.11 6.68 o
4 2 2 1 25.82 32.49 3.20 o
4 2 2 2 11.44 9.60 4.92 <
5 2 2 -2 1.82 9.10 6.89 <
5 2 2 -1 75.74 97.49 3.69 o
5 2 2 0 3.53 11.56 4.68 o
5 2 2 1 231.62 289.31 3.70 o
5 2 2 2 0.07 2.21 3.20 <
0 3 2 -2 19.49 25.85 3.69 o
0 3 2 0 6699.73 6380.09 11.90 o
0 3 2 2 31.60 38.15 2.95 o
1 3 2 -2 1.97 2.21 2.21 <
1 3 2 -1 223.38 252.07 2.47 o
1 3 2 0 5024.34 4424.58 7.73 o
1 3 2 1 0.00 3.94 1.97 <
1 3 2 2 0.18 0.00 1.97 <
2 3 2 -2 56.38 63.29 2.46 o
2 3 2 -1 26.44 35.20 2.22 o
2 3 2 0 3409.18 3132.57 6.68 o
2 3 2 1 29.50 29.54 1.72 o
2 3 2 2 3.06 6.40 1.72 o
3 3 2 -2 2.98 5.66 4.18 <
3 3 2 -1 566.12 709.93 5.94 o
3 3 2 0 2282.78 2023.90 6.79 o
3 3 2 1 0.06 4.18 2.46 <
3 3 2 2 0.49 3.69 2.21 <
4 3 2 -2 81.42 95.78 2.71 o
4 3 2 -1 31.49 37.66 2.95 o
4 3 2 0 537.70 525.85 6.18 o
4 3 2 1 25.25 24.12 3.20 o
4 3 2 2 6.32 6.15 3.69 <
5 3 2 -2 1.98 2.95 4.18 <
5 3 2 -1 188.41 213.85 5.17 o
5 3 2 0 592.48 681.09 5.68 o
5 3 2 1 0.36 0.00 2.46 <
5 3 2 2 0.38 3.20 2.71 <
6 3 2 -2 33.12 29.04 5.66 o
0 4 2 -2 23.54 32.50 3.94 o
0 4 2 0 459.64 454.49 5.95 o
0 4 2 2 54.92 74.36 3.20 o
1 4 2 -2 0.99 2.21 2.21 <
1 4 2 -1 0.09 1.48 1.97 <
1 4 2 0 7643.05 6937.59 8.57 o
1 4 2 1 329.83 397.98 2.97 o
1 4 2 2 4.51 6.64 1.97 o
2 4 2 -2 40.21 55.64 2.46 o
2 4 2 -1 21.26 22.40 2.22 o
2 4 2 0 106.82 124.18 3.94 o
2 4 2 1 6.83 9.84 1.72 o
2 4 2 2 3.80 10.09 1.72 o
3 4 2 -2 0.94 2.95 2.95 <
3 4 2 -1 0.70 2.46 3.94 <
3 4 2 0 2823.90 2544.27 7.59 o
3 4 2 1 1004.65 1336.10 5.71 o
3 4 2 2 0.08 1.23 2.21 <
4 4 2 -2 45.24 60.31 2.46 o
4 4 2 -1 18.33 18.46 2.71 o
4 4 2 0 25.15 26.09 5.17 o
4 4 2 1 8.92 14.03 2.71 o
4 4 2 2 16.88 14.27 4.18 o
5 4 2 -2 0.00 4.18 4.18 <
5 4 2 -1 1.27 2.95 3.44 <
5 4 2 0 598.55 623.29 6.18 o
5 4 2 1 444.62 418.53 4.94 o
5 4 2 2 0.27 0.98 2.95 <
0 5 2 -2 17.70 26.59 3.69 o
0 5 2 0 3414.91 3012.45 8.86 o
0 5 2 2 8.11 10.34 2.46 o
1 5 2 -2 8.69 11.32 2.21 o
1 5 2 -1 327.62 395.77 3.22 o
1 5 2 0 23.97 33.23 3.69 o
1 5 2 1 51.70 64.51 2.22 o
1 5 2 2 15.52 20.18 1.97 o
2 5 2 -2 32.20 43.57 2.46 o
2 5 2 -1 5.76 10.58 2.21 o
2 5 2 0 1273.83 1160.03 5.00 o
2 5 2 1 12.92 10.34 2.21 o
2 5 2 2 1.31 3.20 2.46 <
3 5 2 -2 5.22 11.07 3.44 o
3 5 2 -1 922.03 1155.30 6.46 o
3 5 2 0 21.15 50.70 6.15 o
3 5 2 1 170.05 221.05 3.45 o
3 5 2 2 2.39 3.69 1.97 <
4 5 2 -2 35.13 44.30 2.71 o
4 5 2 -1 7.49 9.35 2.46 o
4 5 2 0 10.59 19.19 4.68 o
4 5 2 1 6.68 3.94 2.21 <
4 5 2 2 0.86 0.49 3.44 <
5 5 2 -2 0.80 3.20 3.69 <
5 5 2 -1 387.23 434.70 6.17 o
5 5 2 0 71.11 88.38 6.15 o
5 5 2 1 86.63 82.97 3.45 o
5 5 2 2 0.22 2.71 2.95 <
0 6 2 -2 20.45 21.91 3.20 o
0 6 2 2 77.59 93.10 3.45 o
1 6 2 -2 0.64 4.68 2.21 o
1 6 2 -1 52.54 61.82 1.97 o
1 6 2 0 13543.20 13153.70 13.03 o
1 6 2 1 105.15 113.59 1.97 o
1 6 2 2 0.01 1.23 1.97 <
2 6 2 -2 52.78 59.35 2.46 o
2 6 2 -1 5.60 5.91 2.21 o
2 6 2 0 15366.30 14903.10 16.34 o
2 6 2 1 10.03 11.57 1.97 o
2 6 2 2 6.96 11.07 1.72 o
3 6 2 -2 0.27 0.98 2.95 <
3 6 2 -1 165.03 210.48 5.18 o
3 6 2 0 6755.95 6241.06 11.26 o
3 6 2 1 285.81 369.29 3.21 o
3 6 2 2 0.64 1.97 2.21 <
4 6 2 -2 71.25 89.62 3.20 o
4 6 2 -1 1.94 3.94 2.71 <
4 6 2 0 5449.77 5475.57 9.49 o
4 6 2 1 8.70 10.58 2.71 o
4 6 2 2 20.02 18.21 2.95 o
5 6 2 -2 0.58 -0.74 2.95 <
5 6 2 -1 83.18 79.77 4.19 o
5 6 2 0 2180.76 2409.78 9.98 o
5 6 2 1 88.92 81.25 3.94 o
5 6 2 2 1.09 0.25 3.20 <
0 7 2 -2 3.23 6.15 3.20 <
0 7 2 2 1.79 4.92 2.95 <
1 7 2 -2 0.20 1.23 2.21 <
1 7 2 -1 91.44 96.84 2.22 o
1 7 2 0 13675.10 13500.10 14.12 o
1 7 2 1 97.96 107.66 2.22 o
1 7 2 2 0.26 1.97 1.72 <
2 7 2 -2 0.10 1.97 2.21 <
2 7 2 -1 11.06 16.49 2.21 o
2 7 2 0 20257.90 21483.50 22.84 o
2 7 2 1 0.36 6.64 1.72 o
2 7 2 2 0.14 0.98 1.72 <
3 7 2 -2 0.49 3.69 2.71 <
3 7 2 -1 225.13 273.24 4.19 o
3 7 2 0 6569.70 6133.48 10.71 o
3 7 2 1 285.25 349.78 3.70 o
3 7 2 2 1.45 4.92 2.21 o
4 7 2 -2 1.43 3.69 2.95 <
4 7 2 -1 9.75 13.29 2.71 o
4 7 2 0 5227.51 5290.19 10.49 o
4 7 2 1 6.28 11.57 2.46 o
4 7 2 2 0.51 0.00 2.71 <
5 7 2 -2 0.01 0.74 3.94 <
5 7 2 -1 58.47 74.09 3.94 o
5 7 2 0 2086.84 2265.91 9.98 o
5 7 2 1 104.66 83.72 5.17 o
5 7 2 2 2.15 2.46 2.71 <
0 8 2 -2 5.50 6.15 2.71 o
0 8 2 0 11498.60 10627.90 14.39 o
0 8 2 2 13.34 23.13 2.46 o
1 8 2 -2 2.16 3.94 1.97 <
1 8 2 -1 85.09 92.39 2.22 o
1 8 2 0 1326.02 1165.52 5.01 o
1 8 2 1 16.10 18.21 1.97 o
1 8 2 2 0.10 1.23 1.72 <
2 8 2 -2 37.02 43.82 2.71 o
2 8 2 -1 2.00 7.63 2.46 o
2 8 2 0 7476.64 6698.88 8.81 o
2 8 2 1 0.06 1.48 1.97 <
2 8 2 2 1.15 1.48 1.97 <
3 8 2 -2 0.02 -0.98 2.71 <
3 8 2 -1 230.26 270.53 4.44 o
3 8 2 0 822.16 773.71 6.45 o
3 8 2 1 39.62 46.03 3.20 o
3 8 2 2 0.61 3.20 2.21 <
4 8 2 -2 72.72 86.17 4.19 o
4 8 2 -1 11.68 15.26 3.20 o
4 8 2 0 2486.19 2516.87 8.02 o
4 8 2 1 2.12 4.43 2.21 <
4 8 2 2 38.19 31.50 2.71 o
5 8 2 -2 0.34 2.95 3.69 <
5 8 2 -1 75.27 86.66 4.19 o
5 8 2 0 390.41 429.73 6.91 o
5 8 2 1 8.31 10.83 3.20 o
5 8 2 2 0.71 3.69 3.69 <
0 9 2 -2 1.12 2.95 2.95 <
0 9 2 0 11854.50 11280.90 17.48 o
0 9 2 2 21.56 26.83 3.20 o
1 9 2 -2 6.31 9.60 2.21 o
1 9 2 -1 12.97 11.32 2.21 o
1 9 2 0 10244.80 9703.03 10.31 o
1 9 2 1 148.44 155.53 2.22 o
1 9 2 2 4.74 7.87 1.72 o
2 9 2 -2 2.08 1.97 2.71 <
2 9 2 -1 1.86 4.92 2.21 o
2 9 2 0 6253.38 5786.18 8.41 o
2 9 2 1 16.89 18.70 1.97 o
2 9 2 2 1.62 3.69 1.97 <
3 9 2 -2 6.14 10.34 2.95 o
3 9 2 -1 28.89 30.03 2.71 o
3 9 2 0 4573.48 4286.29 10.24 o
3 9 2 1 425.34 496.34 5.19 o
3 9 2 2 0.02 2.71 2.71 <
4 9 2 -2 2.30 2.46 4.92 <
4 9 2 -1 9.92 11.32 2.46 o
4 9 2 0 1102.95 1092.00 5.95 o
4 9 2 1 16.97 16.49 2.46 o
4 9 2 2 8.00 2.71 2.46 <
5 9 2 -2 2.28 8.61 3.69 o
5 9 2 -1 4.35 7.14 4.18 <
5 9 2 0 1236.00 1339.88 7.94 o
5 9 2 1 144.24 109.84 3.94 o
5 9 2 2 0.28 1.72 3.20 <
0 10 2 -2 32.57 37.67 2.95 o
0 10 2 0 6503.30 6098.98 11.21 o
0 10 2 2 19.81 24.36 3.69 o
1 10 2 -2 1.53 1.23 1.97 <
1 10 2 -1 125.10 135.81 2.22 o
1 10 2 0 2849.62 2492.38 5.86 o
1 10 2 1 4.78 8.61 1.72 o
1 10 2 2 0.40 2.21 1.72 <
2 10 2 -2 70.12 81.02 2.96 o
2 10 2 -1 18.06 22.64 2.46 o
2 10 2 0 3712.86 3520.55 7.16 o
2 10 2 1 6.58 5.41 1.97 o
2 10 2 2 1.56 3.20 1.97 <
3 10 2 -2 1.40 2.71 2.95 <
3 10 2 -1 329.36 380.32 3.95 o
3 10 2 0 1083.79 1016.09 8.44 o
3 10 2 1 21.52 27.07 3.20 o
3 10 2 2 1.59 3.94 2.71 <
4 10 2 -2 92.66 107.85 3.69 o
4 10 2 -1 17.74 19.69 2.95 o
4 10 2 0 826.09 859.46 5.69 o
4 10 2 1 2.43 2.21 2.46 <
4 10 2 2 5.76 1.23 2.46 <
5 10 2 -2 0.73 2.71 2.95 <
5 10 2 -1 94.75 64.26 5.66 o
5 10 2 0 221.98 240.74 6.41 o
5 10 2 1 18.89 14.52 3.20 o
5 10 2 2 1.11 -0.25 2.95 <
0 11 2 -2 6.24 7.38 3.20 o
0 11 2 0 6492.07 6128.52 10.90 o
0 11 2 2 4.96 5.66 3.20 <
1 11 2 -2 0.07 1.72 2.21 <
1 11 2 -1 5.35 7.38 2.21 o
1 11 2 0 714.93 658.47 4.71 o
1 11 2 1 173.82 195.48 2.47 o
1 11 2 2 16.40 14.27 1.72 o
2 11 2 -2 18.15 21.90 2.95 o
2 11 2 -1 2.04 2.95 2.21 <
2 11 2 0 3525.01 3353.58 7.39 o
2 11 2 1 11.14 12.06 1.97 o
2 11 2 2 1.77 0.00 1.72 <
3 11 2 -2 1.08 0.49 2.71 <
3 11 2 -1 23.91 30.03 2.46 o
3 11 2 0 404.17 390.34 5.68 o
3 11 2 1 560.61 673.76 5.68 o
3 11 2 2 3.56 5.17 2.46 o
4 11 2 -2 29.69 33.96 3.20 o
4 11 2 -1 0.16 0.74 3.44 <
4 11 2 0 636.53 648.60 5.93 o
4 11 2 1 15.00 12.55 2.46 o
4 11 2 2 25.84 17.23 2.71 o
5 11 2 -2 0.51 6.89 3.69 <
5 11 2 -1 21.12 11.81 4.92 o
5 11 2 0 187.41 186.49 6.90 o
5 11 2 1 256.75 196.18 4.44 o
0 12 2 -2 6.75 9.35 2.95 o
0 12 2 0 768.66 712.26 6.70 o
0 12 2 2 22.22 28.06 2.46 o
1 12 2 -2 5.87 9.35 2.21 o
1 12 2 -1 165.94 185.65 2.71 o
1 12 2 0 11173.00 10664.60 10.23 o
1 12 2 1 29.12 31.50 2.22 o
1 12 2 2 0.03 1.97 1.72 <
2 12 2 -2 17.74 20.92 3.20 o
2 12 2 -1 15.47 16.49 2.95 o
2 12 2 0 301.69 323.77 4.94 o
2 12 2 1 8.60 6.40 1.97 o
2 12 2 2 10.15 14.03 1.97 o
3 12 2 -2 4.04 8.86 2.71 o
3 12 2 -1 512.41 589.20 4.45 o
3 12 2 0 6299.75 6186.41 10.35 o
3 12 2 1 99.10 124.11 3.94 o
3 12 2 2 0.42 0.49 2.95 <
4 12 2 -2 24.50 29.04 3.20 o
4 12 2 -1 20.05 21.66 3.69 o
4 12 2 0 5.27 17.47 5.17 o
4 12 2 1 6.69 9.10 2.46 o
4 12 2 2 1.10 0.74 2.71 <
5 12 2 -2 1.12 4.18 3.44 <
5 12 2 -1 225.05 166.08 5.17 o
5 12 2 0 2279.61 2393.30 11.48 o
5 12 2 1 49.36 36.92 3.45 o
0 13 2 -2 50.60 57.62 3.69 o
0 13 2 0 3099.15 2768.28 8.91 o
0 13 2 2 64.82 75.83 2.71 o
1 13 2 -2 8.31 9.35 2.46 o
1 13 2 -1 25.44 28.30 2.71 o
1 13 2 0 10011.00 9636.11 10.06 o
1 13 2 1 83.70 94.56 2.22 o
1 13 2 2 0.46 2.21 1.72 <
2 13 2 -2 73.67 78.55 3.94 o
2 13 2 -1 6.70 6.40 2.71 o
2 13 2 0 2088.53 1920.63 6.02 o
2 13 2 1 20.39 23.63 1.97 o
2 13 2 2 11.56 16.49 1.97 o
3 13 2 -2 1.34 2.21 2.95 <
3 13 2 -1 83.24 89.87 2.95 o
3 13 2 0 5852.80 5884.05 9.79 o
3 13 2 1 266.46 254.45 3.70 o
3 13 2 2 0.05 0.25 2.46 <
4 13 2 -2 71.96 68.69 3.94 o
4 13 2 -1 5.68 5.91 3.44 <
4 13 2 0 735.17 799.07 6.68 o
4 13 2 1 25.73 24.86 2.46 o
4 13 2 2 5.76 4.92 2.46 <
5 13 2 -2 0.13 -0.98 3.44 <
5 13 2 -1 39.47 30.03 3.45 o
5 13 2 0 2239.99 2622.77 10.73 o
0 14 2 -2 10.96 21.16 3.69 o
0 14 2 0 17309.00 18043.50 18.59 o
0 14 2 2 5.51 5.41 2.95 <
1 14 2 -2 16.25 16.00 2.71 o
1 14 2 -1 76.33 84.47 2.46 o
1 14 2 0 7380.78 6890.47 9.51 o
1 14 2 1 79.99 90.86 2.22 o
1 14 2 2 12.60 12.06 1.97 o
2 14 2 -2 4.30 11.81 2.95 o
2 14 2 -1 18.16 24.86 2.71 o
2 14 2 0 9867.14 10022.70 11.51 o
2 14 2 1 5.07 2.95 1.97 <
2 14 2 2 2.63 2.46 1.97 <
3 14 2 -2 8.76 8.86 2.71 o
3 14 2 -1 232.61 267.97 3.70 o
3 14 2 0 3997.60 4012.65 8.88 o
3 14 2 1 276.16 267.77 4.44 o
3 14 2 2 2.02 2.46 3.20 <
4 14 2 -2 0.30 6.89 4.18 <
4 14 2 -1 23.49 29.04 3.20 o
4 14 2 0 2081.29 2205.75 9.73 o
4 14 2 1 1.45 4.92 2.71 <
4 14 2 2 0.35 0.49 2.71 <
5 14 2 -2 1.52 3.20 3.20 <
5 14 2 -1 94.29 85.68 3.69 o
5 14 2 0 1443.12 1334.50 10.18 o
0 15 2 -2 1.84 2.95 3.44 <
0 15 2 0 1250.57 1123.94 7.47 o
0 15 2 2 20.41 27.81 2.46 o
1 15 2 -2 3.34 7.38 2.95 o
1 15 2 -1 71.13 77.56 2.46 o
1 15 2 0 4938.92 4609.96 8.24 o
1 15 2 1 10.75 10.09 1.97 o
1 15 2 2 0.02 1.48 1.72 <
2 15 2 -2 16.44 12.80 2.71 o
2 15 2 -1 2.08 0.74 2.95 <
2 15 2 0 933.81 856.45 5.70 o
2 15 2 1 1.20 1.48 2.21 <
2 15 2 2 0.58 2.21 2.21 <
3 15 2 -2 0.26 2.71 2.71 <
3 15 2 -1 238.12 261.80 3.94 o
3 15 2 0 2494.35 2564.01 8.02 o
3 15 2 1 27.02 24.36 2.95 o
3 15 2 2 0.02 0.25 2.95 <
4 15 2 -2 36.71 30.03 3.69 o
4 15 2 -1 0.07 2.71 3.44 <
4 15 2 0 415.53 435.01 8.39 o
4 15 2 1 0.21 2.21 3.20 <
4 15 2 2 14.75 7.14 2.95 o
5 15 2 -2 0.06 4.68 3.44 <
5 15 2 -1 116.49 76.83 4.19 o
0 16 2 -2 0.06 1.97 3.69 <
0 16 2 0 5555.95 5386.99 11.13 o
0 16 2 2 3.59 4.92 2.46 <
1 16 2 -2 2.56 4.43 2.95 <
1 16 2 -1 7.44 8.61 2.46 o
1 16 2 0 275.49 245.19 4.93 o
1 16 2 1 53.26 49.73 2.22 o
1 16 2 2 5.51 7.63 1.97 o
2 16 2 -2 0.00 -0.49 2.46 <
2 16 2 -1 0.20 0.25 2.71 <
2 16 2 0 3241.43 3309.79 8.59 o
2 16 2 1 1.06 0.98 2.21 <
2 16 2 2 0.00 0.98 2.46 <
3 16 2 -2 0.33 2.21 2.95 <
3 16 2 -1 15.81 16.24 2.71 o
3 16 2 0 102.10 116.72 5.91 o
3 16 2 1 158.13 145.58 3.45 o
3 16 2 2 0.22 -0.98 2.95 <
4 16 2 -2 0.07 3.69 3.44 <
4 16 2 -1 0.05 4.18 4.43 <
4 16 2 0 729.43 800.57 8.65 o
4 16 2 1 0.05 1.48 3.94 <
4 16 2 2 5.95 1.97 3.44 <
5 16 2 -2 0.07 2.46 3.20 <
0 17 2 -2 1.67 3.44 3.94 <
0 17 2 0 1371.12 1312.61 8.72 o
0 17 2 2 0.01 1.48 2.46 <
1 17 2 -2 2.34 -0.74 3.20 <
1 17 2 -1 42.88 37.91 2.71 o
1 17 2 0 176.54 162.15 4.68 o
1 17 2 1 0.00 2.21 2.21 <
1 17 2 2 0.16 1.23 1.97 <
2 17 2 -2 14.72 7.87 2.95 o
2 17 2 -1 0.72 2.46 2.46 <
2 17 2 0 740.69 772.72 7.18 o
2 17 2 1 0.24 2.95 2.46 <
2 17 2 2 3.63 1.97 2.21 <
3 17 2 -2 0.33 2.71 3.44 <
3 17 2 -1 118.20 108.36 3.20 o
3 17 2 0 77.52 84.44 5.42 o
3 17 2 1 0.01 1.48 2.95 <
3 17 2 2 0.71 6.15 3.20 <
4 17 2 -2 36.62 22.89 3.45 o
4 17 2 -1 0.01 3.94 3.44 <
4 17 2 0 115.19 134.45 7.88 o
4 17 2 1 3.69 4.43 3.94 <
4 17 2 2 13.60 5.41 3.94 <
0 18 2 -2 14.32 11.57 5.91 <
0 18 2 0 4587.72 4702.89 11.76 o
0 18 2 2 1.30 6.64 3.20 o
1 18 2 -2 1.35 5.91 3.20 <
1 18 2 -1 0.02 2.21 2.71 <
1 18 2 0 5453.44 5345.95 9.00 o
1 18 2 1 71.92 66.72 2.95 o
1 18 2 2 0.04 0.74 2.21 <
2 18 2 -2 20.60 13.54 2.95 o
2 18 2 -1 2.11 5.17 2.46 o
2 18 2 0 2938.18 3124.87 8.30 o
2 18 2 1 8.14 5.41 2.95 <
2 18 2 2 1.77 3.94 2.95 <
3 18 2 -2 0.00 3.69 3.20 <
3 18 2 -1 0.12 1.97 3.20 <
3 18 2 0 2810.58 2967.86 8.78 o
3 18 2 1 242.12 181.89 3.70 o
3 18 2 2 1.12 0.98 2.95 <
4 18 2 -2 21.89 13.29 3.20 o
4 18 2 -1 8.92 2.71 3.20 <
4 18 2 0 920.56 980.89 11.63 o
4 18 2 1 11.80 5.66 3.45 <
0 19 2 -2 20.52 23.63 6.15 o
0 19 2 0 15981.50 17164.80 21.95 o
0 19 2 2 11.81 13.78 3.45 o
1 19 2 -2 2.86 4.43 2.95 <
1 19 2 -1 60.72 54.16 3.45 o
1 19 2 0 1007.89 983.42 6.45 o
1 19 2 1 6.51 3.20 2.46 <
1 19 2 2 0.94 1.48 2.46 <
2 19 2 -2 28.64 29.78 2.95 o
2 19 2 -1 12.56 12.30 2.71 o
2 19 2 0 10725.40 11937.50 14.07 o
2 19 2 1 11.32 7.63 2.95 o
2 19 2 2 5.64 7.38 2.71 o
3 19 2 -2 2.07 8.37 3.69 o
3 19 2 -1 195.39 170.75 4.44 o
3 19 2 0 758.01 827.81 6.93 o
3 19 2 1 20.70 14.52 2.95 o
3 19 2 2 2.17 2.21 2.95 <
4 19 2 -2 27.99 25.59 3.69 o
4 19 2 -1 17.91 11.32 3.45 o
4 19 2 0 3674.84 3718.87 15.11 o
4 19 2 1 11.03 6.64 7.38 <
0 20 2 -2 19.90 25.10 5.41 o
0 20 2 0 1304.34 1279.36 10.44 o
0 20 2 2 24.65 21.90 3.69 o
1 20 2 -2 1.87 2.21 2.95 <
1 20 2 -1 4.65 6.64 2.95 o
1 20 2 0 1532.67 1514.77 7.72 o
1 20 2 1 47.96 37.66 3.69 o
1 20 2 2 22.25 16.98 2.71 o
2 20 2 -2 32.60 29.04 2.95 o
2 20 2 -1 8.02 8.61 2.46 o
2 20 2 0 1124.79 1222.62 6.70 o
2 20 2 1 0.00 1.72 2.71 <
2 20 2 2 4.38 3.44 3.20 <
3 20 2 -2 2.99 2.95 2.95 <
3 20 2 -1 13.40 16.00 3.20 o
3 20 2 0 1005.28 1128.80 8.17 o
3 20 2 1 174.13 112.33 4.19 o
3 20 2 2 8.52 2.71 3.44 <
4 20 2 -2 38.84 27.57 3.45 o
4 20 2 -1 7.79 9.10 3.44 o
4 20 2 0 689.00 618.79 8.40 o
0 21 2 -2 3.83 5.91 3.44 <
0 21 2 0 5.47 9.35 9.35 <
0 21 2 2 1.92 3.94 3.69 <
1 21 2 -2 9.03 9.10 3.20 o
1 21 2 -1 44.31 35.44 2.95 o
1 21 2 0 1776.56 1805.97 7.73 o
1 21 2 1 29.49 22.40 3.20 o
1 21 2 2 5.39 5.41 2.95 <
2 21 2 -2 1.41 1.48 2.46 <
2 21 2 -1 0.04 3.20 2.46 <
2 21 2 0 63.14 60.56 5.42 o
2 21 2 1 5.15 2.95 2.71 <
2 21 2 2 2.04 3.94 2.71 <
3 21 2 -2 6.53 6.15 2.71 o
3 21 2 -1 158.04 128.09 3.94 o
3 21 2 0 912.02 965.10 8.66 o
3 21 2 1 110.35 72.64 4.19 o
3 21 2 2 1.47 3.44 3.20 <
4 21 2 -2 0.06 2.71 2.95 <
4 21 2 -1 0.08 4.18 2.95 <
0 22 2 -2 2.14 0.49 2.95 <
0 22 2 0 13.22 33.22 9.60 o
0 22 2 2 4.67 6.64 4.43 <
1 22 2 -2 30.35 32.98 2.95 o
1 22 2 -1 25.83 18.21 3.20 o
1 22 2 0 201.62 207.23 6.65 o
1 22 2 1 4.13 3.20 2.95 <
1 22 2 2 0.06 5.66 3.20 <
2 22 2 -2 9.28 2.46 2.46 <
2 22 2 -1 4.52 3.20 2.71 <
2 22 2 0 23.46 29.78 5.91 o
2 22 2 1 6.11 3.44 2.71 <
2 22 2 2 0.00 0.49 2.95 <
3 22 2 -2 11.68 15.99 2.95 o
3 22 2 -1 94.93 69.43 3.45 o
3 22 2 0 107.34 115.23 6.65 o
3 22 2 1 11.47 5.91 3.45 <
4 22 2 -2 18.44 5.17 2.71 <
0 23 2 -2 10.43 9.10 3.20 o
0 23 2 0 2413.76 2679.77 11.76 o
0 23 2 2 5.89 7.87 4.43 <
1 23 2 -2 0.31 2.46 2.21 <
1 23 2 -1 3.30 3.69 2.71 <
1 23 2 0 163.64 183.77 6.65 o
1 23 2 1 33.12 16.74 3.45 o
1 23 2 2 7.63 4.92 2.95 <
2 23 2 -2 8.58 4.92 2.46 <
2 23 2 -1 4.50 1.97 2.46 <
2 23 2 0 1451.79 1641.59 7.70 o
2 23 2 1 0.00 3.44 3.20 <
2 23 2 2 1.24 1.72 2.95 <
3 23 2 -2 0.09 1.48 2.71 <
3 23 2 -1 8.45 4.92 2.95 <
3 23 2 0 85.07 100.94 6.40 o
0 24 2 -2 4.52 1.97 2.71 <
0 24 2 0 190.77 252.29 7.39 o
0 24 2 2 2.73 4.18 4.43 <
1 24 2 -2 1.99 3.44 1.97 <
1 24 2 -1 26.92 17.97 2.46 o
1 24 2 0 324.32 345.97 5.67 o
1 24 2 1 0.08 3.94 2.95 <
1 24 2 2 5.62 2.95 2.95 <
2 24 2 -2 11.58 6.15 2.71 o
2 24 2 -1 0.06 1.48 2.71 <
2 24 2 0 75.61 114.23 6.40 o
2 24 2 1 0.11 0.49 3.20 <
3 24 2 -2 0.23 0.98 3.20 <
3 24 2 -1 93.91 55.15 3.69 o
3 24 2 0 138.54 133.73 6.40 o
0 25 2 -2 1.32 -0.74 2.71 <
0 25 2 0 7633.94 9097.96 17.31 o
0 25 2 2 1.57 0.25 3.20 <
1 25 2 -2 3.57 3.20 1.97 <
1 25 2 -1 0.15 1.23 1.97 <
1 25 2 0 34.76 52.67 4.68 o
1 25 2 1 18.31 8.37 2.46 o
1 25 2 2 0.00 4.43 2.71 <
2 25 2 -2 3.12 1.23 2.71 <
2 25 2 -1 0.08 0.25 2.71 <
2 25 2 0 5399.28 5767.66 14.00 o
2 25 2 1 4.97 1.23 2.71 <
3 25 2 -2 0.56 0.98 3.44 <
3 25 2 -1 1.14 1.48 2.71 <
0 26 2 -2 0.15 0.49 2.71 <
0 26 2 0 4137.73 4649.75 12.13 o
1 26 2 -2 2.28 2.71 1.72 <
1 26 2 -1 14.03 5.91 1.97 o
1 26 2 0 15.69 26.08 4.18 o
1 26 2 1 1.93 1.97 2.46 <
2 26 2 -2 1.99 2.46 2.46 <
2 26 2 -1 5.79 1.97 2.46 <
2 26 2 0 2971.76 3042.95 9.52 o
3 26 2 -2 1.39 0.00 3.20 <
0 27 2 -2 4.52 2.95 2.46 <
0 27 2 0 2930.92 2960.89 10.28 o
1 27 2 -2 0.00 1.97 1.72 <
1 27 2 -1 1.16 1.48 1.97 <
1 27 2 0 119.40 141.10 4.43 o
2 27 2 -2 8.46 2.95 2.21 <
2 27 2 -1 0.01 1.72 2.21 <
0 28 2 -2 0.30 0.49 2.46 <
0 28 2 0 472.90 539.72 6.17 o
1 28 2 -2 15.79 5.17 1.72 o
1 28 2 -1 12.89 3.69 1.72 o
2 28 2 -2 0.68 2.95 1.97 <
0 29 2 -2 12.73 7.87 2.71 o
1 29 2 -2 5.47 2.71 1.72 <
0 30 2 -2 2.75 2.46 3.69 <
1 -1 3 2 70.77 89.13 3.20 o
3 -1 3 2 0.17 -0.49 2.21 <
0 0 3 2 7.58 9.60 2.46 o
1 0 3 0 3941.74 3306.41 7.98 o
1 0 3 1 0.37 2.21 1.48 <
1 0 3 2 3.23 5.66 1.48 o
2 0 3 1 341.60 400.62 2.72 o
2 0 3 2 1.83 4.68 1.72 o
3 0 3 0 3503.89 3146.55 8.11 o
3 0 3 1 0.52 1.23 1.48 <
3 0 3 2 0.00 -1.97 1.97 <
4 0 3 1 329.10 343.05 5.67 o
4 0 3 2 0.02 -0.49 2.46 <
5 0 3 0 2021.16 2467.77 9.72 o
5 0 3 1 0.01 1.23 2.71 <
0 1 3 0 798.56 662.05 6.21 o
0 1 3 2 3.10 3.20 2.71 <
1 1 3 -2 80.17 98.30 3.45 o
1 1 3 -1 0.07 2.46 1.72 <
1 1 3 0 1832.09 1629.91 4.52 o
1 1 3 1 10.47 12.06 1.72 o
1 1 3 2 32.61 44.80 1.97 o
2 1 3 -1 316.86 355.08 2.72 o
2 1 3 0 651.27 559.77 3.96 o
2 1 3 1 55.64 65.24 1.97 o
2 1 3 2 1.67 3.69 1.48 o
3 1 3 -2 103.59 127.34 3.94 o
3 1 3 -1 0.03 2.46 1.97 <
3 1 3 0 1448.26 1334.85 4.73 o
3 1 3 1 33.92 36.18 1.72 o
3 1 3 2 1.59 1.48 1.72 <
4 1 3 -1 287.89 283.33 13.07 o
4 1 3 0 317.98 336.14 6.41 o
4 1 3 1 39.51 45.29 2.95 o
4 1 3 2 0.59 0.74 2.71 <
5 1 3 -2 56.24 68.18 4.18 o
5 1 3 -1 0.03 0.74 2.71 <
5 1 3 0 816.92 877.34 5.44 o
5 1 3 1 17.44 11.57 2.95 o
0 2 3 -2 5.40 6.15 3.20 <
0 2 3 0 23.05 21.41 4.68 o
0 2 3 2 3.66 3.69 2.46 <
1 2 3 -2 4.18 5.91 1.72 o
1 2 3 -1 6.83 9.10 1.97 o
1 2 3 1 1.78 5.17 1.48 o
1 2 3 2 22.34 26.58 1.48 o
2 2 3 -2 5.15 9.60 1.97 o
2 2 3 -1 42.20 44.06 1.72 o
2 2 3 0 8.39 17.72 3.45 o
2 2 3 1 415.71 485.12 3.21 o
2 2 3 2 0.30 0.98 1.48 <
3 2 3 -2 6.09 7.87 2.21 o
3 2 3 -1 21.33 25.59 1.97 o
3 2 3 0 10979.90 11112.50 10.75 o
3 2 3 1 10.71 13.04 2.21 o
3 2 3 2 0.07 0.00 1.72 <
4 2 3 -2 1.89 2.95 7.14 <
4 2 3 -1 23.77 28.06 5.41 o
4 2 3 0 0.67 11.32 7.14 <
4 2 3 1 369.64 308.61 5.43 o
4 2 3 2 1.03 1.48 2.46 <
5 2 3 -2 3.40 2.95 2.21 <
5 2 3 -1 11.74 8.12 2.95 o
5 2 3 0 2506.65 2700.76 7.50 o
5 2 3 1 13.07 6.15 3.20 <
0 3 3 -2 3.82 3.69 2.21 <
0 3 3 0 3046.88 2685.99 7.40 o
0 3 3 2 4.50 4.18 2.21 <
1 3 3 -2 38.15 43.08 1.97 o
1 3 3 -1 4.52 7.14 1.97 o
1 3 3 0 8658.02 8259.08 8.12 o
1 3 3 1 1.03 2.46 1.97 <
1 3 3 2 19.85 21.90 1.72 o
2 3 3 -2 1.80 2.95 1.72 <
2 3 3 -1 322.62 364.72 2.47 o
2 3 3 0 1889.18 1700.61 4.76 o
2 3 3 1 0.00 0.25 1.48 <
2 3 3 2 1.09 1.97 1.48 <
3 3 3 -2 70.34 85.19 2.46 o
3 3 3 -1 22.26 27.56 1.97 o
3 3 3 0 3008.39 2901.98 6.05 o
3 3 3 1 0.29 2.46 1.72 <
3 3 3 2 0.67 1.23 1.72 <
4 3 3 -2 0.05 2.71 3.44 <
4 3 3 -1 256.07 317.53 7.64 o
4 3 3 0 548.92 573.84 6.67 o
4 3 3 1 0.16 0.00 3.69 <
4 3 3 2 0.06 0.74 2.95 <
5 3 3 -2 46.39 54.89 2.95 o
5 3 3 -1 22.69 15.01 2.71 o
5 3 3 0 510.82 478.66 5.92 o
5 3 3 1 2.25 2.46 2.95 <
0 4 3 -2 2.25 0.00 2.46 <
0 4 3 0 4985.63 4405.79 8.61 o
0 4 3 2 1.47 3.94 2.21 <
1 4 3 -2 19.47 25.10 1.97 o
1 4 3 -1 0.00 0.74 1.97 <
1 4 3 0 17577.80 18276.90 16.54 o
1 4 3 1 1.98 4.68 1.72 o
1 4 3 2 22.90 29.29 1.72 o
2 4 3 -2 3.30 3.94 1.97 <
2 4 3 -1 0.30 0.98 1.97 <
2 4 3 0 3349.67 2962.87 5.85 o
2 4 3 1 229.15 248.29 2.96 o
2 4 3 2 0.31 0.98 1.48 <
3 4 3 -2 34.70 46.77 2.46 o
3 4 3 -1 2.25 6.15 1.97 o
3 4 3 0 6883.07 6846.16 7.80 o
3 4 3 1 9.30 11.32 1.97 o
3 4 3 2 3.18 0.98 1.72 <
4 4 3 -2 2.97 3.44 3.69 <
4 4 3 -1 1.17 1.48 3.69 <
4 4 3 0 1159.94 1181.66 6.20 o
4 4 3 1 169.15 195.35 4.68 o
4 4 3 2 0.01 3.94 3.20 <
5 4 3 -2 22.08 20.18 2.71 o
5 4 3 -1 9.34 6.64 3.20 o
5 4 3 0 1443.93 1398.06 7.20 o
5 4 3 1 8.24 4.68 3.69 <
0 5 3 -2 3.39 2.95 2.46 <
0 5 3 0 1.04 12.06 4.68 o
0 5 3 2 0.05 -0.98 1.97 <
1 5 3 -2 12.62 16.00 1.97 o
1 5 3 -1 3.16 5.66 1.72 o
1 5 3 0 12486.80 12255.00 9.81 o
1 5 3 1 1.13 2.71 1.48 <
1 5 3 2 0.77 3.20 1.72 <
2 5 3 -2 3.00 4.18 1.72 o
2 5 3 -1 159.45 167.36 2.22 o
2 5 3 0 7.93 13.04 3.45 o
2 5 3 1 50.41 54.16 1.97 o
2 5 3 2 0.68 1.97 1.48 <
3 5 3 -2 32.97 38.64 2.46 o
3 5 3 -1 13.40 16.73 2.21 o
3 5 3 0 5151.30 5128.85 7.18 o
3 5 3 1 1.24 1.48 1.48 <
3 5 3 2 0.31 1.23 1.97 <
4 5 3 -2 1.35 2.95 2.46 <
4 5 3 -1 95.29 98.49 4.92 o
4 5 3 0 27.39 35.44 5.41 o
4 5 3 1 35.18 33.23 2.71 o
4 5 3 2 2.89 1.72 2.95 <
5 5 3 -2 26.02 25.10 2.71 o
5 5 3 -1 10.73 8.86 2.95 o
5 5 3 0 1220.50 1209.83 6.94 o
5 5 3 1 0.08 3.20 2.95 <
0 6 3 -2 0.51 1.97 2.21 <
0 6 3 0 8668.15 8084.21 11.09 o
0 6 3 2 5.20 4.43 1.97 o
1 6 3 -2 37.43 40.13 1.97 o
1 6 3 -1 0.16 3.69 1.97 <
1 6 3 0 10098.20 9482.30 8.47 o
1 6 3 1 0.03 0.49 1.72 <
1 6 3 2 33.96 39.87 2.22 o
2 6 3 -2 0.45 2.46 1.72 <
2 6 3 -1 30.42 31.75 1.97 o
2 6 3 0 5877.46 5505.57 7.54 o
2 6 3 1 277.42 329.78 2.47 o
2 6 3 2 3.48 3.69 1.48 o
3 6 3 -2 69.86 76.57 3.20 o
3 6 3 -1 0.03 1.48 2.21 <
3 6 3 0 5554.23 5425.62 7.20 o
3 6 3 1 0.10 2.21 1.97 <
3 6 3 2 1.50 -0.25 2.95 <
4 6 3 -2 0.10 0.98 2.46 <
4 6 3 -1 14.64 15.50 3.20 o
4 6 3 0 2228.39 2337.86 7.75 o
4 6 3 1 266.94 248.47 3.94 o
4 6 3 2 1.46 2.21 2.46 <
5 6 3 -2 48.67 46.03 3.20 o
5 6 3 -1 1.45 4.68 3.20 <
5 6 3 0 1948.50 2122.52 8.97 o
0 7 3 -2 13.79 12.80 2.46 o
0 7 3 0 9113.52 8540.97 11.66 o
0 7 3 2 15.63 15.75 2.46 o
1 7 3 -2 4.47 7.14 1.97 o
1 7 3 -1 0.82 2.21 1.97 <
1 7 3 0 4727.59 4475.77 6.72 o
1 7 3 1 9.71 9.35 1.48 o
1 7 3 2 0.02 1.72 1.48 <
2 7 3 -2 12.14 17.23 2.21 o
2 7 3 -1 242.88 276.02 2.96 o
2 7 3 0 6572.65 6157.54 7.57 o
2 7 3 1 248.34 285.79 2.71 o
2 7 3 2 5.85 8.37 1.48 o
3 7 3 -2 6.19 8.37 2.46 o
3 7 3 -1 5.62 7.87 1.97 o
3 7 3 0 1004.70 1055.67 4.96 o
3 7 3 1 34.27 30.27 2.46 o
3 7 3 2 1.08 0.98 1.97 <
4 7 3 -2 5.57 9.60 2.46 o
4 7 3 -1 219.60 238.81 3.94 o
4 7 3 0 2803.40 2968.33 9.53 o
4 7 3 1 232.41 208.98 4.19 o
4 7 3 2 0.31 0.25 2.46 <
5 7 3 -2 3.18 2.71 3.20 <
5 7 3 -1 7.50 4.43 3.69 <
5 7 3 0 10.29 14.27 6.40 o
0 8 3 -2 1.11 3.69 2.46 <
0 8 3 0 1269.62 1099.98 6.24 o
0 8 3 2 0.03 2.71 2.21 <
1 8 3 -2 90.02 111.84 1.97 o
1 8 3 -1 8.30 8.37 1.97 o
1 8 3 0 3678.02 3237.25 6.13 o
1 8 3 1 2.79 1.97 1.72 <
1 8 3 2 50.37 60.56 1.97 o
2 8 3 -2 0.69 2.95 1.72 <
2 8 3 -1 207.13 233.01 2.22 o
2 8 3 0 1176.59 1063.97 4.48 o
2 8 3 1 111.69 129.55 2.46 o
2 8 3 2 0.01 0.25 1.72 <
3 8 3 -2 112.44 137.68 2.96 o
3 8 3 -1 29.37 30.27 2.46 o
3 8 3 0 1989.69 1878.92 5.25 o
3 8 3 1 8.85 7.14 1.97 o
3 8 3 2 0.54 2.46 1.72 <
4 8 3 -2 0.34 4.43 2.21 <
4 8 3 -1 177.74 172.46 3.94 o
4 8 3 0 784.97 843.10 7.42 o
4 8 3 1 112.63 107.85 3.45 o
4 8 3 2 0.03 2.95 2.71 <
5 8 3 -2 63.70 43.08 4.92 o
5 8 3 -1 18.45 8.86 3.20 o
5 8 3 0 698.71 738.45 6.18 o
0 9 3 -2 0.75 -1.23 3.44 <
0 9 3 0 7376.51 6761.40 10.60 o
0 9 3 2 7.46 8.86 2.46 o
1 9 3 -2 6.83 7.87 1.97 o
1 9 3 -1 1.66 1.97 1.72 <
1 9 3 0 2962.92 2761.90 5.32 o
1 9 3 1 0.22 1.23 1.48 <
1 9 3 2 8.60 11.32 1.48 o
2 9 3 -2 1.31 2.71 1.72 <
2 9 3 -1 98.88 110.83 2.22 o
2 9 3 0 5089.98 4781.34 6.69 o
2 9 3 1 324.14 364.65 2.71 o
2 9 3 2 2.13 3.94 1.72 o
3 9 3 -2 7.81 8.61 2.71 o
3 9 3 -1 5.52 6.15 1.97 o
3 9 3 0 953.14 980.36 4.71 o
3 9 3 1 2.20 6.15 1.72 o
3 9 3 2 0.48 -0.49 1.72 <
4 9 3 -2 0.69 2.46 2.46 <
4 9 3 -1 93.56 94.79 2.95 o
4 9 3 0 1894.88 2033.77 8.22 o
4 9 3 1 321.07 307.48 4.68 o
4 9 3 2 0.01 2.46 2.71 <
5 9 3 -2 4.82 3.44 3.44 <
5 9 3 -1 3.64 3.69 3.69 <
5 9 3 0 137.06 118.70 5.66 o
0 10 3 -2 13.63 13.04 3.20 o
0 10 3 0 1844.85 1613.29 6.52 o
0 10 3 2 2.80 1.97 2.46 <
1 10 3 -2 13.10 9.35 1.97 o
1 10 3 -1 0.68 2.46 1.48 <
1 10 3 0 4407.74 4176.89 6.16 o
1 10 3 1 2.87 1.97 1.72 <
1 10 3 2 16.82 18.70 1.48 o
2 10 3 -2 7.01 7.38 2.21 o
2 10 3 -1 281.81 306.91 2.71 o
2 10 3 0 1327.27 1203.17 4.48 o
2 10 3 1 8.13 10.34 1.72 o
2 10 3 2 1.08 2.21 1.48 <
3 10 3 -2 33.66 33.72 3.94 o
3 10 3 -1 4.60 7.38 2.95 o
3 10 3 0 1463.53 1506.24 5.22 o
3 10 3 1 6.37 5.41 2.21 o
3 10 3 2 0.13 -0.25 1.72 <
4 10 3 -2 0.76 0.74 2.46 <
4 10 3 -1 263.85 260.81 3.70 o
4 10 3 0 517.67 574.82 6.67 o
4 10 3 1 15.99 15.26 3.94 o
4 10 3 2 0.08 2.46 2.71 <
5 10 3 -2 23.27 22.15 3.69 o
5 10 3 -1 6.06 5.41 3.94 <
0 11 3 -2 0.01 4.92 2.71 <
0 11 3 0 727.55 668.55 5.45 o
0 11 3 2 0.29 1.23 2.21 <
1 11 3 -2 34.96 41.85 1.97 o
1 11 3 -1 1.27 1.72 1.97 <
1 11 3 0 3459.59 3340.18 5.59 o
1 11 3 1 0.38 1.48 1.72 <
1 11 3 2 36.55 41.84 1.72 o
2 11 3 -2 0.31 1.72 1.97 <
2 11 3 -1 8.80 13.29 1.97 o
2 11 3 0 615.66 575.31 3.96 o
2 11 3 1 192.57 179.40 2.96 o
2 11 3 2 0.05 3.44 1.72 <
3 11 3 -2 38.34 41.10 3.20 o
3 11 3 -1 2.02 1.72 2.46 <
3 11 3 0 1248.77 1301.87 5.22 o
3 11 3 1 2.25 4.43 1.72 o
3 11 3 2 0.03 -0.25 1.97 <
4 11 3 -2 0.52 2.71 2.46 <
4 11 3 -1 17.46 14.03 2.71 o
4 11 3 0 368.50 397.62 5.67 o
4 11 3 1 160.43 132.27 5.17 o
4 11 3 2 1.01 -1.48 2.95 <
5 11 3 -2 19.11 14.77 3.45 o
5 11 3 -1 0.06 2.71 3.20 <
0 12 3 -2 8.76 11.07 3.20 o
0 12 3 0 8634.69 8221.71 11.17 o
0 12 3 2 4.61 5.66 1.97 o
1 12 3 -2 7.18 6.89 1.97 o
1 12 3 -1 0.28 0.00 1.72 <
1 12 3 0 9856.36 9772.32 8.57 o
1 12 3 1 1.28 1.97 1.48 <
1 12 3 2 1.08 0.25 1.72 <
2 12 3 -2 5.60 6.40 1.97 o
2 12 3 -1 129.66 128.59 2.22 o
2 12 3 0 6240.00 6090.13 7.50 o
2 12 3 1 33.69 33.23 2.22 o
2 12 3 2 1.08 2.95 1.72 <
3 12 3 -2 21.02 19.44 2.95 o
3 12 3 -1 1.94 2.46 2.71 <
3 12 3 0 3773.67 3987.64 7.84 o
3 12 3 1 1.44 0.25 1.97 <
3 12 3 2 4.58 2.71 2.21 <
4 12 3 -2 1.18 1.72 2.46 <
4 12 3 -1 90.39 81.49 2.95 o
4 12 3 0 2649.49 2928.59 8.01 o
4 12 3 1 29.51 12.31 2.46 o
4 12 3 2 0.11 3.44 2.71 <
5 12 3 -2 17.89 18.46 3.45 o
5 12 3 -1 2.71 3.20 2.95 <
0 13 3 -2 0.03 2.21 2.46 <
0 13 3 0 7077.96 6832.26 12.04 o
0 13 3 2 6.41 7.14 1.97 o
1 13 3 -2 9.34 7.38 1.97 o
1 13 3 -1 0.04 2.71 1.72 <
1 13 3 0 2603.20 2475.84 5.28 o
1 13 3 1 1.98 3.69 1.48 o
1 13 3 2 6.74 9.35 1.97 o
2 13 3 -2 0.33 0.74 1.97 <
2 13 3 -1 24.56 25.10 1.97 o
2 13 3 0 5205.61 5191.19 7.18 o
2 13 3 1 122.41 117.48 2.22 o
2 13 3 2 3.47 2.46 1.48 <
3 13 3 -2 30.45 18.95 3.45 o
3 13 3 -1 0.57 2.71 2.71 <
3 13 3 0 1101.38 1138.59 6.20 o
3 13 3 1 11.28 9.60 2.21 o
3 13 3 2 6.19 3.94 2.21 <
4 13 3 -2 0.66 2.71 2.46 <
4 13 3 -1 18.66 13.04 2.46 o
4 13 3 0 2334.30 2529.95 7.49 o
4 13 3 1 110.38 62.79 2.95 o
4 13 3 2 0.71 -0.98 6.64 <
5 13 3 -2 26.45 13.29 3.20 o
0 14 3 -2 0.00 0.74 2.46 <
0 14 3 0 5123.60 4878.05 11.05 o
0 14 3 2 0.50 -1.23 2.21 <
1 14 3 -2 4.97 5.66 2.21 o
1 14 3 -1 4.25 5.66 1.72 o
1 14 3 0 3620.23 3720.74 5.83 o
1 14 3 1 2.49 3.94 1.72 o
1 14 3 2 2.75 1.72 1.72 <
2 14 3 -2 0.08 2.46 1.97 <
2 14 3 -1 90.38 86.18 2.22 o
2 14 3 0 3944.73 3909.36 6.59 o
2 14 3 1 90.54 78.79 2.22 o
2 14 3 2 0.03 2.21 1.97 <
3 14 3 -2 8.04 10.09 2.71 o
3 14 3 -1 21.51 21.16 3.20 o
3 14 3 0 1281.92 1419.41 6.95 o
3 14 3 1 7.40 6.89 2.21 o
3 14 3 2 4.70 3.44 2.46 <
4 14 3 -2 0.19 3.44 2.46 <
4 14 3 -1 72.35 57.11 2.95 o
4 14 3 0 1916.61 2116.82 7.47 o
4 14 3 1 77.59 51.45 2.95 o
5 14 3 -2 5.59 0.49 3.20 <
0 15 3 -2 4.02 7.87 2.46 o
0 15 3 0 3713.68 3499.29 9.13 o
0 15 3 2 2.14 1.97 2.46 <
1 15 3 -2 59.95 69.18 2.22 o
1 15 3 -1 2.39 0.49 1.72 <
1 15 3 0 2060.12 1988.64 5.00 o
1 15 3 1 0.35 2.71 1.48 <
1 15 3 2 13.74 15.01 1.72 o
2 15 3 -2 1.91 2.46 1.97 <
2 15 3 -1 63.09 62.53 1.97 o
2 15 3 0 2892.55 2859.79 6.03 o
2 15 3 1 58.00 51.45 2.71 o
2 15 3 2 1.63 0.74 1.97 <
3 15 3 -2 78.29 72.38 2.95 o
3 15 3 -1 7.29 2.46 2.71 <
3 15 3 0 1009.48 1118.45 6.94 o
3 15 3 1 0.58 0.49 2.71 <
3 15 3 2 0.28 1.48 2.46 <
4 15 3 -2 0.28 3.20 2.46 <
4 15 3 -1 45.64 34.21 2.71 o
4 15 3 0 1401.71 1499.72 6.70 o
4 15 3 1 64.60 28.31 2.71 o
0 16 3 -2 8.36 11.81 2.71 o
0 16 3 0 83.84 96.03 4.68 o
0 16 3 2 5.14 6.15 2.46 o
1 16 3 -2 14.16 19.19 1.97 o
1 16 3 -1 0.01 3.44 1.97 <
1 16 3 0 1575.73 1658.53 4.73 o
1 16 3 1 1.25 2.21 1.72 <
1 16 3 2 4.79 3.94 1.72 o
2 16 3 -2 7.97 8.37 2.21 o
2 16 3 -1 57.01 60.31 2.46 o
2 16 3 0 49.38 77.78 3.69 o
2 16 3 1 223.32 194.93 2.96 o
2 16 3 2 1.62 1.97 1.97 <
3 16 3 -2 11.94 8.37 2.95 o
3 16 3 -1 0.28 3.20 2.46 <
3 16 3 0 469.18 582.29 6.66 o
3 16 3 1 4.27 3.94 2.71 <
3 16 3 2 0.27 1.97 2.71 <
4 16 3 -2 4.20 3.94 2.95 <
4 16 3 -1 62.87 51.20 3.20 o
4 16 3 0 9.00 4.68 5.41 <
0 17 3 -2 11.49 13.04 2.46 o
0 17 3 0 99.95 106.13 4.92 o
0 17 3 2 0.15 -0.74 2.95 <
1 17 3 -2 24.93 19.20 2.21 o
1 17 3 -1 1.19 2.71 1.97 <
1 17 3 0 3881.71 4092.93 6.59 o
1 17 3 1 5.07 3.69 1.97 <
1 17 3 2 29.83 22.15 2.21 o
2 17 3 -2 7.23 7.38 2.46 o
2 17 3 -1 182.16 153.26 2.96 o
2 17 3 0 37.70 42.09 3.94 o
2 17 3 1 0.06 -0.25 2.21 <
2 17 3 2 0.05 1.97 2.21 <
3 17 3 -2 35.04 29.78 3.20 o
3 17 3 -1 4.18 2.21 2.95 <
3 17 3 0 1612.35 1855.28 10.45 o
3 17 3 1 18.34 8.61 3.20 o
3 17 3 2 2.78 4.92 2.46 <
4 17 3 -2 2.06 6.40 3.44 <
4 17 3 -1 191.62 118.74 3.94 o
4 17 3 0 0.34 8.61 5.41 <
0 18 3 -2 0.05 2.95 2.95 <
0 18 3 0 4333.79 4470.96 9.40 o
0 18 3 2 15.79 10.58 2.71 o
1 18 3 -2 13.49 14.27 2.21 o
1 18 3 -1 3.71 3.20 1.97 <
1 18 3 0 642.55 697.66 4.45 o
1 18 3 1 0.04 0.74 1.72 <
1 18 3 2 16.61 14.27 1.72 o
2 18 3 -2 0.32 -0.98 2.46 <
2 18 3 -1 0.02 4.18 2.46 <
2 18 3 0 3212.70 3412.30 7.04 o
2 18 3 1 110.83 87.91 2.95 o
2 18 3 2 8.11 3.44 2.21 <
3 18 3 -2 17.79 12.80 2.71 o
3 18 3 -1 13.59 10.09 2.95 o
3 18 3 0 132.83 152.69 5.66 o
3 18 3 1 0.58 1.97 3.94 <
4 18 3 -2 0.38 0.74 4.18 <
4 18 3 -1 0.10 2.95 3.69 <
0 19 3 -2 8.38 10.58 2.71 o
0 19 3 0 1007.84 1024.92 6.44 o
0 19 3 2 6.30 3.94 2.95 <
1 19 3 -2 0.19 3.20 2.21 <
1 19 3 -1 0.09 2.21 1.97 <
1 19 3 0 217.29 194.69 4.19 o
1 19 3 1 0.13 1.97 1.97 <
1 19 3 2 0.51 0.74 1.97 <
2 19 3 -2 4.96 5.66 2.46 o
2 19 3 -1 85.20 67.21 2.71 o
2 19 3 0 769.08 808.34 5.44 o
2 19 3 1 30.46 21.66 2.21 o
2 19 3 2 3.19 4.43 2.46 <
3 19 3 -2 2.39 3.20 2.71 <
3 19 3 -1 1.16 3.94 3.20 <
3 19 3 0 334.43 322.29 6.16 o
3 19 3 1 0.00 0.25 3.20 <
4 19 3 -2 0.80 1.23 3.69 <
4 19 3 -1 78.50 51.94 5.17 o
0 20 3 -2 17.26 18.46 3.94 o
0 20 3 0 1064.82 1117.33 7.19 o
0 20 3 2 0.90 -0.74 2.71 <
1 20 3 -2 11.19 2.95 2.71 <
1 20 3 -1 0.01 3.69 2.21 <
1 20 3 0 1509.68 1653.72 5.97 o
1 20 3 1 0.00 1.97 2.21 <
1 20 3 2 2.04 -0.74 2.21 <
2 20 3 -2 9.66 4.43 3.20 <
2 20 3 -1 25.27 20.67 2.95 o
2 20 3 0 802.56 889.32 6.18 o
2 20 3 1 39.39 24.86 2.95 o
2 20 3 2 1.42 2.46 2.71 <
3 20 3 -2 20.17 10.09 2.95 o
3 20 3 -1 0.90 4.92 2.71 <
3 20 3 0 893.68 926.47 7.18 o
4 20 3 -2 2.18 -0.74 3.44 <
0 21 3 -2 0.02 3.69 3.94 <
0 21 3 0 1109.11 1151.66 8.43 o
0 21 3 2 0.41 1.23 3.20 <
1 21 3 -2 0.44 -0.74 2.71 <
1 21 3 -1 0.14 2.46 2.46 <
1 21 3 0 11438.80 12846.80 15.90 o
1 21 3 1 1.03 4.18 2.46 <
1 21 3 2 0.46 0.74 2.46 <
2 21 3 -2 0.01 -0.25 3.20 <
2 21 3 -1 23.44 15.75 2.71 o
2 21 3 0 857.71 875.69 6.93 o
2 21 3 1 46.37 19.69 3.45 o
3 21 3 -2 2.03 -0.49 2.95 <
3 21 3 -1 0.76 -2.46 3.44 <
3 21 3 0 5512.54 5376.85 14.00 o
0 22 3 -2 1.19 4.43 4.92 <
0 22 3 0 126.64 131.75 8.87 o
0 22 3 2 2.42 0.00 4.18 <
1 22 3 -2 27.12 20.67 3.94 o
1 22 3 -1 0.49 1.72 2.71 <
1 22 3 0 353.84 368.47 6.17 o
1 22 3 1 0.35 2.95 2.71 <
1 22 3 2 6.29 1.48 2.71 <
2 22 3 -2 1.69 2.95 2.71 <
2 22 3 -1 29.28 18.21 3.20 o
2 22 3 0 65.99 74.34 6.15 o
2 22 3 1 26.82 7.38 3.20 o
3 22 3 -2 37.57 17.97 3.45 o
3 22 3 -1 0.78 2.71 3.69 <
0 23 3 -2 0.94 0.98 4.68 <
0 23 3 0 187.65 217.29 9.36 o
1 23 3 -2 0.25 0.49 2.95 <
1 23 3 -1 1.21 0.98 2.71 <
1 23 3 0 632.98 749.36 7.17 o
1 23 3 1 1.95 3.44 2.95 <
2 23 3 -2 1.56 1.48 2.71 <
2 23 3 -1 22.11 10.09 2.71 o
2 23 3 0 129.17 128.05 6.16 o
3 23 3 -2 0.51 -1.48 3.20 <
3 23 3 -1 7.34 6.89 3.44 <
0 24 3 -2 6.36 3.20 4.43 <
0 24 3 0 215.46 205.99 8.62 o
1 24 3 -2 6.32 3.20 2.95 <
1 24 3 -1 2.15 2.71 2.95 <
1 24 3 0 2326.64 2440.61 10.99 o
2 24 3 -2 4.04 3.69 2.95 <
2 24 3 -1 46.17 22.89 3.45 o
2 24 3 0 177.88 158.39 6.40 o
3 24 3 -2 12.81 6.89 3.69 <
0 25 3 -2 0.20 2.21 3.94 <
0 25 3 0 7.66 19.93 9.35 o
1 25 3 -2 16.35 8.12 3.45 o
1 25 3 -1 0.80 6.40 3.20 <
1 25 3 0 516.38 460.39 6.91 o
2 25 3 -2 0.44 3.44 2.95 <
2 25 3 -1 1.29 0.98 3.20 <
0 26 3 -2 19.48 10.09 3.45 o
0 26 3 0 2.00 2.46 15.75 <
1 26 3 -2 2.93 1.72 2.71 <
1 26 3 -1 0.00 1.97 2.46 <
2 26 3 -2 13.39 8.12 2.95 o
0 27 3 -2 6.68 1.23 3.20 <
1 27 3 -2 11.94 3.45 2.46 <
0 28 3 -2 3.28 1.72 2.71 <
1 28 3 -2 1.72 1.72 2.21 <
0 -1 4 2 51.06 52.92 3.20 o
2 -1 4 2 7.53 7.87 2.46 o
4 -1 4 2 9.47 -1.23 3.69 <
0 0 4 2 0.68 -0.25 1.97 <
1 0 4 1 40.15 38.40 1.72 o
1 0 4 2 2.58 4.43 1.48 o
2 0 4 1 4.60 3.44 1.48 o
2 0 4 2 0.00 0.00 1.48 <
3 0 4 1 123.56 112.79 2.46 o
3 0 4 2 0.00 0.98 1.48 <
4 0 4 0 11148.60 13147.30 16.62 o
4 0 4 1 2.73 3.20 1.97 <
4 0 4 2 1.05 2.95 3.20 <
0 1 4 0 3004.32 2764.91 8.09 o
0 1 4 2 50.88 44.55 2.46 o
1 1 4 -1 23.38 21.17 1.97 o
1 1 4 0 336.11 315.89 3.21 o
1 1 4 1 22.14 21.16 1.72 o
1 1 4 2 0.02 0.74 1.23 <
2 1 4 -2 62.09 61.30 2.71 o
2 1 4 -1 0.86 1.97 1.97 <
2 1 4 0 2323.60 2258.50 4.76 o
2 1 4 1 0.91 2.95 1.48 <
2 1 4 2 10.75 13.53 1.72 o
3 1 4 -1 59.69 56.13 1.97 o
3 1 4 0 146.92 158.88 3.20 o
3 1 4 1 79.43 76.32 2.22 o
3 1 4 2 0.58 0.49 1.48 <
4 1 4 -2 65.71 59.33 6.15 o
4 1 4 -1 0.07 0.74 2.21 <
4 1 4 0 1166.56 1314.55 5.45 o
4 1 4 1 5.44 4.18 1.97 o
0 2 4 -2 0.45 2.21 2.21 <
0 2 4 0 32.59 34.70 4.18 o
0 2 4 2 22.80 25.10 2.21 o
1 2 4 -2 7.78 6.64 1.48 o
1 2 4 -1 17.86 18.70 1.72 o
1 2 4 0 9.74 10.09 3.20 o
1 2 4 1 77.36 74.36 2.22 o
1 2 4 2 4.06 3.44 1.48 o
2 2 4 -2 1.12 2.46 1.72 <
2 2 4 -1 7.06 9.10 1.72 o
2 2 4 0 123.98 99.01 2.96 o
2 2 4 1 7.47 7.14 1.48 o
2 2 4 2 4.61 5.41 1.72 o
3 2 4 -2 4.61 4.92 1.48 o
3 2 4 -1 61.39 67.20 1.97 o
3 2 4 0 2.68 14.03 2.95 o
3 2 4 1 255.73 246.00 2.96 o
3 2 4 2 0.64 1.23 1.48 <
4 2 4 -2 1.72 2.21 3.20 <
4 2 4 -1 17.22 17.72 2.95 o
4 2 4 0 284.47 309.62 4.19 o
4 2 4 1 11.00 6.40 1.72 o
5 2 4 -2 1.11 3.20 2.71 <
0 3 4 -2 39.53 47.02 2.22 o
0 3 4 0 1982.92 1911.89 6.01 o
0 3 4 2 28.78 26.58 2.71 o
1 3 4 -2 0.98 0.49 1.72 <
1 3 4 -1 60.66 59.09 1.97 o
1 3 4 0 1512.03 1368.63 3.99 o
1 3 4 1 0.01 0.98 1.23 <
1 3 4 2 0.69 3.20 1.48 o
2 3 4 -2 54.35 59.82 2.22 o
2 3 4 -1 10.42 10.34 1.48 o
2 3 4 0 1099.31 1126.92 3.72 o
2 3 4 1 11.95 9.10 1.48 o
2 3 4 2 7.60 9.60 1.48 o
3 3 4 -2 1.17 0.25 1.72 <
3 3 4 -1 184.45 174.21 3.20 o
3 3 4 0 809.21 838.98 3.96 o
3 3 4 1 0.08 2.71 1.72 <
3 3 4 2 0.01 1.48 1.48 <
4 3 4 -2 50.99 50.71 3.45 o
4 3 4 -1 15.79 14.27 2.46 o
4 3 4 0 197.44 223.95 4.19 o
4 3 4 1 12.12 6.89 1.97 o
5 3 4 -2 0.77 2.71 3.44 <
0 4 4 -2 33.25 39.38 2.71 o
0 4 4 0 108.58 122.90 4.19 o
0 4 4 2 50.91 54.15 2.46 o
1 4 4 -2 3.91 3.44 1.48 o
1 4 4 -1 0.17 1.23 1.48 <
1 4 4 0 1916.41 1753.86 4.25 o
1 4 4 1 112.01 118.21 1.97 o
1 4 4 2 2.82 2.71 1.23 o
2 4 4 -2 37.72 43.81 1.97 o
2 4 4 -1 5.95 6.40 1.48 o
2 4 4 0 17.69 31.25 2.95 o
2 4 4 1 2.57 2.21 1.48 <
2 4 4 2 12.06 14.76 1.72 o
3 4 4 -2 1.57 1.72 1.97 <
3 4 4 -1 1.04 2.71 1.72 <
3 4 4 0 855.08 877.10 3.96 o
3 4 4 1 399.46 315.81 3.70 o
3 4 4 2 0.23 0.49 1.48 <
4 4 4 -2 29.76 30.27 3.45 o
4 4 4 -1 6.49 4.18 2.71 <
4 4 4 0 18.05 26.58 3.94 o
4 4 4 1 3.94 1.97 2.21 <
5 4 4 -2 0.02 0.98 2.46 <
0 5 4 -2 30.66 39.38 3.20 o
0 5 4 0 768.77 776.60 5.20 o
0 5 4 2 3.67 3.94 1.97 <
1 5 4 -2 8.56 11.32 1.72 o
1 5 4 -1 92.98 101.71 1.97 o
1 5 4 0 29.53 29.04 2.95 o
1 5 4 1 19.31 19.93 1.72 o
1 5 4 2 9.97 12.30 1.48 o
2 5 4 -2 33.97 41.60 1.72 o
2 5 4 -1 1.67 1.97 1.48 <
2 5 4 0 264.05 300.81 3.45 o
2 5 4 1 5.16 3.94 1.48 o
2 5 4 2 0.75 0.25 1.48 <
3 5 4 -2 3.92 5.66 1.97 o
3 5 4 -1 313.74 313.47 2.71 o
3 5 4 0 61.31 59.33 3.45 o
3 5 4 1 72.74 69.67 1.72 o
3 5 4 2 2.16 1.97 1.72 <
4 5 4 -2 24.60 30.76 3.94 o
4 5 4 -1 2.80 2.71 3.44 <
4 5 4 0 1.52 2.46 4.43 <
4 5 4 1 3.19 2.71 2.46 <
5 5 4 -2 0.42 3.44 3.44 <
0 6 4 -2 45.18 52.68 2.46 o
0 6 4 0 8593.88 8287.07 10.57 o
0 6 4 2 62.94 70.65 2.46 o
1 6 4 -2 0.00 -0.25 1.72 <
1 6 4 -1 17.82 18.95 1.72 o
1 6 4 0 4853.37 4584.56 6.15 o
1 6 4 1 37.49 34.21 1.72 o
1 6 4 2 0.23 1.23 1.23 <
2 6 4 -2 56.53 63.52 2.46 o
2 6 4 -1 0.70 0.00 1.48 <
2 6 4 0 6149.50 6213.94 6.70 o
2 6 4 1 3.18 2.21 1.23 <
2 6 4 2 14.72 11.07 1.72 o
3 6 4 -2 0.27 0.25 1.72 <
3 6 4 -1 65.84 60.56 1.97 o
3 6 4 0 2836.57 2997.49 5.52 o
3 6 4 1 118.31 111.06 2.22 o
3 6 4 2 0.67 -0.49 1.48 <
4 6 4 -2 47.74 44.55 3.45 o
4 6 4 -1 0.10 3.44 2.95 <
4 6 4 0 2494.43 2797.59 8.50 o
4 6 4 1 3.28 1.97 2.95 <
5 6 4 -2 0.27 4.18 3.20 <
0 7 4 -2 0.29 4.92 2.46 <
0 7 4 0 12068.50 12641.40 12.75 o
0 7 4 2 2.45 2.71 1.97 <
1 7 4 -2 4.29 2.46 1.48 <
1 7 4 -1 24.12 20.18 1.97 o
1 7 4 0 5091.31 4920.33 6.41 o
1 7 4 1 36.95 34.21 1.97 o
1 7 4 2 0.41 1.48 1.23 <
2 7 4 -2 0.02 0.98 1.97 <
2 7 4 -1 3.25 4.18 1.48 o
2 7 4 0 7777.78 8249.92 7.82 o
2 7 4 1 0.24 1.97 1.48 <
2 7 4 2 0.72 1.72 1.48 <
3 7 4 -2 1.89 0.49 1.72 <
3 7 4 -1 65.73 60.31 2.46 o
3 7 4 0 2857.13 3010.19 5.77 o
3 7 4 1 123.57 93.09 2.46 o
3 7 4 2 0.43 0.98 1.48 <
4 7 4 -2 0.75 2.21 2.21 <
4 7 4 -1 3.98 3.69 2.95 <
4 7 4 0 2433.94 2634.88 7.25 o
4 7 4 1 2.86 2.71 2.46 <
5 7 4 -2 0.11 1.48 2.46 <
0 8 4 -2 24.86 25.10 2.22 o
0 8 4 0 4054.37 3861.29 7.63 o
0 8 4 2 20.99 21.90 1.97 o
1 8 4 -2 1.95 3.69 1.48 o
1 8 4 -1 24.85 22.15 1.72 o
1 8 4 0 854.68 815.40 3.72 o
1 8 4 1 6.43 6.89 1.72 o
1 8 4 2 0.01 0.49 1.48 <
2 8 4 -2 40.57 43.57 1.72 o
2 8 4 -1 2.46 4.68 1.48 o
2 8 4 0 2840.93 2843.89 5.28 o
2 8 4 1 0.01 -0.49 1.23 <
2 8 4 2 1.65 0.74 1.48 <
3 8 4 -2 0.21 1.23 1.72 <
3 8 4 -1 74.92 73.12 3.45 o
3 8 4 0 543.39 584.36 3.95 o
3 8 4 1 18.22 11.57 2.21 o
3 8 4 2 0.21 1.97 1.48 <
4 8 4 -2 44.86 39.63 2.71 o
4 8 4 -1 8.72 9.10 2.71 o
4 8 4 0 1094.72 1262.92 6.44 o
4 8 4 1 0.87 5.41 2.95 <
0 9 4 -2 1.54 3.69 2.21 <
0 9 4 0 3776.84 3857.12 7.61 o
0 9 4 2 18.48 12.30 3.20 o
1 9 4 -2 6.89 5.41 1.48 o
1 9 4 -1 3.82 4.18 1.48 o
1 9 4 0 3294.87 3215.05 5.05 o
1 9 4 1 54.36 48.25 1.72 o
1 9 4 2 2.64 2.46 1.48 <
2 9 4 -2 1.80 0.74 1.72 <
2 9 4 -1 3.34 5.41 1.48 o
2 9 4 0 2161.14 2346.89 4.75 o
2 9 4 1 6.06 2.71 1.48 <
2 9 4 2 3.97 3.20 1.48 o
3 9 4 -2 4.22 2.21 2.71 <
3 9 4 -1 8.90 8.86 1.72 o
3 9 4 0 1712.50 1847.35 5.48 o
3 9 4 1 177.62 146.08 2.96 o
3 9 4 2 0.07 2.71 1.72 <
4 9 4 -2 1.36 0.98 3.20 <
4 9 4 -1 9.76 6.89 2.46 o
4 9 4 0 421.55 486.28 5.43 o
0 10 4 -2 39.46 40.86 2.46 o
0 10 4 0 2328.00 2351.06 6.52 o
0 10 4 2 17.87 15.01 2.21 o
1 10 4 -2 1.22 1.97 1.72 <
1 10 4 -1 33.77 31.75 1.97 o
1 10 4 0 798.38 795.52 3.71 o
1 10 4 1 1.89 1.72 1.48 <
1 10 4 2 0.02 0.00 1.48 <
2 10 4 -2 53.85 59.33 2.46 o
2 10 4 -1 6.37 7.38 1.72 o
2 10 4 0 1426.87 1526.09 4.48 o
2 10 4 1 2.75 1.48 1.48 <
2 10 4 2 4.07 0.74 1.72 <
3 10 4 -2 0.75 2.46 1.97 <
3 10 4 -1 96.12 86.18 2.22 o
3 10 4 0 341.90 376.35 4.19 o
3 10 4 1 9.26 8.12 1.72 o
3 10 4 2 0.47 0.74 1.72 <
4 10 4 -2 53.13 52.43 2.95 o
4 10 4 -1 7.53 2.71 2.71 <
4 10 4 0 359.03 402.48 5.43 o
0 11 4 -2 15.67 14.27 2.21 o
0 11 4 0 1894.01 1932.25 6.24 o
0 11 4 2 12.86 12.55 2.46 o
1 11 4 -2 1.84 1.23 1.48 <
1 11 4 -1 2.33 1.97 1.48 <
1 11 4 0 378.45 385.70 3.21 o
1 11 4 1 66.12 56.13 1.97 o
1 11 4 2 7.97 6.40 1.72 o
2 11 4 -2 20.64 17.97 1.72 o
2 11 4 -1 0.06 2.95 1.72 <
2 11 4 0 1083.75 1156.82 4.46 o
2 11 4 1 3.83 3.94 1.48 o
2 11 4 2 0.91 2.46 1.48 <
3 11 4 -2 1.50 2.71 1.97 <
3 11 4 -1 11.52 7.63 1.97 o
3 11 4 0 244.75 270.37 4.19 o
3 11 4 1 239.78 186.55 2.71 o
3 11 4 2 2.12 2.95 1.72 <
4 11 4 -2 20.36 13.53 3.69 o
4 11 4 -1 0.14 3.20 2.46 <
4 11 4 0 224.57 220.78 4.93 o
0 12 4 -2 17.28 18.46 2.46 o
0 12 4 0 412.26 478.36 4.69 o
0 12 4 2 11.89 7.87 1.97 o
1 12 4 -2 4.59 6.15 1.72 o
1 12 4 -1 54.61 49.48 1.72 o
1 12 4 0 4725.29 4801.50 6.11 o
1 12 4 1 11.74 10.34 1.48 o
1 12 4 2 1.15 1.72 1.48 <
2 12 4 -2 21.22 24.36 1.72 o
2 12 4 -1 6.95 6.64 1.72 o
2 12 4 0 184.56 247.12 3.45 o
2 12 4 1 4.14 3.20 1.72 <
2 12 4 2 5.99 2.95 1.48 <
3 12 4 -2 2.36 4.68 1.97 o
3 12 4 -1 189.16 145.85 2.96 o
3 12 4 0 2902.10 3220.57 6.77 o
3 12 4 1 44.53 29.78 2.22 o
4 12 4 -2 17.45 16.49 4.18 o
4 12 4 -1 10.22 5.17 2.71 <
0 13 4 -2 57.28 61.30 2.71 o
0 13 4 0 786.47 780.14 5.45 o
0 13 4 2 56.97 42.58 2.46 o
1 13 4 -2 1.13 2.71 1.72 <
1 13 4 -1 8.37 8.12 1.72 o
1 13 4 0 4547.31 4617.03 6.10 o
1 13 4 1 32.87 21.90 1.48 o
1 13 4 2 0.09 0.00 1.48 <
2 13 4 -2 61.77 57.85 2.22 o
2 13 4 -1 2.70 2.71 1.72 <
2 13 4 0 581.70 601.08 3.95 o
2 13 4 1 7.43 4.92 1.97 o
2 13 4 2 18.15 14.77 1.72 o
3 13 4 -2 0.15 3.94 1.97 <
3 13 4 -1 30.12 24.86 1.97 o
3 13 4 0 2869.83 3181.61 6.77 o
3 13 4 1 116.40 74.86 2.95 o
4 13 4 -2 45.90 37.90 2.71 o
4 13 4 -1 2.89 0.49 3.94 <
0 14 4 -2 2.23 6.40 2.21 o
0 14 4 0 5388.61 5921.18 9.72 o
0 14 4 2 4.89 2.71 2.46 <
1 14 4 -2 16.08 13.04 1.72 o
1 14 4 -1 25.13 21.41 1.72 o
1 14 4 0 3294.72 3429.16 5.54 o
1 14 4 1 33.12 24.37 1.97 o
1 14 4 2 6.25 3.20 1.48 o
2 14 4 -2 0.84 4.18 1.97 o
2 14 4 -1 5.63 7.14 1.72 o
2 14 4 0 3236.91 3733.20 6.54 o
2 14 4 1 1.85 -0.25 1.72 <
2 14 4 2 2.73 2.46 1.72 <
3 14 4 -2 7.48 4.43 1.97 o
3 14 4 -1 83.90 58.10 2.95 o
3 14 4 0 1953.34 2169.67 6.48 o
3 14 4 1 125.97 81.26 2.96 o
4 14 4 -2 0.04 -1.48 2.46 <
4 14 4 -1 8.76 4.43 2.46 <
0 15 4 -2 16.56 10.09 2.21 o
0 15 4 0 428.93 449.45 4.94 o
0 15 4 2 19.81 12.80 2.21 o
1 15 4 -2 3.24 7.38 1.48 o
1 15 4 -1 24.80 20.92 1.97 o
1 15 4 0 2030.60 2055.18 4.99 o
1 15 4 1 4.43 3.20 1.48 o
1 15 4 2 0.06 1.48 1.48 <
2 15 4 -2 25.27 18.46 1.97 o
2 15 4 -1 0.08 1.97 1.72 <
2 15 4 0 339.23 367.46 3.70 o
2 15 4 1 0.50 -0.74 1.72 <
2 15 4 2 3.21 0.74 1.72 <
3 15 4 -2 0.66 4.43 2.46 <
3 15 4 -1 90.61 71.89 2.71 o
3 15 4 0 1128.51 1183.39 5.95 o
4 15 4 -2 26.74 13.29 2.71 o
0 16 4 -2 0.31 0.49 1.97 <
0 16 4 0 2284.39 2538.08 7.25 o
0 16 4 2 7.67 6.15 2.21 o
1 16 4 -2 0.00 0.25 1.72 <
1 16 4 -1 1.81 0.00 1.72 <
1 16 4 0 68.62 72.13 3.20 o
1 16 4 1 22.70 12.80 1.72 o
1 16 4 2 2.55 2.95 1.72 <
2 16 4 -2 0.35 0.25 1.97 <
2 16 4 -1 0.02 -0.98 2.21 <
2 16 4 0 1398.60 1658.88 4.97 o
2 16 4 1 0.33 1.72 1.72 <
3 16 4 -2 0.00 0.00 2.46 <
3 16 4 -1 3.44 1.72 2.95 <
3 16 4 0 24.32 29.04 5.17 o
4 16 4 -2 0.20 2.21 2.46 <
0 17 4 -2 8.16 5.91 2.21 o
0 17 4 0 527.47 614.65 5.43 o
0 17 4 2 1.09 0.98 2.21 <
1 17 4 -2 2.05 2.95 1.72 <
1 17 4 -1 13.42 9.10 1.72 o
1 17 4 0 22.90 32.24 3.45 o
1 17 4 1 0.01 0.25 1.48 <
1 17 4 2 0.01 1.23 1.72 <
2 17 4 -2 16.12 9.35 2.71 o
2 17 4 -1 0.09 1.48 1.97 <
2 17 4 0 295.45 370.04 3.94 o
2 17 4 1 0.08 0.25 1.97 <
3 17 4 -2 0.38 3.20 2.71 <
3 17 4 -1 38.40 20.92 2.95 o
3 17 4 0 10.96 11.07 4.92 o
4 17 4 -2 22.78 14.52 2.95 o
0 18 4 -2 17.13 13.53 2.95 o
0 18 4 0 1978.13 2325.40 7.48 o
0 18 4 2 4.24 0.74 2.21 <
1 18 4 -2 0.01 0.25 1.72 <
1 18 4 -1 0.06 0.00 1.48 <
1 18 4 0 2150.54 2357.60 5.99 o
1 18 4 1 30.87 18.70 2.21 o
2 18 4 -2 18.53 9.60 1.97 o
2 18 4 -1 2.41 3.94 1.97 <
2 18 4 0 1339.68 1566.49 5.71 o
2 18 4 1 3.24 0.98 2.21 <
3 18 4 -2 0.09 1.72 2.71 <
3 18 4 -1 0.27 1.48 2.46 <
0 19 4 -2 19.04 16.73 2.71 o
0 19 4 0 6862.05 7998.08 12.85 o
1 19 4 -2 2.06 1.72 2.21 <
1 19 4 -1 20.54 13.29 2.46 o
1 19 4 0 602.93 655.11 4.45 o
1 19 4 1 2.98 3.20 1.72 <
2 19 4 -2 21.14 16.24 2.21 o
2 19 4 -1 7.04 2.46 2.21 <
2 19 4 0 4797.93 4968.38 11.41 o
3 19 4 -2 1.11 -0.25 3.20 <
3 19 4 -1 69.68 31.26 2.95 o
0 20 4 -2 25.02 23.87 2.95 o
0 20 4 0 707.83 750.45 6.43 o
1 20 4 -2 2.03 4.43 1.97 o
1 20 4 -1 1.35 0.98 1.72 <
1 20 4 0 793.48 843.33 5.19 o
1 20 4 1 20.91 8.86 2.21 o
2 20 4 -2 29.04 14.77 2.46 o
2 20 4 -1 2.66 3.44 2.46 <
2 20 4 0 618.58 596.29 5.43 o
3 20 4 -2 2.06 3.94 3.20 <
0 21 4 -2 0.42 0.98 2.71 <
0 21 4 0 15.28 11.32 6.40 <
1 21 4 -2 8.78 2.95 2.21 <
1 21 4 -1 17.10 12.80 2.21 o
1 21 4 0 742.49 742.14 5.69 o
2 21 4 -2 0.09 1.72 2.21 <
2 21 4 -1 0.09 0.25 2.46 <
3 21 4 -2 5.11 -0.98 3.20 <
0 22 4 -2 11.35 4.18 3.45 <
0 22 4 0 20.93 22.15 6.40 o
1 22 4 -2 15.12 12.80 2.46 o
1 22 4 -1 10.36 6.15 2.46 o
1 22 4 0 58.29 56.12 4.92 o
2 22 4 -2 15.35 4.68 2.71 <
2 22 4 -1 1.75 3.20 2.71 <
0 23 4 -2 7.00 3.20 4.43 <
1 23 4 -2 0.09 3.20 2.71 <
1 23 4 -1 1.16 1.23 2.71 <
2 23 4 -2 5.62 3.20 3.44 <
0 24 4 -2 7.83 2.21 3.94 <
1 24 4 -2 2.20 4.43 2.95 <
1 24 4 -1 10.00 8.12 5.17 <
2 24 4 -2 11.29 3.20 3.20 <
0 25 4 -2 4.42 1.97 5.17 <
1 25 4 -2 0.78 5.17 3.20 <
0 26 4 -2 1.01 2.46 4.43 <
1 -1 5 2 45.29 32.49 2.22 o
0 0 5 2 3.80 2.46 1.97 <
1 0 5 0 1316.66 1221.46 6.21 o
1 0 5 1 0.15 2.71 1.48 <
1 0 5 2 2.75 3.20 1.48 o
2 0 5 1 102.13 84.45 1.97 o
2 0 5 2 1.31 0.74 1.48 <
3 0 5 0 1267.26 1380.71 5.95 o
3 0 5 1 0.29 1.97 1.72 <
0 1 5 0 274.38 271.45 3.94 o
0 1 5 2 1.44 1.23 1.72 <
1 1 5 -2 64.17 63.02 2.95 o
1 1 5 -1 0.01 0.74 1.23 <
1 1 5 0 937.10 911.53 3.72 o
1 1 5 1 2.87 3.94 1.48 o
1 1 5 2 21.89 16.24 1.48 o
2 1 5 -1 80.98 62.04 1.72 o
2 1 5 0 225.95 241.26 3.20 o
2 1 5 1 16.01 8.12 1.48 o
2 1 5 2 0.84 0.25 1.23 <
3 1 5 -2 59.36 53.17 3.45 o
3 1 5 -1 0.00 0.49 1.48 <
3 1 5 0 744.22 809.45 3.96 o
3 1 5 1 10.63 2.95 1.72 <
4 1 5 -1 88.35 62.29 2.22 o
0 2 5 -2 5.91 5.41 1.97 o
0 2 5 0 1.47 7.87 3.69 o
0 2 5 2 1.40 0.74 1.72 <
1 2 5 -2 3.72 3.20 1.48 o
1 2 5 -1 1.24 0.98 1.23 <
1 2 5 0 7675.82 8472.08 7.26 o
1 2 5 1 0.49 0.25 1.48 <
1 2 5 2 14.32 6.64 1.48 o
2 2 5 -2 4.21 3.20 1.48 o
2 2 5 -1 7.89 5.91 1.23 o
2 2 5 0 2.92 9.35 2.95 o
2 2 5 1 125.83 100.23 1.72 o
2 2 5 2 0.18 1.72 1.48 <
3 2 5 -2 3.58 2.46 1.97 <
3 2 5 -1 4.75 4.18 1.72 o
3 2 5 0 3613.06 4063.97 7.30 o
3 2 5 1 3.32 1.48 1.72 <
4 2 5 -2 1.04 2.46 1.72 <
4 2 5 -1 4.57 2.95 1.72 <
0 3 5 -2 3.80 2.95 2.21 <
0 3 5 0 658.65 684.81 4.94 o
0 3 5 2 1.92 1.48 1.72 <
1 3 5 -2 29.43 27.81 1.72 o
1 3 5 -1 1.68 0.00 1.48 <
1 3 5 0 2040.94 2228.50 4.49 o
1 3 5 1 0.12 1.72 1.48 <
1 3 5 2 11.65 6.89 1.48 o
2 3 5 -2 2.07 3.44 1.48 o
2 3 5 -1 73.09 58.84 1.97 o
2 3 5 0 440.96 500.74 3.46 o
2 3 5 1 0.02 1.48 1.48 <
2 3 5 2 0.58 0.98 1.48 <
3 3 5 -2 34.81 30.52 1.97 o
3 3 5 -1 9.51 7.63 1.48 o
3 3 5 0 840.60 961.08 4.70 o
3 3 5 1 0.00 0.74 2.21 <
4 3 5 -2 0.18 1.72 1.72 <
4 3 5 -1 66.67 38.65 2.22 o
0 4 5 -2 2.40 1.48 1.97 <
0 4 5 0 1056.65 1047.71 6.69 o
0 4 5 2 0.37 1.72 1.72 <
1 4 5 -2 15.86 16.00 1.72 o
1 4 5 -1 0.37 2.95 1.48 <
1 4 5 0 4435.41 4916.02 6.09 o
1 4 5 1 0.51 2.21 1.23 <
1 4 5 2 17.50 12.30 1.48 o
2 4 5 -2 2.25 2.71 1.48 <
2 4 5 -1 0.40 1.23 1.48 <
2 4 5 0 781.21 833.58 3.46 o
2 4 5 1 72.03 46.03 1.72 o
2 4 5 2 0.06 1.72 1.48 <
3 4 5 -2 17.84 12.55 2.21 o
3 4 5 -1 3.92 0.98 1.72 <
3 4 5 0 2020.88 2238.11 5.73 o
4 4 5 -2 1.31 1.23 1.97 <
4 4 5 -1 1.05 2.71 4.68 <
0 5 5 -2 3.47 1.23 1.97 <
0 5 5 0 45.63 54.15 4.92 o
0 5 5 2 0.09 2.46 1.97 <
1 5 5 -2 11.02 10.34 1.48 o
1 5 5 -1 0.94 0.49 1.48 <
1 5 5 0 4325.52 4831.35 5.83 o
1 5 5 1 0.31 0.74 1.48 <
1 5 5 2 1.13 0.49 1.48 <
2 5 5 -2 2.50 1.97 1.48 <
2 5 5 -1 33.52 25.60 1.72 o
2 5 5 0 44.42 50.21 2.95 o
2 5 5 1 14.26 6.64 1.48 o
2 5 5 2 0.11 -0.98 1.48 <
3 5 5 -2 16.05 9.60 1.97 o
3 5 5 -1 4.64 3.69 1.72 o
3 5 5 0 2041.81 2403.32 5.48 o
4 5 5 -2 0.83 -0.98 1.97 <
0 6 5 -2 0.91 1.72 1.97 <
0 6 5 0 2453.08 2597.49 6.76 o
0 6 5 2 2.24 0.98 2.21 <
1 6 5 -2 25.70 24.12 1.48 o
1 6 5 -1 0.01 2.21 1.23 <
1 6 5 0 2913.08 2996.01 5.02 o
1 6 5 1 0.00 1.48 1.23 <
1 6 5 2 25.88 15.26 1.48 o
2 6 5 -2 0.61 1.97 1.48 <
2 6 5 -1 4.36 3.20 1.48 o
2 6 5 0 1819.55 2072.51 4.48 o
2 6 5 1 85.91 59.58 1.72 o
3 6 5 -2 32.54 26.58 1.97 o
3 6 5 -1 0.37 2.46 1.48 <
3 6 5 0 1819.40 1975.25 4.98 o
4 6 5 -2 0.10 1.48 2.46 <
0 7 5 -2 7.95 7.38 1.97 o
0 7 5 0 2863.42 2962.78 7.03 o
0 7 5 2 7.07 2.71 2.21 <
1 7 5 -2 3.13 4.18 1.48 o
1 7 5 -1 0.71 2.71 1.48 <
1 7 5 0 798.28 950.06 3.71 o
1 7 5 1 2.74 0.98 1.48 <
1 7 5 2 0.21 0.49 1.48 <
2 7 5 -2 5.99 5.66 1.48 o
2 7 5 -1 62.72 55.14 1.72 o
2 7 5 0 2220.71 2444.53 4.99 o
2 7 5 1 75.39 49.48 1.72 o
3 7 5 -2 3.13 1.97 1.72 <
3 7 5 -1 4.32 1.97 1.48 <
3 7 5 0 149.72 198.02 3.45 o
4 7 5 -2 2.13 2.95 2.71 <
0 8 5 -2 0.04 1.72 1.97 <
0 8 5 0 761.22 798.46 4.95 o
0 8 5 2 0.07 2.21 1.97 <
1 8 5 -2 64.60 54.65 2.22 o
1 8 5 -1 2.03 2.21 1.48 <
1 8 5 0 931.56 942.70 3.71 o
1 8 5 1 0.93 1.72 1.48 <
1 8 5 2 29.44 19.69 1.48 o
2 8 5 -2 0.03 -0.49 1.23 <
2 8 5 -1 49.57 35.69 1.72 o
2 8 5 0 668.80 736.72 3.71 o
2 8 5 1 33.60 18.46 1.48 o
3 8 5 -2 60.72 48.00 2.22 o
3 8 5 -1 8.48 4.92 1.72 o
3 8 5 0 592.21 550.26 3.95 o
4 8 5 -2 0.03 2.21 2.71 <
0 9 5 -2 3.31 2.21 1.72 <
0 9 5 0 1968.50 2089.74 6.48 o
0 9 5 2 3.23 -1.72 1.97 <
1 9 5 -2 4.13 5.41 1.72 o
1 9 5 -1 0.41 2.21 1.72 <
1 9 5 0 1047.74 1214.96 3.96 o
1 9 5 1 0.04 2.21 1.48 <
1 9 5 2 8.67 3.94 1.48 o
2 9 5 -2 2.50 5.91 1.48 o
2 9 5 -1 24.77 17.47 1.48 o
2 9 5 0 1457.58 1636.93 4.47 o
2 9 5 1 106.08 58.85 1.72 o
3 9 5 -2 3.94 3.20 1.72 <
3 9 5 -1 1.67 1.72 1.48 <
3 9 5 0 399.71 436.12 3.95 o
4 9 5 -2 0.65 1.97 2.46 <
0 10 5 -2 7.34 3.20 1.97 <
0 10 5 0 429.88 444.19 4.69 o
0 10 5 2 1.87 0.98 1.97 <
1 10 5 -2 17.94 12.80 1.72 o
1 10 5 -1 0.25 0.74 1.48 <
1 10 5 0 1002.70 1172.89 3.96 o
1 10 5 1 0.70 1.48 1.48 <
2 10 5 -2 4.13 3.20 1.48 o
2 10 5 -1 77.04 57.85 1.72 o
2 10 5 0 331.67 347.44 3.45 o
2 10 5 1 2.87 0.25 1.48 <
3 10 5 -2 21.32 12.55 2.21 o
3 10 5 -1 1.81 1.23 1.48 <
4 10 5 -2 0.60 1.23 2.46 <
0 11 5 -2 0.51 1.48 2.21 <
0 11 5 0 376.63 416.89 4.69 o
1 11 5 -2 22.98 20.92 1.48 o
1 11 5 -1 0.08 0.74 1.48 <
1 11 5 0 1028.31 1238.16 4.46 o
1 11 5 1 0.11 1.23 1.48 <
2 11 5 -2 0.55 2.21 1.23 <
2 11 5 -1 3.40 -0.25 1.48 <
2 11 5 0 321.66 357.27 3.70 o
2 11 5 1 63.34 26.58 2.46 o
3 11 5 -2 19.86 14.03 1.97 o
3 11 5 -1 0.05 0.98 1.72 <
0 12 5 -2 7.24 7.14 2.21 o
0 12 5 0 2919.98 3245.38 7.52 o
1 12 5 -2 6.81 6.40 1.48 o
1 12 5 -1 0.08 1.48 1.48 <
1 12 5 0 2760.85 3220.37 5.76 o
1 12 5 1 0.28 2.71 1.48 <
2 12 5 -2 4.55 3.44 1.48 o
2 12 5 -1 28.73 20.18 1.72 o
2 12 5 0 2231.03 2434.85 5.74 o
3 12 5 -2 10.70 7.14 1.72 o
3 12 5 -1 0.65 2.71 1.72 <
0 13 5 -2 0.05 0.74 2.21 <
0 13 5 0 2566.23 2877.57 7.51 o
1 13 5 -2 11.47 2.95 1.72 <
1 13 5 -1 0.14 0.25 1.48 <
1 13 5 0 657.45 762.07 4.20 o
1 13 5 1 0.57 3.20 1.72 <
2 13 5 -2 0.13 0.25 1.48 <
2 13 5 -1 5.60 2.71 1.48 <
2 13 5 0 1991.84 2209.22 6.23 o
3 13 5 -2 17.31 9.60 1.97 o
3 13 5 -1 1.87 0.00 1.72 <
0 14 5 -2 0.40 1.48 2.46 <
0 14 5 0 1916.80 2174.18 6.73 o
1 14 5 -2 2.46 2.71 1.48 <
1 14 5 -1 1.83 3.20 1.48 o
1 14 5 0 1276.91 1552.92 4.71 o
2 14 5 -2 0.33 2.95 1.72 <
2 14 5 -1 22.53 9.35 1.72 o
2 14 5 0 1542.67 1578.07 5.22 o
3 14 5 -2 3.23 1.23 1.97 <
0 15 5 -2 0.40 -0.74 2.71 <
0 15 5 0 1332.88 1409.77 6.20 o
1 15 5 -2 40.68 29.78 1.48 o
1 15 5 -1 0.67 1.48 1.48 <
1 15 5 0 676.56 780.63 3.95 o
2 15 5 -2 0.15 3.44 1.97 <
2 15 5 -1 14.29 5.41 1.72 o
3 15 5 -2 40.95 24.86 2.46 o
0 16 5 -2 6.24 2.71 2.46 <
0 16 5 0 5.69 8.86 4.68 <
1 16 5 -2 6.01 3.20 1.72 <
1 16 5 -1 0.06 0.74 1.48 <
1 16 5 0 497.30 600.78 3.95 o
2 16 5 -2 4.99 4.68 1.97 o
2 16 5 -1 18.33 12.30 1.72 o
3 16 5 -2 5.04 1.72 2.46 <
0 17 5 -2 5.59 1.72 1.97 <
0 17 5 0 2.15 3.94 4.43 <
1 17 5 -2 21.34 12.06 1.72 o
1 17 5 -1 0.46 0.98 1.72 <
2 17 5 -2 3.59 4.92 1.72 o
2 17 5 -1 52.19 27.57 1.97 o
0 18 5 -2 0.61 -0.49 2.46 <
1 18 5 -2 11.70 5.66 1.97 o
1 18 5 -1 0.87 0.98 1.72 <
2 18 5 -2 0.61 -0.98 1.72 <
0 19 5 -2 6.89 1.48 2.95 <
1 19 5 -2 0.82 0.00 1.72 <
1 19 5 -1 0.07 1.72 1.72 <
2 19 5 -2 4.20 2.21 1.97 <
0 20 5 -2 5.57 1.97 2.21 <
1 20 5 -2 11.08 4.18 1.97 o
2 20 5 -2 3.42 1.97 3.94 <
0 21 5 -2 0.15 5.66 3.20 <
1 21 5 -2 0.13 -0.25 1.72 <
0 22 5 -2 0.52 2.21 2.46 <
0 0 6 0 11228.20 14019.40 19.75 o
0 1 6 -2 20.48 12.80 2.95 o
0 1 6 0 1261.48 1276.08 5.95 o
1 1 6 -1 3.40 2.95 1.23 o
1 1 6 0 73.19 77.54 2.95 o
2 1 6 -2 24.55 14.52 2.21 o
2 1 6 -1 0.01 1.23 1.48 <
0 2 6 -2 0.16 1.48 1.97 <
0 2 6 0 16.03 7.87 4.18 <
1 2 6 -2 4.20 3.44 1.48 o
1 2 6 -1 3.75 3.94 1.23 o
1 2 6 0 0.64 7.38 2.95 o
2 2 6 -2 0.32 0.74 1.72 <
2 2 6 -1 3.16 2.46 1.48 <
3 2 6 -2 2.08 1.97 1.48 <
0 3 6 -2 22.81 18.70 1.97 o
0 3 6 0 390.05 448.43 4.69 o
1 3 6 -2 0.28 0.98 1.48 <
1 3 6 -1 11.21 4.18 1.48 o
1 3 6 0 309.64 314.58 3.20 o
2 3 6 -2 24.82 17.72 1.48 o
2 3 6 -1 3.04 2.21 1.48 <
3 3 6 -2 0.27 0.98 1.48 <
0 4 6 -2 15.93 14.77 1.97 o
0 4 6 0 10.22 23.62 3.94 o
1 4 6 -2 2.87 1.72 1.48 <
1 4 6 -1 0.12 1.23 1.48 <
1 4 6 0 311.07 324.94 3.45 o
2 4 6 -2 15.95 11.57 1.48 o
2 4 6 -1 1.07 1.48 1.48 <
3 4 6 -2 1.01 1.72 1.48 <
0 5 6 -2 16.24 9.84 2.21 o
0 5 6 0 68.64 110.28 4.18 o
1 5 6 -2 4.25 2.95 1.48 <
1 5 6 -1 18.25 10.58 1.48 o
1 5 6 0 63.57 47.75 3.20 o
2 5 6 -2 15.61 10.58 1.48 o
2 5 6 -1 0.34 0.74 1.23 <
3 5 6 -2 1.70 1.72 1.48 <
0 6 6 -2 26.99 20.18 2.46 o
0 6 6 0 2289.00 2433.71 8.24 o
1 6 6 -2 0.08 0.98 1.23 <
1 6 6 -1 4.27 1.23 1.23 <
2 6 6 -2 27.44 16.98 1.48 o
2 6 6 -1 0.00 0.49 1.48 <
3 6 6 -2 0.14 4.92 3.94 <
0 7 6 -2 0.01 0.98 2.21 <
0 7 6 0 3171.10 3092.37 10.29 o
1 7 6 -2 3.74 3.20 1.48 o
1 7 6 -1 3.90 0.98 1.48 <
2 7 6 -2 0.03 0.49 1.48 <
2 7 6 -1 0.64 1.23 1.48 <
0 8 6 -2 15.33 12.06 2.21 o
1 8 6 -2 0.91 0.98 1.23 <
1 8 6 -1 4.66 0.25 1.48 <
2 8 6 -2 18.37 12.06 1.72 o
2 8 6 -1 1.55 4.68 3.69 <
0 9 6 -2 0.75 2.71 1.72 <
1 9 6 -2 2.99 -1.48 1.23 <
1 9 6 -1 0.68 -0.25 1.48 <
2 9 6 -2 0.74 0.49 1.48 <
0 10 6 -2 19.10 14.03 1.97 o
1 10 6 -2 0.47 0.25 1.23 <
1 10 6 -1 5.48 1.72 1.48 <
2 10 6 -2 21.75 14.03 1.48 o
0 11 6 -2 8.84 4.43 1.97 o
1 11 6 -2 1.66 0.49 1.48 <
1 11 6 -1 0.73 2.71 1.48 <
2 11 6 -2 9.64 6.15 1.48 o
0 12 6 -2 11.02 3.94 1.97 <
1 12 6 -2 1.97 1.23 1.48 <
2 12 6 -2 10.99 4.92 1.48 o
0 13 6 -2 28.13 18.21 1.97 o
1 13 6 -2 0.00 2.46 1.48 <
2 13 6 -2 27.09 13.04 2.46 o
0 14 6 -2 0.24 2.21 1.97 <
1 14 6 -2 8.00 1.97 1.72 <
0 15 6 -2 12.70 1.48 1.97 <
1 15 6 -2 1.75 -0.49 1.48 <
0 16 6 -2 0.49 0.25 2.21 <
loop_
_restr_angle_atom_site_label_1
_restr_angle_site_symmetry_1
_restr_angle_atom_site_label_2
_restr_angle_site_symmetry_2
_restr_angle_atom_site_label_3
_restr_angle_site_symmetry_3
_restr_angle_target
_restr_angle_target_weight_param
? ? ? ? ? ? ? ?
loop_
_restr_distance_atom_site_label_1
_restr_distance_site_symmetry_1
_restr_distance_atom_site_label_2
_restr_distance_site_symmetry_2
_restr_distance_target
_restr_distance_target_weight_param
? ? ? ? ? ?
loop_
_restr_equal_angle_atom_site_label_1
_restr_equal_angle_site_symmetry_1
_restr_equal_angle_atom_site_label_2
_restr_equal_angle_site_symmetry_2
_restr_equal_angle_atom_site_label_3
_restr_equal_angle_site_symmetry_3
_restr_equal_angle_class_class_id
_restr_equal_angle_class_target_weight_param
? ? ? ? ? ? ? ?
loop_
_restr_equal_distance_atom_site_label_1
_restr_equal_distance_site_symmetry_1
_restr_equal_distance_atom_site_label_2
_restr_equal_distance_site_symmetry_2
_restr_equal_distance_class_class_id
_restr_equal_distance_class_target_weight_param
? ? ? ? ? ?
loop_
_restr_equal_torsion_atom_site_label_1
_restr_equal_torsion_site_symmetry_1
_restr_equal_torsion_atom_site_label_2
_restr_equal_torsion_site_symmetry_2
_restr_equal_torsion_atom_site_label_3
_restr_equal_torsion_site_symmetry_3
_restr_equal_torsion_atom_site_label_4
_restr_equal_torsion_site_symmetry_4
_restr_equal_torsion_class_class_id
_restr_equal_torsion_class_target_weight_param
? ? ? ? ? ? ? ? ? ?
loop_
_restr_torsion_atom_site_label_1
_restr_torsion_site_symmetry_1
_restr_torsion_atom_site_label_2
_restr_torsion_site_symmetry_2
_restr_torsion_atom_site_label_3
_restr_torsion_site_symmetry_3
_restr_torsion_atom_site_label_4
_restr_torsion_site_symmetry_4
_restr_torsion_angle_target
_restr_torsion_weight_param
? ? ? ? ? ? ? ? ? ?
loop_
_twin_individual_id
_twin_individual_mass_fraction_refined
_twin_individual_twin_matrix_11
_twin_individual_twin_matrix_12
_twin_individual_twin_matrix_13
_twin_individual_twin_matrix_21
_twin_individual_twin_matrix_22
_twin_individual_twin_matrix_23
_twin_individual_twin_matrix_31
_twin_individual_twin_matrix_32
_twin_individual_twin_matrix_33
? ? ? ? ? ? ? ? ? ? ?
loop_
_twin_refln_datum_id
_twin_refln_individual_id
_twin_refln_index_h
_twin_refln_index_k
_twin_refln_index_l
_twin_refln_index_m_1
_twin_refln_F_squared_calc
_twin_refln_F_squared_meas
_twin_refln_F_squared_sigma
_twin_refln_include_status
? ? ? ? ? ? ? ? ? ?
loop_
_jana_atom_site_adp_c_label
_jana_atom_site_adp_c_type_symbol
_jana_atom_site_adp_c_111
_jana_atom_site_adp_c_112
_jana_atom_site_adp_c_113
_jana_atom_site_adp_c_122
_jana_atom_site_adp_c_123
_jana_atom_site_adp_c_133
_jana_atom_site_adp_c_222
_jana_atom_site_adp_c_223
_jana_atom_site_adp_c_233
_jana_atom_site_adp_c_333
? ? ? ? ? ? ? ? ? ? ? ?
loop_
_jana_atom_site_adp_d_label
_jana_atom_site_adp_d_type_symbol
_jana_atom_site_adp_d_1111
_jana_atom_site_adp_d_1112
_jana_atom_site_adp_d_1113
_jana_atom_site_adp_d_1122
_jana_atom_site_adp_d_1123
_jana_atom_site_adp_d_1133
_jana_atom_site_adp_d_1222
_jana_atom_site_adp_d_1223
_jana_atom_site_adp_d_1233
_jana_atom_site_adp_d_1333
_jana_atom_site_adp_d_2222
_jana_atom_site_adp_d_2223
_jana_atom_site_adp_d_2233
_jana_atom_site_adp_d_2333
_jana_atom_site_adp_d_3333
? ? ? ? ? ? ? ? ? ? ? ? ? ? ? ? ?
loop_
_jana_atom_site_adp_e_label
_jana_atom_site_adp_e_type_symbol
_jana_atom_site_adp_e_11111
_jana_atom_site_adp_e_11112
_jana_atom_site_adp_e_11113
_jana_atom_site_adp_e_11122
_jana_atom_site_adp_e_11123
_jana_atom_site_adp_e_11133
_jana_atom_site_adp_e_11222
_jana_atom_site_adp_e_11223
_jana_atom_site_adp_e_11233
_jana_atom_site_adp_e_11333
_jana_atom_site_adp_e_12222
_jana_atom_site_adp_e_12223
_jana_atom_site_adp_e_12233
_jana_atom_site_adp_e_12333
_jana_atom_site_adp_e_13333
_jana_atom_site_adp_e_22222
_jana_atom_site_adp_e_22223
_jana_atom_site_adp_e_22233
_jana_atom_site_adp_e_22333
_jana_atom_site_adp_e_23333
_jana_atom_site_adp_e_33333
? ? ? ? ? ? ? ? ? ? ? ? ? ? ? ? ? ? ? ? ? ? ?
loop_
_jana_atom_site_adp_f_label
_jana_atom_site_adp_f_type_symbol
_jana_atom_site_adp_f_111111
_jana_atom_site_adp_f_111112
_jana_atom_site_adp_f_111113
_jana_atom_site_adp_f_111122
_jana_atom_site_adp_f_111123
_jana_atom_site_adp_f_111133
_jana_atom_site_adp_f_111222
_jana_atom_site_adp_f_111223
_jana_atom_site_adp_f_111233
_jana_atom_site_adp_f_111333
_jana_atom_site_adp_f_112222
_jana_atom_site_adp_f_112223
_jana_atom_site_adp_f_112233
_jana_atom_site_adp_f_112333
_jana_atom_site_adp_f_113333
_jana_atom_site_adp_f_122222
_jana_atom_site_adp_f_122223
_jana_atom_site_adp_f_122233
_jana_atom_site_adp_f_122333
_jana_atom_site_adp_f_123333
_jana_atom_site_adp_f_133333
_jana_atom_site_adp_f_222222
_jana_atom_site_adp_f_222223
_jana_atom_site_adp_f_222233
_jana_atom_site_adp_f_222333
_jana_atom_site_adp_f_223333
_jana_atom_site_adp_f_233333
_jana_atom_site_adp_f_333333
? ? ? ? ? ? ? ? ? ? ? ? ? ? ? ? ? ? ? ? ? ? ? ? ? ? ? ? ? ?
loop_
_jana_atom_site_crenel_ortho_func_id
_jana_atom_site_crenel_ortho_func_c
_jana_atom_site_crenel_ortho_func_w
_jana_atom_site_crenel_ortho_func_eps
? ? ? ?
loop_
_jana_atom_site_occ_fourier_absolute_site_label
_jana_atom_site_occ_fourier_absolute
? ?
loop_
_jana_atom_site_occ_legendre_atom_site_label
_jana_atom_site_occ_legendre_param_order
_jana_atom_site_occ_legendre_param_coeff
? ? ?
loop_
_jana_atom_site_occ_xharm_atom_site_label
_jana_atom_site_occ_xharm_param_order
_jana_atom_site_occ_xharm_param_coeff
? ? ?
loop_
_jana_atom_site_occ_crenel_ortho_atom_site_label
_jana_atom_site_occ_crenel_ortho_param_order
_jana_atom_site_occ_crenel_ortho_id
_jana_atom_site_occ_crenel_ortho_param_coeff
? ? ? ?
loop_
_jana_atom_site_displace_legendre_atom_site_label
_jana_atom_site_displace_legendre_axis
_jana_atom_site_displace_legendre_param_order
_jana_atom_site_displace_legendre_param_coeff
? ? ? ?
loop_
_jana_atom_site_displace_xharm_site_label
_jana_atom_site_displace_xharm_axis
_jana_atom_site_displace_xharm_param_order
_jana_atom_site_displace_xharm_param_coeff
? ? ? ?
loop_
_jana_atom_site_displace_crenel_ortho_atom_site_label
_jana_atom_site_displace_crenel_ortho_axis
_jana_atom_site_displace_crenel_ortho_id
_jana_atom_site_displace_crenel_ortho_param_order
_jana_atom_site_displace_crenel_ortho_param_coeff
? ? ? ? ?
loop_
_jana_atom_site_u_legendre_atom_site_label
_jana_atom_site_u_legendre_tens_elem
_jana_atom_site_u_legendre_param_order
_jana_atom_site_u_legendre_param_coeff
? ? ? ?
loop_
_jana_atom_site_u_xharm_atom_site_label
_jana_atom_site_u_xharm_tens_elem
_jana_atom_site_u_xharm_param_order
_jana_atom_site_u_xharm_param_coeff
? ? ? ?
loop_
_jana_atom_site_u_crenel_ortho_atom_site_label
_jana_atom_site_u_crenel_ortho_tens_elem
_jana_atom_site_u_crenel_ortho_id
_jana_atom_site_u_crenel_ortho_param_order
_jana_atom_site_u_crenel_ortho_param_coeff
? ? ? ? ?
loop_
_jana_atom_site_adp_c_fourier_atom_site_label
_jana_atom_site_adp_c_fourier_tens_elem
_jana_atom_site_adp_c_fourier_wave_vector_seq_id
_jana_atom_site_adp_c_fourier_param_cos
_jana_atom_site_adp_c_fourier_param_sin
? ? ? ? ?
loop_
_jana_atom_site_adp_d_fourier_atom_site_label
_jana_atom_site_adp_d_fourier_tens_elem
_jana_atom_site_adp_d_fourier_wave_vector_seq_id
_jana_atom_site_adp_d_fourier_param_cos
_jana_atom_site_adp_d_fourier_param_sin
? ? ? ? ?
loop_
_jana_atom_site_adp_e_fourier_atom_site_label
_jana_atom_site_adp_e_fourier_tens_elem
_jana_atom_site_adp_e_fourier_wave_vector_seq_id
_jana_atom_site_adp_e_fourier_param_cos
_jana_atom_site_adp_e_fourier_param_sin
? ? ? ? ?
loop_
_jana_atom_site_adp_f_fourier_atom_site_label
_jana_atom_site_adp_f_fourier_tens_elem
_jana_atom_site_adp_f_fourier_wave_vector_seq_id
_jana_atom_site_adp_f_fourier_param_cos
_jana_atom_site_adp_f_fourier_param_sin
? ? ? ? ?
