#------------------------------------------------------------------------------
#$Date: 2020-11-19 01:20:30 +0200 (Thu, 19 Nov 2020) $
#$Revision: 259173 $
#$URL: file:///home/coder/svn-repositories/cod/cif/4/00/37/4003706.cif $
#------------------------------------------------------------------------------
#
# This file is available in the Crystallography Open Database (COD),
# http://www.crystallography.net/
#
# All data on this site have been placed in the public domain by the
# contributors.
#
data_4003706
loop_
_publ_author_name
'Hodges, James M.'
'Xia, Yi'
'Malliakas, Christos D.'
'Slade, Tyler J.'
'Wolverton, Chris'
'Kanatzidis, Mercouri G.'
_publ_section_title
;
 Mixed-Valent Copper Chalcogenides: Tuning Structures and Electronic
 Properties Using Multiple Anions
;
_journal_name_full               'Chemistry of Materials'
_journal_paper_doi               10.1021/acs.chemmater.0c03620
_journal_year                    2020
_chemical_formula_moiety         '2(Cu2.12 Rb0.5 S Te0.5)'
_chemical_formula_sum            'Cu4.23 Rb S2 Te'
_chemical_formula_weight         545.96
_space_group_crystal_system      tetragonal
_space_group_IT_number           123
_space_group_name_Hall           '-P 4 2'
_space_group_name_H-M_alt        'P 4/m m m'
_audit_creation_date             2019-06-09
_audit_creation_method
;
Olex2 1.2
(compiled 2018.05.29 svn.r3508 for OlexSys, GUI svn.r5506)
;
_cell_angle_alpha                90
_cell_angle_beta                 90
_cell_angle_gamma                90
_cell_formula_units_Z            1
_cell_length_a                   3.9063(2)
_cell_length_b                   3.9063(2)
_cell_length_c                   10.4360(9)
_cell_measurement_reflns_used    2155
_cell_measurement_temperature    299(2)
_cell_measurement_theta_max      40.042
_cell_measurement_theta_min      3.905
_cell_volume                     159.245(18)
_computing_cell_refinement       'SAINT V8.34A (Bruker, 2017)'
_computing_data_collection       'APEX2 V2017.3 (Bruker, 2017)'
_computing_data_reduction        'Bruker SAINT'
_computing_molecular_graphics    'Olex2 (Dolomanov et al., 2009)'
_computing_publication_material  'Olex2 (Dolomanov et al., 2009)'
_computing_structure_refinement  'XL (Sheldrick, 2008)'
_diffrn_ambient_temperature      299.19
_diffrn_detector_area_resol_mean 8
_diffrn_measured_fraction_theta_full 0.992
_diffrn_measured_fraction_theta_max 0.963
_diffrn_measurement_device_type  'Bruker Kappa APEX CCD area detector'
_diffrn_measurement_method       '\w and \f scans'
_diffrn_radiation_monochromator  Triumph
_diffrn_radiation_type           MoK\a
_diffrn_radiation_wavelength     0.71073
_diffrn_reflns_av_R_equivalents  0.0354
_diffrn_reflns_av_unetI/netI     0.0179
_diffrn_reflns_Laue_measured_fraction_full 0.992
_diffrn_reflns_Laue_measured_fraction_max 0.963
_diffrn_reflns_limit_h_max       7
_diffrn_reflns_limit_h_min       -6
_diffrn_reflns_limit_k_max       7
_diffrn_reflns_limit_k_min       -7
_diffrn_reflns_limit_l_max       18
_diffrn_reflns_limit_l_min       -18
_diffrn_reflns_number            4060
_diffrn_reflns_point_group_measured_fraction_full 0.992
_diffrn_reflns_point_group_measured_fraction_max 0.963
_diffrn_reflns_theta_full        25.242
_diffrn_reflns_theta_max         41.163
_diffrn_reflns_theta_min         1.951
_diffrn_source                   'sealed tube'
_exptl_absorpt_coefficient_mu    26.522
_exptl_absorpt_correction_T_max  0.7481
_exptl_absorpt_correction_T_min  0.4620
_exptl_absorpt_correction_type   multi-scan
_exptl_absorpt_process_details
'SADABS-2016/2 (Bruker,2016/2) was used for absorption correction. wR2(int) was 0.0951 before and 0.0471 after correction. The Ratio of minimum to maximum transmission is 0.6176. The \l/2 correction factor is Not present.'
_exptl_crystal_colour            black
_exptl_crystal_colour_primary    black
_exptl_crystal_density_diffrn    5.693
_exptl_crystal_description       plate
_exptl_crystal_F_000             244
_exptl_crystal_size_max          0.049
_exptl_crystal_size_mid          0.014
_exptl_crystal_size_min          0.010
_refine_diff_density_max         0.795
_refine_diff_density_min         -0.894
_refine_diff_density_rms         0.153
_refine_ls_extinction_coef       0.0071(13)
_refine_ls_extinction_expression Fc^*^=kFc[1+0.001xFc^2^\l^3^/sin(2\q)]^-1/4^
_refine_ls_extinction_method     'SHELXL-2014/7 (Sheldrick 2014'
_refine_ls_goodness_of_fit_ref   1.133
_refine_ls_hydrogen_treatment    undef
_refine_ls_matrix_type           full
_refine_ls_number_parameters     16
_refine_ls_number_reflns         365
_refine_ls_number_restraints     0
_refine_ls_restrained_S_all      1.133
_refine_ls_R_factor_all          0.0211
_refine_ls_R_factor_gt           0.0173
_refine_ls_shift/su_max          0.000
_refine_ls_shift/su_mean         0.000
_refine_ls_structure_factor_coef Fsqd
_refine_ls_weighting_details
'w=1/[\s^2^(Fo^2^)+0.2668P] where P=(Fo^2^+2Fc^2^)/3'
_refine_ls_weighting_scheme      calc
_refine_ls_wR_factor_gt          0.0336
_refine_ls_wR_factor_ref         0.0343
_reflns_Friedel_coverage         0.000
_reflns_number_gt                333
_reflns_number_total             365
_reflns_threshold_expression     'I > 2\s(I)'
_cod_data_source_file            cm0c03620_si_004.cif
_cod_data_source_block           rbcu4tes2_2
_cod_original_cell_volume        159.24(2)
_cod_database_code               4003706
_shelx_shelxl_version_number     2014/7
_shelx_space_group_comment
;
The symmetry employed for this shelxl refinement is uniquely defined
by the following loop, which should always be used as a source of
symmetry information in preference to the above space-group names.
They are only intended as comments.
;
_olex2_refinement_description
;
;
_shelx_res_file
;
    rbcu4tes2_2.res created by SHELXL-2014/7

TITL p4mmm_a.res in P4/mmm
REM Old TITL p4mmm in P4/mmm
REM SHELXT solution in P4/mmm
REM R1 0.062, Rweak 0.004, Alpha 0.032, Orientation as input
REM Formula found by SHELXT: S3 Cu4 Rb Te
CELL 0.71073 3.9063 3.9063 10.436 90 90 90
ZERR 1 0.0002 0.0002 0.0009 0 0 0
LATT 1
SYMM -X,-Y,+Z
SYMM -Y,+X,+Z
SYMM +Y,-X,+Z
SYMM -X,+Y,-Z
SYMM +X,-Y,-Z
SYMM +Y,+X,-Z
SYMM -Y,-X,-Z
SFAC Cu Rb S Te
UNIT 4.23 1 2 1

L.S. 4
PLAN  20
TEMP 26.04
list 4
fmap 2
acta
REM <olex2.extras>
REM <HklSrc "%.\\RbCu4TeS2_2.hkl">
REM </olex2.extras>

WGHT    0.000000    0.266800
EXTI    0.007060
FVAR       0.62339
CU1   1    1.000000    0.000000    1.000000     0.01450    0.02239    0.02239 =
         0.01930    0.00000    0.00000    0.00000
CU2   1    0.500000    0.000000    0.812979    10.25000    0.01292    0.02400 =
         0.02430    0.00000    0.00000    0.00000
RB1   2   -0.500000   -0.500000    0.500000    10.06250    0.01865    0.01865 =
         0.01724    0.00000    0.00000    0.00000
S1    3    0.000000    0.000000    0.695576    10.12500    0.01183    0.01183 =
         0.01315    0.00000    0.00000    0.00000
TE1   4    1.500000    0.500000    1.000000    10.06250    0.01673    0.01673 =
         0.01003    0.00000    0.00000    0.00000
HKLF 4

REM  p4mmm_a.res in P4/mmm
REM R1 =  0.0173 for     333 Fo > 4sig(Fo)  and  0.0211 for all     365 data
REM     16 parameters refined using      0 restraints

END

WGHT      0.0000      0.2668

REM Highest difference peak  0.795,  deepest hole -0.894,  1-sigma level  0.153
Q1    1   0.5000 -0.1187  0.7839  10.50000  0.05    0.80
Q2    1   1.5000  0.5000  1.1609  10.12500  0.05    0.74
Q3    1   1.5000  0.4278  1.0969  10.50000  0.05    0.63
Q4    1   1.5000  0.3002  1.0507  10.50000  0.05    0.62
Q5    1   1.5000  0.2075  1.0000  10.25000  0.05    0.57
Q6    1   0.5913  0.0000  0.8295  10.50000  0.05    0.56
Q7    1   0.5000  0.0000  0.7579  10.25000  0.05    0.56
Q8    1   1.5000  0.5000  1.0336  10.12500  0.05    0.56
Q9    1   0.0000  0.0000  0.6196  10.12500  0.05    0.56
Q10   1   0.0000  0.0000  0.7295  10.12500  0.05    0.55
Q11   1   1.3803  0.3803  1.0000  10.25000  0.05    0.52
Q12   1   0.5000  0.0000  0.8932  10.25000  0.05    0.51
Q13   1   0.0000 -0.1680  0.7569  10.50000  0.05    0.51
Q14   1   0.0000 -0.0858  0.6892  10.50000  0.05    0.50
Q15   1   0.5000 -0.1806  0.8728  10.50000  0.05    0.39
Q16   1  -0.5000 -0.6126  0.5000  10.25000  0.05    0.37
Q17   1  -1.0000 -0.6085  0.5000  10.25000  0.05    0.36
Q18   1   0.0000 -0.2566  0.7066  10.50000  0.05    0.32
Q19   1  -0.1672 -0.1672  0.6426  10.50000  0.05    0.32
Q20   1   0.5000 -0.1282  0.7139  10.50000  0.05    0.32
;
_shelx_res_checksum              58999
_shelx_hkl_file
;
   1   1   0    6.40    0.80
  -1   1   0    5.20    0.70
   1  -1   0    6.20    0.70
  -1   1   0    5.30    0.80
   1  -2   0  381.76   14.60
   2   1   0  373.36   14.80
  -1   2   0  358.96   14.80
  -1   2   0  384.76   14.60
   1  -2   0  393.76   14.90
   0   2   0 9769.52  338.37
   0   2   0 9999.00  338.17
   2   0   0 8829.22  337.37
   0  -2   0 8619.74  338.77
   2   0   0 9371.06  338.87
   2   0   0 9096.19  337.77
  -2   0   0 8791.92  338.07
   0   2   0 8703.13  338.17
   2  -1   0  367.46   14.90
   1   2   0  410.26   15.00
  -2   1   0  374.76   14.70
  -2   1   0  383.56   14.90
   1   2   0  381.86   14.70
   2  -2   0 6027.90  212.58
   2   2   0 5989.90  212.98
  -2   2   0 5392.96  212.48
   2  -2   0 5767.32  212.78
   2   2   0 5179.88  212.18
  -2   2   0 6195.08  212.78
   2  -2   0 5726.23  212.88
   3   2   0  207.68    9.20
  -2   3   0  209.08    9.30
  -2   3   0  199.88    8.80
   2  -3   0  205.98    8.90
   2  -3   0  207.68    9.10
   2  -3   0  207.58    9.20
   1  -3   0   11.00    1.80
   3   1   0    9.50    1.80
  -1   3   0   12.00    1.80
  -1   3   0   11.50    1.90
  -1   3   0   10.90    1.50
   3   0   0  345.37   14.20
   0   3   0  364.06   14.40
   0  -3   0  387.36   14.50
   3   0   0  340.27   13.80
   0   3   0  358.86   14.10
   3   0   0  363.66   14.30
  -3   0   0  340.77   14.00
   0   3   0  339.17   13.70
   3  -1   0    9.20    1.30
   1   3   0   10.30    1.80
  -3   1   0    9.00    1.50
   3  -1   0    8.20    1.50
   1   3   0    9.40    1.50
  -1  -3   0    8.00    1.50
  -3   1   0    9.90    1.40
   2   3   0  185.28    8.80
  -2  -3   0  187.88    8.60
   3  -2   0  193.68    8.50
   2   3   0  192.68    8.30
  -3   2   0  203.18    8.40
  -3   2   0  206.18    8.70
   3  -2   0  198.68    8.80
   3   3   0   16.10    2.70
   3   3   0   16.60    2.00
  -3   3   0   20.40    2.70
   3  -3   0   18.30    2.20
   3  -3   0   22.90    3.00
   3  -3   0   20.20    2.50
  -3   3   0   21.20    2.50
  -3   4   0   52.59    4.90
   3  -4   0   48.00    4.30
  -3   4   0   53.49    4.50
   4   3   0   52.99    5.20
   3  -4   0   47.90    4.60
  -2   4   0 1898.01   70.99
  -2   4   0 1933.51   70.19
   2  -4   0 1863.51   70.89
   2  -4   0 1812.72   70.49
   4   2   0 1842.22   70.89
  -4  -1   0   78.59    4.70
  -1   4   0   74.79    5.00
  -1   4   0   78.99    4.90
  -1   4   0   67.59    4.10
   4   1   0   75.99    4.90
   4   1   0   69.69    3.80
   1  -4   0   64.89    4.80
   1  -4   0   73.29    4.30
   4   0   0 2596.04   96.49
  -4   0   0 2658.03   96.79
   0   4   0 2637.44   97.09
   0   4   0 2560.94   96.99
   0  -4   0 2454.45   97.39
   4   0   0 2578.84   97.09
   4   0   0 2704.93   97.19
   0   4   0 2540.95   97.19
   4  -1   0   74.39    4.30
  -4   1   0   67.39    4.00
  -4   1   0   70.39    4.40
   1   4   0   72.59    4.50
   4  -1   0   71.89    4.90
   1   4   0   68.79    4.50
  -1  -4   0   71.29    4.80
  -4   2   0 1894.81   67.09
   4  -2   0 1817.62   67.29
  -4   2   0 1719.03   66.59
  -2  -4   0 1629.64   67.19
   2   4   0 1767.02   67.29
   2   4   0 1812.62   66.89
  -4   3   0   47.30    4.10
   3   4   0   50.49    3.90
  -3  -4   0   44.30    4.50
   4  -3   0   53.59    5.10
   3   4   0   46.50    4.60
  -4   3   0   44.90    4.50
  -4   4   0  694.43   28.30
   4   4   0  689.03   27.30
   4   4   0  643.04   28.30
  -4   4   0  725.23   27.60
  -4   5   0   23.60    4.00
  -4   5   0   30.70    4.70
   5   4   0   21.60    4.80
  -3   5   0   12.00    3.10
   3  -5   0   14.80    3.50
  -3   5   0   13.60    3.80
   5   3   0    8.20    4.10
   3  -5   0   13.40    2.90
   2  -5   0   68.39    6.10
   2  -5   0   73.89    5.50
  -2   5   0   86.69    6.30
  -2   5   0   73.29    5.30
   5   2   0   62.29    6.20
   1  -5   0   17.60    2.60
   5   1   0   16.20    3.40
   1  -5   0   13.00    3.00
  -1   5   0   17.60    3.30
   0  -5   0  112.49    7.10
   5   0   0   99.49    6.80
   0   5   0  119.09    6.60
   0   5   0  108.39    6.70
   0   5   0  116.59    6.90
   5   0   0  103.09    5.90
  -1  -5   0   14.90    3.10
   1   5   0   12.30    2.80
   5  -1   0   16.20    3.60
   1   5   0   17.30    2.80
   5  -1   0   13.20    2.70
  -5   1   0   10.40    2.50
  -5   2   0   70.99    5.30
   2   5   0   66.99    5.20
   5  -2   0   62.69    5.80
   5  -2   0   66.39    5.90
  -5   2   0   68.09    5.00
  -2  -5   0   74.79    6.10
   2   5   0   65.79    5.60
  -5   3   0   12.80    3.10
  -5   3   0   12.80    3.20
   3   5   0   16.90    3.80
   3   5   0   11.10    2.80
   5  -3   0    9.40    3.70
  -3  -5   0   11.80    3.30
   5  -4   0   21.80    4.70
  -5   4   0   20.30    4.20
  -5   4   0   19.30    3.90
   4   5   0   24.10    3.60
   4   5   0   24.50    4.70
   6   3   0    6.00    5.10
   3  -6   0    1.60    3.60
   6   2   0  415.36   19.60
  -2   6   0  415.46   19.30
   2  -6   0  420.36   18.60
   2  -6   0  450.35   19.80
  -1   6   0    6.60    2.90
   1  -6   0    7.50    3.70
   1  -6   0    5.30    2.50
  -1   6   0   11.90    3.70
   0  -6   0  558.44   22.80
   6   0   0  554.14   22.60
   0   6   0  540.75   23.10
   0  -6   0  559.84   24.10
   0   6   0  573.64   23.90
   6  -1   0    8.00    3.40
   1   6   0   10.80    3.10
  -1  -6   0    5.00    3.50
   1   6   0    9.80    3.50
   2   6   0  410.96   19.00
   6  -2   0  426.76   19.00
  -2  -6   0  444.16   19.70
   2   6   0  422.86   18.70
  -3  -6   0    7.50    4.20
   3   6   0    7.20    3.10
   6  -3   0    3.90    4.40
   1  -7   0    8.80    4.20
   0  -7   0   27.10    5.50
   7   0   0   26.70    4.10
   7  -1   0    4.20    4.40
  -1  -7   0   11.10    4.40
   1   7   0    0.70    3.60
   0   0  -1 1186.58   43.10
   0   0   1 1151.08   43.10
   0   1  -1  111.69    4.50
   1   0   1  117.19    4.70
  -1   1  -1  247.88    9.80
  -1   1  -1  251.17    9.90
   1   1  -1  263.77    9.90
   1  -1  -1  261.27    9.80
   1   1   1  248.78    9.90
   1  -1   1  261.67    9.70
  -1   1   1  247.78    9.80
   1  -2  -1   50.69    2.60
  -1   2  -1   48.80    2.70
   2   1  -1   47.60    2.50
   1  -2  -1   49.99    2.90
   2   1  -1   56.69    2.80
  -1   2  -1   51.79    2.90
  -1   2   1   50.19    2.60
  -1   2   1   51.79    2.90
   2   1   1   52.69    2.80
   1  -2   1   50.29    2.90
   0  -2  -1  579.54   22.30
   2   0  -1  552.84   22.00
   0   2  -1  579.24   22.10
   2   0  -1  597.94   22.00
   0   2  -1  585.84   21.90
   2   0  -1  580.44   21.90
   0   2  -1  608.04   22.30
  -2   0  -1  569.94   21.90
   2   0   1  631.14   22.20
   0  -2   1  567.84   22.20
   2   0   1  570.54   22.30
   2   0   1  575.94   21.80
   0   2   1  575.74   22.10
   0   2   1  583.54   21.80
   0   2   1  556.44   22.20
   2  -1  -1   52.29    2.90
   1   2  -1   51.89    2.70
  -2   1  -1   50.59    2.60
  -1  -2  -1   54.19    2.90
   1   2  -1   50.09    3.00
   2  -1  -1   58.99    2.60
  -2   1  -1   49.40    2.70
   1   2   1   54.29    2.90
  -2   1   1   47.30    2.80
  -2   1   1   55.69    2.70
   2  -1   1   51.99    2.80
   1   2   1   53.69    2.60
   2   2  -1  318.37   13.30
  -2   2  -1  336.17   13.50
  -2   2  -1  351.36   13.70
   2   2  -1  331.77   13.80
   2  -2  -1  363.16   13.80
   2  -2  -1  330.27   13.50
   2  -2  -1  328.57   13.70
   2  -2   1  352.96   13.40
  -2   2   1  370.86   13.80
   2  -2   1  347.87   13.60
   2  -2   1  368.66   13.90
   2   2   1  337.27   13.80
  -2   2   1  341.87   13.50
   2   2   1  315.27   13.00
   3   2  -1   36.00    2.60
   2  -3  -1   35.90    3.10
   3   2  -1   34.70    3.20
  -2   3  -1   44.40    3.40
   2  -3  -1   37.90    3.30
   2  -3  -1   39.10    2.90
  -2   3  -1   33.20    2.80
   2  -3   1   33.30    2.90
   2  -3   1   39.60    3.40
  -2   3   1   33.50    2.70
   3   2   1   37.90    3.20
  -2   3   1   33.80    3.20
   2  -3   1   32.40    2.70
  -1   3  -1   74.19    4.20
   3   1  -1   78.09    4.30
   3   1  -1   79.69    3.80
   1  -3  -1   73.29    4.40
   1  -3  -1   79.49    4.00
  -1   3  -1   83.59    4.00
  -1   3  -1   74.79    4.40
  -1   3   1   69.99    3.70
  -1   3   1   69.59    4.10
  -1   3   1   78.39    4.40
   3   1   1   77.89    4.30
   1  -3   1   73.39    4.40
   0   3  -1   52.29    2.80
   3   0  -1   54.89    3.10
   3   0  -1   51.99    3.10
   0  -3  -1   50.39    3.40
  -3   0  -1   48.50    2.90
   3   0  -1   51.29    3.00
   3   0  -1   54.39    3.20
   0   3  -1   52.29    3.30
   0   3  -1   50.39    3.50
   3   0   1   61.79    3.40
   0   3   1   49.50    3.20
  -3   0   1   51.89    2.60
   3   0   1   48.60    2.80
   0  -3   1   51.39    3.40
   3   0   1   56.99    3.50
  -3   0   1   53.39    3.30
   0   3   1   49.20    3.40
   0   3   1   60.59    2.70
   0   3   1   52.69    3.20
   1   3  -1   65.89    4.10
   1   3  -1   76.39    4.00
  -3   1  -1   78.99    3.70
  -3   1  -1   77.99    3.80
   3  -1  -1   73.79    3.90
  -1  -3  -1   71.49    4.10
   3  -1  -1   73.09    4.00
  -1  -3   1   65.79    4.00
  -3   1   1   72.79    4.10
  -3   1   1   67.49    3.60
   1   3   1   72.09    4.00
   1   3   1   63.99    3.60
   3  -1   1   68.89    3.80
   2   3  -1   37.50    3.20
   2   3  -1   36.80    2.70
   3  -2  -1   32.60    3.00
   3  -2  -1   37.00    2.50
  -3   2  -1   36.60    3.00
   3  -2  -1   33.80    2.80
  -3   2  -1   37.10    3.10
  -2  -3  -1   31.20    2.80
  -3   2   1   39.00    2.90
  -3   2   1   37.10    3.30
   3  -2   1   32.20    3.10
   2   3   1   37.20    2.60
   2   3   1   38.20    3.20
   3  -3  -1   30.40    3.60
  -3   3  -1   30.90    3.40
  -3   3  -1   33.50    3.00
   3  -3  -1   33.00    3.30
   3   3  -1   32.90    3.70
   3   3  -1   32.90    2.90
   3  -3  -1   30.10    2.80
  -3   3   1   34.90    3.20
   3   3   1   31.40    2.40
   3   3   1   30.90    3.40
  -3   3   1   38.00    3.60
   3  -3   1   32.30    3.20
   3  -3   1   29.50    2.80
   3  -3   1   36.80    3.70
  -3   4  -1   12.30    2.90
   3  -4  -1   16.40    2.60
   4   3  -1   14.70    3.30
  -3   4  -1   15.10    2.80
   4   3  -1   17.60    3.00
   3  -4  -1   12.40    2.70
  -3   4   1   15.90    2.80
  -3   4   1   11.50    2.90
   4   3   1   15.30    3.30
   3  -4   1   16.80    2.90
   3  -4   1   15.30    2.60
  -2   4  -1   89.79    5.40
   4   2  -1  103.49    5.30
  -2   4  -1  103.29    6.20
   2  -4  -1   92.79    5.50
   4   2  -1  104.19    6.30
   2  -4  -1   93.69    6.00
   2  -4   1   98.79    6.00
  -2   4   1  105.79    6.00
   2  -4   1   94.59    5.50
   4   2   1   95.39    6.20
  -2   4   1   98.29    5.50
  -1   4  -1   15.00    2.10
   1  -4  -1   19.50    2.30
   4   1  -1   16.80    2.00
   4   1  -1   17.40    2.70
  -1   4  -1   19.10    2.80
  -1   4  -1   21.30    2.80
   1  -4  -1   19.00    2.70
   1  -4   1   17.60    2.60
   4   1   1   22.00    3.00
  -1   4   1   16.90    2.10
  -1   4   1   16.60    2.80
  -1   4   1   19.20    2.60
   0   4  -1  153.98    6.50
  -4   0  -1  134.59    6.80
   0   4  -1  148.49    7.30
   0  -4  -1  135.29    7.40
   0   4  -1  150.58    7.40
   4   0  -1  145.19    6.80
   4   0  -1  146.69    7.10
   4   0  -1  142.59    7.20
   4   0   1  146.09    6.60
   0  -4   1  149.69    7.50
   0   4   1  141.69    7.00
   0   4   1  148.59    7.10
   0   4   1  147.09    7.50
   4   0   1  152.98    7.50
   4   0   1  149.99    7.40
  -4   0   1  144.79    7.10
  -4   1  -1   14.60    2.00
   1   4  -1   19.70    2.50
   1   4  -1   16.30    2.50
   4  -1  -1   15.00    2.30
   4  -1  -1   15.60    2.50
  -1  -4  -1   18.90    2.60
   1   4   1   15.00    2.20
   1   4   1   14.10    2.20
   4  -1   1   10.70    2.50
   4  -1   1   12.70    2.10
  -4   1   1   16.20    1.90
  -1  -4   1   16.20    2.50
  -4   1   1   16.30    2.40
   2   4  -1  109.29    5.90
  -4   2  -1  101.49    5.40
  -4   2  -1   91.39    5.40
   2   4  -1   98.29    5.40
   4  -2  -1   91.09    5.80
  -2  -4  -1  106.59    5.90
   2   4   1   95.89    5.90
  -4   2   1   94.59    5.80
  -4   2   1   84.39    5.20
  -2  -4   1   99.69    6.00
   2   4   1   96.09    5.30
   4  -2   1   85.59    5.70
   3   4  -1   17.00    2.70
  -4   3  -1   14.80    2.70
  -3  -4  -1   16.80    3.30
   3   4  -1   14.90    3.20
   4  -3  -1   15.70    3.30
  -4   3  -1   12.10    2.80
   3   4   1   13.00    2.80
  -4   3   1   12.30    2.90
  -4   3   1   14.60    2.80
  -3  -4   1   13.00    2.70
   4  -3   1   18.00    3.30
   3   4   1   12.80    2.10
   4   4  -1   47.00    5.60
  -4   4  -1   37.10    4.60
  -4   4  -1   40.20    4.20
   4   4  -1   44.00    4.50
   4   4   1   36.90    4.80
  -4   4   1   39.30    4.60
   4  -4   1   52.19    5.80
  -4   4   1   42.50    4.40
   5   4  -1    8.10    4.50
  -4   5  -1   11.40    3.80
  -4   5  -1   12.60    4.00
  -4   5   1   10.00    4.00
  -4   5   1    7.90    3.80
   5   4   1    7.30    4.40
   3  -5  -1   10.70    3.50
  -3   5  -1    8.00    3.00
   5   3  -1   10.80    4.20
   3  -5  -1    8.20    2.60
  -3   5  -1    7.70    3.40
   3  -5   1    6.30    2.90
  -3   5   1    6.40    2.90
   3  -5   1    5.30    2.80
  -3   5   1    6.10    3.10
   5   3   1    7.20    3.70
   2  -5  -1   18.80    3.00
  -2   5  -1   16.20    3.50
  -2   5  -1   23.10    3.20
   2  -5  -1   19.00    3.70
   5   2  -1   23.60    4.10
  -2   5   1   19.40    3.70
   5   2   1   16.90    4.10
  -2   5   1   24.80    3.20
   2  -5   1   19.60    3.50
   2  -5   1   21.50    3.20
  -1   5  -1   19.30    3.60
   5   1  -1   11.00    3.10
   1  -5  -1   15.10    3.10
  -1   5  -1   11.50    2.90
   1  -5  -1   16.90    2.60
   5   1  -1   20.40    2.60
  -5  -1   1   16.90    4.50
  -1   5   1   14.70    3.20
  -1   5   1   18.90    4.40
   1  -5   1   18.80    3.30
   5   1   1   16.40    3.50
   1  -5   1   19.60    2.70
  -1   5   1   19.80    2.90
   0  -5  -1   31.30    3.90
   0   5  -1   23.50    3.30
   0   5  -1   27.40    3.60
   5   0  -1   21.30    3.00
   5   0   1   25.90    3.50
  -5   0   1   27.70    3.50
   0  -5   1   24.90    3.70
   0   5   1   27.50    3.20
   5   0   1   27.70    4.20
   0   5   1   30.10    3.70
   5   0   1   24.60    2.90
   0   5   1   32.50    3.80
   5  -1  -1   19.60    3.00
   1   5  -1   16.80    3.20
   1   5  -1   18.40    3.10
  -1  -5  -1   12.50    3.00
   1   5   1   19.00    3.10
  -5   1   1   15.70    2.80
   5  -1   1   13.20    2.80
  -1  -5   1   14.90    3.20
   1   5   1   20.00    2.90
   5  -1   1   15.30    3.10
   5  -2  -1   25.90    4.00
   2   5  -1   19.20    3.50
  -5   2  -1   19.60    2.90
  -5   2  -1   16.20    3.00
  -2  -5  -1   27.20    4.00
   2   5  -1   20.10    3.20
   5  -2   1   15.30    3.70
   2   5   1   24.20    3.60
   2   5   1   15.90    3.00
   5  -2   1   18.90    3.50
  -2  -5   1   19.80    3.60
  -5   2   1   16.40    3.10
  -5   2   1   22.40    3.00
   5  -3  -1    7.50    3.70
   3   5  -1    8.70    2.70
  -5   3  -1    9.20    2.90
   3   5  -1    7.00    3.40
  -5   3  -1    5.20    2.80
   3   5   1    8.30    3.30
   3   5   1    9.20    2.60
  -5   3   1    3.40    2.70
   5  -3   1    9.50    3.80
  -5   3   1   10.60    3.00
  -3  -5   1    7.60    3.30
   5  -4  -1    6.30    4.40
  -5   4  -1    5.70    3.20
   4   5  -1   -0.70    3.60
   4   5  -1    4.10    2.80
  -5   4  -1    7.50    3.30
   5  -4   1   13.50    4.50
   4   5   1    9.40    2.70
   4   5   1   12.70    3.90
  -5   4   1    8.40    3.70
  -5   4   1    6.40    3.50
   3  -6  -1    4.60    4.00
   6   3  -1    9.00    5.20
   3  -6   1    2.40    4.20
  -2   6  -1   29.40    4.80
   2  -6  -1   25.10    3.80
   2  -6  -1   27.80    5.10
  -2   6   1   24.50    4.60
   2  -6   1   24.30    4.60
   6   2   1   19.50    4.90
   2  -6   1   22.90    3.80
   6   1  -1    3.50    2.50
   1  -6  -1    7.60    3.50
   1  -6  -1    9.80    2.50
  -1   6  -1    5.40    2.70
  -1   6   1    5.10    3.20
   1  -6   1    9.30    3.60
   6   1   1    9.10    4.00
   1  -6   1    6.00    2.40
   6   0  -1   38.80    4.30
   0  -6  -1   33.40    4.80
   0  -6  -1   26.60    3.50
   0   6  -1   31.50    4.10
   0   6  -1   36.30    5.10
   0   6   1   39.50    4.90
   6   0   1   31.30    3.80
   0  -6   1   30.70    4.70
   0   6   1   30.20    3.80
   6  -1  -1    8.80    3.50
   1   6  -1    2.90    2.90
  -1  -6  -1   -2.50    3.20
   1   6  -1   -1.60    3.10
   6  -1   1    9.60    3.50
   1   6   1    5.80    3.40
  -1  -6   1    5.80    3.30
   1   6   1    3.90    2.70
   6  -2  -1   20.50    4.80
  -2  -6  -1   33.80    5.10
   2   6  -1   30.80    4.60
   2   6  -1   29.30    4.50
   6  -2   1   34.30    5.00
  -2  -6   1   29.50    5.10
   2   6   1   27.10    4.30
   2   6   1   28.40    4.30
  -6   2   1   21.10    4.10
   6  -3  -1   -1.50    4.00
   3   6  -1    1.80    2.90
  -6   3   1    9.40    3.40
  -3  -6   1    3.80    3.90
   6  -3   1    2.60    4.70
   3   6   1    4.20    2.90
   1  -7  -1    2.30    4.30
   1  -7   1   -0.60    3.80
   7   0  -1   10.50    3.70
   0  -7  -1   10.60    4.40
   0   7   1    9.80    4.40
   0  -7   1    8.60    4.10
   1   7  -1   -0.80    4.10
   7  -1  -1    5.60    4.70
  -1  -7  -1   -0.50    4.20
   7  -1   1   -2.70    4.10
   1   7   1   -3.40    3.70
  -1  -7   1    1.60    4.00
   0   0   2   65.49    2.60
   0   1  -2 2948.21  104.69
   1   0  -2 2951.80  104.59
   0   1  -2 2626.34  104.89
   0  -1  -2 2727.33  104.59
  -1   0   2 2724.03  104.59
   1   0   2 3078.59  104.79
   1   0   2 2811.02  104.89
   0   1   2 2808.22  104.59
  -1   1  -2 5298.77  184.68
  -1   1  -2 4863.61  184.68
   1  -1  -2 4839.92  184.68
   1   1  -2 4961.20  184.78
  -1   1   2 4943.21  184.68
   1   1   2 5127.59  184.78
  -1   1   2 5007.10  184.78
   2   1  -2 1491.25   56.69
   1  -2  -2 1454.95   56.59
   2   1  -2 1479.45   56.59
   1  -2  -2 1447.56   56.79
   2   1  -2 1517.45   56.69
  -1   2  -2 1545.95   56.59
  -1   2  -2 1564.24   56.79
  -1   2   2 1592.44   56.49
  -1   2   2 1623.64   56.79
   1  -2   2 1484.85   56.79
   2   1   2 1494.55   56.79
   0  -2  -2   20.20    1.70
   2   0  -2   15.60    1.40
   2   0  -2   16.20    1.40
   0   2  -2   17.80    1.70
   2   0  -2   18.90    1.30
   0   2  -2   17.50    1.60
  -2   0  -2   17.30    1.20
   0   2  -2   17.60    1.40
   2   0   2   13.30    1.20
   0   2   2   17.10    1.50
   0   2   2   20.10    1.30
   0   2   2   19.20    1.70
   2   0   2   18.90    1.80
   0   2   2   19.00    1.50
  -2   0   2   14.50    1.20
   2   0   2   16.20    1.60
   2  -1  -2 1539.45   55.79
  -2   1  -2 1466.35   55.59
  -2   1  -2 1495.35   55.49
   2  -1  -2 1582.24   55.79
  -1  -2  -2 1498.35   55.69
   2  -1  -2 1378.96   55.49
   1   2  -2 1494.75   55.89
   1   2  -2 1496.85   55.69
  -2   1   2 1513.05   55.49
   1   2   2 1409.36   55.69
  -2   1   2 1550.64   55.89
   2  -1   2 1507.75   55.69
   1   2   2 1469.75   55.49
   2  -2  -2    8.70    1.40
  -2   2  -2    8.70    1.40
   2   2  -2    8.90    1.60
   2   2  -2    8.00    1.30
  -2   2  -2    7.90    1.40
   2  -2  -2    7.70    1.20
  -2  -2  -2    4.90    1.00
   2  -2  -2    8.40    1.50
   2   2   2    6.10    1.40
   2  -2   2    6.50    1.10
   2  -2   2    6.70    1.10
  -2   2   2    7.10    1.50
  -2   2   2    8.20    1.30
   2  -2   2    8.80    1.60
  -2   3  -2  656.43   25.10
   2  -3  -2  682.33   25.10
   3   2  -2  684.03   25.50
  -2   3  -2  639.34   25.30
   3   2  -2  655.63   25.10
   2  -3  -2  656.73   25.50
   3   2  -2  636.94   25.20
   2  -3  -2  637.64   26.30
   3   2   2  604.54   25.40
   2  -3   2  640.44   25.40
   2  -3   2  614.94   24.90
  -2   3   2  630.64   24.90
  -2   3   2  636.04   25.40
   2  -3   2  666.03   25.40
   1  -3  -2 1881.21   67.59
   3   1  -2 1871.01   67.29
  -1   3  -2 1800.32   67.39
  -1   3  -2 1714.33   67.49
   3   1  -2 1743.53   67.09
   1  -3  -2 1774.02   67.19
  -1   3  -2 1773.52   67.09
  -1   3   2 1709.63   67.39
  -1   3   2 1844.12   67.49
   1  -3   2 1904.61   67.69
  -1   3   2 1745.23   66.99
   3   1   2 1789.22   67.49
   0   3  -2  866.71   32.10
  -3   0  -2  766.42   32.10
   3   0  -2  833.82   32.40
   3   0  -2  835.52   32.40
   0   3  -2  824.72   32.60
   3   0  -2  853.51   32.30
   0   3  -2  870.21   32.80
   3   0  -2  889.11   32.50
   0  -3  -2  911.71   32.90
   0   3   2  834.32   32.00
   0   3   2  827.62   32.50
   3   0   2  866.81   32.70
   0  -3   2  892.81   32.80
  -3   0   2  844.52   32.60
   3   0   2  850.61   32.90
   0   3   2  852.51   32.40
  -3   0   2  825.62   32.00
   3   0   2  875.01   32.00
   0   3   2  889.21   32.70
   1   3  -2 1847.72   67.59
  -3   1  -2 1729.43   66.99
   3  -1  -2 1715.13   67.29
   3  -1  -2 1919.31   67.39
   1   3  -2 1849.61   67.29
  -3   1  -2 1793.42   66.79
  -1  -3  -2 1781.42   67.39
   1   3   2 1795.22   67.19
  -3   1   2 1779.52   66.79
   3  -1   2 1766.92   67.19
  -3   1   2 1725.53   67.29
   1   3   2 1836.72   67.09
   3  -2  -2  626.44   24.80
   3  -2  -2  591.54   24.60
   2   3  -2  617.54   24.50
  -3   2  -2  647.14   24.60
  -3   2  -2  632.04   24.40
  -2  -3  -2  627.24   24.50
   2   3  -2  643.44   24.90
  -3   2   2  668.03   24.30
   2   3   2  622.04   24.90
   3  -2   2  655.73   24.70
   2   3   2  628.34   24.00
  -3   2   2  608.54   24.70
   3  -3  -2  781.32   31.10
   3  -3  -2  794.92   30.40
  -3   3  -2  763.52   30.40
   3  -3  -2  844.72   31.10
  -3   3  -2  761.72   30.80
   3   3  -2  789.02   31.20
   3   3  -2  776.02   30.50
  -3   3   2  743.33   30.70
   3  -3   2  811.22   30.90
  -3   3   2  782.62   30.40
   3   3   2  804.62   31.00
  -3   4  -2  284.87   12.70
   3  -4  -2  296.07   13.40
   3  -4  -2  289.87   12.80
  -3   4  -2  293.07   13.40
   4   3  -2  294.97   13.10
   4   3  -2  297.77   13.60
  -3   4   2  280.77   12.80
  -3   4   2  296.87   13.40
   3  -4   2  302.57   13.00
   4   3   2  277.37   13.50
  -2   4  -2    1.90    1.90
   2  -4  -2    2.90    1.70
   2  -4  -2    1.10    1.90
   4   2  -2    5.10    2.00
  -2   4  -2   -0.10    1.70
   4   2  -2    0.20    2.20
   4   2   2    0.50    2.30
  -2   4   2    2.80    1.80
   2  -4   2    2.90    1.60
   2  -4   2    1.10    1.70
  -2   4   2    3.70    2.20
   1  -4  -2  600.64   23.20
   1  -4  -2  619.84   23.80
   4   1  -2  599.64   23.00
  -1   4  -2  573.84   22.90
  -1   4  -2  603.14   23.80
   4   1  -2  583.84   23.50
  -1   4   2  593.84   23.50
  -1   4   2  577.44   22.80
   1  -4   2  574.94   23.90
   4   1   2  582.44   23.70
  -1   4   2  574.24   23.70
   4   0  -2    2.20    1.40
   4   0  -2    0.90    1.60
   0   4  -2    2.90    1.20
   0   4  -2    2.00    1.60
   0  -4  -2    3.80    1.80
   0   4  -2    4.20    1.80
   0   4   2    4.50    1.60
   0   4   2    1.50    1.60
   4   0   2    1.70    1.70
  -4   0   2    2.40    1.70
   4   0   2    1.50    1.90
   4   0   2    0.00    1.20
   0  -4   2    3.10    1.70
   0   4   2    3.00    1.90
  -4   1  -2  533.75   22.40
   1   4  -2  577.64   23.10
   4  -1  -2  581.04   22.90
   4  -1  -2  547.75   22.70
   1   4  -2  608.74   22.90
  -1  -4  -2  559.54   23.00
   1   4   2  600.14   22.50
  -1  -4   2  587.34   23.10
   4  -1   2  536.55   22.50
   4  -1   2  579.44   23.30
  -4   1   2  592.94   22.90
   1   4   2  574.24   22.60
  -4   1   2  554.64   22.10
  -2  -4  -2    3.10    2.00
   2   4  -2    4.80    2.10
   4  -2  -2   -1.50    1.80
  -4   2  -2    0.90    1.60
   2   4  -2   -0.20    1.60
  -4   2  -2    2.20    1.80
  -4   2   2    0.60    1.70
  -2  -4   2    2.50    1.90
  -4   2   2    0.40    1.90
   2   4   2   -1.10    1.70
   4  -2   2   -1.40    1.70
   2   4   2    0.10    1.50
   3   4  -2  269.07   13.30
  -4   3  -2  304.47   12.70
   3   4  -2  292.27   12.70
   4  -3  -2  284.17   13.50
  -4   3  -2  297.87   13.00
   4  -3   2  296.67   13.20
   3   4   2  267.77   11.90
  -4   3   2  300.77   13.10
  -4   3   2  297.77   12.70
  -3  -4   2  280.97   13.10
   3   4   2  266.17   13.00
   4   4  -2    1.40    2.90
   4   4  -2   -0.20    3.20
  -4   4  -2   -1.40    2.50
   4   4  -2    0.80    2.50
  -4   4  -2    0.70    2.60
   4  -4   2   -4.40    3.40
  -4   4   2    1.60    2.90
  -4   4   2    2.20    2.50
   4   4   2    1.60    3.00
  -4   5  -2   92.29    7.60
   5   4  -2   84.69    8.10
   5   4   2   82.79    8.00
  -4   5   2   90.69    7.80
  -4   5   2   97.89    9.90
   5   3  -2  211.98   10.30
  -3   5  -2  227.68   11.70
   5   3  -2  196.48   11.70
   3  -5  -2  218.38   10.90
   3  -5  -2  222.68   11.80
  -3   5  -2  231.08   10.80
  -3   5   2  218.68   11.60
   5   3   2  217.18   11.90
  -3   5   2  229.18   10.70
   5   2  -2  154.18    9.50
  -2   5  -2  175.98    8.60
   2  -5  -2  156.98    8.70
   5   2  -2  173.78    8.30
   2  -5  -2  169.98    9.80
  -2   5  -2  192.18    9.70
  -2   5   2  170.88    9.60
   5   2   2  140.49    9.50
   2  -5   2  177.68    9.70
   2  -5   2  179.78    9.00
  -2   5   2  180.58    8.40
  -1   5  -2  420.46   16.70
   1  -5  -2  415.76   17.90
   1  -5  -2  396.66   17.10
   5   1  -2  415.56   18.70
  -1   5  -2  415.86   17.80
   5   1  -2  423.06   16.80
  -1   5   2  426.76   17.70
   5   1   2  364.66   17.70
  -5  -1   2  415.76   17.80
  -1   5   2  413.06   17.80
   1  -5   2  402.36   18.00
   0  -5  -2  221.38    9.70
   5   0  -2  215.78   10.00
   0   5  -2  221.48   10.50
   0  -5  -2  202.78   10.60
   0   5  -2  211.68   10.50
   0   5   2  231.48   10.70
   0   5   2  206.58    9.70
   5   0   2  209.88   10.50
   5   0   2  203.18   10.80
   5   0   2  202.38    9.30
   0  -5   2  200.78   10.60
  -5   0   2  211.68   10.30
   0   5   2  205.58   10.20
   1   5  -2  401.66   17.50
  -1  -5  -2  434.06   17.90
   1   5  -2  441.36   17.60
   5  -1  -2  398.06   17.30
   1   5   2  414.76   17.10
  -5   1   2  408.76   17.40
  -1  -5   2  399.86   17.70
   5  -1   2  376.26   17.70
   5  -1   2  370.16   16.70
   1   5   2  415.26   17.30
  -2  -5  -2  173.58    9.20
   2   5  -2  175.18    9.00
   5  -2  -2  160.38    9.10
   2   5  -2  153.88    8.60
   5  -2   2  152.98    8.50
  -2  -5   2  156.58    9.30
  -5   2   2  161.18    8.20
   2   5   2  154.08    8.30
   2   5   2  158.98    8.80
  -5   2   2  151.48    8.70
   5  -2   2  160.88    9.40
   5  -3  -2  209.88   11.60
  -5   3  -2  206.38   10.80
   3   5  -2  219.48   10.70
  -5   3  -2  209.28   10.50
   3   5  -2  198.28   11.50
   5  -3   2  229.18   11.50
   3   5   2  211.88   11.00
  -5   3   2  193.08   10.70
  -3  -5   2  214.48   11.50
   3   5   2  203.28    9.90
  -5   3   2  223.88   10.60
   4   5  -2   79.79    7.70
  -5   4  -2   83.09    7.90
  -5   4  -2   83.59    7.00
   4   5  -2   84.29    6.70
   5  -4   2   82.99    8.40
   4   5   2   90.39    7.50
  -5   4   2   92.89    7.60
   3  -6  -2   91.89    8.30
  -2   6  -2    1.30    3.10
   2  -6  -2    2.40    2.50
   2  -6  -2    1.40    3.40
   2  -6   2   -0.70    3.30
   6   2   2   -1.40    3.70
   2  -6   2    2.00    2.50
  -2   6   2    2.70    3.50
   6   1  -2  165.48    8.70
   1  -6  -2  156.98    8.70
  -1   6  -2  180.48    9.50
   1  -6  -2  165.48   10.10
   6   1   2  147.79   10.10
   1  -6   2  163.98    9.00
   1  -6   2  158.58   10.20
  -1   6   2  165.68    9.80
   6   0  -2   -1.80    2.80
   0   6  -2    3.50    2.70
   0  -6  -2   -0.60    2.00
   0  -6  -2    1.20    3.20
   0   6  -2    1.70    3.40
   0   6   2   -0.40    2.60
   6   0   2    2.40    2.50
   0  -6   2   -0.60    3.00
   0   6   2   -6.60    2.50
   1   6  -2  177.58   10.20
   6  -1  -2  173.48    9.60
   1   6  -2  172.28    9.60
  -1  -6  -2  166.08   10.20
  -1  -6  -2  172.28    8.60
  -6   1   2  153.38    9.20
   1   6   2  175.98    9.60
   1   6   2  152.88    9.00
  -1  -6   2  166.18   10.40
   6  -1   2  156.28    9.00
   2   6  -2    0.60    3.30
   6  -2  -2   -3.80    3.90
  -2  -6  -2    1.90    3.20
   2   6  -2    0.40    3.00
  -6   2   2   -1.70    2.80
  -2  -6   2   -0.10    3.40
   6  -2   2    2.20    3.70
   2   6   2    2.30    2.80
   2   6   2   -0.70    2.80
   6  -3  -2   87.49    8.40
   3   6  -2   90.99    7.30
   3   6   2   82.59    6.40
   6  -3   2   85.19    8.50
  -3  -6   2   89.59    8.30
   1  -7  -2   85.49    8.80
   1  -7   2   81.99    7.90
   0  -7  -2   40.30    6.00
   7   0  -2   36.20    5.20
   0  -7   2   41.30    5.80
   0   7   2   41.40    5.80
   1   7  -2   89.09    9.20
  -1  -7  -2   82.79    8.40
  -1  -7   2   80.09    8.20
   1   7   2   86.19    9.10
   0   0  -3 1015.90   38.30
   0   0   3 1044.20   38.30
   1   0  -3   67.39    3.00
   0  -1  -3   64.09    2.90
   0   1  -3   64.79    3.00
  -1   0   3   66.89    2.90
   1   0   3   71.59    3.20
   1   0   3   67.29    3.10
   1   1  -3 4369.66  169.78
   1  -1  -3 4766.72  170.08
  -1   1  -3 4681.43  170.08
  -1   1  -3 4556.84  169.98
   1   1   3 4586.24  170.08
  -1   1   3 4710.03  170.18
  -1   1   3 4570.84  169.98
   1  -2  -3   16.10    1.60
   2   1  -3   20.90    1.80
   1  -2  -3   18.20    1.90
  -1   2  -3   16.00    1.60
  -1   2  -3   15.20    1.70
   2   1  -3   17.30    1.90
   1  -2   3   19.60    1.70
  -1   2   3   16.10    1.70
  -1   2   3   14.50    1.50
   2   1   3   18.30    1.80
   1  -2   3   20.50    2.00
  -1   2   3   18.40    1.80
   2   0  -3  493.45   19.50
   0  -2  -3  527.15   19.90
   2   0  -3  476.55   19.90
   0   2  -3  517.95   19.70
   2   0  -3  496.45   19.90
   0  -2  -3  525.65   19.60
   0   2  -3  536.05   19.90
   0   2   3  491.55   19.80
   0   2   3  539.05   19.50
  -2   0   3  516.45   19.50
   2   0   3  543.25   20.20
   0   2   3  546.05   19.70
   0   2   3  513.85   19.60
   2   0   3  536.55   20.00
   2   0   3  490.75   19.40
   2  -1  -3   14.60    1.60
  -2   1  -3   17.70    1.50
  -1  -2  -3   15.50    1.60
   2  -1  -3   16.90    1.80
  -2   1  -3   16.60    1.50
   1   2  -3   14.10    1.30
   1   2  -3   15.70    1.70
   2  -1  -3   14.60    1.40
   1   2   3   16.00    1.30
   1   2   3   18.10    1.70
  -2   1   3   18.00    1.70
   2  -1   3   16.10    1.60
  -2   1   3   13.20    1.40
   2  -2  -3  281.47   11.20
   2  -2  -3  272.27   11.40
   2   2  -3  276.37   11.40
  -2  -2  -3  258.27   10.90
   2  -2  -3  263.17   11.40
   2   2  -3  267.87   11.30
  -2   2  -3  271.47   11.10
  -2   2  -3  280.67   11.30
   2  -2   3  300.37   11.00
  -2   2   3  276.37   11.40
   2  -2   3  274.47   11.40
   2   2   3  282.87   11.40
  -2   2   3  265.37   11.10
  -2   3  -3   23.10    2.60
   3   2  -3   20.80    2.70
   2  -3  -3   18.80    2.40
   2  -3  -3   17.70    2.20
   3   2  -3   19.70    2.50
  -2   3  -3   17.20    2.30
  -2   3   3   21.30    2.60
   3   2   3   15.20    2.40
   2  -3   3   22.80    2.90
   2  -3   3   14.00    2.10
   2  -3   3   19.50    2.10
  -2   3   3   18.70    2.20
   1  -3  -3 1650.13   63.59
  -1   3  -3 1628.84   63.49
  -1   3  -3 1731.73   63.59
   3   1  -3 1606.94   63.29
  -1   3  -3 1717.33   63.19
   3   1  -3 1679.13   63.19
   1  -3  -3 1638.54   63.19
  -1   3   3 1713.73   62.99
  -1   3   3 1701.63   63.39
  -3  -1   3 1611.54   62.69
   3   1   3 1759.32   63.59
  -1   3   3 1828.42   63.59
   1  -3   3 1671.83   63.69
   3   0  -3   27.60    2.30
   0  -3  -3   31.60    2.80
   3   0  -3   35.20    2.90
   3   0  -3   35.30    2.30
  -3   0  -3   33.80    2.50
   0   3  -3   35.90    2.50
   0   3  -3   33.70    2.80
   3   0  -3   31.90    2.70
  -3   0   3   34.90    3.00
   3   0   3   31.80    2.20
   0   3   3   36.40    2.60
   0   3   3   33.80    2.40
   3   0   3   33.70    3.00
   0   3   3   40.40    3.00
   3   0   3   34.10    3.10
  -3   0   3   30.80    2.30
   1   3  -3 1594.04   62.39
  -3   1  -3 1607.04   61.59
   1   3  -3 1598.54   62.09
   3  -1  -3 1536.25   62.19
   3  -1  -3 1676.63   62.19
  -3   1  -3 1626.34   61.69
  -1  -3  -3 1683.33   62.19
   1   3   3 1710.33   61.89
   1   3   3 1732.13   62.09
  -3   1   3 1613.34   61.79
  -3   1   3 1730.03   62.29
   3  -1   3 1729.73   61.89
  -3   2  -3   16.50    2.20
   3  -2  -3   19.80    2.40
   2   3  -3   21.30    2.40
  -3   2  -3   19.00    2.20
   2   3  -3   20.40    2.60
  -2  -3  -3   19.50    2.30
   3  -2  -3   17.10    2.40
   3  -2  -3   20.30    2.00
   3  -2   3   25.40    2.70
   2   3   3   16.90    2.30
  -3   2   3   15.80    2.10
   2   3   3   14.80    1.70
  -3   2   3   15.30    2.30
   3   3  -3  816.22   31.70
  -3   3  -3  815.62   31.20
   3  -3  -3  809.72   31.50
   3  -3  -3  795.22   30.80
   3  -3  -3  770.22   31.40
  -3   3  -3  815.32   30.90
   3   3  -3  781.02   31.10
  -3   3   3  798.32   31.20
  -3   3   3  795.72   30.90
   3  -3   3  817.82   31.40
   3   3   3  751.82   31.30
   3  -4  -3    2.00    2.30
   3  -4  -3    6.00    2.10
  -3   4  -3    0.00    2.30
   4   3  -3    6.40    3.10
   4   3  -3    1.80    2.40
  -3   4  -3    4.40    2.40
  -3   4   3    3.70    2.40
  -3   4   3    3.40    2.40
   4   3   3    1.00    2.40
  -2   4  -3   57.09    4.80
   4   2  -3   53.29    4.70
   4   2  -3   47.30    4.40
   2  -4  -3   54.09    4.10
   2  -4  -3   62.59    4.90
  -2   4  -3   58.79    4.40
   4   2   3   59.29    5.00
   2  -4   3   57.69    4.30
  -2   4   3   55.79    4.80
  -2   4   3   58.79    4.20
   2  -4   3   59.99    4.70
  -1   4  -3    2.00    1.80
   1  -4  -3    0.50    1.60
   4   1  -3   -1.00    1.70
  -1   4  -3    4.00    1.70
   4   1  -3    1.70    1.70
   1  -4  -3   -0.20    1.30
  -1   4   3    2.90    1.40
  -1   4   3    1.40    1.70
   1  -4   3    0.60    1.60
  -1   4   3    3.30    2.00
  -1   4   3    0.10    1.50
   4   1   3    3.50    2.10
   0  -4  -3  109.39    5.20
   4   0  -3   99.99    5.40
   4   0  -3   84.49    7.80
   0   4  -3  104.09    5.80
   0   4  -3  101.29    4.90
   0  -4  -3   99.89    5.80
   0   4   3  106.99    5.90
   4   0   3   96.59    4.80
   0   4   3   95.39    5.10
   0   4   3   95.59    5.50
   4   0   3   97.19    5.90
  -4   0   3   96.49    5.80
   4   0   3  101.89    6.10
   0  -4   3   84.09    5.70
   1   4  -3   -0.20    1.70
   4  -1  -3    1.90    1.90
   4  -1  -3    1.40    1.80
   1   4  -3    1.10    1.80
  -1  -4  -3    0.00    1.70
  -4   1   3    0.80    1.40
   1   4   3    2.10    1.50
  -1  -4   3    1.60    1.60
   4  -1   3    0.10    1.50
   1   4   3    2.00    1.50
   4  -1   3    0.30    1.90
  -4   1   3   -1.70    1.60
  -2  -4  -3   57.39    4.60
  -4   2  -3   57.49    4.30
  -4   2  -3   55.69    4.20
   2   4  -3   53.69    4.40
   4  -2  -3   61.39    4.80
   4  -2  -3   66.29    4.90
   2   4  -3   57.29    4.80
   2   4   3   51.69    3.80
  -4   2   3   59.49    4.70
   2   4   3   54.39    4.40
   4  -2   3   59.99    4.60
  -4   2   3   61.49    4.30
   3   4  -3    3.60    2.90
  -4   3  -3    2.70    2.30
   3   4  -3    1.80    2.00
   4  -3  -3    2.30    2.30
  -4   3  -3    1.60    2.20
   4  -3  -3    4.40    2.80
   3   4   3    1.40    1.60
   4  -3   3    5.90    2.90
  -4   3   3    3.30    2.20
   3   4   3    1.00    2.30
  -4   3   3    1.70    2.30
   4   4  -3   11.90    3.30
  -4   4  -3   11.50    3.20
   4   4  -3   14.20    4.20
   4  -4  -3   11.30    3.60
   4   4  -3   19.60    3.90
  -4   4  -3   22.70    3.70
  -4   4   3   14.70    3.80
   4   4   3   15.60    3.80
  -4   4   3   16.00    3.30
   4  -4   3   16.00    4.50
   5   4  -3    2.30    3.20
   4  -5  -3    3.50    3.90
   5   4  -3    6.50    4.40
  -4   5  -3    3.90    3.30
  -4   5   3    2.50    3.70
   5   4   3    1.70    3.70
  -3   5  -3  252.87   12.50
   5   3  -3  240.88   12.90
  -3   5  -3  227.68   11.50
   5   3  -3  225.28   11.70
   3  -5  -3  263.17   12.90
   3  -5  -3  239.18   11.70
  -3   5   3  232.08   12.40
  -3   5   3  274.17   11.70
   5   3   3  235.68   12.80
   2  -5  -3   11.90    2.60
  -2   5  -3   13.20    3.30
  -2   5  -3   12.20    2.90
   2  -5  -3   15.80    3.60
   5   2  -3   10.80    2.90
   5   2  -3   11.80    3.80
   2  -5   3    9.90    3.00
  -2   5   3   15.60    2.60
   5   2   3   16.30    3.90
   2  -5   3   10.60    2.70
  -2   5   3   13.00    3.40
   1  -5  -3  429.96   18.80
  -1   5  -3  434.86   18.70
  -1   5  -3  445.06   17.60
   5   1  -3  439.36   18.00
   1  -5  -3  448.76   18.20
   1  -5   3  406.26   18.90
   5   1   3  419.06   18.80
  -1   5   3  428.16   18.70
  -1   5   3  446.86   18.50
  -5  -1   3  432.36   18.80
   0   5  -3   18.10    3.50
   5   0  -3   18.90    3.00
   0  -5  -3   18.50    3.30
   0   5  -3   25.80    3.70
   0  -5  -3   28.00    3.00
   5   0   3   15.40    3.80
   0   5   3   18.20    3.40
   0  -5   3   18.00    3.20
  -5   0   3   20.60    3.50
   0   5   3   23.20    3.20
   5   0   3   18.30    3.40
   5   0   3   21.10    2.50
   0   5   3   17.10    2.60
   5  -1  -3  423.26   17.90
  -1  -5  -3  409.96   18.10
   1   5  -3  397.26   18.10
   1   5  -3  453.85   18.20
   5  -1   3  448.96   18.70
  -1  -5   3  377.96   18.10
  -5   1   3  425.86   18.00
   1   5   3  409.46   17.50
   5  -1   3  423.46   17.20
   1   5   3  401.56   17.50
  -2  -5  -3   12.20    3.20
   2   5  -3    9.80    3.00
   5  -2  -3   12.70    3.40
   2   5  -3   11.80    3.40
  -2  -5   3   11.10    3.20
   2   5   3   10.70    2.90
   5  -2   3   12.20    3.40
  -5   2   3   13.40    2.80
  -5   2   3    5.10    2.80
   2   5   3    9.60    2.60
   5  -2   3    7.00    5.50
  -5   3  -3  246.48   11.80
   3   5  -3  244.08   12.20
   3   5  -3  240.28   12.90
   5  -3  -3  248.28   13.00
  -5   3   3  268.07   12.40
   3   5   3  238.38   11.20
   3   5   3  239.78   12.20
  -5   3   3  251.87   11.80
   5  -3   3  239.18   12.70
  -3  -5   3  257.77   12.90
   4   5  -3    2.40    4.20
   4   5  -3    5.70    3.90
   4   5  -3    4.00    3.30
   5  -4   3    3.60    4.40
  -5   4   3    5.80    3.40
   4   5   3    6.20    3.70
   3  -6  -3   -5.60    3.90
  -2   6  -3    8.10    3.50
   6   2  -3   10.70    2.90
   2  -6  -3    9.40    3.40
   2  -6  -3    8.40    4.00
  -2   6   3    9.90    3.70
   2  -6   3    5.90    2.90
   2  -6   3    4.10    3.70
   6   2   3    8.70    4.50
  -1   6  -3   -0.20    2.70
   1  -6  -3    1.10    2.40
   6   1  -3    0.00    2.90
   1  -6  -3    2.60    3.50
   1  -6   3    5.70    3.50
   6   1   3    0.70    3.80
  -1   6   3    1.60    3.30
   1  -6   3    1.30    2.40
   0  -6  -3   15.40    3.00
   6   0  -3   10.20    3.70
   0   6  -3   17.50    3.90
   0  -6  -3    9.10    3.70
  -6   0   3    5.70    3.50
   0  -6   3   14.30    3.90
   0   6   3    9.50    3.40
   6   0   3   13.00    2.90
   1   6  -3    2.30    3.20
   6  -1  -3    2.10    3.50
  -1  -6  -3   -0.60    2.10
  -1  -6  -3   -2.30    3.40
   1   6  -3    2.30    3.40
  -6   1   3   -2.00    2.70
   1   6   3    1.90    2.50
   6  -1   3    1.00    3.00
   1   6   3    2.10    2.90
  -1  -6   3   -0.70    3.00
   2   6  -3    7.70    3.80
   6  -2  -3    9.50    4.20
   2   6  -3    4.80    3.70
  -2  -6  -3    7.10    3.80
   6  -2   3   11.00    4.10
  -6   2   3   10.20    3.50
  -6   2   3    7.90    3.00
   2   6   3    8.60    3.20
  -2  -6   3    5.40    3.70
   2   6   3    4.80    2.90
   6  -3  -3    1.40    4.40
   3   6  -3   -4.80    3.10
   3   6   3    1.10    2.90
  -3  -6   3    1.00    3.90
   6  -3   3    1.30    4.50
   1  -7  -3  113.19   10.10
   1  -7   3   90.99    9.50
   0  -7  -3    7.20    4.50
   7   0  -3    7.10    4.80
   0   7   3    1.80    3.60
   0  -7   3    5.50    4.10
  -1  -7  -3  103.09    8.80
  -1  -7   3   77.69    8.60
   0   0  -4 2203.38   83.79
   0   0   4 2321.27   83.69
  -1   0  -4 1139.59   42.00
   0   1  -4 1151.88   42.20
   0  -1  -4 1124.89   42.10
   1   0  -4 1124.29   42.20
   1   0   4 1126.09   42.30
   1   0   4 1130.89   42.30
   1   0   4 1115.89   42.40
  -1   1  -4 1692.23   63.89
   1  -1  -4 1651.13   63.89
   1   1  -4 1689.23   63.79
   1   1  -4 1739.13   64.29
   1  -1  -4 1683.23   64.09
   1   1  -4 1710.13   64.19
  -1   1  -4 1669.73   63.79
   1   1   4 1837.42   63.89
   1  -1   4 1691.63   64.09
   1   1   4 1744.03   63.79
  -1   1   4 1742.83   63.79
  -1   1   4 1770.02   63.99
   1  -2  -4  674.53   25.90
   2   1  -4  711.33   25.70
   2   1  -4  665.13   26.00
   2   1  -4  634.74   26.00
  -1   2  -4  657.73   25.70
  -1   2  -4  676.73   25.80
   1  -2  -4  721.03   25.80
   1  -2   4  654.93   26.00
  -1   2   4  695.13   25.80
   2   1   4  660.93   25.80
  -1   2   4  669.33   25.80
  -1   2   4  659.73   25.50
   0   2  -4 1172.68   46.90
   2   0  -4 1255.97   47.30
   0  -2  -4 1261.07   47.20
   0  -2  -4 1287.07   46.90
   2   0  -4 1244.48   46.80
   2   0  -4 1333.87   47.40
   0   2  -4 1245.58   47.30
   2   0   4 1224.98   47.30
   0   2   4 1200.38   47.00
   0   2   4 1312.37   47.10
   0   2   4 1334.37   46.90
   2   0   4 1259.27   47.50
  -2   0   4 1256.37   46.90
   2   0   4 1200.98   46.80
  -2   1  -4  617.74   24.70
  -2   1  -4  644.94   24.80
   2  -1  -4  660.23   25.20
   2  -1  -4  666.03   25.20
   1   2  -4  660.43   24.60
  -1  -2  -4  660.23   24.90
   1   2  -4  659.23   25.20
   2  -1  -4  658.93   24.90
   2  -1   4  612.64   24.90
  -2   1   4  677.53   25.20
   1   2   4  659.53   24.70
   1   2   4  698.43   25.00
  -2   1   4  652.83   24.80
   1   2   4  616.04   24.70
   2  -2  -4  833.32   30.80
   2  -2  -4  780.52   31.10
  -2   2  -4  798.32   30.80
  -2   2  -4  880.61   30.70
  -2  -2  -4  725.33   31.10
   2  -2  -4  770.42   31.10
   2   2  -4  806.32   31.00
   2   2  -4  787.32   30.90
   2   2   4  793.92   30.90
   2  -2   4  849.61   31.10
  -2   2   4  813.02   30.70
   2  -2   4  777.52   30.40
  -2   2   4  852.21   31.00
   3   2  -4  317.37   13.80
   2  -3  -4  335.87   13.90
  -2   3  -4  320.07   13.70
  -2   3  -4  318.27   13.40
   3   2  -4  302.77   13.80
   2  -3  -4  319.57   13.50
  -2   3   4  339.47   13.70
   2  -3   4  326.87   14.00
   2  -3   4  319.97   13.30
   3   2   4  345.87   13.90
  -2   3   4  331.37   13.30
  -1   3  -4  637.24   27.30
   3   1  -4  741.03   27.10
   1  -3  -4  726.13   27.20
   3   1  -4  682.43   27.40
   3   1  -4  704.33   27.40
   1  -3  -4  698.93   27.50
  -1   3  -4  709.73   27.00
   1  -3   4  725.53   27.50
  -1   3   4  723.13   26.80
   1  -3   4  771.82   29.90
   3   1   4  647.94   27.40
  -1   3   4  688.13   27.30
  -1   3   4  690.73   27.30
   3   0  -4  444.86   18.00
   0  -3  -4  461.95   18.00
   0   3  -4  429.46   18.00
   3   0  -4  434.06   18.00
   0   3  -4  458.45   17.60
   0  -3  -4  454.05   17.60
  -3   0   4  453.85   18.20
   3   0   4  444.26   18.20
   0   3   4  463.55   17.90
   0   3   4  464.95   17.50
   3   0   4  471.05   18.40
   0   3   4  463.55   17.90
   3   0   4  444.46   17.30
  -3   0   4  429.86   17.50
  -3   1  -4  661.03   26.50
  -3   1  -4  708.43   26.50
   1   3  -4  684.63   27.10
  -1  -3  -4  645.64   26.90
   3  -1  -4  741.43   27.10
   3  -1  -4  726.93   27.30
   1   3   4  674.23   26.60
  -3   1   4  669.13   26.60
   3  -1   4  684.53   26.70
   1   3   4  688.53   26.90
  -3   1   4  726.33   27.20
   1   3   4  739.73   26.90
   2   3  -4  305.47   13.30
  -3   2  -4  324.27   13.10
   3  -2  -4  310.87   13.60
  -3   2  -4  318.67   13.00
   3  -2  -4  311.87   12.80
  -2  -3  -4  295.17   12.90
   3  -2  -4  301.07   13.40
   2   3  -4  323.97   13.60
   2   3   4  313.27   12.50
   2   3   4  309.47   13.20
  -3   2   4  330.27   13.00
  -3   2   4  332.77   13.40
   3  -2   4  331.87   13.40
   3  -3  -4  351.96   15.60
  -3   3  -4  356.96   15.10
   3   3  -4  366.46   15.40
   3   3  -4  350.46   15.80
  -3   3  -4  357.66   15.30
   3  -3  -4  385.16   17.50
   3  -3  -4  368.26   15.10
   3  -3   4  369.16   15.80
   3   3   4  365.96   15.60
  -3   3   4  378.76   15.10
  -3   3   4  347.17   15.40
   4   3  -4  124.09    7.80
   4   3  -4  114.09    7.40
   3  -4  -4  116.99    6.70
  -3   4  -4  118.69    7.00
  -3   4  -4  122.59    7.40
   3  -4  -4  116.19    7.60
  -3   4   4  121.39    6.80
  -3   4   4  114.79    7.50
   4   3   4  119.09    7.50
   4   2  -4  289.97   13.00
   4   2  -4  278.17   13.00
  -2   4  -4  297.67   13.10
  -2   4  -4  281.97   12.60
   2  -4  -4  291.67   13.30
   2  -4  -4  270.97   12.60
   2  -4   4  304.77   13.30
   4   2   4  273.07   13.20
  -2   4   4  303.77   13.30
  -2   4   4  297.77   12.40
   2  -4   4  309.17   12.80
   4   1  -4  213.08   10.00
   1  -4  -4  213.18    9.80
  -1   4  -4  200.78    9.60
  -1   4  -4  228.08   10.30
   1  -4  -4  209.38   10.30
   1  -4   4  232.48   10.50
  -1   4   4  220.88   10.20
   4   1   4  229.88   10.40
  -1   4   4  225.28    9.30
  -1   4   4  215.68   10.20
   0  -4  -4  396.56   16.30
   0  -4  -4  408.76   16.80
   0   4  -4  413.06   16.00
   0   4  -4  401.96   16.80
   4   0  -4  388.86   16.70
   4   0  -4  408.36   16.70
   0   4   4  394.76   16.10
  -4   0   4  362.46   16.00
   4   0   4  416.96   17.30
   4   0   4  391.36   17.10
   0  -4   4  444.76   17.20
  -4   0   4  418.66   17.10
   0   4   4  404.96   16.70
   0   4   4  413.96   16.80
   4   0   4  391.16   15.80
   1   4  -4  225.58   10.20
   1   4  -4  228.68   10.40
   4  -1  -4  218.68   10.10
  -1  -4  -4  210.58   10.00
   4  -1  -4  210.78   10.00
  -4   1   4  212.08   10.20
   4  -1   4  207.28    9.50
   1   4   4  229.38    9.70
  -4   1   4  212.98    9.40
   4  -1   4  198.68   10.40
   1   4   4  211.28    9.70
  -4   2  -4  291.17   12.40
   4  -2  -4  278.17   13.10
  -2  -4  -4  280.37   12.60
   4  -2  -4  307.37   13.20
   2   4  -4  274.37   12.90
   2   4  -4  278.77   13.10
   2   4   4  278.87   12.00
   4  -2   4  297.67   12.80
   2   4   4  287.77   12.70
  -4   2   4  298.47   12.90
  -4   2   4  296.37   12.40
  -4   3  -4  113.29    6.90
  -4   3  -4  115.09    7.00
   4  -3  -4  119.59    7.50
   3   4  -4  118.99    8.00
   4  -3  -4  122.49    7.60
   3   4  -4  116.79    7.10
   4  -3   4  123.19    7.80
   3   4   4  119.09    6.00
  -4   3   4  127.69    7.60
   3   4   4  124.59    7.40
  -4   3   4  119.89    6.90
   4   4  -4  126.69    8.40
  -4   4  -4  119.69    7.60
   4   4  -4  114.79    8.60
   4  -4  -4  106.39    8.00
  -4   4  -4  114.89    7.60
   4  -4   4  114.59    8.90
  -4   4   4  118.89    8.20
   4   4   4  117.09    8.10
  -4   4   4  123.69    7.40
   5   4  -4   41.30    5.50
   4  -5  -4   41.20    5.90
  -4   5  -4   41.00    5.20
   5   4  -4   46.70    6.50
   5   4   4   37.50    5.60
  -4   5   4   45.70    5.90
   5   3  -4   97.19    7.70
   5   3  -4  104.29   10.00
  -3   5  -4  123.69    7.70
   3  -5  -4  112.39    7.30
   3  -5  -4  114.59    8.30
  -3   5  -4  109.49    8.00
   5   3   4  114.69    8.70
  -3   5   4  115.99    7.10
  -3   5   4  124.09    8.30
   2  -5  -4   91.49    6.20
   2  -5  -4   92.49    7.30
  -2   5  -4   97.49    6.50
   5   2  -4   90.99    6.80
  -2   5  -4   93.39    7.10
   2  -5   4   89.09    6.40
   2  -5   4  106.69    7.50
  -2   5   4  106.69    7.30
   5   2   4   88.69    7.20
   1  -5  -4  204.78    9.60
   5   1  -4  191.68    9.70
   1  -5  -4  195.38   10.40
  -1   5  -4  191.68    9.20
   1  -5   4  201.88   10.70
   5   1   4  197.48   10.60
  -1   5   4  198.08   10.50
  -1   5   4  203.08   10.00
  -5  -1   4  189.28   10.40
   0  -5  -4  149.59    7.10
   5   0  -4  119.79    7.30
   0   5  -4  137.79    8.10
   0  -5  -4  126.49    7.80
   5   0   4  130.59    8.40
   0   5   4  132.19    7.30
   5   0   4  122.49    7.90
   0   5   4  116.19    7.60
   0  -5   4  129.19    7.90
  -5   0   4  129.89    7.90
   1   5  -4  210.98   10.50
   1   5  -4  199.18   10.20
   5  -1  -4  197.78   10.20
  -1  -5  -4  204.08   10.10
  -1  -5  -4  193.58    8.90
  -5   1   4  177.18    9.90
  -5   1   4  183.38    9.00
   5  -1   4  193.88    9.30
   1   5   4  183.38    9.30
  -1  -5   4  180.58   10.10
   5  -1   4  174.68   10.30
   1   5   4  201.48    9.40
   5  -2  -4   92.89    7.20
   2   5  -4  107.19    7.20
   2   5  -4   87.69    7.10
  -2  -5  -4   94.99    6.70
   2   5   4   92.09    6.10
   5  -2   4   99.69    7.00
  -5   2   4   99.89    7.00
  -5   2   4   99.69    6.20
  -2  -5   4   86.89    7.10
   2   5   4   90.19    6.40
   3   5  -4  114.69    7.80
   5  -3  -4  115.19    8.70
   3   5  -4  112.69    8.60
  -5   3  -4  113.59    7.60
  -5   3   4  100.89    7.50
   3   5   4  118.79    7.70
  -3  -5   4  117.89    8.30
   5  -3   4  114.59    8.70
   3   5   4  109.99    6.50
  -5   3   4  116.09    7.50
   4   5  -4   48.30    5.90
   4   5  -4   38.60    5.10
   4   5  -4   40.20    5.90
   5  -4   4   47.60    6.50
  -5   4   4   47.60    5.70
  -4  -5   4   35.60    5.80
   4   5   4   31.50    5.20
   3  -6  -4   40.70    5.90
   6   3  -4   29.50    4.10
   6   2  -4   73.79    6.30
   2  -6  -4   84.29    7.70
   2  -6   4   82.79    7.40
   2  -6   4   70.69    7.10
   6   2   4   68.99    7.30
  -2   6   4   75.89    7.00
   1  -6  -4   69.39    6.60
   1  -6  -4   53.99    5.10
   6   1  -4   54.69    5.40
   1  -6   4   50.19    5.90
  -1   6   4   49.20    5.30
  -6  -1   4   42.30    5.50
   1  -6   4   46.00    4.80
   6   1   4   52.59    6.90
   0  -6  -4   92.99    7.90
   0   6  -4   86.79    7.30
   6   0  -4   94.29    7.40
   0  -6  -4   89.89    6.30
   0  -6   4   93.09    8.20
   0   6   4   90.79    7.10
  -6   0   4   93.99    7.60
  -1  -6  -4   49.60    5.60
   1   6  -4   49.90    5.70
   6  -1  -4   55.09    5.80
   1   6  -4   44.20    5.40
  -1  -6  -4   43.00    4.20
  -1  -6   4   54.39    6.00
   6  -1   4   48.10    5.00
  -6   1   4   43.50    5.20
   1   6   4   49.70    5.20
   2   6  -4   82.59    7.50
  -2  -6  -4   79.39    7.20
   6  -2  -4   75.19    7.40
   2   6  -4   59.39    6.40
  -2  -6   4   68.69    6.80
   2   6   4   62.59    6.00
  -6   2   4   58.39    6.10
  -6   2   4   70.39    6.00
   2   6   4   75.89    6.30
   6  -2   4   70.59    6.80
   3   6  -4   29.30    4.90
   6  -3  -4   32.40    5.90
  -3  -6   4   26.70    5.20
   6  -3   4   23.10    5.60
   3   6   4   24.70    3.80
   0  -7  -4   41.30    6.70
   0  -7   4   24.70    5.40
   0   0  -5 1863.01   69.19
  -1   0  -5  266.07   10.00
   0  -1  -5  256.17   10.40
   1   0  -5  273.57   10.50
   0   1  -5  252.17   10.20
   1   0  -5  254.07   10.10
   0  -1  -5  259.17   10.00
   0   1   5  250.27   10.20
   1   0   5  246.38   10.20
   1   0   5  253.77   10.20
   0   1   5  234.68    9.90
   1   0   5  257.67   10.40
   1  -1  -5 1563.84   59.59
  -1  -1  -5 1580.04   59.09
   1  -1  -5 1532.65   59.49
   1   1  -5 1603.54   59.79
   1   1  -5 1558.74   59.79
   1   1  -5 1617.74   59.39
  -1   1  -5 1609.54   59.49
   1   1  -5 1652.43   59.89
  -1   1   5 1654.13   59.49
   1   1   5 1565.34   59.29
   1   1   5 1597.14   59.39
   1  -1   5 1596.14   59.79
   1  -2  -5  145.89    6.50
  -1   2  -5  150.58    6.60
  -1   2  -5  142.79    6.50
   2   1  -5  156.18    7.00
   2   1  -5  143.39    6.90
   1  -2  -5  147.49    6.80
   2   1  -5  152.58    6.40
  -1   2   5  146.69    6.60
  -1   2   5  140.99    6.30
  -1   2   5  144.89    6.70
   2   1   5  150.58    6.20
   1  -2   5  151.48    7.10
   2   1   5  141.89    6.70
   2   0  -5 1109.59   41.10
   0  -2  -5 1101.49   41.20
   2   0  -5 1089.29   41.70
   0   2  -5 1064.29   41.60
   0   2  -5 1066.19   41.20
   2   0  -5 1097.19   41.70
   0  -2  -5 1052.19   41.40
   2   0   5 1068.99   41.20
   2   0   5 1112.39   41.70
  -2   0   5 1109.59   41.10
   2   0   5 1127.59   41.60
   0   2   5 1166.58   41.40
   0   2   5 1089.19   41.10
   1   2  -5  144.59    6.10
   1   2  -5  146.79    6.70
   2  -1  -5  138.89    6.70
  -1  -2  -5  140.59    6.20
  -2   1  -5  136.79    6.00
  -1  -2  -5  141.79    5.80
   2  -1  -5  157.28    6.40
   2  -1  -5  145.79    6.70
  -2   1  -5  129.49    6.20
   2  -1   5  140.59    6.50
  -2   1   5  137.49    6.20
   1   2   5  144.19    6.10
  -2   1   5  145.49    6.60
   1   2   5  143.69    6.20
  -2   2  -5  642.24   25.40
   2  -2  -5  640.94   25.90
   2  -2  -5  673.13   25.90
   2  -2  -5  673.33   25.50
   2   2  -5  651.73   25.80
  -2   2  -5  631.34   25.40
   2   2  -5  681.23   25.70
  -2   2   5  705.33   25.70
   2   2   5  669.83   25.60
  -2   2   5  633.64   25.30
   2  -2   5  637.14   25.00
   2  -2   5  676.73   25.90
   3   2  -5  108.89    6.40
   3   2  -5  113.09    6.10
   2  -3  -5  111.09    5.70
   2  -3  -5  108.69    6.30
  -2   3  -5  106.69    5.90
  -2   3  -5  109.29    5.90
   2  -3   5  102.89    5.50
   2  -3   5  114.09    6.60
   3   2   5  108.89    6.10
   2  -3   5   99.19    5.80
  -2   3   5  111.19    5.60
  -2   3   5  120.89    6.20
  -1   3  -5  615.04   24.50
   3   1  -5  616.74   24.90
   3   1  -5  632.84   25.00
   1  -3  -5  595.24   24.90
   1  -3  -5  626.74   24.50
  -1   3  -5  662.53   24.80
   3   1  -5  616.04   24.40
  -1   3   5  638.04   24.80
   1  -3   5  666.73   24.90
   3   1   5  613.44   24.80
  -1   3   5  634.54   24.20
  -1   3   5  653.63   24.80
   0  -3  -5  169.18    7.30
   0   3  -5  170.78    7.30
   3   0  -5  161.98    7.80
   0  -3  -5  164.38    7.70
   3   0  -5  170.88    7.90
   0   3  -5  169.58    7.90
   3   0   5  166.88    8.00
  -3   0   5  167.68    7.90
   3   0   5  166.88    8.10
   0   3   5  170.48    7.20
   0   3   5  162.98    7.50
   3   0   5  156.98    7.20
  -3   0   5  167.18    7.20
   0   3   5  159.68    7.40
   1   3  -5  611.64   24.80
  -1  -3  -5  629.54   24.40
   3  -1  -5  622.64   24.90
  -3   1  -5  603.24   24.00
  -1  -3  -5  630.04   23.80
   1   3  -5  625.54   23.80
   3  -1  -5  605.84   24.70
   1   3   5  639.24   24.10
  -3   1   5  647.14   24.70
  -3   1   5  614.24   24.20
   3  -1   5  611.34   24.40
   3  -1   5  669.33   25.10
   1   3   5  628.54   24.30
   2   3  -5  113.99    6.20
   3  -2  -5  110.09    6.20
  -3   2  -5  108.49    5.60
   3  -2  -5  109.49    6.20
  -3   2  -5  111.69    5.70
   3  -2  -5  103.09    5.50
   2   3  -5  112.09    6.40
   3  -2   5  112.49    6.20
  -3   2   5  102.49    6.00
   2   3   5  103.09    5.10
   2   3   5  108.69    5.80
  -3   2   5  110.59    5.60
   3  -3  -5  293.27   13.20
   3   3  -5  283.87   13.10
   3  -3  -5  280.17   12.60
  -3   3  -5  290.37   12.70
   3   3  -5  310.77   13.50
   3   3  -5  287.07   13.20
  -3   3  -5  288.87   12.80
  -3   3   5  307.07   13.10
  -3   3   5  296.47   12.60
   3  -3   5  287.67   13.40
   3   3   5  298.37   13.10
   3  -4  -5   38.00    4.70
  -3   4  -5   42.10    4.40
   3  -4  -5   35.50    3.70
   4   3  -5   43.30    4.80
   4   3  -5   42.70    5.00
  -3   4  -5   36.30    4.10
  -3   4   5   38.10    3.90
   4   3   5   35.70    4.60
  -3   4   5   44.10    4.80
   2  -4  -5  185.88    9.50
   2  -4  -5  182.48    8.90
  -2   4  -5  184.78    8.90
  -2   4  -5  171.78    9.30
   4   2  -5  180.98    9.50
   2  -4   5  177.38    8.90
   2  -4   5  174.48    9.40
  -2   4   5  207.18    9.70
  -2   4   5  188.98    8.50
   4   2   5  173.38    9.40
   1  -4  -5   46.30    3.80
   1  -4  -5   44.60    4.30
   4   1  -5   48.50    4.60
  -1   4  -5   43.40    4.10
  -1   4   5   56.49    3.90
   1  -4   5   49.40    4.50
   4   1   5   42.10    4.30
  -1   4   5   49.10    4.30
  -1   4   5   49.70    4.20
   0  -4  -5  259.87   12.00
   0   4  -5  282.57   12.30
   4   0  -5  265.77   12.00
   4   0  -5  279.57   12.20
   0   4  -5  262.97   11.30
   0  -4  -5  264.27   11.50
  -4   0   5  278.17   11.30
   4   0   5  266.57   12.40
   0   4   5  267.97   11.80
  -4   0   5  261.57   12.30
   4   0   5  259.97   12.40
   0  -4   5  283.67   12.40
   4   0   5  266.67   11.20
   0   4   5  267.07   11.90
   1   4  -5   46.10    4.40
   4  -1  -5   49.40    4.30
  -1  -4  -5   47.20    3.40
   4  -1  -5   43.90    4.40
   1   4  -5   41.70    4.10
  -1  -4  -5   50.79    4.20
  -4   1   5   40.60    4.10
   1   4   5   42.10    3.60
   1   4   5   43.40    3.80
   4  -1   5   39.70    3.90
  -4   1   5   38.70    3.70
   4  -1   5   45.70    4.50
  -2  -4  -5  207.38    9.40
   2   4  -5  175.88    9.50
   2   4  -5  184.28    9.70
   4  -2  -5  190.38    9.80
  -4   2  -5  192.08    9.00
   4  -2  -5  191.78    9.90
   2   4   5  196.38    9.20
  -4   2   5  171.38    9.30
  -4   2   5  187.68    8.90
   2   4   5  178.58    8.50
   4  -2   5  184.18    9.50
   4  -3  -5   42.20    4.80
   4  -3  -5   41.20    4.70
   3   4  -5   43.70    5.20
   3   4  -5   42.80    4.50
  -4   3  -5   40.00    4.20
   4  -3   5   48.30    5.50
  -4   3   5   40.30    4.10
   3   4   5   36.70    3.50
  -4   3   5   41.30    4.50
   3   4   5   33.20    4.20
  -4   4  -5   68.09    8.50
   4   4  -5   78.19    7.00
  -4   4  -5   72.19    6.40
   4   4  -5   64.29    6.70
   4  -4  -5   72.19    6.90
   4  -4   5   88.09    8.10
  -4   4   5   77.79    6.10
  -4   4   5   70.69    6.90
   4   4   5   57.79    6.00
   4  -5  -5   24.40    5.20
  -4   5  -5   25.80    4.20
   5   4  -5   19.50    4.70
  -3   5  -5   84.79    6.80
   3  -5  -5   76.19    7.40
   3  -5  -5   76.99    6.20
  -3   5  -5   78.69    6.90
   5   3  -5   81.69    7.40
  -3   5   5   93.79    7.60
  -3   5   5   78.39    6.00
   5   3   5   81.09    7.70
   2  -5  -5   61.09    5.30
  -2   5  -5   65.99    5.30
   5   2  -5   53.89    5.60
   2  -5  -5   77.19    6.70
  -2   5  -5   67.09    6.30
  -2   5   5   67.79    6.40
   2  -5   5   69.79    6.70
   5   2   5   67.29    6.60
   2  -5   5   58.79    5.60
  -1   5  -5  161.28    8.10
   1  -5  -5  154.28    8.30
   5   1  -5  177.38    8.80
   1  -5  -5  161.98    9.30
   1  -5   5  155.58    9.50
   5   1   5  141.99    9.20
  -5  -1   5  164.88    9.50
  -1   5   5  155.28    8.70
  -1   5   5  165.78    9.20
   0  -5  -5   81.19    5.40
   0  -5  -5   85.79    6.50
   5   0  -5   86.69    6.20
   0   5   5   70.09    5.80
  -5   0   5   80.89    6.40
   5   0   5   81.69    6.40
   5   0   5   81.39    5.10
   0  -5   5   78.79    6.40
   0   5   5   77.59    5.80
  -1  -5  -5  163.98    7.90
   1   5  -5  157.18    9.30
  -1  -5  -5  154.58    8.80
   1   5  -5  172.48    9.40
   5  -1  -5  157.28    9.30
   5  -1   5  140.89    8.40
   1   5   5  165.58    8.30
  -5   1   5  157.98    8.00
  -5   1   5  153.58    9.10
  -1  -5   5  167.98    9.20
   1   5   5  151.48    8.10
  -2  -5  -5   64.49    6.80
   2   5  -5   57.79    5.80
   2   5  -5   66.89    6.40
   5  -2  -5   62.79    6.10
   2   5   5   61.89    5.00
   5  -2   5   62.39    6.00
  -5   2   5   52.49    4.70
  -2  -5   5   68.29    6.40
   2   5   5   62.09    5.50
  -5   2   5   67.49    6.00
  -5   3  -5   89.99    6.70
   3   5  -5   82.69    7.10
   5  -3  -5   80.39    7.60
   3   5  -5   74.69    7.30
  -3  -5   5   86.39    7.70
   3   5   5   80.39    6.70
   5  -3   5   78.19    7.90
  -5   3   5   73.99    7.00
   3   5   5   76.09    5.40
  -5   3   5   85.89    6.50
   4   5  -5   32.60    5.40
   4   5  -5   30.80    6.60
  -4  -5   5   25.60    4.90
   5  -4   5   28.70    6.00
   3  -6  -5    2.50    4.30
   6   3  -5    4.50    3.50
   6   2  -5   38.50    5.00
   2  -6  -5   47.90    6.00
  -2   6   5   40.00    5.40
  -6  -2   5   43.60    5.80
   2  -6   5   38.80    5.70
   6   2   5   33.40    5.60
   6   1  -5   10.70    3.70
   1  -6  -5    7.70    2.80
   1  -6  -5   12.90    3.90
   1  -6   5    7.80    3.10
   6   1   5    7.50    4.40
  -1   6   5    8.50    3.30
   1  -6   5    8.80    3.90
  -6  -1   5   13.50    4.10
   0   6  -5   59.39    6.00
   0  -6  -5   63.69    6.50
   0  -6  -5   51.89    4.80
   6   0  -5   57.89    6.10
   0   6   5   65.29    6.00
   0  -6   5   49.10    6.00
  -6   0   5   52.69    5.90
   1   6  -5    5.20    3.70
   1   6  -5    6.90    4.00
   6  -1  -5   12.20    4.20
  -1  -6  -5    8.20    3.80
  -1  -6  -5   11.30    2.70
   6  -1   5    6.70    3.60
  -6   1   5    7.70    3.50
  -1  -6   5    9.40    3.80
   1   6   5    5.60    3.30
   6  -2  -5   49.99    6.40
   2   6  -5   43.80    5.80
   2   6  -5   39.00    5.50
   6  -2   5   35.10    5.70
  -6   2   5   45.30    5.60
   2   6   5   35.40    4.40
   2   6   5   27.60    5.00
  -2  -6   5   41.00    5.70
   6  -3  -5    8.40    5.30
   3   6  -5    6.50    4.00
   3   6   5    9.10    2.90
  -3  -6   5    7.40    4.20
   6  -3   5   -1.20    4.70
   0   0  -6 5324.47  193.58
   0   0  -6 5240.18  193.68
   0   0   6 5150.18  193.88
   0   1  -6  688.53   25.60
  -1   0  -6  703.03   25.40
   1   0  -6  655.43   25.80
   1   0  -6  654.43   25.50
   0  -1  -6  636.64   25.50
   0  -1  -6  666.03   25.40
   0  -1   6  659.63   26.10
   1   0   6  723.43   25.80
   0   1   6  688.53   25.20
   1   0   6  612.54   25.70
   0   1   6  683.23   25.70
  -1  -1  -6  110.19    4.70
   1  -1  -6  113.79    5.10
   1   1  -6  108.49    5.60
   1   1  -6  105.69    5.00
   1   1  -6  109.69    5.50
  -1   1  -6  105.49    5.20
   1  -1  -6  108.29    5.30
   1   1   6  109.59    5.10
   1   1   6  113.59    5.00
  -1   1   6  117.09    5.20
   1  -1   6  109.69    5.50
  -1   1   6  111.29    5.30
   1  -2  -6  398.46   16.60
   2   1  -6  425.26   16.70
  -1   2  -6  441.76   16.40
   2   1  -6  418.86   15.90
   2   1  -6  400.16   16.10
   1  -2  -6  431.36   16.30
   2   1  -6  382.46   16.70
  -1   2   6  396.66   16.30
  -1   2   6  413.06   16.50
   2   1   6  418.56   16.40
   2   1   6  408.86   16.00
   1  -2   6  397.96   16.80
   0   2  -6 3509.15  120.29
   0   2  -6 3232.08  120.69
   2   0  -6 3244.38  120.69
   0  -2  -6 3098.39  120.29
  -2   0  -6 3176.68  119.89
   2   0  -6 3069.49  120.09
   2   0  -6 3371.76  120.79
   0  -2  -6 3226.18  120.09
   2   0   6 3224.88  120.19
   0   2   6 3072.99  119.99
   2   0   6 3229.18  120.49
   0  -2   6 3294.17  120.89
   0   2   6 3290.57  120.29
   2   0   6 3319.27  120.79
   1   2  -6  411.26   16.40
   1   2  -6  411.56   15.70
   2  -1  -6  410.76   16.40
   2  -1  -6  409.76   16.00
  -1  -2  -6  430.16   15.90
   2  -1  -6  366.66   16.30
  -2   1  -6  406.76   15.90
  -1  -2  -6  395.76   15.50
   1   2   6  416.66   15.80
  -2   1   6  407.36   16.20
   2  -1   6  371.46   16.10
  -2   1   6  396.26   15.80
   1   2   6  392.16   15.70
   2  -2  -6 2143.19   80.79
   2   2  -6 2148.78   81.19
   2  -2  -6 1929.91   81.49
   2   2  -6 2150.18   80.99
   2  -2  -6 2369.16   81.29
   2   2  -6 2092.69   81.29
  -2   2  -6 2136.89   80.69
  -2   2  -6 2103.39   80.59
   2   2   6 2215.38   80.19
  -2   2   6 2201.38   80.49
   2   2   6 2218.58   80.89
  -2   2   6 2153.88   80.89
   2  -2   6 2195.18   81.19
  -2   3  -6  214.88    9.80
   3   2  -6  216.18   10.00
  -2   3  -6  190.18    9.70
   2  -3  -6  231.78    9.80
   3   2  -6  210.78   10.30
   2  -3  -6  218.28   10.30
   2  -3   6  221.68   10.50
  -2   3   6  234.88    9.50
   3   2   6  220.78   10.10
  -2   3   6  204.48    9.90
   3   1  -6   71.09    5.00
  -1   3  -6   70.29    4.50
   1  -3  -6   69.19    4.70
   1  -3  -6   80.09    4.40
   3   1  -6   82.39    5.20
   3   1   6   83.29    4.90
  -1   3   6   72.19    4.70
   1  -3   6   68.89    4.70
  -1   3   6   69.89    4.50
   3   0  -6  329.87   13.80
   0   3  -6  323.37   13.10
   0  -3  -6  312.97   13.40
   0   3  -6  303.17   13.60
   0  -3  -6  319.37   13.00
   3   0  -6  333.17   13.80
   0   3   6  329.17   13.20
  -3   0   6  320.87   13.00
   0   3   6  348.67   13.20
  -3   0   6  310.37   13.60
   3   0   6  299.07   13.80
   3   0   6  321.17   13.10
   3   0   6  313.87   13.70
   3  -1  -6   75.59    5.10
  -1  -3  -6   67.19    4.40
  -1  -3  -6   72.59    3.90
   1   3  -6   72.59    4.00
  -3   1  -6   69.79    4.30
   3  -1  -6   75.59    4.90
   1   3  -6   72.69    5.00
   3  -1  -6   82.09    4.20
   3  -1   6   67.79    4.50
  -3   1   6   77.89    4.90
   3  -1   6   69.89    5.00
   1   3   6   76.19    4.20
   1   3   6   71.49    4.10
  -3   1   6   75.69    4.30
   2   3  -6  220.58   10.30
   3  -2  -6  232.68   10.60
   3  -2  -6  217.08    9.60
   3  -2  -6  216.28   10.40
   2   3  -6  204.78   10.30
  -3   2  -6  215.38    9.70
   2   3   6  214.48    9.90
  -3   2   6  231.98   10.30
   3  -2   6  202.98   10.20
   2   3   6  215.68    9.10
  -3   2   6  229.98    9.70
   3  -3  -6   54.89    5.10
   3   3  -6   48.80    5.00
  -3   3  -6   51.09    4.80
   3   3  -6   48.70    5.10
  -3   3  -6   49.99    4.40
   3  -3  -6   42.80    4.10
   3   3  -6   42.80    4.60
   3   3   6   51.09    4.70
  -3   3   6   61.79    5.00
  -3   3   6   50.59    4.20
   3  -3   6   54.69    5.20
   4   3  -6   74.39    6.60
  -3   4  -6   74.99    6.10
   3  -4  -6   83.99    5.90
   4   3  -6   82.09    7.90
   3  -4  -6   76.59    6.60
  -3   4  -6   89.29    6.40
  -3   4   6   80.39    5.60
   4   3   6   76.19    6.60
  -3   4   6   76.79    6.60
  -2   4  -6  819.12   30.90
  -2   4  -6  787.92   30.50
   4   2  -6  812.12   31.40
   2  -4  -6  760.72   31.30
   2  -4  -6  778.22   30.60
   4   2   6  722.83   31.00
  -2   4   6  760.62   30.00
   2  -4   6  766.12   30.50
  -2   4   6  769.42   31.00
   1  -4  -6  135.59    7.60
   1  -4  -6  129.99    6.90
   4   1  -6  138.19    7.80
  -1   4  -6  128.29    7.00
   4   1   6  125.99    7.50
   1  -4   6  131.69    7.70
  -1   4   6  139.59    7.60
  -1   4   6  135.29    7.30
   4   0  -6 1069.99   41.60
   0   4  -6 1130.99   40.70
   0   4  -6 1129.59   42.20
   0  -4  -6 1027.10   41.40
   0  -4  -6 1090.49   40.90
   4   0  -6 1118.69   41.50
  -4   0   6 1043.90   41.70
   0   4   6 1158.18   41.30
   4   0   6 1035.10   41.70
   0   4   6 1080.19   41.80
  -4   0   6 1035.60   40.60
   4   0   6  957.50   41.70
   0  -4   6 1039.30   41.70
   4   0   6 1032.30   40.60
  -1  -4  -6  130.09    6.20
   1   4  -6  124.79    7.50
   4  -1  -6  112.59    7.20
   4  -1  -6  123.09    7.10
  -1  -4  -6  130.99    7.00
  -4   1   6  127.59    6.50
   1   4   6  125.29    6.50
   1   4   6  123.89    6.40
   4  -1   6  113.29    6.80
  -4   1   6  119.39    7.30
   4  -1   6  125.29    7.50
   4  -2  -6  740.73   30.90
   2   4  -6  781.62   30.90
   2   4  -6  785.92   30.90
   4  -2  -6  741.63   30.90
  -4   2  -6  763.12   30.00
   2   4   6  786.22   30.30
   2   4   6  722.13   29.60
  -4   2   6  776.32   30.00
   4  -2   6  764.02   31.10
   4  -2   6  812.32   30.80
  -4   2   6  743.53   30.50
  -4   3  -6   74.79    6.00
   3   4  -6   72.49    6.80
   3   4  -6   68.19    6.10
   4  -3  -6   78.39    6.70
  -4   3   6   82.99    5.80
   3   4   6   68.09    4.50
   4  -3   6   70.39    6.70
   3   4   6   83.09    6.10
  -4   3   6   76.69    6.40
  -4   4  -6  304.17   14.70
   4  -4  -6  326.57   15.70
   4   4  -6  310.97   16.00
   4   4  -6  308.27   15.60
   4   4   6  320.07   15.40
  -4   4   6  321.07   14.40
  -4   4   6  326.47   15.50
   4  -4   6  351.06   16.40
   4  -5  -6   29.80    5.60
   5   4  -6   30.30    5.50
   3  -5  -6   18.90    4.40
  -3   5  -6   10.20    3.60
   5   3  -6   13.60    4.30
  -3   5  -6   14.20    4.10
   3  -5  -6   17.80    3.40
  -3   5   6   16.40    4.20
   5   3   6   13.80    4.20
  -3   5   6   14.30    3.00
   2  -5  -6   81.19    7.20
  -2   5  -6   66.29    6.10
   5   2  -6   74.19    6.90
   2  -5  -6   82.89    6.00
   2  -5   6   70.39    6.20
  -2   5   6   68.99    6.70
   5   2   6   73.69    6.90
   1  -5  -6   27.90    4.30
   5   1  -6   32.00    4.20
   1  -5  -6   27.80    3.40
  -1   5  -6   27.90    3.70
   5   1   6   26.60    4.70
  -1   5   6   31.80    4.20
  -5  -1   6   23.80    4.40
  -1   5   6   27.70    4.00
   1  -5   6   26.80    4.20
   5   0  -6  106.59    7.20
   0  -5  -6  113.19    7.40
   0  -5  -6  112.39    6.40
   0   5   6  115.09    7.10
   5   0   6   93.39    6.00
  -5   0   6   93.89    6.00
   0  -5   6   99.69    7.50
  -5   0   6  106.89    7.50
   1   5  -6   23.10    4.30
   1   5  -6   23.20    4.30
  -1  -5  -6   26.90    4.00
  -1  -5  -6   23.20    3.10
   5  -1  -6   28.50    4.60
   1   5   6   29.40    3.60
  -5   1   6   24.70    3.20
   5  -1   6   30.80    4.00
  -5   1   6   32.10    4.60
  -1  -5   6   22.20    3.80
   2   5  -6   75.39    6.80
   5  -2  -6   76.99    7.20
   2   5  -6   71.19    6.90
   2   5   6   64.69    5.20
  -2  -5   6   64.19    6.70
  -5   2   6   72.69    6.60
  -5   2   6   70.09    5.70
   5  -2   6   71.19    7.10
   2   5   6   74.89    5.90
   5  -3  -6   23.10    4.90
   3   5  -6   12.10    4.50
   3   5  -6   12.30    4.00
  -5   3  -6   15.70    3.90
   3   5   6   14.50    2.90
   3   5   6   13.40    3.70
  -5   3   6   18.70    3.60
  -3  -5   6   14.20    4.20
   5  -3   6   24.90    5.30
  -5   3   6   15.80    4.10
   4   5  -6   37.20    5.30
  -4  -5   6   16.30    4.60
   5  -4   6   32.30    6.40
   6   3  -6   13.50    4.70
   3  -6  -6   18.90    5.40
   6   2  -6  174.58   10.60
   2  -6  -6  194.78   11.80
  -2   6   6  180.98   11.30
  -6  -2   6  167.48   11.60
   1  -6  -6   31.10    5.20
   6   1  -6   18.60    4.20
   1  -6   6   16.10    4.20
  -6  -1   6   18.20    4.30
   6   1   6   18.50    5.10
   6   0  -6  256.17   13.30
   0   6  -6  240.18   13.10
   0  -6  -6  243.78   13.20
   0  -6  -6  231.28   11.80
   0  -6   6  268.47   13.90
  -6   0   6  235.68   13.10
   0   6   6  255.67   12.40
   1   6  -6   23.00    4.60
  -1  -6  -6   36.50    5.00
   6  -1  -6   27.90    5.30
   1   6  -6   27.40    5.40
  -6   1   6   12.10    3.60
   1   6   6   20.80    3.70
   6  -1   6   23.20    4.40
  -1  -6   6   19.20    4.40
  -6   1   6   17.90    4.60
   2   6  -6  190.28   11.50
   6  -2  -6  187.28   11.60
   6  -2   6  174.98   10.90
  -2  -6   6  183.78   11.70
   2   6   6  177.58    9.90
   3   6  -6   13.60    5.10
   6  -3  -6   17.20    5.50
   3   6   6   10.30    3.30
   6  -3   6   12.10    6.40
  -3  -6   6   18.60    5.00
   0   0  -7    6.90    1.40
   0   0  -7    6.80    1.30
   0   0   7    3.40    1.40
   0   1  -7    5.50    1.30
   1   0  -7    5.30    1.50
   0  -1  -7    5.50    1.20
   1   0  -7    4.20    1.40
  -1   0  -7    4.00    1.10
   0  -1  -7    6.10    1.40
   0  -1   7    5.30    1.10
   0   1   7    2.30    1.00
  -1   0   7    5.10    1.60
   0  -1   7    3.70    1.70
   1   0   7    5.20    1.40
   1   0   7    5.60    1.50
   0   1   7    3.40    1.40
   1   1  -7  666.03   27.40
   1  -1  -7  692.03   27.20
   1   1  -7  710.23   27.40
   1  -1  -7  721.93   27.00
  -1   1  -7  703.43   27.00
   1   1  -7  675.63   26.90
  -1  -1  -7  696.93   26.70
  -1  -1  -7  708.23   26.60
   1   1   7  713.23   26.80
  -1   1   7  699.83   26.90
   1  -1   7  712.43   27.10
   1   1   7  700.13   27.00
   1  -1   7  702.03   27.40
  -1   1   7  737.63   27.20
   2   1  -7    0.30    1.20
  -1   2  -7    2.00    1.60
   2   1  -7    2.40    1.60
   1  -2  -7    2.50    1.50
   2   1  -7    0.80    1.50
   1  -2  -7    2.00    1.30
  -1   2   7    0.00    1.40
   2   1   7    1.30    1.20
  -1   2   7    2.70    1.50
   1  -2   7    1.10    1.80
   2   1   7    0.90    1.40
   0   2  -7    6.10    1.70
   2   0  -7    6.30    1.80
   2   0  -7    5.30    1.40
   2   0  -7    7.40    1.90
   0   2  -7    4.80    1.60
   0  -2  -7   15.30    2.00
  -2   0  -7    6.20    1.40
   0  -2  -7    6.80    1.40
   0  -2   7    7.50    2.20
   0   2   7    7.80    1.40
   0   2   7    5.40    1.60
   2   0   7    7.10    1.90
   2   0   7    6.60    1.60
   2  -1  -7    2.10    1.60
   1   2  -7    1.50    1.60
   1   2  -7    2.60    1.30
  -1  -2  -7    0.90    1.00
  -1  -2  -7    3.50    1.40
   2  -1  -7    3.70    1.60
  -2   1  -7    1.60    1.40
   2  -1  -7    1.90    1.20
   2  -1   7    2.50    1.70
   1   2   7    2.40    1.30
  -2   1   7    3.10    1.60
   1   2   7    0.90    1.20
   2  -1   7    2.80    1.70
   2  -2  -7    8.40    2.10
  -2   2  -7    4.90    1.50
   2  -2  -7    7.20    1.80
   2   2  -7   10.50    2.30
  -2   2  -7    7.00    1.90
   2   2  -7    5.60    2.20
   2   2   7    5.80    1.50
   2  -2   7    7.90    2.40
   2   2   7    9.00    2.00
  -2   2   7    7.00    2.00
  -2   2   7    6.50    1.70
   3   2  -7    3.30    2.20
  -2   3  -7   -0.30    2.00
   2  -3  -7    2.90    2.10
  -2   3  -7    2.30    1.80
   2  -3  -7    2.20    1.70
   3   2   7    3.90    2.30
  -2   3   7    1.60    1.60
   2  -3   7    2.30    2.70
  -2   3   7    0.10    2.00
   3   1  -7  333.97   14.50
   3   1  -7  344.47   14.60
   1  -3  -7  303.67   14.20
  -1   3  -7  328.27   13.70
   1  -3  -7  342.07   13.80
   3   1   7  331.07   14.20
  -1   3   7  333.67   13.90
   3   1   7  320.57   13.20
  -1   3   7  340.47   13.90
   3   0  -7    3.60    2.10
   0   3  -7    5.40    1.70
   0  -3  -7    9.10    1.80
   3   0  -7    9.50    2.30
   0  -3  -7    7.80    1.90
   3   0   7    5.00    1.90
   3   0   7    4.10    2.20
   3   0   7    6.80    2.30
  -3   0   7    3.40    2.00
   0   3   7    6.50    1.80
   3  -1  -7  323.37   14.00
  -1  -3  -7  304.77   12.70
   1   3  -7  330.87   12.90
  -1  -3  -7  319.87   13.20
   3  -1  -7  310.07   12.90
   1   3  -7  296.87   13.80
  -3   1  -7  333.17   13.20
   3  -1  -7  332.07   13.90
   1   3   7  297.07   13.00
   1   3   7  316.87   13.00
  -3   1   7  321.27   13.00
  -3   1   7  313.87   13.70
   3  -1   7  302.97   13.90
   3  -1   7  315.17   13.50
   2   3  -7    3.60    2.30
   3  -2  -7    1.40    2.20
   2   3  -7    5.30    2.70
   3  -2  -7    2.50    1.70
   3  -2  -7    1.60    2.20
  -3   2  -7    4.60    2.10
  -3   2   7    0.40    1.70
   2   3   7    2.50    2.10
  -3   2   7    1.50    2.20
   2   3   7    1.70    1.40
   3  -2   7    5.30    2.70
   3  -3  -7  169.58    8.50
   3   3  -7  172.38    9.50
   3   3  -7  156.38    9.30
  -3   3  -7  167.68    8.90
   3  -3  -7  166.78    9.40
   3   3   7  171.08    9.00
  -3   3   7  164.68    9.00
   3  -3   7  199.08   10.00
  -3   3   7  166.48    8.40
   3  -4  -7   -1.30    2.40
  -3   4  -7   -3.20    3.00
  -3   4  -7   -1.40    2.90
   3  -4  -7    2.30    3.40
   4   3  -7    0.40    3.10
   4   3   7   -2.60    3.10
  -3   4   7    2.60    3.10
  -3   4   7    1.00    2.40
   4   2  -7    6.60    3.20
  -2   4  -7    5.90    2.80
   2  -4  -7    4.80    2.40
   2  -4  -7    6.10    2.80
  -2   4   7    7.00    2.90
   4   2   7    9.80    3.30
   2  -4   7    4.00    2.30
   1  -4  -7   -0.80    2.30
  -1   4  -7   -1.50    2.10
   1  -4  -7    1.30    1.80
   4   1  -7   -2.90    2.40
   1  -4   7   -0.60    2.30
  -1   4   7    0.50    2.10
  -1   4   7    2.90    2.40
   4   1   7    0.70    2.60
   4   0  -7    6.90    2.70
   0  -4  -7    6.30    2.50
   0   4  -7   11.80    2.40
   0  -4  -7    7.60    2.10
   4   0  -7    8.50    2.80
   0   4   7    4.20    2.20
   4   0   7   11.70    2.40
   4   0   7    3.80    2.40
  -4   0   7   11.50    3.10
   4  -1  -7    0.30    2.30
  -1  -4  -7   -1.50    1.50
  -1  -4  -7    0.60    2.10
   4  -1  -7    3.50    2.40
   1   4  -7    2.80    2.50
   4  -1   7   -0.60    2.30
  -4   1   7   -0.90    2.30
  -4   1   7   -0.50    1.80
   4  -1   7   -0.60    2.40
   1   4   7   -0.60    1.90
   4  -2  -7    4.20    2.90
  -4   2  -7    5.50    2.60
   4  -2  -7    4.00    3.10
   2   4  -7    9.20    3.40
   2   4  -7    7.40    3.20
   4  -2   7   11.50    3.40
   2   4   7    6.50    2.20
  -4   2   7    9.50    3.00
   4  -2   7    5.20    2.90
   2   4   7   -0.70    2.40
  -4   2   7    8.40    2.60
  -4   3  -7   -2.40    2.70
   4  -3  -7    3.00    3.30
   3   4  -7    0.00    3.30
   3   4  -7   -1.10    3.00
   3   4  -7   -5.20    3.40
   3   4   7    0.80    1.80
  -4   3   7    1.10    2.60
   3   4   7    0.00    2.80
  -4   3   7    4.20    3.20
   4  -3   7   -1.10    3.70
   4   4  -7    6.10    4.00
   4  -4  -7   10.30    4.20
  -4   4  -7    4.50    3.70
  -4   4   7    6.00    3.90
   4  -4   7   10.50    5.10
  -4   4   7    9.40    3.10
   4   4   7    6.60    3.70
   5   4  -7    1.40    4.30
   4  -5  -7   -7.20    4.00
   3  -5  -7   50.89    5.20
   5   3  -7   59.29    6.60
   3  -5  -7   67.69    6.70
  -3   5  -7   50.79    5.70
   5   3   7   56.99    6.50
  -3   5   7   49.20    5.80
   2  -5  -7    2.20    3.40
  -2   5  -7    0.80    3.10
   2  -5  -7   -2.80    2.20
   5   2  -7    2.80    3.80
  -2   5   7    2.50    3.20
   5   2   7    3.10    3.80
   2  -5   7    0.90    2.60
   1  -5  -7   89.29    6.30
  -1   5  -7  100.59    6.70
   1  -5  -7   90.59    7.30
   5   1  -7   92.69    7.50
   5   1   7  104.79    8.10
  -5  -1   7   99.29    7.90
   1  -5   7  104.39    7.90
  -1   5   7   97.39    7.20
   5   0  -7    2.80    3.10
   5   0  -7    2.60    4.00
   0  -5  -7    3.40    2.20
   0  -5  -7    7.20    3.20
   0   5   7    2.90    2.80
   0  -5   7    3.00    2.90
  -5   0   7    2.40    3.20
   5   0   7    2.70    2.50
   5  -1  -7   95.49    7.70
   1   5  -7   79.29    7.50
   5  -1  -7   94.09    7.90
  -1  -5  -7   97.09    6.90
   1   5  -7   79.69    7.30
   1   5   7   84.69    6.40
   5  -1   7   87.79    7.00
  -1  -5   7  105.19    7.70
  -5   1   7   92.59    7.90
  -5   1   7  106.59    6.30
   2   5  -7    0.90    3.50
   5  -2  -7    6.20    3.60
   5  -2  -7    1.30    3.60
   2   5  -7    9.00    3.80
   5  -2   7    4.70    3.80
  -5   2   7    5.50    3.40
  -5   2   7    3.50    2.70
   2   5   7    1.80    2.50
   3   5  -7   60.19    6.40
   3   5  -7   64.09    7.10
   5  -3  -7   46.60    9.40
   3   5  -7   52.59    6.20
  -5   3  -7   56.79    5.70
   3   5   7   38.10    5.10
  -5   3   7   55.09    6.00
  -5   3   7   47.50    5.10
   3   5   7   48.70    4.70
   5  -3   7   63.09    7.20
   4   5  -7    1.00    4.40
   5  -4   7    3.50    5.20
   2  -6  -7    7.70    4.30
   6   2  -7    9.50    4.20
   6   1  -7    4.00    3.90
   1  -6  -7   -3.70    3.80
   1  -6   7   -0.30    3.90
  -6  -1   7    6.50    4.00
   0  -6  -7    3.40    3.90
   0   6  -7    0.50    3.60
   6   0  -7    1.00    3.90
   0  -6   7    5.20    4.10
  -6   0   7    7.20    4.00
   0   6   7    4.40    3.00
  -1  -6  -7    1.30    3.60
   1   6  -7    4.90    4.10
   6  -1  -7    2.80    4.10
   1   6   7    1.90    3.00
   6  -1   7    1.10    3.70
  -1  -6   7    2.60    3.80
  -6   1   7   -6.50    3.60
   6  -2  -7    0.80    4.40
   2   6  -7    6.60    4.40
   2   6   7    3.00    3.00
   6  -2   7    1.80    4.60
  -2  -6   7    2.10    4.10
  -3  -6   7   -2.60    6.40
   0   0  -8   96.79    5.00
   0   0  -8   94.99    4.90
   0   0   8   97.59    5.30
   0  -1  -8 1059.29   40.40
   0  -1  -8 1062.29   40.70
  -1   0  -8 1107.09   40.50
   1   0  -8 1023.70   41.00
   1   0  -8 1043.00   40.50
   0   1  -8 1163.18   40.70
   1   0  -8 1019.90   40.80
   0  -1   8 1025.30   41.10
   1   0   8 1073.79   40.90
   0   1   8 1062.29   40.80
   0   1   8 1092.09   41.00
   1   0   8 1141.09   40.80
  -1   0   8 1042.70   41.00
   0  -1   8 1057.69   40.20
   1   1  -8 2463.85   89.39
  -1  -1  -8 2280.07   88.59
   1  -1  -8 2376.96   88.89
  -1  -1  -8 2343.07   88.69
   1   1  -8 2522.95   89.39
   1  -1  -8 2220.58   89.19
   1   1  -8 2301.07   88.89
  -1   1  -8 2434.86   88.89
   1   1   8 2392.86   88.69
   1  -1   8 2480.65   89.09
  -1   1   8 2389.16   89.19
  -1   1   8 2400.26   88.79
   1  -1   8 2332.27   89.39
   1   1   8 2412.76   88.99
   2   1  -8  779.32   29.60
   2   1  -8  741.63   30.30
   1  -2  -8  818.62   29.90
   2   1  -8  727.53   30.30
   1  -2  -8  774.82   30.20
  -1   2  -8  788.12   30.00
   2   1   8  811.22   29.70
  -1   2   8  747.43   30.10
  -1   2   8  797.22   29.70
   1  -2   8  742.73   30.50
   2   1   8  762.02   29.90
  -2   0  -8   54.49    3.60
   2   0  -8   55.29    4.30
   2   0  -8   54.39    4.30
   0   2  -8   57.19    3.90
   0  -2  -8   61.69    4.00
   2   0  -8   61.59    3.80
   0  -2  -8   59.59    3.60
   2   0   8   53.29    4.00
   0   2   8   48.40    3.80
   2   0   8   71.59    4.60
  -1  -2  -8  735.73   30.40
  -1  -2  -8  786.02   30.20
   1   2  -8  773.52   30.40
   2  -1  -8  762.32   30.60
   1   2  -8  786.42   31.20
   1   2  -8  793.02   31.30
   2  -1  -8  859.01   31.40
  -2   1  -8  820.52   30.70
   2  -1  -8  766.92   31.20
   1   2   8  839.42   30.50
  -2   1   8  775.92   30.80
   2  -1   8  777.62   31.00
   1   2   8  836.22   30.40
   2  -1   8  802.42   31.10
   2  -2  -8   38.70    3.40
  -2   2  -8   40.20    3.50
   2  -2  -8   39.10    3.80
   2   2  -8   31.30    3.50
   2   2  -8   33.90    3.90
  -2   2   8   39.60    3.60
   2   2   8   34.20    3.30
   2  -2   8   36.70    4.00
   2   2   8   35.90    3.10
  -2   3  -8  407.76   17.20
   2  -3  -8  439.36   17.90
   3   2  -8  425.66   17.90
   2  -3  -8  385.46   17.10
   3   2   8  424.06   17.50
  -2   3   8  396.96   17.30
   2  -3   8  413.56   18.20
   1  -3  -8 1040.30   40.50
  -1   3  -8 1041.40   40.50
   3   1  -8 1062.19   41.20
   3   1  -8 1126.29   41.40
   1  -3  -8 1032.60   41.00
   3   1   8 1040.20   40.90
  -1   3   8 1063.79   40.50
   3   1   8 1048.40   40.00
  -1   3   8 1048.40   40.70
   0  -3  -8  499.85   19.80
   0   3  -8  555.34   19.90
   3   0  -8  502.75   20.60
   3   0  -8  513.15   20.80
   0  -3  -8  459.25   20.10
   0   3   8  469.65   20.00
   3   0   8  498.45   19.90
  -3   0   8  485.35   20.40
   3   0   8  480.85   20.60
   3  -1  -8 1099.29   40.70
   3  -1  -8  976.50   41.50
  -3   1  -8 1122.09   40.90
  -1  -3  -8 1032.30   40.90
   1   3  -8 1069.79   40.50
   3  -1  -8 1054.99   41.60
  -1  -3  -8 1067.79   40.50
   1   3  -8 1136.49   41.70
   3  -1   8 1038.20   41.20
  -3   1   8 1059.09   41.30
   3  -1   8 1012.10   41.40
   1   3   8 1123.49   40.90
  -3   2  -8  387.96   15.90
   2   3  -8  415.96   16.90
   3  -2  -8  365.36   16.70
   3  -2  -8  382.96   15.80
   2   3  -8  344.27   16.30
   2   3  -8  365.26   16.80
   2   3   8  362.66   15.30
   3  -2   8  371.76   16.50
  -3   2   8  394.26   16.40
   3  -2   8  391.06   16.70
  -3   2   8  364.66   15.60
   2   3   8  394.56   15.90
   3  -3  -8  530.25   22.70
   3  -3  -8  533.95   21.90
  -3   3  -8  528.15   22.00
   3   3  -8  520.75   22.90
  -3   3   8  516.95   22.30
   3   3   8  541.55   22.30
   3  -3   8  580.54   23.20
  -3   3   8  526.05   21.60
   3  -4  -8  187.68    9.80
  -3   4  -8  172.88   10.00
   3  -4  -8  199.98   11.00
   4   3  -8  186.28   10.90
   4   3   8  193.18   10.60
  -3   4   8  175.68   10.30
   2  -4  -8    7.70    3.00
   2  -4  -8   12.20    2.60
  -2   4  -8   12.30    3.20
   4   2  -8    8.80    3.60
   4   2   8    8.20    3.40
  -2   4   8   11.50    3.20
   4   1  -8  358.56   16.60
   1  -4  -8  365.86   16.20
   1  -4  -8  340.87   15.30
  -1   4  -8  350.96   15.30
   4   1   8  367.66   16.30
  -1   4   8  370.16   15.90
  -1   4   8  361.56   17.80
   4   0  -8   11.50    3.10
   0   4  -8   17.40    2.80
   0  -4  -8   14.10    3.00
   0  -4  -8   13.80    2.50
   4   0  -8   18.80    3.60
  -4   0   8   13.80    3.30
   4   0   8   12.00    3.20
   4   0   8   12.80    2.80
   0   4   8   12.90    2.80
  -1  -4  -8  360.46   15.40
   4  -1  -8  376.66   16.30
   1   4  -8  367.16   16.40
   4  -1  -8  364.56   16.30
  -1  -4  -8  379.76   15.60
   1   4   8  349.47   15.20
   4  -1   8  309.97   16.00
  -4   1   8  349.17   16.10
   4  -1   8  373.96   15.80
   2   4  -8    9.00    3.50
  -4   2  -8    2.70    3.00
   2   4  -8    9.70    3.60
   4  -2  -8   11.10    3.60
   4  -2  -8    8.60    3.50
   4  -2   8   13.50    3.90
  -4   2   8   13.20    3.70
  -4   2   8    9.20    2.70
   2   4   8   10.20    2.40
   2   4   8   12.30    3.00
   3   4  -8  207.58   11.70
  -4   3  -8  202.38   10.40
   4  -3  -8  203.48   11.60
   3   4  -8  173.28   10.90
  -4   3   8  181.68   10.80
   3   4   8  184.08    8.90
   3   4   8  206.98   10.50
   4  -3   8  197.48   11.70
  -4   3   8  199.48    9.90
   4   4  -8    6.80    4.20
   4  -4  -8    5.20    4.20
  -4   4  -8    3.40    3.90
   4   4   8    2.30    3.60
  -4   4   8    5.80    4.00
   4  -4   8    9.50    5.50
  -4   4   8    5.90    3.10
   4  -5  -8   50.19    6.80
   5   4  -8   49.10    7.10
   3  -5  -8  174.28   11.00
   5   3  -8  162.98   11.00
   5   3   8  149.29   10.50
  -3   5   8  151.88   10.20
   5   2  -8   99.29    8.90
   2  -5  -8  111.49    7.30
  -2   5  -8  102.99    7.40
   2  -5  -8  106.29    8.50
  -2   5   8  109.69    8.00
   5   2   8  105.99    8.70
   1  -5  -8  264.87   13.80
   1  -5  -8  278.57   12.90
  -1   5  -8  279.77   12.80
   5   1  -8  280.97   14.10
  -5  -1   8  280.77   14.40
  -1   5   8  281.07   13.60
   5   1   8  268.97   14.10
   5   0  -8  130.49    8.80
   5   0  -8  116.49    8.80
   0  -5  -8  133.89    7.50
   0  -5  -8  125.39    8.40
   5   0   8  131.09    7.30
   0   5   8  135.99    8.30
  -5   0   8  135.49    9.10
   5  -1  -8  285.47   14.10
  -1  -5  -8  296.97   13.60
   5  -1  -8  307.57   14.70
   1   5  -8  281.37   14.20
   1   5  -8  289.07   17.30
  -5   1   8  273.97   14.40
   1   5   8  267.37   13.20
   5  -1   8  283.47   13.60
   2   5  -8  110.59    8.20
   2   5  -8  114.39    8.80
   5  -2  -8  115.49    8.50
   5  -2  -8  106.69    8.90
  -5   2   8  113.49    8.50
  -5   2   8  112.29    7.40
   5  -2   8   97.49    8.70
   2   5   8  100.69    6.70
   3   5  -8  180.28   10.80
   3   5  -8  146.89   10.30
  -5   3  -8  162.98   11.20
   3   5  -8  157.88   11.10
   5  -3  -8  152.68   10.50
  -5   3   8  153.08   10.20
   3   5   8  138.49   11.20
   5  -3   8  156.38   11.30
   4   5  -8   52.49    7.30
   5  -4  -8   57.59    7.60
   5  -4   8   60.99    7.90
   6   2  -8    0.10    4.40
   2  -6  -8    2.50    4.40
   6   1  -8  103.89    9.20
   1  -6  -8  122.29    9.50
   0  -6  -8    0.40    3.90
   6   0  -8    1.90    4.30
   0   6   8    3.30    3.30
   0  -6   8    9.50    4.40
  -1  -6  -8  139.29    9.70
   6  -1  -8  102.49    9.40
   1   6   8   99.39    7.40
   6  -1   8   99.99    8.00
   2   6  -8   -0.80    4.50
   6  -2  -8    3.00    4.30
   2   6   8    1.10    3.00
   6  -2   8    3.40    4.40
  -2  -6   8    3.00    4.00
   0   0  -9   15.00    2.20
   0   0  -9   18.90    2.20
   0   0   9   13.80    2.30
  -1   0  -9   26.40    2.50
   0   1  -9   32.60    2.80
   1   0  -9   25.80    2.60
   0  -1  -9   24.70    2.60
   1   0  -9   23.60    2.70
   0  -1  -9   26.70    2.50
   0  -1   9   22.20    3.00
  -1   0   9   24.60    3.00
   0   1   9   24.80    2.80
   1   0   9   24.90    2.90
  -1  -1  -9  272.97   11.50
   1  -1  -9  273.57   11.80
   1   1  -9  286.07   12.30
   1   1  -9  275.37   11.80
   1  -1  -9  265.07   12.20
  -1   1  -9  278.27   11.80
   1   1  -9  297.37   12.80
   1   1   9  285.47   11.60
  -1   1   9  283.67   11.70
   1  -1   9  286.27   11.90
   1   1   9  282.97   12.00
  -1   1   9  290.67   12.30
   1  -1   9  265.67   12.40
  -1   2  -9   15.20    2.70
   2   1  -9   19.50    3.00
   2   1  -9   14.80    2.30
   2   1  -9   17.00    2.80
   1  -2  -9   19.80    2.90
   1  -2  -9   14.00    2.20
   2   1   9   12.90    2.30
   1  -2   9   20.00    3.30
   2   1   9   23.30    3.00
  -1   2   9   21.10    2.50
  -1   2   9   18.70    2.70
   2   0  -9    5.90    1.70
   0  -2  -9    6.30    2.00
   2   0  -9   10.30    2.40
   0  -2  -9   14.20    2.10
   2   0  -9   11.20    2.50
   0   2  -9   10.30    2.20
  -2   0  -9    7.30    1.80
   0   2   9   11.30    2.20
   2   0   9    8.70    2.20
   2   0   9   10.20    2.40
   1   2  -9   24.00    3.40
  -1  -2  -9   16.00    2.00
   1   2  -9   17.00    2.50
   2  -1  -9   23.00    3.10
   2  -1  -9   13.30    2.20
  -1  -2  -9   17.50    2.60
  -2   1  -9   14.60    2.50
   2  -1   9   16.10    2.80
   2  -1   9   22.90    3.00
  -2   1   9   18.70    2.70
   1   2   9   17.80    2.40
   2  -2  -9    4.10    2.00
   2   2  -9    6.50    2.70
   2  -2  -9    4.80    2.40
  -2   2  -9    5.30    2.40
  -2   2   9    7.20    2.60
   2   2   9    3.20    2.20
   2   2   9    4.50    2.00
   2  -2   9    7.30    2.80
  -2   3  -9    7.20    2.60
   3   2  -9    5.60    2.90
   2  -3  -9   15.20    3.30
   2  -3  -9    5.80    2.40
   3   2   9    4.40    2.80
  -2   3   9   13.40    3.00
   3   2   9    6.60    2.00
   2  -3   9    7.80    3.50
   1  -3  -9  133.09    7.70
   3   1  -9  143.09    8.20
   1  -3  -9  134.09    7.10
  -1   3  -9  131.49    7.30
   3   1  -9  148.49    8.20
  -1   3   9  137.69    7.60
   3   1   9  137.99    7.90
   3   1   9  133.09    6.70
   3   0  -9    9.60    2.80
   0  -3  -9    8.90    2.60
   0  -3  -9   14.80    2.30
   0   3  -9   15.60    2.60
   3   0  -9   17.80    3.20
   0   3   9   15.60    2.80
   3   0   9   13.30    3.00
  -3   0   9   17.70    3.20
   3   0   9   15.00    2.80
   1   3  -9  132.89    8.00
  -3   1  -9  118.79    7.10
   1   3  -9  137.09    6.80
  -1  -3  -9  139.59    6.70
   3  -1  -9  131.99    7.90
  -1  -3  -9  141.39    7.40
   3  -1  -9  142.19    8.00
   3  -1  -9  129.19    6.90
   1   3   9  121.69    7.00
   3  -1   9  126.59    7.70
  -3   1   9  131.39    7.60
   3  -1   9  138.39    7.90
   2   3  -9   12.10    3.40
   3  -2  -9   11.10    3.30
   2   3  -9   10.70    3.20
   2   3  -9    6.10    3.10
  -3   2  -9   13.10    3.00
   3  -2  -9   12.50    2.40
  -3   2   9   13.20    3.30
   2   3   9    9.10    2.70
   3  -2   9   12.10    3.60
   3  -2   9   12.90    3.20
   2   3   9    9.70    2.40
   3  -3  -9   73.59    5.60
   3   3  -9   80.59    7.10
   3  -3  -9   82.99    7.00
  -3   3  -9   67.59    5.60
   3   3   9   65.19    4.50
   3  -3   9   76.19    7.50
  -3   3   9   65.29    6.30
   3   3   9   73.69    6.20
   4   3  -9   10.10    4.30
  -3   4  -9    3.70    3.50
   3  -4  -9    4.50    2.80
   3  -4  -9    5.80    3.90
   4   3   9    8.20    3.80
  -3   4   9    6.50    3.50
   4   2  -9    5.30    3.80
   2  -4  -9    3.50    3.10
   2  -4  -9   -0.10    2.40
  -2   4  -9    1.90    3.00
   4   2   9    5.00    3.50
  -2   4   9   10.60    3.30
   4   1  -9   13.50    3.90
   1  -4  -9   11.20    3.20
  -1   4  -9    9.80    3.20
   1  -4  -9    3.50    2.50
  -1   4   9    7.80    3.00
   1  -4   9   11.00    3.30
   4   1   9    6.90    3.60
   0   4  -9    4.00    2.60
   0  -4  -9    2.90    2.10
   4   0  -9    1.70    3.00
   0  -4  -9    3.20    2.80
   4   0  -9    6.10    3.20
   4   0   9    4.10    2.90
   0   4   9    5.10    2.70
  -4   0   9    2.80    3.00
   4   0   9    2.90    2.60
   4  -1  -9    7.20    3.30
   4  -1  -9    8.00    3.30
  -1  -4  -9   11.10    3.10
   1   4   9    8.70    2.70
   4  -1   9   12.40    3.50
  -4   1   9    8.50    3.40
   4  -1   9    7.10    3.30
  -4   2  -9    1.00    2.80
   2   4  -9   -0.90    3.50
   4  -2  -9    2.90    3.30
   2   4  -9    2.50    3.20
   2   4  -9    6.00    3.50
  -4   2   9   -3.60    3.20
   4  -2   9   -1.70    3.70
   2   4   9    0.70    2.20
  -4   3  -9    6.40    3.50
   3   4  -9    7.80    4.00
   4  -3  -9    3.50    3.90
   4  -3   9    6.40    4.90
   3   4   9    6.00    3.60
   3   4   9    6.50    2.40
  -4   3   9    9.40    3.80
   4   4  -9   -0.40    4.10
   4  -4  -9   -0.10    4.20
   4  -4   9    7.90    5.50
   4   4   9   -1.50    3.90
  -4   4   9    4.10    3.70
   3  -5  -9   27.10    5.60
   5   3  -9   29.50    5.70
  -3   5   9   24.70    6.10
   5   2  -9    5.40    4.50
   2  -5  -9    4.70    3.80
   2  -5  -9    3.50    2.80
  -2   5  -9    2.70    3.60
   5   2   9    5.90    4.50
   5   1  -9   45.50    6.00
  -1   5  -9   43.30    4.70
   1  -5  -9   38.40    4.30
   1  -5  -9   39.90    5.40
  -1   5   9   48.30    5.30
  -5  -1   9   37.80    5.80
   1  -5   9   30.80    5.00
   5   0  -9    4.60    3.80
   0  -5  -9    4.90    2.60
   0  -5  -9   10.00    3.60
   5   0  -9    0.30    3.70
   0  -5   9    2.40    3.60
   0   5   9    3.70    3.10
   5   0   9    7.40    3.00
  -5   0   9    9.90    4.00
   5  -1  -9   37.80    5.10
   5  -1  -9   26.20    5.10
  -1  -5  -9   54.19    8.00
   1   5  -9   41.20    5.40
  -1  -5   9   36.80    5.20
   5  -1   9   41.50    5.10
   1   5   9   40.00    4.60
  -5   1   9   41.70    5.80
   2   5  -9   10.30    4.40
   2   5  -9   -1.20    3.60
   5  -2  -9    7.40    3.90
   5  -2  -9    7.40    4.80
   5  -2   9    5.10    4.40
  -5   2   9   -1.50    3.50
   2   5   9    2.20    2.90
   5  -3  -9   26.80    5.40
   3   5  -9   29.40    6.10
   3   5  -9   30.80    5.90
   3   5   9   17.80    3.10
   5  -3   9   34.70    6.40
   5  -4  -9   -1.20    5.90
   2  -6  -9   -5.00    4.70
   6   1  -9    4.20    4.70
   1  -6  -9    4.30    4.30
   1  -6   9   11.70    5.50
   6   0  -9   -3.20    4.60
   0  -6  -9    4.40    4.10
   0   6   9    3.10    3.30
   0  -6   9    2.50    4.20
   6  -1  -9    5.80    4.80
  -1  -6   9    4.90    4.30
   6  -1   9    0.40    3.80
   1   6   9    2.90    3.10
   2   6  -9   -2.70    5.40
  -2  -6   9    2.00    5.00
   0   0 -10 2257.37   83.89
   0   0 -10 2285.57   83.89
   0   0  10 2170.98   84.29
  -1   0 -10  211.98    9.40
   1   0 -10  202.08    9.40
   0  -1 -10  202.78    9.50
   0  -1 -10  204.88    9.40
   0   1 -10  224.28    9.60
   1   0 -10  216.48    9.90
   0   1  10  210.08    9.80
   1   0  10  206.78    9.80
   0  -1  10  216.48   10.30
   1   1 -10  200.28    9.60
   1   1 -10  213.28   10.20
   1  -1 -10  217.88   10.10
   1  -1 -10  220.98    9.60
  -1   1 -10  214.68    9.70
  -1  -1 -10  217.68    9.40
   1  -1  10  218.18    9.60
   1   1  10  205.78    9.90
  -1   1  10  198.98    9.30
  -1   1  10  212.38   10.10
   1  -1  10  221.78   10.40
   2   1 -10  126.99    7.60
   1  -2 -10  133.19    7.50
   2   1 -10  129.39    6.90
   2   1 -10  138.59    7.80
   1  -2 -10  131.69    7.00
  -1   2 -10  133.79    7.30
   2   1  10  142.59    7.30
   2   1  10  131.49    7.00
   1  -2  10  144.39    8.30
  -1   2  10  128.79    7.40
   0  -2 -10 1567.64   60.09
   0   2 -10 1575.54   59.99
   0  -2 -10 1678.13   59.89
  -2   0 -10 1522.75   59.69
   2   0 -10 1554.04   60.39
   2   0 -10 1627.54   59.89
   0   2  10 1557.24   60.09
   2   0  10 1582.74   60.19
  -1  -2 -10  138.59    6.70
   2  -1 -10  136.59    7.80
   2  -1 -10  130.59    7.00
   1   2 -10  140.69    7.00
  -2   1 -10  131.19    7.30
   2  -1  10  137.69    7.80
   1   2  10  133.39    7.00
   2  -1  10  126.79    7.40
  -2   1  10  128.79    7.20
   2  -2 -10 1078.59   45.30
   2  -2 -10 1144.19   44.70
  -2   2 -10 1162.98   44.70
   2   2 -10 1215.08   45.40
  -2   2  10 1169.08   44.70
   2   2  10 1160.08   44.60
   2   2  10 1125.99   44.30
   2  -2  10 1188.38   45.00
   2  -2  10 1206.78   45.50
   2  -3 -10   78.99    6.60
   3   2 -10   89.89    6.90
   2  -3 -10   84.59    5.90
  -2   3 -10   75.89    6.20
   3   2  10   82.99    6.50
   2  -3  10   82.89    7.20
  -2   3  10   74.19    6.10
   3   2  10   76.29    5.00
   1  -3 -10  139.59    8.00
   3   1 -10  125.79    8.20
  -1   3 -10  127.99    7.50
   1  -3 -10  125.59    7.20
   3   1 -10  134.29    8.40
   3   1  10  133.99    7.00
  -1   3  10  137.39    7.90
   3   1  10  131.79    8.00
   0  -3 -10  115.29    7.10
   3   0 -10  121.89    7.60
   3   0 -10  110.89    7.40
   0  -3 -10  117.89    6.60
   0   3 -10  122.79    6.90
   0   3  10  117.39    7.10
   3   0  10  107.19    7.50
   3   0  10  118.89    6.80
  -3   0  10  120.59    7.50
  -3   1 -10  125.69    7.30
  -1  -3 -10  119.69    6.70
   3  -1 -10  112.89    7.90
   1   3 -10  145.89    7.10
   3  -1 -10  130.09    6.90
   1   3  10  130.79    7.20
   3  -1  10  138.49    8.00
   3  -1  10  117.99    7.80
  -3   1  10  123.29    7.70
   2   3 -10   81.79    7.00
  -3   2 -10   79.59    6.20
   3  -2 -10   88.79    7.10
   3  -2 -10   82.89    5.70
  -3   2  10   83.59    6.60
   3  -2  10   71.19    6.30
   3  -2  10   82.19    7.40
   2   3  10   73.29    5.40
   3  -3 -10   71.69    7.50
  -3   3 -10   88.29    6.80
   3   3 -10   88.29    7.50
   3  -3 -10   84.39    6.30
   3   3  10   80.29    5.30
   3  -3  10   79.49    7.90
   3   3  10   99.49    6.90
  -3   3  10   82.79    7.00
   3  -4 -10   27.10    5.10
   4   3 -10   27.90    5.40
   3  -4 -10   17.60    3.70
  -3   4 -10   24.20    4.40
  -3   4  10   18.90    4.10
   4   3  10   26.90    5.00
   4   2 -10  444.96   21.20
   2  -4 -10  482.75   20.10
  -2   4 -10  452.95   20.00
   2  -4 -10  473.55   20.80
   4   2  10  486.65   20.80
   1  -4 -10   28.90    3.60
  -1   4 -10   36.50    4.30
   1  -4 -10   41.30    4.90
   4   1 -10   30.10    5.10
   4   1  10   30.50    5.10
   1  -4  10   34.30    5.30
  -1   4  10   35.50    4.50
   4   1  10   34.90    3.40
   0   4 -10  632.54   24.70
   0  -4 -10  597.04   24.60
   4   0 -10  592.54   25.90
   4   0 -10  573.94   25.60
   0  -4 -10  656.93   25.50
   0   4  10  601.54   25.10
  -4   0  10  604.34   25.80
   4   0  10  629.74   24.70
   4  -1 -10   33.60    4.90
   4  -1 -10   39.20    5.10
  -4   1  10   36.80    4.90
   1   4  10   29.40    3.70
   4  -1  10   50.79    5.20
   2   4 -10  437.36   19.70
   4  -2 -10  450.75   20.30
  -4   2 -10  453.25   20.00
   2   4 -10  443.56   20.40
   2   4 -10  457.65   20.70
   2   4  10  429.16   18.50
  -4   2  10  441.66   19.90
   4  -2  10  472.95   20.30
  -4   3 -10   22.40    4.50
   4  -3 -10   25.20    5.20
   3   4 -10   20.00    5.10
   3   4  10   17.10    3.00
   4  -3  10   30.20    6.00
  -4   3  10   28.30    4.90
   4   4 -10  198.58   12.40
   4  -4 -10  210.68   13.00
   4  -4  10  193.68   13.40
   3  -5 -10   23.50    5.40
   5   3 -10   26.30    5.70
   5   2 -10   32.20    6.10
   2  -5 -10   26.80    5.20
   5   2  10   31.70    5.80
  -1   5 -10   39.50    4.70
   1  -5 -10   44.80    5.70
   5   1 -10   43.40    6.20
   1  -5 -10   43.70    4.60
  -5  -1  10   41.50    6.10
  -1   5  10   31.60    5.20
   0  -5 -10   46.70    5.50
   5   0 -10   42.10    5.90
   5   0 -10   34.20    5.70
   0  -5 -10   30.60    3.90
   0  -5  10   39.10    5.50
   5   0  10   44.00    4.30
  -5   0  10   41.20    5.70
   0   5  10   35.40    4.70
   5  -1 -10   63.49    6.50
   1   5 -10   36.00    5.20
   5  -1 -10   37.40    6.10
  -5   1  10   42.40    6.00
   1   5  10   36.80    4.60
   5  -1  10   44.30    5.40
   2   5 -10   26.10    5.00
   5  -2 -10   26.60    5.40
   2   5 -10   40.10    6.20
   2   5 -10   39.20    6.60
  -5   2  10   20.30    5.00
   5  -2  10   28.40    5.60
   2   5  10   23.40    3.90
   5  -3 -10   30.10    5.60
   3   5 -10   33.20    6.10
   5  -3  10   33.40    6.60
   3   5  10   17.30    3.10
   1  -6 -10    5.60    4.60
   6   0 -10  131.49   11.10
   0  -6 -10  140.79   10.30
   0   6  10  154.48    9.40
   6  -1 -10   10.50    6.90
  -1  -6  10    4.20    4.40
   0   0 -11  441.06   18.30
   0   0 -11  432.06   18.20
   0   0  11  467.05   18.90
   0  -1 -11   61.29    4.70
   0   1 -11   69.29    4.80
   1   0 -11   64.49    4.70
  -1   0 -11   64.29    4.60
   1   0 -11   56.89    5.10
   0  -1 -11   67.59    4.70
   1   0  11   66.59    5.20
   0   1  11   64.89    5.20
   0  -1  11   59.69    5.30
   1  -1 -11  212.08    9.90
   1  -1 -11  195.18    9.30
   1   1 -11  190.88    9.90
  -1  -1 -11  203.88    9.20
   1   1 -11  197.78    9.50
  -1   1 -11  205.38    9.50
   1   1  11  193.88    9.70
   1  -1  11  199.88   10.20
  -1   1  11  185.18    9.80
   2   1 -11   48.30    4.50
  -1   2 -11   39.80    4.10
   2   1 -11   38.20    4.50
   1  -2 -11   38.10    4.50
   1  -2 -11   38.90    3.80
  -1   2  11   43.00    4.40
   2   1  11   42.10    4.10
   1  -2  11   48.70    5.20
   0  -2 -11  330.47   13.50
  -2   0 -11  321.67   13.40
   2   0 -11  306.27   13.40
   0   2 -11  300.67   13.60
   0  -2 -11  303.27   13.80
   2   0 -11  308.87   14.10
   0   2  11  319.17   13.90
   2   0  11  297.37   13.80
  -2   0  11  309.67   13.70
  -1  -2 -11   45.80    4.20
   2  -1 -11   51.79    4.50
  -2   1 -11   50.49    4.40
   2  -1 -11   44.00    4.50
   1   2 -11   48.90    4.20
   2  -1  11   41.90    4.40
  -2   1  11   46.40    4.30
   1   2  11   47.40    4.60
   2  -1  11   41.80    4.70
   2   2 -11  228.98   12.40
  -2   2 -11  203.88   10.60
   2  -2 -11  211.48   10.40
   2  -2 -11  221.88   11.40
   2   2  11  217.98   10.20
   2  -2  11  228.88   10.90
   2  -2  11  212.58   11.60
  -2   2  11  225.18   10.50
   2  -3 -11   29.80    4.70
  -2   3 -11   39.20    4.50
   2  -3 -11   29.00    3.80
   3   2 -11   34.70    4.90
   3   2  11   32.10    4.70
   2  -3  11   38.50    5.60
   3   2  11   31.90    3.40
   1  -3 -11  104.69    7.30
  -1   3 -11   94.99    6.90
   1  -3 -11   86.99    6.20
   3   1 -11   81.39    7.30
   3   1 -11  107.69    7.50
   3   1  11  114.49    6.40
  -1   3  11   89.59    7.00
   0  -3 -11   48.70    4.70
   3   0 -11   46.90    4.90
   0  -3 -11   40.00    4.00
   0   3 -11   44.20    4.40
   0   3  11   41.10    4.50
  -3   0  11   48.10    5.00
   3   0  11   41.30    4.40
  -3   1 -11   87.69    6.50
   1   3 -11   98.29    6.20
   3  -1 -11   88.19    7.20
  -1  -3 -11   96.69    6.00
   3  -1 -11  112.39    6.50
   3  -1  11  100.99    7.20
   3  -1  11   86.39    7.20
  -3   1  11   96.79    7.00
   1   3  11   93.89    6.50
   3  -2 -11   36.70    4.90
   3  -2 -11   28.20    3.80
  -3   2 -11   36.60    4.50
   2   3 -11   37.00    5.40
   2   3  11   31.00    3.70
  -3   2  11   30.30    4.60
   3  -2  11   40.30    5.50
   3  -2  11   27.50    4.30
  -3   3 -11   43.10    5.30
   3  -3 -11   49.99    6.10
   3  -3 -11   47.90    4.80
   3   3 -11   49.90    5.80
  -3   3  11   45.90    5.10
   3  -3  11   42.70    6.20
   3   3  11   49.90    4.70
   3  -4 -11    6.00    3.60
   3  -4 -11   13.80    5.00
   4   3 -11   18.80    5.10
  -3   4  11   14.60    4.50
   4   3  11    9.00    4.30
  -2   4 -11   81.59    7.40
   2  -4 -11   83.59    8.00
   2  -4 -11   94.19    7.10
   4   2 -11  101.79    8.40
   4   2  11   97.19    8.30
   1  -4 -11   11.10    3.10
   1  -4 -11   21.50    4.30
  -1   4 -11   20.00    4.00
   4   1 -11   19.00    4.80
  -1   4  11   18.40    4.00
  -4  -1  11   18.40    4.40
   4   1  11   13.90    3.00
   0  -4 -11  117.39    7.20
   4   0 -11  123.29    9.00
   4   0 -11  117.59    8.60
   0   4 -11  118.39    7.50
   0  -4 -11  127.49    8.30
   0   4  11  117.99    8.00
  -4   0  11  125.19    8.70
   4   0  11  116.39    7.70
   4  -1 -11   16.50    4.30
   1   4  11   15.10    3.60
   4  -1  11   13.00    4.20
  -4   1  11   11.90    4.10
  -4   2 -11   90.59    8.50
   4  -2 -11   89.49    8.20
  -4   2  11   90.69    7.70
   2   4  11   96.59    6.60
   4  -2  11   87.29    8.50
  -4   3 -11   10.30    5.10
   3   4 -11   14.90    5.00
   4  -3 -11   11.40    4.70
   4  -3  11   16.70    5.50
   3   4  11   13.90    3.00
  -4   3  11    2.00    4.10
   4  -4 -11   35.00    6.20
   4   4 -11   43.60    6.40
   4  -4  11   37.70    7.30
   3  -5 -11   15.10    5.60
   2  -5 -11   19.80    5.10
   5   2 -11   15.70    5.20
   1  -5 -11   30.40    5.30
   5   1 -11   28.00    5.50
  -1   5 -11   20.50    5.10
  -5  -1  11   37.20    5.90
   0  -5 -11   17.10    4.00
   5   0 -11   34.00    5.60
   5   0 -11   25.80    5.60
   0  -5 -11   26.30    5.00
   0  -5  11   22.80    5.00
   0   5  11   21.00    4.30
   5   0  11   19.60    3.70
  -5   0  11   23.00    5.20
   1   5 -11   24.20    4.80
   5  -1 -11   27.50    5.20
   5  -1 -11   13.00    5.60
   5  -1  11   26.60    4.90
  -5   1  11   20.80    5.40
   1   5  11   20.60    4.10
   5  -2 -11   10.50    5.00
   2   5  11   15.70    3.50
   5  -2  11   18.50    5.40
   3   5 -11   15.40    6.70
   5  -3 -11   14.70    5.20
   0   0 -12  286.97   12.60
   0   0 -12  286.37   12.80
   0   0  12  283.87   13.30
   0  -1 -12  398.96   17.10
   0   1 -12  398.66   17.00
  -1   0 -12  424.36   17.00
   0  -1 -12  397.26   16.90
   1   0 -12  394.96   16.90
   1   0 -12  411.06   17.40
   0  -1  12  428.06   18.40
   1   0  12  382.26   17.30
   0   1  12  404.26   17.40
   1   1 -12  204.18   10.30
  -1  -1 -12  203.58    9.90
   1  -1 -12  220.68   10.70
   1  -1 -12  210.28   10.10
  -1   1 -12  213.88   10.40
   1   1  12  225.78   10.70
   1  -1  12  222.88   11.10
   1  -2 -12  304.17   14.50
   2   1 -12  318.27   13.60
  -1   2 -12  302.37   13.90
   1  -2 -12  289.67   13.70
   2   1 -12  295.37   14.50
  -1   2  12  329.87   14.50
   1  -2  12  344.97   15.10
   2   1  12  293.77   13.80
   0  -2 -12  209.58   10.00
  -2   0 -12  200.28    9.90
   2   0 -12  225.88   10.10
   0  -2 -12  193.18   10.40
   0   2 -12  204.78   10.20
   2   0 -12  204.58   10.70
   2   0  12  211.78   10.40
  -2   0  12  217.68   10.40
   0   2  12  202.88   10.50
  -1  -2 -12  312.97   13.60
  -2   1 -12  322.47   14.00
   1   2 -12  307.67   13.70
   2  -1 -12  296.17   13.70
   2  -1 -12  320.87   14.60
   2  -1  12  289.07   15.40
  -2   1  12  305.17   13.80
   2  -1  12  312.47   14.60
   1   2  12  322.37   13.90
   2  -2 -12  155.78    9.60
  -2   2 -12  138.49    8.60
   2  -2 -12  154.28    8.50
   2  -2  12  153.48    9.70
   2   2  12  152.18    8.30
   3   2 -12  172.58   10.50
   2  -3 -12  158.28   10.50
  -2   3 -12  152.78    9.50
   2  -3 -12  182.48    9.50
   3   2  12  159.98    8.40
   3   2  12  172.58   10.30
  -1   3 -12  108.89    7.70
   1  -3 -12  123.89    8.30
   1  -3 -12  123.09    7.40
   3   1  12  105.79    7.00
  -1   3  12  108.59    8.00
   0   3 -12  212.68   10.70
   0  -3 -12  234.58   11.30
   0  -3 -12  216.88   10.50
   3   0 -12  227.98   11.70
   3   0  12  205.08   10.80
   0   3  12  200.78   11.10
  -3   0  12  209.58   11.40
  -3   1 -12  104.79    7.40
  -1  -3 -12  117.59    6.90
   1   3 -12  108.09    6.90
   3  -1 -12  104.09    8.10
   3  -1 -12  110.19    6.90
   1   3  12  107.79    7.30
  -3   1  12  105.39    7.70
   3  -1  12  114.69    8.30
   3  -1  12  107.59    7.90
   3  -2 -12  179.28   10.70
  -3   2 -12  168.48    9.70
   3  -2 -12  196.88    9.70
  -3   2  12  168.78    9.80
   3  -2  12  166.58   11.00
   2   3  12  163.28    9.10
   3   3 -12   53.39    6.20
  -3   3 -12   61.89    6.00
   3  -3 -12   52.59    6.40
   3  -3 -12   46.80    5.20
   3  -3  12   69.59    7.40
  -3   3  12   51.59    5.80
   3   3  12   52.59    5.20
   3  -4 -12   82.19    8.30
   4   3 -12   86.59    9.00
  -2   4 -12   56.99    6.00
   2  -4 -12   59.29    6.50
   4   2 -12   60.09    6.90
   2  -4 -12   46.60    5.20
  -1   4 -12  124.19    8.70
   4   1 -12  130.79    9.80
   1  -4 -12  133.09    8.20
   1  -4 -12  140.19    9.50
  -4  -1  12  148.09    9.70
   4   1  12  133.69    7.60
  -1   4  12  126.19    9.00
   0  -4 -12   79.29    6.40
   0  -4 -12   71.59    7.30
   0   4 -12   73.09    6.70
   4   0 -12   93.89    8.10
   4   0  12   73.89    6.80
   0   4  12   85.49    7.20
  -4   0  12   87.49    7.70
   4  -1 -12  130.49    9.60
   1   4  12  139.19    8.60
   4  -1  12  142.19    9.50
  -4   1  12  136.49    9.40
   4  -2 -12   61.09    6.70
  -4   2 -12   49.90    7.90
   4  -2  12   58.09    7.00
   2   4  12   69.59    6.00
  -4   2  12   58.79    6.20
   4  -3 -12   90.99    9.00
   3   4 -12   79.79    8.10
  -4   3  12   57.49    7.90
   4  -3  12   70.29    7.90
   3   4  12   74.39    5.80
   2  -5 -12   46.00    6.40
   5   2 -12   65.49    7.50
   5   1 -12   38.20    6.30
   1  -5 -12   34.90    5.90
   5   0 -12   57.89    7.40
   0  -5 -12   86.29    7.90
   5   0 -12   62.39    7.10
   5   0  12   70.29    6.10
   0   5  12   58.69    6.20
   5  -1 -12   37.00    6.00
   5  -1  12   27.30    5.00
   1   5  12   29.10    4.60
   5  -2 -12   46.30    6.40
   2   5  12   32.90    4.60
   5  -2  12   52.39    6.70
   0   0 -13    4.90    2.90
   0   0 -13    2.70    2.50
   0   0  13    6.40    3.10
   1   0 -13   -0.10    2.80
   0  -1 -13    2.60    2.60
   0   1 -13    3.40    2.70
  -1   0 -13   -0.30    2.40
   0  -1 -13   -0.40    2.70
   1   0 -13    1.20    2.60
   1   0  13    3.90    2.90
   0   1  13    0.50    2.80
   1   1 -13  463.65   19.40
   1  -1 -13  454.15   19.80
  -1   1 -13  434.96   19.40
   1  -1 -13  478.25   19.40
  -1  -1 -13  447.56   19.20
   1  -1  13  477.55   20.20
   1   1  13  480.55   19.90
   1  -2 -13   -4.00    3.10
  -1   2 -13   -3.40    2.90
   1  -2 -13   -3.00    2.50
   2   1 -13    3.50    2.80
   2   1  13    1.60    3.00
   0  -2 -13    5.00    3.00
   2   0 -13    4.70    3.30
   0   2 -13    1.10    3.00
  -2   0 -13    1.30    2.70
   0  -2 -13    4.80    2.70
   2   0 -13   -0.70    2.50
   0   2  13    3.10    3.10
  -2   0  13    5.20    3.10
   2   0  13    2.80    3.00
   2  -1 -13    0.80    3.10
  -1  -2 -13    0.70    2.50
   1   2 -13   -0.20    2.90
  -2   1 -13    2.60    3.10
   2  -1 -13    1.30    2.60
   1   2  13    1.90    3.00
   2  -1  13    2.80    3.70
   2  -2 -13   -3.90    3.40
  -2   2 -13    0.10    3.20
   2  -2 -13    4.00    2.80
   2  -2  13   11.30    4.20
   2   2  13    4.00    2.80
   2  -3 -13    5.20    4.20
   2  -3 -13    4.70    3.10
  -2   3 -13   -2.80    3.50
   3   2  13   -1.40    2.70
   1  -3 -13  275.87   13.70
   1  -3 -13  245.98   12.40
  -1   3 -13  244.18   12.60
   3   1  13  256.17   12.20
   0  -3 -13   -0.90    2.80
   3   0 -13   -1.40    3.40
   0  -3 -13   -0.10    3.50
   0   3 -13    0.60    3.20
   0   3  13    3.50    3.30
  -3   0  13   -0.60    3.30
   3   0  13    3.90    3.30
  -1  -3 -13  259.77   12.10
   3  -1 -13  259.47   13.40
   1   3 -13  246.08   12.10
  -3   1 -13  269.27   12.70
   3  -1 -13  243.48   12.70
  -3   1  13  235.58   12.70
   1   3  13  267.07   12.70
   3  -1  13  253.17   13.30
   3  -2 -13    1.80    3.70
   3  -2 -13   -5.20    3.10
  -3   2 -13   -5.30    3.30
   3  -2  13   -3.80    4.40
   2   3  13    0.70    3.20
  -3   2  13   -2.20    3.40
   3  -3 -13  153.58   10.90
   3  -3 -13  155.28    9.40
   3   3  13  144.29    8.50
   3  -3  13  171.18   11.80
   3  -4 -13    5.20    4.60
   4   3 -13    8.30    4.60
   2  -4 -13    1.10    4.50
   4   2 -13    0.10    4.50
   4   2  13    5.80    2.70
   1  -4 -13    3.10    3.20
   1  -4 -13   -0.40    3.90
  -1   4 -13   -1.20    3.70
   4   1  13   -0.30    3.00
  -4  -1  13    0.60    4.00
   0  -4 -13    2.60    4.50
   4   0 -13    3.70    4.10
   0   4 -13   -2.00    3.50
   0  -4 -13    3.30    2.90
  -4   0  13   -2.10    3.60
   4   0  13    2.50    3.60
   0   4  13    0.00    3.50
   4  -1 -13    1.60    3.90
  -4   1  13    2.20    4.20
   4  -1  13   -7.40    4.00
   1   4  13    0.10    3.50
   4  -2 -13    0.10    4.10
  -4   2  13   -3.90    4.00
   4  -2  13    9.60    5.00
   2   4  13   -1.90    3.10
   4  -3 -13   -2.10    4.50
   4  -3  13    1.60    5.40
   3   4  13    0.00    2.70
   5   1 -13  101.99    9.90
   1  -5 -13  104.49    9.20
   0  -5  13   -2.40    5.80
   5   0  13    8.00    3.50
   0   5  13   -4.20    4.00
   5  -1 -13   91.89    9.30
   5  -1  13   94.09    8.50
   1   5  13   85.89    7.90
   0   0 -14   39.20    4.40
   0   0  14   39.30    5.00
   1   0 -14  200.48   10.60
   0  -1 -14  195.08   10.00
   0   1 -14  187.68   10.10
   1   0 -14  191.68    9.90
  -1   0 -14  183.08    9.90
   0   1  14  213.08   10.80
   1   0  14  183.08   10.60
  -1   1 -14  443.66   20.40
   1  -1 -14  495.05   21.00
   1  -1 -14  476.25   20.40
   1   1 -14  485.75   20.50
  -1  -1 -14  512.65   20.40
   1  -1  14  499.85   21.20
   1   1  14  482.95   20.90
  -1   2 -14  142.09    8.80
   1  -2 -14  133.09    8.40
   1  -2 -14  147.39    9.50
   2   1 -14  156.68    8.60
   2   1  14  135.79    8.90
   2   0 -14   37.60    5.10
   2   0 -14   28.40    4.20
   0  -2 -14   35.70    4.30
  -2   0 -14   32.10    4.30
   0   2 -14   36.40    4.70
   0   2  14   37.20    4.80
   2   0  14   31.10    4.70
   2  -1 -14  151.68    9.80
   2  -1 -14  151.28    8.70
  -1  -2 -14  138.69    8.40
   1   2 -14  147.49    8.70
  -2   1 -14  158.08    9.00
   2  -1  14  141.29    9.80
   1   2  14  139.69    9.10
  -2   2 -14   26.80    4.50
   2  -2 -14   14.30    3.70
   2  -2 -14   29.40    5.10
   2   2  14   28.30    4.30
   2  -2  14   23.50    5.40
   2  -3 -14   72.19    7.60
   2  -3 -14   83.39    7.20
  -2   3 -14   71.99    6.50
   3   2  14   78.99    6.50
  -1   3 -14  246.18   13.10
   1  -3 -14  258.47   14.00
   1  -3 -14  265.27   13.00
   3   1  14  263.67   12.80
  -3  -1  14  281.17   13.50
   3   0 -14  116.39    9.00
   0   3 -14  114.59    7.90
   0  -3 -14  104.89    7.60
   0   3  14  108.89    8.30
  -3   0  14  104.09    8.10
   3   0  14  104.69    8.10
  -1  -3 -14  256.47   12.60
   3  -1 -14  254.47   14.00
  -3   1 -14  286.17   13.30
  -3   1  14  260.37   15.40
   1   3  14  257.57   13.20
   3  -1  14  254.87   13.80
   3  -2 -14   86.79    7.00
   3  -2 -14   86.49    8.50
  -3   2 -14   73.19    6.70
   3  -2  14   76.29    7.80
   2   3  14  100.29    7.20
   3  -3 -14  170.88   11.70
   3  -3  14  167.88   12.50
   2  -4 -14    9.30    5.10
   4   2  14   13.60    3.20
   1  -4 -14   69.49    7.50
  -4  -1  14   70.39    7.40
   4   1  14   72.19    6.40
   4   0 -14   21.00    5.30
  -4   0  14    9.30    4.40
   0   4  14   13.70    4.40
   4   0  14   11.60    4.00
   4  -1 -14   46.40    6.30
  -4   1  14   60.49    6.80
   1   4  14   62.09    6.10
   4  -1  14   60.29    6.60
   4  -2 -14   19.80    5.50
   4  -2  14   11.50    5.40
   2   4  14    6.40    3.70
   0   0 -15   20.00    3.80
   1   0 -15   47.70    4.80
   0  -1 -15   47.20    5.00
   0   1 -15   53.49    5.20
   1   0 -15   53.19    5.70
  -1   0 -15   60.69    5.40
   0   1  15   38.50    5.20
   1   0  15   46.80    5.50
  -1  -1 -15    6.20    3.30
   1  -1 -15    0.40    3.60
  -1   1 -15    7.90    3.70
   1  -1 -15    2.10    2.80
   1   1 -15    6.70    3.50
   1   1  15    2.40    3.60
   1  -1  15    2.60    3.80
   1  -2 -15   41.80    4.90
  -1   2 -15   31.50    4.70
   2   1 -15   34.90    4.80
   1  -2 -15   46.00    5.60
   2   1  15   38.90    5.10
   0   2 -15   13.30    4.00
   0  -2 -15   17.20    3.80
   2   0 -15   13.60    4.40
   2   0 -15   10.90    3.70
  -2   0 -15    1.60    3.60
   2   0  15   12.80    4.40
   0   2  15    9.40    3.90
   1   2 -15   35.50    4.90
  -1  -2 -15   32.10    4.30
  -2   1 -15   35.90    4.90
   2  -1 -15   46.40    5.80
   2  -1 -15   28.10    4.30
   2  -1  15   42.30    5.60
   1   2  15   36.80    5.10
  -2   2 -15    9.20    4.20
   2  -2 -15   12.70    4.70
   2  -2 -15    0.60    3.30
   2  -2  15   15.90    5.20
   2   2  15    9.80    3.90
   2  -3 -15   28.90    6.00
   3   2  15   23.90    4.30
   1  -3 -15   -2.30    4.30
  -3  -1  15    2.70    3.80
   3   1  15    0.00    3.60
   3   0 -15   42.10    6.00
   0  -3 -15   39.70    4.80
   0   3 -15   34.70    5.10
   0   3  15   34.60    5.40
   3   0  15   42.40    5.40
   3  -1 -15   -3.90    4.00
  -3   1 -15   -4.00    4.00
  -1  -3 -15    1.60    3.30
   3  -1  15    1.80    4.60
   1   3  15   -1.10    3.90
   3  -2 -15   25.10    5.60
   2   3  15   21.20    4.30
   3  -2  15   22.60    6.10
   3  -3 -15    3.10    4.60
   3   3  15    2.50    3.30
   3  -3  15    2.90    5.90
   2  -4 -15   14.10    6.40
   1  -4 -15   25.50    5.60
   4   1  15   19.50    4.00
   4   0 -15    0.30    4.50
   4   0  15    7.90    4.00
   0   4  15    6.80    4.40
   4  -1 -15   14.50    5.10
   1   4  15   11.40    4.40
   4  -1  15   15.40    5.10
   4  -2 -15    3.10    6.10
   0   0 -16  492.45   21.00
   1   0 -16   70.69    6.80
   1   0 -16   68.09    6.00
  -1   0 -16   63.29    5.90
   0   1 -16   60.99    5.70
   0  -1 -16   54.69    5.60
   1   0  16   81.99    7.50
   0   1  16   55.89    6.40
  -1  -1 -16   38.40    4.80
   1   1 -16   33.80    4.60
   1  -1 -16   34.20    4.60
   1  -1 -16   37.60    5.40
  -1   1 -16   24.70    4.40
   1   1  16   41.20    5.60
   1  -1  16   41.20    5.70
  -2  -1 -16   45.20    6.30
  -1   2 -16   44.30    5.40
   1  -2 -16   41.70    5.30
   1  -2 -16   56.89    6.30
   2   1  16   45.60    5.70
   0   2 -16  367.76   16.60
  -2   0 -16  362.16   16.50
   0  -2 -16  333.47   16.50
   2   0 -16  380.26   17.80
   2   0 -16  371.56   16.60
   0   2  16  363.06   17.40
   2   0  16  358.16   17.20
   2  -1 -16   55.59    6.60
  -2   1 -16   45.30    5.40
  -1  -2 -16   44.20    5.10
   2  -1 -16   40.00    5.10
   1   2 -16   45.20    5.20
   2  -1  16   53.59    6.30
   1   2  16   47.50    5.90
   2  -2 -16  277.77   15.20
   2  -2  16  309.87   15.70
   2   2  16  271.37   14.10
   2  -3 -16   34.80    6.00
   3   2  16   27.50    4.40
   1  -3 -16   23.70    5.30
   3   1  16   19.10    4.50
   3   0 -16   46.00    6.60
   3   0  16   43.90    5.80
   0   3  16   37.40    5.60
   3  -1 -16   18.50    5.30
   3  -1  16   27.80    5.60
   1   3  16   22.20    4.80
   3  -2 -16   28.90    6.00
   2   3  16   24.10    4.60
   3  -2  16   37.40    6.60
   0   0 -17   76.59    7.10
  -1   0 -17    2.70    4.40
   0  -1 -17    6.40    4.00
   1   0 -17    0.30    5.50
   1   0  17    4.50    4.50
   1  -1 -17    5.50    4.70
   1   1  17   12.90    4.50
   1  -2 -17    5.40    6.90
   2   1  17    5.90    4.60
   2   0 -17   51.29    6.90
   0   2  17   53.49    6.50
   2   0  17   61.19    6.70
   2  -1 -17    1.10    4.80
   2  -1  17   10.40    4.80
   1   2  17   12.00    4.60
   2  -2 -17   52.69    6.80
   2   2  17   35.10    5.20
   3   1  17    5.20    6.60
   0   3  17   11.90    5.00
   3   0  17    8.80    4.50
   3  -1 -17   -2.00    4.90
   3  -1  17    7.20    6.00
   1   3  17    5.50    5.00
   1   0  18  125.39    9.80
   1   1  18   93.09    8.90
   2   1  18   74.49    8.20
   2   0  18   17.90    5.30
   2  -1 -18   87.59    8.30
   2  -1  18  103.19    9.60
   1   2  18   90.09    8.70
   0   0   0    0.00    0.00

_computing_structure_solution     'SHELXT 2014/5 (Sheldrick, 2014)'
;
_shelx_hkl_checksum              86665
_olex2_submission_special_instructions 'No special instructions were received'
loop_
_space_group_symop_operation_xyz
'x, y, z'
'-x, -y, z'
'-y, x, z'
'y, -x, z'
'-x, y, -z'
'x, -y, -z'
'y, x, -z'
'-y, -x, -z'
'-x, -y, -z'
'x, y, -z'
'y, -x, -z'
'-y, x, -z'
'x, -y, z'
'-x, y, z'
'-y, -x, z'
'y, x, z'
loop_
_atom_site_label
_atom_site_type_symbol
_atom_site_fract_x
_atom_site_fract_y
_atom_site_fract_z
_atom_site_U_iso_or_equiv
_atom_site_adp_type
_atom_site_occupancy
_atom_site_site_symmetry_order
_atom_site_calc_flag
_atom_site_refinement_flags_posn
_atom_site_refinement_flags_adp
_atom_site_refinement_flags_occupancy
_atom_site_disorder_assembly
_atom_site_disorder_group
Cu1 Cu 1.0000 0.0000 1.0000 0.0214(9) Uani 0.232(4) 16 d S T P . .
Cu2 Cu 0.5000 0.0000 0.81298(4) 0.02041(9) Uani 1 4 d S T P . .
Rb1 Rb -0.5000 -0.5000 0.5000 0.01818(11) Uani 1 16 d S T P . .
S1 S 0.0000 0.0000 0.69558(8) 0.01227(15) Uani 1 8 d S T P . .
Te1 Te 1.5000 0.5000 1.0000 0.01450(8) Uani 1 16 d S T P . .
loop_
_atom_site_aniso_label
_atom_site_aniso_U_11
_atom_site_aniso_U_22
_atom_site_aniso_U_33
_atom_site_aniso_U_23
_atom_site_aniso_U_13
_atom_site_aniso_U_12
Cu1 0.0224(11) 0.0224(11) 0.0193(15) 0.000 0.000 0.000
Cu2 0.01292(14) 0.02400(17) 0.02430(18) 0.000 0.000 0.000
Rb1 0.01865(15) 0.01865(15) 0.0172(2) 0.000 0.000 0.000
S1 0.0118(2) 0.0118(2) 0.0132(3) 0.000 0.000 0.000
Te1 0.01673(10) 0.01673(10) 0.01003(13) 0.000 0.000 0.000
loop_
_atom_type_symbol
_atom_type_description
_atom_type_scat_dispersion_real
_atom_type_scat_dispersion_imag
_atom_type_scat_source
Cu Cu 0.3201 1.2651 'International Tables Vol C Tables 4.2.6.8 and 6.1.1.4'
Rb Rb -0.9393 2.9676 'International Tables Vol C Tables 4.2.6.8 and 6.1.1.4'
S S 0.1246 0.1234 'International Tables Vol C Tables 4.2.6.8 and 6.1.1.4'
Te Te -0.5308 1.6751 'International Tables Vol C Tables 4.2.6.8 and 6.1.1.4'
loop_
_geom_angle_atom_site_label_1
_geom_angle_atom_site_label_2
_geom_angle_atom_site_label_3
_geom_angle
_geom_angle_site_symmetry_1
_geom_angle_site_symmetry_3
_geom_angle_publ_flag
Cu2 Cu1 Cu2 180.0 11_667 3_645 ?
Cu2 Cu1 Cu2 119.976(8) 9_757 3_655 ?
Cu2 Cu1 Cu2 89.959(13) 9_657 . ?
Cu2 Cu1 Cu2 90.041(13) 3_645 3_655 ?
Cu2 Cu1 Cu2 119.976(8) 11_667 . ?
Cu2 Cu1 Cu2 119.976(8) 11_657 . ?
Cu2 Cu1 Cu2 89.959(13) 11_667 3_655 ?
Cu2 Cu1 Cu2 60.024(8) 11_667 9_757 ?
Cu2 Cu1 Cu2 119.976(7) 9_657 3_655 ?
Cu2 Cu1 Cu2 60.024(8) 1_655 3_655 ?
Cu2 Cu1 Cu2 180.0 9_757 . ?
Cu2 Cu1 Cu2 119.976(8) 3_645 9_757 ?
Cu2 Cu1 Cu2 119.976(7) 11_657 1_655 ?
Cu2 Cu1 Cu2 180.0 9_657 1_655 ?
Cu2 Cu1 Cu2 119.976(8) 3_645 9_657 ?
Cu2 Cu1 Cu2 90.041(13) 11_667 11_657 ?
Cu2 Cu1 Cu2 90.041(13) 9_757 9_657 ?
Cu2 Cu1 Cu2 180.0 11_657 3_655 ?
Cu2 Cu1 Cu2 60.024(8) 11_657 9_657 ?
Cu2 Cu1 Cu2 89.959(13) 3_645 11_657 ?
Cu2 Cu1 Cu2 119.976(8) 11_667 1_655 ?
Cu2 Cu1 Cu2 60.024(8) 3_645 . ?
Cu2 Cu1 Cu2 60.024(8) 3_645 1_655 ?
Cu2 Cu1 Cu2 60.024(8) 9_757 11_657 ?
Cu2 Cu1 Cu2 89.959(13) 9_757 1_655 ?
Cu2 Cu1 Cu2 90.041(13) 1_655 . ?
Cu2 Cu1 Cu2 60.024(8) 11_667 9_657 ?
Cu2 Cu1 Cu2 60.024(8) 3_655 . ?
Cu2 Cu1 Te1 120.012(4) 11_667 1_445 ?
Cu2 Cu1 Te1 120.012(4) 3_645 . ?
Cu2 Cu1 Te1 59.988(4) 1_655 . ?
Cu2 Cu1 Te1 59.988(4) 11_667 . ?
Cu2 Cu1 Te1 120.012(4) 11_657 . ?
Cu2 Cu1 Te1 59.988(4) 3_645 1_545 ?
Cu2 Cu1 Te1 59.988(4) . 1_445 ?
Cu2 Cu1 Te1 120.012(4) . 1_545 ?
Cu2 Cu1 Te1 59.988(4) 9_757 . ?
Cu2 Cu1 Te1 120.012(4) 1_655 1_455 ?
Cu2 Cu1 Te1 120.012(4) 9_657 . ?
Cu2 Cu1 Te1 120.012(4) 9_757 1_445 ?
Cu2 Cu1 Te1 59.988(4) 3_655 . ?
Cu2 Cu1 Te1 120.012(4) . . ?
Cu2 Cu1 Te1 120.012(4) 9_757 1_455 ?
Cu2 Cu1 Te1 59.988(4) 11_657 1_445 ?
Cu2 Cu1 Te1 59.988(4) 9_657 1_455 ?
Cu2 Cu1 Te1 120.012(4) 11_657 1_455 ?
Cu2 Cu1 Te1 59.988(4) 3_655 1_455 ?
Cu2 Cu1 Te1 59.988(4) 9_657 1_445 ?
Cu2 Cu1 Te1 120.012(4) 11_667 1_545 ?
Cu2 Cu1 Te1 59.988(4) . 1_455 ?
Cu2 Cu1 Te1 59.988(4) 9_757 1_545 ?
Cu2 Cu1 Te1 120.012(4) 1_655 1_445 ?
Cu2 Cu1 Te1 120.012(4) 9_657 1_545 ?
Cu2 Cu1 Te1 59.988(4) 11_657 1_545 ?
Cu2 Cu1 Te1 120.012(4) 3_655 1_545 ?
Cu2 Cu1 Te1 120.012(4) 3_655 1_445 ?
Cu2 Cu1 Te1 59.988(4) 3_645 1_445 ?
Cu2 Cu1 Te1 59.988(4) 1_655 1_545 ?
Cu2 Cu1 Te1 120.012(4) 3_645 1_455 ?
Cu2 Cu1 Te1 59.988(4) 11_667 1_455 ?
Te1 Cu1 Te1 180.0 1_445 . ?
Te1 Cu1 Te1 180.0 1_455 1_545 ?
Te1 Cu1 Te1 90.0 1_445 1_455 ?
Te1 Cu1 Te1 90.0 . 1_545 ?
Te1 Cu1 Te1 90.0 . 1_455 ?
Te1 Cu1 Te1 90.0 1_445 1_545 ?
Cu1 Cu2 Cu1 90.041(13) . 1_455 ?
Cu1 Cu2 Cu2 120.012(4) . 3_545 ?
Cu1 Cu2 Cu2 120.012(4) . 3 ?
Cu1 Cu2 Cu2 120.012(4) 1_455 3_645 ?
Cu1 Cu2 Cu2 59.988(4) . 3_645 ?
Cu1 Cu2 Cu2 120.012(4) 1_455 3_655 ?
Cu1 Cu2 Cu2 59.988(4) 1_455 3 ?
Cu1 Cu2 Cu2 59.988(4) 1_455 3_545 ?
Cu1 Cu2 Cu2 59.988(4) . 3_655 ?
Cu1 Cu2 Rb1 127.349(5) 1_455 1_655 ?
Cu1 Cu2 Rb1 127.349(5) . 1_665 ?
Cu1 Cu2 Rb1 127.349(5) 1_455 1_665 ?
Cu1 Cu2 Rb1 127.349(5) . 1_655 ?
Cu1 Cu2 Te1 60.024(8) 1_455 1_445 ?
Cu1 Cu2 Te1 60.024(8) . 1_445 ?
Cu2 Cu2 Cu2 90.0 3_655 3 ?
Cu2 Cu2 Cu2 180.0 3_645 3 ?
Cu2 Cu2 Cu2 90.0 3_545 3 ?
Cu2 Cu2 Cu2 90.0 3_545 3_645 ?
Cu2 Cu2 Cu2 180.0 3_545 3_655 ?
Cu2 Cu2 Cu2 90.0 3_655 3_645 ?
Cu2 Cu2 Rb1 68.722(2) 3_545 1_655 ?
Cu2 Cu2 Rb1 68.722(3) 3_655 1_665 ?
Cu2 Cu2 Rb1 111.279(2) 3 1_655 ?
Cu2 Cu2 Rb1 111.279(2) 3_545 1_665 ?
Cu2 Cu2 Rb1 68.722(3) 3 1_665 ?
Cu2 Cu2 Rb1 111.279(3) 3_645 1_665 ?
Cu2 Cu2 Rb1 111.279(2) 3_655 1_655 ?
Cu2 Cu2 Rb1 68.722(3) 3_645 1_655 ?
Rb1 Cu2 Rb1 61.757(8) 1_655 1_665 ?
S1 Cu2 Cu1 167.12(2) . . ?
S1 Cu2 Cu1 77.080(19) . 1_455 ?
S1 Cu2 Cu1 77.080(19) 1_655 . ?
S1 Cu2 Cu1 167.12(2) 1_655 1_455 ?
S1 Cu2 Cu2 126.799(10) . 3_645 ?
S1 Cu2 Cu2 126.799(10) 1_655 3 ?
S1 Cu2 Cu2 53.201(10) . 3_545 ?
S1 Cu2 Cu2 53.201(10) . 3 ?
S1 Cu2 Cu2 126.799(10) 1_655 3_545 ?
S1 Cu2 Cu2 126.799(10) . 3_655 ?
S1 Cu2 Cu2 53.201(10) 1_655 3_645 ?
S1 Cu2 Cu2 53.201(10) 1_655 3_655 ?
S1 Cu2 Rb1 62.866(17) 1_655 1_665 ?
S1 Cu2 Rb1 62.866(17) . 1_665 ?
S1 Cu2 Rb1 62.866(17) . 1_655 ?
S1 Cu2 Rb1 62.866(17) 1_655 1_655 ?
S1 Cu2 S1 115.80(4) . 1_655 ?
S1 Cu2 Te1 112.063(13) 1_655 1_455 ?
S1 Cu2 Te1 112.063(13) . 1_445 ?
S1 Cu2 Te1 112.063(13) . 1_455 ?
S1 Cu2 Te1 112.063(13) 1_655 1_445 ?
Te1 Cu2 Cu1 60.024(7) 1_455 . ?
Te1 Cu2 Cu1 60.024(8) 1_455 1_455 ?
Te1 Cu2 Cu2 120.012(4) 1_445 3 ?
Te1 Cu2 Cu2 120.012(4) 1_445 3_655 ?
Te1 Cu2 Cu2 120.012(4) 1_455 3_645 ?
Te1 Cu2 Cu2 59.988(4) 1_455 3 ?
Te1 Cu2 Cu2 120.012(4) 1_455 3_545 ?
Te1 Cu2 Cu2 59.988(4) 1_445 3_645 ?
Te1 Cu2 Cu2 59.988(4) 1_445 3_545 ?
Te1 Cu2 Cu2 59.988(4) 1_455 3_655 ?
Te1 Cu2 Rb1 104.101(6) 1_445 1_655 ?
Te1 Cu2 Rb1 104.101(6) 1_455 1_665 ?
Te1 Cu2 Rb1 165.858(9) 1_445 1_665 ?
Te1 Cu2 Rb1 165.858(9) 1_455 1_655 ?
Te1 Cu2 Te1 90.041(13) 1_455 1_445 ?
Cu2 Rb1 Cu2 42.557(5) 9_546 11_456 ?
Cu2 Rb1 Cu2 42.557(5) 1_455 3_545 ?
Cu2 Rb1 Cu2 137.443(5) 1_455 11_456 ?
Cu2 Rb1 Cu2 180.0 3_545 11_456 ?
Cu2 Rb1 Cu2 137.443(5) 3_545 9_546 ?
Cu2 Rb1 Cu2 180.0 1_455 9_546 ?
S1 Rb1 Cu2 36.687(10) 9_456 11_456 ?
S1 Rb1 Cu2 77.398(12) 9_456 9_546 ?
S1 Rb1 Cu2 77.398(12) 9_556 9_546 ?
S1 Rb1 Cu2 143.313(10) 9_446 3_545 ?
S1 Rb1 Cu2 143.313(10) 1_455 9_546 ?
S1 Rb1 Cu2 36.687(9) . 1_455 ?
S1 Rb1 Cu2 102.602(12) 1_445 11_456 ?
S1 Rb1 Cu2 77.398(12) 1_445 1_455 ?
S1 Rb1 Cu2 102.602(12) 9_456 1_455 ?
S1 Rb1 Cu2 143.313(10) 9_456 3_545 ?
S1 Rb1 Cu2 36.687(9) 9_446 9_546 ?
S1 Rb1 Cu2 102.602(12) 1_445 9_546 ?
S1 Rb1 Cu2 102.602(12) 9_556 3_545 ?
S1 Rb1 Cu2 77.398(12) 9_556 11_456 ?
S1 Rb1 Cu2 143.313(10) 9_546 1_455 ?
S1 Rb1 Cu2 77.398(12) 9_546 11_456 ?
S1 Rb1 Cu2 102.602(12) 1_545 9_546 ?
S1 Rb1 Cu2 102.602(12) 9_546 3_545 ?
S1 Rb1 Cu2 36.687(10) 1_455 1_455 ?
S1 Rb1 Cu2 77.398(12) 1_455 3_545 ?
S1 Rb1 Cu2 77.398(12) 1_445 3_545 ?
S1 Rb1 Cu2 36.687(10) 1_545 3_545 ?
S1 Rb1 Cu2 36.687(10) 9_546 9_546 ?
S1 Rb1 Cu2 36.687(9) 9_446 11_456 ?
S1 Rb1 Cu2 102.602(12) 9_556 1_455 ?
S1 Rb1 Cu2 143.313(10) 9_446 1_455 ?
S1 Rb1 Cu2 143.313(9) . 9_546 ?
S1 Rb1 Cu2 143.313(10) 1_545 11_456 ?
S1 Rb1 Cu2 102.602(12) 1_455 11_456 ?
S1 Rb1 Cu2 143.313(9) . 11_456 ?
S1 Rb1 Cu2 36.687(9) . 3_545 ?
S1 Rb1 Cu2 77.398(12) 1_545 1_455 ?
S1 Rb1 S1 110.681(12) 9_546 . ?
S1 Rb1 S1 69.319(12) 9_446 9_456 ?
S1 Rb1 S1 180.0 9_556 1_445 ?
S1 Rb1 S1 107.08(2) 9_446 9_556 ?
S1 Rb1 S1 107.08(2) . 1_445 ?
S1 Rb1 S1 69.319(12) 9_446 9_546 ?
S1 Rb1 S1 107.08(2) 1_455 1_545 ?
S1 Rb1 S1 69.319(12) 1_455 . ?
S1 Rb1 S1 72.92(2) 9_456 1_455 ?
S1 Rb1 S1 180.00(2) 9_446 . ?
S1 Rb1 S1 110.681(12) 9_446 1_545 ?
S1 Rb1 S1 69.319(12) 1_545 . ?
S1 Rb1 S1 110.681(12) 1_455 9_556 ?
S1 Rb1 S1 72.92(2) 9_546 1_545 ?
S1 Rb1 S1 107.08(2) 9_456 9_546 ?
S1 Rb1 S1 72.92(2) 9_556 . ?
S1 Rb1 S1 110.681(12) 1_545 9_556 ?
S1 Rb1 S1 69.319(12) 9_546 9_556 ?
S1 Rb1 S1 110.681(12) 9_456 . ?
S1 Rb1 S1 72.92(2) 9_446 1_445 ?
S1 Rb1 S1 69.319(12) 1_455 1_445 ?
S1 Rb1 S1 180.00(2) 9_546 1_455 ?
S1 Rb1 S1 69.319(12) 1_545 1_445 ?
S1 Rb1 S1 110.681(12) 9_456 1_445 ?
S1 Rb1 S1 110.681(12) 9_446 1_455 ?
S1 Rb1 S1 180.0 9_456 1_545 ?
S1 Rb1 S1 110.681(12) 9_546 1_445 ?
S1 Rb1 S1 69.319(12) 9_456 9_556 ?
Cu2 S1 Cu2 73.597(19) . 3 ?
Cu2 S1 Cu2 73.597(19) 3_545 1_455 ?
Cu2 S1 Cu2 115.80(4) 3 3_545 ?
Cu2 S1 Cu2 73.597(19) 3 1_455 ?
Cu2 S1 Cu2 73.597(19) . 3_545 ?
Cu2 S1 Cu2 115.80(4) . 1_455 ?
Cu2 S1 Rb1 142.897(6) 3_545 1_565 ?
Cu2 S1 Rb1 80.448(10) 3_545 1_655 ?
Cu2 S1 Rb1 142.897(6) 3_545 1_665 ?
Cu2 S1 Rb1 142.897(6) 1_455 1_665 ?
Cu2 S1 Rb1 80.447(10) . 1_665 ?
Cu2 S1 Rb1 80.448(10) 3 1_665 ?
Cu2 S1 Rb1 142.897(6) 3 1_655 ?
Cu2 S1 Rb1 80.447(10) . 1_655 ?
Cu2 S1 Rb1 142.897(6) 3 . ?
Cu2 S1 Rb1 80.448(10) 3 1_565 ?
Cu2 S1 Rb1 80.448(10) 3_545 . ?
Cu2 S1 Rb1 142.897(6) 1_455 1_655 ?
Cu2 S1 Rb1 142.897(6) . 1_565 ?
Cu2 S1 Rb1 80.448(10) 1_455 1_565 ?
Cu2 S1 Rb1 142.897(6) . . ?
Cu2 S1 Rb1 80.448(10) 1_455 . ?
Rb1 S1 Rb1 69.318(12) . 1_655 ?
Rb1 S1 Rb1 107.08(2) . 1_665 ?
Rb1 S1 Rb1 107.08(2) 1_565 1_655 ?
Rb1 S1 Rb1 69.318(12) . 1_565 ?
Rb1 S1 Rb1 69.319(12) 1_565 1_665 ?
Rb1 S1 Rb1 69.319(12) 1_655 1_665 ?
Cu1 Te1 Cu1 90.0 1_665 1_565 ?
Cu1 Te1 Cu1 180.0 1_655 1_565 ?
Cu1 Te1 Cu1 180.0 . 1_665 ?
Cu1 Te1 Cu1 90.0 . 1_565 ?
Cu1 Te1 Cu1 90.0 1_665 1_655 ?
Cu1 Te1 Cu1 90.0 . 1_655 ?
Cu2 Te1 Cu1 120.012(4) 11_767 . ?
Cu2 Te1 Cu1 120.012(4) 9_767 1_655 ?
Cu2 Te1 Cu1 59.988(4) 9_767 1_565 ?
Cu2 Te1 Cu1 120.012(4) 3_655 1_655 ?
Cu2 Te1 Cu1 120.012(4) 1_665 1_655 ?
Cu2 Te1 Cu1 59.988(4) 3_655 1_565 ?
Cu2 Te1 Cu1 59.988(4) 1_665 1_565 ?
Cu2 Te1 Cu1 59.988(4) 3_655 . ?
Cu2 Te1 Cu1 120.012(4) 11_667 1_655 ?
Cu2 Te1 Cu1 59.988(4) 3_755 1_655 ?
Cu2 Te1 Cu1 120.012(4) 11_767 1_565 ?
Cu2 Te1 Cu1 120.012(4) 9_767 . ?
Cu2 Te1 Cu1 59.988(4) 11_667 1_565 ?
Cu2 Te1 Cu1 120.012(4) 3_755 1_565 ?
Cu2 Te1 Cu1 59.988(4) 9_757 . ?
Cu2 Te1 Cu1 59.988(4) 1_655 . ?
Cu2 Te1 Cu1 120.012(4) 3_655 1_665 ?
Cu2 Te1 Cu1 59.988(4) 1_655 1_655 ?
Cu2 Te1 Cu1 59.988(4) 9_767 1_665 ?
Cu2 Te1 Cu1 59.988(4) 11_667 . ?
Cu2 Te1 Cu1 120.012(4) 1_655 1_665 ?
Cu2 Te1 Cu1 59.988(4) 9_757 1_655 ?
Cu2 Te1 Cu1 120.012(4) 11_667 1_665 ?
Cu2 Te1 Cu1 120.012(4) 3_755 . ?
Cu2 Te1 Cu1 59.988(4) 3_755 1_665 ?
Cu2 Te1 Cu1 120.012(4) 1_655 1_565 ?
Cu2 Te1 Cu1 59.988(4) 1_665 1_665 ?
Cu2 Te1 Cu1 120.012(4) 1_665 . ?
Cu2 Te1 Cu1 59.988(4) 11_767 1_655 ?
Cu2 Te1 Cu1 120.012(4) 9_757 1_565 ?
Cu2 Te1 Cu1 59.988(4) 11_767 1_665 ?
Cu2 Te1 Cu1 120.012(4) 9_757 1_665 ?
Cu2 Te1 Cu2 119.976(8) 11_767 1_665 ?
Cu2 Te1 Cu2 89.959(13) 3_655 11_667 ?
Cu2 Te1 Cu2 60.024(8) 3_655 1_655 ?
Cu2 Te1 Cu2 119.976(8) 11_767 1_655 ?
Cu2 Te1 Cu2 90.041(13) 3_655 3_755 ?
Cu2 Te1 Cu2 60.024(8) 1_655 3_755 ?
Cu2 Te1 Cu2 119.976(8) 3_655 9_767 ?
Cu2 Te1 Cu2 60.024(8) 3_655 1_665 ?
Cu2 Te1 Cu2 119.976(8) 1_655 11_667 ?
Cu2 Te1 Cu2 89.959(13) 11_767 3_755 ?
Cu2 Te1 Cu2 180.0 9_767 1_655 ?
Cu2 Te1 Cu2 89.959(13) 9_767 1_665 ?
Cu2 Te1 Cu2 180.0 1_665 9_757 ?
Cu2 Te1 Cu2 90.041(13) 11_767 11_667 ?
Cu2 Te1 Cu2 60.024(8) 11_767 9_757 ?
Cu2 Te1 Cu2 180.0 11_767 3_655 ?
Cu2 Te1 Cu2 119.976(8) 3_655 9_757 ?
Cu2 Te1 Cu2 60.024(8) 9_767 11_667 ?
Cu2 Te1 Cu2 90.041(13) 9_767 9_757 ?
Cu2 Te1 Cu2 119.976(7) 11_667 1_665 ?
Cu2 Te1 Cu2 89.959(13) 1_655 9_757 ?
Cu2 Te1 Cu2 119.976(8) 9_767 3_755 ?
Cu2 Te1 Cu2 60.024(8) 11_667 9_757 ?
Cu2 Te1 Cu2 60.024(8) 3_755 1_665 ?
Cu2 Te1 Cu2 119.976(7) 3_755 9_757 ?
Cu2 Te1 Cu2 180.0 11_667 3_755 ?
Cu2 Te1 Cu2 90.041(13) 1_655 1_665 ?
Cu2 Te1 Cu2 60.024(8) 11_767 9_767 ?
loop_
_geom_bond_atom_site_label_1
_geom_bond_atom_site_label_2
_geom_bond_distance
_geom_bond_site_symmetry_2
_geom_bond_publ_flag
Cu1 Cu2 2.7612(3) 11_667 ?
Cu1 Cu2 2.7612(3) 3_655 ?
Cu1 Cu2 2.7612(3) 1_655 ?
Cu1 Cu2 2.7612(3) 9_657 ?
Cu1 Cu2 2.7612(3) 11_657 ?
Cu1 Cu2 2.7612(3) . ?
Cu1 Cu2 2.7612(3) 3_645 ?
Cu1 Cu2 2.7612(3) 9_757 ?
Cu1 Te1 2.76217(14) 1_445 ?
Cu1 Te1 2.76217(14) . ?
Cu1 Te1 2.76217(14) 1_455 ?
Cu1 Te1 2.76217(14) 1_545 ?
Cu2 Cu1 2.7612(3) 1_455 ?
Cu2 Cu2 2.76217(14) 3_645 ?
Cu2 Cu2 2.76217(14) 3_655 ?
Cu2 Cu2 2.76217(14) 3 ?
Cu2 Cu2 2.76217(14) 3_545 ?
Cu2 Rb1 3.8057(4) 1_655 ?
Cu2 Rb1 3.8057(4) 1_665 ?
Cu2 S1 2.3056(5) . ?
Cu2 S1 2.3056(5) 1_655 ?
Cu2 Te1 2.7612(3) 1_455 ?
Cu2 Te1 2.7612(3) 1_445 ?
Rb1 Cu2 3.8057(4) 9_546 ?
Rb1 Cu2 3.8057(4) 11_456 ?
Rb1 Cu2 3.8057(4) 3_545 ?
Rb1 Cu2 3.8057(4) 1_455 ?
Rb1 S1 3.4344(5) 9_456 ?
Rb1 S1 3.4344(5) 1_455 ?
Rb1 S1 3.4344(5) 9_546 ?
Rb1 S1 3.4344(5) 1_445 ?
Rb1 S1 3.4344(5) 9_556 ?
Rb1 S1 3.4344(5) 1_545 ?
Rb1 S1 3.4344(5) 9_446 ?
Rb1 S1 3.4344(5) . ?
S1 Cu2 2.3056(5) 3 ?
S1 Cu2 2.3056(5) 3_545 ?
S1 Cu2 2.3056(5) 1_455 ?
S1 Rb1 3.4344(5) 1_655 ?
S1 Rb1 3.4344(5) 1_565 ?
S1 Rb1 3.4344(5) 1_665 ?
Te1 Cu1 2.76217(14) 1_665 ?
Te1 Cu1 2.76217(13) 1_565 ?
Te1 Cu1 2.76217(14) 1_655 ?
Te1 Cu2 2.7612(3) 11_667 ?
Te1 Cu2 2.7612(3) 9_767 ?
Te1 Cu2 2.7612(3) 3_755 ?
Te1 Cu2 2.7612(3) 11_767 ?
Te1 Cu2 2.7612(3) 1_655 ?
Te1 Cu2 2.7612(3) 3_655 ?
Te1 Cu2 2.7612(3) 9_757 ?
Te1 Cu2 2.7612(3) 1_665 ?
