#------------------------------------------------------------------------------
#$Date: 2019-11-11 03:11:33 +0200 (Mon, 11 Nov 2019) $
#$Revision: 226226 $
#$URL: file:///home/coder/svn-repositories/cod/cif/4/00/31/4003121.cif $
#------------------------------------------------------------------------------
#
# This file is available in the Crystallography Open Database (COD),
# http://www.crystallography.net/
#
# All data on this site have been placed in the public domain by the
# contributors.
#
data_4003121
loop_
_publ_author_name
'Liu, Mei'
'Zhao, Jiangtao'
'Luo, Zhenlin'
'Sun, Zhihu'
'Pan, Nan'
'Ding, Huaiyi'
'Wang, Xiaoping'
_publ_section_title
;
 Unveiling Solvent-Related Effect on Phase Transformations in CsBr--PbBr2
 System: Coordination and Ratio of Precursors
;
_journal_issue                   17
_journal_name_full               'Chemistry of Materials'
_journal_page_first              5846
_journal_paper_doi               10.1021/acs.chemmater.8b00537
_journal_volume                  30
_journal_year                    2018
_chemical_formula_sum            'C3 H7 Br2 N O Pb'
_chemical_formula_weight         440.11
_space_group_crystal_system      monoclinic
_space_group_IT_number           14
_space_group_name_Hall           '-P 2yn'
_space_group_name_H-M_alt        'P 1 21/n 1'
_atom_sites_solution_hydrogens   geom
_audit_creation_method           SHELXL-2013
_cell_angle_alpha                90
_cell_angle_beta                 93.576(5)
_cell_angle_gamma                90
_cell_formula_units_Z            4
_cell_length_a                   4.3483(2)
_cell_length_b                   17.6677(12)
_cell_length_c                   11.4806(7)
_cell_measurement_reflns_used    1737
_cell_measurement_temperature    293(2)
_cell_measurement_theta_max      27.9520
_cell_measurement_theta_min      3.7460
_cell_volume                     880.27(9)
_computing_cell_refinement       'CrysAlisPro (Agilent Technologies)'
_computing_data_collection       'CrysAlisPro (Agilent Technologies)'
_computing_data_reduction        'CrysAlisPro (Agilent Technologies)'
_computing_molecular_graphics    'Ortep-3 (L. J. Farrugia, 2001)'
_computing_publication_material  SHELXL-2013
_computing_structure_refinement  'SHELXL-2013 (Sheldrick, 2013)'
_computing_structure_solution    'SHELXS-97 (Sheldrick, 1997)'
_diffrn_ambient_temperature      293(2)
_diffrn_detector_area_resol_mean 15.9149
_diffrn_measured_fraction_theta_full 0.999
_diffrn_measured_fraction_theta_max 0.938
_diffrn_measurement_device_type  'Gemini S Ultra, Agilent Technologies'
_diffrn_measurement_method       '\w scans'
_diffrn_radiation_source         'Enhance (Mo) X-ray Source'
_diffrn_radiation_type           MoK\a
_diffrn_radiation_wavelength     0.71073
_diffrn_reflns_av_R_equivalents  0.0593
_diffrn_reflns_av_unetI/netI     0.1013
_diffrn_reflns_Laue_measured_fraction_full 0.999
_diffrn_reflns_Laue_measured_fraction_max 0.938
_diffrn_reflns_limit_h_max       7
_diffrn_reflns_limit_h_min       -6
_diffrn_reflns_limit_k_max       19
_diffrn_reflns_limit_k_min       -29
_diffrn_reflns_limit_l_max       19
_diffrn_reflns_limit_l_min       -18
_diffrn_reflns_number            8975
_diffrn_reflns_point_group_measured_fraction_full 0.999
_diffrn_reflns_point_group_measured_fraction_max 0.938
_diffrn_reflns_theta_full        30.000
_diffrn_reflns_theta_max         37.613
_diffrn_reflns_theta_min         3.556
_exptl_absorpt_coefficient_mu    28.169
_exptl_absorpt_correction_T_max  1.00000
_exptl_absorpt_correction_T_min  0.33941
_exptl_absorpt_correction_type   multi-scan
_exptl_absorpt_process_details
;
CrysAlisPro 1.171.38.46 (Rigaku Oxford Diffraction, 2015)
Empirical absorption correction using spherical harmonics,
 implemented in SCALE3 ABSPACK scaling algorithm.
;
_exptl_crystal_colour            colorless
_exptl_crystal_density_diffrn    3.321
_exptl_crystal_description       block
_exptl_crystal_F_000             768
_exptl_crystal_size_max          0.150
_exptl_crystal_size_mid          0.130
_exptl_crystal_size_min          0.100
_refine_diff_density_max         2.383
_refine_diff_density_min         -2.925
_refine_diff_density_rms         0.326
_refine_ls_extinction_coef       0.0100(4)
_refine_ls_extinction_expression Fc^*^=kFc[1+0.001xFc^2^\l^3^/sin(2\q)]^-1/4^
_refine_ls_extinction_method     SHELXL
_refine_ls_goodness_of_fit_ref   0.990
_refine_ls_hydrogen_treatment    constr
_refine_ls_matrix_type           full
_refine_ls_number_parameters     76
_refine_ls_number_reflns         4394
_refine_ls_number_restraints     0
_refine_ls_restrained_S_all      0.990
_refine_ls_R_factor_all          0.1239
_refine_ls_R_factor_gt           0.0624
_refine_ls_shift/su_max          0.007
_refine_ls_shift/su_mean         0.000
_refine_ls_structure_factor_coef Fsqd
_refine_ls_weighting_details
'w=1/[\s^2^(Fo^2^)+(0.0344P)^2^] where P=(Fo^2^+2Fc^2^)/3'
_refine_ls_weighting_scheme      calc
_refine_ls_wR_factor_gt          0.0999
_refine_ls_wR_factor_ref         0.1223
_reflns_Friedel_coverage         0.000
_reflns_number_gt                2497
_reflns_number_total             4394
_reflns_threshold_expression     'I > 2\s(I)'
_cod_data_source_file            cm8b00537_si_002.cif
_cod_data_source_block           shelxl
_cod_original_sg_symbol_H-M      'P 21/n'
_cod_database_code               4003121
_shelx_space_group_comment
;
The symmetry employed for this shelxl refinement is uniquely defined
by the following loop, which should always be used as a source of
symmetry information in preference to the above space-group names.
They are only intended as comments.
;
_shelx_estimated_absorpt_t_min   0.101
_shelx_estimated_absorpt_t_max   0.165
_shelxl_version_number           2013-4
_shelx_res_file
;
TITL pbbr2-dmf_a.res in P2(1)/n
CELL  0.71073   4.3483  17.6677  11.4806   90.000   93.576   90.000
ZERR     4.00   0.0002   0.0012   0.0007    0.000    0.005    0.000
LATT   1
SYMM  1/2 - X, 1/2 + Y, 1/2 - Z
SFAC  BR   PB   C    H    N    O
UNIT  8    4    12    28   4    4
MERG   2
MORE -1
FMAP   2   53   53
PLAN   11
SIZE     0.10   0.13   0.15
ACTA    60.00
BOND   $H
CONF
LIST   6
L.S.   4
WGHT    0.034400
EXTI    0.010045
FVAR       0.31162
PB1   2    0.732392    0.522753    0.325908    11.00000    0.02944    0.03935 =
         0.03241    0.00307   -0.00161    0.00183
BR1   1    0.257239    0.601600    0.470962    11.00000    0.04386    0.03759 =
         0.04724   -0.00448    0.00104    0.00049
BR2   1    1.209788    0.460890    0.176194    11.00000    0.04467    0.07962 =
         0.05621   -0.03407    0.00534   -0.00875
O1    6    0.679274    0.636542    0.212222    11.00000    0.07840    0.04521 =
         0.04784    0.01106   -0.01528    0.00265
N1    5    0.391579    0.701667    0.079095    11.00000    0.05323    0.03610 =
         0.04035   -0.00056    0.00253   -0.00128
C2    3    0.557332    0.643878    0.111724    11.00000    0.07088    0.03806 =
         0.04118    0.00759   -0.00217    0.00488
AFIX  43
H2    4    0.587137    0.605867    0.057533    11.00000   -1.20000
AFIX   0
C1    3    0.322213    0.760145    0.162246    11.00000    0.05786    0.05676 =
         0.05140   -0.00576   -0.00134    0.00758
AFIX 137
H1A   4    0.302769    0.737761    0.237626    11.00000   -1.50000
H1B   4    0.132341    0.784602    0.137167    11.00000   -1.50000
H1C   4    0.485639    0.796760    0.166956    11.00000   -1.50000
AFIX   0
C3    3    0.263216    0.709975   -0.042769    11.00000    0.08667    0.05148 =
         0.03885    0.00192   -0.01003   -0.00736
AFIX 137
H3A   4    0.357098    0.673486   -0.091341    11.00000   -1.50000
H3B   4    0.304715    0.760062   -0.070158    11.00000   -1.50000
H3C   4    0.044622    0.701762   -0.045808    11.00000   -1.50000
AFIX   0
HKLF    4

REM  pbbr2-dmf_a.res in P2(1)/n
REM R1 =  0.0624 for    2497 Fo > 4sig(Fo)  and  0.1239 for all    4394 data
REM     76 parameters refined using      0 restraints

END

WGHT      0.0344      0.0000

REM Highest difference peak  2.383,  deepest hole -2.925,  1-sigma level  0.326
Q1    1   0.7566  0.4804  0.3633  11.00000  0.05    2.38
Q2    1   0.7320  0.5622  0.2872  11.00000  0.05    2.17
Q3    1   0.7406  0.5624  0.3657  11.00000  0.05    2.07
Q4    1   0.6973  0.4798  0.2905  11.00000  0.05    1.98
Q5    1   0.6643  0.5613  0.3763  11.00000  0.05    1.78
Q6    1   0.8206  0.4847  0.2852  11.00000  0.05    1.42
Q7    1   0.1624  0.5571  0.5282  11.00000  0.05    1.20
Q8    1   1.2028  0.5050  0.1364  11.00000  0.05    1.10
Q9    1   1.3020  0.5011  0.1437  11.00000  0.05    1.09
Q10   1   0.4693  0.7578  0.2176  11.00000  0.05    1.07
Q11   1  -0.1765  0.6149  0.4904  11.00000  0.05    1.06
;
_shelx_res_checksum              28798
_shelx_hkl_file
;
   0   0   2 1213.81   38.25
   0   0   3    0.71    1.58
   0   0  -3    1.05    1.49
   0   0  -4  202.76   16.87
   0   0  -5   -0.93    3.47
   0   0  -6 7419.11  189.55
   0   0  -7    2.46    3.98
   0   0  -8 2837.00  102.48
   0   0  -9    0.89    4.02
   0   0 -10   14.34    9.06
   0   0 -11   -0.18    5.85
   0   0 -12  531.87   44.74
   0   0 -13    3.48    4.29
   0   0 -13    1.40    6.04
   0   0 -14  503.64   48.07
   0   0 -15   10.74   10.92
   0   0 -16   34.32   16.17
   0   0  17   -3.01   11.87
   0   0  18    3.53   14.89
   0   0  19   -1.10   15.22
   0  -1  -2   99.56    7.97
   0   1  -2  103.22    8.53
   0  -1   2  103.95    9.88
   0   1   2  107.24    8.54
   0   1   3  506.16   24.41
   0   1  -3  499.25   25.21
   0  -1   3  527.11   28.10
   0  -1  -3  518.28   24.16
   0   1  -4   10.69    4.32
   0  -1  -4    6.06    2.45
   0  -1  -5 1857.14   64.97
   0   1  -5 1850.39   66.81
   0   1  -6  349.94   27.01
   0  -1  -6  350.41   26.86
   0   1  -7  295.89   25.76
   0  -1  -7  291.60   26.39
   0  -1  -8  404.18   33.41
   0   1  -8  377.67   30.54
   0   1  -9  840.35   49.65
   0  -1  -9  984.28   57.20
   0   1 -10    0.52    5.03
   0  -1 -10   12.32    7.94
   0   1 -11  265.66   29.98
   0  -1 -11  317.37   32.87
   0  -1 -11  306.84   27.18
   0   1 -12   26.93   11.17
   0  -1 -12   46.95   11.30
   0  -1 -12   64.71   16.30
   0  -1 -13   19.76   11.85
   0   1 -13   28.05   12.85
   0  -1 -13   30.46    9.81
   0  -1 -14   10.94   10.50
   0   1 -14   -2.18    6.66
   0   1 -14   18.38   10.60
   0   1 -15  150.79   27.60
   0  -1 -15  154.47   27.86
   0  -1 -16   19.91   12.79
   0  -1  16   10.21   13.22
   0  -1  17   25.92   18.69
   0   1  18  -21.25   20.65
   0  -1  18    2.87   18.39
   0  -1  19   10.54   18.90
   0   1  19  -22.40   20.31
   0   2   2 3116.94   72.57
   0  -2   2 2741.63   78.70
   0   2   2 2887.74   65.06
   0  -2  -2 2914.01   64.45
   0  -2  -2 2869.30   71.93
   0  -2   2 2975.17   78.07
   0   2  -3  305.44   19.89
   0   2   3  312.25   18.40
   0  -2  -3  334.31   18.85
   0  -2   3  359.09   23.45
   0  -2  -3  356.52   14.13
   0   2  -4  477.97   27.80
   0  -2  -4  533.33   20.83
   0  -2  -4  519.07   27.55
   0  -2  -5  223.80   14.35
   0  -2  -5  224.27   19.15
   0   2  -5  194.70   18.35
   0  -2  -6 5813.67  153.51
   0   2  -6 5747.10  154.42
   0  -2  -7  470.91   33.26
   0  -2  -7  433.52   24.98
   0   2  -7  452.66   32.94
   0  -2  -8 1970.55   79.79
   0   2  -8 1857.43   77.08
   0  -2  -8 1796.04   62.92
   0  -2  -9  112.43   18.37
   0  -2  -9   86.48   12.36
   0   2  -9   92.33   16.06
   0  -2 -10   12.41    7.92
   0  -2 -10    0.51    3.26
   0   2 -10   19.71   10.22
   0  -2 -11   35.15   12.20
   0   2 -11   38.02   12.74
   0  -2 -11   38.75    9.82
   0   2 -12  620.18   50.16
   0  -2 -12  581.12   37.51
   0  -2 -12  566.48   48.18
   0  -2 -13   55.67   11.50
   0  -2 -13   53.74   16.01
   0   2 -13   57.33   17.43
   0   2 -14  435.81   45.43
   0  -2 -14  357.57   39.47
   0  -2  15   13.09   16.75
   0  -2 -15    7.21    9.41
   0  -2  16    1.50   13.21
   0  -2 -16   18.14   12.73
   0  -2  17   -7.84   14.02
   0  -2  18   32.53   16.67
   0   2  19  -18.93   17.72
   0  -2  19   16.87   16.10
   0   3   0   -0.17    1.08
   0  -3   0   -0.86    1.01
   0  -3  -1  686.26   24.51
   0   3   1  614.82   22.65
   0   3   1  697.51   25.21
   0  -3   1  674.66   25.07
   0  -3  -2 2898.40   73.03
   0  -3   2 2833.67   79.26
   0  -3  -3 2901.14   80.34
   0   3   3 3142.47   71.56
   0  -3   3 2849.07   90.86
   0   3   3 3019.88   79.91
   0  -3  -4 1005.88   40.75
   0  -3   4 1019.15   50.98
   0   3  -4  965.08   43.90
   0  -3  -4  975.58   30.88
   0   3  -5  503.92   32.43
   0  -3  -5  539.84   22.57
   0  -3  -5  563.29   31.99
   0  -3  -6  824.98   42.03
   0   3  -6  726.20   42.00
   0  -3  -6  777.09   30.72
   0  -3  -7    2.82    3.21
   0  -3  -7    3.16    2.77
   0  -3  -8 1127.63   57.06
   0  -3  -8  959.18   40.59
   0   3  -8 1049.48   56.53
   0  -3  -9  566.23   42.15
   0  -3  -9  504.52   29.25
   0   3  -9  511.60   39.92
   0   3 -10  202.74   25.78
   0  -3 -10  192.09   25.72
   0  -3 -10  168.79   17.37
   0   3 -11  433.69   40.01
   0  -3 -11  353.88   26.90
   0  -3 -11  486.19   43.47
   0  -3 -12  245.89   32.40
   0  -3 -12  187.35   19.59
   0   3 -12  215.00   29.69
   0  -3 -13    4.55    6.41
   0  -3  13  -11.92   16.54
   0  -3  14   45.11   24.33
   0  -3 -14   37.48   14.76
   0  -3  15   49.59   21.86
   0  -3 -15   71.74   19.86
   0  -3 -16   25.10   13.38
   0  -3  16   16.86   17.20
   0  -3  17   97.31   35.29
   0  -3  18   29.79   19.65
   0   3  19   -0.76   13.93
   0  -4   0 2443.71   57.91
   0  -4   0 2310.00   64.29
   0   4   1  216.81   12.42
   0   4  -1  247.74   15.41
   0  -4  -1  242.71   14.87
   0   4   1  275.69   15.89
   0  -4   1  224.00   14.49
   0  -4   2 3518.12   96.20
   0   4   2 3715.72   94.46
   0   4   3   77.35    6.80
   0  -4  -3   72.17    9.29
   0  -4   3   84.27   11.79
   0  -4   4 2109.75   80.20
   0  -4  -4 1916.29   67.42
   0  -4  -5   12.87    3.16
   0  -4  -5   13.45    4.71
   0  -4  -6 2643.12   89.00
   0  -4  -6 2571.59   69.97
   0  -4   6 2814.49  109.65
   0   4  -7  736.38   45.88
   0  -4  -7  722.94   31.12
   0  -4  -7  758.11   44.01
   0  -4   7  850.54   59.08
   0   4  -8 1469.31   70.49
   0  -4   8 1768.08   92.34
   0  -4  -8 1660.70   71.80
   0  -4  -8 1412.43   50.71
   0  -4  -9   82.47   16.31
   0  -4  -9   57.13    9.35
   0   4  -9   48.05   12.93
   0  -4   9   55.70   17.26
   0  -4 -10   13.76    5.61
   0   4 -10    2.71    5.95
   0  -4  10   13.40   11.26
   0  -4 -10   12.17    8.84
   0  -4 -11   11.38    5.67
   0  -4 -11   11.19    5.55
   0  -4  11   19.31   12.92
   0  -4  12  668.32   67.77
   0  -4 -12  698.48   55.07
   0  -4 -12  611.65   35.56
   0  -4  13   79.22   23.90
   0  -4 -13  128.17   25.08
   0  -4  14  106.30   31.69
   0  -4 -14  177.70   29.86
   0  -4  15   -8.93   14.88
   0  -4 -15   -1.54    7.23
   0  -4  16   13.45   13.28
   0  -4 -16   28.97   14.42
   0  -4  17   58.46   28.18
   0  -4  18   59.61   29.57
   0  -5   0    2.34    1.38
   0  -5   0   -0.02    1.64
   0  -5  -1  370.79   20.67
   0   5   1  351.75   17.06
   0  -5  -1  354.61   17.86
   0  -5   1  326.39   19.29
   0  -5   2 3388.56   93.82
   0   5   2 3405.99   89.67
   0  -5  -3 4791.36  119.53
   0  -5   3 4527.28  128.11
   0  -5   4 3500.23  112.68
   0   5   4 3430.31   85.87
   0  -5  -4 3705.86  100.79
   0  -5  -5  377.66   27.13
   0  -5   5  349.80   32.24
   0  -5  -6  338.03   26.87
   0  -5   6  371.06   36.65
   0  -5  -7    3.32    5.53
   0  -5   7   -7.37    9.72
   0  -5  -8  471.15   36.84
   0  -5   8  481.30   47.37
   0  -5  -9  382.19   34.16
   0  -5  -9  314.72   21.09
   0  -5   9  385.29   45.35
   0  -5 -10  889.90   56.62
   0  -5  10  879.81   71.74
   0  -5  11  534.74   59.12
   0  -5 -11  475.25   43.42
   0  -5 -12  177.77   28.28
   0  -5  12  162.94   34.47
   0  -5  13  -10.60   15.20
   0  -5 -13   -3.55    6.54
   0  -5 -14   20.89   12.06
   0  -5  14   36.65   21.73
   0  -5  15   34.20   20.66
   0  -5 -15   32.20   15.02
   0  -5  16  108.32   35.77
   0  -5 -16   63.14   19.86
   0  -5  17   40.88   23.96
   0  -5  18    7.52   16.39
   0  -6   0  908.44   28.11
   0  -6   0  793.84   33.90
   0  -6  -1  174.39   12.56
   0  -6  -1  164.67   14.58
   0  -6   1  187.51   15.17
   0   6   1  191.13   12.78
   0  -6  -2 2107.94   66.91
   0  -6   2 2096.69   68.44
   0   6   2 2145.39   63.84
   0  -6   3   81.97   12.58
   0  -6  -4 1097.60   47.33
   0   6   4 1098.80   37.03
   0  -6   4 1114.09   56.02
   0  -6  -5 1020.80   48.44
   0  -6   5 1119.67   60.62
   0  -6   6  712.86   52.06
   0  -6  -6  765.86   43.31
   0  -6  -7   75.58   13.30
   0  -6   7   66.49   17.81
   0  -6   8  679.92   56.43
   0  -6  -8  515.89   39.40
   0  -6  -9  253.17   28.30
   0  -6   9  283.44   39.33
   0  -6  10    2.34   10.75
   0  -6 -10    4.55    8.49
   0  -6 -11  253.72   31.73
   0  -6  11  270.54   42.01
   0  -6  12  358.07   50.88
   0  -6 -12  266.46   33.91
   0  -6 -13   87.49   21.18
   0  -6  13   61.74   23.21
   0  -6 -14   72.25   19.79
   0  -6  14   47.05   22.51
   0  -6  15    3.81   14.60
   0  -6 -15   38.00   16.23
   0  -6  16   55.00   25.05
   0  -6 -16    5.04    9.15
   0  -6  17   19.61   22.90
   0  -6  18   61.54   32.16
   0  -7   0    4.54    3.83
   0  -7   0    3.15    1.91
   0  -7   1  164.57   15.15
   0   7   1  177.26   12.88
   0  -7  -1  166.41   13.03
   0  -7  -1  173.58   15.94
   0  -7  -2 2662.56   83.25
   0  -7   2 2870.23   86.14
   0  -7   3 1115.11   51.46
   0  -7   4 5702.20  166.58
   0  -7  -4 6133.86  155.77
   0  -7  -5  426.01   30.50
   0  -7   5  421.83   37.11
   0  -7  -6    4.57    4.04
   0  -7   6    8.94    8.87
   0  -7  -7    8.58    5.58
   0  -7   7   11.26    6.92
   0  -7  -8  304.02   30.37
   0  -7   8  326.43   40.52
   0  -7  -9  466.04   40.57
   0  -7   9  566.92   56.22
   0  -7  10 2242.80  122.30
   0  -7 -10 1996.36   94.50
   0  -7 -11  251.40   32.45
   0  -7  11  345.91   48.12
   0  -7 -12   58.59   16.28
   0  -7  12   76.96   25.07
   0  -7  13   20.91   17.14
   0  -7 -13   39.81   16.55
   0  -7  14   17.88   18.98
   0  -7 -14   32.41   14.64
   0  -7  15   -5.04   15.28
   0  -7 -15   27.33   15.36
   0  -7 -16  142.13   29.48
   0  -7  16  148.65   39.49
   0  -7  17    1.71   18.28
   0  -7  18  -18.90   20.56
   0  -8   0 1222.85   37.57
   0  -8   0 1068.05   46.29
   0  -8  -1 1230.80   41.91
   0  -8   1 1080.23   46.72
   0  -8  -1 1123.94   47.96
   0  -8   2   62.46   10.87
   0  -8  -2   57.34   10.06
   0  -8   3  303.04   25.77
   0  -8   4   11.01    7.49
   0  -8  -4    9.64    5.39
   0  -8   5 1555.66   75.66
   0  -8  -5 1583.45   66.44
   0  -8   6  454.09   43.17
   0  -8  -6  506.36   36.85
   0  -8  -7  215.99   24.77
   0  -8   7  276.48   35.98
   0  -8  -8   54.11   13.36
   0  -8   8   72.57   19.65
   0  -8  -9  339.04   34.90
   0  -8   9  399.43   48.31
   0  -8  10   10.34   13.65
   0  -8 -10   11.57    9.35
   0  -8 -11  247.90   32.97
   0  -8  11  279.84   44.23
   0  -8  12   29.01   22.27
   0  -8 -12    9.33    7.29
   0  -8  13  126.66   32.01
   0  -8 -13   99.43   23.31
   0  -8 -14   49.21   18.01
   0  -8  14   65.17   23.04
   0  -8  15   82.62   31.31
   0  -8 -15   66.01   21.97
   0  -8  16   27.80   20.92
   0  -8  17   63.21   30.33
   0  -8  18   23.09   23.72
   0  -9   0    0.36    1.28
   0  -9   0    3.58    2.88
   0  -9   1  823.48   41.26
   0  -9  -1  903.71   43.51
   0  -9  -2 2179.91   76.55
   0  -9   2 2191.88   76.99
   0  -9   3  146.83   18.56
   0  -9   4 3375.32  114.81
   0  -9  -5  885.41   48.79
   0  -9   5  877.19   55.98
   0  -9   6  188.60   26.06
   0  -9  -6   19.96    8.98
   0  -9   7   16.90   12.26
   0  -9  -7    2.45    6.59
   0  -9   8  630.85   59.19
   0  -9  -8  527.50   42.70
   0  -9  -9  109.31   20.36
   0  -9   9  169.55   32.26
   0  -9 -10 1730.78   90.45
   0  -9  10 1973.84  116.52
   0  -9  11   96.41   26.87
   0  -9 -11   65.68   19.33
   0  -9 -12   78.36   20.82
   0  -9  12   61.60   24.04
   0  -9 -13   51.65   17.72
   0  -9  13  105.51   31.49
   0  -9 -14   47.84   18.13
   0  -9  14   48.35   25.37
   0  -9 -15   36.47   16.91
   0  -9  15   51.33   25.59
   0  -9  16  179.37   42.73
   0  -9  17   -9.40   18.87
   0  -9  18   22.93   19.21
   0 -10   0  268.95   16.49
   0 -10   0  246.77   22.18
   0 -10  -1 1629.31   66.03
   0 -10   1 1635.33   65.23
   0 -10   1 1788.26   51.41
   0 -10  -2  894.73   45.95
   0 -10   2  910.29   46.60
   0 -10  -3   49.32   10.47
   0 -10   3   62.16   12.77
   0 -10   4  241.11   26.17
   0 -10   5  599.77   45.78
   0 -10  -5  467.82   35.41
   0 -10  -6   14.52    5.97
   0 -10   6   11.07    8.02
   0 -10   7 1146.67   75.26
   0 -10  -7  979.37   59.44
   0 -10  -8   12.63    9.25
   0 -10   8   15.95   12.86
   0 -10  -9  157.14   25.52
   0 -10   9  199.57   36.57
   0 -10 -10   46.43   15.86
   0 -10  10   22.83   16.46
   0 -10  11   30.04   16.28
   0 -10 -11   58.05   17.69
   0 -10 -12   10.32    9.34
   0 -10  12    7.94   13.51
   0 -10  13  276.32   50.93
   0 -10 -13  208.50   33.38
   0 -10  14   21.47   20.17
   0 -10 -14   27.16   16.77
   0 -10  15   65.47   32.90
   0 -10 -15   42.99   17.37
   0 -10  16   17.38   18.46
   0 -10  17   19.82   21.99
   0 -11   0    3.61    3.03
   0 -11   0    3.78    5.37
   0 -11   1  517.87   24.05
   0 -11   1  440.69   31.92
   0 -11  -1  472.16   33.41
   0 -11  -2 2073.63   80.68
   0 -11   2 2342.35   85.12
   0 -11  -3    3.53    4.27
   0 -11   3    0.15    4.28
   0 -11   4 1632.10   76.57
   0 -11  -5  381.76   32.90
   0 -11   5  420.48   39.65
   0 -11  -6  332.05   32.19
   0 -11   6  375.75   39.71
   0 -11  -7    3.86    7.61
   0 -11   7   13.20   12.54
   0 -11   8 1434.51   92.07
   0 -11  -8 1308.69   74.44
   0 -11   9   -3.64   17.96
   0 -11  -9  -22.71   11.95
   0 -11 -10  481.30   47.01
   0 -11  10  579.25   64.03
   0 -11 -11   12.14   10.89
   0 -11  11  -10.13   16.09
   0 -11  12  245.84   44.81
   0 -11 -12  116.38   25.07
   0 -11  13   62.09   27.91
   0 -11 -13  104.78   25.72
   0 -11 -14  112.24   26.61
   0 -11  14   70.37   27.05
   0 -11 -15  -12.68   13.83
   0 -11  15   61.48   30.10
   0 -11  16  130.28   39.64
   0 -11  17   61.02   31.44
   0 -12   0  409.96   32.42
   0 -12   0  435.76   23.08
   0 -12   1 1483.04   66.71
   0 -12   1 1690.29   51.27
   0 -12  -1 1510.74   68.06
   0 -12  -2  161.73   20.30
   0 -12   2  145.02   19.87
   0 -12  -3    6.93    4.83
   0 -12   3    4.04    5.29
   0 -12   4   35.25   12.62
   0 -12  -5  137.29   21.05
   0 -12   5  185.47   26.44
   0 -12  -6  105.51   19.49
   0 -12   6  140.79   24.59
   0 -12   7 2205.91  110.54
   0 -12  -7 2032.56   93.86
   0 -12  -8  158.32   25.53
   0 -12   8  161.07   30.54
   0 -12   9   16.82   10.66
   0 -12  -9   42.27   14.74
   0 -12 -10   -4.99    7.72
   0 -12  10   -8.07   10.50
   0 -12 -11  -13.85   12.28
   0 -12  11    2.03   11.37
   0 -12  12   34.93   22.38
   0 -12 -12   33.70   14.75
   0 -12  13  273.28   50.58
   0 -12 -13  264.42   39.96
   0 -12  14   30.38   21.52
   0 -12 -14   30.78   15.69
   0 -12 -15   46.03   18.45
   0 -12  15   42.70   23.92
   0 -12  16  -14.56   18.56
   0 -12  17   -2.29   15.60
   0 -13   0    2.66    2.34
   0 -13   0    2.02    5.35
   0 -13   1   49.53    7.31
   0 -13   1   60.44   12.87
   0 -13  -1   48.53   12.42
   0 -13   2 1466.87   49.25
   0 -13   2 1489.50   70.11
   0 -13  -2 1383.87   67.17
   0 -13  -3   17.36    7.37
   0 -13   3   24.09    9.94
   0 -13   4  633.50   48.10
   0 -13  -5    2.72    5.38
   0 -13   5   15.39   10.48
   0 -13   6  267.80   35.10
   0 -13  -6  226.34   28.47
   0 -13   7   19.04   13.03
   0 -13  -7   36.60   14.20
   0 -13   8  723.76   65.38
   0 -13  -8  662.31   54.40
   0 -13   9    2.82   11.96
   0 -13  -9    6.85    8.76
   0 -13  10  228.57   42.45
   0 -13 -10  253.79   35.40
   0 -13 -11    3.81    8.02
   0 -13  11  -13.74   14.52
   0 -13 -12  116.46   26.37
   0 -13  12  158.01   37.69
   0 -13 -13   24.09   15.62
   0 -13  13    3.16   15.03
   0 -13  14   84.12   31.85
   0 -13 -14   57.30   20.16
   0 -13  15   35.64   23.25
   0 -13  16   44.52   26.95
   0 -13  17   11.04   15.98
   0 -14   0 1184.75   61.63
   0 -14  -1 1076.44   59.64
   0 -14   1 1159.27   62.21
   0 -14   1 1164.90   41.49
   0 -14   2    3.01    2.33
   0 -14  -2    9.93    7.98
   0 -14   2   -1.44    7.54
   0 -14  -3   27.51   10.93
   0 -14   3   42.92   13.28
   0 -14   4   -1.82    6.88
   0 -14   5  301.94   35.02
   0 -14   6  697.39   58.33
   0 -14  -6  675.02   51.51
   0 -14   7 1094.44   78.34
   0 -14  -7 1011.15   66.75
   0 -14  -8  168.09   28.27
   0 -14   8  130.78   29.21
   0 -14  -9   65.82   18.92
   0 -14   9   76.05   24.42
   0 -14  10  -10.89   10.93
   0 -14 -10   26.67   13.89
   0 -14 -11   -6.34   10.41
   0 -14  11    2.93   13.69
   0 -14  12  100.83   32.41
   0 -14 -12   61.53   19.21
   0 -14 -13  161.52   32.41
   0 -14  13  260.42   51.35
   0 -14 -14   67.91   23.68
   0 -14  14   67.28   28.87
   0 -14  15  117.01   37.21
   0 -14  16   44.97   26.11
   0 -15   0    8.41    9.31
   0 -15   1  555.82   26.37
   0 -15   1  482.14   40.27
   0 -15  -1  475.60   39.78
   0 -15   2  344.05   34.00
   0 -15  -2  372.88   34.57
   0 -15   2  363.62   21.49
   0 -15  -3   -4.16    7.00
   0 -15   3    7.30    6.43
   0 -15   4  503.60   44.88
   0 -15   5  206.21   30.06
   0 -15   6   10.94   10.19
   0 -15  -6   17.73   11.25
   0 -15   7    8.15   13.20
   0 -15  -7    6.37    8.45
   0 -15  -8  166.94   28.00
   0 -15   8  195.28   35.28
   0 -15   9   60.48   23.79
   0 -15  -9   37.50   14.60
   0 -15  10  249.93   44.26
   0 -15 -10  221.78   34.74
   0 -15 -11  -14.46   14.37
   0 -15  11   -5.40   15.33
   0 -15  12   51.66   26.67
   0 -15 -12   -1.63    8.62
   0 -15 -13   33.69   19.38
   0 -15  13   -6.01   18.71
   0 -15 -14   15.93   13.19
   0 -15  14   24.70   19.46
   0 -15  15   17.39   15.89
   0 -15  16   18.88   22.66
   0 -16   0 1039.59   62.05
   0 -16   1  755.39   52.92
   0 -16  -1  686.71   49.74
   0 -16   2   14.02    4.11
   0 -16   2   20.08   10.74
   0 -16  -2   17.41    9.66
   0 -16   3  102.94   12.18
   0 -16  -3   77.89   16.80
   0 -16   3   99.12   20.01
   0 -16   4    9.54    9.95
   0 -16   5  482.14   47.53
   0 -16  -6  531.85   47.30
   0 -16   6  609.98   56.73
   0 -16  -7  181.93   29.05
   0 -16   7  223.09   36.32
   0 -16  -8  102.92   23.44
   0 -16   8  122.98   29.44
   0 -16   9  283.43   46.64
   0 -16  -9  261.06   37.09
   0 -16 -10   27.33   16.25
   0 -16  10  -13.63   20.65
   0 -16 -11   63.25   21.23
   0 -16  11   50.20   26.98
   0 -16 -12   90.42   26.41
   0 -16  12  115.36   35.34
   0 -16 -13   41.65   18.80
   0 -16  13  102.54   35.03
   0 -16  14   61.39   28.00
   0 -16  15   53.85   26.67
   0 -17   0   -3.71    6.46
   0 -17  -1   71.67   17.08
   0 -17   1   56.62   14.91
   0 -17   2   21.58   10.55
   0 -17  -2   25.54    9.39
   0 -17   3  216.68   29.98
   0 -17  -3  218.42   29.19
   0 -17   4  311.77   38.51
   0 -17   5  185.06   30.72
   0 -17  -6   48.48   16.15
   0 -17   6   41.28   15.63
   0 -17   7   15.15   11.36
   0 -17  -7   12.05   11.74
   0 -17   8   -2.72   12.83
   0 -17  -8    2.02    9.32
   0 -17   9  146.32   35.62
   0 -17  -9   93.03   23.72
   0 -17 -10  176.93   33.31
   0 -17  10  173.53   38.50
   0 -17  11   68.66   28.55
   0 -17 -11   61.30   19.85
   0 -17 -12    0.52   11.93
   0 -17  12  -13.51   19.38
   0 -17  13   17.69   18.57
   0 -17 -13    0.46   11.92
   0 -17  14   15.66   26.89
   0 -17  15   34.02   23.14
   0 -18   0  375.34   38.89
   0 -18   1  170.56   26.51
   0 -18  -1  168.00   25.85
   0 -18  -2  240.36   31.29
   0 -18   2  244.76   32.58
   0 -18   3   84.72   19.65
   0 -18  -3   89.50   20.02
   0 -18   4  129.05   24.46
   0 -18   5  292.83   38.81
   0 -18  -6  283.36   36.17
   0 -18   6  255.90   38.24
   0 -18  -7  103.79   24.11
   0 -18   7  119.19   28.04
   0 -18   8  130.31   31.94
   0 -18  -8   85.17   22.22
   0 -18  -9   86.87   22.83
   0 -18   9  159.39   35.36
   0 -18 -10    4.35   10.52
   0 -18  10   -1.55   13.39
   0 -18 -11   20.74   15.97
   0 -18  11  -16.36   18.53
   0 -18 -12  135.35   31.25
   0 -18  12  180.43   45.94
   0 -18 -13    4.09   11.10
   0 -18  13   55.96   29.91
   0 -18  14   -2.72   18.91
   0 -18  15    4.87   17.24
   0 -19   0   -8.78   10.50
   0 -19   1   11.41   10.58
   0 -19  -1   -3.25    7.30
   0 -19   2   17.04   10.83
   0 -19  -2   20.62   12.35
   0 -19   3  609.29   54.86
   0 -19  -3  602.91   51.55
   0 -19   4   41.57   16.15
   0 -19   5   92.47   23.75
   0 -19   6    3.04    9.50
   0 -19  -6   20.12   14.02
   0 -19  -7    9.58   11.34
   0 -19   7   -0.47   11.01
   0 -19  -8    0.07    9.39
   0 -19   8   15.33   16.51
   0 -19  -9  117.08   26.20
   0 -19   9  120.29   31.51
   0 -19 -10   35.50   18.47
   0 -19  10   44.12   22.28
   0 -19  11   93.34   32.94
   0 -19 -11  110.54   28.02
   0 -19  12   11.25   19.06
   0 -19 -12    9.83   12.55
   0 -19 -13   -8.31   14.20
   0 -19  13  -10.08   18.08
   0 -19  14  -16.45   18.05
   0 -20   0   71.50   18.05
   0 -20  -1   71.94   19.26
   0 -20   1   47.50   16.03
   0 -20  -2  252.41   34.35
   0 -20   2  292.51   38.19
   0 -20   3    4.16    8.03
   0 -20  -3   -6.44    8.98
   0 -20   4  142.89   28.17
   0 -20   5   31.41   10.96
   0 -20  -6  145.68   28.01
   0 -20   6  165.85   34.27
   0 -20   7   88.05   26.94
   0 -20  -7   60.86   20.01
   0 -20  -8   98.64   25.78
   0 -20   8   81.08   26.14
   0 -20  -9    8.84   13.46
   0 -20   9   12.82   15.09
   0 -20  10   22.36   21.08
   0 -20 -10   13.77   11.79
   0 -20 -11   30.92   19.49
   0 -20  11   -8.85   18.14
   0 -20 -12   67.62   22.92
   0 -20  12   94.47   34.89
   0 -20  13   -7.94   21.26
   0 -21   0   16.80   11.79
   0 -21   1   21.29   11.44
   0 -21  -1   11.33    9.77
   0 -21  -2   13.07   10.97
   0 -21   2    7.88    8.69
   0 -21   3  448.57   50.71
   0 -21  -3  465.06   48.06
   0 -21   4   -2.64    8.69
   0 -21   5  123.92   30.34
   0 -21   6   36.27   19.25
   0 -21  -6   18.58   13.49
   0 -21   7    5.44    9.67
   0 -21  -7   26.04   15.24
   0 -21   8   27.93   20.48
   0 -21  -8   20.81   13.83
   0 -21  -9   68.96   21.62
   0 -21   9  102.93   33.50
   0 -21  10    1.16   13.87
   0 -21 -10    2.50    8.29
   0 -21 -11  103.69   28.60
   0 -21  11  121.54   39.97
   0 -21  12   55.43   28.42
   0 -21 -12   28.48   18.56
   0 -21  13    3.97   14.28
   0 -22   0  149.89   29.38
   0 -22   1   11.56    9.41
   0 -22  -1  -13.25   10.94
   0 -22  -2   65.40   19.16
   0 -22   2   79.24   23.42
   0 -22   3   34.16   16.47
   0 -22   4   50.49   22.25
   0 -22   5   23.91   16.01
   0 -22   6   94.78   27.76
   0 -22  -6   93.68   25.25
   0 -22   7   15.01   17.34
   0 -22  -7   13.29    8.60
   0 -22  -8   51.60   19.26
   0 -22   8   92.97   28.99
   0 -22   9  -12.26   17.11
   0 -22  -9    1.32    8.30
   0 -22  10   -4.65   18.54
   0 -22 -10   -3.63   10.14
   0 -22  11   32.88   22.90
   0 -22 -11   23.96   17.82
   0 -22  12   54.53   28.56
   0 -22 -12   59.75   23.58
   0 -23   0   13.89   12.10
   0 -23  -1   94.84   21.60
   0 -23   1  122.43   27.44
   0 -23   2  -16.70   14.22
   0 -23  -2    1.24    7.38
   0 -23   3  121.75   29.28
   0 -23   4    3.06   13.13
   0 -23  -5  135.71   29.18
   0 -23   5  131.92   29.83
   0 -23   6   44.51   20.14
   0 -23  -6   33.89   18.30
   0 -23   7   38.51   22.48
   0 -23  -7   13.05   10.04
   0 -23   8   -0.27   13.53
   0 -23  -8   -9.66   12.70
   0 -23  -9   58.62   21.54
   0 -23   9  123.03   37.41
   0 -23 -10    5.16   10.21
   0 -23  10   39.92   21.32
   0 -23  11   77.37   32.44
   0 -23 -11    9.57   12.96
   0 -24   0  185.13   33.45
   0 -24  -1   16.39   13.19
   0 -24   1    2.25    9.71
   0 -24   2    0.19   11.31
   0 -24  -2    2.79    9.36
   0 -24   3   -9.52   11.43
   0 -24   4    1.68   10.77
   0 -24  -5    4.04   11.12
   0 -24   5  -10.48   13.74
   0 -24  -6   59.76   21.35
   0 -24   6   58.40   22.55
   0 -24  -7  -11.22   12.69
   0 -24   7   -6.89   12.55
   0 -24   8   10.99   14.86
   0 -24  -8    8.10   12.20
   0 -24  -9   16.95   15.81
   0 -24   9   25.24   22.50
   0 -24 -10  -17.49   15.29
   0 -24  10    8.21   13.32
   0 -24 -11   54.35   22.93
   0 -24  11  -11.54   17.69
   0 -25   0   11.84   15.52
   0 -25   1   55.22   20.63
   0 -25  -1   57.71   17.83
   0 -25   2   -1.09    9.99
   0 -25  -2    7.72    9.70
   0 -25   3   13.09   14.97
   0 -25   4  -17.25   13.43
   0 -25   5   71.19   26.63
   0 -25  -5   59.98   20.88
   0 -25   6   -0.26   15.07
   0 -25  -6   16.49   13.60
   0 -25  -7   24.68   16.43
   0 -25   7    0.17   14.61
   0 -25   8   29.70   20.28
   0 -25  -8   25.09   15.10
   0 -25   9   70.48   28.47
   0 -25  -9   78.94   26.13
   0 -25 -10   27.16   15.50
   0 -25  10   -5.53   16.68
   0 -26   0   79.39   24.07
   0 -26  -1   38.58   17.57
   0 -26   1   28.26   17.89
   0 -26   2    7.95    9.29
   0 -26   3    7.39   11.92
   0 -26   4  -12.22   15.48
   0 -26   5   -1.81   12.99
   0 -26  -5    1.76   11.89
   0 -26   6   10.09   15.71
   0 -26  -6   72.86   24.94
   0 -26   7   72.99   30.25
   0 -26  -7   37.71   17.34
   0 -26   8   -8.71   15.95
   0 -26  -8   19.49   15.76
   0 -26  -9    9.22   11.72
   0 -26   9   43.94   26.40
   0 -27   0    4.85   10.90
   0 -27   1   13.03   13.76
   0 -27  -1  -14.11   15.79
   0 -27   2   32.13   16.85
   0 -27   3   22.64   18.07
   0 -27   4  -10.45   16.70
   0 -27  -5   14.86   13.38
   0 -27   5   10.03   12.40
   0 -27  -6   30.66   16.25
   0 -27   6    4.20   16.13
   0 -27  -7   11.13   13.51
   0 -27   7   22.63   19.52
   0 -27  -8   18.41   14.65
   0 -28   0   12.58   13.95
   0 -28   1    9.33   12.47
   0 -28  -1   40.81   20.39
   0 -28   2  -15.05   11.85
   0 -28   3   10.61   14.36
   0 -28  -4    0.66   11.17
   0 -28   4    1.82   13.16
   0 -28  -5   10.64   13.99
   0 -28   5   -9.88   16.29
   0 -28  -6    8.50    9.50
   0 -28   6  -10.41   20.39
   0 -28  -7    9.32   11.81
   0 -29   0   25.93   18.70
   0 -29   1   31.88   18.07
   0 -29   2    3.38    9.07
   0 -29   3   16.05   16.65
   0 -29   4   -5.12   12.97
   0 -29  -4   17.76   14.70
  -1   0  19   23.98   17.98
  -1   0  18   17.42   19.06
  -1   0  17   41.10   20.78
  -1   0  16  -25.65   17.19
   1   0 -15   67.62   16.84
  -1   0  15   62.95   23.01
   1   0 -14    1.31    5.78
   1   0 -13  182.69   26.33
   1   0 -12   14.41    8.66
   1   0 -12    7.99    8.17
   1   0 -11  496.98   37.83
   1   0 -11  436.65   39.05
   1   0 -10    2.60    5.47
   1   0  -9  225.58   22.12
   1   0  -8    4.38    3.36
   1   0  -7  173.31   16.52
   1   0  -6    2.00    2.32
  -1   0   5 2967.79   81.11
   1   0  -5 2871.23   77.90
  -1   0   4    0.28    1.86
   1   0  -3  205.23   17.73
  -1   0   3  240.83   11.10
  -1   0   2    1.93    1.23
   1   0  -2    6.44    2.85
  -1   0   1 1533.80   39.09
   1   0  -1 1558.66   50.13
   1   0  -1 1623.60   38.22
  -1   0   1 1500.52   36.85
   1   0  -1 1548.78   37.54
   1   0   0    1.53    1.25
   1   0   0    0.72    0.64
  -1   0   0    3.94    2.13
  -1   0   0    4.80    1.98
   1   0   0    1.96    1.47
   1   0   1 1485.03   48.51
  -1   0  -1 1493.04   41.68
  -1   0  -2   -2.50    3.07
  -1   0  -3 1247.36   52.66
  -1   0  -4    2.08    3.94
  -1   0  -5 1184.39   58.14
  -1   0  -6   -3.91    3.94
  -1   0  -7  663.02   47.25
  -1   0  -8   -4.51    8.35
  -1   0  -9 1053.04   66.65
  -1   0 -10    6.77    8.13
  -1   0 -11  227.83   32.36
  -1   0 -12    3.39    8.75
  -1   0 -13  119.55   23.89
  -1   0 -14    3.66   10.73
  -1   0 -15  122.30   28.24
  -1   0 -16    3.27    8.86
  -1   0 -17    1.01    9.39
  -1   0 -18    3.21   14.89
   1   0  18  -23.39   22.14
  -1   1  19   36.05   21.01
  -1  -1  19   -9.26   14.43
  -1   1  18   33.71   22.17
  -1  -1  18   64.29   27.23
  -1  -1  17  -14.83   16.53
  -1   1  17   -2.42   12.53
  -1   1  16  179.19   37.41
  -1  -1  16  191.89   39.42
  -1  -1  15  -10.43    9.46
   1   1 -15   -5.54    8.80
  -1  -1  14   23.66   15.34
   1   1 -14   68.10   17.74
   1  -1 -14   34.10   11.70
   1   1 -13   26.43   12.18
   1  -1 -13   25.40    9.13
  -1  -1  13   18.91    9.75
   1  -1 -13   22.55    9.65
   1  -1 -12  146.53   21.21
   1  -1 -12  136.35   20.90
   1  -1 -11   11.49    5.67
   1  -1 -11   13.60    7.78
   1  -1 -10 2516.22   99.01
   1  -1 -10 2843.77   95.76
   1   1  -9   62.62   12.16
   1  -1  -9   52.83   10.34
   1  -1  -9   61.00   12.80
   1  -1  -8  590.26   38.45
   1  -1  -8  615.48   33.74
   1   1  -8  605.83   36.45
   1  -1  -7   -3.57    2.77
   1  -1  -7   -1.52    3.65
   1  -1  -6   38.01    8.71
   1  -1  -6   30.29    5.88
  -1   1   5  103.64    9.97
   1  -1  -5  110.25    9.92
   1  -1  -5  120.58   14.08
  -1  -1   5  137.62   13.85
  -1   1   4 6972.94  152.57
  -1  -1   4 6646.32  177.49
  -1  -1   4 6407.16  161.09
   1  -1  -4 7047.53  169.07
  -1  -1   3  172.59   15.28
   1   1  -3  170.71   15.59
   1  -1  -3  160.76   14.01
  -1  -1   3  208.96   11.80
   1   1  -2 4280.61  110.41
   1   1  -2 4752.72  107.69
  -1  -1   2 4273.89  104.94
  -1  -1   2 4578.05  115.57
  -1  -1   1   16.97    2.79
   1   1  -1   13.47    3.73
  -1   1   1   18.86    4.17
   1  -1  -1   17.64    2.55
   1   1  -1   19.10    3.12
  -1   1   1   22.96    3.20
  -1  -1   1   20.52    3.16
  -1  -1   0   92.03    6.80
   1  -1   0   92.93    8.40
  -1   1   0   81.48    8.11
   1   1   0   89.55    6.75
  -1  -1   0   97.10    8.69
  -1   1   0   97.62    9.24
   1  -1   0  102.87    8.84
   1   1   0   97.93    8.32
   1   1   0   94.49    8.04
   1   1   1  462.00   23.10
   1  -1   1  462.29   24.56
  -1  -1  -1  495.43   19.20
  -1  -1  -1  511.77   24.50
   1   1   1  545.72   19.33
   1   1   1  421.28   18.54
  -1   1  -1  509.96   26.29
  -1  -1  -2 4224.61  115.56
  -1   1  -2 4301.17  119.42
  -1  -1  -2 4510.64   96.54
  -1  -1  -3  520.73   31.19
  -1   1  -3  559.22   34.29
  -1  -1  -4 8034.89  204.16
  -1   1  -4 8214.79  208.50
  -1  -1  -5  100.43   15.35
  -1   1  -5  104.49   16.03
  -1  -1  -6   38.75   10.51
  -1   1  -6   24.88   10.05
  -1  -1  -7    0.77    5.39
  -1   1  -7    5.95    5.51
  -1   1  -8  574.30   46.52
  -1  -1  -8  576.02   46.46
  -1   1  -9   32.19   11.84
  -1  -1  -9   15.78   10.01
  -1  -1 -10 2761.73  121.48
  -1   1 -10 2872.55  120.62
  -1  -1 -11   15.88    7.65
  -1   1 -11   25.64   14.11
  -1   1 -12  192.10   28.89
  -1  -1 -12  164.65   28.57
  -1  -1 -13   -0.70    7.96
  -1   1 -13   -0.37   10.56
  -1  -1 -14   18.44   12.95
  -1   1 -14   59.80   19.37
  -1   1 -15   -1.25    7.89
  -1  -1 -15   12.80   13.33
  -1   1 -16  187.00   35.73
  -1  -1 -16  167.94   32.61
  -1  -1 -17   38.52   18.56
  -1   1 -17   16.71   12.99
  -1  -1 -18  118.66   30.07
   1  -1  18   77.33   32.00
  -1  -2  19   34.67   21.36
  -1   2  19   -2.56   13.20
  -1   2  18  -20.50   18.27
  -1  -2  18   32.32   22.54
  -1   2  17   -3.37   13.64
  -1  -2  17   40.68   26.09
  -1  -2  16  -21.57   18.15
   1   2 -15   46.49   16.56
  -1  -2  15   27.67   19.01
  -1  -2  14    1.71   10.95
   1  -2 -14    5.83    6.97
   1  -2 -14    9.87    9.07
   1   2 -14   -3.47    8.22
   1  -2 -13  243.62   28.77
   1  -2 -13  239.01   28.28
  -1  -2  13  277.16   42.68
   1  -2 -12  114.38   18.64
   1  -2 -12  111.19   19.14
   1  -2 -11  399.52   34.32
   1  -2 -11  419.15   33.36
  -1  -2  11  401.08   47.91
   1  -2 -10   11.88    5.52
  -1  -2  10   37.74   17.21
   1  -2 -10   30.28   10.32
   1  -2  -9   89.17   15.33
  -1  -2   9   71.74   19.24
   1  -2  -9   95.66   14.32
   1  -2  -8  184.41   20.40
   1  -2  -8  173.23   17.71
  -1  -2   8  198.44   28.65
   1  -2  -7  768.25   36.83
   1  -2  -7  709.45   39.53
  -1  -2   7  805.82   54.64
   1  -2  -6  254.44   17.97
   1  -2  -6  247.65   21.15
  -1  -2   6  238.49   27.01
   1  -2  -5 2109.43   58.25
  -1  -2   5 2166.61   82.32
   1  -2  -5 2039.03   67.29
   1  -2  -4  783.96   35.52
   1  -2  -4  809.50   26.40
  -1  -2   4  827.82   42.25
  -1  -2   4  849.82   34.05
  -1  -2   3   48.58    8.16
   1  -2  -3   44.34    7.21
   1   2  -2 3582.62   93.53
  -1  -2   2 3819.99   98.39
  -1  -2   2 3458.74   91.44
   1  -2  -2 3816.01   95.85
   1   2  -2 3838.45   92.64
   1   2  -1 1026.71   32.02
   1  -2  -1  907.65   29.31
   1   2  -1 1020.32   35.06
  -1  -2   1 1011.09   31.67
   1  -2   0  109.19   10.31
  -1  -2   0  118.98    9.81
  -1   2   0   84.50    8.03
  -1   2   0  108.75    9.83
  -1  -2   0  116.55    9.12
   1   2   0  112.10    8.77
   1   2   1 3015.61   75.38
   1   2   1 3044.72   70.64
  -1   2  -1 2927.69   83.30
  -1  -2  -1 3184.21   82.16
  -1  -2  -2 2521.56   77.11
   1   2   2 2603.03   59.10
  -1   2  -2 2668.83   83.33
  -1  -2  -3  762.27   38.89
  -1   2  -3  820.80   43.18
  -1   2  -4  741.25   44.17
  -1  -2  -4  783.99   42.55
  -1   2  -5 1255.32   62.91
  -1  -2  -5 1263.52   59.77
  -1  -2  -6  236.30   25.79
  -1   2  -6  241.23   27.15
  -1  -2  -7  871.01   54.24
  -1   2  -7  941.14   57.34
  -1   2  -8  393.24   37.15
  -1  -2  -8  475.64   41.44
  -1   2  -9  567.96   46.09
  -1  -2  -9  545.40   46.96
  -1  -2 -10   16.73    4.43
  -1   2 -10   18.55    9.16
  -1  -2 -10   -0.79    7.24
  -1   2 -11  138.39   24.58
  -1  -2 -11  127.73   25.26
  -1   2 -12  129.08   25.48
  -1  -2 -12  117.65   25.52
  -1   2 -13  245.72   35.82
  -1  -2 -13  263.69   37.71
  -1  -2 -14   18.48   15.06
  -1   2 -14   24.52   14.25
  -1   2 -15   91.81   24.06
  -1  -2 -15   68.11   21.05
  -1   2 -16   13.85   13.14
  -1  -2 -16    6.97   10.40
   1  -2  17  -12.21   19.63
  -1  -2 -17   23.86   16.31
   1  -2  18   -2.48   15.64
  -1  -2 -18   15.76   13.06
  -1   3  19   42.89   20.96
  -1  -3  19    7.26   15.06
  -1  -3  18   47.19   23.84
  -1   3  18   51.67   24.57
  -1  -3  17   81.35   29.96
  -1  -3  16  102.26   30.77
   1   3 -16  129.15   24.84
  -1  -3  15  -12.13   12.38
   1   3 -15   14.41   10.66
  -1  -3  14   48.87   19.96
   1  -3 -14   76.63   17.04
   1  -3 -14  107.12   20.31
   1  -3 -13   32.90   11.48
  -1  -3  13   50.28   20.24
   1  -3 -13   35.45   11.95
  -1  -3  12  197.05   35.67
   1  -3 -12  231.88   26.04
   1  -3 -12  179.51   23.65
   1  -3 -11   89.88   15.52
  -1  -3  11   80.89   22.12
   1  -3 -11   85.07   15.96
   1  -3 -10 1016.43   52.60
  -1  -3  10 1020.50   74.31
   1  -3 -10  936.78   52.04
   1  -3  -9   72.90   13.49
  -1  -3   9   68.26   19.17
   1  -3  -9   60.15   11.64
  -1  -3   8 1567.71   84.74
   1  -3  -8 1513.86   59.45
   1  -3  -8 1436.17   61.56
   1  -3  -7   45.47    9.84
  -1  -3   7   31.70   10.24
   1  -3  -7   48.65    8.64
   1  -3  -6  516.12   30.60
   1  -3  -6  493.65   25.87
  -1  -3   6  570.74   42.57
   1  -3  -5  181.73   13.16
  -1  -3   5  188.40   22.14
   1  -3  -5  202.87   17.47
   1  -3  -4 4546.29  117.49
   1  -3  -4 4649.80  103.49
   1  -3  -3 1189.67   33.01
  -1  -3   3 1264.00   48.69
   1  -3  -3 1254.00   45.48
   1   3  -2 5327.44  122.92
   1  -3  -2 5381.37  126.45
  -1  -3   2 5180.08  125.12
  -1  -3   2 4921.33  125.78
   1   3  -1  768.42   29.15
  -1   3   1  747.41   21.60
   1  -3  -1  695.33   27.75
   1   3  -1  770.02   27.87
  -1  -3   1  776.37   29.17
   1   3   0   91.04    8.98
  -1   3   0   99.35    6.72
   1  -3   0   75.07    8.95
  -1  -3   0   91.37    9.09
   1  -3   0   84.30    5.48
  -1   3  -1 1794.02   58.65
  -1  -3  -1 1752.62   55.83
  -1  -3  -1 1737.03   52.89
   1  -3   1 1676.11   48.47
   1  -3   2 4890.35  122.67
   1   3   2 4748.26  102.16
  -1  -3  -2 4997.42  125.57
  -1   3  -3  913.20   44.78
  -1  -3  -3  993.03   45.15
  -1   3  -4 4180.00  125.41
  -1  -3  -4 4423.85  126.57
  -1   3  -5   34.87   10.21
  -1  -3  -5   42.50   10.08
  -1  -3  -6 1049.02   57.31
  -1   3  -6 1038.07   56.54
  -1   3  -7    2.51    4.44
  -1  -3  -7    2.85    7.44
  -1  -3  -8 1200.07   67.47
  -1   3  -8 1226.79   65.83
  -1  -3  -9   50.41   14.65
  -1  -3  -9   48.68    5.04
  -1   3  -9   59.87   16.09
  -1  -3 -10  869.78   28.37
  -1   3 -10 1088.02   66.91
  -1  -3 -10 1058.90   70.04
  -1  -3 -11  100.99   22.48
  -1   3 -11   84.00   19.86
  -1   3 -12  290.50   37.70
  -1  -3 -12  305.40   40.14
  -1   3 -13   28.62   15.29
  -1  -3 -13    1.87   11.66
  -1   3 -14   26.01   14.41
  -1  -3 -14   44.47   19.21
  -1   3 -15    3.47   10.89
  -1  -3 -15    8.75   11.07
   1  -3  16  107.24   34.97
  -1  -3 -16  118.80   27.56
  -1  -3 -17   25.24   17.74
   1  -3  17   31.62   23.23
   1  -3  18   41.38   27.83
  -1  -3 -18   45.23   19.48
  -1   4  19   10.60   14.79
  -1   4  18   26.68   18.71
  -1  -4  18   16.37   18.74
  -1  -4  17   16.33   18.63
  -1  -4  16   30.97   21.22
   1   4 -16    7.83   10.49
  -1  -4  15   39.99   20.54
  -1  -4  14   87.14   25.95
   1  -4 -13  363.81   34.38
   1  -4 -13  277.47   30.42
  -1  -4  13  394.52   52.72
  -1  -4  12  268.94   42.67
   1  -4 -12  243.79   27.41
   1  -4 -12  284.77   29.52
   1  -4 -11   39.36   10.47
   1  -4 -11   30.13    9.96
  -1  -4  10    5.19   10.18
   1  -4 -10   -4.60    5.68
   1  -4 -10    2.39    4.87
   1  -4  -9    7.63    5.16
  -1  -4   9    3.03    7.42
   1  -4  -9   10.51    5.66
  -1  -4   8 1098.08   70.28
   1  -4  -8 1001.92   46.76
   1  -4  -8  978.63   48.84
   1  -4  -7 1978.43   73.51
  -1  -4   7 2185.76   97.66
   1  -4  -7 2186.06   69.93
   1  -4  -6 1236.58   51.59
  -1  -4   6 1282.04   67.26
   1  -4  -6 1226.37   45.34
   1  -4  -5  252.65   16.52
   1  -4  -5  292.39   21.93
  -1  -4   5  281.76   27.30
  -1  -4   4  526.81   34.59
   1  -4  -4  529.62   22.87
   1  -4  -4  493.36   27.86
   1  -4  -3  433.96   28.77
  -1  -4   3  517.82   30.05
  -1  -4   2 1858.66   59.35
   1  -4  -2 1900.49   64.59
  -1  -4   2 1859.16   55.81
  -1   4   2 1847.24   50.64
   1   4  -1  932.19   31.11
  -1   4   1 1076.11   30.94
  -1  -4   1  992.01   37.44
   1  -4  -1 1008.96   42.38
   1  -4  -1 1033.06   30.22
   1  -4   0 2250.94   71.03
   1  -4   0 2222.18   56.34
  -1   4   0 2464.67   59.82
  -1  -4   0 2433.10   68.09
  -1  -4  -1 1870.61   58.22
   1  -4   1 1837.72   52.22
  -1   4  -1 1784.69   54.67
  -1  -4  -1 1841.78   59.32
  -1  -4  -2 2381.53   75.17
  -1   4  -2 2504.30   80.16
  -1   4  -3   42.06    9.19
   1  -4   3   57.21   10.46
  -1  -4  -3   22.76    6.67
  -1   4  -4  909.10   49.58
  -1  -4  -4 1016.64   49.44
   1  -4   4  974.48   52.56
  -1  -4  -5   33.24   10.63
  -1   4  -5   52.07   12.26
  -1  -4  -6 1262.68   63.93
  -1   4  -6 1257.54   64.41
  -1  -4  -7 2398.63   97.38
  -1   4  -7 2196.82   94.06
  -1  -4  -8  911.21   59.71
  -1   4  -8  877.23   56.80
  -1   4  -9   23.36   11.03
  -1  -4  -9   27.64   11.99
  -1   4 -10    2.00    8.24
  -1  -4 -10   -9.80    7.62
  -1  -4 -11    9.80   11.48
  -1   4 -11   -2.17    7.71
  -1   4 -12  249.06   36.18
  -1  -4 -12  286.88   39.27
  -1   4 -13  268.08   37.13
  -1  -4 -13  291.86   41.92
   1  -4  13  319.48   49.97
  -1  -4 -14  113.44   27.91
   1  -4  14   86.37   28.69
  -1   4 -14  106.41   25.50
   1  -4  15   68.58   27.26
  -1  -4 -15   87.88   25.23
   1  -4  16    5.56   18.91
  -1  -4 -16   14.11   11.33
  -1  -4 -17   -5.21   10.26
   1  -4  17  -10.87   19.33
  -1  -4 -18   25.69   18.55
   1  -4  18   12.27   20.63
  -1   5  19   17.18   14.06
  -1  -5  18   35.05   22.60
  -1  -5  17   50.40   24.29
  -1  -5  16   76.12   27.45
  -1  -5  15   65.37   25.65
  -1  -5  14   98.43   29.11
   1  -5 -13   25.76   10.49
   1  -5 -13   16.96    8.41
  -1  -5  13   -1.27   10.70
   1  -5 -12  180.96   24.70
  -1  -5  12  170.14   35.02
   1  -5 -12  170.05   22.49
   1  -5 -11   34.77   11.01
  -1  -5  11   22.74   11.62
   1  -5 -11   29.84   10.26
   1  -5 -10  379.63   31.49
  -1  -5  10  372.12   45.03
   1  -5 -10  365.49   30.59
   1  -5  -9  283.26   25.53
  -1  -5   9  319.44   39.66
   1  -5  -9  291.52   26.38
   1  -5  -8 1428.13   61.78
   1  -5  -8 1555.34   61.19
  -1  -5   8 1623.23   88.09
  -1  -5   7  213.94   28.79
   1  -5  -7  189.40   17.78
   1  -5  -7  208.03   20.13
   1  -5  -6  840.59   36.92
  -1  -5   6  903.72   56.27
   1  -5  -6  813.04   40.39
   1  -5  -5   83.04    9.92
   1  -5  -5   64.11   10.16
  -1  -5   5   65.18   14.21
  -1  -5   4 1248.52   56.52
   1  -5  -4 1182.27   55.23
   1  -5  -4 1206.43   40.59
  -1  -5   3  766.10   36.72
   1  -5  -3  804.01   41.20
  -1  -5   3  864.39   40.81
  -1  -5   2 3225.93   92.55
   1  -5  -2 3223.62   96.78
  -1   5   2 3482.69   84.78
  -1  -5   2 3250.87   83.91
  -1   5   1  602.65   24.23
   1   5  -1  618.95   21.08
   1  -5  -1  673.86   25.00
  -1  -5   1  655.08   30.85
   1  -5  -1  620.42   32.79
   1  -5   0    7.44    2.17
  -1  -5   0   11.88    4.21
  -1   5   0   13.26    3.27
  -1  -5  -1  128.07   13.19
  -1   5  -1  118.06   11.49
   1  -5   1  131.66   10.86
  -1  -5  -2 3408.16   99.11
   1  -5   2 3374.82   94.57
   1  -5   3  632.71   36.36
  -1  -5  -3  605.54   35.88
  -1   5  -4 1497.17   67.68
  -1  -5  -4 1552.82   65.70
   1  -5   4 1553.16   68.68
  -1  -5  -5  449.78   35.01
   1  -5   5  541.41   42.13
  -1   5  -5  473.06   37.40
   1  -5   6  853.36   58.14
  -1   5  -6  780.75   50.74
  -1  -5  -6  826.97   51.41
  -1   5  -7   30.07   11.28
   1  -5   7   19.86   12.82
  -1  -5  -7    6.12    6.04
  -1  -5  -8 1033.13   63.84
   1  -5   8 1126.07   76.30
  -1   5  -8 1073.87   65.09
  -1   5  -9  177.13   27.05
   1  -5   9  202.62   33.37
  -1  -5  -9  182.59   27.34
  -1   5 -10  307.97   37.14
  -1  -5 -10  346.85   39.56
   1  -5  10  369.72   47.74
   1  -5  11  185.89   36.73
  -1   5 -11  116.41   23.70
  -1  -5 -11  191.50   30.84
   1  -5  12  286.84   47.52
  -1  -5 -12  300.37   40.63
  -1   5 -12  299.78   38.69
  -1   5 -13    5.63    8.83
  -1  -5 -13   -3.49    9.68
   1  -5  13  -17.54   17.51
   1  -5  14   55.25   27.30
  -1  -5 -14   49.46   21.69
   1  -5  15   24.02   20.88
  -1  -5 -15   47.93   21.24
  -1  -5 -16   41.94   19.21
   1  -5  16   77.41   27.69
  -1  -5 -17   -5.10   12.97
   1  -5  17   46.45   28.35
  -1  -5 -18   28.18   15.76
   1  -5  18   26.17   23.27
  -1  -6  18   43.77   25.50
  -1  -6  17   35.40   22.35
  -1  -6  16   19.91   18.89
  -1  -6  15   29.32   21.12
  -1  -6  14  297.64   48.59
   1  -6 -13  224.97   29.22
  -1  -6  13  221.21   40.60
   1  -6 -12  338.23   34.49
  -1  -6  12  324.94   47.78
   1  -6 -11    0.52    5.50
  -1  -6  11    5.73   15.39
   1  -6 -11    3.80    4.49
  -1  -6  10   -1.43    9.41
   1  -6 -10    1.32    4.50
   1  -6 -10   18.65    8.18
   1  -6  -9    2.39    5.24
   1  -6  -9   12.11    6.74
  -1  -6   9   -0.44    9.02
  -1  -6   8 1145.07   73.22
   1  -6  -8 1008.10   48.71
  -1  -6   7 1686.18   86.42
   1  -6  -7 1538.24   59.77
  -1  -6   6 3662.03  129.46
   1  -6  -6 3333.10   97.30
   1  -6  -5  278.62   19.48
  -1  -6   5  262.09   27.79
  -1  -6   4  287.38   26.06
  -1  -6   3   41.00    8.75
  -1  -6   3   39.54    7.56
   1  -6  -3   39.49    8.83
   1  -6  -2  825.93   40.36
  -1  -6   2  795.46   37.84
  -1  -6   2  797.90   29.20
  -1  -6   1 2065.24   67.93
   1  -6  -1 2082.65   60.18
   1  -6  -1 2193.66   71.76
  -1   6   1 2171.43   60.89
  -1  -6   0 4581.89  127.16
   1  -6   0 5203.15  117.98
  -1  -6  -1 2164.05   69.74
   1  -6   1 2021.20   60.77
   1  -6   2  892.72   39.29
  -1  -6  -2  865.51   42.12
  -1  -6  -2  867.83   41.48
   1  -6   3   54.32   10.68
  -1  -6  -3   49.76    9.95
  -1  -6  -4   85.65   14.21
   1  -6   4   97.66   16.07
  -1  -6  -5   81.37   14.71
   1  -6   5   53.14   13.09
  -1  -6  -6 3405.11  121.20
  -1   6  -6 3587.92  126.29
   1  -6   6 3467.57  132.37
   1  -6   7 1905.43   98.36
  -1   6  -7 1806.70   87.39
  -1  -6  -7 1889.21   87.02
  -1  -6  -8 1044.19   65.63
   1  -6   8 1072.57   75.61
  -1   6  -8 1034.17   65.22
  -1   6  -9   58.29   15.61
   1  -6   9   63.58   19.52
  -1  -6  -9   81.01   18.57
  -1   6 -10   12.33    8.92
   1  -6  10   14.49   13.15
  -1  -6 -10   23.21   13.68
  -1  -6 -11   -4.28    9.97
   1  -6  11   -8.22   14.36
   1  -6  12  345.28   52.08
  -1  -6 -12  301.67   40.88
   1  -6  13  261.42   47.05
  -1  -6 -13  205.97   36.45
  -1  -6 -14  263.42   41.14
   1  -6  14  295.73   52.29
   1  -6  15   33.64   21.70
  -1  -6 -15   47.44   22.11
  -1  -6 -16    6.77   10.55
   1  -6  16  -27.10   24.01
   1  -6  17   16.85   16.07
  -1  -6 -17   19.84   16.86
   1  -6  18   42.28   27.04
  -1  -6 -18  -17.14   14.57
  -1  -7  18  -39.48   24.21
  -1  -7  17   35.92   20.76
  -1  -7  16   29.89   19.55
  -1  -7  15  166.47   38.85
  -1  -7  14   61.93   27.40
  -1  -7  13   13.04   11.74
   1  -7 -13   -8.26    9.82
   1  -7 -12   37.60   11.86
  -1  -7  12   47.70   21.68
  -1  -7  11   23.90   15.73
   1  -7 -11   55.35   13.77
   1  -7 -10  219.31   24.83
  -1  -7  10  253.79   38.83
   1  -7  -9  517.13   36.53
  -1  -7   9  583.96   56.07
   1  -7  -8  553.94   36.14
  -1  -7   8  585.68   52.72
   1  -7  -7  231.12   21.16
  -1  -7   7  251.96   32.51
  -1  -7   6    7.64    6.61
   1  -7  -6   18.25    5.79
  -1  -7   5  556.05   41.61
   1  -7  -5  539.00   29.85
  -1  -7   4  445.14   33.64
   1  -7  -3  126.11   15.98
  -1  -7   3  103.86   11.52
  -1  -7   3  111.90   15.21
  -1  -7   2 1061.27   32.75
  -1  -7   2  969.77   45.14
   1  -7  -2 1096.64   41.02
   1  -7  -2 1006.92   47.03
   1  -7  -1 2408.34   69.47
   1  -7  -1 2425.17   79.10
  -1  -7   1 2340.43   77.01
  -1  -7   0   54.39    9.74
   1  -7   0   55.86    7.71
   1  -7   1  935.80   38.18
  -1  -7  -1 1062.65   46.39
  -1  -7  -2  426.91   29.10
   1  -7   2  424.93   26.27
   1  -7   3  100.21   14.62
  -1  -7  -3  117.52   16.37
  -1  -7  -4  538.52   37.52
   1  -7   4  534.33   38.19
   1  -7   5 1462.35   72.29
  -1  -7  -5 1342.13   67.21
   1  -7   6  111.83   21.17
  -1  -7  -6  131.94   21.17
  -1  -7  -7    8.35    6.93
   1  -7   7   10.38    7.96
   1  -7   8  523.88   51.64
  -1  -7  -8  462.66   43.47
   1  -7   9  293.62   39.48
  -1  -7  -9  273.92   34.64
   1  -7  10  207.58   36.83
  -1  -7 -10  179.57   29.88
   1  -7  11  205.31   38.04
  -1  -7 -11  156.83   29.49
   1  -7  12   35.55   18.37
  -1  -7 -12   37.09   15.78
  -1  -7 -13   35.03   16.90
   1  -7  13   65.51   27.39
  -1  -7 -14   13.33   14.71
   1  -7  14    3.90   14.87
  -1  -7 -15   77.06   24.42
   1  -7  15   47.40   22.83
  -1  -7 -16   30.82   19.49
   1  -7  16   52.72   23.16
  -1  -7 -17   51.02   21.66
   1  -7  17   19.25   24.51
   1  -7  18   48.36   30.18
  -1  -8  18   55.21   30.35
  -1  -8  17   41.29   22.49
  -1  -8  16   13.83   19.05
  -1  -8  15   36.29   21.23
  -1  -8  14  322.23   52.89
   1  -8 -13   36.33   12.29
  -1  -8  13   47.58   23.09
   1  -8 -12  322.87   34.44
  -1  -8  12  317.94   48.98
  -1  -8  11   59.87   23.69
   1  -8 -11   10.56    6.27
   1  -8 -10   44.09   11.94
  -1  -8  10   29.20   15.89
  -1  -8   9  230.91   37.14
   1  -8  -9  215.22   23.77
  -1  -8   8 1256.74   80.67
   1  -8  -8 1023.54   52.34
   1  -8  -7  264.30   23.86
  -1  -8   7  226.25   31.32
  -1  -8   6 3542.84  130.31
   1  -8  -6 3310.50  102.11
   1  -8  -5  391.83   26.37
  -1  -8   5  436.42   36.11
  -1  -8   4   21.42    8.88
  -1  -8   3  189.16   14.81
  -1  -8   3  174.28   19.88
   1  -8  -3  190.58   20.47
  -1  -8   2  407.62   29.13
   1  -8  -2  427.32   29.85
   1  -8  -2  448.19   25.97
   1  -8  -1  813.50   41.24
   1  -8  -1  845.18   36.82
  -1  -8   1  858.88   42.38
  -1  -8   0 6366.18  166.81
   1  -8   0 6499.25  154.52
   1  -8   1  908.25   39.15
  -1  -8  -1 1028.17   48.04
  -1  -8  -2  392.62   28.94
   1  -8   2  374.74   25.41
  -1  -8  -3  137.54   18.09
   1  -8   3  166.75   18.60
   1  -8   4   43.49   11.48
  -1  -8  -4   50.59   11.75
  -1  -8  -5  479.81   38.70
   1  -8   5  464.47   39.54
   1   8   5  493.28   17.52
   1  -8   6 3448.07  131.86
  -1  -8  -6 3210.12  121.53
  -1  -8  -7  270.51   31.75
   1  -8   7  300.03   37.27
   1  -8   8 1351.31   84.95
  -1  -8  -8 1121.29   71.41
   1  -8   9  472.19   52.44
  -1  -8  -9  430.26   44.10
   1  -8  10   24.80   19.47
  -1  -8 -10    8.27    9.73
   1  -8  11   17.24   12.27
  -1  -8 -11   11.36   11.97
  -1  -8 -12  259.64   39.47
   1  -8  12  268.58   47.12
  -1  -8 -13   59.06   21.33
   1  -8  13   73.32   27.24
   1  -8  14  358.07   58.09
  -1  -8 -14  352.55   50.09
   1  -8  15   43.94   26.05
  -1  -8 -15   16.85   14.42
   1  -8  16   17.63   22.50
  -1  -8 -16   23.50   18.72
  -1  -8 -17   19.94   16.64
   1  -8  17    1.18   17.26
  -1  -9  18   29.80   25.62
  -1  -9  17    8.68   15.05
  -1  -9  16   24.24   21.74
  -1  -9  15  115.84   35.22
  -1  -9  14    3.05   18.81
  -1  -9  13   -4.95   13.99
   1  -9 -12   20.20   10.88
  -1  -9  12   28.27   15.99
   1  -9 -11  234.28   28.49
  -1  -9  11  230.69   42.08
  -1  -9  10  161.27   33.52
   1  -9 -10  161.99   22.56
   1  -9  -9  570.96   41.15
  -1  -9   9  549.19   56.53
   1  -9  -8   16.07    7.38
  -1  -9   8    3.42    7.93
   1  -9  -7  277.47   25.76
  -1  -9   7  271.27   34.74
   1  -9  -6  291.83   25.18
  -1  -9   6  346.78   36.79
  -1  -9   5  521.91   41.81
  -1  -9   4  225.68   24.95
  -1  -9   3  989.94   51.32
  -1  -9   3  974.20   36.10
   1  -9  -2    2.74    2.56
   1  -9  -2   -0.09    3.44
  -1  -9   2    1.16    3.60
   1  -9  -1 1357.73   51.62
   1  -9  -1 1409.83   57.12
   1  -9   0   32.02    6.99
   1  -9   0   38.91    9.07
  -1  -9   0   41.06   10.62
   1  -9   1  215.81   18.77
   1   9   1  200.05   10.22
   1  -9   2   21.85    6.33
  -1  -9  -2   17.25    6.36
  -1  -9  -3  616.05   41.21
   1  -9   3  636.95   39.06
  -1  -9  -4  195.46   23.80
   1  -9   4  218.97   24.23
  -1  -9  -5 1446.14   72.51
   1  -9   5 1435.78   75.05
   1  -9   6  170.87   26.75
  -1  -9  -6  197.56   26.66
  -1  -9  -7   18.58   10.55
   1  -9   7   18.65    9.84
   1  -9   8  134.08   26.46
  -1  -9  -8   74.58   19.04
  -1  -9  -9  492.46   48.92
   1  -9   9  529.72   56.79
   1  -9  10  160.91   33.49
  -1  -9 -10  119.04   25.57
  -1  -9 -11  280.49   40.63
   1  -9  11  362.17   51.28
   1  -9  12   -0.23   14.10
  -1  -9 -12    9.03   10.83
   1  -9  13   46.45   24.23
  -1  -9 -13    5.81   12.70
  -1  -9 -14  -30.81   19.35
   1  -9  14   -4.50   11.90
   1  -9  15   53.40   25.86
  -1  -9 -15   68.68   24.14
  -1  -9 -16   16.53   14.23
   1  -9  16   -5.26   14.91
  -1  -9 -17   71.29   26.85
   1  -9  17   38.14   23.70
  -1 -10  17   32.11   21.23
  -1 -10  16   13.68   15.73
  -1 -10  15   57.33   28.43
  -1 -10  14  190.82   41.53
  -1 -10  13    9.76   10.57
  -1 -10  12  537.87   64.30
   1 -10 -12  511.84   45.54
  -1 -10  11   40.96   16.91
   1 -10 -11   32.38   10.92
  -1 -10  10    5.08    9.89
   1 -10 -10   21.59    9.36
  -1 -10   9  366.04   45.97
   1 -10  -9  336.22   32.09
   1 -10  -8  738.73   46.90
  -1 -10   8  782.40   65.51
  -1 -10   7   -7.55    7.71
   1 -10  -7    2.56    6.27
  -1 -10   6 2291.07  103.23
   1 -10  -6 2231.53   82.77
  -1 -10   5  528.22   43.36
  -1 -10   4  595.40   43.18
  -1 -10   3  236.69   25.31
  -1 -10   3  258.86   14.90
   1 -10  -2 1343.32   55.41
   1 -10  -2 1416.47   60.16
  -1 -10   2 1367.70   62.47
  -1 -10   1  168.51   19.42
   1 -10  -1  177.21   17.64
   1 -10  -1  163.86   18.26
  -1 -10   0 3532.33  111.06
   1 -10   0 3302.38   99.96
   1 -10   0 3490.57  104.82
   1 -10   1  147.41   16.10
  -1 -10  -1  173.18   20.28
   1 -10   2 1384.72   56.90
  -1 -10  -2 1582.74   66.47
   1 -10   3  253.77   24.77
  -1 -10  -4  344.63   33.00
   1 -10   4  372.21   32.98
  -1 -10  -5  514.91   42.55
   1 -10   5  538.71   43.88
  -1 -10  -6 2243.99  100.44
   1 -10   6 2322.82  106.54
   1  10   6 2298.57   58.98
   1 -10   7   23.37   13.11
  -1 -10  -7   19.04    8.48
  -1 -10  -8  882.55   64.29
   1 -10   8  983.80   75.89
  -1 -10  -9  223.96   33.28
   1 -10   9  309.83   42.40
   1 -10  10    2.55   11.42
  -1 -10 -10    8.62    9.46
   1 -10  11   77.29   27.37
  -1 -10 -11   62.34   18.94
  -1 -10 -12  359.44   48.30
   1 -10  12  435.92   60.13
  -1 -10 -13   16.13   15.81
   1 -10  13   -2.06   14.22
   1 -10  14  195.74   45.01
  -1 -10 -14  159.67   34.58
   1 -10  15   35.07   22.30
  -1 -10 -15   -2.28   12.17
  -1 -10 -16    1.08   12.43
   1 -10  16   29.05   26.07
  -1 -10 -17  -33.55   18.81
   1 -10  17   48.78   28.49
  -1 -11  17   66.53   29.70
  -1 -11  16   28.47   25.99
  -1 -11  15   90.12   34.28
  -1 -11  14   32.81   22.21
  -1 -11  13   26.68   25.63
  -1 -11  12   61.62   25.06
   1 -11 -12   74.38   18.85
   1 -11 -11  304.64   34.45
  -1 -11  11  277.95   45.56
  -1 -11  10   -8.59   12.24
   1 -11 -10   -0.83    5.20
  -1 -11   9  557.21   58.60
   1 -11  -9  461.65   39.06
  -1 -11   8   78.52   21.54
   1 -11  -8   88.18   16.81
   1 -11  -7   23.60    8.07
  -1 -11   7   42.69   15.73
   1 -11  -6  238.47   24.34
  -1 -11   6  224.45   30.73
  -1 -11   5  261.57   31.26
  -1 -11   4    0.60    5.02
  -1 -11   4    2.46    2.27
  -1 -11   3 2056.04   84.81
  -1 -11   3 1972.26   49.36
  -1 -11   2  124.54   18.66
   1 -11  -2  116.05   15.40
   1 -11  -1  239.48   21.96
   1 -11  -1  253.35   22.91
  -1 -11   1  257.84   25.67
   1 -11   0    4.31    2.94
   1 -11   0    5.62    4.67
  -1 -11   0   10.15    7.63
   1 -11   1   12.03    5.59
  -1 -11  -1   10.70    5.82
   1  11   2  137.84   11.00
  -1 -11  -2  149.84   20.29
   1 -11   2  136.47   17.46
   1 -11   3 2129.41   84.26
  -1 -11  -3 2237.07   89.65
   1 -11   4    6.93    7.36
  -1 -11  -4    1.23    6.46
   1 -11   5  554.93   44.51
  -1 -11  -5  529.90   44.39
  -1 -11  -6   55.56   15.73
   1 -11   6   75.40   17.84
   1 -11   7   46.32   17.09
  -1 -11  -7   33.52   14.20
   1 -11   8  233.74   36.72
  -1 -11  -8  233.52   34.19
  -1 -11  -9  353.17   42.57
   1 -11   9  443.12   53.66
  -1 -11 -10    3.91   11.48
   1 -11  10    3.28   12.48
   1 -11  11  582.37   67.36
  -1 -11 -11  484.13   54.58
  -1 -11 -12   26.65   17.66
   1 -11  12   47.22   26.68
  -1 -11 -13   -6.65   16.31
   1 -11  13   21.96   23.91
  -1 -11 -14    8.16   13.17
   1 -11  14   38.51   26.05
  -1 -11 -15   25.56   17.28
   1 -11  15   62.19   27.20
  -1 -11 -16    2.25   11.55
   1 -11  16    7.07   14.89
  -1 -11 -17   79.68   28.87
   1 -11  17   53.85   28.02
  -1 -12  17   15.39   19.66
  -1 -12  16   40.15   27.51
  -1 -12  15   15.46   19.51
  -1 -12  14  129.34   35.89
  -1 -12  13    3.00   12.09
  -1 -12  12  534.52   67.14
   1 -12 -12  487.44   46.47
   1 -12 -11   -0.64    6.12
  -1 -12  11   27.92   21.60
   1 -12 -10   23.20   10.14
  -1 -12  10   -0.24   11.00
  -1 -12   9   68.72   23.40
   1 -12  -9   61.20   15.51
   1 -12  -8  478.46   39.89
  -1 -12   8  522.66   54.73
   1 -12  -7   10.51    7.51
  -1 -12   7  -10.53   11.65
   1 -12  -6  949.11   53.14
  -1 -12   6 1008.39   68.87
  -1 -12   5   -4.94    6.04
  -1 -12   4  820.37   54.69
  -1 -12   4  915.94   37.11
  -1 -12   3   21.42    8.25
   1 -12  -2 1171.59   55.51
  -1 -12   2 1303.06   64.61
   1 -12  -1    4.18    3.71
  -1 -12   1    5.64    5.38
   1 -12   0  605.66   37.65
   1 -12   0  666.18   39.61
  -1 -12   0  660.18   44.16
  -1 -12  -1    4.05    5.73
   1 -12   1    8.82    5.61
   1  12   2 1540.37   46.53
   1 -12   2 1555.94   67.93
  -1 -12  -3   12.00    8.40
   1 -12   3    4.83    4.66
   1 -12   4  551.85   42.15
  -1 -12  -4  547.83   44.37
   1 -12   5   29.21   12.31
  -1 -12  -5   13.87    7.33
  -1 -12  -6  844.72   61.01
   1 -12   6  861.25   62.36
   1 -12   7    8.08   10.02
  -1 -12  -7   10.44   10.99
  -1 -12  -8  537.91   51.85
   1 -12   8  547.59   57.00
  -1 -12  -9   12.91    8.86
   1 -12   9   56.29   21.81
   1 -12  10   -1.43   14.43
  -1 -12 -10   24.28   16.17
  -1 -12 -11   -2.94   11.64
   1 -12  11   10.99   15.92
  -1 -12 -12  276.95   42.53
   1 -12  12  422.80   61.33
   1 -12  13   17.59   21.07
  -1 -12 -13    3.94   13.09
  -1 -12 -14   78.30   25.60
   1 -12  14  118.62   36.79
   1 -12  15   23.35   15.29
  -1 -12 -15  -16.92   17.84
  -1 -12 -16   -0.72   12.28
   1 -12  16   25.88   19.57
   1 -12  17    1.74   16.27
  -1 -13  17    9.14   16.38
  -1 -13  16   13.97   18.75
  -1 -13  15   28.99   22.78
  -1 -13  14    5.62   14.18
  -1 -13  13  -14.50   11.81
  -1 -13  12   12.73   17.56
   1 -13 -12   24.24   12.96
   1 -13 -11  301.70   36.41
  -1 -13  11  307.06   49.48
  -1 -13  10  161.31   35.09
   1 -13 -10  188.32   28.20
  -1 -13   9  347.88   47.43
   1 -13  -9  295.05   33.82
  -1 -13   8   32.27   13.18
   1 -13  -8   39.05   12.46
  -1 -13   7    3.58    9.17
   1 -13  -7    9.73    7.25
   1 -13  -6   -0.18    4.74
  -1 -13   6    1.22    7.40
  -1 -13   5  270.12   33.00
  -1 -13   4  541.19   23.27
  -1 -13   4  489.70   43.93
  -1 -13   3 2452.89  101.66
   1 -13  -3 2534.44   92.30
   1 -13  -3 2292.45   91.18
  -1 -13   2  193.96   24.16
   1 -13  -2  212.54   22.96
   1 -13  -1   32.90    9.26
  -1 -13   1   17.91    7.83
   1 -13   0    5.99    4.49
  -1 -13   0    2.17    5.22
  -1 -13  -1   -3.79    8.21
   1 -13   1    4.19    3.94
  -1 -13  -2  289.38   30.69
   1 -13   2  303.51   28.45
  -1 -13  -3 2399.40   98.11
   1 -13   3 2216.67   90.39
   1 -13   4  508.29   42.05
  -1 -13  -4  437.43   40.61
   1 -13   5  635.39   50.43
  -1 -13  -5  621.60   50.25
  -1 -13  -6    3.10    7.45
   1 -13   6    2.08    6.77
   1 -13   7   53.28   18.19
  -1 -13  -7   43.04   15.34
  -1 -13  -8   25.65   12.65
   1 -13   8   34.63   16.81
  -1 -13  -9  339.46   44.08
   1 -13   9  443.65   55.08
   1 -13  10  237.43   43.94
  -1 -13 -10  235.74   37.79
   1 -13  11  530.79   65.76
  -1 -13 -11  392.49   49.84
   1 -13  12    6.39   14.64
  -1 -13 -12  -25.33   17.43
   1 -13  13  -13.05   13.17
  -1 -13 -13    2.85   13.91
   1 -13  14   -2.14   14.13
  -1 -13 -14  -10.84   13.81
  -1 -13 -15   53.30   22.71
   1 -13  15   12.80   19.01
  -1 -13 -16  -10.55   16.40
   1 -13  16   70.90   35.07
  -1 -14  16   29.89   20.07
  -1 -14  15    7.61   16.67
  -1 -14  14   35.21   17.82
  -1 -14  13  -12.90   14.34
  -1 -14  12  229.80   45.70
   1 -14 -11   86.99   20.97
  -1 -14  11   48.77   20.50
  -1 -14  10   60.22   25.04
   1 -14 -10   53.73   15.17
   1 -14  -9   30.53   13.22
  -1 -14   9   10.63   11.75
   1 -14  -8  259.47   30.65
  -1 -14   8  241.31   37.97
   1 -14  -7   13.57    7.65
  -1 -14   7   38.84   18.78
  -1 -14   6  569.33   53.01
   1 -14  -6  523.29   41.12
  -1 -14   5  221.93   30.89
  -1 -14   4  405.12   40.39
   1 -14  -3   10.75    6.31
  -1 -14   3   21.09    9.10
   1 -14  -3   20.77    9.24
   1 -14  -2  270.54   27.09
  -1 -14   2  285.48   31.96
   1 -14  -1   -3.13    5.13
  -1 -14   1   15.82    8.32
   1 -14   0  599.85   41.03
  -1 -14   0  626.31   45.73
   1 -14   1   30.61    9.53
  -1 -14  -1   19.65    8.25
   1 -14   2  680.65   45.22
  -1 -14  -2  643.21   48.23
   1 -14   3  114.41   18.86
  -1 -14  -3   93.11   19.44
   1 -14   4  205.50   27.18
  -1 -14  -4  184.75   26.78
   1 -14   5  156.69   25.75
  -1 -14  -5  214.24   30.54
  -1 -14  -6  366.65   41.13
   1 -14   6  382.72   42.70
  -1 -14  -7   14.80   10.16
   1 -14   7   36.72   15.37
  -1 -14  -8  274.14   38.43
   1 -14   8  314.10   43.62
   1 -14   9   86.81   25.51
  -1 -14  -9   82.90   23.94
  -1 -14 -10   -7.75   12.72
   1 -14  10   13.38   15.75
  -1 -14 -11   54.85   19.14
   1 -14  11   77.98   28.10
  -1 -14 -12  164.67   34.88
   1 -14  12  177.38   40.68
   1 -14  13    1.99   14.87
  -1 -14 -13  -31.13   20.39
  -1 -14 -14  131.77   34.54
   1 -14  14  111.90   38.22
   1 -14  15   31.27   24.89
  -1 -14 -15    8.72   12.92
  -1 -14 -16   -2.26   10.53
   1 -14  16   -9.22   19.56
  -1 -15  16   70.65   30.82
  -1 -15  15   48.59   26.91
  -1 -15  14  -20.67   20.88
  -1 -15  13   28.68   22.43
  -1 -15  12  -10.03   12.54
   1 -15 -11  139.41   25.71
  -1 -15  11  197.73   41.98
   1 -15 -10  287.96   36.35
  -1 -15  10  318.29   50.66
   1 -15  -9  281.75   35.22
  -1 -15   9  302.19   46.55
  -1 -15   8   12.91   10.43
   1 -15  -8   15.43    9.76
   1 -15  -7    2.02    6.46
  -1 -15   7    3.33    8.91
   1 -15  -6   26.99   10.36
  -1 -15   6   35.03   13.17
  -1 -15   5  378.39   41.72
  -1 -15   4  864.97   61.86
  -1 -15   3  696.40   53.51
   1 -15  -3  682.03   47.12
   1 -15  -3  816.46   51.31
   1 -15  -2  201.34   23.71
  -1 -15   2  208.45   27.91
   1 -15  -1  364.37   32.60
  -1 -15   1  338.93   35.75
  -1 -15   0   -4.66    9.11
   1 -15   0    6.84    6.54
   1 -15   1  138.21   20.60
  -1 -15  -1  143.48   22.42
   1 -15   2  289.15   29.62
  -1 -15  -2  232.58   29.08
   1 -15   3  752.76   52.15
  -1 -15  -3  768.77   54.77
   1 -15   4  728.93   53.15
  -1 -15  -4  729.40   56.06
   1 -15   5  550.26   49.22
  -1 -15  -5  594.43   52.28
  -1 -15  -6   11.64   11.05
   1 -15   6   19.47   11.55
  -1 -15  -7   -4.00    9.94
   1 -15   7    3.99   13.44
  -1 -15  -8   10.64   12.98
   1 -15   8   23.94   14.88
   1 -15   9  317.74   47.65
  -1 -15  -9  310.08   43.98
   1 -15  10  383.06   53.85
  -1 -15 -10  262.43   41.58
  -1 -15 -11  247.83   41.73
   1 -15  11  228.17   44.31
   1 -15  12   25.46   20.92
  -1 -15 -12    9.61   13.62
   1 -15  13  100.14   34.14
  -1 -15 -13   52.04   21.87
   1 -15  14   24.09   21.18
  -1 -15 -14   15.48   16.85
  -1 -15 -15   33.42   20.84
   1 -15  15    8.02   16.35
  -1 -15 -16   37.11   21.35
   1 -15  16   72.47   33.46
  -1 -16  15   25.20   20.27
  -1 -16  14   44.22   26.83
  -1 -16  13   12.67   13.11
  -1 -16  12   37.57   23.25
   1 -16 -11   72.15   19.80
  -1 -16  11   88.45   31.09
  -1 -16  10   32.31   21.17
   1 -16 -10   38.53   15.78
   1 -16  -9   39.85   14.38
  -1 -16   9   64.47   23.60
   1 -16  -8   25.76   12.07
  -1 -16   8   45.19   17.36
   1 -16  -7   42.30   14.41
  -1 -16   7   26.42   12.02
  -1 -16   6  345.31   42.94
  -1 -16   5  319.69   39.17
  -1 -16   4   39.66   16.00
   1 -16  -3    8.50    7.26
  -1 -16   3    2.25    7.14
   1 -16  -2   11.66    6.80
  -1 -16   2   17.17   11.13
   1 -16  -2   11.76    6.87
  -1 -16   1  154.78   23.98
   1 -16  -1  128.83   20.07
  -1 -16   0  681.20   52.07
   1 -16   0  609.50   44.66
   1 -16   1  197.93   25.25
  -1 -16  -1  199.10   27.90
   1 -16   2   21.96    9.03
  -1 -16  -2   14.70    8.41
   1 -16   3   53.60   14.60
  -1 -16  -3   91.04   19.72
   1 -16   4   19.84   10.97
  -1 -16  -4   27.39   13.94
   1 -16   5  158.08   26.72
  -1 -16  -5  139.21   26.64
  -1 -16  -6  193.80   32.88
   1 -16   6  277.94   37.36
   1 -16   7   70.79   20.54
  -1 -16  -7   63.27   19.43
  -1 -16  -8   90.35   26.71
   1 -16   8  114.66   29.06
   1 -16   9   89.12   26.07
  -1 -16  -9  104.76   27.25
  -1 -16 -10  -12.36   10.83
   1 -16  10   20.06   21.80
   1 -16  11   22.53   19.72
  -1 -16 -11   30.61   17.35
   1 -16  12   68.49   30.24
  -1 -16 -12   30.62   17.54
   1 -16  13   27.29   18.61
  -1 -16 -13   31.94   21.70
  -1 -16 -14   43.37   23.30
   1 -16  14   43.80   28.12
   1 -16  15   30.30   20.24
  -1 -16 -15   16.55   15.34
  -1 -17  15  -12.82   18.32
  -1 -17  14   19.96   19.69
  -1 -17  13   15.17   18.10
  -1 -17  12   -4.01   16.24
   1 -17 -11   88.99   23.06
  -1 -17  11   64.12   25.94
   1 -17 -10  208.23   33.12
  -1 -17  10  278.36   48.67
  -1 -17   9  149.07   33.62
   1 -17  -9  127.93   25.22
   1 -17  -8  157.16   26.15
  -1 -17   8  171.50   34.33
  -1 -17   7    7.61   12.04
   1 -17  -7   21.90   11.55
  -1 -17   6   -9.02   13.68
  -1 -17   5  356.71   43.56
  -1 -17   4  325.56   39.93
  -1 -17   3  138.07   25.23
   1 -17  -3  129.69   21.43
   1 -17  -2  423.49   35.57
  -1 -17   2  361.28   40.58
   1 -17  -2  366.37   35.92
   1 -17  -1  499.35   40.79
  -1 -17   1  419.53   41.59
  -1 -17   0   15.51    9.65
   1 -17   0   11.19    7.33
   1 -17   1  330.02   34.35
  -1 -17  -1  320.30   36.25
  -1 -17  -2  295.07   35.03
   1 -17   2  305.33   33.42
   1 -17   3  134.09   23.26
  -1 -17  -3  123.72   23.52
   1 -17   4  434.46   43.39
  -1 -17  -4  394.92   42.98
  -1 -17  -5  438.45   46.56
   1 -17   5  418.82   44.71
   1 -17   6    3.17    7.63
  -1 -17  -6    6.13    9.80
  -1 -17  -7    5.21    9.09
   1 -17   7   -1.08    8.90
  -1 -17  -8  117.43   27.54
   1 -17   8  154.12   33.86
   1 -17   9  153.41   33.65
  -1 -17  -9  131.25   29.60
   1 -17  10  196.93   41.91
  -1 -17 -10  177.23   35.85
   1 -17  11   52.51   22.77
  -1 -17 -11   80.17   25.53
   1 -17  12   21.09   19.47
  -1 -17 -12    4.16   11.85
   1 -17  13   62.61   27.95
  -1 -17 -13   41.63   19.48
  -1 -17 -14    0.26   14.80
   1 -17  14   28.16   20.22
   1 -17  15   28.82   21.87
  -1 -17 -15    9.23   16.28
  -1 -18  14   40.54   24.02
  -1 -18  13   50.97   25.45
  -1 -18  12   10.05   18.99
  -1 -18  11   29.68   20.23
  -1 -18  10   24.55   17.81
   1 -18 -10   26.37   14.64
   1 -18  -9   -0.71    7.29
  -1 -18   9   29.16   19.57
  -1 -18   8    2.39   12.52
   1 -18  -8    6.87    8.39
   1 -18  -7  211.80   30.17
  -1 -18   7  259.17   41.61
  -1 -18   6  162.62   33.01
  -1 -18   5   85.41   22.93
  -1 -18   4   12.19   11.50
  -1 -18   3    8.84   10.76
   1 -18  -3   -6.59    8.18
  -1 -18   2   26.29   12.51
   1 -18  -2   34.89   12.21
  -1 -18   1  331.14   39.40
   1 -18  -1  405.63   33.78
   1 -18  -1  346.20   35.23
  -1 -18   0  345.13   39.44
   1 -18   0  392.12   38.33
   1 -18   1  376.96   37.85
  -1 -18  -1  365.71   40.53
   1 -18   2    4.83   10.64
  -1 -18  -2   13.60   12.13
   1 -18   3   19.61    8.85
   1 -18   3   25.39   10.77
  -1 -18  -3   22.05   11.52
   1 -18   4   29.91   12.64
  -1 -18  -5   21.72   12.41
   1 -18   5   48.59   15.78
   1 -18   6   83.70   22.36
  -1 -18  -6   62.84   19.77
  -1 -18  -7  329.52   45.61
   1 -18   7  342.47   47.08
   1 -18   8   59.16   21.63
  -1 -18  -8   14.54   15.13
   1 -18   9   65.00   25.15
  -1 -18  -9   63.74   24.60
   1 -18  10   13.72   12.89
  -1 -18 -10    3.43   10.31
   1 -18  11    2.66   14.15
  -1 -18 -11   31.52   17.92
  -1 -18 -12   -6.55   14.52
   1 -18  12   -2.16   18.45
   1 -18  13   64.66   30.61
  -1 -18 -13   62.09   25.50
   1 -18  14   67.70   30.68
  -1 -18 -14   25.76   19.63
  -1 -18 -15   30.15   22.53
  -1 -19  14   31.90   21.48
  -1 -19  13   -3.63   14.37
  -1 -19  12    9.49   16.64
  -1 -19  11   57.90   25.64
  -1 -19  10   82.71   28.85
   1 -19 -10   57.73   19.39
  -1 -19   9   33.52   17.66
   1 -19  -9   22.31   12.08
  -1 -19   8  273.79   45.78
   1 -19  -8  285.09   37.43
   1 -19  -7   17.34   11.80
  -1 -19   7   -2.68   14.50
  -1 -19   6   54.99   21.84
  -1 -19   5   87.92   24.65
  -1 -19   4   92.78   22.53
  -1 -19   3  106.41   24.35
  -1 -19   2  426.94   46.50
   1 -19  -2  352.12   37.53
  -1 -19   1   85.31   22.01
   1 -19  -1   64.19   16.79
   1 -19  -1   92.30   17.08
   1 -19   0   10.18    9.16
  -1 -19   0   16.30   10.30
  -1 -19  -1   90.04   21.55
   1 -19   1   72.14   17.87
   1 -19   2  270.78   34.64
  -1 -19  -2  284.46   35.91
  -1 -19  -3   61.63   17.85
   1 -19   3   74.51   19.85
  -1 -19  -4  119.08   25.21
   1 -19   4  141.57   26.71
  -1 -19  -5  131.57   27.23
   1 -19   5   94.83   23.89
   1 -19   6   93.83   25.01
  -1 -19  -6   59.70   20.22
   1 -19   7   11.49   15.36
  -1 -19  -7    0.29    8.92
   1 -19   8  215.13   41.17
  -1 -19  -8  250.18   41.45
   1 -19   9   21.54   18.56
  -1 -19  -9    3.21   11.53
   1 -19  10   80.97   26.41
  -1 -19 -10   48.44   19.70
  -1 -19 -11   39.70   22.63
   1 -19  11   32.42   20.21
   1 -19  12   61.68   27.11
  -1 -19 -12   54.65   22.00
   1 -19  13   36.74   22.19
  -1 -19 -13   14.71   14.57
  -1 -19 -14   11.35   15.26
   1 -19  14   28.75   25.54
  -1 -20  13   60.49   32.07
  -1 -20  12   -9.58   15.26
  -1 -20  11  -12.43   12.51
   1 -20 -10  -19.26   13.68
  -1 -20  10   27.66   21.05
  -1 -20   9    4.32   14.73
   1 -20  -9   -1.28    7.52
  -1 -20   8   -8.72   14.54
   1 -20  -8   10.73   10.47
   1 -20  -7  318.56   39.37
  -1 -20   7  401.47   55.67
  -1 -20   6   -3.45   12.84
  -1 -20   5   68.44   22.69
  -1 -20   4   12.58   13.23
  -1 -20   3    4.73    9.83
  -1 -20   2   15.24   10.85
   1 -20  -2   10.29   11.48
   1 -20  -1  270.60   33.89
  -1 -20   1  315.12   40.99
  -1 -20   0    2.80    9.88
   1 -20   0   -0.02    6.86
  -1 -20  -1  364.21   42.72
   1 -20   1  414.73   42.94
  -1 -20  -2   11.66    9.95
   1 -20   2   35.00   15.17
  -1 -20  -3   20.73   12.09
   1 -20   3   18.05   14.50
  -1 -20  -4    6.84   11.11
   1 -20   4  -11.64   11.54
   1 -20   5   54.07   19.70
  -1 -20  -5   48.18   19.61
  -1 -20  -6   11.29   10.06
   1 -20   6   -7.25    8.55
   1 -20   7  405.08   53.07
  -1 -20  -7  300.27   44.87
   1 -20   8   16.36   15.43
  -1 -20  -8   -7.17   15.17
   1 -20   9   40.02   20.01
  -1 -20  -9   17.82   17.38
   1 -20  10    4.58   14.11
  -1 -20 -10    3.25   15.08
   1 -20  11   -0.69   12.32
  -1 -20 -11   -3.10   10.17
  -1 -20 -12  -12.83   12.39
   1 -20  12  -25.49   21.37
   1 -20  13   84.50   34.21
  -1 -20 -13   32.96   17.95
  -1 -20 -14    5.70   13.84
  -1 -21  13   71.46   30.76
  -1 -21  12   13.00   18.17
  -1 -21  11   53.13   31.18
  -1 -21  10   49.54   26.55
  -1 -21   9   33.02   21.21
   1 -21  -9    0.14    8.00
   1 -21  -8  136.82   27.86
  -1 -21   8  167.78   38.66
   1 -21  -7    6.58   10.54
  -1 -21   7   15.58   18.32
  -1 -21   6   22.40   20.17
   1 -21  -6   24.17   15.21
  -1 -21   5   -8.84   13.39
  -1 -21   4  129.49   29.88
  -1 -21   3   66.40   22.44
   1 -21  -2  264.90   34.50
  -1 -21   2  297.95   41.26
  -1 -21   1   -0.58    9.28
   1 -21  -1    5.32    6.63
  -1 -21   0   10.44   13.16
   1 -21   0    9.07    9.54
   1 -21   1   14.20   11.08
  -1 -21  -1   17.40   11.74
  -1 -21  -2  145.48   28.27
   1 -21   2  142.83   26.46
   1 -21   3   73.62   19.82
   1 -21   4  125.48   28.01
  -1 -21  -4  118.07   27.04
  -1 -21  -5    1.57   10.19
   1 -21   5   -3.02    9.36
   1 -21   6   58.10   23.10
  -1 -21  -6   44.44   19.33
  -1 -21  -7    0.40   10.88
   1 -21   7   10.81   12.39
  -1 -21  -8   87.68   26.91
   1 -21   8   59.88   25.30
   1 -21   9   45.69   22.81
  -1 -21  -9   15.81   18.42
   1 -21  10   47.31   24.48
  -1 -21 -10   71.02   26.52
  -1 -21 -11   11.45   12.16
   1 -21  11   33.89   21.46
  -1 -21 -12   13.99   13.10
   1 -21  12   34.68   24.80
  -1 -21 -13  -24.67   19.57
   1 -21  13   16.23   14.06
  -1 -22  12    3.06   18.45
  -1 -22  11   41.68   27.19
  -1 -22  10   16.34   18.91
   1 -22  -9   28.35   16.18
  -1 -22   9   32.35   22.56
   1 -22  -8    4.82    8.98
  -1 -22   8    3.99   16.05
   1 -22  -7  130.30   27.03
  -1 -22   7  199.61   39.93
  -1 -22   6   23.46   17.90
   1 -22  -6    5.10    8.19
  -1 -22   5  103.72   29.17
  -1 -22   4    5.35   10.08
  -1 -22   3   23.63   18.99
  -1 -22   2   32.30   16.69
   1 -22  -2   21.46   12.41
  -1 -22   1  147.39   29.39
   1 -22  -1  185.41   29.92
  -1 -22   0   28.17   16.06
   1 -22   0   24.22   10.80
   1 -22   1  184.39   31.41
  -1 -22  -1  171.38   31.51
   1 -22   2   33.56   14.67
  -1 -22  -2   25.81   12.96
   1 -22   3    6.39   13.99
  -1 -22  -4    0.49    8.60
   1 -22   4   -9.46   10.24
   1 -22   5   74.20   23.55
  -1 -22  -5   77.11   23.86
   1 -22   6    5.17    9.02
  -1 -22  -6   23.91   15.81
   1 -22   7  191.97   39.93
  -1 -22  -7  161.47   34.23
  -1 -22  -8    3.31   10.82
   1 -22   8    3.65   13.84
  -1 -22  -9   -2.73   10.27
   1 -22   9   -7.11   13.32
   1 -22  10   36.96   23.19
  -1 -22 -10  -17.87   16.37
   1 -22  11   23.62   18.43
  -1 -22 -11   -0.71   12.16
   1 -22  12    5.37   16.56
  -1 -22 -12   16.95   13.37
  -1 -22 -13   39.01   21.30
  -1 -23  11  -10.33   16.81
  -1 -23  10   87.51   32.94
  -1 -23   9   28.98   23.11
   1 -23  -9   18.20   16.06
  -1 -23   8   34.98   22.20
   1 -23  -8   41.54   17.37
  -1 -23   7   30.30   19.92
   1 -23  -7   27.67   15.37
  -1 -23   6    4.67   11.98
   1 -23  -6   -6.57   10.30
  -1 -23   5   15.45   11.62
  -1 -23   4  148.22   32.43
  -1 -23   3   12.34   14.01
  -1 -23   2   50.92   18.97
   1 -23  -2   79.93   20.47
  -1 -23   1   33.80   16.10
   1 -23  -1   45.44   16.55
   1 -23   0   -0.12   10.06
  -1 -23   0   10.96   12.48
  -1 -23  -1   31.67   16.51
   1 -23   1   32.70   14.66
   1 -23   2   52.69   16.69
  -1 -23  -2  102.36   25.58
   1 -23   3   13.73   12.74
   1 -23   4  136.33   30.07
  -1 -23  -4  149.59   33.34
   1 -23   5   13.65   13.72
  -1 -23  -5   10.90   12.74
   1 -23   6   -1.78   11.75
  -1 -23  -6   13.49   14.17
   1 -23   7    8.27   13.20
  -1 -23  -7   11.73   14.52
  -1 -23  -8    1.75   10.41
   1 -23   8   28.55   21.77
  -1 -23  -9    2.98   12.04
   1 -23   9    5.82   15.32
  -1 -23 -10   61.89   25.31
   1 -23  10   25.15   19.33
  -1 -23 -11   -5.78   11.98
   1 -23  11   15.93   18.45
  -1 -23 -12  -16.66   18.10
  -1 -24  10   10.23   19.92
  -1 -24   9   53.23   25.52
  -1 -24   8   -5.38   14.90
   1 -24  -8  -13.01   12.18
  -1 -24   7   89.46   32.57
   1 -24  -7   47.74   17.31
  -1 -24   6   11.97   16.35
   1 -24  -6   36.77   15.67
  -1 -24   5  123.37   34.25
  -1 -24   4  -23.37   14.73
  -1 -24   3    2.37   14.11
   1 -24  -2    3.84    7.77
  -1 -24   2   -0.12   12.55
   1 -24  -1   72.04   21.50
  -1 -24   1   77.42   22.90
  -1 -24   0   15.23   11.66
   1 -24   0   21.18   12.75
  -1 -24  -1  121.04   28.04
   1 -24   1  104.88   24.47
  -1 -24  -2    0.11   10.57
   1 -24   2   -8.10   10.94
   1 -24   3    5.99    8.61
  -1 -24  -4   19.83   17.26
   1 -24   4   -8.77   11.21
   1 -24   5  112.62   29.90
  -1 -24  -5   87.54   26.49
   1 -24   6   21.00   17.69
  -1 -24  -6   43.49   22.27
  -1 -24  -7   33.52   19.07
   1 -24   7   67.85   27.14
   1 -24   8    3.73   10.02
  -1 -24  -8    4.59   14.29
   1 -24   9   56.25   24.94
  -1 -24  -9   16.46   15.60
   1 -24  10   44.60   28.44
  -1 -24 -10    5.69   14.17
  -1 -24 -11   -1.29   12.60
  -1 -25   9   36.87   24.50
   1 -25  -8   11.23   12.38
  -1 -25   8    8.12   17.13
   1 -25  -7   13.53   12.87
  -1 -25   7  -16.41   17.03
   1 -25  -6   18.05   15.56
  -1 -25   6    1.41   12.97
  -1 -25   5  -22.01   20.63
  -1 -25   4   87.00   28.12
  -1 -25   3   38.19   21.99
  -1 -25   2   45.28   20.56
  -1 -25   1    0.20    9.12
   1 -25  -1    8.34    9.85
  -1 -25   0    0.87    9.82
   1 -25   0   12.59   12.59
  -1 -25  -1   19.43   13.37
   1 -25   1  -19.64   14.98
   1 -25   2   10.81   11.16
  -1 -25  -2   22.53   16.17
   1 -25   3   52.93   21.45
   1 -25   4  101.57   27.46
  -1 -25  -4  112.43   29.77
  -1 -25  -5   10.54   10.88
   1 -25   5    7.43   12.05
   1 -25   6   34.77   19.12
  -1 -25  -6    4.97   11.15
   1 -25   7   -4.71   12.84
  -1 -25  -7   14.03   14.87
  -1 -25  -8   27.70   20.56
   1 -25   8    7.27   16.65
  -1 -25  -9    2.83   12.42
   1 -25   9   16.77   19.65
   1 -25  10   43.11   25.01
  -1 -25 -10   38.07   22.54
  -1 -26   8  -17.45   19.03
  -1 -26   7   34.89   22.62
   1 -26  -7   -1.67    8.51
   1 -26  -6    1.52    9.13
  -1 -26   6   12.21   14.54
  -1 -26   5   47.71   24.75
  -1 -26   4   30.47   19.99
  -1 -26   3   13.57   14.94
  -1 -26   2   -9.44   10.53
  -1 -26   1   38.05   19.83
   1 -26  -1   64.07   21.21
   1 -26   0   -3.20    9.97
  -1 -26   0    4.61   14.33
  -1 -26  -1   38.75   18.14
   1 -26   1   34.46   16.62
   1 -26   2   30.25   16.37
   1 -26   3   12.38   12.76
  -1 -26  -3  -17.01   14.95
  -1 -26  -4   30.46   18.14
   1 -26   4   15.36   13.84
  -1 -26  -5   35.33   16.82
   1 -26   5   19.78   16.58
   1 -26   6   34.57   21.71
  -1 -26  -6   40.46   21.17
  -1 -26  -7   22.16   16.00
   1 -26   7   27.60   18.51
  -1 -26  -8   18.35   21.41
   1 -26   8    0.18   17.70
   1 -26   9  -30.63   21.73
  -1 -26  -9   33.00   21.57
  -1 -27   7   -9.41   15.48
   1 -27  -7  -14.63   13.55
  -1 -27   6   -1.78   13.08
   1 -27  -6   22.51   15.42
   1 -27  -5    6.96   11.54
  -1 -27   5    7.93   17.13
  -1 -27   4   28.92   18.24
  -1 -27   3  103.31   31.83
  -1 -27   2    3.11   12.79
   1 -27  -1   -1.06   12.08
  -1 -27   1   16.98   18.19
  -1 -27   0   -9.21   12.45
   1 -27   0   13.07   15.57
  -1 -27  -1    0.83   11.55
   1 -27   1    0.41    9.95
   1 -27   2   21.17   16.05
  -1 -27  -3    4.81   11.91
   1 -27   3   53.42   20.85
  -1 -27  -4   -0.10   12.44
   1 -27   4    8.91   12.57
  -1 -27  -5   16.86   16.10
   1 -27   5   14.84   15.06
  -1 -27  -6   -5.19   11.10
   1 -27   6   23.31   18.73
   1 -27   7   -3.69   15.17
  -1 -27  -7   14.13   17.72
   1 -28  -6   21.81   14.91
  -1 -28   5   22.68   18.78
   1 -28  -5   20.93   16.04
  -1 -28   4   -3.35   15.85
  -1 -28   3    5.13   13.91
  -1 -28   2   32.81   17.79
  -1 -28   1   27.82   17.99
   1 -28   0   32.85   17.77
  -1 -28   0   36.58   20.23
  -1 -28  -1   33.17   19.96
   1 -28   1   17.58   13.99
   1 -28   2   32.43   19.13
   1 -28   3   -7.13   12.00
  -1 -28  -3   -1.09   10.99
   1 -28   4    5.83   12.04
  -1 -28  -4    0.05   11.09
  -1 -28  -5   -0.37   11.55
   1 -28   5  -21.45   18.14
   1 -28   6   32.02   22.00
   1 -29  -5    9.10   13.43
  -1 -29   2   31.14   19.56
  -1 -29   1  -12.54   15.15
   1 -29   0   -6.93   10.29
  -1 -29   0    6.62   12.52
   1 -29   1   -8.61   11.65
   1 -29   2  -10.35   10.95
   1 -29   3   28.91   16.69
   1 -29   4   -8.11   13.73
  -2   0  19   -4.48   12.01
  -2   0  18   16.89   13.04
  -2   0  17   -2.63   12.37
  -2   0  16   30.08   17.84
   2   0 -16   -9.45    9.49
   2   0 -15    9.36   11.93
  -2   0  15    7.86    9.33
  -2   0  14  308.79   45.27
   2   0 -14  377.52   43.11
  -2   0  13    6.12   11.36
   2   0 -13    5.72    8.83
  -2   0  12  398.71   48.13
   2   0 -12  378.81   39.94
   2   0 -11   10.17    9.22
  -2   0  11    7.25    9.00
  -2   0  10   87.12   19.78
   2   0 -10   98.52   19.05
  -2   0   9    4.12    5.36
   2   0  -9   -2.37    6.55
  -2   0   8 1407.42   74.29
   2   0  -8 1457.05   70.38
  -2   0   7    0.98    1.08
  -2   0   7    4.29    6.17
   2   0  -7    0.59    5.27
  -2   0   6 4113.93  129.95
   2   0  -6 4203.22  130.87
   2   0  -5    1.99    4.89
  -2   0   5   -1.89    3.99
  -2   0   4   54.02    8.96
   2   0  -4   50.39   10.86
  -2   0   3   -0.04    1.43
  -2   0   3    2.06    1.40
  -2   0   2  762.19   25.74
   2   0  -2  764.61   43.04
  -2   0   2  848.57   31.21
   2   0  -1    1.55    0.93
  -2   0   1    1.78    1.49
   2   0  -1    0.29    1.58
  -2   0   1    1.32    2.55
   2   0  -1    5.08    3.11
   2   0   0 9511.20  223.36
   2   0   0 9999.00  205.04
  -2   0   0 9289.79  226.93
   2   0   1    1.09    1.37
  -2   0  -1   -1.13    3.97
  -2   0  -2 1141.47   55.66
  -2   0  -3   -0.19    6.15
  -2   0  -4   27.07   10.34
  -2   0  -5   14.55    8.28
  -2   0  -6 5177.46  173.10
  -2   0  -7    8.04    9.31
  -2   0  -8 1814.59   97.59
  -2   0  -9   -1.37    9.38
  -2   0 -10    0.88    8.77
  -2   0 -11  -19.32   15.52
  -2   0 -12  337.66   46.52
  -2   0 -13   18.79   16.68
  -2   0 -14  406.64   50.39
  -2   0 -15    5.67   13.69
  -2   0 -16   32.59   19.43
  -2   0 -17   24.38   20.87
  -2   0 -18   20.82   18.80
   2   0  18   39.53   28.83
  -2   1  19   -6.14   10.07
  -2  -1  19   19.14   17.57
  -2  -1  18   16.96   15.90
  -2   1  18   11.24   15.08
  -2  -1  17   29.04   16.99
  -2   1  17   54.30   22.21
  -2   1  16   18.16   16.48
  -2  -1  16    2.83    8.81
   2  -1 -16    9.99    9.79
   2   1 -16   -1.20    8.83
   2   1 -15  175.84   30.65
  -2   1  15  193.04   37.68
   2  -1 -15  176.57   29.45
  -2  -1  15  199.01   36.98
  -2  -1  14   15.15   13.85
   2  -1 -14   13.19   11.60
  -2   1  14   13.55   12.44
   2   1 -14   13.91   11.57
   2   1 -13    4.52    9.45
   2  -1 -13   11.99    8.19
  -2  -1  13   13.66   12.98
  -2   1  13    2.20    8.04
  -2  -1  12   51.93   19.08
   2   1 -12   76.32   21.31
  -2   1  12   35.85   14.17
   2  -1 -12   51.01   15.31
   2   1 -11  104.05   21.14
  -2  -1  11  124.89   25.48
   2  -1 -11   83.91   19.90
  -2   1  11  109.61   23.67
   2   1 -10   -2.39    8.24
  -2   1  10    2.34    7.75
   2  -1 -10    6.76    5.83
  -2  -1  10   -0.58    6.59
   2   1  -9  812.14   56.77
   2  -1  -9  834.97   54.27
  -2  -1   9  910.00   63.43
   2  -1  -8  111.99   18.91
  -2   1   8  120.58   21.12
   2   1  -8  139.01   21.68
  -2  -1   8  143.44   23.57
   2   1  -7  635.40   45.16
  -2  -1   7  644.00   28.39
   2  -1  -7  668.99   45.06
  -2  -1   7  738.70   49.50
  -2   1   7  649.00   45.73
   2   1  -6  196.90   23.65
   2  -1  -6  162.91   20.04
  -2   1   6  161.51   20.19
  -2  -1   6  150.49   11.23
  -2  -1   6  182.99   21.97
  -2  -1   5  213.13   21.25
   2  -1  -5  241.14   26.15
  -2   1   5  238.89   22.14
   2   1  -5  245.63   25.54
  -2  -1   5  259.60   13.40
  -2  -1   4    3.32    2.81
  -2   1   4    5.00    2.45
   2   1  -4    7.11    5.09
  -2  -1   4    2.38    1.47
   2   1  -3  887.46   46.62
  -2   1   3  943.20   32.64
  -2  -1   3  970.49   31.35
  -2  -1   3  913.35   35.59
   2   1  -2  471.80   31.96
   2   1  -2  511.25   22.85
  -2   1   2  464.96   15.86
   2  -1  -2  469.25   18.16
  -2  -1   2  513.41   23.57
  -2  -1   2  493.68   21.61
  -2  -1   1 3661.20   91.72
  -2   1   1 4111.84  105.56
  -2  -1   1 4119.75  103.84
   2   1  -1 3760.28  105.97
   2  -1  -1 3936.43   96.76
   2   1  -1 3914.28   91.54
   2   1   0   27.51    4.66
   2  -1   0   33.55    6.51
   2  -1   0   21.22    2.91
  -2   1   0   28.92    7.27
  -2  -1   0   21.83    5.89
   2   1   0   20.29    5.14
   2   1   1  276.25   19.20
  -2   1  -1  303.87   25.68
  -2  -1  -1  251.29   22.43
  -2   1  -2  222.64   23.78
  -2  -1  -2  236.42   22.95
  -2  -1  -3  495.62   37.26
  -2   1  -3  540.59   40.38
  -2   1  -4   14.34   10.04
  -2  -1  -4    7.54    5.76
  -2   1  -5 2452.71  103.89
  -2  -1  -5 2322.91   99.61
  -2   1  -6  155.74   24.92
  -2  -1  -6  167.74   26.03
  -2  -1  -6  131.76   10.54
  -2   1  -7   10.16    8.37
  -2  -1  -7   17.08   11.37
  -2  -1  -7    6.80    2.61
  -2   1  -8  211.05   31.73
  -2  -1  -8  175.11   27.94
  -2   1  -9  385.22   45.11
  -2  -1  -9  428.61   46.89
  -2  -1 -10    3.06   10.91
  -2   1 -10   10.29   13.66
  -2   1 -11  440.11   50.32
  -2  -1 -11  481.10   53.57
  -2   1 -12   42.23   18.61
  -2  -1 -12    8.60   12.39
  -2  -1 -13   76.50   22.91
  -2   1 -13   92.93   25.40
  -2   1 -14   16.56   16.78
  -2  -1 -14   13.64   18.80
  -2  -1 -15   30.59   18.74
  -2   1 -15   89.39   25.89
  -2  -1 -16    5.65   11.74
  -2   1 -16    4.91   10.46
  -2   1 -17  122.93   32.42
   2  -1  17   44.98   25.36
  -2  -1 -17   63.58   24.88
   2  -1  18   -8.86   20.28
  -2  -1 -18   13.34   16.47
  -2   1 -18   -1.27   11.43
  -2   2  19    7.33   11.10
  -2  -2  19  -19.23   19.25
  -2   2  18   37.45   19.54
  -2  -2  18   34.82   18.60
  -2   2  17   17.20   16.14
  -2  -2  17   26.87   18.09
  -2  -2  16    7.21    9.95
   2   2 -16   14.46   13.21
  -2   2  16   -6.03    9.55
   2  -2 -15   18.45   13.33
  -2   2  15    1.80    8.91
  -2  -2  15   -9.14   13.91
   2   2 -15    1.52    9.40
   2   2 -14  329.48   42.01
  -2  -2  14  271.57   42.81
   2  -2 -14  250.86   33.86
  -2   2  14  237.34   38.20
  -2   2  13   22.06   12.13
  -2  -2  13   38.81   16.20
   2  -2 -13   33.62   11.86
   2   2 -13   59.58   19.64
  -2  -2  12  465.49   51.47
   2   2 -12  493.14   49.39
   2  -2 -12  477.76   44.76
  -2  -2  11   -4.08   11.45
   2  -2 -11   -4.12    8.03
  -2  -2  10    7.36    9.83
   2  -2 -10   -5.02    8.29
   2  -2  -9  212.47   26.31
  -2  -2   9  179.72   27.51
   2  -2  -8 1034.98   58.39
  -2  -2   8 1220.87   70.23
   2  -2  -7  445.42   34.92
  -2  -2   7  438.09   38.38
  -2  -2   6 3220.76  110.29
  -2  -2   6 2980.46   84.07
   2  -2  -6 3172.10  105.23
   2   2  -5   31.10    8.88
  -2  -2   5   42.26    6.13
  -2  -2   5   40.52   10.21
   2  -2  -5   42.16   10.87
  -2   2   4  520.66   28.20
   2   2  -4  552.22   35.53
  -2  -2   4  563.66   31.94
  -2  -2   3  215.98   16.68
  -2  -2   3  198.06   13.30
   2   2  -3  184.96   19.70
  -2   2   3  218.68   13.09
   2   2  -2 1569.74   63.59
  -2   2   2 1669.04   46.63
  -2  -2   2 1652.18   51.35
   2  -2  -2 1654.18   44.58
  -2  -2   2 1679.20   52.45
  -2  -2   1  126.74   10.97
  -2   2   1  121.20   11.96
   2  -2  -1  111.52   10.75
  -2  -2   1  129.97   13.15
   2   2  -1  109.31    9.93
   2   2  -1  105.18   12.64
  -2  -2   0 5742.19  136.70
  -2  -2   0 5942.03  150.07
  -2   2   0 5571.62  151.66
   2   2   1  227.00   17.04
  -2  -2  -1  204.27   20.02
  -2   2  -1  248.08   23.84
  -2   2  -2 1891.26   77.79
   2   2   2 1753.64   55.53
  -2  -2  -2 1732.96   71.30
  -2   2  -3    1.75    4.30
  -2  -2  -3    1.01    4.71
  -2   2  -4  269.32   29.87
  -2  -2  -4  275.43   28.37
  -2  -2  -5   92.87    8.53
  -2   2  -5  106.27   20.37
  -2  -2  -5   92.01   18.58
  -2   2  -6 3479.44  130.27
  -2  -2  -6 3251.41  123.06
  -2   2  -7  461.24   45.84
  -2  -2  -7  513.26   46.21
  -2  -2  -7  360.91   14.58
  -2  -2  -8 1473.59   86.65
  -2   2  -8 1478.23   85.88
  -2   2  -9    8.61   12.14
  -2  -2  -9   14.54   12.62
  -2   2 -10    4.38    7.85
  -2  -2 -10    7.41    8.51
  -2   2 -11   40.41   17.73
  -2  -2 -11   38.20   14.76
  -2   2 -12  278.13   40.18
  -2  -2 -12  369.36   50.04
  -2   2 -13   86.29   24.93
  -2  -2 -13   11.89   16.28
  -2  -2 -14  286.63   45.91
  -2   2 -14  215.59   38.56
  -2  -2 -15   23.62   16.92
  -2   2 -15    6.89   13.72
  -2   2 -16    7.97   11.20
  -2  -2 -16   21.39   18.46
   2  -2  16   -5.75   19.82
  -2   2 -17   33.35   22.28
  -2  -2 -17  -17.44   14.26
   2  -2  17  -18.84   21.15
  -2  -2 -18   33.64   20.53
  -2   3  19   25.45   17.05
  -2  -3  18   14.31   18.22
  -2   3  18   27.29   14.80
  -2  -3  17   33.50   17.27
   2   3 -17   23.08   14.56
  -2   3  17   30.59   15.23
  -2  -3  16   -4.76   11.73
  -2   3  16   12.52   10.85
   2   3 -16   14.12   12.19
  -2   3  15   47.11   17.50
  -2  -3  15   92.53   27.37
   2  -3 -15   76.69   20.72
   2   3 -15   74.95   21.74
  -2  -3  14   10.60    9.55
   2   3 -14   13.80   10.98
   2  -3 -14   26.88   12.91
  -2  -3  13   42.96   19.37
   2   3 -13   21.19   14.73
   2  -3 -13   21.92   11.51
  -2  -3  12  118.39   27.91
   2  -3 -12   93.26   20.04
   2  -3 -11  115.35   21.16
  -2  -3  11  183.20   31.55
  -2  -3  10   90.38   22.37
   2  -3 -10   64.92   14.95
   2  -3  -9  704.32   47.66
  -2  -3   9  636.30   54.78
   2  -3  -8  668.77   45.41
  -2  -3   8  696.47   53.33
  -2  -3   7  303.94   32.75
   2  -3  -7  318.93   29.25
  -2  -3   6  598.12   43.07
   2  -3  -6  604.01   45.60
   2  -3  -6  587.35   38.86
  -2  -3   5  171.78   19.83
   2  -3  -5  167.97   20.37
  -2  -3   4  382.81   26.56
   2   3  -4  336.41   26.69
   2   3  -3 1902.60   68.97
  -2   3   3 1720.55   50.31
  -2  -3   3 1931.30   62.10
   2   3  -2 1635.97   63.36
   2  -3  -2 1685.94   47.77
  -2  -3   2 1673.14   54.71
  -2  -3   2 1677.46   54.99
  -2  -3   1  873.06   38.10
  -2   3   1  885.09   36.26
   2   3  -1  801.35   40.28
   2  -3  -1  797.37   34.25
  -2  -3   1  872.40   35.39
  -2  -3   0    8.93    4.13
  -2   3   0   16.76    5.43
   2   3   0   13.43    4.70
  -2  -3   0   12.94    4.56
   2   3   1   34.16    6.46
  -2   3  -1   32.15    7.87
   2  -3   1   46.52    6.41
  -2  -3  -1   31.09    8.26
  -2  -3  -2 1567.61   66.75
   2   3   2 1652.90   53.00
  -2   3  -2 1666.49   71.37
  -2   3  -3 2361.51   94.87
  -2  -3  -3 2477.51   93.72
  -2   3  -4  682.85   49.02
  -2  -3  -4  648.96   45.82
  -2   3  -5 1419.65   76.61
  -2  -3  -5 1444.60   74.06
  -2   3  -6  387.55   39.28
  -2  -3  -6  357.79   37.24
  -2   3  -7   86.94   20.11
  -2  -3  -7  123.00   24.20
  -2  -3  -8  546.84   51.31
  -2   3  -8  628.97   53.48
  -2   3  -9  366.67   41.44
  -2  -3  -9  376.73   44.40
  -2   3 -10   81.83   19.41
  -2  -3 -10  132.82   28.46
  -2   3 -11  523.25   53.32
  -2  -3 -11  534.73   57.49
  -2   3 -12  151.69   30.86
  -2  -3 -12  158.05   32.52
  -2   3 -13   48.44   19.37
  -2  -3 -13    2.68   11.55
  -2   3 -14   12.15   12.38
  -2  -3 -14   56.18   25.07
  -2   3 -15    4.02   12.37
  -2  -3 -15   -4.77   12.84
   2  -3  15   22.16   18.69
  -2   3 -16   49.22   21.49
  -2  -3 -16   51.51   22.47
   2  -3  16   15.98   16.58
   2  -3  17   46.83   26.83
  -2  -3 -17   68.71   25.97
  -2   3 -17   60.75   24.71
  -2  -3 -18   61.39   26.12
  -2   4  19   16.46   15.28
  -2   4  18   12.38   13.69
  -2  -4  18   22.47   18.04
   2   4 -17   13.11    8.57
  -2   4  17   13.48   12.39
  -2  -4  17   18.73   19.38
  -2   4  16   -3.97   10.19
  -2  -4  16    9.88   14.57
   2   4 -16   22.39   13.09
  -2  -4  15   19.13   16.42
   2  -4 -15    8.44    9.59
  -2  -4  14  123.04   30.53
   2   4 -14  118.90   27.40
   2  -4 -14   90.11   20.46
  -2  -4  13  103.91   28.19
   2  -4 -13   73.91   18.31
  -2  -4  12  533.25   57.64
   2  -4 -12  447.82   42.93
  -2  -4  11   54.87   20.24
   2  -4 -11   30.00   10.99
  -2  -4  10    2.81    6.85
   2  -4 -10    3.27    7.16
   2  -4  -9  101.02   19.50
  -2  -4   9   97.34   21.20
  -2  -4   8  764.84   58.37
   2  -4  -8  746.81   48.26
  -2  -4   7  351.69   35.55
   2  -4  -7  322.20   30.65
   2  -4  -6 1771.75   74.90
  -2  -4   6 1838.53   81.65
   2  -4  -6 1950.73   86.71
  -2  -4   5  218.87   23.43
   2  -4  -5  254.89   24.23
   2   4  -4 1396.23   59.25
  -2  -4   4 1547.39   61.49
   2   4  -3  634.85   35.72
  -2   4   3  679.13   23.01
   2  -4  -3  664.67   24.05
  -2  -4   3  685.37   34.79
   2   4  -2 1602.96   60.59
   2  -4  -2 1507.89   50.43
  -2  -4   1  199.52   16.68
  -2  -4   1  210.01   18.18
   2   4  -1  189.74   18.03
   2  -4   0 1942.81   44.87
  -2  -4   0 1958.18   69.71
  -2   4   0 2042.80   70.00
  -2  -4   0 2029.92   65.06
  -2   4  -1  534.84   34.59
   2  -4   1  494.26   21.71
   2   4   1  505.18   26.27
  -2  -4  -1  512.98   33.96
  -2  -4  -2 3519.20  111.25
   2  -4   2 3363.85   94.76
   2   4   2 3233.55   87.31
  -2   4  -2 3373.21  111.27
  -2   4  -3   77.87   15.13
   2   4   3   90.70    9.15
  -2  -4  -3   68.99   13.45
  -2   4  -4  773.27   50.43
  -2  -4  -4  836.93   52.10
  -2   4  -5   17.19    8.16
  -2  -4  -5   29.10    8.85
  -2   4  -6 1226.81   71.11
  -2  -4  -6 1352.68   76.15
  -2  -4  -7  572.27   50.10
  -2   4  -7  491.98   45.35
  -2   4  -8  956.42   66.62
  -2  -4  -8  908.77   67.20
  -2   4  -9    2.95    8.37
  -2  -4  -9    3.55    9.25
  -2   4 -10    3.34   10.87
  -2  -4 -10   12.67   13.91
  -2   4 -11    0.03    9.08
  -2  -4 -11    3.12   11.76
  -2   4 -12  287.93   41.76
  -2  -4 -12  263.23   41.58
  -2   4 -13   94.18   24.86
   2  -4  13   56.09   24.83
  -2  -4 -13   50.16   21.91
  -2   4 -14  209.40   37.61
   2  -4  14  141.21   36.15
  -2  -4 -14  129.68   34.05
  -2  -4 -15   13.69   14.80
   2  -4  15    8.57   14.25
   2  -4  16   64.43   30.60
  -2  -4 -16   30.45   19.25
  -2   4 -16   30.91   17.67
   2  -4  17    8.07   14.09
  -2  -4 -17   40.79   20.77
  -2  -4 -18   49.82   23.71
  -2   5  18  -11.73   12.35
  -2  -5  18   89.57   31.23
   2   5 -17   84.97   24.68
  -2  -5  17   38.07   21.45
  -2   5  17   39.26   19.23
   2   5 -16  102.47   26.01
  -2  -5  16   79.91   28.36
   2  -5 -15   26.77   11.73
   2   5 -15   39.75   18.10
  -2  -5  15   54.59   25.02
   2  -5 -14   46.95   16.56
  -2  -5  14   10.86   11.14
   2  -5 -13   30.39   13.26
  -2  -5  13   31.77   19.86
  -2  -5  12   79.56   24.37
   2  -5 -12   72.95   17.77
   2  -5 -11  269.45   32.04
  -2  -5  11  299.86   41.89
  -2  -5  10  588.42   57.34
   2  -5 -10  517.38   43.29
   2  -5  -9  318.81   19.38
  -2  -5   9  306.68   39.14
   2  -5  -9  311.93   31.97
   2  -5  -8  308.41   16.26
  -2  -5   8  325.06   37.85
   2  -5  -8  300.76   30.64
   2  -5  -7  104.84    8.06
   2  -5  -7  112.79   18.09
  -2  -5   7  123.19   21.07
   2  -5  -6  240.32   29.24
   2  -5  -6  199.35    9.66
   2  -5  -6  235.79   24.27
  -2  -5   6  236.30   27.33
   2  -5  -5    4.68    1.71
   2  -5  -5    9.95    1.99
   2  -5  -5    4.71    5.45
  -2  -5   5   15.13    7.08
  -2  -5   4 2286.22   78.67
   2  -5  -4 1849.88   51.83
  -2   5   3 2910.57   70.32
  -2  -5   3 2881.40   89.00
   2   5  -3 2921.79   87.63
  -2   5   2 1398.69   36.03
   2  -5  -2 1293.82   50.23
   2   5  -2 1408.26   53.87
   2   5  -1   25.67    6.37
  -2  -5   1   30.09    6.83
  -2  -5   1   29.32    7.12
  -2  -5   0   61.19   11.51
   2  -5   0   52.77    4.95
  -2  -5   0   54.96    9.65
   2  -5   1  312.06   16.73
  -2  -5  -1  303.14   23.53
  -2  -5  -1  331.61   27.42
  -2   5  -1  365.43   28.68
   2  -5   2 2259.31   69.65
  -2   5  -2 2211.99   86.41
  -2  -5  -2 2282.10   86.33
   2   5   2 2087.42   63.93
   2  -5   3 2829.83   93.10
  -2   5  -3 2750.63  105.87
  -2  -5  -3 2880.45  104.26
   2   5   3 2858.18   74.05
  -2  -5  -4 2413.72   97.60
   2  -5   4 2446.97   93.09
  -2   5  -4 2366.47   99.02
  -2   5  -5  529.82   44.25
  -2  -5  -5  577.58   45.72
   2  -5   5  525.12   42.90
  -2   5  -6  221.74   30.32
  -2  -5  -6  266.92   32.58
  -2  -5  -7  177.56   28.44
  -2   5  -7  132.69   24.77
  -2  -5  -8  326.47   40.07
  -2   5  -8  323.80   39.25
  -2   5  -9  345.31   41.40
  -2  -5  -9  358.31   43.24
   2  -5  10  661.26   65.56
  -2   5 -10  660.79   59.03
  -2  -5 -10  682.36   63.13
  -2   5 -11  421.12   48.99
  -2  -5 -11  507.94   57.48
   2  -5  11  516.07   60.69
  -2   5 -12  104.99   26.67
   2  -5  12   85.45   27.72
  -2  -5 -12   88.10   26.96
  -2   5 -13   28.03   17.31
   2  -5  13   -3.94   15.63
  -2  -5 -13    2.23   15.90
  -2   5 -14   10.41   17.68
  -2  -5 -14    7.43   15.20
   2  -5  14   30.48   18.16
   2  -5  15   22.73   19.09
  -2  -5 -15   26.85   20.23
   2  -5  16   96.30   36.20
  -2  -5 -16   53.27   24.52
  -2  -5 -17   98.43   30.19
   2  -5  17   11.16   18.92
  -2  -5 -18    1.15   10.52
  -2  -6  18   23.49   18.93
  -2   6  18   27.00   16.30
  -2   6  17    7.18   10.80
  -2  -6  17   29.12   20.80
   2   6 -17   29.25   18.48
  -2  -6  16    8.03   16.71
   2   6 -16   11.66   12.96
  -2  -6  15   28.76   19.30
  -2  -6  14   56.88   23.75
  -2  -6  13   88.79   27.76
   2  -6 -12  233.67   30.96
  -2  -6  12  297.67   45.08
   2  -6 -11  301.32   33.24
  -2  -6  11  330.24   46.06
   2  -6 -10   27.80   10.22
  -2  -6  10   11.86   12.90
  -2  -6   9   31.15   15.03
   2  -6  -9   15.97    4.72
   2  -6  -9   22.16   10.62
  -2  -6   8  257.75   33.13
   2  -6  -8  248.54   27.61
   2  -6  -8  310.22   18.75
   2  -6  -7   89.80   16.47
  -2  -6   7   74.40   16.78
   2  -6  -7   78.96    8.13
   2  -6  -6  800.42   53.64
   2  -6  -6  708.25   26.22
  -2  -6   6  721.68   49.68
   2  -6  -5 1375.22   70.58
  -2  -6   5 1460.34   68.39
   2  -6  -5 1509.61   42.91
  -2  -6   4  707.52   41.98
   2  -6  -4  506.96   27.35
  -2   6   3   82.82    8.26
   2   6  -3   74.41   10.85
  -2  -6   3   88.78   13.44
   2  -6  -3   63.14    9.51
  -2   6   2 1029.90   32.52
   2   6  -2 1066.76   43.47
  -2  -6   2 1140.00   49.65
  -2   6   1   29.10    4.65
  -2  -6   1   26.06    6.91
   2  -6  -1   21.19    3.37
   2   6  -1   30.60    6.73
  -2  -6   0  459.97   30.09
   2  -6   0  406.07   17.75
  -2  -6   0  404.21   29.73
  -2  -6  -1 1036.78   48.29
   2  -6   1  954.52   34.77
  -2  -6  -1 1014.82   51.77
  -2  -6  -2 1637.25   72.26
   2  -6   2 1681.36   58.03
  -2  -6  -3  704.13   47.15
  -2   6  -3  737.39   49.64
   2  -6   3  698.95   39.51
   2   6   3  733.92   28.91
   2   6   4  357.05   15.75
  -2   6  -4  319.36   34.00
  -2  -6  -4  366.76   35.20
   2  -6   4  362.36   31.67
  -2   6  -5  370.05   37.86
  -2  -6  -5  354.22   36.08
   2  -6   5  376.84   36.02
  -2   6  -6  377.92   39.75
  -2  -6  -6  348.52   37.71
   2  -6   6  368.28   38.68
   2  -6   7   98.28   21.29
  -2  -6  -7   65.29   18.96
  -2   6  -7   99.61   21.82
  -2   6  -8  500.39   48.88
  -2  -6  -8  542.18   51.82
   2  -6   8  476.38   50.17
  -2  -6  -9  358.89   43.65
  -2   6  -9  360.76   44.18
   2  -6   9  402.00   48.40
   2  -6  10   -2.76   11.61
  -2   6 -10   24.61   15.23
  -2  -6 -10   25.00   14.22
   2  -6  11   32.54   15.93
  -2   6 -11   43.25   18.81
  -2  -6 -11   53.57   22.87
   2  -6  12  133.12   33.58
  -2  -6 -12  113.76   28.41
  -2   6 -12  121.90   27.09
  -2   6 -13   97.06   28.54
   2  -6  13  100.57   31.89
  -2  -6 -13   94.75   25.69
   2  -6  14   23.25   19.35
  -2  -6 -14   38.53   20.75
   2  -6  15   44.65   26.00
  -2  -6 -15   37.19   23.01
   2  -6  16   12.10   17.09
  -2  -6 -16   28.15   18.72
  -2  -6 -17   20.32   17.02
   2  -6  17   -6.67   19.83
  -2  -6 -18   -2.02   12.48
  -2  -7  18   18.83   20.29
  -2   7  18   35.62   17.81
  -2  -7  17   37.56   24.58
   2   7 -17   47.24   19.79
  -2  -7  16   96.61   31.00
  -2  -7  15   10.49   15.52
  -2  -7  14   31.12   15.75
  -2  -7  13  -13.49   12.12
  -2  -7  12   34.15   18.11
  -2  -7  11  124.63   29.30
  -2  -7  10 1222.45   86.33
   2  -7  -9  277.44   20.37
  -2  -7   9  273.46   37.41
  -2  -7   8  126.14   23.48
   2  -7  -8  152.37   13.60
  -2  -7   7    4.44    6.12
   2  -7  -7   18.17    4.84
   2  -7  -6   17.10   10.11
  -2  -7   6   10.00    7.06
   2  -7  -6   11.77    3.53
  -2  -7   5  191.68   23.98
   2  -7  -5  179.93   13.22
   2  -7  -5  153.12   22.67
  -2  -7   4 3640.13  118.62
   2  -7  -4 3795.62  128.25
  -2  -7   3  849.05   46.14
   2  -7  -3  901.11   52.29
   2   7  -2 1708.07   57.06
   2  -7  -2 1864.56   78.49
  -2  -7   2 1783.27   69.15
  -2   7   2 1736.03   51.33
   2  -7  -1  397.08   32.73
   2   7  -1  391.93   23.53
  -2  -7   1  410.07   29.85
   2  -7  -1  418.37   19.55
  -2   7   1  412.17   20.98
   2  -7   0    2.29    1.96
  -2  -7   0    6.06    4.66
  -2  -7   0    7.67    4.21
  -2   7   0    7.36    2.96
  -2  -7  -1   -4.31    3.70
   2  -7   1    1.42    2.31
  -2  -7  -1    1.13    3.46
  -2  -7  -2 1877.00   79.67
   2  -7   2 1891.72   63.31
  -2  -7  -3 1105.56   61.30
   2  -7   3 1112.43   52.08
  -2  -7  -4 3935.10  137.38
   2  -7   4 3835.92  125.50
   2   7   4 3903.14   91.19
  -2   7  -5  420.27   40.96
  -2  -7  -5  367.98   38.09
   2  -7   5  420.00   37.37
  -2   7  -6   12.17    8.79
   2  -7   6   12.59    8.21
  -2  -7  -6    9.06    7.12
   2  -7   7   14.83    9.44
  -2   7  -7    3.18    7.94
  -2  -7  -7    6.23    7.88
   2  -7   8  214.56   34.20
  -2   7  -8  161.43   29.50
  -2  -7  -8  155.80   28.86
   2  -7   9  195.24   35.00
  -2   7  -9  138.52   28.76
  -2  -7  -9  172.74   31.32
  -2   7 -10 1383.81   91.01
  -2  -7 -10 1365.23   92.59
   2  -7  10 1484.25  100.75
  -2   7 -11  152.26   30.97
   2  -7  11  229.02   40.84
  -2  -7 -11  176.22   35.39
   2  -7  12   95.82   30.08
  -2  -7 -12   53.68   20.76
  -2  -7 -13    8.31   13.80
   2  -7  13   20.18   17.58
  -2  -7 -14    1.63   13.47
   2  -7  14   10.88   15.24
  -2  -7 -15   44.38   22.94
   2  -7  15    7.60   16.26
   2  -7  16  170.08   44.39
  -2  -7 -16   79.61   27.86
   2  -7  17   78.16   31.64
  -2  -7 -17   67.03   30.06
   2   8 -18   -2.29   10.86
  -2   8  18  -18.38   13.50
  -2  -8  17   57.84   27.55
   2   8 -17   44.62   21.69
  -2  -8  16   11.91   12.63
  -2  -8  15    1.06   13.35
  -2  -8  14   69.06   28.59
  -2  -8  13  108.55   31.18
  -2  -8  12   65.53   23.47
  -2  -8  11  365.43   49.17
  -2  -8  10   76.98   23.49
  -2  -8   9   60.50   19.61
   2  -8  -9   36.24    7.55
  -2  -8   8   22.64   10.72
   2  -8  -8   17.03    5.12
   2  -8  -7  113.80   12.23
  -2  -8   7   73.83   17.86
   2  -8  -6  314.17   20.53
  -2  -8   6  328.33   34.47
   2  -8  -6  342.39   35.15
  -2  -8   5 1785.90   81.36
   2  -8  -5 1825.43   83.81
   2  -8  -4   91.75   17.85
  -2  -8   4   94.21   16.83
   2  -8  -3    0.80    5.35
  -2  -8   3   11.26    6.95
   2   8  -2    2.52    2.62
  -2  -8   2   -4.01    4.32
   2  -8  -2    1.34    5.33
   2  -8  -1  358.91   31.86
   2  -8  -1  391.56   20.79
  -2  -8   1  381.58   30.12
   2   8  -1  360.06   20.78
  -2  -8   0  579.54   37.85
   2  -8   0  572.68   26.66
  -2  -8  -1 1226.13   57.72
  -2  -8  -1 1222.21   61.11
   2  -8   1 1172.04   43.33
   2  -8   2   50.47    8.81
  -2  -8  -2   54.24   12.84
  -2  -8  -3  836.98   53.18
   2  -8   3  734.96   41.60
  -2  -8  -4   55.34   15.95
   2  -8   4   49.03   12.71
   2   8   4   49.25    6.19
  -2  -8  -5  377.51   38.00
   2  -8   5  413.38   37.64
   2  -8   6  157.09   25.77
  -2  -8  -6  176.10   27.72
  -2  -8  -7  424.18   44.91
   2  -8   7  452.55   46.13
   2  -8   8  106.47   25.04
  -2  -8  -8  122.88   25.82
   2  -8   9  664.85   63.59
  -2  -8  -9  616.84   58.85
   2  -8  10   26.32   17.71
  -2  -8 -10   18.56   13.33
   2  -8  11   70.08   24.02
  -2  -8 -11   63.82   20.08
   2  -8  12   14.05   15.63
  -2  -8 -12   28.03   16.86
   2  -8  13   81.68   27.43
  -2  -8 -13   72.26   24.34
   2  -8  14   31.89   22.42
  -2  -8 -14  -14.69   16.20
   2  -8  15   90.66   31.56
  -2  -8 -15   78.35   27.43
  -2  -8 -16   23.72   19.38
   2  -8  16   19.28   21.84
   2  -8  17   76.80   34.32
  -2  -8 -17   40.85   24.30
   2   9 -18    3.85    9.54
  -2  -9  17   24.79   21.09
  -2  -9  16  124.63   34.21
  -2  -9  15   11.64   13.59
  -2  -9  14   48.67   21.47
  -2  -9  13   16.56   16.59
  -2  -9  12   18.46   13.64
  -2  -9  11   15.23   13.19
  -2  -9  10 1044.80   81.85
  -2  -9   9   82.50   21.04
   2  -9  -9   85.90   12.52
   2  -9  -8  427.22   27.52
  -2  -9   8  371.48   42.55
  -2  -9   7   20.46   11.77
   2  -9  -7    0.09    3.12
   2  -9  -6    6.67    4.04
   2  -9  -6    6.72    9.98
  -2  -9   6    5.71    7.23
  -2  -9   5  352.11   34.44
   2  -9  -5  388.93   35.83
   2  -9  -4 2419.47   98.69
  -2  -9   4 2369.27   94.36
  -2  -9   3   90.27   15.65
   2  -9  -3   62.29   14.65
   2  -9  -2 1751.34   78.14
  -2  -9   2 1662.47   72.04
   2  -9  -1  496.42   39.29
   2  -9  -1  562.37   27.53
  -2  -9   1  551.27   37.79
   2   9  -1  519.39   23.18
   2  -9   0   79.08   10.13
  -2  -9   0   83.05   14.78
   2   9   0   72.66    8.86
   2  -9   1  513.13   28.09
  -2  -9  -1  526.86   37.78
  -2  -9  -1  484.68   38.60
   2  -9   2 1522.25   58.20
  -2  -9  -2 1585.31   71.35
  -2  -9  -2 1545.79   75.28
   2  -9   3   43.87    9.69
  -2  -9  -3   55.56   14.27
   2  -9   4 2643.61   98.45
  -2  -9  -4 2531.49  109.72
  -2  -9  -5  628.63   50.62
   2  -9   5  650.90   48.47
   2  -9   6   40.08   14.07
  -2  -9  -6   30.36   14.04
   2  -9   7    5.50    6.80
  -2  -9  -7    2.35    8.53
  -2  -9  -8  249.49   37.19
   2  -9   8  273.47   38.90
  -2  -9  -9   86.48   23.59
   2  -9   9   99.13   26.71
   2  -9  10  952.68   80.50
  -2  -9 -10  807.03   72.58
   2  -9  11  102.38   28.12
  -2  -9 -11   92.18   26.43
   2  -9  12   96.34   29.22
  -2  -9 -12  104.67   28.68
   2  -9  13   17.79   17.36
  -2  -9 -13   51.10   22.48
  -2  -9 -14    7.11   12.97
   2  -9  14   27.13   20.26
   2  -9  15   38.32   27.37
  -2  -9 -15   -8.98   17.83
   2  -9  16  180.05   44.88
  -2  -9 -16   96.72   32.61
  -2  -9 -17   37.00   23.94
   2  -9  17   81.15   34.84
  -2 -10  17   13.93   18.02
  -2 -10  16   36.88   23.64
  -2 -10  15   25.64   18.88
  -2 -10  14   49.92   24.16
  -2 -10  13  141.13   34.26
  -2 -10  12    7.14   15.00
  -2 -10  11  142.39   32.85
  -2 -10  10   41.99   17.31
  -2 -10   9   13.46   13.34
   2 -10  -9    7.55    4.15
   2 -10  -8   12.35    5.46
  -2 -10   8   12.68   14.18
   2 -10  -7  600.71   34.59
  -2 -10   7  560.26   50.79
   2 -10  -6   45.21    8.96
   2 -10  -6   56.47   15.95
  -2 -10   6   38.09   14.33
   2 -10  -5  757.10   52.52
  -2 -10   5  706.58   50.92
   2 -10  -4   29.25   12.26
  -2 -10   4   38.53   13.02
  -2 -10   3   26.67    9.80
   2 -10  -3   33.49   11.17
  -2 -10   2  704.51   45.29
   2 -10  -2  649.24   45.27
  -2 -10   1  748.31   46.67
   2 -10  -1  798.37   36.00
   2 -10  -1  764.92   49.80
   2  10  -1  660.76   23.51
   2  10   0  167.35   11.75
   2 -10   0  207.27   17.49
  -2 -10   0  185.45   22.63
  -2 -10  -1 1577.72   70.85
  -2 -10  -1 1504.30   73.60
   2 -10   1 1347.95   53.45
   2 -10   2  187.49   18.85
  -2 -10  -2  182.57   23.36
  -2 -10  -2  178.32   24.21
  -2 -10  -3  340.10   35.19
   2 -10   3  334.62   27.99
  -2 -10  -4  250.03   31.67
   2 -10   4  233.30   26.09
   2  10   5  201.59   11.32
   2 -10   5  209.44   27.08
  -2 -10  -5  224.29   30.00
  -2 -10  -6   -3.50    8.18
   2 -10   6    7.78    9.51
  -2 -10  -7  953.49   71.37
   2 -10   7 1158.57   78.01
   2 -10   8   41.50   17.32
  -2 -10  -8   15.42   11.38
  -2 -10  -9  373.86   48.47
   2 -10   9  390.64   49.79
  -2 -10 -10   -6.22   12.73
   2 -10  10    5.97   13.29
   2 -10  11   10.00   17.06
  -2 -10 -11   12.00   15.18
  -2 -10 -12   -4.49   12.82
   2 -10  12   50.56   27.61
  -2 -10 -13   82.45   25.99
   2 -10  13  179.56   40.68
  -2 -10 -14  -25.82   19.75
   2 -10  14  -10.55   20.75
   2 -10  15  125.35   35.80
  -2 -10 -15   86.86   30.73
  -2 -10 -16    6.17   15.35
   2 -10  16   44.87   28.42
  -2 -10 -17  -17.73   14.93
  -2 -11  17  -15.56   14.35
  -2 -11  16  121.40   35.03
  -2 -11  15   -1.14   14.44
  -2 -11  14   66.00   28.68
  -2 -11  13   41.92   22.77
  -2 -11  12  105.38   31.07
  -2 -11  11   23.91   18.54
  -2 -11  10  406.81   50.60
   2 -11  -9   14.53    6.15
  -2 -11   9   -1.42   10.16
  -2 -11   8  949.23   73.11
   2 -11  -8  973.73   49.10
   2 -11  -7   14.70    6.16
  -2 -11   7   29.78   16.32
   2 -11  -6   87.77   13.04
   2 -11  -6  109.91   21.49
  -2 -11   6   96.76   21.32
  -2 -11   5  291.37   32.90
   2 -11  -5  254.68   31.01
   2 -11  -4  840.86   55.36
  -2 -11   4  842.45   55.83
   2 -11  -3    4.58    6.30
  -2 -11   3   -0.44    7.54
  -2 -11   2 1978.15   87.23
   2 -11  -2 2063.98   89.38
   2 -11  -2 2208.44   72.86
   2 -11  -1   71.50   10.87
  -2 -11   1   81.34   15.75
   2 -11  -1  109.63   18.99
   2 -11   0   12.18    4.32
  -2 -11   0    9.90    7.30
   2 -11   0    7.97    5.60
  -2 -11  -1  427.81   36.53
   2 -11   1  424.00   28.53
  -2 -11  -2 1188.49   63.71
   2 -11   2 1091.85   50.36
  -2 -11  -2 1117.06   65.84
  -2 -11  -3    3.63    6.95
   2 -11   3   -1.50    3.54
  -2 -11  -4  926.49   63.96
   2 -11   4  996.94   56.49
  -2 -11  -5  160.20   26.99
   2 -11   5  187.37   26.06
   2 -11   6  505.25   46.21
  -2 -11  -6  462.69   48.63
   2 -11   7    4.34    7.66
  -2 -11  -7    6.08    9.08
  -2 -11  -8  572.31   56.86
   2 -11   8  577.86   57.88
  -2 -11  -9   20.65   10.62
   2 -11   9   29.40   20.90
   2 -11  10  375.04   51.28
  -2 -11 -10  336.81   47.81
   2 -11  11   36.85   18.80
  -2 -11 -11   20.83   18.29
  -2 -11 -12  117.72   32.67
   2 -11  12  105.74   31.18
  -2 -11 -13    0.83   11.00
   2 -11  13    8.29   17.95
  -2 -11 -14   12.98   16.29
   2 -11  14   23.58   20.40
  -2 -11 -15  -20.73   19.38
   2 -11  15   27.73   22.46
  -2 -11 -16   67.44   24.93
   2 -11  16   34.34   23.26
  -2 -11 -17   29.32   20.89
  -2 -12  17   28.51   19.76
  -2 -12  16   17.43   21.46
  -2 -12  15   60.46   27.24
  -2 -12  14   43.83   25.70
  -2 -12  13  121.59   31.36
  -2 -12  12   35.51   23.90
  -2 -12  11   26.45   18.41
  -2 -12  10    6.11   10.15
  -2 -12   9   -4.42   10.21
   2 -12  -9    7.26    5.45
   2 -12  -8  103.42   16.16
  -2 -12   8  104.19   26.27
  -2 -12   7 1076.64   75.28
   2 -12  -7 1092.40   53.84
  -2 -12   6   25.31   13.48
   2 -12  -5  255.59   31.39
  -2 -12   5  259.20   32.50
   2 -12  -4    7.26    7.53
  -2 -12   4   -2.71    5.26
   2 -12  -3  163.04   23.25
  -2 -12   3  167.17   24.61
   2 -12  -2  196.70   19.62
  -2 -12   2  186.65   24.49
   2 -12  -2  202.80   25.89
   2 -12  -1  919.66   56.33
   2 -12  -1  823.72   42.19
  -2 -12   1  847.04   53.67
   2 -12   0  153.61   22.82
   2 -12   0  151.88   16.90
  -2 -12   0  157.33   22.79
   2  12   1 1340.80   36.39
   2 -12   1 1525.87   60.16
  -2 -12  -1 1479.07   73.63
  -2 -12  -2   47.80   14.88
   2 -12   2   43.29   10.40
  -2 -12  -2   64.13   15.04
   2 -12   3  109.63   16.89
  -2 -12  -3  119.73   23.07
   2 -12   4  114.99   19.06
  -2 -12  -4   88.94   20.17
  -2 -12  -5   77.83   20.94
   2 -12   5   61.86   15.41
   2 -12   6  120.92   23.86
  -2 -12  -6  146.29   27.89
  -2 -12  -7 1384.95   90.60
   2 -12   7 1404.22   87.25
   2 -12   8   60.24   20.70
  -2 -12  -8   66.34   20.09
  -2 -12  -9  118.47   29.00
   2 -12   9  129.53   31.10
   2 -12  10   13.86   12.87
  -2 -12 -10   -0.20    8.84
  -2 -12 -11    1.78   13.60
   2 -12  11    6.90   15.11
   2 -12  12   28.49   21.12
  -2 -12 -12   37.23   20.12
   2 -12  13  238.40   48.14
  -2 -12 -13  239.17   45.60
   2 -12  14   16.54   15.72
  -2 -12 -14    3.48   12.65
   2 -12  15   83.00   30.53
  -2 -12 -15   52.67   21.38
   2 -12  16    4.13   12.45
  -2 -12 -16  -16.80   17.63
  -2 -13  16   78.80   30.23
  -2 -13  15   29.53   19.72
  -2 -13  14  134.86   36.84
  -2 -13  13   25.79   20.99
  -2 -13  12   17.87   12.70
  -2 -13  11   34.53   19.59
  -2 -13  10  174.86   35.97
  -2 -13   9   -0.53   11.29
   2 -13  -8  789.42   47.91
  -2 -13   8  753.71   67.00
   2 -13  -7   55.52   12.33
  -2 -13   7   82.48   22.14
  -2 -13   6   95.48   22.08
   2 -13  -5    3.72    8.02
  -2 -13   5   -1.79    7.17
  -2 -13   4  334.35   36.98
   2 -13  -4  388.51   37.44
  -2 -13   3   -9.67    7.74
   2 -13  -3    7.13    6.97
   2 -13  -2 1091.62   52.47
   2 -13  -2 1135.84   64.79
  -2 -13   2 1044.26   64.46
   2 -13  -1  110.12   19.23
   2 -13  -1  101.75   14.94
  -2 -13   1  108.11   18.84
   2 -13   0   17.32    9.48
  -2 -13   0   16.76    8.01
   2 -13   0   19.87    6.53
   2 -13   1    8.04    6.73
  -2 -13  -1    7.09    7.21
  -2 -13  -2  592.61   47.35
   2 -13   2  568.26   38.71
  -2 -13  -2  613.67   50.96
  -2 -13  -3   30.65   12.45
   2 -13   3   15.29    7.40
   2 -13   4  496.42   40.84
  -2 -13  -4  502.52   48.84
   2 -13   5   68.89   17.55
  -2 -13  -5   72.50   19.75
  -2 -13  -6  294.30   40.10
   2 -13   6  287.27   36.10
   2 -13   7   18.07   13.09
  -2 -13  -7   -0.27   12.80
   2 -13   8  241.03   38.56
  -2 -13  -8  231.02   38.38
   2 -13   9   -5.39   14.28
  -2 -13  -9   18.50   14.95
   2 -13  10  145.21   33.59
  -2 -13 -10  133.10   31.87
  -2 -13 -11  -14.87   16.74
   2 -13  11   -6.31   16.46
   2 -13  12  170.08   39.59
  -2 -13 -12  144.74   34.55
   2 -13  13  -10.59   13.84
  -2 -13 -13   26.78   20.36
   2 -13  14   24.12   22.41
  -2 -13 -14    5.98   12.50
   2 -13  15   -7.91   17.08
  -2 -13 -15   16.28   18.03
   2 -13  16    4.64   16.44
  -2 -13 -16   31.63   24.48
  -2 -14  16   26.20   20.27
  -2 -14  15   12.81   14.93
  -2 -14  14   62.63   28.34
  -2 -14  13  158.16   39.40
  -2 -14  12   52.79   24.56
  -2 -14  11  -14.70   18.71
  -2 -14  10  -12.34   14.07
  -2 -14   9   16.68   14.80
   2 -14  -8   93.73   16.92
  -2 -14   8   94.36   25.03
  -2 -14   7  553.42   55.47
   2 -14  -7  561.34   40.28
  -2 -14   6  294.97   39.58
   2 -14  -5  301.44   34.95
  -2 -14   5  267.37   35.25
   2 -14  -4   18.56   10.89
  -2 -14   4    5.09    7.85
  -2 -14   3   12.96    6.15
   2 -14  -3   17.27    9.19
   2 -14  -2    2.08    6.07
   2 -14  -2   -2.50    4.30
  -2 -14   2    6.80    6.84
   2 -14  -1  705.49   42.39
  -2 -14   1  681.21   51.85
   2 -14  -1  730.32   51.33
   2 -14   0  881.91   58.46
   2 -14   0  896.52   49.04
  -2 -14   0  892.13   59.56
   2 -14   1  860.85   57.08
   2 -14   1  806.31   47.26
  -2 -14  -1  810.92   56.33
  -2 -14  -2    8.10    8.52
   2 -14   2   -0.85    5.63
  -2 -14  -2    9.97    8.87
  -2 -14  -3   95.54   22.40
   2 -14   3   98.73   17.59
  -2 -14  -4    5.14    7.76
   2 -14   4    2.46    4.58
   2 -14   5  117.11   22.74
  -2 -14  -5  114.09   25.52
   2 -14   6  422.34   44.85
  -2 -14  -6  415.92   49.26
  -2 -14  -7  724.94   67.32
   2 -14   7  758.82   64.51
  -2 -14  -8   27.39   17.62
   2 -14   8   59.03   20.66
   2 -14   9  137.81   31.65
  -2 -14  -9  127.78   31.25
   2 -14  10   -0.13   10.19
  -2 -14 -10   14.06   14.73
  -2 -14 -11   -0.94   12.37
   2 -14  11    4.04   11.72
   2 -14  12   91.74   30.82
  -2 -14 -12   31.63   18.88
   2 -14  13  128.36   36.57
  -2 -14 -13  109.82   32.49
   2 -14  14   37.74   23.64
  -2 -14 -14   59.39   26.71
   2 -14  15   55.32   27.15
  -2 -14 -15   95.02   32.76
  -2 -14 -16  -18.98   19.68
  -2 -15  15  -19.55   17.32
  -2 -15  14   20.55   15.21
  -2 -15  13    7.13   12.24
  -2 -15  12   27.47   19.23
  -2 -15  11   15.91   15.48
  -2 -15  10  210.59   41.17
  -2 -15   9   93.54   27.85
   2 -15  -8  212.24   26.49
  -2 -15   8  241.50   39.71
   2 -15  -7   96.66   17.47
  -2 -15   7   92.88   24.26
  -2 -15   6   28.68   15.50
   2 -15  -5  101.52   21.12
  -2 -15   5   84.35   20.92
   2 -15  -4  291.87   34.12
  -2 -15   4  283.29   36.53
   2 -15  -3    7.99    7.12
  -2 -15   3   -3.85    9.29
  -2 -15   2  465.06   44.51
   2 -15  -2  417.11   39.38
   2 -15  -2  469.05   36.24
   2 -15  -1  434.87   40.26
  -2 -15   1  441.90   42.28
   2 -15  -1  427.50   34.05
   2 -15   0   57.01   14.98
   2 -15   0   58.50   12.67
  -2 -15   0   80.01   19.04
   2 -15   1  155.49   24.21
   2 -15   1  123.46   18.82
  -2 -15  -1  130.96   21.61
   2 -15   2  126.34   19.03
  -2 -15  -2  160.16   28.84
  -2 -15  -2  108.78   20.56
  -2 -15  -3   15.21   12.32
   2 -15   3   12.98    7.39
   2 -15   4  389.79   37.02
  -2 -15  -4  350.65   42.91
   2 -15   5  289.18   35.10
  -2 -15  -5  331.39   43.05
  -2 -15  -6   31.71   15.90
   2 -15   6   62.79   19.98
   2 -15   7   23.63   14.97
  -2 -15  -7  -12.32   12.21
   2 -15   8   54.08   19.91
  -2 -15  -8   38.37   18.53
   2 -15   9   57.58   20.30
  -2 -15  -9   65.29   24.72
   2 -15  10  131.25   34.11
  -2 -15 -10  108.22   29.70
   2 -15  11   43.62   21.37
  -2 -15 -11   25.57   18.51
  -2 -15 -12   16.10   21.12
   2 -15  12    9.84   12.63
   2 -15  13   19.08   16.72
  -2 -15 -13   13.09   17.94
   2 -15  14   14.47   16.99
  -2 -15 -14   37.94   23.89
   2 -15  15  -32.06   23.57
  -2 -15 -15   10.65   16.73
  -2 -16  15   30.40   21.99
  -2 -16  14   68.66   30.61
  -2 -16  13   23.17   18.46
  -2 -16  12   51.48   24.16
  -2 -16  11   73.14   28.58
  -2 -16  10   15.85   15.02
  -2 -16   9   51.72   21.74
   2 -16  -8   90.90   18.12
  -2 -16   8   66.02   23.40
   2 -16  -7  142.72   21.89
  -2 -16   7  147.77   30.34
  -2 -16   6  332.70   45.11
  -2 -16   5  335.86   43.25
  -2 -16   4   20.40   12.54
   2 -16  -4   13.81    8.81
  -2 -16   3   43.94   14.63
   2 -16  -3   49.50   14.41
  -2 -16   2    7.81   10.19
   2 -16  -2   26.65   10.95
   2 -16  -2    5.67    6.54
   2 -16  -1  267.94   31.90
  -2 -16   1  238.02   32.41
   2 -16  -1  275.21   28.20
   2 -16   0  696.38   52.65
  -2 -16   0  672.88   54.56
   2 -16   0  723.68   47.72
   2 -16   1  487.88   44.15
  -2 -16  -1  454.03   44.98
   2 -16   1  539.13   41.19
   2 -16   2    9.98    6.63
  -2 -16  -2   26.09   11.87
   2 -16   2    4.37    6.45
  -2 -16  -3  100.13   23.71
   2 -16   3  112.45   20.11
   2 -16   4   -1.99    7.36
  -2 -16  -4    0.70    9.91
  -2 -16  -5  311.11   43.93
   2 -16   5  279.76   35.02
  -2 -16  -6  360.04   48.06
   2 -16   6  291.75   38.19
  -2 -16  -7  221.59   38.09
   2 -16   7  227.27   35.92
  -2 -16  -8   95.67   28.06
   2 -16   8   84.22   24.17
  -2 -16  -9  200.35   37.57
   2 -16   9  213.60   39.40
   2 -16  10    0.59   15.53
  -2 -16 -10    1.38   12.02
   2 -16  11   36.66   22.48
  -2 -16 -11   20.73   16.99
   2 -16  12   98.46   32.17
  -2 -16 -12  101.95   32.37
   2 -16  13   50.53   25.26
  -2 -16 -13   56.43   23.17
   2 -16  14   27.49   19.65
  -2 -16 -14   68.37   29.15
  -2 -16 -15   81.31   30.29
   2 -16  15   -9.19   19.78
  -2 -17  15   37.21   25.02
  -2 -17  14  -25.44   23.46
  -2 -17  13   21.01   22.68
  -2 -17  12   10.11   15.61
  -2 -17  11    3.02   16.30
  -2 -17  10  129.76   33.24
  -2 -17   9   49.00   21.36
  -2 -17   8   10.91   13.05
   2 -17  -8    5.85    5.96
  -2 -17   7   34.87   18.06
   2 -17  -7   46.70   13.17
  -2 -17   6   63.01   22.35
  -2 -17   5   63.50   20.96
   2 -17  -4  298.34   35.64
  -2 -17   4  223.54   34.49
  -2 -17   3  260.16   35.97
   2 -17  -3  200.71   28.43
   2 -17  -2   75.36   17.70
   2 -17  -2   90.56   17.58
  -2 -17   2  130.61   26.80
  -2 -17   1  186.27   29.40
   2 -17  -1  143.13   21.26
   2 -17  -1  180.35   26.64
   2 -17   0   51.29   13.21
  -2 -17   0   33.07   13.47
   2 -17   0   48.49   14.51
   2 -17   1   32.74   12.42
   2 -17   1   15.74   10.84
  -2 -17  -1   41.05   15.46
   2 -17   2   16.18   10.68
  -2 -17  -2   11.41    9.37
   2 -17   2    8.28    9.34
   2 -17   3  177.33   26.02
  -2 -17  -3  200.38   33.20
   2 -17   4  224.81   30.82
  -2 -17  -4  246.58   38.33
  -2 -17  -5  134.86   28.71
   2 -17   5  190.52   29.16
  -2 -17  -6   -2.33   11.41
   2 -17   6   11.50    9.36
  -2 -17  -7    2.50   11.31
   2 -17   7    1.27    8.21
   2 -17   8   -0.23   10.14
  -2 -17  -8    0.34   14.14
   2 -17   9   63.55   21.58
  -2 -17  -9   71.19   24.44
  -2 -17 -10   93.97   30.54
   2 -17  10   91.83   29.57
   2 -17  11  131.64   35.89
  -2 -17 -11   80.51   27.90
   2 -17  12  -17.82   19.38
  -2 -17 -12   -3.12   12.64
  -2 -17 -13   73.55   30.13
   2 -17  13  -12.69   14.96
   2 -17  14   40.82   25.81
  -2 -17 -14  -24.37   18.44
  -2 -18  14  -10.10   19.80
  -2 -18  13   28.88   21.42
  -2 -18  12  153.80   37.87
  -2 -18  11   18.61   14.18
  -2 -18  10   11.93   15.00
  -2 -18   9   88.87   30.15
  -2 -18   8   15.72   12.58
   2 -18  -7   33.77   12.15
  -2 -18   7   33.56   18.11
  -2 -18   6  229.67   38.96
  -2 -18   5  158.82   31.60
  -2 -18   4  115.29   25.95
   2 -18  -4  137.61   25.34
  -2 -18   3   34.42   15.07
   2 -18  -3   20.43   10.19
   2 -18  -2  134.70   23.04
  -2 -18   2  154.54   29.29
   2 -18  -2  132.14   21.61
   2 -18  -1  129.92   23.16
   2 -18  -1  105.10   19.01
  -2 -18   1  164.34   29.58
   2 -18   0  172.56   24.26
   2 -18   0  198.21   28.38
  -2 -18   0  189.14   31.48
   2 -18   1  135.93   23.63
   2 -18   1  155.96   24.14
  -2 -18  -1  129.67   25.96
   2 -18   2  277.52   35.11
   2 -18   2  236.85   30.49
  -2 -18  -2  228.96   34.02
   2 -18   3   40.41   15.05
   2 -18   3   25.57   11.10
  -2 -18  -3   32.51   14.46
  -2 -18  -4   68.58   20.21
   2 -18   4   25.70   13.46
  -2 -18  -5   84.83   24.07
   2 -18   5  121.52   24.81
  -2 -18  -6  150.14   34.53
   2 -18   6  139.94   27.84
  -2 -18  -7   56.61   22.74
   2 -18   7   47.33   17.97
   2 -18   8   97.98   26.43
  -2 -18  -8  127.42   32.61
   2 -18   9   91.91   28.40
  -2 -18  -9   77.71   24.91
   2 -18  10   11.73   14.80
  -2 -18 -10   -4.14   16.59
  -2 -18 -11   -6.69   16.91
   2 -18  11   46.48   23.44
  -2 -18 -12    4.40   13.63
   2 -18  12   71.71   28.01
  -2 -18 -13   38.33   22.03
   2 -18  13   39.52   26.30
   2 -18  14   -6.10   16.33
  -2 -18 -14   42.56   24.53
  -2 -19  13   32.96   26.89
  -2 -19  12   54.78   27.08
  -2 -19  11   68.68   30.71
  -2 -19  10   23.96   16.06
  -2 -19   9  115.91   33.70
  -2 -19   8  -13.56   20.06
   2 -19  -7   13.62   10.67
  -2 -19   7    0.09    9.84
  -2 -19   6    9.56   12.55
  -2 -19   5   27.34   14.70
  -2 -19   4   68.23   22.25
  -2 -19   3  413.38   49.22
   2 -19  -3  472.72   46.17
   2 -19  -2    8.12    7.04
   2 -19  -2   30.67   11.70
  -2 -19   2    5.75   11.38
   2 -19  -1   37.53   13.60
   2 -19  -1   54.85   15.75
  -2 -19   1   56.17   19.55
   2 -19   0    5.18    6.31
  -2 -19   0    9.67    8.08
   2 -19   0   28.01   12.10
   2 -19   1    1.86    7.76
   2 -19   1   -5.06    5.15
  -2 -19  -1    8.02    8.64
   2 -19   2   -0.72    7.24
  -2 -19  -2    9.37   11.96
   2 -19   2   10.70   10.45
   2 -19   3  464.29   47.35
  -2 -19  -3  379.85   49.07
   2 -19   3  403.04   42.79
  -2 -19  -4   79.31   25.24
   2 -19   4   39.27   13.90
  -2 -19  -5  124.67   31.29
   2 -19   5  117.57   26.02
   2 -19   6    8.10    9.63
  -2 -19  -6    2.89   17.00
   2 -19   7   15.45   13.96
  -2 -19  -7   27.12   18.84
  -2 -19  -8    0.75   13.42
   2 -19   8   12.56   14.62
   2 -19   9  129.76   32.11
  -2 -19  -9   84.13   26.15
  -2 -19 -10   24.57   18.23
   2 -19  10  -13.70   16.78
  -2 -19 -11   92.39   32.28
   2 -19  11  155.83   39.01
   2 -19  12   30.29   22.69
  -2 -19 -12    2.73   13.48
   2 -19  13    7.64   14.47
  -2 -19 -13   -0.36   16.02
  -2 -20  13   10.73   17.91
  -2 -20  12  110.54   36.37
  -2 -20  11   46.14   27.22
  -2 -20  10    3.85   11.13
  -2 -20   9   18.90   23.13
  -2 -20   8   37.36   18.40
   2 -20  -7   39.21   14.45
  -2 -20   7   49.36   22.12
  -2 -20   6  130.76   32.43
  -2 -20   5   43.10   20.85
  -2 -20   4  201.26   37.58
   2 -20  -3    4.75    8.37
  -2 -20   3   -8.72    8.40
  -2 -20   2  156.51   29.95
   2 -20  -2  126.85   22.91
   2 -20  -2  136.89   24.18
  -2 -20   1   16.14   12.75
   2 -20  -1   47.63   14.53
   2 -20  -1   17.93    9.22
   2 -20   0   70.54   17.85
  -2 -20   0   54.21   18.33
   2 -20   0   93.24   20.96
   2 -20   1   29.16   12.41
   2 -20   1   47.01   15.69
  -2 -20  -1   31.29   12.15
   2 -20   2  229.30   32.95
   2 -20   2  274.87   34.66
  -2 -20  -2  235.91   37.53
  -2 -20  -2  263.87   42.18
   2 -20   3   -3.15    7.67
  -2 -20  -3   22.61   15.00
   2 -20   3   -5.61    9.42
   2 -20   4   29.23   12.99
   2 -20   4   37.77   14.37
  -2 -20  -4   61.28   21.36
  -2 -20  -5  -27.53   16.83
   2 -20   5   15.77   12.96
  -2 -20  -6   83.94   27.76
   2 -20   6   74.66   22.26
  -2 -20  -7   37.36   19.33
   2 -20   7   17.91   12.28
   2 -20   8  124.92   30.96
  -2 -20  -8   90.10   28.79
  -2 -20  -9   -4.75   12.60
   2 -20   9    9.60   15.10
  -2 -20 -10  -22.08   20.16
   2 -20  10    2.19   10.65
  -2 -20 -11   -7.22   15.90
   2 -20  11   21.90   19.82
   2 -20  12   26.52   17.10
  -2 -20 -12   12.88   14.08
  -2 -20 -13   23.81   19.85
   2 -20  13   10.00   16.34
  -2 -21  12   69.20   33.44
  -2 -21  11   40.90   24.24
  -2 -21  10    3.84   15.90
  -2 -21   9  107.25   34.12
  -2 -21   8   -3.71   13.90
  -2 -21   7   -6.89   13.24
   2 -21  -7   25.61   12.81
  -2 -21   6    7.47   15.54
  -2 -21   5   43.16   19.71
  -2 -21   4    4.19   14.65
  -2 -21   3  309.06   45.27
  -2 -21   2   10.45    8.44
   2 -21  -2   18.43   11.54
   2 -21  -1   33.95   13.05
  -2 -21   1   19.37   13.18
  -2 -21   0   -7.95   11.52
   2 -21   0    8.47    8.25
   2 -21   1   14.68   11.16
  -2 -21  -1   14.15   13.80
  -2 -21  -2   26.43   17.42
  -2 -21  -2   12.78   12.81
   2 -21   2    5.59    9.33
  -2 -21  -3  324.04   47.51
   2 -21   3  301.73   39.93
   2 -21   4    1.48    9.68
  -2 -21  -4   17.92   16.59
   2 -21   5  104.78   26.48
  -2 -21  -5  123.88   30.84
   2 -21   6   57.05   21.01
  -2 -21  -6   50.45   22.86
  -2 -21  -7   -0.82   11.64
   2 -21   7   -6.37   13.25
   2 -21   8  -15.00   15.51
  -2 -21  -8   10.68   16.49
   2 -21   9   84.93   28.61
  -2 -21  -9   97.49   32.93
   2 -21  10   56.60   25.06
  -2 -21 -10   -7.90   15.02
  -2 -21 -11   65.24   25.42
   2 -21  11   66.14   28.34
   2 -21  12  -28.39   21.02
  -2 -21 -12    7.27   17.93
  -2 -22  11    3.15   16.09
  -2 -22  10   19.34   15.28
  -2 -22   9   16.44   15.76
  -2 -22   8   73.47   30.64
  -2 -22   7   -0.41   13.64
  -2 -22   6  123.11   32.28
  -2 -22   5   27.57   17.37
  -2 -22   4   49.77   19.74
  -2 -22   3   -9.22   13.77
  -2 -22   2   22.85   18.71
   2 -22  -1   14.13   10.56
  -2 -22   1    3.36    8.10
  -2 -22   0  139.14   30.06
   2 -22   0  129.69   25.20
   2 -22   1    7.33    9.01
  -2 -22  -1   -7.55    9.25
  -2 -22  -2  119.18   30.15
  -2 -22  -2   79.37   23.58
   2 -22   2  103.35   22.85
  -2 -22  -3   -1.29   10.09
   2 -22   3   18.76   12.46
   2 -22   4    1.59    7.13
  -2 -22  -4   18.29   16.05
  -2 -22  -5  -10.02   13.89
   2 -22   5   35.90   18.87
  -2 -22  -6   74.64   26.42
   2 -22   6   86.67   26.36
  -2 -22  -7   22.40   16.77
   2 -22   7   28.73   20.47
   2 -22   8   53.84   21.70
  -2 -22  -8   60.40   27.52
  -2 -22  -9   46.19   27.02
   2 -22   9   14.18   14.45
  -2 -22 -10  -32.11   20.54
   2 -22  10    3.52   12.04
  -2 -22 -11   18.16   18.91
   2 -22  11   16.46   20.03
  -2 -23  10   -2.00   15.50
  -2 -23   9   33.82   20.88
  -2 -23   8   13.07   20.96
  -2 -23   7   25.87   23.74
  -2 -23   6   19.23   16.68
  -2 -23   5   42.41   22.61
  -2 -23   4   16.31   16.96
  -2 -23   3  126.96   32.38
  -2 -23   2    0.82   12.54
   2 -23  -1   99.55   23.41
  -2 -23   1   48.78   19.14
   2 -23   0    1.05    8.36
  -2 -23   0   21.07   13.37
  -2 -23  -1   34.01   15.15
   2 -23   1   26.58   14.00
  -2 -23  -2   11.61   14.14
   2 -23   2   -9.18   11.26
  -2 -23  -3   66.94   25.57
   2 -23   3   85.20   23.37
   2 -23   4    5.25   11.16
  -2 -23  -4   22.55   15.55
   2 -23   5  111.99   28.56
  -2 -23  -5  112.58   31.70
  -2 -23  -6    6.65   14.60
   2 -23   6   -5.75   11.75
  -2 -23  -7   18.43   15.85
   2 -23   7    2.42    9.38
   2 -23   8   27.69   20.04
  -2 -23  -8   13.41   17.88
   2 -23   9   67.29   25.96
  -2 -23  -9   31.73   17.39
   2 -23  10    9.11   15.20
  -2 -23 -10   30.48   21.41
   2 -23  11   34.53   21.64
  -2 -24  10   25.87   20.96
  -2 -24   9    0.97   13.96
  -2 -24   8   28.06   20.09
  -2 -24   7  -17.00   19.64
  -2 -24   6   85.99   31.62
  -2 -24   5    9.45   13.02
  -2 -24   4   21.69   14.62
  -2 -24   3  -15.10   13.89
  -2 -24   2    5.22   10.17
   2 -24  -1   14.47   10.49
  -2 -24   1   35.89   19.67
   2 -24   0   96.34   24.13
  -2 -24   0   93.45   26.25
  -2 -24  -1    7.24   13.54
   2 -24   1    4.26    9.80
  -2 -24  -2   28.74   19.94
   2 -24   2   -8.37   10.63
  -2 -24  -3    8.59   13.91
   2 -24   3   -9.78   13.20
  -2 -24  -4    9.59   13.58
   2 -24   4   30.97   17.29
   2 -24   5  -15.10   15.85
  -2 -24  -5   27.87   20.41
  -2 -24  -6   91.39   30.79
   2 -24   6   63.27   24.84
  -2 -24  -7   13.56   18.08
   2 -24   7   17.73   17.64
  -2 -24  -8   27.23   21.77
   2 -24   8   32.20   20.46
   2 -24   9   -6.32   12.92
  -2 -24  -9   -0.58   13.38
   2 -24  10   43.56   27.63
  -2 -25   8   14.12   17.37
  -2 -25   7   37.07   24.25
  -2 -25   6   24.36   20.51
  -2 -25   5   51.97   25.69
  -2 -25   4   18.33   13.53
  -2 -25   3   37.59   22.20
  -2 -25   2   18.64   16.46
  -2 -25   1   75.27   26.23
   2 -25   0    7.96    9.70
  -2 -25   0  -20.32   16.31
  -2 -25  -1   18.05   16.93
   2 -25   1   34.29   16.80
  -2 -25  -2   -4.96   12.00
   2 -25   2   11.19   11.02
   2 -25   3   45.33   18.94
  -2 -25  -3   57.17   26.06
   2 -25   4   24.15   14.26
  -2 -25  -4   20.25   18.44
  -2 -25  -5   51.32   21.93
   2 -25   5   65.71   24.13
   2 -25   6   19.92   18.02
  -2 -25  -6   19.60   18.95
  -2 -25  -7   -1.94   14.29
   2 -25   7   -8.64   13.07
  -2 -25  -8   21.27   17.81
   2 -25   8   -4.40   12.50
   2 -25   9   32.65   20.78
  -2 -26   7   19.75   17.22
  -2 -26   6   64.06   26.72
  -2 -26   5   13.33   16.27
  -2 -26   4    8.02   15.15
  -2 -26   3   19.34   15.91
  -2 -26   2   -7.84   13.15
  -2 -26   1   -4.18   12.23
  -2 -26   0   54.24   22.81
  -2 -26  -1    5.71   13.94
  -2 -26  -1  -29.74   19.22
  -2 -26  -2   21.10   19.70
   2 -26   2   -2.80    9.93
  -2 -26  -3    7.99   14.28
   2 -26   3  -22.26   15.50
  -2 -26  -4   22.66   18.09
   2 -26   4   17.30   14.13
  -2 -26  -5    3.03   14.79
   2 -26   5   -0.61   10.22
  -2 -26  -6   29.23   23.37
   2 -26   6   27.05   15.69
  -2 -26  -7   42.84   24.83
   2 -26   7   21.00   17.80
  -2 -27   5   25.98   20.62
  -2 -27   4   20.37   17.50
  -2 -27   3    7.25   14.42
  -2 -27   2   22.74   19.99
  -2 -27   1   -7.06   12.22
  -2 -27   0  -10.97   13.15
  -2 -27  -1    1.43   16.21
  -2 -27  -2   41.89   22.11
  -2 -27  -3   26.12   18.75
  -2 -27  -4   12.90   18.40
  -2 -27  -5   -3.70   13.33
  -2 -28   2    9.38   12.75
  -2 -28   1   14.52   18.33
  -2 -28   0   23.94   20.89
  -2 -28  -1   17.12   19.14
  -2 -28  -2   49.92   28.18
  -3   0  17   13.13   14.96
   3   0 -17   26.04   12.73
  -3   0  16    2.33   10.89
   3   0 -16   15.84   14.24
   3   0 -15   11.23    8.78
  -3   0  15   26.52   15.23
   3   0 -14    7.02    9.02
  -3   0  14    4.76   13.24
  -3   0  13  112.45   27.71
   3   0 -13  182.22   31.79
   3   0 -12    5.08    8.99
  -3   0  12    8.37   10.88
  -3   0  11  425.80   46.97
   3   0 -11  590.47   54.39
  -3   0  10    5.03    9.98
   3   0 -10   -4.53    7.52
  -3   0   9   10.07    4.45
   3   0  -9   14.61    9.71
   3   0  -8  -10.92   10.49
  -3   0   8   -4.53    5.77
  -3   0   7  113.33   17.98
   3   0  -7   95.48   17.24
   3   0  -6    4.52    6.50
   3   0  -6    5.69    7.91
  -3   0   6   -3.11    4.08
  -3   0   5 2111.31   69.84
   3   0  -5 2177.02   89.89
   3   0  -5 2158.59   94.85
   3   0  -4   10.04   10.85
   3   0  -4   -1.91    7.58
  -3   0   4    1.33    2.69
   3   0  -3  153.34   22.75
  -3   0   3  137.05   10.40
  -3   0   3  153.12   13.91
   3   0  -3  129.45   18.80
   3   0  -2   -4.68    7.52
  -3   0   2   -1.73    4.04
   3   0  -2   -0.08    5.39
  -3   0   1  292.20   25.36
   3   0  -1  241.48   13.24
   3   0  -1  273.18   25.92
   3   0   0    1.88    2.01
  -3   0   0    4.10    5.22
   3   0   0   10.98    6.79
  -3   0  -1 2065.16   87.81
  -3   0  -2   11.28    8.64
  -3   0  -3 1330.05   75.29
  -3   0  -4   -8.37    9.53
  -3   0  -5  294.50   38.57
  -3   0  -6    5.91    7.58
  -3   0  -7  597.62   58.18
  -3   0  -8   -5.21   12.68
  -3   0  -9  828.43   73.40
  -3   0 -10   -1.75   12.65
  -3   0 -11   52.95   21.66
  -3   0 -12    3.77   14.40
  -3   0 -13   88.22   28.53
  -3   0 -14  -14.00   17.45
  -3   0 -15   86.10   29.50
  -3   0 -16   11.46   14.62
  -3   0 -17   20.36   17.57
   3   1 -17    7.18   13.70
  -3  -1  17   23.50   15.61
   3  -1 -17   -2.89   10.39
  -3   1  16  112.32   29.64
  -3  -1  16  114.27   29.23
   3   1 -16   88.90   24.48
   3  -1 -16  102.71   25.72
  -3   1  15   20.25   15.64
   3   1 -15   20.84   15.84
  -3  -1  15   12.23   14.01
   3  -1 -15   -9.59   11.97
   3  -1 -14   50.33   18.54
  -3   1  14   27.48   16.71
  -3  -1  14   32.31   16.00
   3   1 -14   70.61   23.15
   3  -1 -13   24.74   14.97
  -3   1  13   12.76   10.22
   3   1 -13   -1.64    9.09
  -3  -1  13   -2.52    9.29
  -3  -1  12   31.68   14.70
   3   1 -12   26.90   13.94
  -3   1  12   20.58   10.06
   3  -1 -12   27.60   15.52
   3  -1 -11    9.63   11.76
  -3   1  11   -1.68    6.22
  -3  -1  11   -7.72   10.75
   3   1 -11    3.10    8.27
   3   1 -10  935.55   67.74
  -3  -1  10  902.09   68.15
  -3   1  10  847.80   63.02
   3  -1 -10  979.68   67.23
  -3   1   9    7.13    7.49
   3  -1  -9    4.25    8.23
   3   1  -9   -3.89   10.91
  -3  -1   9   16.27   11.19
  -3  -1   8  252.74   30.00
  -3   1   8  281.34   30.88
   3   1  -8  292.98   34.50
   3  -1  -8  315.41   33.74
   3  -1  -7   28.67   11.30
   3  -1  -7   31.48   14.72
   3   1  -7   33.70   12.87
  -3   1   7   31.02    9.64
   3   1  -6    9.65    7.31
  -3   1   6    1.44    3.13
   3   1  -6    1.40    5.90
  -3  -1   6    1.99    3.43
   3  -1  -6   -4.03    8.96
   3  -1  -5   25.98   11.48
  -3   1   5   28.94    6.32
  -3  -1   5   27.21    7.11
   3   1  -5   36.95   13.12
   3  -1  -5   27.33   10.91
   3   1  -5   34.60   10.62
   3  -1  -4 3307.48  122.04
   3   1  -4 3250.91  118.01
  -3  -1   4 3110.93   80.45
  -3   1   4 3003.55   78.15
  -3  -1   4 3097.13   87.50
   3   1  -4 3369.84  112.55
   3  -1  -4 3321.86  112.78
   3   1  -3  151.43   19.15
   3  -1  -3  178.33   24.45
   3   1  -3  158.77   23.42
  -3  -1   3  169.79   13.70
  -3   1   3  152.37    8.01
  -3   1   3  157.81   11.79
  -3  -1   3  163.39   15.23
   3  -1  -3  207.69   23.47
   3  -1  -2 1882.90   88.37
   3   1  -2 1852.71   85.41
  -3  -1   2 1892.80   55.83
  -3   1   2 2131.19   69.93
  -3  -1   2 2050.70   71.89
   3   1  -2 1973.04   58.75
   3   1  -2 1986.18   77.52
   3  -1  -2 2060.95   80.30
   3  -1  -1    5.02    5.67
   3   1  -1    0.73    1.30
  -3   1   1   -1.10    3.66
  -3  -1   1    1.84    3.17
   3   1  -1    4.29    3.85
   3   1   0   97.25   15.00
   3  -1   0   59.39    5.56
  -3   1   0   70.00   13.52
  -3  -1   0   78.97   14.45
   3  -1   1  228.59   14.97
  -3   1  -1  248.46   27.79
  -3  -1  -1  282.37   28.82
  -3   1  -2 1786.93   85.76
  -3  -1  -2 1742.08   83.12
  -3   1  -3  132.85   23.54
  -3  -1  -3  137.71   22.57
  -3   1  -4 3649.56  141.70
  -3  -1  -4 3411.98  136.27
  -3   1  -5   -7.09   10.25
  -3  -1  -5   11.28   10.05
  -3   1  -6  126.38   26.31
  -3  -1  -6  106.59   23.62
  -3   1  -7   22.49   13.09
  -3  -1  -7   22.67   12.94
  -3   1  -8  144.21   30.53
  -3  -1  -8  104.62   24.26
  -3   1  -9   16.42   16.38
  -3  -1  -9   -8.04   10.57
  -3   1 -10  997.59   83.28
  -3  -1 -10 1043.73   85.92
  -3   1 -11   33.52   17.43
  -3  -1 -11   15.92   18.73
  -3   1 -12  156.07   35.10
  -3  -1 -12  102.18   29.07
  -3   1 -13  -13.29   15.09
  -3  -1 -13   -0.19   13.76
  -3   1 -14    9.31   12.99
  -3  -1 -14   24.58   19.12
  -3   1 -15    9.79   16.25
  -3  -1 -15  -15.24   14.35
  -3   1 -16   88.91   31.14
  -3  -1 -16  162.30   38.95
   3  -1  17    0.21   21.78
   3   2 -17   16.09   10.74
  -3  -2  17   22.96   16.35
  -3   2  16   11.67   10.61
  -3  -2  16   22.20   12.76
   3  -2 -16   13.42   12.26
   3   2 -16   11.19   11.64
  -3   2  15   22.57   14.96
   3   2 -15    0.85   12.12
  -3  -2  15   11.78   11.54
   3  -2 -15    5.88   12.23
   3   2 -14   -1.05   10.36
  -3   2  14   13.98   13.72
  -3  -2  14    4.65    9.31
   3  -2 -14   11.57   11.08
   3   2 -13  136.16   29.20
  -3   2  13  124.88   27.05
  -3  -2  13   98.62   25.91
   3  -2 -13  152.20   29.35
  -3   2  12   81.76   21.14
   3   2 -12   99.78   25.17
  -3  -2  12   96.59   25.20
   3  -2 -12   55.49   17.63
   3   2 -11  310.61   40.87
  -3  -2  11  290.00   40.12
  -3   2  11  272.96   36.74
   3  -2 -11  352.11   40.89
  -3   2  10   10.89    9.30
  -3  -2  10   17.31   10.99
   3  -2 -10   10.49   10.45
   3   2 -10   21.35   13.25
   3   2  -9   28.14   11.73
  -3   2   9    3.65    4.96
  -3  -2   9    6.26    6.11
   3  -2  -9   12.85    9.93
   3   2  -8   82.82   20.09
  -3   2   8   64.03   14.81
  -3  -2   8   80.19   17.51
   3  -2  -8   63.34   16.38
   3  -2  -7  356.86   39.10
  -3  -2   7  285.63   29.49
  -3   2   7  275.03   27.29
   3   2  -7  305.48   35.54
   3  -2  -7  347.40   34.73
   3  -2  -6   75.87   19.21
  -3   2   6   56.32   10.89
   3   2  -6   59.05   15.56
   3   2  -6   47.85   13.07
  -3  -2   6   54.45   11.71
   3  -2  -6   86.11   17.79
   3  -2  -5 1622.09   82.51
   3   2  -5 1722.56   80.12
  -3  -2   5 1541.21   46.98
  -3  -2   5 1617.86   63.17
  -3   2   5 1601.31   53.27
   3   2  -5 1641.87   76.50
   3  -2  -5 1813.02   79.75
   3  -2  -4  177.79   25.27
   3   2  -4  155.20   22.90
  -3   2   4  129.30    8.68
  -3  -2   4  144.53   15.12
  -3  -2   4  141.93   13.26
   3   2  -4  125.26   18.42
   3  -2  -4  163.18   22.03
   3  -2  -3  287.61   31.49
   3   2  -3  264.19   29.55
  -3  -2   3  278.69   19.83
  -3  -2   3  289.46   21.62
   3   2  -3  294.75   27.43
   3  -2  -3  323.29   29.58
   3  -2  -2  724.40   51.79
   3   2  -2  774.70   44.57
  -3  -2   2  747.86   32.56
  -3   2   2  749.90   34.32
  -3  -2   2  796.57   41.19
   3   2  -2  693.39   47.91
   3  -2  -2  770.79   46.51
   3   2  -1  218.00   25.24
  -3   2   1  256.15   22.99
  -3  -2   1  258.56   24.65
   3   2  -1  261.65   24.42
  -3  -2   0   13.38    7.57
  -3   2   0   24.30    9.49
   3   2   0   21.23    7.87
  -3   2  -1 2320.07   93.13
  -3  -2  -1 2186.17   88.14
  -3   2  -2  825.63   56.72
  -3  -2  -2  749.25   51.78
  -3   2  -3 1266.54   74.73
  -3  -2  -3 1205.46   71.04
  -3  -2  -4  325.80   37.39
  -3   2  -4  357.82   40.86
  -3   2  -5  227.20   34.10
  -3  -2  -5  155.24   27.46
  -3   2  -6  113.62   25.37
  -3  -2  -6  121.36   25.32
  -3   2  -7  732.23   64.69
  -3  -2  -7  661.05   60.99
  -3   2  -8  213.81   36.88
  -3  -2  -8  204.67   35.11
  -3   2  -9  482.68   54.41
  -3  -2  -9  504.47   57.88
  -3   2 -10   24.18   16.13
  -3  -2 -10   15.71   15.26
  -3   2 -11   12.81   14.54
  -3  -2 -11  -17.11   15.03
  -3   2 -12   35.45   21.99
  -3  -2 -12   55.07   27.50
  -3   2 -13  127.94   32.77
  -3  -2 -13  134.32   33.79
  -3   2 -14   11.15   15.62
  -3  -2 -14   25.64   19.24
  -3   2 -15   55.24   26.67
  -3  -2 -15   96.36   29.10
   3  -2  16   10.16   16.00
  -3  -2 -16   16.25   19.44
  -3   2 -16    7.40   14.88
   3  -2  17  -31.09   23.17
  -3  -3  18   -0.64   10.84
  -3  -3  17   24.52   18.49
   3   3 -17   17.61   11.13
  -3  -3  16   86.69   26.26
   3   3 -16  100.32   28.97
   3  -3 -16   65.66   21.45
   3  -3 -15   22.78   14.44
  -3  -3  15    1.54   10.59
  -3   3  15   -2.91    8.29
   3   3 -15   21.50   15.72
  -3  -3  14   56.23   22.02
  -3   3  14   59.15   19.04
   3   3 -14   38.81   18.07
   3  -3 -14   43.51   18.44
  -3  -3  13   50.05   19.92
  -3   3  13   52.85   18.16
   3   3 -13   51.38   19.74
   3  -3 -13   66.68   19.84
   3   3 -12   74.03   24.00
  -3  -3  12   34.36   17.21
  -3   3  12   60.37   18.56
   3  -3 -12   66.68   19.75
  -3  -3  11   41.19   16.59
  -3   3  11   38.79   14.04
   3   3 -11   35.83   17.28
   3  -3 -11   31.70   14.43
   3   3 -10  452.29   49.56
  -3  -3  10  471.79   49.00
  -3   3  10  395.82   41.39
   3  -3 -10  565.36   50.03
  -3  -3   9   47.58   14.78
  -3   3   9   72.13   17.10
   3  -3  -9   92.39   20.24
   3   3  -9   73.55   20.30
  -3  -3   8  657.45   50.30
   3   3  -8  536.59   51.00
   3  -3  -8  688.83   51.36
  -3   3   7   93.41   15.66
   3  -3  -7  126.20   23.97
  -3  -3   7   79.55    7.71
  -3  -3   7  105.38   18.21
   3   3  -7  105.58   21.63
   3  -3  -7  116.23   20.60
   3  -3  -6  132.88   23.84
   3   3  -6  145.18   22.67
  -3  -3   6  112.74   10.51
  -3   3   6  111.28   14.31
  -3  -3   6   97.53   16.65
   3   3  -6  138.78   22.90
   3  -3  -6  153.46   22.46
   3  -3  -5   94.56   19.49
   3   3  -5   72.42   14.96
  -3  -3   5   73.78    9.62
  -3   3   5   78.62    9.18
  -3  -3   5   67.00   12.19
   3   3  -5   74.91   16.10
   3  -3  -5   97.84   18.46
   3  -3  -4 1197.47   70.26
   3   3  -4 1262.26   65.68
   3  -3  -4 1262.56   64.78
   3   3  -4 1190.13   63.83
  -3  -3   4 1197.45   51.48
  -3  -3   4 1214.23   47.81
   3  -3  -3  707.41   45.10
   3   3  -3  639.69   42.73
  -3  -3   3  728.15   35.95
  -3  -3   3  649.00   35.44
   3  -3  -3  656.60   23.67
   3  -3  -3  680.50   50.07
   3   3  -3  710.89   47.47
   3  -3  -2 2115.41   96.13
  -3  -3   2 2133.98   69.02
  -3  -3   2 2185.80   76.99
   3   3  -2 2018.45   87.19
   3   3  -2 2052.70   80.50
   3   3  -1    7.41    5.34
  -3   3   1    7.55    4.34
   3   3  -1    3.63    3.99
  -3  -3   1    7.33    2.12
  -3  -3   1    9.53    5.58
  -3  -3   0   23.13    8.72
  -3   3   0    5.55    3.13
   3   3   0   20.44    7.07
   3  -3   1  451.41   18.87
  -3   3  -1  496.45   38.18
  -3  -3  -1  547.78   41.42
   3  -3   1  496.63   21.46
  -3   3  -2 1641.47   80.95
  -3  -3  -2 1763.73   83.16
  -3   3  -3  521.28   46.03
  -3  -3  -3  559.02   46.17
  -3   3  -4 1884.11   96.77
  -3  -3  -4 1796.56   92.38
  -3   3  -5   13.94    9.49
  -3  -3  -5   16.25   11.26
  -3   3  -6  505.46   50.26
  -3  -3  -6  513.13   50.48
  -3   3  -7  122.32   27.20
  -3  -3  -7   90.25   22.55
  -3  -3  -8  374.43   47.34
  -3   3  -8  324.73   42.86
  -3   3  -9   35.21   18.65
  -3  -3  -9   18.65   10.67
  -3   3 -10  493.30   53.57
  -3  -3 -10  508.65   60.27
  -3   3 -11   68.22   22.43
  -3  -3 -11   78.07   25.98
  -3   3 -12  189.69   36.94
  -3  -3 -12  212.82   41.67
  -3   3 -13   -7.12   12.83
  -3  -3 -13   44.01   24.06
  -3   3 -14    5.33   16.73
  -3  -3 -14    9.19   16.61
   3  -3  14  -11.26   16.10
  -3   3 -15   20.45   17.27
  -3  -3 -15    7.05   13.49
   3  -3  15   -7.20   12.24
   3  -3  16   56.27   25.92
  -3   3 -16   44.10   22.93
  -3  -3 -16    4.83   11.94
   3  -3  17   46.89   28.97
  -3  -4  18   17.42   18.17
   3   4 -17   23.81   17.35
  -3  -4  17   19.81   15.35
   3  -4 -16    6.95   10.30
   3   4 -16   16.27   15.37
  -3  -4  16   27.64   19.01
  -3  -4  15   26.27   18.93
   3   4 -15    9.31   12.55
   3  -4 -15    4.37    8.83
  -3   4  15    9.82   11.98
  -3   4  14   22.84   12.93
  -3  -4  14   44.24   19.53
   3   4 -14   19.52   14.53
   3  -4 -14   41.71   16.43
  -3   4  13  165.99   30.80
  -3  -4  13  191.72   37.18
   3   4 -13  202.28   36.70
   3  -4 -13  153.38   28.64
  -3  -4  12  106.80   26.51
  -3   4  12  116.47   24.20
   3   4 -12   94.11   27.27
   3  -4 -12  116.11   25.03
   3   4 -11   91.15   24.03
  -3  -4  11   87.18   23.11
  -3   4  11   76.52   18.91
   3  -4 -11   85.63   21.50
   3   4 -10   -0.84    8.72
  -3  -4  10    1.96    7.93
  -3   4  10    6.35    6.95
   3  -4 -10    4.36    8.22
  -3  -4   9   60.66   17.39
   3   4  -9   71.19   21.02
  -3   4   9   39.61   13.14
   3  -4  -9   78.23   19.44
  -3  -4   8  224.27   29.25
  -3   4   8  210.96   25.57
   3   4  -8  239.63   34.27
   3  -4  -8  244.94   31.30
   3  -4  -7  883.70   63.50
  -3  -4   7  773.81   52.34
  -3   4   7  665.28   43.00
   3   4  -7  784.53   60.07
   3  -4  -7  850.04   56.73
   3  -4  -6  497.59   44.22
   3   4  -6  478.47   43.87
  -3  -4   6  510.35   38.73
  -3  -4   6  405.81   24.72
  -3   4   6  404.69   27.99
   3  -4  -6  543.62   43.11
   3  -4  -5  482.97   43.60
   3   4  -5  474.46   38.06
  -3   4   5  415.27   19.04
  -3  -4   5  440.49   32.49
  -3  -4   5  385.56   25.23
  -3   4   5  413.27   21.64
   3   4  -5  417.98   38.72
   3  -4  -5  473.01   39.01
   3   4  -4  203.82   24.77
   3  -4  -4  190.51   27.31
  -3  -4   4  179.01   19.06
  -3  -4   4  176.20   17.27
   3  -4  -4  174.61   23.58
   3   4  -4  164.67   22.68
   3  -4  -3  544.96   45.71
   3   4  -3  576.00   41.49
  -3  -4   3  576.19   34.07
  -3  -4   3  565.83   34.47
   3  -4  -3  591.90   23.46
   3   4  -3  526.24   39.79
   3  -4  -2  747.09   53.54
   3   4  -2  808.33   49.80
  -3  -4   2  784.15   39.51
  -3  -4   2  816.45   44.44
   3   4  -2  781.87   45.99
   3  -4  -1  593.03   46.75
  -3  -4   1  632.00   33.97
  -3   4   1  656.08   36.29
  -3  -4   1  613.41   39.90
   3   4  -1  637.57   43.36
   3   4  -1  639.02   39.03
  -3   4   0  711.09   42.26
  -3  -4   0  593.53   41.99
   3   4   0  667.41   38.63
   3  -4   1 1357.18   37.94
  -3   4  -1 1646.80   73.04
  -3  -4  -1 1542.87   72.43
   3  -4   1 1378.05   38.70
  -3   4  -2  855.48   54.57
  -3  -4  -2  888.32   56.87
   3  -4   2  905.35   38.99
  -3   4  -3  270.69   31.51
  -3  -4  -3  299.72   34.20
   3  -4   3  275.66   24.87
  -3   4  -4  200.42   28.43
  -3  -4  -4  249.69   32.34
  -3   4  -5   11.86    9.74
  -3  -4  -5    1.47    7.55
  -3   4  -6  485.15   47.33
  -3  -4  -6  497.66   50.22
  -3   4  -7 1007.16   72.32
  -3  -4  -7 1064.37   76.89
  -3   4  -8  317.69   41.81
  -3  -4  -8  361.53   47.29
  -3   4  -9  114.85   26.59
  -3  -4  -9   95.34   24.46
  -3   4 -10   -1.77    9.73
  -3  -4 -10   -9.67   15.19
  -3   4 -11   17.50   13.37
  -3  -4 -11   13.07   17.48
   3  -4  12   52.18   21.53
  -3   4 -12   85.83   26.59
  -3  -4 -12   68.49   23.77
   3  -4  13  133.69   34.33
  -3   4 -13  147.15   34.55
  -3  -4 -13  141.45   38.70
  -3   4 -14   44.66   21.01
   3  -4  14   35.17   16.40
  -3  -4 -14   84.59   29.71
   3  -4  15   44.47   27.50
  -3   4 -15   93.34   29.87
  -3  -4 -15   56.31   26.67
  -3   4 -16    5.87   16.98
   3  -4  16   14.39   15.86
  -3  -4 -16   33.60   21.18
  -3  -5  18   72.06   28.90
   3   5 -18   30.11   17.66
   3   5 -17   29.36   17.75
  -3  -5  17    9.61   13.08
  -3  -5  16   79.50   27.44
   3   5 -16   34.71   19.00
  -3  -5  15   72.80   25.31
   3   5 -15   81.73   26.95
   3   5 -14   71.03   24.05
  -3  -5  14   40.14   19.74
  -3   5  14   41.67   17.83
   3  -5 -14   28.10   14.14
   3  -5 -13   20.91   11.64
  -3  -5  13   54.84   21.64
  -3   5  13   14.83   11.44
   3   5 -13   55.35   25.19
   3  -5 -12   57.40   17.11
  -3  -5  12   54.89   21.30
   3   5 -12   65.42   22.20
  -3   5  12   39.59   15.13
  -3  -5  11   18.24   13.98
  -3   5  11    5.15    6.49
   3   5 -11   -7.30   12.96
  -3  -5  10  130.36   26.26
  -3   5  10  152.72   25.47
   3  -5 -10  156.93   26.02
  -3  -5   9  253.94   35.57
  -3   5   9  226.96   28.68
   3  -5  -9  296.17   34.84
   3  -5  -8  842.84   57.89
  -3  -5   8  801.15   58.56
   3  -5  -7  318.58   37.11
  -3  -5   7  289.02   32.42
  -3   5   7  222.88   23.99
   3  -5  -7  289.19   33.47
   3  -5  -6  183.43   24.66
   3  -5  -6  201.97   29.46
  -3  -5   6  183.99   23.79
  -3   5   6  156.05   17.04
  -3  -5   5    4.00    3.65
   3  -5  -5    5.12    8.74
   3   5  -5   -1.38    5.48
  -3  -5   5    5.87    5.00
  -3   5   5    1.94    1.55
  -3   5   5    5.99    3.05
   3  -5  -4  423.59   40.94
  -3  -5   4  395.50   30.66
  -3  -5   4  377.63   27.95
   3   5  -4  422.35   34.44
   3  -5  -3  330.79   34.95
   3   5  -3  332.90   30.07
  -3  -5   3  350.91   27.56
   3  -5  -3  317.84   18.09
  -3  -5   3  348.65   27.53
   3  -5  -2 1462.08   77.82
   3   5  -2 1434.46   67.36
   3   5  -2 1400.91   66.59
  -3  -5   2 1481.57   60.13
  -3  -5   2 1434.78   63.97
   3  -5  -1  660.83   50.96
  -3  -5   1  697.80   38.40
  -3  -5   1  777.13   46.96
   3   5  -1  651.99   40.99
   3   5  -1  700.97   44.96
  -3  -5   0   29.53    9.34
  -3  -5   0   40.69    9.41
   3   5   0   47.84    9.84
   3  -5   1   52.22    5.22
  -3   5  -1   67.09   14.55
  -3  -5  -1   49.03   12.34
  -3   5  -2  760.37   52.46
  -3  -5  -2  802.96   53.71
   3  -5   2  785.00   34.66
   3   5   3  303.35   22.85
  -3   5  -3  273.77   32.67
  -3  -5  -3  246.41   31.31
   3  -5   3  294.14   24.70
  -3   5  -4  750.94   57.19
  -3  -5  -4  758.51   58.70
   3  -5   4  783.83   48.31
  -3   5  -5  622.38   54.10
  -3  -5  -5  546.19   51.41
   3  -5   5  564.42   44.69
  -3   5  -6  449.20   47.77
  -3  -5  -6  429.82   46.74
   3  -5   6  427.74   42.19
   3  -5   7   44.78   14.30
  -3   5  -7   64.08   18.12
  -3  -5  -7   58.40   19.64
  -3   5  -8  295.01   41.67
   3  -5   8  410.05   46.50
  -3  -5  -8  316.17   42.73
   3  -5   9   85.35   22.97
  -3   5  -9   79.55   25.72
  -3  -5  -9   68.46   23.79
   3  -5  10   80.91   22.91
  -3   5 -10  115.39   28.89
  -3  -5 -10  145.17   34.03
   3  -5  11  151.88   34.02
  -3   5 -11  131.69   31.26
  -3  -5 -11  111.68   28.87
   3  -5  12  156.56   35.94
  -3   5 -12  178.23   37.62
  -3  -5 -12   98.04   30.01
   3  -5  13    7.71   13.03
  -3   5 -13   22.63   19.68
  -3  -5 -13   -2.90   15.54
  -3   5 -14   10.65   14.84
  -3  -5 -14   34.50   25.36
   3  -5  14   17.44   15.18
   3  -5  15   32.91   24.90
  -3   5 -15    5.42   11.31
  -3  -5 -15    3.80   16.66
   3  -5  16   29.39   19.36
  -3  -5 -16   30.07   22.00
  -3  -6  18   14.07   15.02
   3   6 -18   -2.34   12.01
   3   6 -17    8.46   12.65
  -3  -6  17   -5.72   11.55
  -3  -6  16    8.59   14.12
   3   6 -16  -16.11   13.65
  -3  -6  15   13.06   15.62
   3   6 -15   37.59   22.51
  -3  -6  14  133.66   32.51
   3   6 -14  115.84   32.74
  -3   6  14   66.47   19.69
  -3  -6  13  100.78   28.50
  -3   6  13   71.43   19.11
   3   6 -13   88.36   27.47
  -3  -6  12  132.63   30.39
  -3   6  12  103.47   22.03
   3  -6 -11   36.03   15.70
  -3  -6  11   19.23   14.26
   3  -6 -10    8.38   10.23
  -3  -6  10   13.18    9.06
  -3  -6   9   -6.79    9.18
   3  -6  -9   42.58   14.08
  -3  -6   8  345.86   38.92
   3  -6  -7  582.54   52.21
  -3  -6   7  526.27   45.69
   3  -6  -6 1073.53   68.71
  -3  -6   6 1053.92   59.73
   3   6  -5  185.94   22.93
   3  -6  -5  141.64   23.97
  -3  -6   5  159.25   21.05
  -3   6   5  115.18   11.46
   3  -6  -4  117.03   21.71
  -3  -6   4  102.99   15.48
   3   6  -4  121.74   17.92
  -3  -6   4  110.67   16.77
   3  -6  -4  110.58    8.14
   3   6  -3  180.78   21.73
   3  -6  -3  193.47   28.01
  -3  -6   3  196.99   21.86
  -3  -6   3  169.03   20.30
   3  -6  -2  193.05   27.66
  -3  -6   2  195.58   21.08
  -3  -6   2  216.49   23.75
   3   6  -2  208.52   23.20
   3  -6  -1  502.35   43.40
   3   6  -1  480.43   36.09
  -3  -6   1  462.54   32.57
  -3  -6   1  493.19   38.24
   3   6  -1  457.40   34.85
  -3  -6   0 2939.73   97.21
  -3  -6   0 2869.60  108.18
   3   6   0 2676.93   93.01
   3  -6   1  898.39   28.36
  -3  -6  -1 1027.86   60.65
  -3   6  -2  278.92   31.61
  -3  -6  -2  291.78   32.53
   3  -6   2  268.88   18.49
  -3   6  -3  182.90   27.35
   3  -6   3  173.40   18.73
  -3  -6  -3  169.43   25.37
   3   6   3  189.54   18.14
   3  -6   4   11.39    5.82
  -3   6  -4    6.22    6.04
  -3  -6  -4   17.01   12.31
  -3   6  -5    6.45    6.69
   3  -6   5    4.20    5.05
  -3  -6  -5   -3.90    8.43
  -3  -6  -6  965.93   72.48
   3  -6   6 1064.65   67.95
  -3   6  -6 1022.39   74.12
  -3   6  -7  912.69   72.70
  -3  -6  -7  918.99   73.24
   3  -6   7 1070.71   72.24
  -3   6  -8  419.65   50.16
  -3  -6  -8  488.78   55.14
   3  -6   8  464.13   50.66
  -3   6  -9  101.10   25.59
   3  -6   9  100.96   25.58
  -3  -6  -9   80.17   23.10
  -3   6 -10   -0.88   11.52
  -3  -6 -10    8.52   14.85
   3  -6  10   -3.57    8.33
  -3   6 -11   23.72   18.71
   3  -6  11  -19.67   17.34
  -3  -6 -11   -1.76   12.32
   3  -6  12  152.62   36.16
  -3   6 -12  132.59   33.07
  -3  -6 -12  158.07   38.30
   3  -6  13   76.89   28.28
  -3   6 -13  103.49   31.28
  -3  -6 -13   90.22   27.63
   3  -6  14  133.98   35.81
  -3   6 -14  119.40   33.18
  -3  -6 -14  159.12   40.97
  -3  -6 -15   46.59   26.88
   3  -6  15   59.33   24.98
  -3  -6 -16  -12.37   14.51
   3  -6  16   17.77   21.07
  -3  -7  17    4.86   15.02
   3   7 -17   -5.00   10.02
  -3  -7  16   47.26   24.82
   3   7 -16   42.69   22.08
  -3  -7  15  106.39   30.49
   3   7 -15   88.21   31.17
  -3  -7  14   43.33   21.05
   3   7 -14   38.15   22.98
  -3  -7  13   15.47   13.02
  -3   7  13   23.26   13.36
  -3  -7  12   22.68   15.30
  -3  -7  11   11.64   11.78
  -3  -7  10   79.81   22.94
  -3  -7   9  370.50   43.96
  -3  -7   8  300.64   37.01
   3  -7  -7  444.81   45.87
  -3  -7   7  370.47   38.76
   3  -7  -6   10.79   11.93
  -3  -7   6   -2.94    5.80
   3  -7  -5   78.29   18.51
  -3  -7   5   70.84   14.84
   3  -7  -4  137.57   23.47
  -3  -7   4  143.07   20.18
   3   7  -4  114.67   16.92
   3  -7  -3  262.73   30.89
   3   7  -3  221.16   23.19
  -3  -7   3  247.44   25.47
  -3  -7   3  208.99   23.45
   3  -7  -2  709.22   54.13
   3   7  -2  736.62   43.95
  -3  -7   2  699.46   43.51
  -3  -7   2  690.12   45.66
   3  -7  -1 1597.48   83.80
   3   7  -1 1625.06   70.41
  -3  -7   1 1695.52   71.03
  -3  -7   1 1674.00   76.65
  -3  -7   0   67.74   15.79
   3   7   0   70.57   14.07
  -3  -7   0   89.58   14.81
  -3  -7  -1   72.51   15.65
   3  -7   1   66.67    6.98
  -3  -7  -2  109.53   21.53
   3  -7   2  131.56   12.74
   3  -7   3  108.46   14.55
   3   7   3  108.65   13.74
  -3  -7  -3   86.38   19.18
  -3   7  -4  165.12   27.34
   3  -7   4  174.74   21.58
  -3  -7  -4  165.51   28.09
  -3   7  -5 1154.48   77.55
  -3  -7  -5 1106.42   75.73
   3  -7   5 1248.15   67.36
  -3   7  -6  137.69   27.54
   3  -7   6  149.79   24.82
  -3  -7  -6  174.28   31.19
  -3   7  -7   44.08   17.38
   3  -7   7   25.57   12.41
  -3  -7  -7   16.42   10.55
  -3   7  -8   18.28   13.64
  -3  -7  -8   15.49    8.78
   3  -7   9  140.24   29.64
  -3   7  -9   94.10   25.70
  -3  -7  -9  129.83   30.98
   3  -7  10  100.52   26.09
  -3   7 -10   31.89   15.49
  -3  -7 -10   82.90   24.97
   3  -7  11  142.59   32.63
  -3  -7 -11   98.56   28.38
  -3   7 -12   94.32   29.29
  -3  -7 -12   23.19   14.50
   3  -7  12   72.59   25.72
  -3  -7 -13   49.64   23.64
   3  -7  13   89.69   30.01
  -3  -7 -14  -21.44   19.24
   3  -7  14    8.90   13.90
   3  -7  15   42.30   25.07
  -3  -7 -15   38.46   22.20
   3  -7  16   35.40   23.37
  -3  -7 -16   38.10   22.00
  -3  -8  17   -7.53   10.03
   3   8 -17   37.86   21.63
   3   8 -16   36.20   20.07
  -3  -8  16  -21.24   15.71
  -3  -8  15   17.76   18.31
   3   8 -15   41.85   23.02
  -3  -8  14  140.60   34.77
  -3  -8  13   39.06   18.49
  -3  -8  12  136.26   30.44
  -3  -8  11    7.17   11.42
  -3  -8  10   52.57   19.51
  -3  -8   9   27.60   12.36
  -3  -8   8  353.38   41.56
   3  -8  -7  115.26   24.50
  -3  -8   7  108.83   22.67
   3  -8  -6 1320.01   78.92
  -3  -8   6 1263.29   71.14
   3  -8  -5  213.66   30.21
  -3  -8   5  208.89   26.62
   3  -8  -4   44.81   14.11
  -3  -8   4   49.82   11.96
   3   8  -4   44.58   10.96
  -3  -8   3   51.24   13.02
   3  -8  -3   52.66   15.39
  -3  -8   3   37.10   10.56
   3   8  -3   52.81   10.70
   3  -8  -2  112.62   21.82
  -3  -8   2  111.30   18.63
   3   8  -2  102.47   15.01
  -3  -8   2   93.94   15.96
   3   8  -1  160.36   19.24
   3  -8  -1  189.60   27.91
  -3  -8   1  169.58   23.71
  -3  -8   1  197.57   22.86
   3  -8   0 2815.42   66.16
  -3  -8   0 2903.21  113.06
  -3  -8   0 2904.34  103.34
   3  -8   1  337.36   18.37
  -3  -8  -1  388.46   38.12
   3   8   1  325.28   26.79
  -3  -8  -2  222.54   30.91
   3  -8   2  216.11   17.26
   3   8   3  114.80   14.08
   3  -8   3  113.27   14.77
  -3  -8  -3  117.98   22.75
   3  -8   4   -4.83    5.28
  -3  -8  -4    1.62    7.99
   3  -8   5  178.70   24.82
  -3  -8  -5  173.50   31.21
  -3  -8  -6 1328.60   88.53
   3  -8   6 1396.77   78.41
   3  -8   7  178.82   29.75
  -3   8  -7  133.42   29.23
  -3  -8  -7  184.31   33.75
  -3   8  -8  453.70   53.85
  -3  -8  -8  459.64   52.93
   3  -8   8  483.48   51.32
   3  -8   9  168.04   31.81
  -3  -8  -9  156.70   33.61
   3  -8  10    2.09   10.28
  -3  -8 -10   26.74   18.84
   3  -8  11    6.14    9.99
  -3  -8 -11  -17.44   18.60
   3  -8  12   95.94   30.15
  -3  -8 -12  113.45   31.58
   3  -8  13   38.35   21.73
  -3  -8 -13   29.74   22.57
   3  -8  14   94.16   30.61
  -3  -8 -14  114.72   34.15
   3  -8  15   35.06   21.28
  -3  -8 -15   46.49   25.93
   3  -8  16   40.39   24.21
  -3  -8 -16    7.28   18.11
   3   9 -17   57.72   25.90
  -3  -9  17    2.98   12.48
  -3  -9  16   18.36   16.13
   3   9 -16   85.17   32.17
  -3  -9  15   67.54   29.32
   3   9 -15   94.00   33.46
  -3  -9  14   55.05   23.51
  -3  -9  13   57.19   25.09
  -3  -9  12    5.08    9.69
  -3  -9  11   40.71   16.69
  -3  -9  10   76.87   23.71
  -3  -9   9  353.79   45.16
  -3  -9   8   11.16   10.44
   3  -9  -7  307.26   39.73
  -3  -9   7  294.96   36.32
   3  -9  -6  164.46   28.17
  -3  -9   6  184.16   27.86
   3  -9  -5   91.52   20.77
  -3  -9   5   32.11   10.80
   3  -9  -4  104.54   21.21
  -3  -9   4  130.63   20.20
   3  -9  -3  649.96   52.71
   3   9  -3  640.55   37.26
  -3  -9   3  707.72   48.17
   3  -9  -2    1.97    7.11
  -3  -9   2    6.99    6.83
   3   9  -2    8.98    4.96
  -3  -9   2   14.64    7.84
   3  -9  -1 1407.66   79.13
   3   9  -1 1337.92   58.12
  -3  -9   1 1419.05   69.28
  -3  -9   1 1427.07   75.09
  -3  -9   0   87.27   19.03
   3  -9   0   96.74    8.87
   3   9   0   91.20   14.45
  -3  -9   0  100.56   17.90
  -3  -9  -1    9.14    7.48
   3  -9   1   18.79    4.72
  -3  -9  -1   12.60    6.90
  -3  -9  -2   26.86   11.88
   3  -9   2   23.90    6.16
  -3  -9  -3  352.71   40.38
   3  -9   3  365.58   27.17
   3   9   3  395.46   26.38
   3  -9   4  126.85   18.28
   3   9   4  134.70   14.08
  -3  -9  -4  111.63   23.87
  -3  -9  -5  976.44   72.27
   3  -9   5 1014.08   60.68
  -3  -9  -6   -3.08   11.74
   3  -9   6    3.61    8.10
   3  -9   7   72.78   19.92
  -3  -9  -7   57.27   20.69
   3  -9   8   63.03   18.45
  -3  -9  -8   76.16   23.39
   3  -9   9  173.87   33.35
  -3  -9  -9  137.15   31.18
   3  -9  10   88.26   25.11
  -3  -9 -10   17.07   16.11
   3  -9  11  278.13   45.56
  -3  -9 -11  238.51   46.47
   3  -9  12    3.24   10.05
  -3  -9 -12  -42.62   27.11
   3  -9  13   58.59   25.27
  -3  -9 -13   55.63   27.70
   3  -9  14    8.98   12.04
  -3  -9 -14  -24.04   22.88
   3  -9  15   57.39   27.56
  -3  -9 -15    7.93   14.62
  -3  -9 -16   -5.86   14.32
   3  -9  16   12.79   19.21
   3  10 -17  -19.08   21.99
  -3 -10  17   18.92   17.84
  -3 -10  16   -8.81   14.03
   3  10 -16   32.53   21.93
  -3 -10  15    6.77   16.50
  -3 -10  14   97.03   31.05
  -3 -10  13   23.54   18.75
  -3 -10  12  241.79   43.49
  -3 -10  11    8.83   13.37
  -3 -10  10   50.27   20.16
  -3 -10   9  118.68   26.98
  -3 -10   8  216.63   33.44
   3 -10  -7   37.35   18.11
  -3 -10   7   -1.92    7.64
   3 -10  -6  895.04   64.99
  -3 -10   6  874.34   62.65
   3 -10  -5  136.08   25.65
  -3 -10   5  140.43   23.94
   3 -10  -4  306.74   36.61
  -3 -10   4  310.09   34.30
   3 -10  -3   75.52   19.65
  -3 -10   3   99.38   19.35
   3 -10  -2  261.56   33.68
  -3 -10   2  276.95   30.13
  -3 -10   2  230.48   29.45
   3  10  -2  272.21   21.80
   3  10  -1   76.11   11.47
  -3 -10   1   67.35   17.63
  -3 -10   1   84.04   17.12
   3 -10  -1   59.80   17.74
   3  10   0 1216.03   54.50
  -3 -10   0 1158.53   65.06
   3 -10   0 1226.17   42.47
  -3 -10   0 1174.62   71.89
   3 -10   1   76.18    9.90
  -3 -10  -1   76.87   18.66
  -3 -10  -1   67.00   15.67
   3 -10   2  730.76   36.51
  -3 -10  -2  743.55   58.56
  -3 -10  -3   28.47   14.64
   3 -10   3   12.30    5.72
   3  10   4   55.03    9.15
   3 -10   4   45.71   10.87
  -3 -10  -4   44.57   17.73
   3 -10   5  117.48   19.89
  -3 -10  -5  145.80   29.21
  -3 -10  -6  727.88   66.49
   3 -10   6  796.79   58.27
  -3 -10  -7   -2.11   13.45
   3 -10   7   14.06   12.34
  -3 -10  -8  455.30   56.45
   3 -10   8  572.40   57.03
   3 -10   9  105.58   27.20
  -3 -10  -9  110.40   30.07
  -3 -10 -10    7.97   13.59
   3 -10  10   21.24   16.67
  -3 -10 -11   13.81   15.17
   3 -10  11   32.25   19.98
  -3 -10 -12  138.63   35.98
   3 -10  12  146.78   35.67
   3 -10  13   -5.52   11.33
  -3 -10 -13  -11.34   15.13
  -3 -10 -14   85.88   29.02
   3 -10  14   55.01   23.71
  -3 -10 -15    4.61   16.51
   3 -10  15   20.58   18.20
   3 -10  16  -11.69   19.04
  -3 -11  16   -4.95   16.21
  -3 -11  15   11.52   17.28
  -3 -11  14   10.24   13.76
  -3 -11  13   32.72   20.00
  -3 -11  12   37.73   23.44
  -3 -11  11   68.76   21.15
  -3 -11  10    3.26    8.14
  -3 -11   9  249.45   39.02
  -3 -11   8   20.04   12.29
   3 -11  -7  136.09   27.31
  -3 -11   7  142.86   27.58
   3 -11  -6  132.59   26.05
  -3 -11   6  107.04   23.00
   3 -11  -5   62.92   17.70
  -3 -11   5   52.28   15.18
  -3 -11   4    5.39    8.02
   3 -11  -4   -3.32    7.04
   3 -11  -3 1032.40   68.30
  -3 -11   3 1130.44   67.16
   3 -11  -2   39.65   15.00
   3  11  -2   42.19    8.05
  -3 -11   2   50.63   14.02
   3 -11  -1  308.46   36.76
   3  11  -1  276.40   20.86
  -3 -11   1  252.76   30.57
  -3 -11   1  293.19   34.43
   3  11   0   50.75    9.33
   3 -11   0   42.48   14.12
  -3 -11   0   50.44   16.49
  -3 -11   0   54.10   14.18
   3 -11   0   51.00    8.53
   3 -11   1   59.25    9.87
  -3 -11  -1   53.27   15.88
  -3 -11  -1   53.47   14.63
  -3 -11  -2  104.10   22.73
   3 -11   2  120.58   14.90
   3 -11   3 1006.41   50.10
  -3 -11  -3 1098.81   76.31
  -3 -11  -4   -0.03   10.04
   3  11   4   -4.36    3.95
   3 -11   4    0.26    4.36
  -3 -11  -5  611.38   58.97
   3 -11   5  575.98   45.02
   3 -11   6    2.11    6.48
  -3 -11  -6   26.68   16.35
  -3 -11  -7   68.87   22.07
   3 -11   7   77.27   19.90
   3 -11   8   95.26   24.87
  -3 -11  -8   97.33   29.00
   3 -11   9  206.63   37.46
  -3 -11  -9  177.38   38.32
   3 -11  10    7.21   13.85
  -3 -11 -10    1.35   16.88
   3 -11  11  296.68   47.55
  -3 -11 -11  270.12   49.51
   3 -11  12   -5.97   13.31
  -3 -11 -12   -7.49   18.30
   3 -11  13   58.76   26.86
  -3 -11 -13   14.93   18.25
   3 -11  14   33.73   23.69
  -3 -11 -14   10.12   13.44
   3 -11  15   30.02   23.37
  -3 -11 -15   -4.88   15.27
  -3 -12  16   21.97   22.61
  -3 -12  15   15.40   17.65
  -3 -12  14   31.81   19.69
  -3 -12  13   19.15   18.08
  -3 -12  12  262.43   46.72
  -3 -12  11  -10.54   18.06
  -3 -12  10   13.59   12.33
  -3 -12   9   29.80   18.20
  -3 -12   8  107.62   24.72
   3 -12  -7   27.75   15.01
  -3 -12   7  -17.67   13.42
   3 -12  -6  557.54   51.82
  -3 -12   6  527.09   51.01
  -3 -12   5    5.40    7.34
   3 -12  -5    9.78   10.96
   3 -12  -4  560.46   50.69
  -3 -12   4  601.66   50.98
  -3 -12   3   93.25   21.07
   3 -12  -3   51.94   16.17
   3 -12  -2  329.71   38.44
  -3 -12   2  305.27   34.22
   3 -12  -1    1.77    7.82
  -3 -12   1    5.08    6.54
  -3 -12   1   12.57    9.60
   3  12  -1    3.76    2.18
   3 -12   0  351.40   40.58
   3  12   0  357.89   22.63
  -3 -12   0  355.17   36.31
   3 -12   0  381.57   25.50
  -3 -12   0  360.36   40.89
   3 -12   1    5.07    4.27
   3  12   1    3.28    2.57
  -3 -12  -1    6.19    9.38
  -3 -12  -1   20.68   12.53
   3 -12   2  911.80   45.98
  -3 -12  -2  933.77   69.02
  -3 -12  -3    1.08    8.01
   3 -12   3   10.23    5.66
  -3 -12  -4  102.96   25.49
   3 -12   4  110.88   18.36
   3  12   4  103.19   12.76
   3 -12   5    5.29    6.28
  -3 -12  -5    6.67   11.17
  -3 -12  -6  253.04   39.54
   3 -12   6  248.29   32.33
   3 -12   7    1.01   10.26
  -3 -12  -7   -7.21    9.35
  -3 -12  -8  323.05   49.77
   3 -12   8  387.37   47.17
   3 -12   9   -3.62    9.83
  -3 -12  -9    5.63   10.94
   3 -12  10   16.52   13.59
  -3 -12 -10   16.82   18.85
   3 -12  11  -20.39   18.76
  -3 -12 -11    5.24   15.98
   3 -12  12   73.41   26.29
  -3 -12 -12  119.45   34.33
   3 -12  13   25.03   21.31
  -3 -12 -13  -45.12   29.69
   3 -12  14   21.36   20.27
  -3 -12 -14   77.50   32.31
   3 -12  15   31.15   22.92
  -3 -12 -15  -27.88   22.47
  -3 -13  16   16.25   19.14
  -3 -13  15   56.04   27.16
  -3 -13  14   -8.54   15.04
  -3 -13  13   29.41   21.91
  -3 -13  12   20.17   18.87
  -3 -13  11  124.63   32.59
  -3 -13  10   59.07   23.25
  -3 -13   9  190.22   35.77
  -3 -13   8   23.34   13.86
   3 -13  -7   58.36   20.16
  -3 -13   7   66.77   20.70
   3 -13  -6   14.33    8.78
  -3 -13   6   -8.35   10.72
  -3 -13   5   32.29   13.53
   3 -13  -5   36.50   14.15
  -3 -13   4  216.75   31.74
   3 -13  -4  170.88   28.40
   3 -13  -3  945.99   67.21
  -3 -13   3  934.37   65.13
   3 -13  -2   27.05   11.64
  -3 -13   2   23.91   10.77
   3 -13  -1  135.53   25.75
  -3 -13   1   82.20   21.31
  -3 -13   1  142.70   24.50
   3 -13   0   -2.09    6.55
  -3 -13   0    3.45    7.06
  -3 -13   0    1.99    8.80
   3 -13   0    2.62    3.67
  -3 -13  -1   21.96   13.80
  -3 -13  -1    9.56    7.53
   3 -13   1   25.17    7.99
  -3 -13  -2  111.61   25.84
   3 -13   2  109.27   15.86
   3 -13   3  998.58   53.93
  -3 -13  -3 1102.22   79.96
  -3 -13  -4  196.68   35.08
   3 -13   4  186.76   24.03
  -3 -13  -5  366.90   47.67
   3 -13   5  422.71   39.57
   3 -13   6    1.36    5.55
  -3 -13  -6   15.92   15.24
   3 -13   7   49.40   16.14
  -3 -13  -7   72.75   24.03
   3 -13   8   31.98   16.50
  -3 -13  -8   41.76   22.45
   3 -13   9  188.65   36.32
  -3 -13  -9  175.89   39.74
   3 -13  10  110.14   28.13
  -3 -13 -10   85.07   29.80
   3 -13  11  239.33   42.63
  -3 -13 -11  343.16   56.10
   3 -13  12  -38.07   22.19
  -3 -13 -12   30.53   20.67
   3 -13  13    8.43   15.33
  -3 -13 -13   29.62   20.41
   3 -13  14  -16.53   16.00
  -3 -13 -14   75.04   32.60
   3 -13  15   22.40   20.59
  -3 -14  15   10.24   17.20
  -3 -14  14   28.41   15.06
  -3 -14  13   66.29   26.72
  -3 -14  12  157.41   37.39
  -3 -14  11   29.03   18.41
  -3 -14  10   73.77   26.14
  -3 -14   9   -0.41    9.26
  -3 -14   8   55.52   21.16
  -3 -14   7   -3.56    9.17
   3 -14  -6  375.38   43.79
  -3 -14   6  345.42   43.99
  -3 -14   5  215.55   33.13
   3 -14  -5  236.16   33.60
   3 -14  -4  301.36   37.19
  -3 -14   4  269.90   36.14
   3 -14  -3   -1.77    7.66
  -3 -14   3   -1.28    6.72
   3 -14  -2   56.98   16.67
  -3 -14   2   44.38   15.23
   3 -14  -1   -7.14    7.71
  -3 -14   1   -2.05    6.81
  -3 -14   1   -7.18    8.98
   3 -14   0  250.65   34.05
  -3 -14   0  221.03   34.58
  -3 -14   0  258.83   33.38
   3 -14   0  281.41   24.73
   3 -14   1   94.43   21.77
  -3 -14  -1   87.63   22.11
  -3 -14  -1   89.21   20.70
   3 -14   1   76.12   13.31
   3 -14   2  487.91   35.59
  -3 -14  -2  445.73   50.62
  -3 -14  -3  138.57   30.30
   3 -14   3   96.03   16.96
  -3 -14  -4   -2.92   10.06
   3 -14   4   14.73    8.62
  -3 -14  -5   40.76   19.94
   3 -14   5   45.45   13.33
   3 -14   6  157.35   26.85
  -3 -14  -6  151.14   33.27
  -3 -14  -7   -3.23   10.86
   3 -14   7   -5.49    9.93
  -3 -14  -8  138.64   32.53
   3 -14   8  200.75   35.27
   3 -14   9  108.48   27.71
  -3 -14  -9   57.66   25.55
   3 -14  10   10.65   13.08
  -3 -14 -10   36.34   24.35
   3 -14  11    3.65   10.94
  -3 -14 -11    0.43   12.45
   3 -14  12   36.61   21.66
  -3 -14 -12   50.72   24.60
   3 -14  13   10.67   14.57
  -3 -14 -13   33.75   22.84
   3 -14  14   50.92   24.91
  -3 -14 -14   48.99   27.14
  -3 -15  15   -9.68   19.61
  -3 -15  14   -8.40   14.97
  -3 -15  13   -9.40   17.03
  -3 -15  12    9.42   18.16
  -3 -15  11   43.90   24.02
  -3 -15  10  137.28   33.22
  -3 -15   9  114.08   29.46
  -3 -15   8    2.09   12.00
  -3 -15   7   51.49   21.20
  -3 -15   6   19.81   15.85
   3 -15  -6   16.48   12.39
  -3 -15   5   72.22   20.31
   3 -15  -5   89.30   22.02
   3 -15  -4  265.74   36.85
  -3 -15   4  293.46   40.29
   3 -15  -3  314.18   39.40
  -3 -15   3  344.55   41.74
   3 -15  -2   32.08   10.77
  -3 -15   2   61.72   18.22
   3 -15  -1  207.54   32.00
  -3 -15   1  249.61   37.50
  -3 -15   1  223.02   32.40
   3 -15   0    6.33    9.08
  -3 -15   0   -7.05   10.26
  -3 -15   0   -6.40    8.38
   3 -15   0    1.83    3.32
   3 -15   1   50.51   16.48
  -3 -15  -1   52.70   19.69
   3 -15   1   40.68   10.42
  -3 -15  -1   33.49   14.62
   3 -15   2  129.36   19.13
  -3 -15  -2  110.50   25.45
  -3 -15  -3  305.03   43.37
   3 -15   3  327.02   32.00
  -3 -15  -4  312.37   45.49
   3 -15   4  289.69   32.20
  -3 -15  -5  274.48   44.08
   3 -15   5  316.18   35.32
   3 -15   6   12.90   11.44
  -3 -15  -6   13.01   15.50
   3 -15   7   -0.53    7.71
  -3 -15  -7   16.46   17.20
  -3 -15  -8   36.41   20.45
   3 -15   8   27.60   16.29
  -3 -15  -9  127.14   34.24
   3 -15   9  110.32   28.12
   3 -15  10  152.47   34.26
  -3 -15 -10  166.91   40.26
   3 -15  11  131.14   32.28
  -3 -15 -11  128.81   36.80
   3 -15  12   25.69   19.01
  -3 -15 -12  -16.55   21.28
   3 -15  13   52.17   22.44
  -3 -15 -13   10.32   16.68
   3 -15  14  -13.44   18.78
  -3 -15 -14  -19.57   17.48
  -3 -16  14   40.43   25.86
  -3 -16  13  -12.89   17.60
  -3 -16  12   18.22   17.33
  -3 -16  11   46.99   21.33
  -3 -16  10   44.46   24.65
  -3 -16   9   22.08   19.21
  -3 -16   8   44.02   19.08
  -3 -16   7    2.20   11.59
  -3 -16   6  191.60   35.75
   3 -16  -6  177.93   31.69
  -3 -16   5  181.68   33.49
   3 -16  -5  241.96   35.01
  -3 -16   4   82.42   23.85
   3 -16  -4   68.35   19.66
   3 -16  -3   -6.13    9.67
  -3 -16   3    3.67    8.40
   3 -16  -2    6.67    9.28
  -3 -16   2    8.27    9.34
   3 -16  -1   49.66   17.08
  -3 -16   1   33.24   15.38
   3 -16   0  289.78   39.84
  -3 -16   0  298.58   38.36
   3 -16   0  343.54   30.79
  -3 -16   0  315.74   44.80
   3 -16   1  229.22   34.92
  -3 -16  -1  170.89   33.30
   3 -16   1  207.98   24.74
  -3 -16  -1  185.02   30.13
   3 -16   2   76.72   15.78
   3 -16   2   55.00   18.40
  -3 -16  -2   53.70   21.16
  -3 -16  -3   63.99   21.32
   3 -16   3  102.43   18.48
  -3 -16  -4   55.67   22.19
   3 -16   4   29.81   13.09
  -3 -16  -5   55.94   22.62
   3 -16   5   44.65   14.15
   3 -16   6  114.46   23.56
  -3 -16  -6  128.43   34.54
   3 -16   7   83.45   22.57
  -3 -16  -7   46.88   22.35
  -3 -16  -8   93.47   29.57
   3 -16   8  149.70   31.10
  -3 -16  -9  105.81   31.53
   3 -16   9  134.20   32.35
  -3 -16 -10   24.20   18.64
   3 -16  10    4.63   11.83
   3 -16  11   27.91   17.60
  -3 -16 -11  -16.10   17.31
  -3 -16 -12    6.95   15.29
   3 -16  12   21.53   18.85
  -3 -16 -13   24.06   20.56
   3 -16  13   32.63   22.12
   3 -16  14   -4.95   15.99
  -3 -17  14   46.19   24.78
  -3 -17  13   45.00   25.02
  -3 -17  12   26.18   20.93
  -3 -17  11   59.36   23.98
  -3 -17  10   62.28   27.54
  -3 -17   9   68.72   25.41
  -3 -17   8   63.11   24.16
  -3 -17   7   22.19   15.58
  -3 -17   6   -4.63    8.82
   3 -17  -6   39.31   18.27
  -3 -17   5   95.00   25.35
   3 -17  -5  123.68   26.02
   3 -17  -4  162.48   29.69
  -3 -17   4  200.97   35.12
   3 -17  -3   48.25   16.52
  -3 -17   3   60.54   19.05
   3 -17  -2  179.83   31.03
  -3 -17   2  169.41   30.30
   3 -17  -1  244.02   35.97
  -3 -17   1  264.21   36.84
   3 -17   0   17.93   12.09
  -3 -17   0   27.20   15.33
  -3 -17   0    9.48    7.70
   3 -17   1   65.74   20.03
  -3 -17  -1   57.54   20.88
  -3 -17  -1   80.36   21.81
   3 -17   1   91.48   17.46
   3 -17   2   79.42   22.25
  -3 -17  -2   95.75   26.91
   3 -17   2  101.10   19.26
  -3 -17  -3   54.23   21.90
   3 -17   3   55.44   15.45
   3 -17   4  204.59   28.89
  -3 -17  -4  214.91   39.32
  -3 -17  -5  203.26   40.03
   3 -17   5  225.78   31.98
  -3 -17  -6    6.17   13.52
   3 -17   6   11.83   11.42
   3 -17   7   14.55   11.59
  -3 -17  -7    8.59   11.84
  -3 -17  -8   63.26   25.65
   3 -17   8   30.45   15.03
   3 -17   9   82.11   26.91
  -3 -17  -9   49.07   23.58
   3 -17  10   76.54   25.99
  -3 -17 -10   93.03   31.25
   3 -17  11   66.12   26.58
  -3 -17 -11   64.84   28.54
   3 -17  12   28.61   19.11
  -3 -17 -12   12.76   14.66
   3 -17  13   31.22   20.62
  -3 -17 -13   19.63   19.35
  -3 -18  13   41.23   23.24
  -3 -18  12   13.96   18.41
  -3 -18  11   23.32   21.53
  -3 -18  10   50.28   21.54
  -3 -18   9  -10.95   11.04
  -3 -18   8    3.99   12.81
  -3 -18   7   89.96   26.64
  -3 -18   6   82.55   26.38
  -3 -18   5   80.98   26.84
   3 -18  -5   96.08   24.60
   3 -18  -4   29.57   17.69
  -3 -18   4    4.92   11.84
   3 -18  -3   29.22   13.73
  -3 -18   3   11.12    8.57
   3 -18  -2   17.11    9.98
  -3 -18   2    5.12    9.43
   3 -18  -1  114.91   25.18
  -3 -18   1  121.40   26.20
   3 -18   0  148.84   28.28
  -3 -18   0  132.59   28.88
  -3 -18   0  155.30   29.82
   3 -18   1  244.80   38.39
  -3 -18  -1  236.48   40.38
  -3 -18  -1  207.84   34.13
   3 -18   2   19.14   18.49
  -3 -18  -2    9.46   12.29
   3 -18   3   31.82   12.12
   3 -18   3   38.01   16.91
  -3 -18  -3   29.61   19.00
  -3 -18  -4   37.80   21.00
   3 -18   4   39.48   12.56
  -3 -18  -5   51.86   24.16
   3 -18   5   17.10   11.42
  -3 -18  -6   45.48   22.02
   3 -18   6   53.89   18.24
   3 -18   7  196.31   33.86
  -3 -18  -7  161.85   38.85
   3 -18   8   19.66   14.42
  -3 -18  -8   35.53   20.47
   3 -18   9   27.95   17.40
  -3 -18  -9   11.91   16.85
   3 -18  10    9.55   10.69
  -3 -18 -10   51.00   29.10
   3 -18  11   29.12   18.04
  -3 -18 -11  -10.94   17.99
   3 -18  12   -6.10   15.26
  -3 -18 -12   35.43   25.63
  -3 -19  13   36.20   26.97
  -3 -19  12   61.01   31.14
  -3 -19  11  -12.89   18.63
  -3 -19  10   21.34   15.48
  -3 -19   9   49.60   23.67
  -3 -19   8  175.43   38.63
  -3 -19   7    5.99   12.71
  -3 -19   6    9.88   11.23
  -3 -19   5   31.83   18.46
   3 -19  -5   33.31   16.41
   3 -19  -4   58.34   19.72
  -3 -19   4   43.38   18.86
  -3 -19   3   31.37   17.05
   3 -19  -3   32.10   15.88
   3 -19  -2  263.01   37.98
  -3 -19   2  266.50   40.74
   3 -19  -1   59.81   19.46
  -3 -19   1   56.58   20.82
   3 -19   0    8.16   10.58
  -3 -19   0    4.21   12.04
  -3 -19   0    4.03    8.32
   3 -19   1    9.78   11.25
  -3 -19  -1   32.92   19.23
  -3 -19  -1   14.54   12.14
  -3 -19  -2  126.05   34.11
   3 -19   2   66.19   21.17
   3 -19   3    7.06    7.85
  -3 -19  -3   37.09   21.63
  -3 -19  -4  104.07   29.70
  -3 -19  -5   60.49   24.23
  -3 -19  -6   57.06   22.62
   3 -19   6   63.38   20.16
   3 -19   7  -11.70   12.92
  -3 -19  -7    2.78   13.08
   3 -19   8   78.03   23.02
  -3 -19  -8   43.93   21.58
  -3 -19  -9  -33.81   25.64
   3 -19   9    8.66   14.56
  -3 -19 -10   24.52   21.25
  -3 -19 -11   66.74   29.63
  -3 -20  12   17.94   20.10
  -3 -20  11   17.76   20.96
  -3 -20  10  -21.03   19.43
  -3 -20   9  -13.51   15.75
  -3 -20   8   13.25   18.79
  -3 -20   7   98.31   30.05
  -3 -20   6    0.28   12.71
   3 -20  -5   62.74   20.85
  -3 -20   5   76.29   25.29
   3 -20  -4   26.82   14.02
  -3 -20   4   23.07   16.01
   3 -20  -3   29.79   15.94
  -3 -20   3   20.49   15.59
   3 -20  -2   -6.10    8.54
  -3 -20   2  -10.05   11.25
   3 -20  -1  121.78   26.36
  -3 -20   1  158.69   32.16
   3 -20   0   26.46   15.02
  -3 -20   0  -15.52   12.51
  -3 -20   0   10.04   14.27
   3 -20   1  204.12   35.48
  -3 -20  -1  236.08   43.17
  -3 -20  -1  257.75   40.50
   3 -20   2   41.42   17.92
  -3 -20  -2   45.23   22.71
   3 -20   3   38.29   17.21
  -3 -20  -3    5.34   13.82
   3 -20   4    7.85    8.98
  -3 -20  -4    3.09   13.62
  -3 -20  -5   51.77   23.81
  -3 -20  -6   -4.82   14.01
  -3 -20  -7  216.18   46.31
  -3 -20  -8   38.86   25.02
  -3 -20  -9   -6.05   12.67
  -3 -20 -10   35.87   19.75
  -3 -20 -11   13.64   20.34
  -3 -21  11   45.69   25.62
  -3 -21  10    8.06   13.07
  -3 -21   9  -42.09   25.49
  -3 -21   8  118.70   35.40
  -3 -21   7    6.00   14.56
  -3 -21   6   34.61   20.60
  -3 -21   5   -7.30   14.86
   3 -21  -4   39.00   15.35
  -3 -21   4   64.73   21.21
   3 -21  -3   42.16   18.26
  -3 -21   3   26.84   16.87
   3 -21  -2  181.78   31.34
  -3 -21   2  172.37   33.55
   3 -21  -1    0.31    8.61
  -3 -21   1    7.45   14.20
  -3 -21   1    6.49   12.02
   3 -21   0   10.80   10.63
  -3 -21   0   22.69   16.45
  -3 -21   0  -11.84   14.18
   3 -21   1    8.58   11.71
  -3 -21  -1   30.22   19.83
  -3 -21  -1   21.08   14.73
   3 -21   2   33.08   16.02
  -3 -21  -2   67.09   25.70
  -3 -21  -3   44.93   23.95
   3 -21   3   30.27   16.86
  -3 -21  -4   83.06   28.19
   3 -21   4  124.92   32.45
  -3 -21  -5    2.26   17.81
   3 -21   5   -9.92   14.73
  -3 -21  -6   84.10   29.56
  -3 -21  -7   -4.24   13.59
  -3 -21  -8    9.40   15.11
  -3 -21  -9   10.34   16.05
  -3 -21 -10   16.95   17.24
  -3 -22  10   15.04   20.80
  -3 -22   9    5.58   17.57
  -3 -22   8    0.06   13.63
  -3 -22   7   65.58   23.82
  -3 -22   6   11.66   15.65
  -3 -22   5   56.07   24.00
  -3 -22   4   -8.24   10.65
   3 -22  -4   26.88   17.33
   3 -22  -3   22.51   14.19
  -3 -22   3  -10.08   13.52
   3 -22  -2   13.12   12.39
  -3 -22   2   16.37   16.83
  -3 -22   1  103.98   33.68
  -3 -22   1   60.87   23.31
  -3 -22   0   34.36   22.46
  -3 -22   0   29.15   17.75
  -3 -22  -1  113.41   32.04
  -3 -22  -1  109.30   27.05
  -3 -22  -2   23.43   19.52
  -3 -22  -3   30.90   21.66
  -3 -22  -4   -0.44   12.76
  -3 -22  -5   19.14   18.17
  -3 -22  -6   -7.44   18.35
  -3 -22  -7   86.69   30.42
  -3 -22  -8   30.03   19.10
  -3 -22  -9   42.00   24.76
  -3 -23   9    0.19   12.32
  -3 -23   8   40.44   23.56
  -3 -23   7   12.66   11.38
  -3 -23   6   16.04   15.59
  -3 -23   5    5.56   13.83
  -3 -23   4   79.51   27.77
  -3 -23   3   15.78   17.86
  -3 -23   2   76.73   24.43
  -3 -23   1   -9.67   15.90
  -3 -23   1   31.40   17.27
  -3 -23   0   32.52   20.75
  -3 -23   0   16.60   14.10
  -3 -23  -1   14.78   15.76
  -3 -23  -2  353.45   67.66
  -3 -23  -3  -22.86   19.19
  -3 -23  -4   58.03   26.77
  -3 -23  -5   13.59   14.16
  -3 -23  -6   32.46   23.87
  -3 -23  -7    4.52   13.06
  -3 -23  -8   -5.86   11.93
  -3 -24   8   22.64   22.13
  -3 -24   7   30.50   21.83
  -3 -24   6    8.34   14.24
  -3 -24   5   96.87   32.59
  -3 -24   4   17.20   16.37
  -3 -24   3  -14.60   17.08
  -3 -24   2   -8.68   11.93
  -3 -24   1   45.86   21.53
  -3 -24   1   19.86   18.34
  -3 -24   0   13.08   14.14
  -3 -24   0    7.04   13.71
  -3 -24  -1   84.28   29.22
  -3 -24  -2  -16.79   17.78
  -3 -24  -3   20.69   15.21
  -3 -24  -4   10.55   12.83
  -3 -24  -5   42.64   26.40
  -3 -24  -6   -5.92   16.94
  -3 -24  -7   43.37   25.54
  -3 -25   6   17.98   20.29
  -3 -25   5   45.59   25.31
  -3 -25   4   41.13   22.61
  -3 -25   3   24.28   19.41
  -3 -25   2   21.27   16.60
  -3 -25   2   21.02   16.45
  -3 -25   1   10.68   17.50
  -3 -25   1   -1.62   12.74
  -3 -25   0   28.46   20.92
  -3 -25   0   16.59   14.98
  -3 -25  -1   15.51   19.83
  -3 -25  -2   -2.10   14.87
  -3 -25  -3   34.19   22.31
  -3 -25  -4   53.41   24.80
  -3 -25  -5   -6.75   13.81
  -3 -26   4   42.25   23.23
  -3 -26   3   15.78   14.39
  -3 -26   2   18.07   16.69
  -3 -26   2   14.13   13.52
  -3 -26   1   48.03   24.47
  -3 -26   1    8.34   10.13
  -3 -26   0   50.97   27.57
  -3 -26   0   25.63   17.53
  -3 -26  -1   97.80   35.95
  -3 -26  -2   21.16   20.03
  -3 -26  -3    2.14   14.17
   4   0 -17    9.88   14.56
   4   0 -16   13.98   15.83
   4   0 -15   36.70   20.40
   4   0 -14  116.29   30.25
   4   0 -13   -5.92   11.54
   4   0 -12   94.46   24.51
   4   0 -11    4.33   11.86
   4   0 -10   60.26   20.42
   4   0  -9  -17.57   12.42
   4   0  -8  294.19   38.09
   4   0  -7   14.62   12.86
   4   0  -7  -15.65    9.67
   4   0  -6  998.52   70.01
   4   0  -6  942.89   64.48
   4   0  -5   -5.37    9.33
   4   0  -5  -10.86    8.64
   4   0  -4  103.88   22.47
   4   0  -4   92.67   18.98
   4   0  -3    5.08    6.04
  -4   0   3    2.33    2.92
   4   0  -3    1.45    6.89
   4   0  -2   69.73   17.81
  -4   0   2   56.76   11.94
   4   0  -2   63.54   15.46
   4   0  -1   11.18   11.59
   4   0  -1    1.07    6.80
  -4   0   1   -4.04    6.59
  -4   0   0 2433.22  104.01
  -4   0  -1   -2.44    7.21
  -4   0  -2  370.67   41.63
  -4   0  -3   -6.14   10.13
  -4   0  -4   15.73   11.47
  -4   0  -5  -16.18   13.10
  -4   0  -6 1176.67   89.53
  -4   0  -7   -7.24   15.34
  -4   0  -8  573.11   66.10
  -4   0  -9   -7.62   12.82
  -4   0 -10   13.69   13.38
  -4   0 -11    3.90   15.30
  -4   0 -12   51.07   23.07
  -4   0 -13  -50.55   25.20
  -4   0 -14  158.29   39.45
  -4   0 -15   18.45   21.12
   4   1 -17   43.93   19.94
   4  -1 -17   35.11   18.39
   4   1 -16   12.49   12.63
   4  -1 -16   -3.85   13.50
   4   1 -15  154.34   36.78
   4  -1 -15  101.45   29.01
   4   1 -14    1.45   12.52
   4  -1 -14   23.34   17.82
   4  -1 -13   41.06   19.17
   4   1 -13   10.23   12.80
   4   1 -12  -10.14   13.00
   4  -1 -12   -4.81   10.19
   4   1 -11   11.46   12.86
   4  -1 -11   10.41    8.50
   4   1 -10  -19.16   13.33
   4  -1 -10    4.66    9.88
   4   1  -9  448.06   48.20
   4  -1  -9  434.06   47.79
   4  -1  -8   62.95   20.86
   4   1  -8   35.14   14.99
   4  -1  -8   35.91   15.62
   4   1  -7  530.76   51.17
  -4  -1   7  472.83   33.80
   4   1  -7  427.94   44.43
   4  -1  -7  472.48   46.65
  -4  -1   6   54.31    9.99
   4  -1  -6   61.62   17.82
   4  -1  -6   98.97   23.70
   4   1  -6   63.20   18.33
   4   1  -6   38.53   12.98
   4  -1  -5   20.32   12.07
   4   1  -5   -1.60   10.31
  -4  -1   5   21.21    5.46
   4   1  -5   11.84   10.27
   4  -1  -5   29.19   12.96
   4  -1  -4    1.77    6.59
  -4  -1   4    6.24    3.42
  -4  -1   4    3.76    2.36
   4   1  -4   -1.91    6.83
   4  -1  -4    0.08    7.03
   4  -1  -3  528.38   49.38
   4   1  -3  573.20   50.50
  -4   1   3  477.25   25.92
  -4  -1   3  480.22   31.53
   4   1  -3  504.19   42.25
   4  -1  -3  508.30   43.30
   4  -1  -2   90.59   19.40
   4  -1  -2  117.46   22.92
   4   1  -2   74.03   18.72
  -4   1   2   90.87   13.37
  -4  -1   2   99.70   16.15
   4   1  -2  115.69   19.99
   4  -1  -1 1831.17   97.77
   4   1  -1 1787.08   95.40
  -4   1   1 1795.22   78.02
  -4  -1   1 1771.24   82.49
   4   1  -1 1862.77   83.14
  -4   1   0    4.56    7.26
  -4  -1   0   -3.45    7.01
  -4   1  -1   -3.22    7.41
  -4  -1  -1    2.13    7.44
  -4   1  -2   59.06   16.65
  -4  -1  -2   41.55   14.73
  -4   1  -3  183.48   30.96
  -4  -1  -3  249.88   36.24
  -4   1  -4   -4.28    8.98
  -4  -1  -4   -2.13   10.14
  -4   1  -5 1244.85   89.12
  -4  -1  -5 1199.20   86.69
  -4   1  -6   20.08   15.74
  -4  -1  -6   16.62   10.25
  -4   1  -7   72.70   24.44
  -4  -1  -7   64.97   23.75
  -4   1  -8    3.23   10.97
  -4  -1  -8   31.33   18.27
  -4   1  -9   61.37   23.14
  -4  -1  -9   79.49   25.54
  -4   1 -10   16.38   16.90
  -4  -1 -10   -4.72   12.35
  -4   1 -11  238.65   42.88
  -4  -1 -11  187.02   42.11
  -4   1 -12   -3.23   14.47
  -4  -1 -12   55.01   24.40
  -4   1 -13   67.43   28.28
  -4  -1 -13   59.99   26.62
  -4   1 -14   29.39   23.81
  -4  -1 -14   33.18   21.90
   4  -1  15    5.12   14.76
  -4   1 -15   37.29   24.38
  -4  -1 -15    2.99   16.30
   4  -2 -17   -2.91   12.98
   4   2 -17  -25.98   19.07
   4  -2 -16    9.27   11.61
   4   2 -16  -23.99   15.61
   4   2 -15    4.55   11.33
   4  -2 -15   48.62   23.83
   4   2 -14   88.12   26.41
   4  -2 -14   68.04   22.59
   4   2 -13   62.86   24.27
   4  -2 -13   13.99   15.14
   4  -2 -12  124.75   28.48
   4   2 -12  175.56   34.67
   4   2 -11   19.27   12.33
   4  -2 -11   25.73   25.09
   4   2 -10   35.19   16.61
   4  -2 -10   33.63   14.02
  -4  -2   9   74.56   17.96
   4   2  -9   60.40   19.99
   4  -2  -9   86.12   22.35
   4  -2  -8  298.39   40.61
  -4  -2   8  240.31   28.17
   4   2  -8  244.82   35.97
   4  -2  -8  220.72   33.46
   4  -2  -7  146.52   29.51
   4   2  -7  151.66   27.52
  -4  -2   7  104.76   17.01
   4   2  -7   82.60   19.91
   4  -2  -7  166.91   28.73
   4  -2  -6  952.18   69.41
   4   2  -6  891.64   64.49
  -4  -2   6  811.68   43.45
   4   2  -6  794.03   59.57
   4  -2  -6  782.47   58.33
   4  -2  -5   -1.45    7.05
   4   2  -5   -2.68    7.88
   4   2  -5    3.76    7.76
  -4  -2   5    5.86    3.47
   4  -2  -5   -2.46    6.44
   4  -2  -4  192.89   27.40
   4  -2  -4  209.37   31.83
   4   2  -4  196.97   29.42
  -4  -2   4  210.23   17.27
  -4  -2   4  193.61   17.82
   4   2  -4  173.80   25.34
   4  -2  -3  184.16   27.17
   4  -2  -3  184.65   29.76
   4   2  -3  226.15   30.63
  -4  -2   3  163.23   18.85
   4   2  -3  182.53   25.02
   4  -2  -2  173.85   29.39
   4   2  -2  176.47   27.24
  -4   2   2  149.36   16.67
  -4  -2   2  150.13   20.13
   4   2  -2  157.35   22.65
   4  -2  -1   25.30   14.57
   4   2  -1   32.07   14.82
  -4   2   1   14.61    6.32
  -4  -2   1   33.68   10.44
   4   2  -1   56.45   15.11
  -4   2   0 1533.45   74.52
  -4  -2   0 1643.59   82.90
   4   2   0 1573.26   74.14
  -4   2  -1   79.13   18.31
  -4  -2  -1  104.62   21.87
  -4   2  -2  539.80   49.77
  -4  -2  -2  487.14   48.26
  -4   2  -3    9.68    8.49
  -4  -2  -3   39.09   15.71
  -4   2  -4    6.41   10.07
  -4  -2  -4    6.76    9.96
  -4   2  -5   37.28   18.44
  -4  -2  -5   33.62   15.45
  -4   2  -6  703.52   67.39
  -4  -2  -6  622.12   63.37
  -4   2  -7  135.59   31.23
  -4  -2  -7  160.56   33.05
  -4   2  -8  449.61   55.99
  -4  -2  -8  401.09   55.36
  -4   2  -9   17.77   17.25
  -4  -2  -9   12.30    9.97
  -4   2 -10   23.51   14.07
  -4  -2 -10   17.51   12.42
  -4   2 -11    1.73   11.46
  -4  -2 -11   -5.74   15.17
  -4   2 -12   69.26   26.52
  -4  -2 -12   76.88   28.54
  -4   2 -13   -3.82   16.48
  -4  -2 -13   -0.39   16.98
   4  -2  14   90.11   31.23
  -4   2 -14   87.50   32.39
  -4  -2 -14  118.35   33.04
  -4   2 -15    9.25   18.97
  -4  -2 -15  -16.31   19.04
   4  -2  15    0.53   12.43
   4  -3 -16    1.71   10.13
   4   3 -16   13.36   14.45
   4  -3 -15   55.29   19.98
   4   3 -15   57.17   23.78
   4  -3 -14    0.28   10.38
   4   3 -14   14.40   17.15
   4   3 -13    6.44   15.04
   4  -3 -13   41.36   19.22
   4   3 -12   39.99   19.34
   4  -3 -12   15.17   15.12
   4   3 -11   -3.47   10.66
   4  -3 -11   77.80   23.03
   4   3 -10  -13.41   17.24
  -4  -3  10   20.75   11.92
   4  -3 -10   19.72   15.92
   4  -3  -9  338.34   41.71
  -4  -3   9  280.86   34.34
   4   3  -9  274.91   40.73
   4   3  -8  139.53   27.64
   4  -3  -8  211.13   34.77
  -4  -3   8  143.32   22.12
   4  -3  -8  173.86   29.55
   4  -3  -7  334.89   41.88
   4   3  -7  332.19   40.21
  -4  -3   7  277.97   29.01
   4   3  -7  274.57   37.56
   4  -3  -7  335.54   39.62
   4  -3  -6  130.17   25.31
  -4  -3   6  102.06   16.09
   4  -3  -6   97.59   23.90
   4   3  -6  146.37   26.08
   4   3  -6  107.63   22.04
  -4  -3   5   14.62    6.66
   4  -3  -5    1.53    9.55
   4   3  -5   -2.64    8.06
   4  -3  -5    4.98    7.16
   4   3  -5   10.53    9.17
   4  -3  -4   59.66   17.84
   4   3  -4   73.13   17.86
  -4  -3   4   67.03   11.39
  -4  -3   4   78.26   11.78
   4   3  -4   36.62   12.67
   4  -3  -3  781.99   62.97
   4   3  -3  846.42   60.58
  -4  -3   3  768.14   37.44
  -4  -3   3  735.71   44.27
   4   3  -3  745.01   51.62
   4  -3  -2  387.96   43.25
   4   3  -2  379.48   40.20
  -4  -3   2  314.44   31.02
   4   3  -2  319.58   32.87
   4  -3  -1  687.40   58.81
   4   3  -1  646.48   52.92
  -4   3   1  608.06   39.07
  -4  -3   1  632.55   46.99
   4   3  -1  613.60   44.47
  -4   3   0   -4.12    7.67
  -4  -3   0    1.40    4.71
   4   3   0   17.07   10.17
   4   3   1   96.16   16.99
  -4   3  -1  102.46   18.85
  -4  -3  -1  118.76   22.16
   4  -3   2  222.72   16.55
  -4   3  -2  183.85   26.43
  -4  -3  -2  214.45   31.67
  -4   3  -3  658.39   55.23
  -4  -3  -3  692.36   59.50
   4  -3   3  648.01   38.97
  -4   3  -4  173.75   31.15
  -4  -3  -4  123.01   27.51
  -4   3  -5  755.41   66.03
  -4  -3  -5  707.42   64.95
  -4   3  -6  140.62   29.49
  -4  -3  -6  148.00   30.27
  -4   3  -7  120.28   29.36
  -4  -3  -7   75.86   24.41
  -4   3  -8  102.36   26.72
  -4  -3  -8   43.06   16.61
  -4   3  -9   95.67   26.27
  -4  -3  -9   95.73   29.33
  -4   3 -10   42.36   20.47
  -4  -3 -10   33.28   20.04
  -4   3 -11  248.24   45.29
  -4  -3 -11  200.18   43.19
   4  -3  12   22.16   15.56
  -4   3 -12   68.53   26.96
  -4  -3 -12   46.64   24.06
   4  -3  13   43.61   20.76
  -4   3 -13   58.90   25.65
  -4  -3 -13   52.90   27.24
   4  -3  14   -1.45   12.90
  -4  -3 -14   -2.03   14.13
  -4   3 -15  -16.17   17.10
  -4  -3 -15   21.86   18.82
   4  -3  15   21.17   19.08
   4   4 -16    9.12   14.78
   4   4 -15   10.44   12.08
   4  -4 -14   -3.20   12.69
   4   4 -14   31.15   21.72
   4  -4 -13   50.42   19.14
   4   4 -13   50.22   22.03
   4  -4 -12  152.04   31.57
   4   4 -12  150.61   34.07
   4  -4 -11   63.82   22.91
  -4  -4  11   53.93   20.28
   4   4 -11   30.68   17.61
   4  -4 -10   26.44   15.04
   4   4 -10   13.48   11.63
  -4  -4  10   14.16    9.93
   4  -4  -9   96.56   24.72
  -4  -4   9   59.88   17.35
   4  -4  -8  127.64   24.82
   4  -4  -8  122.52   27.58
  -4  -4   8  115.28   21.39
   4   4  -8   93.40   23.64
   4  -4  -7  122.10   24.23
   4  -4  -7  136.81   27.62
  -4  -4   7  154.36   22.71
   4   4  -7  143.75   25.82
   4  -4  -6  593.33   55.58
   4   4  -6  607.98   51.58
  -4  -4   6  543.16   39.29
   4   4  -6  494.40   48.25
   4  -4  -6  473.36   45.47
   4  -4  -5  133.38   26.42
   4   4  -5  193.81   27.95
  -4  -4   5  152.92   19.63
  -4  -4   5  129.99   15.43
   4   4  -5  105.55   22.17
   4  -4  -4  440.71   46.60
   4   4  -4  450.97   43.00
  -4  -4   4  460.74   31.71
  -4  -4   4  365.10   29.39
   4   4  -4  386.06   38.80
   4  -4  -3  287.36   38.75
   4   4  -3  302.20   35.30
  -4  -4   3  291.25   23.73
   4   4  -3  286.97   31.66
  -4  -4   3  273.26   27.43
   4  -4  -2  351.08   42.65
   4   4  -2  305.97   35.78
  -4  -4   2  303.22   30.90
   4   4  -2  332.16   32.49
   4  -4  -1   53.78   17.35
   4   4  -1   41.58   13.71
  -4  -4   1   39.96   12.26
   4   4  -1   43.52   13.25
  -4   4   0  386.45   34.15
  -4  -4   0  450.33   42.51
   4   4   0  368.54   33.50
  -4   4  -1  311.15   33.50
  -4  -4  -1  331.50   38.03
   4   4   1  360.85   32.18
  -4   4  -2  892.87   61.97
  -4  -4  -2 1041.73   71.15
  -4   4  -3  126.09   24.01
   4  -4   3  134.82   15.78
  -4  -4  -3  133.06   27.35
   4  -4   4   23.09    7.61
  -4   4  -4   33.79   14.01
  -4  -4  -4   33.84   15.67
   4  -4   5   13.46    8.70
  -4   4  -5   20.99   13.87
  -4  -4  -5    3.40    9.56
  -4   4  -6  255.76   39.56
  -4  -4  -6  211.71   37.80
   4  -4   6  215.73   29.89
  -4   4  -7  208.29   36.67
  -4  -4  -7  206.44   38.82
   4  -4   7  177.15   28.90
  -4   4  -8  399.08   52.72
   4  -4   8  373.11   44.21
  -4  -4  -8  305.73   47.32
  -4   4  -9   43.39   22.03
  -4  -4  -9   57.37   23.70
   4  -4   9   20.73   12.90
   4  -4  10   15.07   12.02
  -4   4 -10   28.03   19.44
  -4  -4 -10   -3.29   17.17
  -4   4 -11   29.38   18.63
  -4  -4 -11   -2.62   16.06
   4  -4  11  -17.21   16.41
   4  -4  12   80.65   27.50
  -4   4 -12   52.38   24.72
  -4  -4 -12   61.35   26.26
  -4   4 -13   24.20   20.41
  -4  -4 -13   13.13   22.04
   4  -4  13   12.27   14.17
  -4   4 -14   42.10   23.44
   4  -4  14   45.95   23.14
  -4  -4 -14  103.43   34.84
   4  -4  15    9.22   15.33
  -4   4 -15   37.28   24.36
  -4  -4 -15   -2.71   15.46
   4   5 -16   32.78   20.21
   4   5 -15   16.99   17.36
   4   5 -14   65.63   27.03
   4   5 -13   63.55   25.44
  -4  -5  12   12.89   10.07
   4   5 -12   28.75   20.17
  -4  -5  11   36.07   14.86
   4   5 -11   29.02   17.67
   4  -5 -10  173.26   30.45
  -4  -5  10  119.05   25.74
   4   5 -10  100.89   27.76
  -4  -5   9  128.49   24.51
   4   5  -9  113.64   27.63
   4  -5  -8  122.65   27.55
  -4  -5   8  101.00   20.59
   4   5  -8   78.97   23.10
   4  -5  -7  130.81   28.74
  -4  -5   7  120.18   21.04
   4   5  -7   84.83   22.73
  -4  -5   6   15.54    7.71
   4  -5  -6   50.38   18.50
   4   5  -6   28.35   13.45
   4   5  -6   21.96   10.60
  -4  -5   5    7.86    6.77
   4  -5  -5    9.03   11.65
   4   5  -5   -1.12    8.52
   4   5  -5   -2.68    8.75
  -4  -5   5    4.34    3.80
   4  -5  -4  453.38   47.38
   4   5  -4  417.75   39.96
  -4  -5   4  384.98   31.49
  -4  -5   4  358.71   30.59
   4   5  -4  313.24   35.66
   4  -5  -3  838.63   65.81
   4   5  -3  828.53   57.62
  -4  -5   3  772.87   43.87
  -4  -5   3  711.88   47.19
   4   5  -3  728.81   52.19
   4  -5  -2  386.33   44.70
  -4  -5   2  306.34   26.48
   4   5  -2  356.92   37.62
  -4  -5   2  342.99   33.89
   4   5  -2  296.66   32.11
   4  -5  -1  145.40   27.54
   4   5  -1  145.17   24.35
  -4  -5   1  161.60   24.82
   4   5  -1  154.37   21.87
  -4  -5   0   10.57    8.57
   4   5   0    3.45    6.34
  -4   5  -1  198.21   27.04
  -4  -5  -1  175.49   27.61
   4   5   1  183.25   22.61
  -4   5  -2  416.40   42.22
  -4  -5  -2  457.27   46.66
   4   5   2  450.91   35.60
  -4   5  -3  770.03   61.34
  -4  -5  -3  908.25   69.30
  -4   5  -4  515.00   52.05
  -4  -5  -4  541.59   56.22
   4  -5   4  574.89   38.67
  -4   5  -5  246.19   38.07
   4  -5   5  252.18   29.08
  -4  -5  -5  203.91   35.11
   4  -5   6   33.06   12.06
  -4   5  -6   68.55   22.42
  -4  -5  -6   27.78   12.35
  -4   5  -7  113.05   28.01
   4  -5   7  127.84   24.31
  -4  -5  -7   72.73   19.24
  -4   5  -8   90.56   25.67
   4  -5   8   67.78   20.87
  -4  -5  -8   57.23   22.61
  -4   5  -9   89.25   26.94
  -4  -5  -9   68.39   26.61
   4  -5   9   73.61   21.68
  -4   5 -10  142.65   35.44
  -4  -5 -10  160.31   37.24
   4  -5  10  166.84   34.08
  -4   5 -11  166.64   36.90
   4  -5  11  179.49   36.45
  -4  -5 -11  178.62   39.44
   4  -5  12   20.61   15.35
  -4   5 -12   93.51   29.57
  -4  -5 -12   51.10   27.10
   4  -5  13   17.93   15.46
  -4   5 -13   29.30   23.49
  -4  -5 -13    5.84   19.76
   4  -5  14   -4.45   11.14
  -4   5 -14   13.07   13.20
   4  -5  15  -26.74   20.82
   4   6 -16   34.59   24.19
   4   6 -15   -0.06   15.22
   4   6 -14   10.93   12.95
   4   6 -13   53.23   23.53
  -4  -6  12   76.78   23.29
   4   6 -12  152.01   37.07
   4   6 -11  209.04   41.58
  -4  -6  11  128.74   27.96
  -4  -6  10   15.36   11.98
   4   6 -10   17.81   13.47
  -4  -6   9   11.32    7.36
   4   6  -9   15.76   16.34
   4  -6  -8   86.31   24.37
  -4  -6   8   52.30   16.36
   4   6  -8   67.67   21.62
   4  -6  -7   61.37   21.62
  -4  -6   7   35.55   12.10
   4   6  -7   28.35   10.86
   4   6  -6  308.26   35.69
   4  -6  -6  247.83   36.36
  -4  -6   6  215.21   27.29
   4   6  -6  212.64   33.35
   4  -6  -5  757.00   64.18
   4   6  -5  856.46   57.41
   4   6  -5  653.67   56.41
  -4  -6   5  788.93   51.18
  -4  -6   5  654.56   42.92
   4   6  -4  310.36   33.41
   4  -6  -4  302.66   39.33
  -4  -6   4  287.35   28.65
  -4  -6   4  244.59   26.95
   4   6  -4  275.25   34.13
   4  -6  -3   82.11   22.16
   4   6  -3   79.22   17.44
  -4  -6   3   85.58   15.04
   4   6  -3   79.92   18.78
  -4  -6   3   68.97   14.95
   4   6  -2  115.84   19.86
   4  -6  -2  140.12   27.99
   4   6  -2  132.51   22.22
  -4  -6   2  113.23   17.27
  -4  -6   2  114.34   20.45
   4  -6  -1    8.17    9.02
   4   6  -1   15.70    7.89
  -4  -6   1   22.30    8.90
   4   6  -1   15.83    8.27
   4   6   0   99.24   19.73
  -4  -6   0  132.09   23.44
   4   6   0  127.26   18.73
  -4  -6  -1  538.09   49.95
   4   6   1  522.84   38.98
   4   6   2  631.28   41.92
  -4   6  -2  511.65   46.67
  -4  -6  -2  579.69   54.30
  -4   6  -3  373.61   42.33
  -4  -6  -3  445.79   49.07
  -4   6  -4   17.75   10.96
   4  -6   4   38.51    9.82
  -4  -6  -4   23.35   13.16
   4  -6   5   29.46   10.21
  -4   6  -5   39.56   15.77
  -4  -6  -5   25.58   18.33
   4  -6   6   86.51   18.78
  -4   6  -6   90.14   24.19
  -4  -6  -6   57.92   19.60
  -4   6  -7  153.30   33.93
   4  -6   7  127.63   24.80
  -4  -6  -7   96.12   26.93
  -4   6  -8  177.92   36.26
  -4  -6  -8  154.20   34.18
   4  -6   8  194.63   32.45
  -4   6  -9  172.43   37.49
  -4  -6  -9  167.01   38.28
   4  -6   9  224.10   36.63
  -4   6 -10   34.47   20.49
  -4  -6 -10    1.68   14.37
   4  -6  10   21.26   14.40
  -4   6 -11  -11.40   17.02
  -4  -6 -11   27.32   20.79
   4  -6  11   12.12   12.52
  -4   6 -12   48.98   23.97
  -4  -6 -12   27.44   21.73
   4  -6  12   -4.95   13.00
  -4   6 -13   75.86   29.92
  -4  -6 -13   53.17   27.47
   4  -6  13   80.36   27.84
   4  -6  14   34.47   19.77
  -4  -6 -14    9.43   19.31
   4  -6  15   35.97   18.34
   4   7 -16   38.08   21.04
   4   7 -15    7.10   18.22
   4   7 -14   28.34   23.09
  -4  -7  13   -8.84   11.06
   4   7 -13   28.66   22.74
  -4  -7  12   -6.41   10.96
   4   7 -12   13.89   16.98
  -4  -7  11   54.23   21.62
   4   7 -11   24.07   19.84
  -4  -7  10  267.45   39.15
   4   7 -10  254.06   48.27
  -4  -7   9   78.63   21.56
   4   7  -9   82.74   25.85
   4  -7  -8  103.38   26.48
  -4  -7   8   40.37   14.59
   4   7  -8   57.26   21.63
   4  -7  -7   27.58   14.87
  -4  -7   7   40.98   13.50
   4   7  -7   16.76   11.33
  -4  -7   6   11.52    7.85
   4  -7  -6    0.78   12.02
   4   7  -6    3.45    9.32
  -4  -7   5   30.01   10.60
  -4  -7   5   27.56   11.53
   4  -7  -5   37.63   16.84
   4   7  -5   35.73   12.65
   4   7  -5    5.81    7.98
   4  -7  -4  742.63   63.52
   4   7  -4  829.66   55.02
  -4  -7   4  731.76   49.34
  -4  -7   4  681.44   48.73
   4   7  -4  703.19   57.89
   4   7  -3  335.23   34.21
   4  -7  -3  289.33   39.40
  -4  -7   3  316.50   30.41
  -4  -7   3  322.74   34.18
   4   7  -3  299.04   34.25
   4  -7  -2  366.91   43.89
   4   7  -2  427.36   38.90
  -4  -7   2  353.54   32.19
  -4  -7   2  372.38   37.88
   4   7  -2  307.13   32.85
   4  -7  -1  123.83   25.13
   4   7  -1  125.55   21.21
   4   7  -1   91.83   17.47
  -4  -7   1  104.76   20.75
   4   7   0   31.51   11.38
  -4  -7   0   40.45   15.25
   4   7   0   37.28   11.84
  -4  -7  -1    6.01    8.28
   4   7   1    5.23    7.61
  -4  -7  -2  384.06   44.39
   4   7   2  392.58   33.21
   4   7   3  261.82   25.72
  -4  -7  -3  246.48   37.15
  -4   7  -4  839.34   68.92
  -4  -7  -4  873.92   72.88
  -4   7  -5  236.51   38.18
   4  -7   5  225.64   27.00
  -4  -7  -5  262.85   41.91
  -4   7  -6   46.73   21.40
  -4  -7  -6   38.37   18.89
   4  -7   6   32.65   11.97
   4  -7   7   38.69   14.12
  -4   7  -7    9.18   14.23
  -4  -7  -7   29.57   15.29
   4  -7   8   19.63   12.77
  -4   7  -8   41.98   21.06
  -4  -7  -8   -0.45   14.10
   4  -7   9   54.99   19.34
  -4   7  -9   79.90   27.42
  -4  -7  -9   78.21   25.71
  -4   7 -10  346.80   52.41
   4  -7  10  388.88   49.71
  -4  -7 -10  278.16   49.86
  -4   7 -11   54.72   25.19
   4  -7  11   80.49   24.62
  -4  -7 -11    7.12   12.27
   4  -7  12   21.02   15.20
  -4  -7 -12   31.25   21.63
   4  -7  13  -12.37   14.12
  -4  -7 -13   14.08   18.60
   4  -7  14   35.73   21.51
  -4  -7 -14    0.60   13.75
   4   8 -15    1.55   14.23
   4   8 -14   51.08   28.98
  -4  -8  13   27.92   13.76
   4   8 -13   49.46   27.28
  -4  -8  12   22.73   14.31
   4   8 -12  -24.61   17.11
  -4  -8  11  133.04   30.13
   4   8 -11  253.26   50.87
  -4  -8  10   40.91   18.19
   4   8 -10   23.71   17.33
  -4  -8   9   10.92   11.14
   4   8  -9   -9.88   18.30
   4  -8  -8   21.68   14.56
  -4  -8   8   12.33   10.05
   4   8  -8   -2.36   12.49
  -4  -8   7   39.13   13.50
   4  -8  -7   43.98   16.26
   4   8  -7    5.24   12.80
  -4  -8   6   79.97   16.31
   4   8  -6   81.08   21.37
  -4  -8   6  113.60   21.92
   4  -8  -6   90.95   24.46
   4  -8  -5  776.77   64.55
   4   8  -5  843.20   55.13
  -4  -8   5  765.30   54.96
  -4  -8   5  655.83   49.35
   4   8  -5  659.21   61.98
  -4  -8   4   67.82   15.95
   4  -8  -4   44.41   16.80
   4   8  -4   62.96   14.94
   4   8  -4   60.48   18.01
  -4  -8   4   74.60   17.02
  -4  -8   3   86.49   19.31
   4  -8  -3   91.79   22.36
   4   8  -3   90.69   17.46
  -4  -8   3   83.37   16.80
   4   8  -3   95.41   21.00
  -4  -8   2   34.14   13.37
   4  -8  -2   11.61   11.09
   4   8  -2   21.53    7.56
  -4  -8   2   24.65    9.55
   4   8  -2   26.42   10.27
   4  -8  -1   45.93   16.41
   4   8  -1   53.98   14.21
  -4  -8   1   59.21   14.03
   4   8  -1   46.39   13.26
  -4  -8   1   59.64   17.34
   4  -8   0  167.93   30.48
   4   8   0  133.48   22.25
   4   8   0  139.71   20.47
  -4  -8   0  161.35   27.75
  -4  -8  -1  717.40   59.83
   4   8   1  739.51   46.96
  -4  -8  -2   53.41   16.87
   4   8   2   49.94   12.33
  -4  -8  -3  452.74   51.50
   4   8   3  527.22   36.58
  -4  -8  -4   43.07   20.26
  -4  -8  -5   74.51   22.85
   4  -8   6   30.90   13.15
  -4  -8  -6   55.28   22.87
   4  -8   7  257.21   34.81
  -4  -8  -7  203.19   39.72
  -4  -8  -8   39.92   18.74
   4  -8   8   49.42   17.35
   4  -8   9  318.26   43.57
  -4  -8  -9  274.17   48.77
   4  -8  10   18.92   13.89
  -4  -8 -10  -10.67   17.20
   4  -8  11    9.08   14.86
  -4  -8 -11   -6.19   15.35
   4  -8  12    0.32    9.62
  -4  -8 -12    3.57   14.46
   4  -8  13   82.36   27.72
  -4  -8 -13   24.71   22.57
  -4  -8 -14    9.06   16.84
   4   9 -15  -10.99   17.43
  -4  -9  14  -24.48   18.26
   4   9 -14   54.55   28.98
  -4  -9  13  -15.47   15.39
   4   9 -13   22.28   26.96
  -4  -9  12   -6.86   10.10
   4   9 -12   46.60   25.82
  -4  -9  11   -8.80   12.18
   4   9 -11   10.77   14.06
  -4  -9  10  241.98   39.60
   4   9 -10  278.15   51.48
  -4  -9   9   17.82   11.85
   4   9  -9  -37.62   26.26
   4  -9  -8  201.84   35.74
  -4  -9   8  124.96   25.61
  -4  -9   7   -2.03    7.65
   4  -9  -7    1.30    9.29
  -4  -9   6   -2.94    7.13
  -4  -9   6   10.81   10.75
   4  -9  -6    6.26    9.49
  -4  -9   5   57.15   15.73
  -4  -9   5   26.42   10.37
   4  -9  -5   48.52   15.80
   4   9  -5   17.72    9.44
   4  -9  -4  648.78   60.00
   4   9  -4  626.77   44.93
  -4  -9   4  629.37   49.89
  -4  -9   4  573.75   49.51
   4   9  -4  578.30   56.67
  -4  -9   3   11.64    9.35
   4  -9  -3    3.32    7.71
   4   9  -3   10.42    4.82
   4   9  -3   -7.76   11.55
  -4  -9   3   13.66    9.03
   4  -9  -2  513.23   52.74
   4   9  -2  472.63   38.93
  -4  -9   2  469.80   40.89
  -4  -9   2  487.09   47.19
   4   9  -2  464.15   44.05
  -4  -9   1  139.33   25.73
   4  -9  -1  159.65   31.73
   4   9  -1  149.97   22.07
  -4  -9   1  143.68   22.66
   4   9  -1  153.41   23.94
   4  -9   0   27.43   13.18
   4   9   0   39.80   11.92
   4   9   0   41.87   10.93
  -4  -9   0   32.42   13.73
   4   9   1   98.46   16.93
  -4  -9  -1   88.25   22.69
   4   9   2  297.91   28.18
  -4  -9  -2  258.03   38.75
  -4  -9  -3    0.47    9.08
   4   9   3   30.91   10.00
  -4  -9  -4  674.49   66.51
  -4  -9  -5  151.14   33.07
  -4  -9  -6   57.64   25.01
  -4  -9  -7    1.88   14.18
   4  -9   8   54.18   19.46
  -4  -9  -8   27.85   19.02
   4  -9   9   31.13   14.36
  -4  -9  -9   48.11   26.98
  -4  -9 -10  198.45   42.65
   4  -9  10  224.54   39.59
  -4  -9 -11   58.21   28.45
   4  -9  11   39.80   18.68
  -4  -9 -12   67.71   30.10
   4  -9  12   61.55   23.02
  -4  -9 -13   18.24   15.35
  -4  -9 -14  -24.05   19.60
   4  10 -15    0.91   15.27
  -4 -10  14   -8.52   16.21
   4  10 -14  -22.70   18.52
  -4 -10  13   42.40   18.98
   4  10 -13   64.87   31.81
  -4 -10  12   27.13   18.92
   4  10 -12    0.85   21.76
  -4 -10  11   85.80   25.60
   4  10 -11   88.72   34.36
  -4 -10  10   38.73   18.51
  -4 -10   9    6.74    9.33
  -4 -10   8   -0.44    9.04
   4 -10  -8   41.09   19.97
  -4 -10   7  146.05   27.46
   4 -10  -7  176.05   32.47
  -4 -10   6   16.76    9.63
  -4 -10   6   16.62    8.40
   4 -10  -6   33.03   17.10
   4 -10  -5  430.32   48.61
  -4 -10   5  458.30   45.65
  -4 -10   5  302.13   36.59
  -4 -10   4   -1.78    5.48
   4 -10  -4    8.25   12.78
   4  10  -4    5.23    7.50
  -4 -10   4   11.70    9.13
   4  10  -3  154.82   20.62
  -4 -10   3   91.73   21.60
   4 -10  -3  120.16   27.28
  -4 -10   3  129.13   23.06
   4  10  -3   94.97   23.15
  -4 -10   2   92.32   21.77
   4 -10  -2  122.57   27.24
   4  10  -2  109.72   17.42
  -4 -10   2  132.20   22.98
   4  10  -2   80.87   17.74
  -4 -10   1  154.57   28.35
   4  10  -1  187.35   23.42
   4 -10  -1  189.75   33.05
  -4 -10   1  141.52   22.98
   4  10  -1  130.88   22.27
   4 -10   0   35.38   14.25
   4  10   0   53.40   13.04
  -4 -10   0   52.15   18.19
   4  10   0   53.28   14.61
   4  10   1  629.97   46.94
  -4 -10  -1  719.98   63.14
   4  10   1  664.93   45.56
   4  10   2   18.77    8.12
  -4 -10  -2   20.70   11.23
  -4 -10  -3  257.56   40.32
   4  10   3  297.77   27.44
  -4 -10  -4  118.36   28.64
  -4 -10  -5   77.52   27.13
  -4 -10  -6   -4.90   12.80
  -4 -10  -7  347.62   52.23
  -4 -10  -8  -14.86   19.42
  -4 -10  -9  231.25   46.34
  -4 -10 -10   40.65   22.76
  -4 -10 -11  -26.54   20.50
  -4 -10 -12   21.61   19.01
  -4 -10 -13   61.58   28.38
  -4 -11  14   45.93   22.30
   4  11 -14   52.91   33.83
  -4 -11  13   40.58   21.71
   4  11 -13   25.87   29.46
  -4 -11  12   -3.93    9.47
   4  11 -12   16.34   23.11
  -4 -11  11   -5.39   11.83
  -4 -11  10  137.88   32.70
  -4 -11   9  -23.98   15.58
   4 -11  -8  381.36   49.41
  -4 -11   8  311.32   43.62
  -4 -11   7   22.75   14.10
   4 -11  -7    9.74   13.49
  -4 -11   6   12.19   10.22
  -4 -11   6   -2.60    4.80
   4 -11  -6    5.58    8.93
  -4 -11   5   33.31   13.45
  -4 -11   5   51.05   17.12
   4 -11  -5   42.46   19.04
  -4 -11   4  117.56   24.09
   4 -11  -4  139.79   28.61
  -4 -11   4  163.15   26.96
  -4 -11   3   28.76   14.20
   4 -11  -3    3.31   10.26
   4  11  -3   11.69    6.40
  -4 -11   3    7.68    9.33
   4 -11  -2  662.14   62.64
   4  11  -2  654.42   42.08
  -4 -11   2  696.23   54.02
  -4 -11   2  670.30   60.73
   4  11  -2  572.14   53.08
  -4 -11   1    3.64    8.24
   4 -11  -1   20.58   14.58
   4  11  -1   10.36    4.65
  -4 -11   1   12.99    7.65
   4  11  -1   12.84    9.38
  -4 -11   0   72.54   23.41
   4 -11   0   86.22   23.75
   4  11   0   75.87   15.23
   4  11   0   33.22   10.87
  -4 -11  -1  154.59   31.12
   4  11   1  102.32   17.57
   4  11   1   96.75   17.96
   4  11   2  239.55   26.13
  -4 -11  -2  200.56   35.63
  -4 -11  -3   -1.89   13.62
  -4 -11  -4  288.45   44.46
  -4 -11  -5   17.02   16.18
  -4 -11  -6  213.14   40.85
  -4 -11  -7   26.79   23.49
  -4 -11  -8   64.76   28.69
  -4 -11  -9    7.32   10.20
  -4 -11 -10  127.52   35.89
  -4 -11 -11  -27.51   22.00
  -4 -11 -12   35.10   22.23
  -4 -11 -13    2.15   16.29
  -4 -12  14    3.02   11.24
   4  12 -14   16.54   23.09
  -4 -12  13   29.84   18.15
   4  12 -13   68.17   34.84
  -4 -12  12    8.51   12.85
  -4 -12  11    2.68    9.06
  -4 -12  10   -7.80   12.45
  -4 -12   9   24.05   16.34
  -4 -12   8   32.77   16.99
   4 -12  -8   38.73   20.75
  -4 -12   7  256.74   38.56
   4 -12  -7  243.81   39.57
  -4 -12   6    6.24    9.62
  -4 -12   6   -4.30    7.78
   4 -12  -6   17.37   14.23
  -4 -12   5  123.93   25.68
   4 -12  -5  179.59   33.30
  -4 -12   5  199.55   32.05
  -4 -12   4   11.46    9.35
   4 -12  -4   24.16   15.46
  -4 -12   4  -11.39    7.62
  -4 -12   3  107.78   24.24
   4 -12  -3   78.27   20.93
  -4 -12   3  133.69   24.74
  -4 -12   2   71.31   21.75
   4 -12  -2   49.60   19.12
  -4 -12   2   54.23   16.48
  -4 -12   1  257.93   39.18
   4 -12  -1  216.69   36.70
  -4 -12   1  233.74   31.69
   4  12  -1  207.86   31.12
  -4 -12   0   45.20   18.24
   4  12   0   19.94    9.13
   4 -12   0   23.35   10.29
   4 -12   1  498.80   56.76
  -4 -12  -1  607.36   62.28
   4  12   1  499.73   41.39
   4  12   2    4.95    4.63
  -4 -12  -2   17.90   12.98
  -4 -12  -3  138.73   30.77
  -4 -12  -4   46.88   19.63
  -4 -12  -5    1.16   11.19
  -4 -12  -6   84.91   27.47
  -4 -12  -7  420.34   60.61
  -4 -12  -8   18.73   19.78
  -4 -12  -9  110.02   33.16
  -4 -12 -10   -2.22   13.89
  -4 -12 -11   15.78   14.45
  -4 -12 -12    7.42   15.02
  -4 -12 -13   74.51   34.51
  -4 -13  14   23.37   21.93
   4  13 -14  105.66   44.52
  -4 -13  13   17.46   15.92
  -4 -13  12    0.21    9.66
  -4 -13  11   -1.75   10.43
  -4 -13  10   82.03   27.30
  -4 -13   9   31.50   17.48
  -4 -13   8  235.95   40.36
  -4 -13   7   44.53   18.69
  -4 -13   7   16.51    9.54
   4 -13  -7   32.17   18.33
  -4 -13   6   -2.78   10.10
  -4 -13   6   -2.76    8.40
   4 -13  -6    5.11   12.48
  -4 -13   5   24.51   13.11
   4 -13  -5   -2.03    7.62
  -4 -13   5    5.44    8.05
  -4 -13   4   54.59   17.48
   4 -13  -4   66.46   22.35
  -4 -13   4  101.94   23.10
  -4 -13   3    5.16    8.06
   4 -13  -3   -3.28    9.43
  -4 -13   3   -3.54    7.55
   4 -13  -2  493.37   54.32
  -4 -13   2  411.00   44.84
  -4 -13   2  424.44   51.53
  -4 -13   1  102.18   27.27
   4 -13  -1   80.37   22.49
  -4 -13   1   74.59   18.80
  -4 -13   0   60.17   21.28
   4 -13   0   52.88   19.28
   4  13   0   26.90   12.15
  -4 -13  -1    8.60   14.41
   4 -13   1  -12.09   15.67
   4  13   1   -6.52    6.98
  -4 -13  -2  117.04   30.38
   4  13   2   85.14   16.34
  -4 -13  -3   -0.29   12.24
  -4 -13  -4  213.23   39.22
  -4 -13  -5   23.97   16.28
  -4 -13  -6  122.27   30.59
  -4 -13  -7   -9.57   14.05
  -4 -13  -8   18.21   18.23
  -4 -13  -9   24.70   22.09
  -4 -13 -10   32.46   21.06
  -4 -13 -11   -5.69   14.29
  -4 -13 -12   18.06   16.56
  -4 -14  14    5.10   13.38
  -4 -14  13   58.66   27.63
  -4 -14  12    5.94   14.32
  -4 -14  11   29.82   20.60
  -4 -14  10    8.48   11.64
  -4 -14   9    7.22   13.16
  -4 -14   8   27.52   15.64
  -4 -14   7  170.17   34.93
  -4 -14   7  100.17   25.94
   4 -14  -7  185.57   35.08
  -4 -14   6   59.29   20.14
  -4 -14   6   24.01   11.18
  -4 -14   5  107.01   26.39
   4 -14  -5  117.39   27.19
  -4 -14   5  143.07   29.12
  -4 -14   4   -0.31    7.62
   4 -14  -4   10.82   12.50
  -4 -14   4   -6.34    8.91
  -4 -14   3   19.95   13.78
   4 -14  -3   24.33   12.84
  -4 -14   3   23.65   13.52
  -4 -14   2    5.04    8.00
   4 -14  -2    6.11   11.55
  -4 -14   2    9.93   10.32
  -4 -14   1  159.99   34.13
   4 -14  -1  157.49   31.99
  -4 -14   1  164.38   29.01
  -4 -14   0  213.15   39.32
   4 -14   0  227.03   39.93
  -4 -14   0  242.23   35.38
   4 -14   1  334.77   48.64
  -4 -14  -1  394.77   53.40
   4  14   1  314.87   35.22
  -4 -14  -2   36.58   22.68
  -4 -14  -3  102.42   29.30
  -4 -14  -4   -1.94   12.17
  -4 -14  -5    2.43   10.30
  -4 -14  -6   64.50   24.68
  -4 -14  -7  298.54   51.09
  -4 -14  -8   32.58   17.99
  -4 -14  -9  105.87   35.08
  -4 -14 -10   46.30   26.62
  -4 -14 -11   -5.29   17.73
  -4 -14 -12    7.66   13.87
  -4 -15  13   13.66   19.69
  -4 -15  12   17.39   14.95
  -4 -15  11  -13.17   14.66
  -4 -15  10   40.39   21.30
  -4 -15   9   77.44   27.50
  -4 -15   8  110.37   29.90
  -4 -15   7   25.99   15.29
   4 -15  -7   68.69   23.82
  -4 -15   6   26.94   13.95
  -4 -15   6    9.99   10.60
   4 -15  -6    8.13   11.46
  -4 -15   5   15.30   11.92
   4 -15  -5   10.86   12.49
  -4 -15   5    0.37    9.79
  -4 -15   4   59.87   20.72
   4 -15  -4   86.34   22.66
  -4 -15   4  106.46   25.47
  -4 -15   3   15.58   14.88
   4 -15  -3   -1.76    8.93
  -4 -15   3   10.25    9.11
  -4 -15   2  209.09   39.10
   4 -15  -2  183.22   34.51
  -4 -15   2  183.44   32.34
  -4 -15   1  209.31   38.82
   4 -15  -1  183.76   34.59
  -4 -15   1  206.45   33.53
  -4 -15   0   89.65   26.49
   4 -15   0   67.54   23.67
  -4 -15   0   69.76   20.80
  -4 -15  -1    0.75   10.13
   4 -15   1    9.25   10.85
   4  15   1   18.83    9.21
  -4 -15  -2   47.76   20.41
   4 -15   2    9.38   10.25
  -4 -15  -3    0.93   14.21
  -4 -15  -4   96.84   27.98
  -4 -15  -5  152.04   34.53
  -4 -15  -6   95.38   29.98
  -4 -15  -7    6.21   14.45
  -4 -15  -8   32.91   25.25
  -4 -15  -9  -18.87   15.41
  -4 -15 -10   46.33   26.26
  -4 -15 -11   60.01   31.18
  -4 -16  13   13.32   14.54
  -4 -16  12   20.10   17.63
  -4 -16  11   35.72   20.93
  -4 -16  10   11.13   12.35
  -4 -16   9   34.46   22.65
  -4 -16   8   11.75   12.69
  -4 -16   7   29.97   18.90
   4 -16  -7   53.07   21.08
  -4 -16   6   56.14   22.24
   4 -16  -6  146.52   33.20
  -4 -16   6  109.64   28.32
  -4 -16   5  100.42   29.35
   4 -16  -5  158.10   32.04
  -4 -16   5  137.94   30.74
  -4 -16   4    7.44   11.29
   4 -16  -4    7.20   11.55
  -4 -16   4   21.00   16.21
  -4 -16   3  -12.82   10.52
   4 -16  -3    2.62    9.18
  -4 -16   3   -0.77    9.83
  -4 -16   2   11.28   13.92
   4 -16  -2  -26.07   16.67
  -4 -16   2   11.13   12.21
  -4 -16   1   74.22   25.71
   4 -16  -1   34.51   17.43
  -4 -16   1   38.34   16.88
  -4 -16   0  211.63   39.94
   4 -16   0  226.24   39.20
  -4 -16   0  201.08   33.82
  -4 -16  -1  202.99   41.58
   4 -16   1  158.60   33.98
   4  16   1  150.58   26.22
  -4 -16  -2   51.68   23.72
   4 -16   2   18.24   12.47
  -4 -16  -3  107.85   33.50
  -4 -16  -4  -10.14   11.50
  -4 -16  -5   59.64   27.35
  -4 -16  -6   78.52   27.28
  -4 -16  -7   78.39   29.50
  -4 -16  -8   64.02   29.74
  -4 -16  -9   45.25   21.98
  -4 -16 -10   -3.40   16.40
  -4 -16 -11   -9.16   19.90
  -4 -17  12   12.52   18.09
  -4 -17  11   31.40   18.31
  -4 -17  10   27.79   16.63
  -4 -17   9   13.48   11.98
  -4 -17   8   34.87   19.31
  -4 -17   7   40.68   23.26
   4 -17  -7   72.03   25.85
  -4 -17   6   39.83   19.01
   4 -17  -6   45.17   18.62
  -4 -17   6    9.73    9.22
  -4 -17   5   -5.13   10.77
   4 -17  -5    6.56   11.92
  -4 -17   5   17.60   17.99
  -4 -17   4   25.75   15.55
   4 -17  -4   73.01   22.56
  -4 -17   4   82.25   25.97
  -4 -17   3   65.36   24.56
   4 -17  -3   75.53   22.78
  -4 -17   3  123.07   28.06
  -4 -17   2   30.16   19.22
   4 -17  -2   71.00   21.87
  -4 -17   2   66.07   21.75
  -4 -17   1   95.95   29.91
   4 -17  -1  101.46   28.60
  -4 -17   1  127.01   28.96
  -4 -17   0   36.96   20.54
   4 -17   0   56.91   22.02
  -4 -17   0   58.30   19.68
  -4 -17  -1   22.03   16.35
   4 -17   1   -1.55    9.75
  -4 -17  -2   18.92   14.39
   4 -17   2   -3.44   11.14
  -4 -17  -3  104.65   32.76
   4 -17   3   82.53   26.49
  -4 -17  -4  100.72   30.28
  -4 -17  -5   72.89   27.10
  -4 -17  -6   -0.44   16.34
  -4 -17  -7    5.73   14.63
  -4 -17  -8   57.25   28.24
  -4 -17  -9   29.25   21.66
  -4 -17 -10   32.62   25.81
  -4 -18  12   38.09   22.54
  -4 -18  11   19.20   21.61
  -4 -18  10    5.83   15.09
  -4 -18   9   32.86   20.84
  -4 -18   8   16.04   15.07
  -4 -18   7    1.18    9.64
  -4 -18   6   64.21   23.59
   4 -18  -6  109.99   29.21
  -4 -18   6  112.17   31.02
  -4 -18   5   71.97   27.12
   4 -18  -5   78.36   24.34
  -4 -18   5  101.42   29.00
  -4 -18   4   72.45   26.68
   4 -18  -4   59.68   20.57
  -4 -18   4   61.68   22.51
  -4 -18   3   -2.99    9.92
   4 -18  -3    2.41    9.48
  -4 -18   3    8.02   11.33
  -4 -18   2   10.59   11.39
   4 -18  -2  -14.05   12.99
  -4 -18   2   32.27   18.09
  -4 -18   1    7.54   11.16
   4 -18  -1    3.78   10.38
  -4 -18   1   26.33   17.72
  -4 -18   0   71.47   23.21
   4 -18   0   74.63   25.18
  -4 -18  -1   45.08   17.75
   4 -18   1   50.71   20.96
  -4 -18  -2   86.17   31.26
   4 -18   2   90.59   27.93
  -4 -18  -3   31.75   19.56
   4 -18   3   15.04   15.50
   4 -18   4    0.38   13.94
  -4 -18  -4    9.38   18.10
  -4 -18  -5   27.92   21.57
  -4 -18  -6   29.30   16.97
  -4 -18  -7   24.96   17.97
  -4 -18  -8    9.10   21.35
  -4 -18  -9   61.38   28.37
  -4 -18 -10   47.65   25.16
  -4 -19  11   31.07   22.71
  -4 -19  10   14.19   15.37
  -4 -19   9   17.09   16.39
  -4 -19   8   -3.07   13.39
  -4 -19   7   45.65   21.90
  -4 -19   6  -24.08   21.10
   4 -19  -6   44.87   21.94
  -4 -19   6   29.64   19.97
  -4 -19   5   -9.68   15.11
   4 -19  -5   13.07   13.47
  -4 -19   5   11.96   13.98
  -4 -19   4    2.47   10.39
   4 -19  -4   31.59   17.44
  -4 -19   4   -5.06   12.24
  -4 -19   3   78.90   28.00
  -4 -19   3  112.31   28.60
  -4 -19   2   28.08   17.65
   4 -19  -2    1.75   10.14
  -4 -19   2   34.14   17.16
  -4 -19   1   20.07   16.62
   4 -19  -1   24.70   13.54
  -4 -19   1   38.63   16.76
  -4 -19   0   10.22   18.20
   4 -19   0   18.10   13.58
  -4 -19  -1   -2.24   12.07
   4 -19   1   11.94   14.61
  -4 -19  -2    6.12   17.76
   4 -19   2  -14.80   15.70
  -4 -19  -3  140.40   38.06
   4 -19   3  153.92   38.02
   4 -19   4   33.77   23.18
  -4 -19  -4   26.35   18.10
  -4 -19  -5   72.60   28.98
  -4 -19  -6   73.40   31.35
  -4 -19  -7    8.31   20.62
  -4 -19  -8   17.71   18.68
  -4 -19  -9   68.46   31.69
  -4 -20  10   -6.33   16.95
  -4 -20   9    5.75   13.87
  -4 -20   8   11.10   12.66
  -4 -20   7    8.72   15.65
  -4 -20   6   26.20   17.84
   4 -20  -6   77.70   25.33
  -4 -20   6   85.39   27.22
  -4 -20   5   13.07   17.46
   4 -20  -5   10.25   12.58
  -4 -20   5   -8.50   14.29
  -4 -20   4   42.42   22.09
   4 -20  -4  107.11   27.69
  -4 -20   4   79.78   26.40
  -4 -20   3   -6.52   16.15
   4 -20  -3   22.81   15.89
  -4 -20   3   -3.63   12.90
  -4 -20   2    5.93   11.74
   4 -20  -2  -11.23   14.58
  -4 -20   2    4.59    9.46
  -4 -20   1   -9.27   11.31
   4 -20  -1   -0.68   13.49
  -4 -20   0   -5.84   16.05
   4 -20   0   15.28   12.87
  -4 -20  -1   20.09   18.57
   4 -20   1    8.89   10.91
  -4 -20  -2  137.12   39.70
   4 -20   2  176.46   39.74
  -4 -20  -3   -8.96   15.05
   4 -20   3  -19.56   17.81
  -4 -20  -4   17.87   20.97
   4 -20   4   -2.51   12.25
   4 -20   5  -27.14   19.58
  -4 -20  -5    7.55   19.84
  -4 -20  -6    4.75   12.10
  -4 -20  -7   26.04   20.05
  -4 -20  -8    7.97   18.40
  -4 -21   9   65.84   28.29
  -4 -21   8   10.20   17.24
  -4 -21   7   42.03   25.95
  -4 -21   7   32.99   21.52
  -4 -21   6   -8.47   15.37
  -4 -21   6   18.25   15.49
  -4 -21   5   -6.46   14.22
   4 -21  -5   20.21   14.90
  -4 -21   5   16.89   15.46
  -4 -21   4  -21.12   17.59
   4 -21  -4   25.09   13.74
  -4 -21   4    0.68   12.17
  -4 -21   3  118.82   36.02
   4 -21  -3   96.63   26.03
  -4 -21   3   92.17   29.61
  -4 -21   2   -7.71   13.46
   4 -21  -2  -14.22   14.09
  -4 -21   2    0.59   11.96
  -4 -21   1   27.85   21.82
   4 -21  -1   82.21   26.59
  -4 -21   1   47.78   19.77
  -4 -21   0    9.21   17.68
   4 -21   0    5.16    9.69
  -4 -21  -1  -10.70   16.25
   4 -21   1   21.77   16.93
  -4 -21  -2   31.87   23.62
   4 -21   2   18.17   18.31
  -4 -21  -3  101.64   34.13
   4 -21   3  153.88   38.24
  -4 -21  -4   14.95   20.84
   4 -21   4    6.63   12.56
   4 -21   5   55.05   26.62
  -4 -21  -5   59.23   27.51
   4 -21   6   10.46   15.31
  -4 -21  -6   44.84   27.68
  -4 -21  -7  -29.15   25.22
  -4 -22   8   36.24   22.68
  -4 -22   7  -13.76   18.23
  -4 -22   6   28.36   22.55
  -4 -22   6   46.58   23.17
  -4 -22   5   26.89   20.23
   4 -22  -5   45.93   22.88
  -4 -22   5    3.32    9.98
  -4 -22   4   20.30   15.34
   4 -22  -4   39.17   20.68
  -4 -22   4   40.81   21.78
  -4 -22   3   22.86   23.04
   4 -22  -3   23.14   16.59
  -4 -22   3    9.72   17.00
  -4 -22   2   10.24   18.06
   4 -22  -2  -16.39   14.82
  -4 -22   2    8.52   10.47
  -4 -22   1    3.45   18.18
   4 -22  -1  -15.57   16.12
  -4 -22   1   -0.56   12.80
  -4 -22   0   57.62   29.35
   4 -22   0   24.71   17.33
  -4 -22  -1    0.99   12.24
   4 -22   1  -10.90   15.21
  -4 -22  -2   85.87   33.71
   4 -22   2   37.28   19.72
  -4 -22  -3  -26.11   23.93
   4 -22   3   22.80   19.61
  -4 -22  -4    6.50   18.26
  -4 -22  -5  -18.55   18.74
  -4 -22  -6   24.53   23.97
  -4 -23   7    3.03   16.28
  -4 -23   6   13.53   18.61
  -4 -23   6    8.57   14.24
  -4 -23   5    6.75   13.41
  -4 -23   5   44.34   24.41
  -4 -23   4   23.28   19.76
  -4 -23   4  -11.82   16.23
  -4 -23   3   15.17   19.29
  -4 -23   3   71.56   26.94
  -4 -23   2   27.97   25.90
  -4 -23   2   12.80   17.53
  -4 -23   1   48.27   27.29
  -4 -23   1   42.75   19.51
  -4 -23   0   18.07   13.98
  -4 -23  -1   -8.24   15.13
  -4 -23  -2  -21.22   22.75
  -4 -23  -3  -13.80   15.97
  -4 -23  -4   17.87   18.55
  -4 -24   5   -1.51   15.27
  -4 -24   5    4.84   15.27
  -4 -24   4   43.77   27.43
  -4 -24   4   -5.35   14.79
  -4 -24   3   15.05   18.15
  -4 -24   3   27.06   20.38
  -4 -24   2   22.15   19.45
  -4 -24   2   18.71   18.35
  -4 -24   1    6.27   14.27
  -4 -24   0   18.42   18.64
  -4 -24  -1   21.87   27.64
  -4 -24  -2   65.71   31.99
  -4 -24  -3    9.45   15.23
  -4 -25   2   40.23   29.04
   5   0 -14  -20.72   17.60
   5   0 -13   45.06   22.50
   5   0 -12   -8.01   16.63
   5   0 -11  185.61   37.96
   5   0 -10   -5.11   13.50
   5   0  -9   17.54   15.56
   5   0  -8   24.09   13.53
   5   0  -8   28.55   16.92
   5   0  -7   41.83   17.63
   5   0  -7   59.40   20.95
   5   0  -6    0.52   11.01
   5   0  -6   11.87   12.71
   5   0  -5  772.33   68.10
   5   0  -5  748.30   60.96
   5   0  -4   19.75   14.73
   5   0  -4    1.20   12.38
   5   0  -3  150.91   32.64
   5   0  -2    7.52   10.65
   5   0  -1   17.83   12.85
  -5   0   1   43.42   12.74
   5   0   0  -24.58   18.52
  -5   0   0    7.56    8.78
  -5   0  -1  670.41   58.24
  -5   0  -2   15.42   12.44
  -5   0  -3  411.05   50.81
  -5   0  -4    2.23    9.54
  -5   0  -5   28.66   18.58
  -5   0  -6    6.67    9.74
  -5   0  -7  148.13   34.50
  -5   0  -8   15.37   15.37
  -5   0  -9  256.62   47.88
  -5   0 -10   -9.54   13.06
  -5   0 -11  -33.10   22.20
  -5   0 -12   10.56   14.78
   5  -1 -14   33.75   21.53
   5   1 -14   33.47   20.42
   5   1 -13   16.18   17.05
   5  -1 -13   29.21   19.12
   5   1 -12   15.44   18.66
   5  -1 -12    6.96   12.02
   5   1 -11    2.76   10.98
   5  -1 -11   26.96   18.51
   5   1 -10  226.55   40.28
   5  -1 -10  194.99   36.54
   5   1  -9   -6.93   12.31
   5  -1  -9   23.85   16.41
   5  -1  -8  122.83   30.16
   5   1  -8  215.83   37.20
   5   1  -8  119.85   28.60
   5  -1  -8  125.03   27.76
   5  -1  -7   64.45   23.51
   5  -1  -7   33.30   17.67
   5   1  -7   31.93   16.31
   5   1  -7    6.53   12.96
   5  -1  -6   47.73   17.88
   5  -1  -6   19.30   12.77
   5   1  -6   39.35   19.62
   5   1  -6   57.56   19.70
   5  -1  -5   22.92   17.50
   5  -1  -5   20.66   17.52
   5   1  -5   10.11   14.58
   5   1  -5   20.79   14.27
   5  -1  -4  469.63   53.67
   5   1  -4  549.16   56.20
   5   1  -4  478.10   47.88
   5   1  -3   33.72   16.14
   5  -1  -3   36.08   20.67
   5   1  -3   43.41   18.15
   5  -1  -2  389.86   49.84
   5   1  -2  376.56   47.85
   5  -1  -1   -3.92   11.42
   5   1  -1    9.51    8.99
  -5   1   1    4.40    5.59
  -5  -1   1    1.13    6.29
   5  -1   0   87.66   25.61
   5   1   0   54.67   21.30
  -5   1   0   64.56   15.21
  -5  -1   0   79.14   18.47
  -5   1  -1   13.85    8.99
  -5  -1  -1   42.90   15.44
  -5   1  -2  120.59   25.26
  -5  -1  -2  157.37   29.97
  -5   1  -3    1.13    8.94
  -5  -1  -3   22.55   17.67
  -5   1  -4  524.07   58.62
  -5  -1  -4  580.27   63.61
  -5   1  -5   -3.61    9.36
  -5  -1  -5   -3.11   10.09
  -5   1  -6   47.76   20.45
  -5  -1  -6  151.57   36.89
  -5   1  -7   32.82   18.08
  -5  -1  -7   24.46   17.07
  -5   1  -8   36.37   20.75
  -5  -1  -8  -20.86   17.61
  -5   1  -9   -8.63   13.06
  -5  -1  -9    0.80   13.15
  -5   1 -10  194.39   40.78
  -5  -1 -10  205.24   44.46
  -5   1 -11   28.22   22.80
  -5  -1 -11   37.40   23.11
  -5   1 -12   77.25   29.19
  -5  -1 -12   91.56   32.80
   5  -2 -14   10.34   13.12
   5   2 -14    9.12   13.79
   5  -2 -13   49.30   22.87
   5   2 -13   21.97   18.08
   5  -2 -12   21.60   15.83
   5   2 -12   47.68   24.40
   5  -2 -11  184.09   38.03
   5   2 -11  122.51   32.32
   5  -2 -10   52.93   25.35
   5   2 -10   25.41   16.41
   5  -2  -9   53.05   20.73
   5   2  -9   23.25   18.55
   5  -2  -8   20.01   14.63
   5  -2  -8   10.50   14.90
   5   2  -8   17.53   15.58
   5  -2  -7   89.56   23.28
   5  -2  -7  107.02   27.33
   5   2  -7  120.31   28.17
   5   2  -7   69.18   21.19
   5  -2  -6   17.12   13.36
   5   2  -6   14.12    9.67
   5   2  -6   30.13   15.78
   5  -2  -5  646.85   63.22
   5   2  -5  572.26   57.42
   5   2  -5  573.44   54.31
   5  -2  -4   40.77   19.12
   5   2  -4   38.02   15.68
   5   2  -4   47.88   17.85
   5  -2  -3  182.37   33.45
   5   2  -3  186.13   33.67
   5   2  -3  163.70   28.03
   5   2  -2   80.03   19.62
   5  -2  -2   91.33   25.44
   5   2  -2   93.78   24.47
   5  -2  -1   83.74   25.01
   5   2  -1   33.43   16.30
  -5   2   1   62.28   12.97
  -5  -2   1   39.88   12.90
   5  -2   0  -15.26   15.24
   5   2   0   -8.94   13.68
  -5   2   0   -0.36    4.05
  -5  -2   0   13.40    9.85
  -5   2  -1  456.23   43.53
  -5  -2  -1  560.01   54.70
  -5   2  -2  101.92   22.43
  -5  -2  -2  103.55   25.46
  -5   2  -3  329.26   41.67
  -5  -2  -3  368.66   48.48
  -5   2  -4   43.18   16.92
  -5  -2  -4   17.25   11.38
  -5   2  -5   23.58   16.64
  -5  -2  -5  -16.92   15.09
  -5   2  -6    9.72   12.29
  -5  -2  -6    4.64   15.05
  -5   2  -7  182.97   36.86
  -5  -2  -7  194.02   40.33
  -5   2  -8   29.39   19.34
  -5  -2  -8    4.48   13.51
  -5   2  -9  143.87   36.02
  -5  -2  -9  231.64   47.64
  -5   2 -10   14.81   15.14
  -5  -2 -10   11.68   15.81
  -5   2 -11   -6.95   14.84
  -5  -2 -11   36.84   21.98
  -5   2 -12   36.26   23.09
  -5  -2 -12   -4.57   13.94
   5   3 -14   26.63   20.85
   5   3 -13   11.60   16.42
   5  -3 -12   27.07   17.24
   5   3 -12    9.92   14.26
   5  -3 -11   11.13   11.18
   5   3 -11   27.76   18.27
   5  -3 -10  159.52   33.62
   5   3 -10   65.45   23.36
   5  -3  -9   90.21   26.34
   5   3  -9   34.49   17.91
   5  -3  -8  218.54   39.35
   5   3  -8  163.44   33.19
   5  -3  -7   95.99   27.53
   5   3  -7   89.59   25.39
   5   3  -7   78.47   23.90
   5  -3  -6    2.44    8.52
   5   3  -6    6.66   11.58
   5   3  -6   15.16   14.27
   5  -3  -5   -6.62    8.88
   5   3  -5    9.57   10.45
   5  -3  -4  106.95   25.73
   5   3  -4  171.60   29.92
   5   3  -4  117.07   24.12
   5  -3  -3  186.26   34.52
   5   3  -3  183.06   32.52
   5   3  -3  160.07   28.68
   5  -3  -2  495.71   57.43
   5   3  -2  420.99   48.68
   5   3  -2  492.46   45.62
   5   3  -1   33.53   13.25
   5  -3  -1   15.37   10.01
   5   3  -1   48.28   18.72
  -5  -3   1   23.71   10.64
   5  -3   0   44.10   20.10
   5   3   0   64.08   20.90
  -5   3   0   66.99   15.62
  -5  -3   0   60.05   18.50
  -5   3  -1  113.40   21.70
  -5  -3  -1   84.95   22.17
  -5   3  -2  127.08   24.64
  -5  -3  -2  154.90   31.84
  -5   3  -3  122.75   25.62
  -5  -3  -3  132.20   30.17
  -5   3  -4  276.43   41.54
  -5  -3  -4  334.99   49.25
  -5   3  -5   14.64    9.02
  -5  -3  -5   13.74   16.20
  -5   3  -6  169.51   35.04
  -5  -3  -6  178.53   38.49
  -5   3  -7   44.68   20.81
  -5  -3  -7   24.34   16.90
  -5   3  -8   44.82   21.46
  -5  -3  -8    5.20   13.81
  -5   3  -9    9.43   15.90
  -5  -3  -9   25.06   20.93
  -5   3 -10   70.08   26.75
  -5  -3 -10   42.96   18.20
  -5   3 -11   34.04   22.03
  -5  -3 -11   18.96   19.61
  -5   3 -12   53.88   25.53
  -5  -3 -12   80.11   29.65
   5   4 -14   18.75   22.86
   5   4 -13   88.10   33.71
   5   4 -12   16.24   12.42
   5   4 -11   47.46   23.42
   5   4 -10    2.09   11.99
   5   4  -9   47.07   21.18
   5  -4  -8   31.08   19.03
   5   4  -8   15.54   12.79
   5  -4  -7  223.98   38.84
   5   4  -7  223.67   35.49
   5   4  -7  210.01   36.77
   5  -4  -6  110.58   27.50
   5   4  -6   83.56   22.14
   5   4  -6   97.52   24.18
   5  -4  -5  196.48   36.18
   5   4  -5  230.12   35.46
   5   4  -5  167.90   30.54
   5  -4  -4   60.46   20.46
   5   4  -4   49.30   17.46
   5   4  -4   68.08   20.64
   5  -4  -3  171.70   35.66
   5   4  -3  206.42   33.28
   5   4  -3  151.36   26.71
   5  -4  -2   65.33   23.46
   5   4  -2   79.73   20.67
  -5  -4   2   53.35   13.91
   5   4  -2   74.11   18.89
   5  -4  -1  100.51   28.29
   5   4  -1  119.68   26.60
  -5  -4   1   86.01   19.50
   5   4  -1  116.43   21.88
   5   4   0  127.37   23.05
   5  -4   0   82.97   24.37
   5   4   0   76.96   22.71
  -5   4   0   90.11   17.25
  -5  -4   0   75.50   19.76
  -5   4  -1  349.63   37.59
  -5  -4  -1  388.89   46.88
  -5   4  -2  149.13   27.57
  -5  -4  -2  117.68   26.81
  -5   4  -3  160.20   29.40
  -5  -4  -3  139.07   32.10
  -5   4  -4    8.65    8.80
  -5  -4  -4   26.32   16.17
  -5   4  -5   12.67   11.11
  -5  -4  -5   11.11   14.57
  -5   4  -6   57.91   21.18
  -5  -4  -6   77.91   27.13
  -5   4  -7  284.31   46.95
  -5  -4  -7  249.36   47.33
  -5   4  -8   78.51   27.36
  -5  -4  -8   83.59   27.77
  -5   4  -9   90.84   28.04
  -5  -4  -9   87.68   31.88
  -5   4 -10   42.76   22.67
  -5  -4 -10   31.46   22.47
  -5   4 -11   -0.33   13.15
  -5  -4 -11   11.49   17.02
  -5   4 -12   43.80   25.66
  -5  -4 -12   53.66   27.73
   5   5 -14   46.48   27.62
   5   5 -13    2.74   16.55
   5   5 -12  -25.88   20.23
   5   5 -11   -0.11   15.72
   5   5 -10   50.50   25.64
   5   5  -9   62.30   22.27
   5  -5  -8  246.09   42.90
   5   5  -8  163.38   34.72
   5  -5  -7  105.57   28.63
   5   5  -7  111.43   27.30
   5  -5  -6   19.43   15.00
   5   5  -6   30.59   15.36
   5   5  -6    6.42    8.98
   5  -5  -5   15.07   14.99
   5   5  -5   -7.47    9.76
   5   5  -5   19.38   12.63
   5  -5  -4   43.32   15.04
   5   5  -4   55.03   16.75
   5   5  -4   32.29   15.65
   5  -5  -3  147.71   31.83
   5   5  -3  150.92   27.88
   5   5  -3  149.22   25.92
   5   5  -2  367.11   44.07
   5  -5  -2  387.34   51.62
  -5  -5   2  357.84   38.42
   5   5  -2  344.31   38.89
   5  -5  -1  314.22   47.12
   5   5  -1  226.77   35.36
  -5  -5   1  285.24   36.92
   5   5  -1  240.44   32.19
   5  -5   0   14.00    9.66
   5   5   0   18.55   11.34
  -5  -5   0   22.24   11.75
   5   5   1   28.06   14.73
  -5  -5  -1   37.58   16.41
  -5   5  -2   62.89   18.31
  -5  -5  -2   32.60   16.02
  -5   5  -3   65.06   19.03
  -5  -5  -3   56.75   21.00
  -5   5  -4  128.05   28.41
  -5  -5  -4  110.36   28.59
  -5   5  -5  146.79   31.92
  -5  -5  -5  181.77   38.07
  -5   5  -6  195.67   38.79
  -5  -5  -6  173.49   38.73
  -5   5  -7   24.28   16.71
  -5  -5  -7   37.37   22.36
  -5   5  -8   15.11   15.58
  -5  -5  -8   51.06   27.77
  -5   5  -9    9.22   14.74
  -5  -5  -9   28.44   20.33
  -5   5 -10   80.37   31.03
  -5  -5 -10   -4.21   18.15
  -5   5 -11   35.46   23.17
  -5  -5 -11   49.67   24.07
  -5   5 -12  100.50   35.23
  -5  -5 -12   47.70   28.32
   5   6 -14   46.82   25.64
   5   6 -13   93.16   33.71
   5   6 -12   66.92   30.08
   5   6 -11   33.47   24.00
   5   6 -10   75.87   30.32
   5   6  -9   -9.62   16.40
   5  -6  -8   52.82   23.48
   5   6  -8   21.08   16.86
   5  -6  -7  113.94   29.36
   5   6  -7   93.77   26.32
   5  -6  -6  187.27   35.65
   5   6  -6  211.37   33.40
   5   6  -6  160.50   32.16
   5  -6  -5   52.44   19.10
   5   6  -5   95.20   22.30
   5   6  -5   50.29   19.08
   5  -6  -4   18.56   11.41
   5   6  -4   32.30   12.97
   5   6  -4   18.39   12.73
   5  -6  -3   66.78   22.52
   5   6  -3   93.66   22.99
   5   6  -3   72.23   19.07
   5  -6  -2   -4.22    9.28
   5   6  -2   17.21   10.94
  -5  -6   2   13.19   10.43
   5   6  -2   16.50   10.43
   5  -6  -1   83.50   26.43
   5   6  -1   55.78   18.23
  -5  -6   1   59.18   18.54
   5   6  -1   74.31   18.83
   5   6   0  361.88   44.87
   5  -6   0  396.61   56.27
  -5  -6   0  371.80   45.54
   5   6   0  382.18   38.96
   5   6   1  227.71   36.91
  -5  -6  -1  264.82   40.68
   5   6   1  293.80   33.47
  -5  -6  -2   87.27   24.59
  -5   6  -3   79.89   21.78
  -5  -6  -3  104.29   27.99
  -5   6  -4   -1.12    8.98
  -5  -6  -4   14.39   14.93
  -5   6  -5   -3.51   11.39
  -5  -6  -5   20.30   15.31
  -5   6  -6  161.68   35.55
  -5  -6  -6  171.76   38.38
  -5   6  -7  194.44   38.56
  -5  -6  -7  128.96   33.73
  -5   6  -8  126.85   33.79
  -5  -6  -8  149.47   37.85
  -5   6  -9   58.52   26.45
  -5  -6  -9   18.28   20.50
  -5   6 -10   48.76   23.51
  -5  -6 -10   -8.94   18.31
  -5   6 -11   -2.14   10.44
  -5  -6 -11    8.99   19.11
  -5   6 -12   19.54   18.02
  -5  -6 -12   -3.51   16.59
   5   7 -13   33.11   25.84
   5   7 -12   33.25   22.49
   5   7 -11  -28.66   23.27
   5   7 -10   17.94   11.68
   5   7  -9  100.74   29.07
   5  -7  -8  127.12   32.60
   5   7  -8   31.70   15.43
   5  -7  -7  177.57   36.30
   5   7  -7  129.92   31.04
   5  -7  -6    9.79   13.71
   5   7  -6    6.82   10.00
   5   7  -6   -3.48   11.03
   5  -7  -5    4.06   11.40
   5   7  -5   11.54   10.39
   5   7  -5  -11.35   13.13
   5  -7  -4    1.21    9.41
   5   7  -4   12.03    8.69
   5   7  -4    5.12    8.39
   5  -7  -3  142.09   30.23
   5   7  -3  142.77   25.64
   5   7  -3  117.91   23.66
   5  -7  -2  156.22   34.27
   5   7  -2  157.70   27.52
  -5  -7   2  120.30   23.92
   5   7  -2  114.44   23.36
   5  -7  -1  471.43   59.51
   5   7  -1  509.57   50.69
  -5  -7   1  479.89   50.44
   5   7  -1  504.60   46.56
   5  -7   0   55.55   22.22
   5   7   0   21.54   11.60
  -5  -7   0   41.26   16.30
   5   7   0   61.89   16.59
   5   7   1    8.31   10.13
   5  -7   1    1.70   15.90
   5   7   1  -10.75   11.44
  -5  -7  -1   13.83   13.94
  -5  -7  -2   13.53   14.59
  -5  -7  -3   77.59   23.31
  -5  -7  -4   91.73   27.64
  -5  -7  -5  387.72   56.02
  -5  -7  -6   53.90   24.19
  -5   7  -7   14.50   15.55
  -5  -7  -7   21.15   15.23
  -5   7  -8   10.43   10.57
  -5  -7  -8    7.26   19.71
  -5  -7  -9   57.78   28.20
  -5  -7 -10   18.48   18.44
  -5  -7 -11   69.02   29.09
  -5  -7 -12    7.79   18.07
   5   8 -13    8.00   18.97
   5   8 -12   59.27   32.48
   5   8 -11    2.07   16.05
   5   8 -10  -13.64   25.60
   5   8  -9    0.16   12.03
   5  -8  -8  142.75   35.22
   5   8  -8   29.52   18.38
   5  -8  -7   37.45   20.40
   5   8  -7    1.02   11.07
   5  -8  -6  236.41   41.41
   5   8  -6  201.90   37.47
   5  -8  -5   66.64   21.57
   5   8  -5   78.19   19.41
   5   8  -5   68.03   21.12
   5  -8  -4   58.22   17.39
   5   8  -4   58.62   16.57
   5   8  -4   24.13   12.54
   5  -8  -3   14.11   13.40
   5   8  -3  -10.67   10.89
   5   8  -3    9.46   12.07
   5  -8  -2   -2.93    9.23
   5   8  -2   -2.35    7.69
  -5  -8   2   13.22   10.95
   5   8  -2    2.49    7.42
   5  -8  -1   47.39   19.82
   5   8  -1   17.32   10.40
  -5  -8   1   37.64   15.82
   5   8  -1   48.33   16.28
   5  -8   0  496.23   63.94
   5   8   0  455.60   47.68
  -5  -8   0  492.18   54.81
   5   8   0  501.97   45.82
   5  -8   1   46.44   19.73
   5   8   1   64.05   19.90
  -5  -8  -1   61.40   21.33
   5   8   1   72.23   17.38
  -5  -8  -2  114.39   28.57
  -5  -8  -3   33.71   18.56
  -5  -8  -4    7.86   13.21
  -5  -8  -5   36.65   23.59
  -5  -8  -6  221.87   43.86
  -5  -8  -7   37.10   24.85
  -5  -8  -8  123.07   33.34
  -5  -8  -9  -10.81   20.61
  -5  -8 -10   18.15   19.32
  -5  -8 -11   15.08   20.44
   5   9 -13   -6.18   16.74
   5   9 -12   18.76   18.70
   5   9 -11    1.59   15.93
   5   9 -10  -32.92   27.38
   5   9  -9   85.63   26.25
   5  -9  -8   29.70   18.83
   5   9  -8   -9.26   18.30
   5  -9  -7  175.75   37.85
   5   9  -7   94.19   25.96
   5  -9  -6   79.01   22.78
   5   9  -6    3.51   15.67
   5  -9  -5   38.78   19.78
   5   9  -5   27.56   13.15
   5  -9  -4   -6.34   12.29
   5   9  -4   15.63   11.49
   5  -9  -3  211.90   38.46
   5   9  -3  183.26   27.52
  -5  -9   3  149.57   27.35
   5   9  -3  159.68   29.07
   5  -9  -2   16.31   13.68
   5   9  -2    7.29    6.68
  -5  -9   2   -1.24    5.94
   5   9  -2   13.93    8.99
   5   9  -1  416.80   42.67
   5  -9  -1  397.53   55.78
  -5  -9   1  377.97   48.35
   5   9  -1  350.14   38.76
   5  -9   0   31.38   19.66
   5   9   0   29.02   10.73
  -5  -9   0   30.81   17.02
   5   9   0   28.09   10.88
   5  -9   1    5.21   12.60
   5   9   1   10.93    6.54
  -5  -9  -1   15.31   11.91
   5   9   1   17.32   10.46
   5   9   2  -18.94   13.35
  -5  -9  -2   10.20    9.74
  -5  -9  -3  112.63   29.49
  -5  -9  -4   10.16   12.50
  -5  -9  -5  356.91   54.96
  -5  -9  -6   19.49   12.69
  -5  -9  -7   51.41   22.02
  -5  -9  -8   -7.12   17.97
  -5  -9  -9   -7.78   12.91
  -5  -9 -10   32.11   23.70
  -5  -9 -11   58.29   25.18
   5  10 -13   34.22   26.25
   5  10 -12   81.85   34.92
   5  10 -11    5.99   16.58
   5  10 -10   68.37   34.82
   5  10  -9    7.31   14.04
   5 -10  -8   27.31   15.91
   5  10  -8   -2.44   19.39
   5 -10  -7    7.44   13.01
   5  10  -7    6.18   15.48
   5 -10  -6  241.13   40.35
   5  10  -6  122.47   31.60
   5 -10  -5    5.34   10.23
   5  10  -5  -13.58   15.79
   5 -10  -4  157.34   33.81
   5  10  -4  121.19   26.90
   5 -10  -3  -11.10   15.26
  -5 -10   3   29.11   11.83
   5  10  -3   -3.53   11.85
  -5 -10   3   35.98   15.57
   5 -10  -2   -3.60   12.15
  -5 -10   2    3.54    6.68
   5  10  -2   24.02   13.70
   5 -10  -1    9.07   17.50
  -5 -10   1    0.71    7.69
   5  10  -1   -1.33    9.09
   5 -10   0  235.52   45.96
  -5 -10   0  266.85   43.88
   5  10   0  228.05   31.49
   5 -10   1    8.50   15.10
   5  10   1   12.14    9.20
  -5 -10  -1   19.75   16.16
   5  10   1   36.44   14.38
   5  10   2  203.30   32.00
  -5 -10  -2  275.10   46.67
  -5 -10  -3   11.98   16.85
  -5 -10  -4    6.95   17.61
  -5 -10  -5    1.02   11.34
  -5 -10  -6   97.81   31.31
  -5 -10  -7    3.83   14.38
  -5 -10  -8   98.14   32.87
  -5 -10  -9   14.39   15.99
  -5 -10 -10    3.30   14.48
  -5 -10 -11  -20.47   25.12
   5  11 -12   32.43   28.39
   5  11 -11   49.32   30.07
   5  11 -10   21.05   21.99
   5  11  -9   63.72   28.29
   5 -11  -8   67.43   28.05
   5  11  -8  -23.39   21.28
   5 -11  -7   88.46   26.20
   5  11  -7   76.91   30.41
   5 -11  -6   35.03   18.23
   5  11  -6    5.10   13.36
   5 -11  -5   15.07   14.15
   5  11  -5  -17.17   18.88
   5 -11  -4    6.99   12.60
  -5 -11   4    2.45    7.43
   5  11  -4  -20.26   16.67
   5 -11  -3  254.77   43.90
  -5 -11   3  311.57   38.73
   5  11  -3  239.43   37.21
  -5 -11   3  252.06   39.19
   5 -11  -2   12.43   12.25
   5  11  -2    3.73    9.47
  -5 -11   2   -8.80    9.89
   5 -11  -1  139.90   35.20
  -5 -11   1  134.15   29.77
   5  11  -1  122.41   24.46
   5 -11   0    9.78   12.83
  -5 -11   0   20.25   15.16
   5  11   0   29.40   12.92
   5 -11   1   35.67   19.17
  -5 -11  -1   28.04   16.30
   5  11   1   58.80   15.89
   5 -11   2    4.56   14.94
  -5 -11  -2   45.13   22.02
  -5 -11  -3  287.63   49.40
  -5 -11  -4    4.56   11.17
  -5 -11  -5  213.89   44.66
  -5 -11  -6   -2.71   14.77
  -5 -11  -7   24.88   21.02
  -5 -11  -8   38.17   22.11
  -5 -11  -9   16.44   18.61
  -5 -11 -10   -9.29   19.04
  -5 -11 -11   79.81   33.24
   5  12 -12  139.27   50.12
   5  12 -11    3.34   15.12
   5  12 -10  -26.09   28.33
   5  12  -9   26.04   24.12
   5 -12  -8   43.53   20.48
   5  12  -8   20.72   13.74
   5 -12  -7   21.98   17.25
   5  12  -7  -18.29   21.16
   5 -12  -6  108.47   30.30
   5  12  -6   96.87   29.50
   5 -12  -5   -0.68   11.93
   5  12  -5   -6.09   15.32
   5 -12  -4  203.79   39.25
  -5 -12   4  133.81   26.93
   5  12  -4  152.51   34.25
   5 -12  -3    3.60   10.83
   5  12  -3    4.23   10.26
  -5 -12   3   -0.04    8.60
   5 -12  -2   10.60   11.89
   5  12  -2    8.94    8.11
  -5 -12   2   19.35   10.28
   5 -12  -1   -4.02   12.67
   5  12  -1    2.32    7.40
  -5 -12   1    3.31   10.26
   5 -12   0  119.34   34.46
  -5 -12   0   72.26   23.70
   5  12   0   89.00   20.19
   5 -12   1   -4.16   14.15
  -5 -12  -1   10.54   13.31
   5 -12   2  263.58   50.88
  -5 -12  -2  286.93   49.23
  -5 -12  -3  -21.23   17.57
  -5 -12  -4   19.11   20.01
  -5 -12  -5    5.59   18.28
  -5 -12  -6   21.85   18.29
  -5 -12  -7    5.79   16.53
  -5 -12  -8  131.82   39.18
  -5 -12  -9   -9.69   13.75
  -5 -12 -10   29.50   22.38
   5  13 -11   61.26   32.71
   5  13 -10  -27.68   30.20
   5  13  -9   55.31   30.62
   5 -13  -8   33.47   22.19
   5  13  -8  -33.27   29.11
   5 -13  -7   89.78   27.73
   5  13  -7    0.68   19.30
   5 -13  -6   20.22   18.38
   5  13  -6   -7.43   15.35
   5 -13  -5  -22.20   17.37
  -5 -13   5    2.87    8.80
   5  13  -5   -7.79   15.28
   5 -13  -4   34.74   17.55
  -5 -13   4   45.23   18.67
   5  13  -4   -8.21   10.77
   5 -13  -3  203.08   38.59
  -5 -13   3  193.36   32.91
   5  13  -3  129.59   29.60
  -5 -13   3  188.12   37.59
   5 -13  -2   23.16   16.61
   5  13  -2  -13.41   12.51
  -5 -13   2  -10.13   14.86
   5 -13  -1   89.69   26.93
   5  13  -1   57.17   18.16
  -5 -13   1   94.86   28.24
   5  13   0   12.56    9.52
  -5 -13   0   -3.68    9.19
   5 -13   1   60.95   27.04
  -5 -13  -1   16.19   13.86
   5 -13   2   38.35   17.72
  -5 -13  -2   40.19   21.16
  -5 -13  -3  180.73   41.64
  -5 -13  -4   26.05   20.22
  -5 -13  -5   89.68   31.67
  -5 -13  -6   66.42   30.20
  -5 -13  -7   62.26   28.49
  -5 -13  -8   37.51   23.11
  -5 -13  -9   85.59   32.29
  -5 -13 -10   16.58   19.16
   5  14 -11   25.79   25.59
   5  14 -10  -46.49   35.03
   5  14  -9  -55.86   38.94
   5 -14  -8   56.52   25.77
   5  14  -8  -28.56   32.77
   5 -14  -7   53.21   24.62
   5  14  -7  -33.70   30.96
   5 -14  -6  128.34   31.93
  -5 -14   6  108.52   29.26
   5  14  -6   73.10   29.73
   5 -14  -5   96.98   28.93
  -5 -14   5   61.08   20.76
   5  14  -5   84.05   30.66
   5 -14  -4  175.57   36.43
  -5 -14   4  119.98   27.80
   5  14  -4   90.50   26.63
  -5 -14   3    4.25   12.59
   5 -14  -3    7.43   12.65
  -5 -14   3   11.51   12.19
   5  14  -3   13.17   13.83
   5 -14  -2    0.70    9.99
   5  14  -2  -21.82   14.50
  -5 -14   2   14.68   12.65
   5 -14  -1   -3.76   15.00
   5  14  -1  -12.99   10.21
  -5 -14   1   -0.44   10.38
   5 -14   0   62.78   24.12
  -5 -14   0   49.20   21.60
   5 -14   1   35.16   14.26
  -5 -14  -1   24.78   17.36
   5 -14   2  190.70   44.29
  -5 -14  -2  163.80   39.70
   5 -14   3  -11.21   20.20
  -5 -14  -3   42.29   25.40
  -5 -14  -4   -2.40   13.14
  -5 -14  -5   13.27   12.62
  -5 -14  -6   45.67   23.16
  -5 -14  -7   32.90   26.20
  -5 -14  -8   54.23   29.30
  -5 -14  -9   38.75   25.43
   5  15 -10   60.82   39.03
   5  15  -9   43.85   36.08
   5 -15  -8    7.33   13.17
   5  15  -8  -50.06   35.26
   5 -15  -7   12.30   12.95
   5  15  -7  -47.41   31.28
   5 -15  -6   28.25   18.41
  -5 -15   6  -11.81   11.72
   5  15  -6  -41.05   32.36
   5 -15  -5   15.30   15.98
  -5 -15   5   34.70   18.70
   5 -15  -4   55.25   23.20
  -5 -15   4   47.64   19.44
   5  15  -4   10.53   11.91
  -5 -15   3   91.25   30.87
   5 -15  -3   92.64   29.16
  -5 -15   3  114.06   27.20
   5  15  -3   47.51   17.22
   5 -15  -2   27.10   16.65
   5  15  -2   -3.01   12.49
  -5 -15   2   28.51   19.58
   5 -15  -1   99.60   30.92
   5  15  -1   52.68   17.98
  -5 -15   1   72.45   27.56
   5 -15   0   15.53   20.18
  -5 -15   0    4.05   14.00
   5 -15   1   -1.88   11.60
  -5 -15  -1   -7.65   11.35
   5 -15   2    9.47   18.41
  -5 -15  -2   28.99   20.45
   5 -15   3   57.58   25.67
  -5 -15  -3   56.16   25.83
  -5 -15  -4   34.93   19.93
  -5 -15  -5  115.36   37.67
  -5 -15  -6   31.02   24.92
  -5 -15  -7   29.78   22.70
  -5 -15  -8   33.77   26.43
  -5 -15  -9   57.40   32.51
   5  16 -10   49.07   33.21
   5  16  -9    0.22   26.37
   5  16  -8  -38.33   41.49
   5 -16  -7   16.69   15.23
   5  16  -7  -70.79   40.82
   5 -16  -6   80.53   26.91
  -5 -16   6  102.71   29.45
   5  16  -6   13.31   17.83
   5 -16  -5   50.34   20.90
  -5 -16   5   69.43   24.81
   5  16  -5   48.20   23.43
   5 -16  -4   34.54   16.99
  -5 -16   4   35.24   17.19
   5  16  -4   17.59   19.63
  -5 -16   3   26.12   22.01
   5 -16  -3    0.19   12.73
  -5 -16   3    5.71   10.45
   5  16  -3    0.54   13.72
  -5 -16   2   26.14   20.25
   5 -16  -2   -4.94   15.31
   5  16  -2    6.86   10.96
   5 -16  -1    8.44    9.56
  -5 -16   1   -6.04   14.12
   5 -16   0  104.01   33.06
  -5 -16   0   83.46   29.62
   5 -16   1   79.42   28.58
  -5 -16  -1   55.71   22.46
   5 -16   2    5.96   11.20
  -5 -16  -2   55.82   28.50
   5 -16   3   34.15   23.19
  -5 -16  -3   71.42   30.75
   5 -16   4    7.46   19.93
  -5 -16  -4   15.30   13.49
  -5 -16  -5   12.33   16.73
  -5 -16  -6   37.98   27.66
  -5 -16  -7   46.08   26.10
  -5 -16  -8   31.60   24.08
   5  17  -9   43.59   34.66
   5  17  -8  -65.39   41.49
   5 -17  -7   24.27   19.41
  -5 -17   7  -36.30   21.38
   5  17  -7  -41.17   34.86
   5 -17  -6    5.61   13.40
  -5 -17   6   28.05   17.66
   5 -17  -5   20.66   17.05
  -5 -17   5   31.35   18.86
   5  17  -5  -15.01   21.21
   5 -17  -4   52.64   22.74
  -5 -17   4   24.63   17.75
   5  17  -4   -0.37   16.80
  -5 -17   3   24.87   21.07
   5 -17  -3   -3.70   12.28
  -5 -17   3   24.71   16.56
   5  17  -3  -16.59   19.70
  -5 -17   2   40.75   23.36
   5 -17  -2   38.94   20.82
   5  17  -2   21.18   13.60
  -5 -17   1   59.65   27.39
   5 -17  -1   36.17   19.66
   5 -17   0   20.06   18.61
  -5 -17   0   21.62   18.00
   5 -17   1   16.12   16.75
  -5 -17  -1  -11.43   17.09
   5 -17   2   -9.63   20.40
  -5 -17  -2   -7.97   15.33
   5 -17   3  -41.35   26.91
  -5 -17  -3   34.66   23.00
   5 -17   4   18.82   16.62
  -5 -17  -4   19.13   16.07
   5 -17   5   47.89   27.38
  -5 -17  -5   33.25   20.77
  -5 -17  -6   35.41   23.62
  -5 -17  -7   -1.43   13.36
   5  18  -8    6.42   23.66
   5 -18  -7   27.11   19.35
  -5 -18   7   63.61   27.44
   5 -18  -6   60.60   25.86
  -5 -18   6    7.59   12.07
   5 -18  -5   29.89   17.83
  -5 -18   5   58.20   23.35
   5 -18  -4   12.49   14.92
  -5 -18   4   24.78   15.62
  -5 -18   3   27.17   20.49
   5 -18  -3   19.05   15.14
  -5 -18   3   31.88   17.98
   5  18  -3   10.92   14.71
  -5 -18   2   30.95   22.79
   5 -18  -2  -21.46   18.64
  -5 -18   1   36.53   22.62
   5 -18  -1   34.40   19.80
   5 -18   0   26.20   21.52
  -5 -18   0   29.44   21.77
   5 -18   1   43.33   23.31
  -5 -18  -1   44.82   24.95
   5 -18   2   44.03   25.65
  -5 -18  -2    8.69   15.20
   5 -18   3   53.68   26.68
  -5 -18  -3    1.27   15.29
   5 -18   4    7.95   18.11
  -5 -18  -4   21.00   18.92
   5 -18   5   22.44   20.17
  -5 -18  -5   31.49   27.74
  -5 -18  -6  -13.82   21.10
  -5 -19   7  -26.20   18.47
   5  19  -7  -84.65   46.32
   5 -19  -6   26.00   18.05
  -5 -19   6  -26.85   20.39
   5  19  -6  -76.71   46.17
   5 -19  -5   25.39   18.20
  -5 -19   5   -0.56   13.24
   5 -19  -4   21.65   12.20
  -5 -19   4   32.23   20.84
  -5 -19   3   33.12   23.84
   5 -19  -3   26.74   18.43
  -5 -19   3   27.22   19.37
   5  19  -3  -20.06   18.42
  -5 -19   2  117.27   38.33
   5 -19  -2   99.69   30.39
  -5 -19   1  -16.00   17.75
   5 -19  -1  -17.92   18.73
   5 -19   0   11.01   14.01
  -5 -19   0   23.46   19.95
   5 -19   1    7.67   15.49
  -5 -19  -1   -1.88   13.08
   5 -19   2   52.55   25.36
  -5 -19  -2  -25.24   26.68
   5 -19   3   22.32   19.24
  -5 -19  -3   35.26   22.34
   5 -19   4    9.70   17.22
  -5 -19  -4    2.36   15.42
   5 -19   5   14.57   21.19
  -5 -19  -5   17.73   18.64
   5 -19   6   65.78   38.06
   5 -20  -6   43.29   23.72
  -5 -20   6  -22.25   17.89
   5 -20  -5   30.63   19.00
  -5 -20   5   19.59   16.15
   5 -20  -4   27.40   18.48
  -5 -20   4    1.25   10.97
  -5 -20   3    2.15    9.53
   5 -20  -3   22.92   17.62
  -5 -20   3   -6.19   12.57
  -5 -20   2  -32.39   22.96
   5 -20  -2   12.76   17.66
  -5 -20   1   40.09   30.06
   5 -20  -1   15.65   18.59
   5 -20   0  -16.47   13.36
  -5 -20   0    6.62   16.77
   5 -20   1   64.26   26.49
  -5 -20  -1   69.48   30.67
   5 -20   2   29.76   20.89
  -5 -20  -2   11.97   17.95
   5 -20   3   44.49   24.68
  -5 -20  -3    9.21   15.62
   5 -20   4    0.44   15.03
  -5 -20  -4  -35.65   26.76
   5 -20   5   22.64   22.86
   5 -21  -5   30.47   20.13
  -5 -21   5  -18.34   17.60
   5 -21  -4   11.65   16.59
  -5 -21   4   24.11   18.19
  -5 -21   3    8.33   18.45
   5 -21  -3  -16.38   19.55
  -5 -21   3    0.74   10.26
  -5 -21   2   25.61   22.42
   5 -21  -2   27.74   17.44
  -5 -21   1   24.41   23.12
   5 -21  -1    0.27   11.34
  -5 -21   0   51.25   29.92
   5 -21   0    3.88   13.24
   5 -21   1  -30.50   23.61
  -5 -21  -1   -4.48   14.91
   5 -21   2   15.99   18.86
  -5 -21  -2  -15.78   22.67
   5 -21   3    3.81   13.34
   5 -21   4   22.48   20.41
   5 -22  -4   55.73   25.50
   5 -22  -3   18.41   18.58
  -5 -22   2   -0.97   16.08
   5 -22  -2   16.45   15.70
  -5 -22   1    4.49   17.22
   5 -22  -1   26.24   17.71
  -5 -22   0  -13.66   20.93
   5 -22   0   -8.64   14.57
   5 -22   1   57.75   27.18
   6   0 -11   20.49   19.80
   6   0 -10   33.35   19.19
   6   0  -9   59.90   25.50
   6   0  -8   75.84   27.32
   6   0  -7   22.11   17.87
   6   0  -6  153.34   33.78
   6   0  -5   46.04   21.47
   6   0  -4   58.45   21.60
   6   0  -3   -2.31    9.24
   6   0  -2   -6.51   12.10
   6   0  -1    7.47   14.34
   6   0   0  277.96   49.34
   6   0   1  -16.77   19.73
   6   0   2   54.54   25.47
  -6   0  -3   15.17   11.65
  -6   0  -4    9.39   11.69
  -6   0  -5   13.96   10.63
  -6   0  -6   71.00   23.70
  -6   0  -7   17.98   14.47
  -6   0  -8   66.78   24.38
  -6   0  -9  -34.33   20.88
  -6   0 -10   75.93   29.55
   6   1 -11   35.08   21.90
   6   1 -10   24.97   19.40
   6   1  -9  139.14   34.45
   6   1  -8   61.95   24.71
   6  -1  -8   41.05   22.46
   6   1  -8   45.18   21.19
   6   1  -7   85.43   27.47
   6  -1  -7  170.50   37.55
   6   1  -7  198.68   38.07
   6  -1  -6   29.34   16.92
   6   1  -6   21.12   15.13
   6  -1  -5  -12.31   13.39
   6   1  -5   -8.81   13.58
   6  -1  -4  -23.70   19.21
   6   1  -4   10.31   14.97
   6  -1  -3  127.01   31.84
   6   1  -3  145.53   32.68
   6  -1  -2   26.01   18.99
   6   1  -2   31.77   19.33
   6   1  -1  453.12   61.80
   6  -1  -1  432.79   60.82
   6  -1   0   11.97   13.98
   6   1   0  -13.41   17.98
   6  -1   1   30.72   18.71
   6   1   1    1.94   13.31
   6  -1   2    3.58   18.84
   6   1   2  -10.82   18.15
  -6   1  -3   34.48   16.64
  -6  -1  -3   40.33   18.07
  -6   1  -4   -9.71    9.03
  -6  -1  -4   19.34   16.71
  -6   1  -5  188.61   37.00
  -6  -1  -5  236.93   44.54
  -6   1  -6   -6.84   13.81
  -6  -1  -6   19.81   16.81
  -6   1  -7   26.46   17.14
  -6  -1  -7   64.57   25.90
  -6   1  -8    5.91   13.05
  -6  -1  -8   -0.11   12.93
  -6   1  -9    9.43   13.28
  -6  -1  -9   12.34   15.19
  -6   1 -10   25.46   18.41
  -6  -1 -10    6.08   12.08
   6   2 -11   15.13   14.19
   6   2 -10   69.39   27.52
   6   2  -9   34.32   22.57
   6   2  -8   66.20   27.13
   6  -2  -8   60.32   25.22
   6   2  -7   46.94   22.51
   6  -2  -7   39.88   20.22
   6   2  -7   45.64   20.79
   6   2  -6  157.58   33.28
   6  -2  -6  141.25   34.49
   6   2  -6  127.83   30.62
   6  -2  -5   -7.12   13.90
   6   2  -5    0.25    8.48
   6  -2  -4   47.53   22.42
   6   2  -4   51.79   20.14
   6  -2  -3   18.74   13.89
   6   2  -3   39.99   19.97
   6  -2  -2    1.64   14.40
   6   2  -2    0.84    9.27
   6  -2  -1   41.68   25.21
   6   2  -1   16.28   15.34
   6  -2   0  165.69   40.74
   6   2   0  188.87   40.47
   6  -2   1   43.06   26.77
   6   2   1   30.93   22.91
   6  -2   2  176.73   47.38
   6   2   2  132.51   36.57
  -6  -2  -2  166.67   33.02
  -6   2  -3    7.21    7.88
  -6  -2  -3   -7.83   11.93
  -6   2  -4   30.75   17.60
  -6  -2  -4    8.53   14.42
  -6   2  -5   -3.00    8.83
  -6  -2  -5   16.20   12.53
  -6   2  -6   92.16   29.44
  -6  -2  -6   77.16   28.13
  -6   2  -7   33.24   17.76
  -6  -2  -7   55.74   25.11
  -6   2  -8  131.08   34.90
  -6  -2  -8   57.74   26.38
  -6   2  -9    9.80   13.79
  -6  -2  -9   22.07   19.45
  -6   2 -10   31.84   23.52
  -6  -2 -10   26.75   17.92
   6   3 -11   -5.97   12.45
   6   3 -10   31.82   23.90
   6   3  -9  150.32   37.87
   6  -3  -8   66.70   28.44
   6   3  -8   21.17   17.81
   6  -3  -7  110.45   30.81
   6   3  -7  123.32   30.71
   6   3  -7  163.38   35.61
   6   3  -6   55.77   22.19
   6  -3  -6   32.87   19.51
   6   3  -6   19.58   14.84
   6  -3  -5    8.70   11.59
   6   3  -5  -16.39   11.19
   6  -3  -4    0.38   11.94
   6   3  -4   13.88   11.53
   6  -3  -3  125.88   33.23
   6   3  -3  137.52   31.32
   6  -3  -2   75.95   27.70
   6   3  -2   49.36   21.63
   6  -3  -1  184.79   42.58
   6   3  -1  239.08   42.94
   6  -3   0  -23.62   17.04
   6   3   0   11.44   12.53
   6  -3   1   36.64   24.54
   6   3   1   16.56   11.48
   6   3   2   27.23   18.05
  -6  -3  -2   27.25   13.87
  -6   3  -3   71.89   21.75
  -6  -3  -3  116.82   31.19
  -6   3  -4   19.40   13.82
  -6  -3  -4   26.61   18.12
  -6   3  -5  136.89   32.72
  -6  -3  -5  152.03   38.46
  -6   3  -6    1.58   12.49
  -6  -3  -6   21.12   18.15
  -6   3  -7   31.86   18.21
  -6  -3  -7   36.40   22.93
  -6   3  -8   24.72   19.62
  -6  -3  -8   12.95   13.99
  -6   3  -9   16.83   20.80
  -6  -3  -9   36.23   23.14
  -6   3 -10   10.43   15.75
   6   4 -11   21.47   19.02
   6   4 -10   41.20   25.93
   6   4  -9   24.41   17.32
   6  -4  -8   14.83   15.29
   6   4  -8   29.36   20.66
   6  -4  -7   48.86   20.85
   6   4  -7   44.69   19.73
   6   4  -7   51.10   23.44
   6  -4  -6   72.47   25.18
   6   4  -6  121.41   29.19
   6   4  -6  105.98   28.28
   6  -4  -5   95.80   29.36
   6   4  -5   43.85   19.03
   6   4  -5   46.78   20.29
   6   4  -4  108.80   27.24
   6  -4  -4   57.80   20.95
   6   4  -4   67.37   19.66
   6   4  -3  115.63   27.26
   6  -4  -3   40.89   19.55
   6   4  -3   64.38   22.55
   6  -4  -2   11.78   14.51
   6   4  -2    8.94   12.35
   6  -4  -1   22.86   20.91
   6   4  -1    6.09   13.06
   6  -4   0   31.63   21.99
   6   4   0   56.95   20.62
   6  -4   1   61.07   28.69
   6   4   1   79.64   27.09
   6  -4   2  148.78   41.44
   6   4   2  183.47   40.81
  -6  -4  -2  124.42   29.60
  -6  -4  -3   47.97   20.34
  -6   4  -4   19.96   15.92
  -6  -4  -4   -9.74   16.26
  -6   4  -5  -14.02   15.78
  -6  -4  -5   -6.74   14.00
  -6   4  -6   18.19   12.20
  -6  -4  -6   34.45   25.14
  -6   4  -7   40.14   21.55
  -6  -4  -7   41.10   23.30
  -6   4  -8   45.87   22.39
  -6  -4  -8  109.16   36.86
  -6   4  -9   44.80   23.28
  -6  -4  -9   64.27   34.50
   6   5 -11   46.85   28.84
   6   5 -10    9.73   14.11
   6   5  -9   60.83   27.37
   6  -5  -8   80.15   28.13
   6   5  -8   38.79   24.12
   6  -5  -7   66.94   24.79
   6   5  -7   48.43   21.95
   6  -5  -6   24.49   17.34
   6   5  -6   12.22   14.62
   6   5  -6   32.94   19.43
   6  -5  -5    0.29   11.16
   6   5  -5   19.14   13.82
   6   5  -5   21.44   16.55
   6  -5  -4   34.87   20.46
   6   5  -4   33.24   16.88
   6   5  -4   32.88   16.77
   6   5  -3  108.60   25.64
   6  -5  -3  174.21   38.67
   6   5  -3  125.66   29.00
   6  -5  -2  101.34   32.85
   6   5  -2   80.24   23.70
   6  -5  -1   93.30   29.66
   6   5  -1   78.59   25.16
   6  -5   0   14.42   15.84
   6   5   0   -6.67   10.05
   6  -5   1   44.35   25.05
   6   5   1   37.37   21.34
   6  -5   2    7.06   16.32
   6   5   2   28.16   19.12
  -6  -5  -2   46.12   19.74
  -6  -5  -3  109.38   31.81
  -6  -5  -4   96.84   30.75
  -6   5  -5  102.57   28.05
  -6  -5  -5   93.02   30.44
  -6   5  -6   15.68   14.43
  -6  -5  -6   29.38   21.32
  -6   5  -7   19.35   16.60
  -6  -5  -7   29.33   20.31
  -6   5  -8   33.88   19.74
  -6  -5  -8   11.03   19.84
  -6   5  -9   27.85   21.09
  -6  -5  -9    4.91   13.94
   6   6 -10   34.55   22.55
   6   6  -9   15.76   18.76
   6  -6  -8   18.60   18.63
   6   6  -8    3.03    9.66
   6  -6  -7   37.32   23.45
   6   6  -7   33.63   18.13
   6  -6  -6   41.62   21.44
   6   6  -6  111.16   27.41
   6   6  -6   53.06   21.09
   6  -6  -5  167.35   37.76
   6   6  -5  181.57   33.18
   6   6  -5  198.05   37.11
   6  -6  -4   61.88   25.39
   6   6  -4   87.83   23.34
   6   6  -4   95.15   26.71
   6  -6  -3   26.22   20.17
   6   6  -3   29.95   15.23
   6   6  -3   62.41   20.61
   6   6  -2   20.89   13.93
   6  -6  -2  -10.23   13.33
   6   6  -2    0.22    9.28
   6  -6  -1    1.84   11.46
   6   6  -1    6.19    9.07
   6  -6   0   50.50   25.54
   6   6   0   17.84   14.99
   6  -6   1  209.66   49.02
   6   6   1  154.12   34.85
   6  -6   2   72.86   35.08
   6   6   2   95.24   29.02
  -6  -6  -2   96.36   27.69
   6   6   3  131.86   34.39
  -6  -6  -3  101.65   30.31
  -6  -6  -4  -26.07   19.79
  -6  -6  -5   -5.59   14.57
  -6  -6  -6    2.96   13.03
  -6  -6  -7  101.50   37.24
  -6  -6  -8   23.40   20.36
  -6  -6  -9   54.34   26.47
   6   7 -10   40.16   27.78
   6   7  -9   59.87   29.50
   6  -7  -8   35.69   19.70
   6   7  -8   42.84   22.57
   6  -7  -7   21.99   16.14
   6   7  -7   41.04   23.05
   6  -7  -6   16.08   14.00
   6   7  -6   17.78   15.59
   6  -7  -5   -1.44   12.67
   6   7  -5   27.32   19.09
   6  -7  -4   91.64   28.57
   6   7  -4   72.03   20.53
   6   7  -4  106.22   27.54
   6  -7  -3   45.64   19.70
   6   7  -3   78.89   21.15
   6   7  -3   86.38   24.39
   6   7  -2   68.34   20.55
   6  -7  -2   92.70   31.40
   6   7  -2   59.84   19.65
   6   7  -1   64.23   20.33
   6  -7  -1   55.54   24.70
   6   7  -1   17.00   10.21
   6  -7   0   67.17   28.21
   6   7   0    2.00   13.05
   6  -7   1   12.92   19.56
   6   7   1    2.96   13.89
   6  -7   2  -35.38   27.79
   6   7   2    3.76   12.07
   6   7   3   10.50   15.03
  -6  -7  -3   23.08   18.14
  -6  -7  -4   60.15   24.49
  -6  -7  -5    4.89   11.88
  -6  -7  -6   37.64   25.22
  -6  -7  -7   15.07   17.67
  -6  -7  -8   23.26   22.04
  -6  -7  -9   10.48   20.81
   6   8 -10    8.38   16.34
   6   8  -9   14.03   14.99
   6  -8  -8   25.25   17.71
   6   8  -8  -14.97   14.04
   6  -8  -7   30.12   19.50
   6   8  -7   32.22   20.59
   6  -8  -6   -1.04   14.96
   6   8  -6   28.53   20.22
   6  -8  -5  186.18   40.27
   6   8  -5  151.42   33.72
   6  -8  -4   48.53   26.10
   6   8  -4   28.43   20.53
   6  -8  -3   15.96   12.47
   6   8  -3   39.94   16.87
   6  -8  -2   47.05   27.49
   6   8  -2    9.38   11.23
   6   8  -1   31.64   16.43
   6  -8  -1   -7.00   13.12
   6  -8   0   16.54   19.92
   6  -8   1  239.65   54.08
   6  -8   2    3.10   17.62
  -6  -8  -2   26.41   15.60
   6  -8   3  147.98   45.44
  -6  -8  -3  115.53   33.36
  -6  -8  -4   16.15   17.83
  -6  -8  -5   12.29   14.30
  -6  -8  -6    0.89   14.72
  -6  -8  -7   85.61   34.22
  -6  -8  -8   23.95   20.65
   6   9 -10   44.85   24.72
   6   9  -9   -7.39   16.00
   6  -9  -8   49.82   23.01
   6   9  -8   46.50   24.50
   6  -9  -7   -2.36   12.01
   6   9  -7   35.63   23.44
   6  -9  -6   29.66   21.08
   6   9  -6   15.46   16.71
   6  -9  -5   33.72   21.69
   6   9  -5   17.63   17.27
   6  -9  -4   56.08   23.12
   6   9  -4   82.82   25.23
   6  -9  -3   30.18   22.44
   6   9  -3   29.82   18.27
   6  -9  -2   88.17   30.08
   6   9  -2   96.34   24.33
   6   9  -1   20.81   13.93
   6  -9  -1   69.52   30.96
   6  -9   0   84.60   31.61
   6  -9   1  -24.38   23.53
  -6  -9  -1   -0.82   10.42
   6  -9   2   27.88   25.42
  -6  -9  -2   27.17   18.76
   6  -9   3  -11.90   24.84
  -6  -9  -3   -7.57   16.65
  -6  -9  -4  133.26   38.02
  -6  -9  -5  -12.42   18.48
  -6  -9  -6    7.30   17.29
  -6  -9  -7   13.93   21.38
  -6  -9  -8   -2.30   14.12
   6  10  -9    7.67   15.11
   6 -10  -8   30.51   22.63
   6  10  -8   24.65   20.23
   6 -10  -7   82.68   29.89
   6  10  -7   36.68   23.91
   6 -10  -6    0.05   12.12
   6  10  -6   10.21   13.66
   6 -10  -5  131.06   36.04
   6  10  -5   78.06   25.82
   6 -10  -4   16.54   14.79
   6  10  -4   12.04   15.87
   6 -10  -3   39.94   20.69
   6  10  -3   66.99   22.05
   6 -10  -2   34.24   25.94
   6  10  -2   44.82   17.93
   6 -10  -1   18.31   17.84
   6  10  -1   39.84   16.51
   6 -10   0   -4.83   14.05
   6 -10   1  190.19   47.85
  -6 -10  -1  106.52   31.39
   6 -10   2   22.39   22.35
  -6 -10  -2  -15.70   17.04
   6 -10   3   98.41   40.11
  -6 -10  -3   63.18   25.49
  -6 -10  -4   10.86   11.20
  -6 -10  -5   17.09   22.04
  -6 -10  -6   41.98   25.26
  -6 -10  -7   66.17   30.41
  -6 -10  -8   -7.32   18.94
   6  11  -9    7.87   19.16
   6 -11  -8  103.02   31.12
   6  11  -8   44.75   25.30
   6 -11  -7   33.99   20.61
   6  11  -7   18.75   16.37
   6 -11  -6   23.59   19.13
   6  11  -6    0.87   11.23
   6 -11  -5   28.61   21.53
   6  11  -5    8.79   11.76
   6 -11  -4   33.45   22.89
   6  11  -4   50.18   21.38
   6 -11  -3   -4.98   13.34
   6  11  -3   -1.86    9.87
   6 -11  -2  103.65   30.48
   6  11  -2  119.37   28.59
   6 -11  -1    3.70   18.77
   6 -11   0   59.83   30.24
   6 -11   1   45.34   26.52
  -6 -11  -1   -3.55   12.51
   6 -11   2   19.69   26.01
  -6 -11  -2   10.51   14.95
   6 -11   3  -26.20   28.48
  -6 -11  -3   25.22   17.70
   6 -11   4   70.96   33.74
  -6 -11  -4   54.95   25.42
  -6 -11  -5    4.41   14.40
  -6 -11  -6   68.81   31.56
  -6 -11  -7   11.66   20.12
   6 -12  -8   14.72   18.46
   6  12  -8   17.21   21.97
   6 -12  -7   73.38   29.43
   6  12  -7    4.12   12.34
   6 -12  -6   -8.54    9.93
   6  12  -6   -9.97   16.77
   6 -12  -5   79.50   27.47
   6  12  -5    8.31   10.48
   6 -12  -4    2.07   13.07
   6  12  -4   -0.68   10.43
   6 -12  -3   31.47   20.14
   6  12  -3   25.93   13.74
   6 -12  -2   -6.41   14.69
   6  12  -2   -1.52    7.17
   6 -12  -1   24.16   18.38
   6 -12   0  -20.11   23.04
   6 -12   1  147.09   46.61
  -6 -12  -1   62.09   27.36
   6 -12   2   33.12   22.46
  -6 -12  -2   25.97   21.00
   6 -12   3   81.19   37.14
  -6 -12  -3   88.41   34.44
   6 -12   4  -37.60   41.63
  -6 -12  -4   34.43   20.72
  -6 -12  -5   26.23   22.84
  -6 -12  -6  -40.03   26.57
  -6 -12  -7   40.79   26.36
   6  13  -8   18.61   16.59
   6 -13  -7   35.00   22.55
   6  13  -7  -31.38   22.24
   6 -13  -6   45.01   23.21
   6  13  -6  -13.15   18.21
   6 -13  -5   -8.57   14.85
   6  13  -5  -40.88   24.26
   6 -13  -4   36.81   20.45
   6  13  -4   23.92   17.16
   6 -13  -3  -16.86   19.89
   6  13  -3   17.79   13.46
   6 -13  -2   65.54   25.85
   6 -13  -1   18.94   19.04
   6 -13   0   29.75   23.91
   6 -13   1  -32.79   25.70
  -6 -13  -1    6.68   15.86
   6 -13   2  -16.74   24.25
  -6 -13  -2   24.90   22.75
   6 -13   3  -15.34   22.05
  -6 -13  -3   27.84   23.88
   6 -13   4   22.81   24.16
  -6 -13  -4   23.11   22.74
   6 -13   5   36.72   21.45
  -6 -13  -5   27.45   22.13
  -6 -13  -6   57.87   28.79
   6  14  -7   -7.63   16.62
   6 -14  -6   47.21   23.15
   6  14  -6    7.95   17.17
   6 -14  -5   71.84   28.59
   6  14  -5   41.36   18.79
   6 -14  -4    4.31   13.42
   6  14  -4   -9.13   13.95
   6 -14  -3    7.91   14.24
   6  14  -3   -6.35   10.42
   6 -14  -2   -2.59   19.49
   6 -14  -1   13.10   19.02
   6 -14   0   43.13   28.02
   6 -14   1   48.78   30.64
  -6 -14  -1   63.74   28.15
   6 -14   2   40.93   34.30
  -6 -14  -2   24.99   23.50
   6 -14   3   19.49   22.30
  -6 -14  -3   21.16   20.03
   6 -14   4  -14.49   26.78
  -6 -14  -4   22.45   20.60
  -6 -14  -5   15.04   19.25
   6  15  -6    6.43   11.20
   6 -15  -5   23.95   19.27
   6  15  -5   -0.84   10.54
   6 -15  -4   24.63   20.83
   6  15  -4   35.16   20.46
   6 -15  -3   13.00   15.63
   6 -15  -2   39.54   24.77
   6 -15  -1   35.06   23.13
   6 -15   0   37.47   25.80
   6 -15   1   17.30   23.01
  -6 -15  -1   -2.12   12.22
   6 -15   2  -10.30   17.91
  -6 -15  -2    7.66   17.00
   6 -15   3    6.66   19.14
  -6 -15  -3   67.62   34.91
  -6 -15  -4   70.69   30.23
   6  16  -6  -22.21   23.89
   6  16  -5   36.67   21.97
   6 -16  -4    7.14   14.27
   6 -16  -3  -14.49   18.54
   6 -16  -2  -19.79   19.41
   6 -16  -1   -9.42   15.11
   6 -16   0  -14.27   19.94
   6 -16   1   60.05   29.78
   6 -16   2  -12.37   18.27
  -6 -16  -2   -4.38   15.17
  -6 -16  -3   36.06   28.59
  -6 -17  -2   33.25   24.11
   7   0  -7   73.30   28.29
   7   0  -6   50.22   23.96
   7   0  -5   75.65   26.39
   7   0  -4   17.29   14.52
   7   0  -3   63.70   25.61
   7   0  -2  -12.70   16.68
   7   0  -1  -35.74   23.61
   7   0   0   33.02   23.95
   7   0   1  160.57   46.79
   7   0   2    2.81   16.47
   7   0   3  125.23   48.08
   7   0   4   17.49   26.89
   7  -1  -7   54.44   24.45
   7   1  -7   35.32   22.00
   7  -1  -6    5.42   10.77
   7   1  -6   14.48   14.29
   7  -1  -5   16.48   15.82
   7   1  -5   13.48   15.12
   7  -1  -4    2.94   11.50
   7   1  -4   55.43   22.96
   7  -1  -3  -11.63   14.03
   7   1  -3   -0.28   11.06
   7  -1  -2   41.23   23.36
   7   1  -2   36.22   18.90
   7  -1  -1   34.98   23.25
   7   1  -1  -13.27   17.15
   7  -1   0   31.06   22.45
   7   1   0   72.68   30.72
   7  -1   1   -8.25   15.31
   7   1   1   64.88   34.81
   7  -1   2   13.32   19.58
   7   1   2  -14.38   21.17
   7  -1   3   15.77   26.60
   7   1   3  -31.53   32.25
   7  -1   4   14.96   24.11
   7   1   4   -2.24   20.08
   7   1   5  -57.10   44.57
   7   2  -7   56.27   24.69
   7  -2  -6   45.74   26.03
   7   2  -6   22.76   17.01
   7  -2  -5  145.20   37.84
   7   2  -5   95.90   30.24
   7  -2  -4    7.80   12.74
   7   2  -4   36.94   21.01
   7  -2  -3   22.30   16.77
   7   2  -3   35.27   19.24
   7  -2  -2   -7.87   13.44
   7   2  -2   25.84   19.34
   7  -2  -1   43.23   25.95
   7   2  -1    7.58   12.42
   7  -2   0   -8.49   13.87
   7   2   0   24.94   20.11
   7  -2   1  118.46   41.31
   7   2   1   60.20   27.09
   7  -2   2  -11.08   16.82
   7   2   2   31.57   22.19
   7  -2   3   61.33   33.18
   7   2   3   69.95   32.49
   7  -2   4  -61.25   46.30
   7   2   4  -39.04   29.86
   7   2   5  -28.50   34.22
   7  -3  -6   36.90   22.72
   7   3  -6   22.43   16.20
   7  -3  -5   39.60   23.55
   7   3  -5    7.66   12.75
   7  -3  -4    2.09   10.39
   7   3  -4   20.21   15.81
   7  -3  -3   -4.35   15.99
   7   3  -3   25.21   16.92
   7  -3  -2   14.87   12.41
   7   3  -2   58.65   23.38
   7  -3  -1   43.32   26.27
   7   3  -1   -2.36   14.91
   7  -3   0   31.01   24.79
   7   3   0   37.57   21.90
   7  -3   1   43.30   29.48
   7   3   1   40.57   25.67
   7  -3   2   16.52   20.90
   7   3   2   16.24   19.71
   7  -3   3  -28.59   29.62
   7   3   3   21.14   24.57
   7   3   4   38.91   27.18
   7   3   5  -71.26   45.20
   7  -4  -6   34.94   22.14
   7  -4  -5   52.57   25.86
   7  -4  -4  -18.76   15.19
   7   4  -4   28.81   16.58
   7  -4  -3   36.49   21.73
   7   4  -3   18.40   16.40
   7  -4  -2  -48.58   29.50
   7   4  -2  -12.78   11.64
   7  -4  -1    4.73   12.36
   7   4  -1    4.74   11.47
   7  -4   0   18.49   21.97
   7   4   0   23.70   19.67
   7  -4   1   76.47   38.99
   7   4   1   75.69   30.93
   7  -4   2   61.08   35.84
   7   4   2    1.95   12.33
   7  -4   3   55.03   40.69
   7   4   3   53.85   27.91
   7   4   4   47.43   31.74
   7  -5  -5   47.24   26.20
   7  -5  -4   12.37   17.60
   7  -5  -3   39.62   25.08
   7  -5  -2    8.70   17.11
   7  -5  -1   87.79   34.97
   7  -5   0   50.06   27.88
   7  -5   1   34.16   29.43
   7  -5   2   33.26   26.28
   7  -6  -4   15.89   18.30
   7  -6  -3   34.89   22.89
   7  -6  -2  -30.84   24.91
   7  -6  -1   14.69   21.99
   7  -6   0   67.48   35.21
   7  -6   1   31.15   31.36
   7  -6   2   69.53   38.08
   7  -7  -3   23.90   17.92
   7  -7  -2  -49.40   29.89
   7  -7  -1  114.91   39.11
   7  -7   0   74.31   38.76
   7  -7   1   54.93   39.99
   7   8  -5   66.45   27.36
   0   0   0    0.00    0.00






TITL PbBr2-DMF in P2(1)/n
REM P2(1)/n (#14 in standard setting)
CELL 0.71073   4.348262  17.667695  11.480646  90.0000  93.5755  90.0000
ZERR   16.00   0.000215   0.001208   0.000712   0.0000   0.0054   0.0000
LATT  1
SYMM -x+1/2, y+1/2,-z+1/2
SFAC B P
UNIT 32.00 16.00
TREF
HKLF 4
END
_computing_structure_solution     'SHELXT 2014/5 (Sheldrick, 2014)'
_computing_structure_solution     'SHELXT 2014/5 (Sheldrick, 2014)'
_computing_structure_solution     'SHELXT 2014/5 (Sheldrick, 2014)'
_computing_structure_solution     'SHELXT 2014/5 (Sheldrick, 2014)'
_computing_structure_solution     'SHELXT 2014/5 (Sheldrick, 2014)'
;
_shelx_hkl_checksum              42214
loop_
_space_group_symop_operation_xyz
'x, y, z'
'-x+1/2, y+1/2, -z+1/2'
'-x, -y, -z'
'x-1/2, -y-1/2, z-1/2'
loop_
_atom_site_label
_atom_site_type_symbol
_atom_site_fract_x
_atom_site_fract_y
_atom_site_fract_z
_atom_site_U_iso_or_equiv
_atom_site_adp_type
_atom_site_occupancy
_atom_site_site_symmetry_order
_atom_site_calc_flag
_atom_site_refinement_flags_posn
_atom_site_refinement_flags_adp
Pb1 Pb 0.73239(6) 0.52275(2) 0.32591(3) 0.03388(12) Uani 1 1 d . .
Br1 Br 0.25724(18) 0.60160(5) 0.47096(9) 0.0430(2) Uani 1 1 d . .
Br2 Br 1.2098(2) 0.46089(7) 0.17619(10) 0.0601(3) Uani 1 1 d . .
O1 O 0.6793(16) 0.6365(4) 0.2122(6) 0.0580(18) Uani 1 1 d . .
N1 N 0.3916(17) 0.7017(4) 0.0791(7) 0.0432(17) Uani 1 1 d . .
C2 C 0.557(2) 0.6439(6) 0.1117(9) 0.050(2) Uani 1 1 d . .
H2 H 0.5871 0.6059 0.0575 0.060 Uiso 1 1 calc R U
C1 C 0.322(2) 0.7601(6) 0.1622(9) 0.056(3) Uani 1 1 d . .
H1A H 0.3028 0.7378 0.2376 0.083 Uiso 1 1 calc R U
H1B H 0.1323 0.7846 0.1372 0.083 Uiso 1 1 calc R U
H1C H 0.4856 0.7968 0.1670 0.083 Uiso 1 1 calc R U
C3 C 0.263(2) 0.7100(6) -0.0428(9) 0.060(3) Uani 1 1 d . .
H3A H 0.3571 0.6735 -0.0913 0.089 Uiso 1 1 calc R U
H3B H 0.3047 0.7601 -0.0702 0.089 Uiso 1 1 calc R U
H3C H 0.0446 0.7018 -0.0458 0.089 Uiso 1 1 calc R U
loop_
_atom_site_aniso_label
_atom_site_aniso_U_11
_atom_site_aniso_U_22
_atom_site_aniso_U_33
_atom_site_aniso_U_23
_atom_site_aniso_U_13
_atom_site_aniso_U_12
Pb1 0.02944(16) 0.0394(2) 0.03241(17) 0.00307(15) -0.00161(11) 0.00183(11)
Br1 0.0439(4) 0.0376(5) 0.0472(5) -0.0045(4) 0.0010(4) 0.0005(3)
Br2 0.0447(5) 0.0796(8) 0.0562(6) -0.0341(6) 0.0053(5) -0.0088(5)
O1 0.078(5) 0.045(4) 0.048(4) 0.011(4) -0.015(4) 0.003(3)
N1 0.053(4) 0.036(4) 0.040(4) -0.001(4) 0.003(3) -0.001(3)
C2 0.071(6) 0.038(5) 0.041(5) 0.008(5) -0.002(5) 0.005(5)
C1 0.058(6) 0.057(7) 0.051(6) -0.006(6) -0.001(5) 0.008(5)
C3 0.087(8) 0.051(7) 0.039(5) 0.002(5) -0.010(5) -0.007(5)
loop_
_atom_type_symbol
_atom_type_description
_atom_type_scat_dispersion_real
_atom_type_scat_dispersion_imag
_atom_type_scat_source
Br Br -0.2901 2.4595 'International Tables Vol C Tables 4.2.6.8 and 6.1.1.4'
Pb Pb -3.3944 10.1111 'International Tables Vol C Tables 4.2.6.8 and 6.1.1.4'
C C 0.0033 0.0016 'International Tables Vol C Tables 4.2.6.8 and 6.1.1.4'
H H 0.0000 0.0000 'International Tables Vol C Tables 4.2.6.8 and 6.1.1.4'
N N 0.0061 0.0033 'International Tables Vol C Tables 4.2.6.8 and 6.1.1.4'
O O 0.0106 0.0060 'International Tables Vol C Tables 4.2.6.8 and 6.1.1.4'
loop_
_geom_angle_atom_site_label_1
_geom_angle_atom_site_label_2
_geom_angle_atom_site_label_3
_geom_angle
_geom_angle_site_symmetry_1
_geom_angle_site_symmetry_3
O1 Pb1 Br2 87.10(17) . 1_455
O1 Pb1 Br2 92.31(17) . .
Br2 Pb1 Br2 93.81(3) 1_455 .
O1 Pb1 Br1 82.51(17) . .
Br2 Pb1 Br1 87.96(3) 1_455 .
Br2 Pb1 Br1 174.44(3) . .
O1 Pb1 Br1 87.59(17) . 1_655
Br2 Pb1 Br1 174.55(3) 1_455 1_655
Br2 Pb1 Br1 87.62(3) . 1_655
Br1 Pb1 Br1 90.14(3) . 1_655
O1 Pb1 Br1 165.28(18) . 3_666
Br2 Pb1 Br1 98.31(3) 1_455 3_666
Br2 Pb1 Br1 100.92(3) . 3_666
Br1 Pb1 Br1 84.01(3) . 3_666
Br1 Pb1 Br1 86.57(3) 1_655 3_666
Pb1 Br1 Pb1 90.14(3) . 1_455
Pb1 Br1 Pb1 95.99(3) . 3_666
Pb1 Br1 Pb1 93.43(2) 1_455 3_666
Pb1 Br2 Pb1 93.81(3) 1_655 .
C2 O1 Pb1 127.7(7) . .
C2 N1 C1 120.5(9) . .
C2 N1 C3 121.5(9) . .
C1 N1 C3 118.0(8) . .
O1 C2 N1 123.2(10) . .
O1 C2 H2 118.4 . .
N1 C2 H2 118.4 . .
N1 C1 H1A 109.5 . .
N1 C1 H1B 109.5 . .
H1A C1 H1B 109.5 . .
N1 C1 H1C 109.5 . .
H1A C1 H1C 109.5 . .
H1B C1 H1C 109.5 . .
N1 C3 H3A 109.5 . .
N1 C3 H3B 109.5 . .
H3A C3 H3B 109.5 . .
N1 C3 H3C 109.5 . .
H3A C3 H3C 109.5 . .
H3B C3 H3C 109.5 . .
loop_
_geom_bond_atom_site_label_1
_geom_bond_atom_site_label_2
_geom_bond_distance
_geom_bond_site_symmetry_2
Pb1 O1 2.400(7) .
Pb1 Br2 2.9708(11) 1_455
Pb1 Br2 2.9838(10) .
Pb1 Br1 3.0679(9) .
Pb1 Br1 3.0738(10) 1_655
Pb1 Br1 3.2022(10) 3_666
Br1 Pb1 3.0738(10) 1_455
Br1 Pb1 3.2022(10) 3_666
Br2 Pb1 2.9708(11) 1_655
O1 C2 1.246(12) .
N1 C2 1.292(12) .
N1 C1 1.451(12) .
N1 C3 1.481(12) .
C2 H2 0.9300 .
C1 H1A 0.9600 .
C1 H1B 0.9600 .
C1 H1C 0.9600 .
C3 H3A 0.9600 .
C3 H3B 0.9600 .
C3 H3C 0.9600 .
loop_
_geom_torsion_atom_site_label_1
_geom_torsion_atom_site_label_2
_geom_torsion_atom_site_label_3
_geom_torsion_atom_site_label_4
_geom_torsion
Pb1 O1 C2 N1 141.5(8)
C1 N1 C2 O1 -3.9(15)
C3 N1 C2 O1 177.0(9)
