#------------------------------------------------------------------------------
#$Date: 2019-10-29 23:32:28 +0200 (Tue, 29 Oct 2019) $
#$Revision: 220449 $
#$URL: file:///home/coder/svn-repositories/cod/cif/4/00/30/4003030.cif $
#------------------------------------------------------------------------------
#
# This file is available in the Crystallography Open Database (COD),
# http://www.crystallography.net/
#
# All data on this site have been placed in the public domain by the
# contributors.
#
data_4003030
loop_
_publ_author_name
'Owens-Baird, Bryan'
'Xu, Junyuan'
'Petrovykh, Dmitri Y.'
'Bondarchuk, Oleksandr'
'Ziouani, Yasmine'
'Gonz\'alez-Ballesteros, Noelia'
'Yox, Philip'
'Sapountzi, Foteini M.'
'Niemantsverdriet, Hans'
'Kolen&#x2019;ko, Yury V.'
'Kovnir, Kirill'
_publ_section_title
;
 NiP2: A Story of Two Divergent Polymorphic Multifunctional Materials
;
_journal_issue                   9
_journal_name_full               'Chemistry of Materials'
_journal_page_first              3407
_journal_paper_doi               10.1021/acs.chemmater.9b00565
_journal_volume                  31
_journal_year                    2019
_chemical_formula_sum            'Ni P2'
_chemical_formula_weight         120.65
_space_group_crystal_system      monoclinic
_space_group_IT_number           15
_space_group_name_Hall           '-C 2yc'
_space_group_name_H-M_alt        'C 1 2/c 1'
_symmetry_space_group_name_Hall  '-C 2yc'
_symmetry_space_group_name_H-M   'C 1 2/c 1'
_atom_sites_solution_primary     direct
_atom_sites_solution_secondary   difmap
_audit_creation_method           SHELXL-2014/7
_cell_angle_alpha                90
_cell_angle_beta                 119.628(2)
_cell_angle_gamma                90
_cell_formula_units_Z            4
_cell_length_a                   6.3742(3)
_cell_length_b                   5.6156(3)
_cell_length_c                   5.6288(3)
_cell_measurement_reflns_used    5128
_cell_measurement_temperature    100(2)
_cell_measurement_theta_max      36.385
_cell_measurement_theta_min      5.17
_cell_volume                     175.139(16)
_computing_cell_refinement       'SAINT (8.34a) (Bruker, 2013)'
_computing_data_collection       'Apex3 (2016.9) (Bruker, 2016)'
_computing_data_reduction        'SAINT (8.34a) (Bruker, 2013)'
_computing_molecular_graphics    'Bruker SHELXTL'
_computing_publication_material  'Bruker SHELXTL'
_computing_structure_refinement  'SHELXL-2016/6 (Sheldrick, 2016)'
_computing_structure_solution    'SHELXT (Sheldrick, 2014)'
_diffrn_ambient_temperature      100(2)
_diffrn_measured_fraction_theta_full 1.000
_diffrn_measured_fraction_theta_max 1.000
_diffrn_measurement_device_type  'Bruker Photon100 CMOS'
_diffrn_measurement_method       'profile scans from /w and /p scans'
_diffrn_radiation_type           MoK\a
_diffrn_radiation_wavelength     0.71073
_diffrn_reflns_av_R_equivalents  0.0617
_diffrn_reflns_av_unetI/netI     0.0287
_diffrn_reflns_Laue_measured_fraction_full 1.000
_diffrn_reflns_Laue_measured_fraction_max 1.000
_diffrn_reflns_limit_h_max       10
_diffrn_reflns_limit_h_min       -10
_diffrn_reflns_limit_k_max       9
_diffrn_reflns_limit_k_min       -9
_diffrn_reflns_limit_l_max       9
_diffrn_reflns_limit_l_min       -9
_diffrn_reflns_number            5128
_diffrn_reflns_point_group_measured_fraction_full 1.000
_diffrn_reflns_point_group_measured_fraction_max 1.000
_diffrn_reflns_theta_full        25.242
_diffrn_reflns_theta_max         36.385
_diffrn_reflns_theta_min         5.169
_diffrn_source                   Micro-source
_exptl_absorpt_coefficient_mu    12.310
_exptl_absorpt_correction_T_max  0.7471
_exptl_absorpt_correction_T_min  0.4579
_exptl_absorpt_correction_type   multi-scan
_exptl_absorpt_process_details   'SADABS 2016/2 (Sheldrick, 2016)'
_exptl_crystal_colour            Silver
_exptl_crystal_density_diffrn    4.576
_exptl_crystal_density_meas      ?
_exptl_crystal_density_method    'not measured'
_exptl_crystal_description       Block
_exptl_crystal_F_000             232
_exptl_crystal_size_max          0.12
_exptl_crystal_size_mid          0.10
_exptl_crystal_size_min          0.07
_refine_diff_density_max         0.923
_refine_diff_density_min         -1.074
_refine_diff_density_rms         0.239
_refine_ls_extinction_coef       0.117(5)
_refine_ls_extinction_expression Fc^*^=kFc[1+0.001xFc^2^\l^3^/sin(2\q)]^-1/4^
_refine_ls_extinction_method     'SHELXL-2014/7 (Sheldrick 2014'
_refine_ls_goodness_of_fit_ref   1.228
_refine_ls_hydrogen_treatment    undef
_refine_ls_matrix_type           full
_refine_ls_number_parameters     17
_refine_ls_number_reflns         425
_refine_ls_number_restraints     0
_refine_ls_restrained_S_all      1.228
_refine_ls_R_factor_all          0.0184
_refine_ls_R_factor_gt           0.0179
_refine_ls_shift/su_max          0.000
_refine_ls_shift/su_mean         0.000
_refine_ls_structure_factor_coef Fsqd
_refine_ls_weighting_details
'w=1/[\s^2^(Fo^2^)+(0.0114P)^2^+0.0482P] where P=(Fo^2^+2Fc^2^)/3'
_refine_ls_weighting_scheme      calc
_refine_ls_wR_factor_gt          0.0392
_refine_ls_wR_factor_ref         0.0394
_reflns_Friedel_coverage         0.000
_reflns_number_gt                415
_reflns_number_total             425
_reflns_threshold_expression     'I > 2\s(I)'
_cod_data_source_file            cm9b00565_si_003.cif
_cod_data_source_block           PY_209_NiP2less_0m
_cod_depositor_comments
;
The following automatic conversions were performed:

'_exptl_crystal_density_meas' value 'not measured' was changed to '?'
- the value is perceived as not measured.

Automatic conversion script
Id: cif_fix_values 4973 2017-02-22 13:04:09Z antanas 
;
_cod_original_cell_volume        175.140(16)
_cod_database_code               4003030
_shelx_shelxl_version_number     2014/7
_shelx_space_group_comment
;
The symmetry employed for this shelxl refinement is uniquely defined
by the following loop, which should always be used as a source of
symmetry information in preference to the above space-group names.
They are only intended as comments.
;
_shelx_res_file
;

    PY_209_NiP2less_0m.res created by SHELXL-2014/7


TITL PY_209_NiP2less_0m in C2/c
CELL 0.71073   6.37420   5.61560   5.62880  90.0000 119.6278  90.0000
ZERR    4.00   0.00030   0.00030   0.00030   0.0000   0.0022   0.0000
LATT  7
SYMM -X, Y, 0.5-Z
SFAC P NI
UNIT 8 4
TEMP -173.130

L.S. 14
BOND
list
FMAP 2
PLAN -20
acta

WGHT    0.011400    0.048200
EXTI    0.117472
FVAR       0.27575
MOLE   1
NI1   2    0.250000    0.250000    0.000000    10.50000    0.00408    0.00272 =
         0.00242   -0.00021    0.00220   -0.00038
P1    1    0.198906    0.115113    0.336094    11.00000    0.00349    0.00332 =
         0.00261    0.00015    0.00175    0.00008
MOLE   2
HKLF 4

REM  PY_209_NiP2less_0m in C2/c
REM R1 =  0.0179 for     415 Fo > 4sig(Fo)  and  0.0184 for all     425 data
REM     17 parameters refined using      0 restraints

END

WGHT      0.0112      0.0482

REM Highest difference peak  0.923,  deepest hole -1.074,  1-sigma level  0.239
Q1    1   0.2509  0.1557  0.0785  11.00000  0.05    0.92
Q2    1   0.2500  0.2500 -0.5000  10.50000  0.05    0.90
Q3    1   0.2507  0.1830 -0.1019  11.00000  0.05    0.86
Q4    1   0.2765  0.1467 -0.1754  11.00000  0.05    0.55
Q5    1   0.2091  0.1851  0.2302  11.00000  0.05    0.54
Q6    1   0.2152  0.0327  0.2790  11.00000  0.05    0.51
Q7    1   0.0893  0.1384  0.1195  11.00000  0.05    0.39
Q8    1   0.3214  0.0501 -0.0693  11.00000  0.05    0.38
Q9    1   0.2650  0.5191  0.0399  11.00000  0.05    0.38
Q10   1   0.4052  0.0601  0.0897  11.00000  0.05    0.35
Q11   1   0.2586  0.1212 -0.4138  11.00000  0.05    0.33
Q12   1   0.3090  0.0932 -0.2592  11.00000  0.05    0.32
Q13   1   0.1964  0.5234 -0.0800  11.00000  0.05    0.29
Q14   1   0.1087  0.1560 -0.1816  11.00000  0.05    0.26
Q15   1   0.5416  0.2477 -0.0804  11.00000  0.05    0.25
Q16   1  -0.0693  0.0732  0.0722  11.00000  0.05    0.25
Q17   1   0.1314  0.0205 -0.1806  11.00000  0.05    0.22
Q18   1   0.5000  0.1991 -0.2500  10.50000  0.05    0.20
Q19   1   0.4690  0.1450 -0.1754  11.00000  0.05    0.20
Q20   1   0.5000  0.0900  0.2500  10.50000  0.05    0.20
;
_shelx_res_checksum              32909
_shelx_hkl_file
;
   2   0   0 1000.00   69.65
  -4   0   0  491.69   32.83
  -4   0   0  412.32   31.79
   4   0   0  459.18   32.13
   4   0   0  450.16   31.86
  -4   0   0  472.88   32.00
   6   0   0   62.21    4.44
  -6   0   0   48.82    5.80
   6   0   0   57.19    4.59
  -6   0   0   62.56    4.25
   8   0   0    1.37    0.75
  -8   0   0    1.14    3.11
   8   0   0    4.28    2.00
  -8   0   0    2.63    1.35
   8   0   0    4.03    1.32
  -8   0   0    1.11    1.58
   8   0   0    0.85    1.31
  -8   0   0    1.35    2.24
  -1  -1   0   34.54    3.16
  -1  -1   0   36.26    2.90
   1  -1   0   45.44    2.85
  -1  -1   0   41.42    2.80
   1   1   0   39.04    2.79
   1   1   0   34.81    2.95
   1   1   0   38.92    3.20
  -3  -1   0  136.67   10.62
   3  -1   0  146.86    9.49
  -3  -1   0  124.67    9.50
  -3  -1   0  129.18    9.43
   3  -1   0  130.31    9.67
   3   1   0  133.94    9.53
  -3   1   0  129.32    9.62
   3   1   0  132.98    9.76
   3   1   0  153.57   10.44
   5  -1   0  116.18    8.66
  -5  -1   0  112.70    8.29
  -5  -1   0  125.59    9.79
  -5  -1   0  119.20    8.53
   5   1   0  123.04    8.37
   5   1   0  123.75    8.81
   5   1   0  118.54    8.39
  -5   1   0  105.21    8.70
  -5   1   0  111.73   10.69
   7  -1   0   48.12    3.36
   7  -1   0   37.04    3.73
  -7  -1   0   38.11    3.84
  -7  -1   0   40.71    3.11
   7  -1   0   41.31    3.95
   7  -1   0   43.05    3.25
  -7  -1   0   35.50    4.01
  -7  -1   0   45.22    6.47
  -7   1   0   45.91    3.64
   7   1   0   43.48    3.38
   7   1   0   40.03    3.97
   7   1   0   43.00    4.13
  -7   1   0   38.41    3.98
   9  -1   0    0.22    1.55
  -9  -1   0    3.95    5.86
  -9  -1   0    0.88    4.30
   9  -1   0   -0.35    1.03
   9  -1   0    3.83    2.00
  -9  -1   0    1.76    1.69
   9   1   0    0.93    2.11
  -9   1   0    4.95    4.25
   9   1   0    2.80    0.91
   9   1   0    2.68    1.10
   9   1   0    1.80    1.93
  -9   1   0    0.60    2.38
  -9   1   0    2.86    1.61
  -9   1   0    2.20    4.03
   0  -2   0  293.88   24.80
   0  -2   0  396.61   24.22
   0   2   0  351.08   24.38
  -2  -2   0  310.99   24.63
  -2  -2   0  344.71   23.84
   2  -2   0  382.69   23.95
   2   2   0  326.00   24.67
   2   2   0  342.76   24.06
   4  -2   0  250.74   17.44
  -4  -2   0  229.82   17.49
   4  -2   0  236.15   17.69
  -4  -2   0  284.43   17.72
  -4  -2   0  230.99   18.72
   4   2   0  286.36   18.98
   4   2   0  239.09   17.86
   4   2   0  237.53   17.50
  -6  -2   0  138.28   10.37
   6  -2   0  157.71   10.44
  -6  -2   0  122.00   10.74
   6  -2   0  163.19   10.40
   6  -2   0  136.86   10.78
   6   2   0  151.40   11.11
  -6   2   0  144.99   10.64
   6   2   0  151.10   10.49
   6   2   0  148.66   10.46
   8  -2   0   84.20    7.12
  -8  -2   0   81.37    6.41
  -8  -2   0   86.57    9.29
  -8  -2   0   89.32    7.11
   8  -2   0   93.35    7.26
   8   2   0   83.43    7.35
   8   2   0   80.29    7.36
   8   2   0   87.50    6.60
  -8   2   0   94.80    7.10
   8   2   0   95.29    6.59
  -8   2   0   91.50    9.07
  -8   2   0   93.11    8.76
   1  -3   0   13.72    1.02
  -1  -3   0   10.86    0.96
  -1  -3   0   11.46    1.01
   1  -3   0   12.61    1.09
   1   3   0   11.05    1.03
   1   3   0   10.13    1.33
  -1   3   0   11.53    1.06
   1   3   0   10.25    1.73
  -1   3   0    9.38    1.81
   3  -3   0   60.22    4.32
  -3  -3   0   47.98    5.37
  -3  -3   0   53.05    4.17
   3   3   0   54.60    4.15
   3   3   0   59.67    4.02
   3   3   0   54.67    4.57
   3   3   0   62.85    5.55
  -3   3   0   61.72    4.27
   5  -3   0   54.98    4.25
  -5  -3   0   53.01    3.98
   5  -3   0   59.95    3.91
  -5   3   0   43.63    4.37
   5   3   0   48.05    3.96
   5   3   0   55.74    4.04
   5   3   0   53.58    4.59
  -5   3   0   53.30    4.16
  -7  -3   0   17.00    2.80
   7  -3   0   18.62    2.18
  -7  -3   0   18.59    5.10
   7  -3   0   22.29    2.73
  -7  -3   0   19.20    1.76
   7  -3   0   18.95    2.04
   7  -3   0   20.68    2.28
   7   3   0   17.83    3.12
   7   3   0   19.36    1.90
   7   3   0   13.05    3.50
   7   3   0   19.32    1.84
  -7   3   0   15.67    4.17
  -7   3   0   11.12    2.65
  -7   3   0   21.92    2.22
   7   3   0   20.64    2.83
  -7   3   0   14.95    3.92
  -7   3   0   22.13    2.86
   0  -4   0    3.82    0.52
   0   4   0    2.74    1.46
   0   4   0    3.31    0.68
   0   4   0    4.88    1.21
   2  -4   0   20.59    1.70
  -2  -4   0   14.20    2.98
  -2  -4   0   21.23    1.62
   2   4   0   18.12    1.57
   2   4   0   18.39    2.69
   2   4   0   16.61    2.09
  -2   4   0   17.15    2.83
  -2   4   0   21.01    1.67
  -4  -4   0   85.84    6.51
   4  -4   0   86.93    6.67
  -4   4   0   88.85    6.60
   4   4   0   88.30    7.14
   4   4   0   87.83    6.51
   4   4   0   96.80    6.50
  -6  -4   0  189.92   15.27
  -6  -4   0  171.03   12.92
   6  -4   0  198.12   13.40
   6  -4   0  175.21   13.22
  -6   4   0  178.95   14.47
  -6   4   0  171.35   13.11
   6   4   0  175.44   13.63
   6   4   0  190.07   13.81
   6   4   0  182.44   12.95
  -8  -4   0  220.63   14.98
  -8  -4   0  178.37   13.79
   8  -4   0  218.70   14.20
   8  -4   0  192.15   14.36
   8  -4   0  198.87   14.96
   8   4   0  192.36   13.97
   8   4   0  197.18   15.05
   8   4   0  178.70   13.89
  -8   4   0  195.37   16.23
  -8   4   0  175.21   14.13
  -8   4   0  194.33   14.21
  -1  -5   0   16.89    1.40
   1  -5   0   16.11    1.43
  -1  -5   0   17.73    1.50
  -1  -5   0   14.22    3.44
   1   5   0   15.91    2.96
   1   5   0   15.64    2.12
  -1   5   0   18.34    1.58
  -1   5   0   17.48    2.20
  -1   5   0   13.92    2.88
   1   5   0   18.12    1.53
   3  -5   0   97.02    6.96
  -3  -5   0   87.30    6.79
   3  -5   0   94.94    6.81
   3   5   0  102.97    8.94
   3   5   0   88.94    7.43
  -3   5   0   83.21    8.77
  -3   5   0   95.97    6.87
   3   5   0   91.14    6.79
   3   5   0   94.73    6.77
  -5  -5   0  108.56   10.02
   5  -5   0   94.77    7.48
  -5  -5   0  111.38    7.79
   5  -5   0   95.07    7.38
  -5  -5   0   92.58    7.28
   5   5   0  100.16    8.33
   5   5   0   98.73    7.27
   5   5   0  103.72    8.46
   5   5   0   97.80    7.31
  -5   5   0   93.23    7.40
  -7  -5   0   38.23    3.74
   7  -5   0   37.16    3.53
  -7  -5   0   34.04    3.04
   7  -5   0   38.31    3.76
  -7  -5   0   39.97    6.78
   7  -5   0   38.58    3.31
  -7  -5   0   26.87    3.22
   7   5   0   35.48    3.10
  -7   5   0   31.60    6.23
  -7   5   0   36.05    3.37
   7   5   0   36.05    4.34
  -7   5   0   28.89    3.28
   7   5   0   35.21    3.01
   7   5   0   37.43    4.54
   7   5   0   36.66    4.13
  -7   5   0   47.95    5.63
   0  -6   0  299.12   19.69
   0  -6   0  271.42   19.61
   0   6   0  272.59   20.40
   0   6   0  275.33   22.15
   0   6   0  278.17   19.70
   0   6   0  274.41   19.68
   2  -6   0  232.61   16.03
  -2  -6   0  229.53   16.06
   2   6   0  233.41   16.03
   2   6   0  230.57   16.03
   2   6   0  250.29   18.77
  -2   6   0  205.92   18.41
  -2   6   0  210.12   16.77
  -2   6   0  209.36   16.05
   2   6   0  227.80   16.78
  -2   6   0  225.14   16.09
  -4  -6   0  149.56   10.05
   4  -6   0  115.20    9.57
  -4  -6   0  128.37    9.57
   4  -6   0  123.53    9.54
  -4  -6   0  132.68   11.96
   4  -6   0  130.49    9.73
   4  -6   0  136.82    9.37
   4   6   0  143.59    9.28
   4   6   0  130.71    9.52
   4   6   0  129.31   10.50
   4   6   0  134.82   10.14
  -4   6   0  110.71   12.12
  -4   6   0  121.45    9.62
   4   6   0  125.94   10.57
   4   6   0  153.46   12.63
   6  -6   0   53.64    4.44
  -6  -6   0   48.83    4.83
   6  -6   0   50.96    4.58
  -6  -6   0   67.75    7.79
   6  -6   0   59.07    4.87
  -6  -6   0   48.49    4.27
  -6   6   0   51.62    4.49
   6   6   0   55.35    5.78
   6   6   0   57.53    5.56
  -6   6   0   71.65    7.87
  -6   6   0   46.48    4.42
  -6   6   0   47.98    8.51
   6   6   0   54.20    4.26
   6   6   0   52.61    5.14
   6   6   0   54.90    4.31
  -6   6   0   56.31    6.31
   1  -7   0    1.35    0.61
  -1  -7   0    1.92    0.65
  -1  -7   0    2.00    3.08
  -1  -7   0    1.59    0.66
   1  -7   0    1.92    0.72
   1  -7   0    0.24    2.92
   1   7   0    1.85    0.75
   1   7   0    2.34    1.04
  -1   7   0    1.66    0.80
   1   7   0    1.77    2.18
  -1   7   0    2.75    1.06
  -1   7   0    2.76    2.53
   3  -7   0    6.33    3.29
   3  -7   0    7.86    1.17
   3  -7   0   10.99    1.22
   3  -7   0    5.47    1.89
  -3  -7   0    8.09    3.54
  -3  -7   0    8.22    1.23
  -3  -7   0   10.94    1.87
   3   7   0   11.89    4.16
  -3   7   0    7.12    1.51
   3   7   0    8.56    1.21
   3   7   0   10.42    1.48
   3   7   0    7.88    2.94
   3   7   0    7.92    2.52
  -3   7   0    8.02    1.39
  -3   7   0    7.78    3.62
  -3   7   0   12.37    3.65
  -3   7   0    6.92    2.60
   5  -7   0    9.35    1.42
   5  -7   0    8.83    2.17
  -5  -7   0   12.92    2.11
  -5  -7   0    8.52    3.89
  -5  -7   0   10.50    1.47
   5   7   0   13.21    5.52
   5   7   0    9.42    2.78
  -5   7   0    5.67    4.52
   5   7   0    9.54    1.42
  -5   7   0    8.03    1.67
  -5   7   0    6.85    4.84
   5   7   0    9.37    2.90
   5   7   0    8.66    1.50
  -5   7   0   10.24    1.62
   0  -8   0  289.56   21.78
   0  -8   0  299.17   22.14
   0  -8   0  304.21   21.70
   0   8   0  310.51   21.90
   0   8   0  299.42   21.90
   0   8   0  333.64   23.18
   0   8   0  329.58   23.06
   0   8   0  306.38   25.53
  -2  -8   0  254.95   16.77
   2  -8   0  213.00   16.27
   2  -8   0  197.32   17.95
  -2  -8   0  200.35   16.31
  -2  -8   0  231.41   18.46
   2  -8   0  221.90   16.24
   2  -8   0  206.06   16.62
  -2  -8   0  223.85   16.36
   2   8   0  249.32   16.44
   2   8   0  267.69   17.83
  -2   8   0  205.07   16.40
   2   8   0  240.31   16.44
  -2   8   0  232.02   17.72
  -2   8   0  234.70   17.69
  -2   8   0  227.97   16.45
  -2   8   0  254.97   16.58
  -2   8   0  221.27   20.16
   2   8   0  246.23   17.55
  -4  -8   0  119.25    8.23
   4  -8   0   84.58    7.92
  -4  -8   0  113.33   11.86
   4  -8   0   82.39   10.79
   4  -8   0   95.60    7.64
  -4  -8   0  106.88    7.72
  -4   8   0  100.72    7.81
   4   8   0  106.47    7.70
   4   8   0   88.83    7.59
   4   8   0  110.83    9.34
  -4   8   0   98.45    7.76
  -4   8   0   94.83    9.54
  -4   8   0   89.02   12.17
  -4   8   0  113.92    9.66
   4   8   0  112.86    9.06
   4   8   0  118.20    8.24
   1  -9   0    5.58    1.19
  -1  -9   0    5.49    1.38
   1  -9   0    6.45    1.94
  -1  -9   0    7.66    1.32
  -1  -9   0    6.15    1.83
   1   9   0    5.84    1.30
   1   9   0    7.35    1.57
  -1   9   0    8.01    1.46
   1   9   0    2.84    2.79
  -1   9   0    4.10    3.37
   1   9   0    9.91    4.08
  -1   9   0    4.95    3.23
  -1   9   0    6.61    1.53
  -8   0   1    1.07    2.99
   8   0  -1    0.64    1.18
   8   0  -1    2.93    1.71
  -8   0   1   -1.17    1.61
   8   0  -1    0.86    0.62
   8   0  -1    0.72    0.71
   6   0  -1    0.82    0.63
   6   0  -1   -0.55    0.73
  -6   0   1    0.33    0.89
  -6   0   1    1.00    1.26
   6   0  -1    0.38    0.41
  -6   0   1    0.32    0.26
   4   0  -1   -0.49    0.28
  -4   0   1   -0.47    0.49
  -4   0   1   -0.39    0.18
   4   0  -1   -0.74    0.30
  -2   0   1   -0.48    0.14
  -2   0   1   -0.45    0.30
   0   0   1   -0.37    0.14
   0   0   1   -0.02    0.11
   0   0   1   -0.24    0.11
   0   0  -1   -0.16    0.11
   0   0  -1    0.07    0.20
   2   0   1    0.06    0.14
   2   0   1    0.13    0.31
  -2   0  -1    0.15    0.10
  -2   0  -1    0.60    0.51
   4   0   1   -0.90    0.52
   4   0   1    0.00    0.39
  -4   0  -1    0.15    0.16
  -4   0  -1    0.42    0.65
  -4   0  -1    0.60    1.04
  -6   0  -1   -0.95    1.60
  -6   0  -1    0.28    1.10
   6   0   1    0.77    0.75
   6   0   1   -0.38    0.81
  -8   0  -1    0.14    1.66
   8   0   1   -0.41    1.30
   8   0   1   -0.20    1.85
  -8   0  -1    1.39    1.36
  -8   0  -1    1.84    3.51
   8   0   1    0.54    1.22
  -8   0  -1    0.78    1.90
  -9  -1   1   96.80    9.12
  -9  -1   1   91.94    7.51
   9  -1  -1   93.15    7.70
  -9  -1   1   89.00    9.55
   9  -1  -1   97.68    6.87
   9  -1  -1  101.39    7.77
   9   1  -1   92.42    7.76
   9   1  -1   90.21    6.96
   9   1  -1   95.78    7.79
  -9   1   1   94.10    7.46
  -9   1   1   96.97    9.69
  -9   1   1   93.31    9.25
  -9   1   1   80.76    7.17
   7  -1  -1   70.84    5.14
   7  -1  -1   72.11    5.20
   7  -1  -1   69.61    5.63
  -7  -1   1   70.32    5.08
   7   1  -1   70.73    5.23
   7   1  -1   69.68    5.76
  -7   1   1   66.03    5.45
   7   1  -1   69.28    5.18
   5  -1  -1   48.49    3.93
  -5  -1   1   47.25    3.64
   5  -1  -1   53.13    3.66
   5   1  -1   46.25    3.98
   5   1  -1   51.38    3.68
  -5   1   1   53.62    3.86
  -3  -1   1   74.71    6.08
  -3  -1   1   71.80    5.45
   3  -1  -1   78.32    5.59
   3   1  -1   80.07    6.05
   3   1  -1   78.96    5.62
  -1  -1   1  167.13   11.12
  -1  -1   1  160.71   11.16
  -1  -1   1  163.95   11.10
   1   1  -1  141.99   11.12
   1   1  -1  163.46   11.10
  -1   1   1  154.70   11.26
   1  -1   1  386.53   26.10
  -1  -1  -1  375.82   26.59
   1   1   1  376.34   26.22
   1   1   1  357.54   26.67
   1   1   1  370.94   26.02
  -3  -1  -1  492.78   31.87
  -3  -1  -1  437.39   31.70
   3  -1   1  451.44   31.92
  -3  -1  -1  478.01   32.79
  -3   1  -1  447.43   31.84
   3   1   1  461.17   32.05
   3   1   1  432.13   31.73
   3   1   1  441.17   31.70
  -5  -1  -1  369.59   27.09
  -5  -1  -1  384.23   27.50
  -5  -1  -1  363.24   27.71
   5  -1   1  398.01   27.57
  -5   1  -1  390.73   27.42
   5   1   1  404.11   27.23
   5   1   1  388.22   27.69
   5   1   1  418.15   27.21
  -5   1  -1  378.56   27.54
  -7  -1  -1  245.62   17.47
  -7  -1  -1  234.26   19.39
   7  -1   1  245.91   17.64
   7  -1   1  255.60   17.64
  -7  -1  -1  228.44   17.72
   7   1   1  253.95   17.01
   7   1   1  242.95   17.79
  -7   1  -1  202.27   17.45
  -7   1  -1  253.11   19.37
  -7   1  -1  228.86   17.38
   7   1   1  252.40   17.75
  -8  -2   1   94.90    7.58
  -8  -2   1   91.93    9.67
   8  -2  -1  105.88    7.19
   8  -2  -1   97.16    7.05
   8  -2  -1  101.54    7.79
  -8  -2   1   92.38    9.18
  -8  -2   1   93.00    7.02
   8  -2  -1   89.65    7.59
   8   2  -1   96.31    7.87
   8   2  -1   96.11    7.96
  -8   2   1   99.66    9.23
   8   2  -1   96.57    7.18
  -8   2   1   96.09    9.45
   8   2  -1   95.19    7.13
  -8   2   1   98.23    7.37
  -8   2   1  103.13    7.53
   6  -2  -1  110.61    7.39
  -6  -2   1   94.12    9.09
   6  -2  -1   90.85    7.67
  -6  -2   1   97.45    7.34
   6   2  -1  107.93    7.39
  -6   2   1  107.67    7.57
   6   2  -1  102.73    7.41
   6   2  -1  106.47    7.89
  -4  -2   1   16.22    2.49
   4  -2  -1   18.89    1.43
   4  -2  -1   18.22    1.67
  -4  -2   1   16.12    1.45
   4   2  -1   18.69    1.79
   4   2  -1   19.37    1.48
  -4   2   1   17.75    1.66
   4   2  -1   20.06    2.41
  -2  -2   1   58.49    4.35
   2  -2  -1   60.49    4.17
  -2  -2   1   59.61    4.11
  -2  -2   1   58.17    4.08
   2   2  -1   58.39    4.00
   2   2  -1   45.90    4.67
   2   2  -1   55.86    4.21
   0  -2   1  312.42   19.10
   0  -2   1  298.13   19.17
   0  -2  -1  242.64   19.73
   0   2   1  256.61   19.77
   0   2   1  253.71   19.31
  -2  -2  -1  286.14   20.88
  -2  -2  -1  290.09   21.85
  -2  -2  -1  322.03   20.96
   2  -2   1  257.01   20.78
   2  -2   1  311.15   20.99
   2   2   1  345.91   22.13
   2   2   1  298.25   20.88
   2   2   1  288.71   21.19
  -2   2  -1  284.00   20.92
   2   2   1  300.86   20.83
   4  -2   1  108.52    8.44
  -4  -2  -1  122.86    8.41
  -4  -2  -1  116.32    8.22
  -4  -2  -1  109.73    9.66
   4   2   1  119.85    8.14
   4   2   1  114.19    8.24
   4   2   1  113.03    8.27
  -4   2  -1  113.45    8.61
  -4   2  -1  122.97    8.43
   4   2   1  115.04    8.72
  -6  -2  -1    5.54    1.88
   6  -2   1    6.47    1.32
  -6  -2  -1    6.45    1.52
  -6  -2  -1    3.52    0.76
  -6  -2  -1    9.63    2.11
   6   2   1    7.86    2.11
  -6   2  -1    9.61    2.06
   6   2   1    4.69    0.96
   6   2   1    6.40    1.59
   6   2   1    4.99    1.07
   8  -2   1   15.53    2.54
  -8  -2  -1   16.47    3.11
  -8  -2  -1   18.46    4.96
  -8  -2  -1   12.29    2.64
   8  -2   1   16.42    2.24
   8   2   1   13.44    3.43
  -8   2  -1    6.65    1.74
  -8   2  -1   11.84    4.32
   8   2   1   10.55    1.60
   8   2   1   12.35    2.78
  -8   2  -1   18.07    2.73
   9  -3  -1   31.67    3.55
  -9  -3   1   32.13    2.81
  -9  -3   1   36.42    6.76
  -9  -3   1   33.94    5.40
  -9   3   1   41.49    6.28
   9   3  -1   44.60    5.74
   9   3  -1   32.65    4.24
  -9   3   1   25.38    5.43
  -9   3   1   26.18    3.32
   9   3  -1   37.15    2.95
   9   3  -1   34.92    3.02
  -7  -3   1  188.06   14.59
   7  -3  -1  175.04   12.82
  -7  -3   1  165.83   12.34
   7  -3  -1  168.38   12.75
  -7  -3   1  179.37   12.78
   7  -3  -1  181.35   12.29
   7  -3  -1  186.89   12.35
   7   3  -1  159.50   13.03
  -7   3   1  160.70   14.28
   7   3  -1  178.66   13.12
  -7   3   1  163.98   12.56
  -7   3   1  177.47   14.02
   7   3  -1  171.17   12.39
  -7   3   1  167.82   12.56
  -5  -3   1  420.33   35.24
   5  -3  -1  534.26   33.35
   5  -3  -1  492.91   33.68
  -5  -3   1  485.40   33.45
   5   3  -1  484.86   33.41
  -5   3   1  423.31   33.49
   5   3  -1  498.55   33.88
   5   3  -1  481.06   33.41
  -3  -3   1  668.07   53.85
  -3  -3   1  783.47   52.67
   3  -3  -1  818.62   52.81
   3   3  -1  719.87   53.85
   3   3  -1  826.18   52.55
   3   3  -1  791.44   52.94
   3   3  -1  680.57   52.58
  -1  -3   1  726.10   45.50
  -1   3   1  569.36   46.33
  -1   3   1  601.98   45.43
  -1   3   1  685.06   45.80
   1   3  -1  678.93   45.63
   1  -3   1  395.75   27.62
   1  -3   1  455.92   27.77
  -1  -3  -1  362.44   28.73
   1   3   1  387.80   27.66
  -1   3  -1  366.35   27.64
   1   3   1  393.08   28.02
   1   3   1  411.26   28.89
   3  -3   1  113.12    7.73
   3  -3   1  105.88    7.99
  -3  -3  -1  100.38    7.85
  -3  -3  -1  117.41    7.96
  -3  -3  -1  100.66    9.23
   3   3   1  126.25    9.55
   3   3   1  107.36    7.86
   3   3   1   94.86    8.27
  -3   3  -1  119.33    7.99
   3   3   1  114.13    7.76
  -5  -3  -1   12.45    2.19
   5  -3   1    8.31    1.37
  -5  -3  -1    7.71    0.98
  -5  -3  -1   11.56    1.65
   5   3   1    8.43    1.04
   5   3   1    7.06    1.13
   5   3   1    7.76    1.94
  -5   3  -1    7.09    1.73
   7  -3   1    3.23    1.25
  -7  -3  -1    2.99    2.18
  -7  -3  -1    0.28    0.82
  -7  -3  -1    3.55    1.77
   7  -3   1    2.71    1.79
  -7  -3  -1    6.45    3.51
   7  -3   1    0.96    1.18
   7  -3   1    2.19    1.42
  -7   3  -1    5.59    1.89
   7   3   1    2.64    0.82
  -7   3  -1    1.16    1.13
   7   3   1    1.59    1.75
   7   3   1    1.58    1.63
   7   3   1    2.18    0.96
  -7   3  -1    1.51    1.60
  -7   3  -1   -1.48    4.02
   8  -4  -1    5.31    1.94
   8  -4  -1    4.21    1.17
  -8  -4   1    4.31    1.79
  -8  -4   1    7.54    3.73
  -8  -4   1    4.36    1.02
   8  -4  -1    2.84    1.26
  -8  -4   1    7.47    1.71
   8   4  -1    4.06    2.83
  -8   4   1    7.83    3.46
   8   4  -1    3.08    1.02
   8   4  -1    3.74    1.03
  -8   4   1    9.95    4.49
   8   4  -1    2.19    2.21
  -8   4   1    4.23    1.41
   8   4  -1    7.66    2.33
   6  -4  -1    4.34    1.50
  -6  -4   1    6.74    3.75
  -6  -4   1    5.24    0.94
   6  -4  -1    7.35    1.17
   6  -4  -1    3.71    1.06
   6  -4  -1    3.10    0.80
   6   4  -1    6.36    2.84
  -6   4   1    5.97    1.26
   6   4  -1    4.15    0.93
   6   4  -1    3.81    0.81
  -6   4   1    4.99    1.37
  -4  -4   1    0.40    0.45
   4  -4  -1    0.35    0.57
  -4  -4   1    1.24    1.83
   4  -4  -1   -0.26    0.48
   4   4  -1    0.30    0.54
   4   4  -1    0.69    1.18
   4   4  -1    0.89    0.95
   4   4  -1    1.32    0.34
  -4   4   1   -0.05    0.83
  -4   4   1   -0.18    0.71
   2  -4  -1    2.45    0.56
  -2  -4   1    2.33    0.52
   2  -4  -1    2.38    0.64
  -2  -4   1    2.03    0.47
  -2  -4   1    2.50    1.62
  -2   4   1    1.18    1.12
  -2   4   1    2.36    1.00
   2   4  -1    3.48    0.61
   2   4  -1    1.84    1.18
   2   4  -1    1.25    0.89
  -2   4   1    3.89    0.75
   0  -4  -1    9.12    2.22
   0  -4   1   13.46    1.03
   0  -4   1   10.78    1.03
   0  -4  -1   10.21    0.89
   0   4   1    8.68    1.91
   0   4  -1    9.06    2.10
   0   4   1   11.75    1.08
   0   4  -1   12.34    1.05
   0   4  -1   10.34    1.64
   0   4   1   12.09    1.61
   2  -4   1   13.04    1.25
  -2  -4  -1    9.57    2.72
  -2  -4  -1   13.56    1.43
  -2  -4  -1   11.82    1.19
   2  -4   1   12.48    1.30
   2  -4   1   13.06    1.10
   2   4   1   13.53    1.87
   2   4   1   16.14    2.60
   2   4   1   13.22    1.23
  -4  -4  -1    8.23    1.36
  -4  -4  -1    4.68    0.85
   4  -4   1    5.27    1.15
   4  -4   1    4.75    0.63
   4   4   1    5.14    0.87
   4   4   1    6.10    1.08
   4   4   1    6.68    1.70
  -4   4  -1    4.44    1.40
   4   4   1    7.31    2.51
   4   4   1    6.27    0.70
   6  -4   1    0.89    0.88
  -6  -4  -1    1.56    1.81
   6  -4   1    0.05    1.13
  -6  -4  -1    1.40    3.60
   6  -4   1    0.80    1.60
  -6  -4  -1   -0.89    0.61
   6  -4   1    1.40    1.14
   6   4   1    1.40    0.86
  -6   4  -1    0.76    0.92
   6   4   1   -0.88    1.63
   6   4   1    0.43    0.67
   6   4   1    2.53    1.84
  -6   4  -1   -1.46    1.45
   6   4   1   -0.12    1.48
   7  -5  -1  113.61    7.76
  -7  -5   1   87.19    7.71
  -7  -5   1  118.54   10.62
  -7  -5   1   99.98    7.59
   7  -5  -1  108.56    8.08
  -7  -5   1  106.24    7.91
   7  -5  -1  100.31    7.91
   7   5  -1   97.74    8.33
   7   5  -1   98.08    8.55
   7   5  -1  113.02    8.75
  -7   5   1  109.89    9.52
   7   5  -1  100.00    7.58
  -7   5   1   85.42    8.10
   7   5  -1  104.57    7.57
  -7   5   1  115.51   10.08
  -7   5   1   88.71    7.69
   5  -5  -1  233.10   16.09
  -5  -5   1  216.38   15.85
  -5   5   1  207.05   18.15
  -5   5   1  214.03   15.92
   5   5  -1  218.86   15.78
  -5   5   1  212.72   15.92
   5   5  -1  256.95   16.72
   5   5  -1  226.20   15.80
  -3  -5   1  358.42   24.19
   3  -5  -1  379.96   24.35
  -3   5   1  343.91   24.86
  -3   5   1  335.84   24.19
   3   5  -1  358.87   26.31
   3   5  -1  310.01   24.19
   3   5  -1  351.51   24.68
  -3   5   1  304.47   25.93
  -3   5   1  347.21   24.20
  -1  -5   1  329.76   23.91
   1  -5  -1  337.57   23.81
  -1  -5   1  381.49   23.95
  -1   5   1  350.82   23.93
  -1   5   1  315.38   25.64
   1   5  -1  341.47   24.35
   1   5  -1  320.46   25.87
  -1   5   1  332.44   23.93
  -1   5   1  335.35   24.50
   1   5  -1  357.89   23.87
   1  -5   1  230.53   15.79
   1  -5   1  234.16   15.91
  -1  -5  -1  231.74   15.85
  -1   5  -1  228.21   15.84
   1   5   1  234.81   17.84
  -1   5  -1  201.40   17.85
   1   5   1  207.22   16.37
   1   5   1  220.72   15.85
   3  -5   1   90.51    7.31
   3  -5   1   95.09    6.89
   3  -5   1   97.08    7.15
   3   5   1  104.00    6.90
  -3   5  -1   91.36    7.10
   3   5   1   97.70    7.84
   3   5   1   96.90    7.08
   3   5   1   99.25    7.05
   5  -5   1   32.20    2.92
  -5  -5  -1   26.45    5.97
   5  -5   1   32.67    3.00
   5  -5   1   32.36    2.91
  -5  -5  -1   31.39    3.52
  -5  -5  -1   28.68    2.67
   5   5   1   29.42    2.72
   5   5   1   41.22    5.90
   5   5   1   34.54    3.74
   5   5   1   34.08    3.92
   5   5   1   34.52    2.73
  -5   5  -1   28.59    2.83
   5   5   1   27.25    3.87
  -7  -5  -1   20.39    5.60
  -7  -5  -1   15.84    2.92
   7  -5   1   16.64    3.04
   7  -5   1   18.40    2.35
  -7  -5  -1   16.04    2.34
   7  -5   1   19.71    2.96
   7   5   1   15.79    3.99
   7   5   1   17.95    2.01
   7   5   1   15.76    3.56
  -7   5  -1   14.55    2.30
   7   5   1   19.74    2.04
  -7   5  -1   17.90    5.19
  -7   5  -1   33.28    6.97
   7   5   1   12.93    2.97
   6  -6  -1   39.90    3.85
  -6  -6   1   49.20    6.91
  -6  -6   1   49.45    4.25
  -6  -6   1   44.74    3.64
   6  -6  -1   41.18    3.74
   6  -6  -1   42.78    4.10
   6   6  -1   40.41    3.53
  -6   6   1   40.87    3.79
  -6   6   1   56.27    6.97
   6   6  -1   43.84    5.04
  -6   6   1   46.96    5.81
  -6   6   1   39.33    7.38
   6   6  -1   43.65    4.98
   6   6  -1   52.80    7.09
  -6   6   1   39.24    3.72
   6   6  -1   45.61    3.64
  -4  -6   1    5.92    4.01
  -4  -6   1    5.64    1.75
  -4  -6   1    6.72    1.07
   4  -6  -1    5.86    1.24
   4  -6  -1    5.77    1.06
   4  -6  -1    6.13    1.23
  -4   6   1    5.84    1.16
   4   6  -1   11.30    2.41
  -4   6   1    6.94    2.11
   4   6  -1    6.91    1.30
  -4   6   1    3.58    3.38
  -4   6   1    9.13    1.58
   4   6  -1    8.05    3.35
  -4   6   1    4.89    2.72
   4   6  -1    5.91    1.00
   2  -6  -1   18.83    1.68
  -2  -6   1   20.37    1.75
  -2  -6   1   20.16    1.82
   2   6  -1   21.77    1.80
   2   6  -1   19.57    1.94
   2   6  -1   20.11    2.91
  -2   6   1   19.93    2.88
  -2   6   1   20.72    1.98
  -2   6   1   14.88    3.56
  -2   6   1   19.57    1.86
   2   6  -1   19.23    3.90
   0  -6  -1  104.47    7.12
   0  -6   1   94.12    7.28
   0  -6   1  103.68    7.26
   0   6   1   91.04    8.10
   0   6  -1  102.20    7.28
   0   6   1   99.24    7.29
   0   6  -1  100.39    7.33
   0   6  -1   88.95    9.54
   0   6  -1  103.02    8.07
   0   6   1  100.99    7.33
   0   6   1  106.56    9.66
  -2  -6  -1  113.67    8.54
   2  -6   1  113.23    8.42
   2   6   1  135.37   11.26
  -2   6  -1  121.45    8.61
   2   6   1  116.19    8.53
  -2   6  -1  102.58   11.12
   2   6   1  120.92    8.57
   4  -6   1   49.32    3.81
  -4  -6  -1   43.52    3.64
   4  -6   1   45.82    3.42
  -4  -6  -1   49.96    6.47
   4  -6   1   43.58    3.77
   4  -6   1   43.65    3.71
   4   6   1   42.48    4.77
  -4   6  -1   45.05    3.78
   4   6   1   43.43    4.72
  -4   6  -1   40.21    6.75
   4   6   1   48.86    3.71
   4   6   1   48.67    3.67
   6  -6   1    1.31    1.23
  -6  -6  -1    4.05    1.85
   6  -6   1    0.85    1.18
  -6  -6  -1    1.48    4.57
   6  -6   1    1.36    1.10
  -6  -6  -1    1.43    0.90
   6  -6   1    3.80    1.28
   6   6   1    1.87    0.90
  -6   6  -1    2.32    1.13
   6   6   1    0.34    2.33
  -6   6  -1    4.51    4.12
   6   6   1    1.75    0.95
   6   6   1    1.05    2.38
   6   6   1    3.27    2.43
   5  -7  -1    1.90    1.61
   5  -7  -1    3.85    1.05
  -5  -7   1    6.40    1.17
  -5  -7   1    5.78    3.61
  -5  -7   1    6.42    1.82
  -5   7   1    1.84    1.11
  -5   7   1    4.85    2.52
   5   7  -1    2.52    1.03
   5   7  -1    9.38    3.10
  -5   7   1    2.48    1.09
  -5   7   1    3.19    2.96
  -5   7   1    3.52    3.77
   5   7  -1    0.15    2.55
   5   7  -1    5.77    1.05
   5   7  -1    3.21    3.53
  -3  -7   1    2.94    0.88
   3  -7  -1    4.93    3.07
  -3  -7   1    1.35    3.04
   3  -7  -1    1.34    0.78
  -3  -7   1    2.75    1.35
  -3   7   1    1.88    2.93
   3   7  -1    2.76    2.62
  -3   7   1    0.79    0.88
   3   7  -1    0.98    1.03
  -3   7   1    0.24    2.40
  -3   7   1    1.90    1.93
  -3   7   1    0.15    0.91
  -3   7   1    3.64    1.75
   3   7  -1    1.28    0.69
   1  -7  -1    9.01    1.13
  -1  -7   1    6.86    1.11
  -1  -7   1    1.72    3.15
  -1  -7   1    9.20    1.15
   1  -7  -1    8.17    3.29
   1  -7  -1    8.08    1.01
  -1   7   1    8.61    3.74
  -1   7   1    9.56    1.30
   1   7  -1    8.42    3.76
  -1   7   1   11.33    3.75
   1   7  -1    8.35    1.49
  -1   7   1   10.84    1.46
   1   7  -1    6.98    2.44
  -1   7   1   18.17    2.95
   1   7  -1   10.47    1.27
   1  -7   1   60.28    7.02
  -1  -7  -1   63.35    7.33
   1  -7   1   74.67    5.76
  -1  -7  -1   61.37    4.98
   1  -7   1   59.22    5.01
   1  -7   1   64.23    4.95
   1   7   1   69.92    6.19
   1   7   1   67.08    6.47
   1   7   1   72.21    5.09
  -1   7  -1   67.46    5.15
  -1   7  -1   65.06    5.06
  -1   7  -1   60.65    8.07
  -1   7  -1   59.79    6.35
   1   7   1   76.07    8.17
  -3  -7  -1  161.20   11.87
   3  -7   1  135.79   13.41
   3  -7   1  145.52   12.21
  -3  -7  -1  179.52   14.42
   3  -7   1  157.74   11.91
  -3  -7  -1  189.51   12.28
  -3   7  -1  165.92   13.13
   3   7   1  182.57   11.69
   3   7   1  156.04   12.21
  -3   7  -1  158.95   11.95
   3   7   1  181.62   11.93
   3   7   1  167.54   11.88
   3   7   1  163.06   12.96
   3   7   1  173.29   12.85
  -3   7  -1  152.03   11.93
  -3   7  -1  151.62   15.41
   5  -7   1  201.99   14.17
  -5  -7  -1  203.45   14.07
   5  -7   1  180.68   14.43
  -5   7  -1  176.25   14.14
   5   7   1  192.94   14.02
  -5   7  -1  199.66   15.58
   5   7   1  190.25   15.04
   5   7   1  220.98   14.11
  -5   7  -1  179.30   14.16
  -4  -8   1    1.74    0.92
   4  -8  -1    2.42    0.95
   4  -8  -1    2.63    1.11
  -4  -8   1    2.37    3.35
   4  -8  -1    0.87    3.24
  -4  -8   1    1.03    1.30
  -4  -8   1    1.87    1.72
   4   8  -1    2.09    0.91
  -4   8   1    1.53    1.12
   4   8  -1    6.84    3.16
   4   8  -1   -1.81    3.59
  -4   8   1    0.22    3.05
   4   8  -1    1.71    1.03
  -4   8   1   -1.69    2.43
  -4   8   1    2.87    1.23
   4   8  -1    5.22    3.42
  -4   8   1    2.19    4.30
  -4   8   1    2.11    1.60
  -2  -8   1    3.00    1.23
  -2  -8   1    3.71    1.24
  -2  -8   1    7.89    3.31
   2  -8  -1    3.07    0.93
  -2  -8   1    3.20    0.92
   2  -8  -1    7.73    3.24
   2  -8  -1    3.33    0.88
  -2  -8   1    2.12    0.92
   2   8  -1    2.48    0.89
   2   8  -1    6.58    2.91
  -2   8   1    2.41    1.72
  -2   8   1    2.85    3.31
  -2   8   1    2.38    1.10
  -2   8   1    9.33    3.07
   2   8  -1    1.92    1.11
  -2   8   1    2.95    1.03
   2   8  -1   -0.59    3.05
  -2   8   1   -0.29    2.80
   2   8  -1    2.85    3.35
   0  -8  -1   14.45    2.36
   0  -8   1   13.46    1.58
   0  -8  -1   15.94    1.61
   0  -8  -1   15.83    4.36
   0  -8   1   15.53    1.62
   0  -8   1   12.15    2.23
   0  -8   1   12.20    3.62
   0   8  -1   17.48    4.33
   0   8  -1   14.83    1.93
   0   8  -1   15.93    5.61
   0   8   1   17.09    3.62
   0   8   1   16.08    5.19
   0   8   1   13.37    1.80
   0   8   1   16.97    3.75
   0   8  -1   17.58    3.90
   0   8  -1   15.87    1.78
   0   8   1   17.33    1.76
   2  -8   1   15.73    2.47
  -2  -8  -1   21.07    2.52
   2  -8   1   15.96    4.50
   2  -8   1   13.95    1.88
   2  -8   1   18.06    1.81
  -2  -8  -1   17.52    1.86
  -2  -8  -1   17.09    4.44
  -2   8  -1   16.67    2.12
  -2   8  -1   17.40    1.99
   2   8   1   21.33    2.08
   2   8   1   18.83    3.63
  -2   8  -1   26.70    4.60
   2   8   1   25.39    6.15
   2   8   1   17.61    2.69
  -2   8  -1   15.37    6.36
   2   8   1   25.52    3.95
   2   8   1   19.26    1.95
  -2   8  -1   17.91    3.94
   4  -8   1    6.99    3.60
   4  -8   1    5.95    2.22
  -4  -8  -1    4.77    3.56
   4  -8   1    8.33    1.67
  -4  -8  -1    9.18    1.56
  -4   8  -1    6.58    1.54
  -4   8  -1    6.82    1.54
  -4   8  -1    9.71    3.96
  -4   8  -1   -0.31    3.94
   4   8   1    9.02    1.50
   4   8   1    6.40    3.41
   4   8   1    6.02    2.68
   4   8   1    7.15    1.47
   4   8   1   12.73    2.78
  -1  -9   1   48.10    3.69
  -1  -9   1   44.14    4.19
   1  -9  -1   42.47    3.62
  -1  -9   1   42.44    3.72
   1  -9  -1   44.01    4.11
  -1  -9   1   47.62    7.86
  -1  -9   1   36.81    3.80
   1  -9  -1   39.22    7.74
  -1   9   1   44.27    3.86
  -1   9   1   40.96    6.26
   1   9  -1   46.75    3.84
   1   9  -1   49.96    6.91
   1   9  -1   46.19    3.86
  -1   9   1   52.64    6.54
   1   9  -1   55.19    6.16
  -1   9   1   45.73    3.84
   1  -9   1   56.13    5.22
  -1  -9  -1   58.93    7.22
  -1  -9  -1   57.60    4.72
  -1  -9  -1   67.98    5.20
   1  -9   1   55.39    4.69
   1  -9   1   56.64    4.74
   1   9   1   55.17    4.80
   1   9   1   69.52    7.19
  -1   9  -1   71.08    7.86
  -1   9  -1   61.63    6.97
   1   9   1   64.37    4.94
  -1   9  -1   59.23    4.91
   1   9   1   65.11    8.90
  -1   9  -1   57.50    4.90
  10   0  -2  106.14    8.44
 -10   0   2  116.70   11.21
  10   0  -2  123.20    9.15
  10   0  -2  115.65    9.40
  10   0  -2  115.01    9.30
  -8   0   2  360.29   26.95
   8   0  -2  360.23   25.78
   8   0  -2  352.52   25.76
  -8   0   2  356.44   25.59
   8   0  -2  351.95   25.25
  -8   0   2  376.19   27.11
   6   0  -2  643.29   45.86
  -6   0   2  636.00   45.82
  -6   0   2  664.75   46.85
   6   0  -2  687.86   46.19
   4   0  -2  727.36   49.24
   4   0  -2  757.57   49.43
  -4   0   2  682.79   49.25
  -4   0   2  663.77   49.69
  -2   0   2  430.93   33.79
  -2   0   2  500.05   33.77
  -2   0   2  457.42   33.75
  -2   0   2  552.49   33.79
   0   0   2  165.83   11.49
   0   0   2  159.07   11.46
   0   0   2  165.69   11.51
   2   0   2   10.32    1.18
  -2   0  -2   13.51    1.86
  -2   0  -2    9.81    1.10
   2   0   2    9.97    0.94
  -2   0  -2    9.93    0.81
   4   0   2    0.91    0.44
   4   0   2    0.85    0.59
   4   0   2    0.62    0.82
  -4   0  -2    2.72    1.27
  -4   0  -2    0.37    0.74
  -6   0  -2    9.59    2.06
   6   0   2    6.61    1.59
  -6   0  -2    7.90    1.58
  -6   0  -2    4.17    1.85
   6   0   2    9.79    2.20
  -9  -1   2   29.01    5.07
   9  -1  -2   23.27    2.97
  -9  -1   2   29.28    5.07
   9  -1  -2   29.52    3.16
   9  -1  -2   24.92    2.32
  -9  -1   2   23.74    2.94
   9   1  -2   27.12    2.27
  -9   1   2   20.68    4.65
   9   1  -2   24.20    2.31
   9   1  -2   23.12    3.30
  -9   1   2   32.55    5.27
   9   1  -2   20.13    3.25
  -7  -1   2    2.69    2.15
   7  -1  -2    3.11    0.65
  -7  -1   2    3.04    0.62
   7  -1  -2    4.64    0.82
  -7   1   2    3.28    1.88
   7   1  -2    2.76    1.20
   7   1  -2    3.64    0.83
   7   1  -2    3.65    0.68
  -7   1   2    2.37    1.28
  -5  -1   2   28.27    3.27
   5  -1  -2   30.17    2.32
  -5  -1   2   28.67    2.34
   5  -1  -2   29.31    2.57
   5   1  -2   30.71    2.61
   5   1  -2   33.85    2.35
  -5   1   2   35.34    2.97
   3  -1  -2  179.98   11.58
  -3  -1   2  162.85   11.50
  -3  -1   2  158.70   11.45
  -3  -1   2  159.49   11.38
   3   1  -2  154.36   11.84
  -1  -1   2  196.28   14.78
   1  -1  -2  214.67   14.77
   1  -1  -2  202.29   15.12
  -1  -1   2  198.89   14.87
  -1  -1   2  215.79   14.81
  -1   1   2  192.85   14.95
  -1   1   2  230.55   14.82
  -1   1   2  239.68   14.78
   1  -1   2   94.10    6.85
  -1  -1  -2   94.72    6.87
   1  -1   2  102.84    6.90
   1   1   2   99.93    6.83
   1   1   2   94.54    7.05
  -1   1  -2   92.31    6.73
  -3  -1  -2    2.40    0.41
   3  -1   2    2.27    0.71
   3  -1   2    1.90    0.49
  -3  -1  -2    2.02    1.09
  -3  -1  -2    2.60    0.74
   3   1   2    1.65    0.78
   3   1   2    1.83    0.44
  -3   1  -2    2.40    0.68
   3   1   2    3.42    0.64
   5  -1   2   20.25    2.20
  -5  -1  -2   19.05    1.56
  -5  -1  -2   23.01    2.20
  -5  -1  -2   20.18    2.46
  -5   1  -2   21.79    2.58
   5   1   2   20.41    1.93
  -5   1  -2   20.09    2.11
   5   1   2   22.90    1.83
   5   1   2   20.12    2.37
  -7  -1  -2   40.17    3.92
  -7  -1  -2   39.31    6.57
   7  -1   2   39.07    3.91
   7  -1   2   39.02    4.05
  -7  -1  -2   42.44    3.68
  -7  -1  -2   28.99    3.90
  -7   1  -2   33.94    3.78
   7   1   2   40.78    4.24
  -7   1  -2   26.14    6.85
  -7   1  -2   39.25    4.05
   7   1   2   38.38    3.97
  -7   1  -2   34.23    3.55
   8  -2  -2   74.97    5.64
  -8  -2   2   72.88    5.58
   8  -2  -2   75.11    6.17
  -8  -2   2   82.57    8.11
   8  -2  -2   69.63    6.05
  -8  -2   2   74.27    6.21
   8   2  -2   78.40    5.71
  -8   2   2   76.30    7.87
   8   2  -2   76.43    5.65
   8   2  -2   73.97    6.44
  -8   2   2   78.59    7.60
   8   2  -2   76.73    6.33
  -8   2   2   77.57    5.92
  -6  -2   2  125.53    9.24
   6  -2  -2  135.23    9.23
  -6  -2   2  114.18   10.68
   6  -2  -2  142.12    9.20
   6  -2  -2  131.43    9.54
  -6   2   2  128.15    9.35
  -6   2   2  115.22    9.88
   6   2  -2  133.58    9.26
   6   2  -2  136.95    9.65
   6   2  -2  128.50    9.22
   4  -2  -2  266.94   18.63
   4  -2  -2  272.98   18.41
  -4  -2   2  241.07   18.46
   4   2  -2  261.17   18.62
   4   2  -2  276.52   18.40
   4   2  -2  259.60   19.32
  -2  -2   2  372.37   24.64
  -2  -2   2  345.97   24.70
  -2  -2   2  364.39   24.58
  -2   2   2  322.01   24.89
   2   2  -2  353.42   24.65
   0  -2   2  368.50   27.70
   0  -2   2  371.27   27.76
   0  -2  -2  390.96   28.53
   0  -2   2  413.37   27.87
   0   2   2  449.54   28.69
   0   2   2  416.48   27.76
   0   2   2  371.39   28.02
   2  -2   2  352.97   24.32
  -2  -2  -2  378.34   24.33
  -2  -2  -2  337.37   25.36
   2   2   2  345.24   24.20
   2   2   2  361.33   24.23
  -2   2  -2  308.02   24.24
   2   2   2  342.10   24.61
  -4  -2  -2  222.23   14.35
  -4  -2  -2  216.31   14.46
   4  -2   2  193.12   14.35
  -4  -2  -2  188.46   14.05
  -4   2  -2  187.04   14.43
   4   2   2  171.82   14.62
   4   2   2  201.24   14.07
   4   2   2  211.14   14.12
  -4   2  -2  199.40   14.31
   4   2   2  206.49   14.16
   6  -2   2   97.93    7.85
   6  -2   2  109.74    7.85
  -6  -2  -2   90.93    7.91
  -6  -2  -2   96.94    7.60
  -6  -2  -2  105.71   10.17
  -6   2  -2   96.39    7.65
   6   2   2  100.62    7.29
   6   2   2   98.01    8.09
   6   2   2  101.21    8.09
   6   2   2  106.04    7.36
  -6   2  -2   92.85    7.91
  -6   2  -2  105.81    7.76
  -9  -3   2    8.28    1.43
  -9  -3   2   12.35    1.90
  -9  -3   2   14.67    4.11
   9  -3  -2   12.91    1.57
   9  -3  -2   11.30    2.33
   9  -3  -2   12.40    2.40
   9  -3  -2   12.90    1.42
  -9  -3   2    8.73    2.13
   9   3  -2   14.91    2.84
   9   3  -2   11.23    1.45
  -9   3   2   11.89    3.96
   9   3  -2    9.42    1.51
   9   3  -2   15.20    2.95
  -9   3   2   10.54    2.30
  -9   3   2   16.06    4.36
   7  -3  -2    1.66    0.92
  -7  -3   2    0.55    3.43
   7  -3  -2    1.32    0.56
   7  -3  -2   -1.48    1.45
   7  -3  -2    1.64    0.79
  -7  -3   2    0.63    0.61
   7   3  -2    1.16    0.83
   7   3  -2    1.04    1.45
  -7   3   2    0.69    1.14
   7   3  -2    1.49    0.57
  -7   3   2    2.45    1.23
  -7   3   2    1.43    3.44
  -5  -3   2   14.02    1.32
   5  -3  -2   15.15    1.59
   5  -3  -2   14.07    1.35
  -5  -3   2   10.54    3.13
   5  -3  -2   14.43    1.25
  -5   3   2   11.49    1.83
   5   3  -2   14.63    1.29
   5   3  -2   16.07    1.78
   5   3  -2   16.81    2.52
  -5   3   2   14.17    1.54
   3  -3  -2   73.81    5.03
  -3  -3   2   68.50    4.92
   3  -3  -2   74.27    4.79
  -3  -3   2   68.29    4.86
   3   3  -2   57.22    5.80
  -3   3   2   56.03    5.61
  -3   3   2   69.32    4.91
   3   3  -2   66.53    5.05
  -1  -3   2   96.66    6.10
   1  -3  -2   91.30    6.08
  -1  -3   2   83.72    6.19
  -1   3   2   88.16    6.11
   1   3  -2   75.43    7.28
  -1   3   2   82.67    7.00
  -1   3   2   75.70    6.45
   1  -3   2   40.71    3.15
  -1  -3  -2   32.66    4.05
   1  -3   2   41.88    3.04
   1  -3   2   39.53    2.93
  -1  -3  -2   41.56    3.10
   1   3   2   36.57    3.46
   1   3   2   41.52    3.00
   1   3   2   40.22    3.04
   1   3   2   44.63    4.27
  -1   3  -2   45.55    3.03
   1   3   2   40.56    2.91
  -3  -3  -2    1.57    1.06
  -3  -3  -2    1.31    0.48
  -3  -3  -2    0.45    0.73
   3  -3   2    1.21    0.60
   3   3   2    1.22    0.41
   3   3   2    1.17    1.03
  -3   3  -2    0.15    1.33
   3   3   2    2.15    1.37
   3   3   2    1.86    0.69
  -5  -3  -2   13.53    4.62
   5  -3   2    8.21    1.53
  -5  -3  -2   11.11    1.69
  -5  -3  -2    8.60    1.10
  -5   3  -2   11.35    2.28
   5   3   2    9.76    2.54
   5   3   2    8.76    1.07
  -5   3  -2    7.40    1.42
   5   3   2   10.35    2.06
   5   3   2   12.59    2.34
   5   3   2   10.49    1.28
   7  -3   2   20.28    2.69
   7  -3   2   25.50    2.79
  -7  -3  -2   18.69    3.25
  -7  -3  -2   21.11    5.87
   7  -3   2   21.86    2.59
   7  -3   2   17.75    2.96
  -7  -3  -2   13.20    3.06
  -7  -3  -2   15.83    2.70
  -7   3  -2   11.19    2.65
  -7   3  -2   19.70    2.87
  -7   3  -2   17.97    5.27
   7   3   2   20.43    2.05
  -7   3  -2   15.17    2.33
   7   3   2   18.27    3.45
   7   3   2   13.27    4.01
   7   3   2   20.21    1.98
   8  -4  -2    0.68    0.86
   8  -4  -2    2.46    1.05
   8  -4  -2    2.09    1.17
  -8  -4   2    3.11    1.29
   8  -4  -2    4.50    1.64
  -8  -4   2    2.76    0.92
  -8  -4   2   -1.02    3.03
  -8  -4   2    1.76    1.94
   8  -4  -2    2.45    0.79
  -8   4   2    0.61    1.39
  -8   4   2    1.03    1.43
   8   4  -2    5.73    2.09
  -8   4   2   -3.33    2.73
   8   4  -2    1.79    0.78
  -8   4   2    4.06    3.66
   8   4  -2    1.15    0.95
   8   4  -2    1.95    1.97
   6  -4  -2    1.89    0.58
  -6  -4   2    0.20    0.58
   6  -4  -2    1.13    0.79
   6  -4  -2   -0.56    0.70
   6   4  -2    0.48    0.56
  -6   4   2    2.00    0.98
   6   4  -2    0.88    0.81
   6   4  -2    0.75    1.54
   6   4  -2   -0.29    1.27
  -6   4   2    2.79    1.12
   4  -4  -2   22.86    1.76
  -4  -4   2   20.11    1.76
   4  -4  -2   18.92    1.93
   4   4  -2   19.41    2.26
  -4   4   2   21.69    1.90
   4   4  -2   19.08    1.65
   4   4  -2   19.63    3.04
  -4   4   2   21.56    1.99
  -4   4   2   18.36    2.96
  -2  -4   2  206.31   13.16
   2  -4  -2  210.74   13.02
   2  -4  -2  213.09   13.08
  -2  -4   2  175.29   13.18
  -2   4   2  163.01   13.58
  -2   4   2  179.62   13.13
   2   4  -2  211.95   13.17
   2   4  -2  173.34   13.36
   2   4  -2  153.81   14.49
  -2   4   2  162.20   14.25
   0  -4  -2  388.70   32.70
   0  -4   2  468.70   31.52
   0  -4   2  478.49   31.37
   0   4  -2  467.08   31.32
   0   4   2  462.43   32.91
   0   4  -2  447.02   33.45
   0   4   2  416.88   31.85
   0   4   2  458.79   31.40
   2  -4   2  575.14   41.26
   2  -4   2  538.09   40.96
  -2  -4  -2  614.56   41.14
   2   4   2  604.44   41.13
   2   4   2  619.11   41.05
   2   4   2  563.39   41.69
   2   4   2  604.57   41.12
  -4  -4  -2  495.41   30.31
   4  -4   2  391.50   29.75
  -4  -4  -2  434.57   30.05
  -4   4  -2  400.78   30.19
  -4   4  -2  375.85   30.30
   4   4   2  420.89   30.41
   4   4   2  438.23   30.86
   4   4   2  473.89   29.93
   4   4   2  456.66   30.08
   4   4   2  392.75   30.68
   6  -4   2  203.74   13.98
  -6  -4  -2  190.51   13.86
   6  -4   2  214.48   13.82
   6  -4   2  181.88   13.82
  -6  -4  -2  181.07   16.28
  -6  -4  -2  177.56   13.43
   6  -4   2  169.82   13.63
  -6   4  -2  170.13   13.76
   6   4   2  181.60   14.34
   6   4   2  199.56   14.62
  -6   4  -2  190.82   13.80
   6   4   2  202.12   14.46
   6   4   2  191.49   13.51
   7  -5  -2    3.66    1.23
   7  -5  -2    4.47    1.63
   7  -5  -2    4.16    1.26
  -7  -5   2    3.77    3.45
  -7  -5   2    3.17    1.28
  -7  -5   2    3.46    1.01
   7  -5  -2    4.23    0.97
  -7  -5   2    4.14    1.45
   7  -5  -2    4.13    1.10
  -7   5   2    5.43    4.23
   7   5  -2    5.00    2.96
   7   5  -2    0.90    1.79
  -7   5   2    3.59    3.20
   7   5  -2    2.72    0.86
   7   5  -2    3.95    1.12
   7   5  -2    4.19    2.41
  -7   5   2    4.78    1.36
  -5  -5   2   16.84    1.77
   5  -5  -2   20.81    1.78
   5  -5  -2   20.51    1.88
   5  -5  -2   19.84    2.09
   5   5  -2   21.04    1.73
   5   5  -2   14.32    2.53
  -5   5   2   18.41    2.04
   5   5  -2   20.75    3.88
  -5   5   2   23.15    2.04
   5   5  -2   18.12    1.95
  -5   5   2   14.49    3.45
  -3  -5   2  110.78    8.02
   3  -5  -2  117.88    7.88
  -3  -5   2  111.42    8.04
   3  -5  -2  116.18    7.89
   3  -5  -2  113.88    7.95
  -3   5   2   98.81    9.55
  -3   5   2  102.48    8.70
   3   5  -2  112.47    7.90
  -3   5   2  112.05    8.06
   3   5  -2  102.94    9.86
  -3   5   2  109.17    8.07
   3   5  -2  111.34    8.48
  -1  -5   2  135.54   10.11
  -1  -5   2  144.31   10.04
  -1   5   2  147.72   10.06
  -1   5   2  142.81   11.80
   1   5  -2  145.76   10.55
   1   5  -2  153.21    9.97
  -1   5   2  142.00   10.08
  -1   5   2  127.40   10.64
   1   5  -2  121.22   11.95
   1  -5   2   65.28    5.17
   1  -5   2   66.19    4.97
  -1  -5  -2   71.74    5.21
  -1  -5  -2   79.64    5.12
   1   5   2   74.36    7.07
  -1   5  -2   62.87    7.25
   1   5   2   55.88    5.67
   1   5   2   67.37    5.11
   1   5   2   68.80    5.08
   3  -5   2    1.98    0.78
  -3  -5  -2    2.41    1.21
   3  -5   2    3.42    0.92
  -3  -5  -2    2.28    0.74
   3  -5   2    1.75    0.43
  -3  -5  -2    1.79    1.07
   3   5   2    2.27    0.90
   3   5   2    2.46    0.74
   3   5   2    1.81    0.58
   3   5   2    0.78    1.83
  -3   5  -2   -0.18    1.39
   3   5   2    1.49    1.41
   5  -5   2   13.56    2.26
  -5  -5  -2   17.28    1.75
   5  -5   2   17.15    2.15
  -5  -5  -2   16.73    3.07
   5  -5   2   17.78    2.08
  -5  -5  -2   14.46    4.78
   5  -5   2   16.16    1.86
   5   5   2   15.06    2.85
   5   5   2   11.12    2.74
  -5   5  -2   15.86    1.92
   5   5   2   16.30    1.80
   5   5   2   15.80    1.69
   5   5   2   15.31    3.09
  -5   5  -2   12.58    2.43
  -6  -6   2  181.20   13.99
  -6  -6   2  152.48   11.52
   6  -6  -2  172.75   11.95
   6  -6  -2  147.46   11.74
   6  -6  -2  162.19   11.58
  -6   6   2  137.46   11.53
   6   6  -2  158.39   11.45
  -6   6   2  162.89   13.24
   6   6  -2  151.86   11.42
   6   6  -2  167.83   12.61
  -6   6   2  133.73   12.54
  -6   6   2  159.95   11.84
   6   6  -2  161.08   12.50
  -6   6   2  172.62   11.63
  -6   6   2  159.24   12.83
   4  -6  -2  195.14   13.05
  -4  -6   2  187.46   13.58
   4  -6  -2  195.18   12.98
  -4  -6   2  188.48   13.21
   4  -6  -2  195.57   13.03
   4  -6  -2  173.11   13.21
   4   6  -2  186.18   13.81
   4   6  -2  184.09   13.06
  -4   6   2  179.62   13.93
  -4   6   2  187.68   13.22
   4   6  -2  174.94   13.07
  -4   6   2  185.90   14.30
  -4   6   2  164.18   14.02
  -4   6   2  185.08   13.23
  -4   6   2  158.87   15.20
  -2  -6   2  155.66   11.00
   2  -6  -2  166.99   10.86
  -2  -6   2  147.40   11.00
   2  -6  -2  160.92   10.92
   2   6  -2  153.90   11.61
  -2   6   2  146.36   11.00
  -2   6   2  160.10   11.03
  -2   6   2  126.67   11.73
  -2   6   2  157.94   13.25
   2   6  -2  135.03   13.32
   2   6  -2  160.36   10.91
   0  -6  -2  108.17    7.20
   0  -6   2   93.03    7.07
   0  -6  -2  105.81    7.09
   0   6   2  100.37    7.18
   0   6  -2   84.94    9.68
   0   6   2   83.70    7.89
   0   6   2   95.81    7.14
   0   6  -2   95.64    7.92
   0   6  -2   95.13    7.09
   0   6   2  104.86    9.49
   2  -6   2   50.26    3.94
   2  -6   2   51.00    3.66
  -2  -6  -2   50.32    3.81
   2  -6   2   47.95    3.90
  -2  -6  -2   45.53    6.45
  -2  -6  -2   60.13    4.48
   2  -6   2   40.83    4.23
   2   6   2   50.99    3.89
  -2   6  -2   42.30    6.64
  -2   6  -2   45.15    3.81
   2   6   2   52.12    3.71
   2   6   2   45.10    4.75
   2   6   2   46.36    3.78
   2   6   2   50.02    4.89
   4  -6   2   36.20    3.11
  -4  -6  -2   24.64    6.15
   4  -6   2   28.47    3.07
  -4  -6  -2   32.96    2.84
   4  -6   2   30.55    2.93
   4   6   2   32.76    4.18
  -4   6  -2   38.30    5.29
   4   6   2   30.88    2.94
  -4   6  -2   29.90    2.89
   4   6   2   43.06    6.58
   4   6   2   31.90    3.88
   4   6   2   34.02    2.88
   4   6   2   32.37    3.79
  -5  -7   2    1.83    0.85
   5  -7  -2   -1.51    3.18
  -5  -7   2    2.62    1.47
  -5  -7   2    3.35    3.55
   5  -7  -2    2.13    0.90
  -5  -7   2    1.40    1.26
  -5  -7   2    1.97    1.33
  -5   7   2    5.27    1.72
   5   7  -2    1.60    3.31
  -5   7   2   -1.56    2.77
   5   7  -2    3.88    3.45
   5   7  -2    2.46    0.83
  -5   7   2    1.84    1.14
   5   7  -2   -4.84    2.41
   5   7  -2    0.78    1.01
  -5   7   2    1.17    1.14
  -5   7   2    2.50    2.38
  -5   7   2    3.15    3.39
   3  -7  -2    6.42    3.58
  -3  -7   2   10.21    1.83
  -3  -7   2    9.07    1.29
   3  -7  -2    8.20    1.07
  -3  -7   2    8.80    1.74
  -3  -7   2   10.15    1.83
  -3  -7   2   10.05    1.26
  -3  -7   2    8.64    3.41
  -3   7   2    8.30    1.50
   3   7  -2   11.57    1.60
   3   7  -2   10.25    4.40
   3   7  -2   10.39    3.11
  -3   7   2    9.21    1.99
  -3   7   2   15.00    4.65
  -3   7   2    9.56    1.45
  -3   7   2   10.23    2.76
   3   7  -2    8.02    1.21
  -3   7   2   17.02    3.62
  -1  -7   2   13.34    1.86
  -1  -7   2   12.01    1.49
  -1  -7   2   12.22    1.43
  -1  -7   2   12.49    2.15
   1  -7  -2    9.16    3.58
  -1  -7   2    9.34    5.46
  -1   7   2   14.10    2.99
  -1   7   2   16.62    3.44
  -1   7   2   13.23    1.53
   1   7  -2   13.21    1.82
  -1   7   2   15.39    4.02
   1   7  -2   14.89    1.51
   1   7  -2   17.98    3.33
   1   7  -2   11.44    4.48
   1  -7   2    3.76    3.00
  -1  -7  -2    6.14    0.97
   1  -7   2    7.03    1.90
  -1  -7  -2    1.10    3.13
   1  -7   2    5.50    1.12
   1  -7   2    6.45    1.22
   1  -7   2    4.95    1.04
   1   7   2    7.53    2.80
  -1   7  -2    7.24    1.61
   1   7   2    7.30    2.34
   1   7   2    8.56    2.05
   1   7   2    6.15    1.10
   1   7   2    6.09    3.24
  -1   7  -2    6.64    1.22
  -1   7  -2    4.12    3.23
  -1   7  -2   11.02    3.09
   1   7   2    7.16    1.34
   3  -7   2   -0.17    0.87
   3  -7   2   -0.04    0.82
  -3  -7  -2    1.80    3.45
  -3  -7  -2    1.75    0.76
   3  -7   2    0.73    1.29
   3  -7   2   -0.78    1.36
  -3   7  -2   -0.77    0.75
   3   7   2    0.31    0.86
   3   7   2    0.33    0.78
   3   7   2    1.83    0.95
   3   7   2    0.77    2.25
  -3   7  -2   -0.41    3.52
   3   7   2    1.27    1.94
   3   7   2   -1.75    2.16
   3   7   2   -1.70    2.82
  -4  -8   2  185.22   14.22
  -4  -8   2  203.93   14.70
  -4  -8   2  166.51   14.13
  -4  -8   2  220.48   16.46
  -4   8   2  186.83   14.27
  -4   8   2  206.05   15.79
   4   8  -2  197.36   14.18
   4   8  -2  196.72   14.19
  -4   8   2  190.55   14.24
   4   8  -2  209.56   15.52
   4   8  -2  227.70   18.90
  -4   8   2  188.59   18.09
   4   8  -2  201.82   15.70
  -4   8   2  170.86   15.46
  -4   8   2  207.90   14.49
  -2  -8   2  106.54    8.38
  -2  -8   2  102.27    7.89
   2  -8  -2  100.83    7.78
  -2  -8   2  102.38    9.77
  -2  -8   2  112.12    8.02
  -2  -8   2   95.91    8.00
   2  -8  -2   91.84    9.98
  -2  -8   2  101.04    7.86
   2   8  -2  110.41    9.95
   2   8  -2  109.91   12.13
  -2   8   2  109.77    9.23
  -2   8   2  114.48    9.52
  -2   8   2   99.06    7.95
   2   8  -2  108.44    7.89
  -2   8   2  113.70   11.74
   2   8  -2  125.68   10.12
  -2   8   2  113.27    8.00
   2   8  -2  108.91    7.95
  -2   8   2  105.82    8.22
   0  -8   2   24.78    2.73
   0  -8   2   32.43    4.92
   0  -8   2   29.03    2.50
   0  -8  -2   26.64    2.40
   0  -8   2   23.69    2.80
   0  -8   2   24.80    2.51
   0  -8  -2   27.57    5.01
   0  -8   2   24.00    3.01
   0   8   2   28.76    2.67
   0   8   2   30.00    4.28
   0   8  -2   32.09    6.34
   0   8   2   31.79    6.39
   0   8  -2   29.20    5.94
   0   8  -2   29.04    2.71
   0   8   2   28.05    3.19
   0   8   2   30.72    2.61
   0   8  -2   27.88    7.14
   0   8  -2   29.82    2.58
   0   8   2   25.01    4.12
   2  -8   2    5.83    1.59
   2  -8   2    2.58    1.07
   2  -8   2    3.98    1.59
  -2  -8  -2    4.47    1.04
  -2  -8  -2    4.08    3.23
   2  -8   2    4.07    1.03
   2   8   2    2.79    1.02
   2   8   2    3.93    1.11
  -2   8  -2    3.63    1.24
   2   8   2    2.69    1.90
  -2   8  -2    5.16    1.20
   2   8   2    8.79    2.97
  -2   8  -2    1.79    4.79
   2   8   2    2.03    1.00
  -2   8  -2    4.22    3.81
  -2   8  -2    5.12    3.61
   2   8   2    8.41    2.84
   2   8   2    7.53    4.21
  -1  -9   2   52.40    4.46
  -1  -9   2   63.92    4.64
   1  -9  -2   51.22    7.01
  -1  -9   2   60.85    5.44
  -1  -9   2   43.94    5.82
   1  -9  -2   49.81    4.37
   1   9  -2   56.44    4.58
   1   9  -2   70.33    8.30
  -1   9   2   60.00    6.43
  -1   9   2   59.43    4.67
   1   9  -2   57.37    4.64
   1   9  -2   69.41    7.26
  -1   9   2   55.01    4.61
  -1   9   2   47.51    6.32
  10   0  -3    0.68    0.84
 -10   0   3    2.45    3.18
  10   0  -3   -1.85    1.70
  10   0  -3    1.22    1.96
 -10   0   3    0.11    4.46
  10   0  -3   -0.04    0.69
   8   0  -3   -0.21    0.65
   8   0  -3   -0.59    0.98
   8   0  -3    0.73    0.51
  -8   0   3    1.33    2.80
   6   0  -3    0.09    0.57
   6   0  -3    0.37    0.36
  -6   0   3    0.16    0.23
  -6   0   3    0.04    0.77
  -4   0   3    0.01    0.19
   4   0  -3    0.34    0.25
   4   0  -3    0.06    0.35
  -4   0   3    0.03    0.15
  -2   0   3   -0.43    0.17
  -2   0   3   -0.38    0.24
  -2   0   3   -0.25    0.25
   2   0  -3   -0.06    0.29
  -2   0   3   -0.30    0.17
   0   0   3   -0.43    0.31
   0   0   3   -0.62    0.22
   0   0   3   -0.78    0.29
   2   0   3   -0.41    0.53
  -2   0  -3    0.34    0.23
  -2   0  -3   -0.35    0.92
  -2   0  -3    0.73    0.56
   2   0   3    0.24    0.34
   4   0   3   -0.24    0.89
  -4   0  -3    0.78    0.75
   4   0   3    0.36    0.56
  -4   0  -3   -0.38    1.16
  -6   0  -3    1.56    1.15
   6   0   3    0.97    1.35
  -6   0  -3    3.34    4.76
  -6   0  -3    0.08    1.60
   6   0   3    1.68    2.03
  -9  -1   3    9.68    1.13
   9  -1  -3    8.59    1.18
   9  -1  -3   10.72    2.28
  -9  -1   3    9.40    1.74
  -9  -1   3   13.83    4.37
   9  -1  -3    9.77    2.16
   9  -1  -3    9.72    1.31
  -9  -1   3   10.37    3.72
   9   1  -3    8.56    1.32
   9   1  -3   13.51    2.63
  -9   1   3   18.04    5.40
  -9   1   3   10.20    3.52
   9   1  -3   11.53    2.23
   9   1  -3    9.03    1.18
  -9   1   3    3.83    2.19
  -7  -1   3   43.11    3.30
   7  -1  -3   42.47    3.67
   7  -1  -3   45.03    3.28
  -7  -1   3   36.82    4.81
   7  -1  -3   43.86    3.32
   7   1  -3   44.44    3.36
   7   1  -3   43.79    3.74
   7   1  -3   43.62    3.29
  -7   1   3   46.90    4.42
  -5  -1   3  223.41   15.81
   5  -1  -3  231.35   15.75
   5  -1  -3  242.06   16.01
  -5  -1   3  220.30   15.68
   5   1  -3  226.73   15.96
  -5   1   3  213.76   15.98
   5   1  -3  217.06   15.73
  -3  -1   3  455.86   34.58
   3  -1  -3  559.93   34.53
  -3  -1   3  533.57   34.71
  -3  -1   3  494.58   34.55
  -3   1   3  418.70   34.57
   3   1  -3  512.90   34.58
  -1  -1   3  551.52   39.58
  -1  -1   3  538.54   39.63
  -1   1   3  595.81   39.61
  -1   1   3  580.51   39.64
  -1   1   3  577.21   39.79
  -1  -1  -3  660.62   39.99
   1  -1   3  586.68   39.97
   1  -1   3  547.70   39.95
   1  -1   3  527.64   40.04
  -1   1  -3  524.25   39.90
  -1   1  -3  528.65   39.79
   1   1   3  605.12   40.19
   1   1   3  602.09   39.95
  -3  -1  -3  312.57   23.28
   3  -1   3  338.59   23.65
   3  -1   3  321.59   23.47
  -3  -1  -3  353.43   23.70
  -3  -1  -3  346.09   23.59
   3   1   3  341.44   23.44
  -3   1  -3  319.62   23.54
   3   1   3  329.15   23.82
  -3   1  -3  344.64   23.67
  -5  -1  -3   90.01    7.15
   5  -1   3   96.57    7.34
  -5  -1  -3   98.07    7.45
   5  -1   3   86.06    7.33
  -5   1  -3   88.72    7.15
  -5   1  -3   91.84    7.41
   5   1   3   99.42    7.53
   5   1   3   99.96    7.58
   5   1   3   95.11    6.89
  -7  -1  -3   16.23    2.71
   7  -1   3   22.89    3.03
  -7  -1  -3   25.67    7.01
  -7  -1  -3   20.63    2.95
  -7  -1  -3   17.20    3.05
   7  -1   3   21.57    4.00
   7   1   3   19.30    3.20
  -7   1  -3   23.24    2.85
   7   1   3   18.66    3.37
  -7   1  -3   18.08    2.69
  -7   1  -3   21.33    5.83
  -7   1  -3   15.03    3.06
 -10  -2   3    2.16    0.91
 -10  -2   3    0.15    3.16
  10  -2  -3    0.54    1.43
  10  -2  -3   -1.00    1.50
 -10  -2   3   -0.35    1.04
 -10  -2   3    0.05    4.75
  10  -2  -3    0.90    0.75
  10  -2  -3    0.67    0.82
  10   2  -3    2.51    0.86
  10   2  -3    3.88    2.13
 -10   2   3    3.06    3.66
  10   2  -3    2.11    2.55
 -10   2   3    2.99    4.22
  10   2  -3    0.63    0.87
 -10   2   3   -0.48    1.87
  -8  -2   3   26.21    2.28
   8  -2  -3   28.66    3.10
   8  -2  -3   26.32    2.25
  -8  -2   3   26.64    4.82
   8  -2  -3   30.16    2.40
   8  -2  -3   29.00    2.87
   8   2  -3   29.32    2.53
   8   2  -3   24.03    2.28
   8   2  -3   22.42    2.97
  -8   2   3   32.85    4.65
  -8   2   3   33.02    4.90
   6  -2  -3  153.62   10.87
   6  -2  -3  156.14   11.21
   6  -2  -3  155.18   10.90
  -6  -2   3  147.67   10.94
   6   2  -3  155.41   10.92
   6   2  -3  154.37   11.20
   4  -2  -3  248.32   16.73
  -4  -2   3  226.77   16.45
  -4  -2   3  222.84   16.56
  -4  -2   3  255.51   16.71
   4   2  -3  206.52   17.23
   4   2  -3  253.94   16.64
   2  -2  -3  110.59    8.06
  -2  -2   3  118.24    8.12
  -2  -2   3  111.82    8.25
  -2  -2   3  118.78    8.11
   2  -2  -3  130.12    8.30
   2  -2  -3  130.65    8.09
   2   2  -3  103.33    8.01
  -2   2   3  128.33    8.16
   2   2  -3   97.67    8.99
  -2   2   3   96.25    8.38
   0  -2   3    0.98    0.23
   0  -2  -3    0.66    0.40
   0  -2   3    0.95    0.33
   0  -2   3    0.60    0.44
   0  -2  -3    1.06    0.86
   0   2   3    0.50    0.30
   0   2   3    1.22    0.68
   0   2   3    1.13    0.24
   0   2   3    1.30    0.72
  -2  -2  -3   65.34    5.13
   2  -2   3   66.16    4.95
  -2  -2  -3   70.53    5.01
  -2  -2  -3   63.79    6.24
   2  -2   3   62.79    4.92
   2   2   3   61.66    5.29
   2   2   3   64.46    4.87
   2   2   3   76.25    4.93
  -2   2  -3   69.44    4.94
   4  -2   3  118.38    8.70
  -4  -2  -3  116.15    8.79
  -4  -2  -3  110.34    8.30
  -4  -2  -3  118.12    8.66
  -4   2  -3  110.89    8.63
   4   2   3  114.76    9.05
   4   2   3  125.32    8.44
  -4   2  -3  111.84    8.79
   4   2   3  126.32    8.44
   6  -2   3   58.92    5.31
   6  -2   3   63.79    5.67
  -6  -2  -3   62.20    8.58
   6  -2   3   62.46    5.36
  -6  -2  -3   65.08    5.56
  -6  -2  -3   68.17    5.33
  -6   2  -3   58.35    5.56
  -6   2  -3   58.92    5.25
  -6   2  -3   61.51    5.42
   6   2   3   64.71    5.80
   6   2   3   77.43    5.97
   9  -3  -3  225.92   16.80
  -9  -3   3  231.14   16.27
  -9  -3   3  246.87   18.71
   9  -3  -3  225.30   16.20
   9  -3  -3  236.75   16.28
   9  -3  -3  216.01   16.79
  -9  -3   3  210.98   16.37
   9   3  -3  214.82   16.91
  -9   3   3  239.04   16.77
  -9   3   3  239.06   18.39
   9   3  -3  246.59   17.09
   9   3  -3  228.25   16.30
  -9   3   3  221.74   18.43
   9   3  -3  223.34   16.32
   7  -3  -3  288.39   19.95
  -7  -3   3  286.87   20.07
   7  -3  -3  271.02   20.34
  -7  -3   3  256.67   23.02
   7  -3  -3  314.44   20.03
   7   3  -3  289.93   20.01
  -7   3   3  249.15   20.04
  -7   3   3  319.93   20.30
  -7   3   3  264.73   21.84
   7   3  -3  294.52   20.47
   7   3  -3  282.78   19.99
  -5  -3   3  178.06   16.51
   5  -3  -3  241.39   15.17
  -5  -3   3  208.41   15.21
   5  -3  -3  224.07   15.43
   5   3  -3  224.00   15.09
   5   3  -3  224.97   15.40
   5   3  -3  233.25   16.56
  -5   3   3  185.36   15.16
  -3  -3   3   90.31    6.73
   3  -3  -3  104.34    6.57
  -3  -3   3   94.70    6.61
  -3  -3   3   92.32    6.62
   3  -3  -3  105.48    6.84
   3   3  -3   95.19    6.68
  -3   3   3   88.06    7.33
  -3   3   3   79.47    7.04
  -3   3   3   76.64    6.61
  -1  -3   3   20.61    1.94
   1  -3  -3   25.28    1.86
  -1  -3   3   23.65    1.80
  -1  -3   3   22.68    1.84
  -1   3   3   25.58    2.84
  -1   3   3   17.58    2.23
  -1   3   3   25.57    1.92
  -1   3   3   23.16    1.86
  -1  -3  -3   10.57    2.47
   1  -3   3   11.39    0.96
   1  -3   3   12.34    1.30
   1  -3   3   10.84    1.16
  -1  -3  -3    9.82    1.57
  -1  -3  -3   14.31    1.30
   1  -3   3   13.07    1.09
   1   3   3   13.66    0.96
   1   3   3   11.90    1.19
   1   3   3   11.93    0.95
   1   3   3    9.27    1.67
  -1   3  -3   13.02    1.19
   1   3   3   15.98    2.49
   1   3   3   11.40    1.12
   3  -3   3   33.15    2.87
  -3  -3  -3   31.97    3.01
  -3  -3  -3   31.62    2.59
  -3  -3  -3   31.34    2.78
  -3   3  -3   30.76    2.75
   3   3   3   37.30    2.67
   3   3   3   38.05    3.48
   3   3   3   30.61    2.58
  -3   3  -3   30.39    3.10
   3   3   3   36.48    2.74
  -5  -3  -3   77.51    9.26
   5  -3   3   79.48    6.45
   5  -3   3   72.44    6.15
  -5  -3  -3   74.07    6.12
  -5  -3  -3   81.68    6.40
   5  -3   3   77.50    6.14
   5   3   3   85.74    6.11
  -5   3  -3   74.97    6.49
  -5   3  -3   75.39    6.16
   5   3   3   79.84    6.77
   5   3   3   80.45    6.81
  -5   3  -3   82.48    6.45
   5   3   3   74.82    6.70
   5   3   3   87.76    5.95
   8  -4  -3    1.24    1.38
   8  -4  -3    2.19    0.70
   8  -4  -3    1.78    0.86
   8  -4  -3    2.58    0.94
  -8  -4   3    1.53    0.86
  -8  -4   3    0.84    2.98
   8  -4  -3    1.70    1.11
  -8  -4   3    0.75    1.11
   8   4  -3   -2.15    2.11
   8   4  -3    2.08    0.71
  -8   4   3    1.52    2.76
  -8   4   3    3.40    1.66
  -8   4   3    0.88    4.24
   8   4  -3    0.73    1.86
   8   4  -3    2.06    0.94
  -8   4   3    4.71    1.98
   6  -4  -3    8.71    1.43
  -6  -4   3    6.92    1.04
   6  -4  -3    7.38    0.95
   6  -4  -3    9.00    1.11
   6   4  -3    9.71    1.87
   6   4  -3    8.83    1.41
  -6   4   3    6.27    2.64
   6   4  -3   11.71    2.97
  -6   4   3    8.39    1.64
  -6   4   3    8.48    1.72
   6   4  -3    7.95    1.00
  -4  -4   3   12.17    1.27
   4  -4  -3   11.50    1.42
   4  -4  -3   11.69    1.21
   4  -4  -3   13.42    1.12
  -4  -4   3   11.47    1.19
   4   4  -3    8.96    2.43
  -4   4   3    9.99    2.02
   4   4  -3   12.40    1.09
   4   4  -3   12.26    1.72
  -4   4   3    9.78    2.22
  -4   4   3    9.65    1.53
  -4   4   3   12.65    1.37
   2  -4  -3    3.78    0.84
   2  -4  -3    4.57    1.84
   2  -4  -3    6.90    0.76
  -2  -4   3    6.11    0.73
  -2  -4   3    4.38    0.76
  -2   4   3    6.66    0.87
   2   4  -3    9.33    1.46
   2   4  -3    4.12    1.92
  -2   4   3    5.87    1.73
  -2   4   3    5.57    1.46
   0  -4   3   -0.11    0.54
   0  -4  -3    1.36    0.86
   0  -4  -3    0.90    1.56
   0  -4   3   -0.01    0.30
   0  -4  -3    1.47    0.57
   0   4   3   -0.03    0.36
   0   4   3   -0.65    0.52
   0   4   3    0.73    1.10
   0   4   3    0.22    1.02
   0   4  -3    0.36    0.48
  -2  -4  -3    4.78    0.98
   2  -4   3    4.61    0.84
  -2  -4  -3    3.95    1.18
   2  -4   3    5.26    0.99
   2   4   3    5.75    2.41
   2   4   3    4.04    0.76
  -2   4  -3    3.75    0.88
   2   4   3    3.91    0.82
   2   4   3    4.18    1.54
  -2   4  -3    2.66    1.79
   2   4   3    5.53    1.08
   4  -4   3    7.73    1.28
   4  -4   3    4.14    1.10
  -4  -4  -3    4.38    1.65
   4  -4   3    5.75    1.35
  -4  -4  -3    5.38    1.11
  -4  -4  -3    4.59    1.20
  -4  -4  -3    8.18    4.21
   4  -4   3    4.44    1.69
  -4   4  -3    7.48    1.32
   4   4   3    8.00    2.17
   4   4   3    9.53    2.30
   4   4   3    8.56    2.22
   4   4   3    7.23    1.40
   4   4   3    7.62    1.26
   4   4   3    7.67    1.30
  -6  -4  -3    4.38    1.69
   6  -4   3    3.89    1.45
   6  -4   3    2.87    1.48
  -6  -4  -3    4.68    1.91
   6  -4   3    5.36    1.59
  -6   4  -3    3.30    2.05
  -6   4  -3    1.62    1.67
   6   4   3    0.89    1.89
   6   4   3    1.10    2.07
   6   4   3    5.11    1.29
  -7  -5   3  180.97   13.26
  -7  -5   3  144.42   10.95
   7  -5  -3  158.69   11.38
  -7  -5   3  177.08   11.65
   7  -5  -3  156.38   10.78
  -7  -5   3  146.65   10.97
   7  -5  -3  152.80   11.00
   7  -5  -3  145.61   11.27
  -7  -5   3  140.15   11.11
  -7   5   3  146.89   10.99
   7   5  -3  153.94   12.24
  -7   5   3  139.34   12.23
   7   5  -3  143.51   10.85
  -7   5   3  153.74   11.33
  -7   5   3  150.06   12.74
  -7   5   3  127.82   13.02
   5  -5  -3  138.74   10.27
   5  -5  -3  150.29    9.89
   5  -5  -3  153.53    9.96
  -5  -5   3  132.79   10.03
   5   5  -3  132.99   10.01
  -5   5   3  123.93   11.61
   5   5  -3  145.31   12.22
   5   5  -3  130.38    9.87
  -5   5   3  147.60   10.07
  -5   5   3  146.41   10.31
  -5   5   3  124.25   10.86
   5   5  -3  129.65   10.41
   3  -5  -3  103.10    6.67
   3  -5  -3   96.62    6.46
  -3  -5   3   93.88    6.70
  -3  -5   3   83.10    6.73
  -3   5   3   93.09    8.33
   3   5  -3   76.14    6.49
   3   5  -3   84.81    7.09
  -3   5   3   94.30    6.70
  -3   5   3  100.38    6.76
   3   5  -3   84.55    8.68
   1  -5  -3   59.08    4.15
  -1  -5   3   49.00    4.15
  -1  -5   3   55.57    4.04
   1  -5  -3   43.29    5.99
  -1   5   3   58.38    4.14
  -1   5   3   59.67    5.85
   1   5  -3   57.66    4.78
  -1   5   3   45.13    4.68
  -1   5   3   57.89    4.14
   1   5  -3   46.80    6.28
   1  -5   3   43.50    3.26
   1  -5   3   40.58    3.58
  -1  -5  -3   46.26    3.50
  -1  -5  -3   46.08    3.63
   1   5   3   42.84    3.37
   1   5   3   49.06    3.46
  -1   5  -3   42.97    3.41
   1   5   3   37.22    4.21
   1   5   3   44.49    3.48
   3  -5   3   50.19    4.18
   3  -5   3   49.80    4.36
  -3  -5  -3   52.48    4.02
  -3  -5  -3   54.34    4.21
  -3  -5  -3   48.31    7.50
  -3  -5  -3   44.89    3.84
   3  -5   3   51.54    4.12
   3  -5   3   48.36    4.09
   3   5   3   46.89    4.92
   3   5   3   50.61    3.82
   3   5   3   49.94    4.70
   3   5   3   48.21    4.83
  -3   5  -3   46.07    3.99
   3   5   3   55.31    3.91
  -3   5  -3   43.81    4.42
  -5  -5  -3   66.60    5.40
   5  -5   3   65.68    5.23
   5  -5   3   60.62    5.51
  -5  -5  -3   59.32    4.92
   5  -5   3   63.23    5.33
  -5  -5  -3   56.68    8.55
   5   5   3   64.21    6.26
   5   5   3   69.71    5.01
   5   5   3   61.76    6.92
   5   5   3   71.06    5.02
   5   5   3   57.48    5.94
   8  -6  -3   12.17    1.92
  -8  -6   3   15.05    1.83
   8  -6  -3   12.55    2.44
  -8  -6   3   10.29    1.90
  -8  -6   3   17.31    6.37
   8  -6  -3   17.18    2.53
  -8   6   3   12.70    2.23
   8   6  -3   13.29    1.65
  -8   6   3   12.77    3.56
   8   6  -3   13.66    1.78
  -8   6   3   12.18    3.60
   8   6  -3   12.83    3.41
  -8   6   3    8.38    2.15
   8   6  -3   12.74    5.53
  -8   6   3   26.68    7.87
   8   6  -3   16.01    3.42
  -8   6   3   11.30    2.08
   6  -6  -3   68.59    5.81
   6  -6  -3   74.76    5.23
   6  -6  -3   69.32    5.14
   6  -6  -3   71.89    5.43
  -6  -6   3   60.02    5.48
   6  -6  -3   75.18    5.69
   6  -6  -3   55.86    7.67
  -6  -6   3   58.60    5.63
  -6  -6   3   84.53    7.95
  -6  -6   3   65.74    5.32
  -6  -6   3   64.50    5.35
  -6   6   3   75.72    5.49
   6   6  -3   82.14    8.59
   6   6  -3   64.03    5.17
  -6   6   3   58.58    6.68
   6   6  -3   73.65    6.39
  -6   6   3   77.19    5.74
  -6   6   3   66.22    6.78
  -6   6   3   67.43    5.38
  -6   6   3   63.54    8.15
   4  -6  -3   96.03    7.71
  -4  -6   3  111.11    7.82
   4  -6  -3  107.94    7.53
   4  -6  -3   80.00    9.77
  -4  -6   3  102.93    8.04
  -4  -6   3  100.70    7.62
   4  -6  -3  107.69    7.39
  -4  -6   3  101.91    7.64
   4  -6  -3  108.47    7.46
  -4   6   3  102.35    8.97
  -4   6   3  120.45    7.75
   4   6  -3   95.53    8.25
  -4   6   3  109.86   10.02
   4   6  -3   91.78    7.54
   4   6  -3  101.49    7.45
  -4   6   3   98.88    7.90
  -4   6   3  112.58    7.67
  -4   6   3   84.43    8.51
  -2  -6   3   44.40    4.18
   2  -6  -3   58.17    4.11
  -2  -6   3   51.70    4.15
   2  -6  -3   55.14    4.17
   2   6  -3   57.30    4.08
  -2   6   3   61.20    6.37
  -2   6   3   55.73    4.51
  -2   6   3   53.82    4.25
   2   6  -3   63.64    5.29
   2   6  -3   46.69    6.73
  -2   6   3   46.17    5.00
   0  -6   3    0.82    0.58
   0  -6   3    0.34    0.56
   0  -6  -3    0.94    0.79
   0  -6   3    1.26    1.31
   0  -6  -3   -0.14    0.98
   0  -6   3   -0.79    1.15
   0   6   3    3.19    1.97
   0   6  -3    1.91    2.50
   0   6   3   -1.19    2.26
   0   6  -3    1.47    0.69
   0   6   3   -0.10    0.64
   0   6   3    0.18    0.80
   0   6   3    1.28    0.64
   0   6   3    1.58    1.74
   0   6  -3    1.17    1.78
   0   6  -3   -1.01    1.97
   0   6   3   -0.86    1.65
  -2  -6  -3   30.28    6.34
   2  -6   3   25.12    2.61
  -2  -6  -3   31.31    2.79
  -2  -6  -3   27.74    2.60
   2  -6   3   34.42    3.19
   2  -6   3   22.59    2.93
   2  -6   3   29.06    2.65
   2  -6   3   26.85    2.70
  -2  -6  -3   28.24    2.44
   2  -6   3   26.91    2.78
   2   6   3   31.44    2.51
  -2   6  -3   18.87    5.79
   2   6   3   28.11    2.43
  -2   6  -3   24.32    3.03
   2   6   3   35.57    5.70
   2   6   3   28.51    3.20
   2   6   3   25.63    3.54
   2   6   3   33.71    2.65
  -2   6  -3   30.15    2.53
   2   6   3   27.03    3.87
  -4  -6  -3   53.19    4.29
   4  -6   3   50.43    4.54
  -4  -6  -3   60.83    8.10
   4  -6   3   52.96    4.50
   4  -6   3   50.47    4.59
  -4  -6  -3   52.30    4.68
  -4   6  -3   52.50    4.47
   4   6   3   58.53    5.80
   4   6   3   54.10    5.35
   4   6   3   60.28    4.32
   4   6   3   56.42    5.51
  -7  -7   3   12.34    2.23
  -7  -7   3    8.00    1.59
   7  -7  -3    9.20    1.64
  -7  -7   3   11.13    2.91
   7  -7  -3    5.84    1.69
  -7  -7   3    7.77    1.78
   7  -7  -3   11.25    4.44
   7  -7  -3   11.81    1.68
  -7  -7   3    7.26    1.77
  -7   7   3    8.41    1.85
   7   7  -3   10.53    1.63
  -7   7   3   10.81    2.13
  -7   7   3   13.45    3.73
  -7   7   3    4.86    1.59
  -7   7   3   11.75    3.55
   7   7  -3    9.15    3.23
   7   7  -3    9.58    1.50
  -5  -7   3   76.41    6.12
   5  -7  -3   70.12    5.37
  -5  -7   3   68.77    5.66
  -5  -7   3   67.22    5.99
  -5  -7   3   86.28    8.23
  -5  -7   3   68.49    5.58
   5  -7  -3   54.24    8.02
   5   7  -3   66.94    6.88
  -5   7   3   76.54    5.71
   5   7  -3   72.26    5.45
   5   7  -3   70.67    5.56
  -5   7   3   78.47    6.00
  -5   7   3   65.89    6.98
  -5   7   3   76.72    9.16
  -5   7   3   66.83    7.12
   5   7  -3   82.22    9.44
  -5   7   3   71.17    5.62
  -3  -7   3  209.56   15.45
  -3  -7   3  227.52   15.57
  -3  -7   3  192.60   15.48
   3  -7  -3  222.88   15.29
  -3  -7   3  208.63   15.84
   3  -7  -3  206.01   15.23
  -3  -7   3  254.61   17.35
  -3  -7   3  215.22   15.44
   3   7  -3  215.28   15.36
  -3   7   3  195.11   16.37
   3   7  -3  215.07   18.97
   3   7  -3  213.32   16.27
  -3   7   3  237.26   18.43
  -3   7   3  214.87   15.42
   3   7  -3  218.04   15.31
  -3   7   3  216.05   15.45
  -3   7   3  193.18   16.44
  -3   7   3  218.88   15.65
  -1  -7   3  294.96   23.49
  -1  -7   3  312.28   23.22
  -1  -7   3  327.01   23.07
   1  -7  -3  360.78   23.06
  -1  -7   3  313.72   23.24
  -1  -7   3  342.30   24.64
   1  -7  -3  294.84   25.08
  -1  -7   3  319.44   23.29
  -1  -7   3  358.65   23.11
   1   7  -3  367.19   24.23
  -1   7   3  322.38   23.99
   1   7  -3  299.93   23.04
  -1   7   3  294.92   23.22
   1   7  -3  325.47   23.04
  -1   7   3  343.39   23.55
   1   7  -3  324.76   27.04
  -1   7   3  311.01   24.12
  -1   7   3  365.27   23.19
   1  -7   3  272.97   21.56
   1  -7   3  263.95   22.30
   1  -7   3  273.34   21.26
   1  -7   3  293.94   20.97
   1  -7   3  303.67   21.16
  -1  -7  -3  314.54   21.08
  -1  -7  -3  308.26   23.61
  -1  -7  -3  305.05   21.11
   1  -7   3  273.15   21.29
   1  -7   3  289.50   21.29
   1   7   3  303.55   22.25
   1   7   3  321.50   21.08
   1   7   3  331.07   21.17
  -1   7  -3  263.75   24.97
  -1   7  -3  274.07   21.09
   1   7   3  335.25   21.19
   1   7   3  328.36   22.14
   1   7   3  291.13   21.50
  -1   7  -3  312.26   22.34
  -3  -7  -3  154.25   14.14
   3  -7   3  147.36   11.03
   3  -7   3  142.91   11.03
  -3  -7  -3  156.86   10.82
  -3   7  -3  141.95   10.89
   3   7   3  159.39   10.82
   3   7   3  128.02   10.81
   3   7   3  163.86   12.35
  -4  -8   3   13.33    1.91
   4  -8  -3   10.10    4.19
  -4  -8   3   13.87    2.00
  -4  -8   3   11.03    2.69
  -4  -8   3   12.60    2.23
  -4  -8   3   10.93    3.89
  -4  -8   3   13.21    1.74
  -4   8   3    5.60    2.95
  -4   8   3   15.53    1.92
  -4   8   3   17.00    2.51
  -4   8   3   17.33    7.09
   4   8  -3   14.54    1.90
   4   8  -3   13.25    1.66
  -4   8   3   17.28    2.01
   4   8  -3   14.00    5.78
  -4   8   3   13.70    3.49
   2  -8  -3    7.16    3.67
  -2  -8   3    5.25    1.49
  -2  -8   3    6.79    3.45
  -2  -8   3    5.74    1.23
  -2  -8   3    8.84    1.38
  -2  -8   3    7.86    1.82
  -2  -8   3    8.96    1.68
  -2   8   3    7.93    2.59
  -2   8   3    9.42    4.10
   2   8  -3    9.72    1.38
  -2   8   3    7.92    2.70
  -2   8   3    7.11    1.43
   2   8  -3   15.53    6.60
   2   8  -3    3.75    1.36
  -2   8   3    7.72    1.63
   0  -8   3    0.08    0.83
   0  -8   3   -0.58    1.14
   0  -8   3    0.09    1.16
   0  -8   3   -0.02    0.89
   0  -8  -3   -0.95    3.13
   0  -8   3    0.87    1.14
   0  -8   3   -0.22    2.82
   0  -8  -3    1.26    0.78
   0   8   3    2.45    2.41
   0   8   3    0.23    3.53
   0   8  -3    1.36    1.15
   0   8  -3    0.64    4.28
   0   8   3   -3.98    2.25
   0   8   3    1.07    0.89
   0   8  -3   -0.66    0.79
   0   8   3   -1.39    1.55
   0   8   3    0.90    0.90
   0   8   3    0.04    0.93
  -2  -8  -3    4.22    1.14
  -2  -8  -3    3.15    3.54
   2  -8   3    4.70    1.33
   2  -8   3    2.31    1.27
   2  -8   3    4.10    1.57
   2  -8   3    2.85    1.05
   2  -8   3    2.88    1.41
  -2   8  -3    4.42    1.26
   2   8   3    3.44    1.16
   2   8   3    6.82    1.42
   2   8   3    3.70    2.07
   2   8   3    6.47    2.99
   2   8   3    2.19    1.17
  -2   8  -3    5.88    1.52
   2   8   3    4.44    2.44
  -2   8  -3   -1.63    3.83
  10   0  -4  159.60   12.72
 -10   0   4  187.09   15.07
  10   0  -4  184.04   13.43
  10   0  -4  180.33   13.40
 -10   0   4  184.81   15.07
 -10   0   4  172.79   12.76
  -8   0   4  108.75    7.93
  -8   0   4  117.33    9.97
   8   0  -4  111.55    8.06
   8   0  -4  118.99    8.13
   8   0  -4  102.24    9.14
  -6   0   4   34.30    2.64
   6   0  -4   35.68    2.59
   6   0  -4   33.86    2.86
  -6   0   4   34.22    2.56
  -4   0   4    3.98    0.99
  -4   0   4    3.84    0.53
   4   0  -4    3.97    0.57
   4   0  -4    3.60    0.73
  -4   0   4    3.93    0.52
  -4   0   4    3.66    0.88
  -2   0   4    6.22    0.61
  -2   0   4    6.10    0.75
  -2   0   4    7.28    0.62
   2   0  -4    7.59    1.08
  -2   0   4    5.85    0.71
   0   0   4   60.46    4.38
   0   0   4   56.88    4.30
   0   0  -4   56.70    4.21
   0   0   4   59.65    4.33
   2   0   4  176.83   13.13
   2   0   4  181.54   12.99
  -2   0  -4  185.44   13.03
  -2   0  -4  185.71   13.14
   4   0   4  261.67   18.54
  -4   0  -4  247.02   18.70
   4   0   4  277.74   18.94
  -4   0  -4  255.15   18.86
   4   0   4  264.05   18.43
  -6   0  -4  193.08   15.32
   6   0   4  196.39   15.30
  -6   0  -4  201.29   15.16
   6   0   4  234.05   15.50
   9  -1  -4   47.01    4.40
  -9  -1   4   52.18    6.24
  -9  -1   4   50.11    3.94
   9  -1  -4   46.29    4.54
   9  -1  -4   45.93    3.67
   9  -1  -4   46.44    3.76
  -9  -1   4   48.52    3.70
   9   1  -4   46.26    3.76
  -9   1   4   47.14    6.23
   9   1  -4   46.13    4.65
  -9   1   4   52.11    6.26
   9   1  -4   53.65    4.55
  -9   1   4   46.44    3.87
  -9   1   4   46.26    4.54
   9   1  -4   46.41    3.69
   7  -1  -4   80.25    5.80
   7  -1  -4   83.71    6.21
   7  -1  -4   78.46    5.83
  -7  -1   4   82.27    5.67
   7   1  -4   82.20    6.20
  -7   1   4   73.54    5.75
   7   1  -4   85.56    5.82
   7   1  -4   77.47    5.85
   5  -1  -4   46.92    3.27
  -5  -1   4   45.47    3.35
  -5  -1   4   44.21    3.26
  -5  -1   4   38.15    3.32
   5  -1  -4   46.05    3.52
   5   1  -4   47.29    3.48
  -5   1   4   38.45    3.72
  -5   1   4   48.33    3.34
   5   1  -4   47.69    3.24
  -3  -1   4    0.24    0.26
   3  -1  -4   -0.43    0.44
  -3  -1   4    0.24    0.25
   3  -1  -4    0.02    0.25
  -3  -1   4   -0.01    0.37
   3  -1  -4    0.28    0.24
  -3   1   4    0.08    0.27
  -3   1   4   -0.11    0.57
   3   1  -4   -0.05    0.49
  -1  -1   4   55.02    4.19
  -1  -1   4   53.56    4.30
   1  -1  -4   62.42    4.94
   1  -1  -4   58.13    4.10
  -1   1   4   55.73    4.16
  -1   1   4   57.95    4.35
  -1   1   4   56.64    4.19
  -1  -1  -4  110.07    8.18
   1  -1   4  111.54    8.32
   1  -1   4  112.46    8.17
   1  -1   4  108.32    8.19
  -1  -1  -4  123.07    9.49
   1   1   4  108.35    8.17
   1   1   4  125.12    8.23
  -1   1  -4  111.27    8.14
   1   1   4  113.76    8.40
   3  -1   4   56.04    5.23
  -3  -1  -4   63.34    4.70
  -3  -1  -4   69.87    5.13
   3  -1   4   67.56    5.02
  -3  -1  -4   72.33    5.35
  -3   1  -4   63.88    5.26
   3   1   4   72.24    5.01
  -3   1  -4   63.64    5.08
   3   1   4   67.34    5.36
   5  -1   4   12.75    2.14
   5  -1   4   13.38    2.88
  -5  -1  -4   17.92    6.09
  -5  -1  -4   11.84    2.30
   5  -1   4   12.85    2.13
  -5  -1  -4   12.17    1.91
  -5   1  -4   12.10    1.90
   5   1   4   11.52    1.80
   5   1   4   14.94    2.39
  -5   1  -4   10.36    2.28
   5   1   4   15.78    3.09
  10  -2  -4   51.79    4.11
 -10  -2   4   52.06    4.32
  10  -2  -4   58.44    5.08
  10  -2  -4   50.25    4.19
 -10  -2   4   56.36    4.18
 -10  -2   4   62.95   10.11
  10  -2  -4   60.09    5.71
 -10   2   4   47.35    4.63
  10   2  -4   54.78    5.35
 -10   2   4   49.68    4.77
  10   2  -4   53.64    5.26
  10   2  -4   51.39    4.23
  10   2  -4   49.82    4.14
  -8  -2   4  101.78    7.63
   8  -2  -4   98.95    7.37
  -8  -2   4  104.93    7.47
   8  -2  -4   95.91    7.70
  -8  -2   4   88.90   10.57
   8  -2  -4   94.61    7.81
   8  -2  -4  104.51    7.99
   8   2  -4  101.71    7.43
   8   2  -4  101.09    7.39
  -8   2   4  101.09    9.53
  -8   2   4  106.28    9.31
   8   2  -4  107.92    8.02
  -8   2   4  112.18    7.38
   6  -2  -4  197.91   13.81
   6  -2  -4  199.95   14.11
   6  -2  -4  195.22   13.78
  -6  -2   4  186.49   13.86
  -6  -2   4  195.64   13.67
   6   2  -4  195.73   13.75
   6   2  -4  198.76   14.03
   4  -2  -4  315.88   20.97
  -4  -2   4  279.21   20.77
  -4  -2   4  309.91   20.96
  -4  -2   4  286.71   20.75
   4  -2  -4  322.39   20.72
   4   2  -4  292.62   20.74
  -4   2   4  267.09   20.77
  -2  -2   4  306.28   20.26
  -2  -2   4  285.84   20.29
   2  -2  -4  262.67   20.92
  -2  -2   4  297.27   20.49
  -2   2   4  268.13   20.57
  -2   2   4  316.01   20.34
   0  -2  -4  256.83   19.11
   0  -2   4  241.75   17.99
   0  -2  -4  272.23   17.98
   0  -2   4  242.36   18.14
   0   2   4  250.47   18.29
   0   2   4  261.54   17.99
   0   2   4  261.84   17.87
   2  -2   4  142.43   11.03
  -2  -2  -4  155.71   10.75
  -2  -2  -4  147.44   10.63
   2  -2   4  145.06   10.51
  -2   2  -4  150.63   10.57
   2   2   4  150.24   10.54
  -2   2  -4  138.48   10.69
  -4  -2  -4   68.39    5.80
   4  -2   4   80.40    5.99
   4  -2   4   77.47    6.25
   4  -2   4   78.61    5.97
  -4  -2  -4   77.14    6.06
   4  -2   4   84.58    5.91
   4   2   4   73.86    6.26
  -4   2  -4   69.78    6.02
   4   2   4   76.49    6.42
  -4   2  -4   63.67    5.76
   4   2   4   75.58    5.68
   9  -3  -4   23.97    2.10
  -9  -3   4   24.32    2.45
   9  -3  -4   23.70    2.24
   9  -3  -4   23.48    3.00
  -9  -3   4   26.72    5.00
  -9  -3   4   22.78    2.21
   9  -3  -4   24.17    2.78
  -9   3   4   23.87    2.38
  -9   3   4   28.52    4.88
   9   3  -4   23.33    2.29
  -9   3   4   23.76    4.83
   9   3  -4   28.06    3.60
   9   3  -4   20.64    3.49
   9   3  -4   24.50    2.21
  -9   3   4   28.22    3.15
   7  -3  -4   36.31    3.48
  -7  -3   4   40.05    3.19
   7  -3  -4   38.52    3.13
  -7  -3   4   40.85    3.70
   7  -3  -4   38.75    3.04
  -7   3   4   48.77    5.59
   7   3  -4   45.25    3.68
   7   3  -4   38.06    3.17
   7   3  -4   38.95    3.05
   5  -3  -4   21.74    1.72
  -5  -3   4   21.58    1.81
   5  -3  -4   22.24    1.84
   5  -3  -4   22.49    2.11
  -5  -3   4   21.56    1.66
   5   3  -4   18.47    2.79
   5   3  -4   19.34    1.66
  -5   3   4   23.04    2.09
   5   3  -4   24.51    2.12
  -5   3   4   17.95    2.69
  -3  -3   4    0.09    0.33
   3  -3  -4    0.18    0.35
  -3  -3   4   -0.08    0.43
  -3  -3   4    0.32    0.32
   3   3  -4   -0.26    0.49
  -3   3   4    0.19    0.62
   3   3  -4   -0.19    0.93
  -3   3   4   -0.17    0.95
  -3   3   4   -0.51    0.37
  -1  -3   4   25.82    2.14
  -1  -3   4   27.79    2.04
   1  -3  -4   27.15    2.26
   1  -3  -4   24.71    3.42
  -1  -3   4   25.71    2.32
   1  -3  -4   27.66    2.13
  -1   3   4   23.98    2.69
  -1   3   4   28.75    2.16
  -1  -3  -4   54.30    4.28
  -1  -3  -4   57.00    4.19
   1  -3   4   49.07    4.44
   1  -3   4   51.79    4.33
  -1   3  -4   61.96    4.09
   1   3   4   48.22    4.88
   1   3   4   55.05    3.89
   1   3   4   54.60    4.12
   3  -3   4   34.36    3.37
   3  -3   4   34.00    3.19
  -3  -3  -4   33.74    2.91
   3  -3   4   31.48    3.13
  -3  -3  -4   31.60    2.64
   3  -3   4   33.26    3.04
   3   3   4   31.53    3.78
   3   3   4   33.73    2.77
  -3   3  -4   34.08    2.89
  -3   3  -4   34.67    3.26
   3   3   4   31.41    3.49
   3   3   4   34.11    3.71
   5  -3   4   10.04    2.56
  -5  -3  -4    8.63    4.64
   5  -3   4    6.75    1.66
   5  -3   4    6.92    1.63
   5  -3   4    7.20    1.77
  -5  -3  -4    7.10    1.68
  -5  -3  -4    5.77    1.83
  -5   3  -4    7.64    2.16
  -5   3  -4    8.24    1.69
   5   3   4    9.41    2.41
  -5   3  -4    9.19    2.22
   8  -4  -4   73.75    5.99
   8  -4  -4   81.43    6.56
  -8  -4   4   75.89    6.33
  -8  -4   4   93.20    8.53
   8  -4  -4   79.73    6.24
  -8  -4   4   87.10    6.27
   8  -4  -4   80.50    6.71
  -8  -4   4   80.59    6.17
   8  -4  -4   80.91    6.09
  -8   4   4   72.21    9.18
   8   4  -4   81.76    6.07
   8   4  -4   84.14    6.15
   8   4  -4   88.07    7.59
  -8   4   4   91.21    8.38
  -8   4   4   80.76    6.64
  -6  -4   4  309.81   21.79
   6  -4  -4  303.61   21.64
   6  -4  -4  307.01   22.04
  -6  -4   4  336.12   22.24
   6  -4  -4  330.32   21.71
   6   4  -4  302.01   21.60
   6   4  -4  337.07   23.64
  -6   4   4  258.78   22.47
  -6   4   4  280.79   22.50
   6   4  -4  309.93   21.95
   4  -4  -4  605.92   38.71
  -4  -4   4  545.45   38.42
   4  -4  -4  619.73   38.36
  -4  -4   4  533.63   38.57
  -4   4   4  557.25   39.34
   4   4  -4  476.99   39.96
   4   4  -4  568.29   38.42
  -4   4   4  485.17   38.30
   2  -4  -4  679.34   41.20
  -2  -4   4  569.30   41.35
  -2  -4   4  567.44   41.12
   2  -4  -4  645.75   41.14
  -2  -4   4  583.96   41.13
   2   4  -4  564.75   41.20
  -2   4   4  625.26   41.09
   2   4  -4  535.49   43.32
  -2   4   4  513.74   41.67
  -2   4   4  597.26   41.20
   0  -4   4  317.92   26.38
   0  -4  -4  388.88   26.10
   0  -4  -4  383.88   26.05
   0  -4   4  358.99   25.85
   0   4   4  367.27   26.01
   0   4   4  397.74   25.94
   0   4  -4  375.62   25.87
   2  -4   4  101.98    7.78
  -2  -4  -4  107.39    7.73
   2  -4   4  105.74    7.76
  -2  -4  -4  104.37    7.61
   2  -4   4   94.97    7.63
   2  -4   4   96.89    7.75
   2   4   4  101.54    8.19
   2   4   4  100.83    7.62
   2   4   4  117.18    7.50
   2   4   4   99.49    8.33
   2   4   4   99.14    8.27
  -2   4  -4   99.37    7.76
  -2   4  -4  101.35    7.54
  -4  -4  -4    9.81    1.89
  -4  -4  -4    8.98    4.68
  -4  -4  -4   13.58    1.74
   4  -4   4   10.62    2.29
  -4  -4  -4   11.31    1.44
   4  -4   4   11.26    1.93
   4  -4   4   10.10    1.67
   4   4   4   10.83    2.54
  -4   4  -4    8.04    1.67
   4   4   4    6.32    2.11
   4   4   4    9.52    1.84
   4   4   4   12.47    2.71
  -4   4  -4   10.25    2.35
   9  -5  -4   31.11    3.74
  -9  -5   4   32.53    6.53
  -9  -5   4   36.58    3.48
  -9  -5   4   41.06    3.38
  -9   5   4   39.67    5.57
   9   5  -4   43.22    4.79
  -9   5   4   39.22    5.69
   7  -5  -4   70.35    5.00
  -7  -5   4   69.52    7.28
   7  -5  -4   64.80    5.14
  -7  -5   4   60.36    5.23
   7  -5  -4   64.47    5.41
  -7  -5   4   63.97    5.16
  -7  -5   4   66.14    5.10
   7  -5  -4   64.23    4.97
  -7  -5   4   57.14    5.45
   7  -5  -4   67.86    5.62
  -7   5   4   81.62    7.35
   7   5  -4   68.29    4.95
   7   5  -4   62.25    5.84
  -7   5   4   62.26    5.46
   7   5  -4   64.46    5.06
  -7   5   4   63.10    6.33
  -7   5   4   64.56    6.86
  -5  -5   4   37.44    3.32
   5  -5  -4   36.06    2.84
  -5  -5   4   36.27    3.00
   5  -5  -4   31.87    3.20
   5  -5  -4   33.15    3.53
  -5  -5   4   34.21    3.06
   5  -5  -4   39.03    2.99
  -5  -5   4   37.81    3.54
  -5   5   4   37.42    4.54
  -5   5   4   42.63    3.12
   5   5  -4   33.84    3.56
  -5   5   4   37.87    5.27
  -5   5   4   32.82    3.51
  -5   5   4   40.23    3.23
   5   5  -4   30.83    4.86
  -5   5   4   30.68    4.01
   3  -5  -4    0.49    0.51
  -3  -5   4   -0.41    0.65
   3  -5  -4   -0.47    0.80
  -3   5   4   -0.41    1.04
  -3   5   4   -0.31    1.38
   3   5  -4    2.06    2.17
  -3   5   4   -0.81    1.33
  -3   5   4    0.08    0.78
  -1  -5   4   40.16    3.71
   1  -5  -4   47.21    3.65
  -1  -5   4   48.07    3.48
   1  -5  -4   46.06    3.55
   1   5  -4   46.26    3.39
  -1   5   4   33.90    4.22
   1   5  -4   54.16    4.70
  -1   5   4   47.44    3.56
   1   5  -4   40.59    6.32
  -1   5   4   47.67    3.62
  -1   5   4   48.43    3.60
   1  -5   4   77.85    6.84
   1  -5   4   81.22    6.68
   1  -5   4   87.43    6.51
   1  -5   4   92.68    6.54
   1  -5   4   74.73    6.64
  -1  -5  -4   95.59    6.60
   1  -5   4   81.25    6.63
   1  -5   4   96.95    6.15
   1   5   4   86.75    7.11
   1   5   4   90.99    6.40
   1   5   4   83.52    6.84
   1   5   4   82.93    7.36
  -1   5  -4   88.55    6.36
   1   5   4   81.11    7.29
  -1   5  -4   88.22    6.92
  -3  -5  -4   50.45    4.13
  -3  -5  -4   54.25    4.36
  -3  -5  -4   58.10    7.90
   3  -5   4   51.52    4.55
   3  -5   4   58.88    4.48
   3  -5   4   50.60    4.52
   3  -5   4   57.30    4.37
   3  -5   4   51.93    4.70
   3  -5   4   48.21    4.63
  -3  -5  -4   54.79    4.63
   3   5   4   44.00    4.91
  -3   5  -4   51.21    4.78
   3   5   4   59.49    5.31
   3   5   4   60.49    5.23
   3   5   4   56.56    5.39
  -3   5  -4   59.51    4.46
   3   5   4   54.73    4.23
   8  -6  -4   62.50    4.89
   8  -6  -4   69.56    5.65
   8  -6  -4   64.32    5.09
  -8  -6   4   67.68    5.06
  -8  -6   4   63.76    7.38
   8  -6  -4   50.26   11.66
  -8  -6   4   65.01    5.12
  -8  -6   4   52.49    5.42
   8  -6  -4   56.58    5.41
  -8  -6   4   53.08    5.14
  -8  -6   4   76.22    5.86
  -8   6   4   63.69    5.59
   8   6  -4   64.54    5.01
  -8   6   4   55.80    6.79
   8   6  -4   65.42    6.30
  -8   6   4   63.17    7.21
   8   6  -4   60.83    4.93
  -6  -6   4   46.61    4.30
   6  -6  -4   48.68    4.08
   6  -6  -4   53.49    4.23
  -6  -6   4   48.90    4.14
   6  -6  -4   47.32    4.44
  -6  -6   4   51.13    4.29
   6  -6  -4   45.13    7.56
  -6  -6   4   46.25    4.61
  -6  -6   4   63.58    6.73
   6  -6  -4   52.22    3.98
   6   6  -4   63.66    7.88
  -6   6   4   53.80    6.02
  -6   6   4   46.95    5.65
  -6   6   4   51.42    4.55
   6   6  -4   51.69    3.99
   6   6  -4   50.24    4.20
  -6   6   4   61.75    4.91
  -4  -6   4   44.73    3.89
  -4  -6   4   41.57    3.58
  -4  -6   4   41.41    4.07
  -4  -6   4   48.07    3.92
   4  -6  -4   35.81    6.81
  -4  -6   4   47.87    3.67
  -4  -6   4   40.86    3.82
  -4  -6   4   41.90    4.46
  -4  -6   4   43.56    3.68
   4  -6  -4   44.68    3.47
   4   6  -4   45.44    6.52
   4   6  -4   50.14    3.46
  -4   6   4   43.62    3.99
  -4   6   4   41.45    4.73
  -4   6   4   36.45    4.95
  -4   6   4   47.67    3.75
  -4   6   4   47.84    3.67
  -2  -6   4   42.69    4.24
  -2  -6   4   40.39    3.84
  -2  -6   4   52.88    3.83
  -2  -6   4   46.16    4.09
  -2  -6   4   49.54    3.75
  -2  -6   4   49.23    3.79
   2  -6  -4   50.79    3.83
  -2  -6   4   41.40    4.01
   2  -6  -4   49.94    3.71
  -2   6   4   50.87    5.04
  -2   6   4   52.35    3.84
  -2   6   4   38.68    4.62
  -2   6   4   44.85    4.25
   2   6  -4   45.46    7.10
  -2   6   4   52.13    3.80
   0  -6   4   66.27    5.37
   0  -6  -4   70.75    5.02
   0  -6  -4   60.13    7.81
   0  -6   4   58.05    5.25
   0  -6   4   64.85    5.09
   0  -6   4   74.27    5.10
   0  -6   4   63.07    5.25
   0  -6   4   66.97    4.84
   0  -6   4   58.77    5.48
   0  -6   4   69.65    5.05
   0  -6   4   55.82    5.15
   0   6   4   61.27    6.11
   0   6   4   64.95    6.06
   0   6  -4   60.17    8.70
   0   6   4   69.03    5.03
   0   6   4   70.19    4.99
   0   6   4   69.97    5.01
   0   6   4   62.47    5.51
  -2  -6  -4   81.95    9.39
   2  -6   4   86.58    6.03
   2  -6   4   67.55    6.18
   2  -6   4   73.48    6.19
   2  -6   4   70.17    6.44
  -2  -6  -4   79.80    6.02
  -2  -6  -4   88.68    6.16
   2  -6   4   84.04    6.34
   2  -6   4   82.05    6.11
  -2  -6  -4   76.85    5.90
   2  -6   4   74.10    6.19
   2   6   4   80.52    6.85
   2   6   4   85.25    5.93
  -2   6  -4   71.28    6.32
   2   6   4   76.22    7.06
   2   6   4   82.64    6.98
   5  -7  -4    1.92    3.87
  -5  -7   4    3.14    1.00
   5  -7  -4    1.98    0.86
  -5  -7   4    2.55    1.37
  -5  -7   4    2.30    1.20
  -5  -7   4    2.50    1.06
   5  -7  -4    2.42    1.06
  -5  -7   4    1.49    1.19
  -5  -7   4    3.55    1.32
   5   7  -4    6.35    2.30
  -5   7   4    3.05    1.39
  -5   7   4    1.63    1.19
  -5   7   4    2.41    1.61
   5   7  -4    2.77    0.86
  -5   7   4   -1.84    2.59
  -5   7   4    1.12    2.43
   5   7  -4    1.70    3.97
  -3  -7   4   -1.54    1.29
  -3  -7   4    0.23    1.16
  -3  -7   4    0.80    1.64
  -3  -7   4   -0.98    1.23
  -3  -7   4    0.37    0.77
  -3  -7   4    0.01    0.98
  -3  -7   4    0.51    0.75
   3  -7  -4    0.67    0.80
  -3  -7   4    0.37    1.19
   3  -7  -4   -0.73    0.97
  -3  -7   4   -0.99    1.08
   3  -7  -4    6.42    3.72
  -3   7   4    1.15    2.37
  -3   7   4   -1.56    1.73
   3   7  -4    1.57    3.57
  -3   7   4   -0.23    0.92
  -3   7   4    2.09    1.17
   3   7  -4   -0.97    0.73
  -3   7   4   -0.66    1.83
  -3   7   4   -0.58    2.93
  -1  -7   4    3.09    1.11
  -1  -7   4    3.72    0.92
   1  -7  -4    4.58    1.29
  -1  -7   4    6.55    1.18
  -1  -7   4    4.69    1.58
   1  -7  -4    3.89    1.06
  -1  -7   4    5.55    1.22
   1  -7  -4    1.65    3.72
  -1  -7   4    4.70    1.46
  -1  -7   4    5.01    1.47
  -1  -7   4    7.34    1.67
  -1   7   4    7.59    1.36
  -1   7   4    4.03    1.77
  -1   7   4    6.17    3.57
   1   7  -4    5.73    4.28
  -1   7   4    4.58    1.06
  -1   7   4    2.86    2.21
   1   7  -4    5.07    1.02
  -1   7   4    4.34    2.37
  -1   7   4    5.68    1.27
   1  -7   4    5.03    1.55
   1  -7   4    9.16    1.67
   1  -7   4    9.98    2.16
   1  -7   4    8.43    1.44
  -1  -7  -4    8.02    1.69
  -1  -7  -4    7.80    1.58
   1  -7   4    8.93    1.76
   1  -7   4    7.86    1.49
  -1  -7  -4   10.35    4.41
  -1  -7  -4    9.37    1.32
   1  -7   4    9.78    3.46
   1   7   4   11.50    3.08
   1   7   4   10.16    1.50
   1   7   4    9.04    2.66
   1   7   4    8.49    1.51
  -1   7  -4    7.11    1.31
   1   7   4   10.09    4.17
   1   7   4   12.49    2.88
  -1   7  -4    5.23    1.83
   1   7   4    9.79    2.42
  -1   7  -4    7.47    5.07
   1   7   4    9.26    1.62
  -4  -8   4    2.96    1.46
   4  -8  -4    8.04    4.99
  -4  -8   4    2.00    1.45
  -4  -8   4    1.42    1.89
  -4  -8   4    5.37    1.48
  -4  -8   4    4.20    1.89
  -4  -8   4    1.39    1.02
  -4  -8   4    3.01    1.23
   4  -8  -4    5.06    1.33
   4   8  -4    3.04    1.00
  -4   8   4    1.85    1.25
  -4   8   4    3.75    3.27
  -4   8   4    3.96    2.74
  -4   8   4    4.46    3.02
  -4   8   4    5.84    1.51
  -2  -8   4    2.47    1.51
  -2  -8   4    2.43    1.16
  -2  -8   4    3.43    1.21
   2  -8  -4    3.21    3.62
   2  -8  -4    3.56    1.36
  -2  -8   4    4.60    1.41
  -2  -8   4    1.87    1.73
  -2  -8   4    4.48    1.11
  -2  -8   4    2.02    1.16
  -2   8   4    3.03    1.15
   2   8  -4    8.40    6.85
  -2   8   4    3.97    2.68
  -2   8   4    1.04    3.25
  -2   8   4    5.98    4.62
  -2   8   4    2.23    2.65
  -2   8   4    2.69    1.13
  -2   8   4    2.24    1.11
   2   8  -4    3.51    1.08
   2   8  -4    3.09    1.52
   0  -8  -4   19.65    1.90
   0  -8  -4   21.91    6.89
   0  -8   4   17.29    1.89
   0  -8   4   23.23    2.58
   0  -8   4   13.20    2.45
   0  -8   4   14.67    2.40
   0  -8   4   15.52    2.15
   0  -8   4   14.36    2.25
   0   8   4   17.51    2.11
   0   8  -4   16.84    2.02
   0   8   4   23.59    4.56
   0   8   4   18.73    2.90
   0   8   4   19.66    3.60
   0   8   4   21.02    2.17
   0   8   4   18.87    2.10
   0   8  -4   18.10    2.33
  10   0  -5   -0.39    1.72
  10   0  -5    0.04    0.68
  10   0  -5    0.30    0.61
 -10   0   5   -0.70    1.45
 -10   0   5   -1.75    2.88
  10   0  -5   -2.02    1.74
 -10   0   5    0.81    0.91
  -8   0   5   -4.55    2.76
   8   0  -5    0.31    0.41
   8   0  -5   -0.11    0.65
  -8   0   5    0.28    0.46
   8   0  -5    0.51    1.15
  -8   0   5    0.25    0.86
  -6   0   5    0.73    0.85
   6   0  -5    0.16    0.35
   6   0  -5    1.27    0.81
  -6   0   5    0.24    0.38
  -4   0   5    0.38    0.38
   4   0  -5   -0.11    0.26
   4   0  -5    1.33    0.61
   2   0  -5    0.05    0.67
  -2   0   5    0.31    0.37
   2   0  -5    0.16    0.27
   0   0  -5   -0.63    1.27
   0   0  -5    0.30    0.47
   0   0   5    0.29    0.57
   0   0   5   -0.40    0.45
   0   0   5   -0.15    0.50
  -2   0  -5   -1.03    0.62
   2   0   5   -0.75    0.55
  -2   0  -5   -0.50    1.21
   2   0   5    0.16    0.95
   2   0   5   -0.82    0.76
  -4   0  -5   -1.62    1.19
  -4   0  -5   -0.21    0.92
   4   0   5    0.39    1.30
   4   0   5    0.68    1.67
   4   0   5    0.81    2.06
   4   0   5    4.60    2.43
   4   0   5    1.35    1.01
   4   0   5    0.21    1.25
   9  -1  -5  167.35   11.88
  -9  -1   5  149.61   12.49
   9  -1  -5  171.94   12.41
   9  -1  -5  154.88   12.40
  -9  -1   5  178.88   11.92
   9  -1  -5  162.74   11.82
  -9  -1   5  175.97   12.05
  -9   1   5  146.69   12.31
   9   1  -5  173.48   12.37
   9   1  -5  151.36   11.80
  -9   1   5  186.74   13.84
  -9   1   5  172.62   12.27
   9   1  -5  157.85   12.47
   9   1  -5  165.53   11.87
  -9   1   5  177.19   11.99
  -9   1   5  162.86   11.76
  -7  -1   5  344.67   23.28
   7  -1  -5  366.85   23.74
  -7  -1   5  282.66   23.35
  -7  -1   5  359.96   23.47
   7  -1  -5  332.52   23.33
   7  -1  -5  350.77   23.38
   7   1  -5  353.69   23.65
  -7   1   5  314.51   23.35
   7   1  -5  299.02   23.32
   7   1  -5  331.50   23.32
  -5  -1   5  411.51   30.94
   5  -1  -5  473.64   31.12
   5  -1  -5  473.09   30.86
  -5  -1   5  428.38   30.90
   5   1  -5  475.54   31.00
  -5   1   5  426.87   30.96
   5   1  -5  409.22   30.78
  -3  -1   5  315.83   23.06
   3  -1  -5  282.57   23.21
  -3  -1   5  339.69   22.94
  -3  -1   5  358.61   22.90
   3  -1  -5  376.98   22.81
  -3   1   5  293.64   22.97
  -3   1   5  320.35   22.95
   1  -1  -5  164.44   11.71
  -1  -1   5  156.75   11.95
   1  -1  -5  183.15   12.87
  -1  -1   5  162.70   11.83
   1   1  -5  159.52   11.60
  -1   1   5  158.11   11.82
  -1   1   5  177.57   11.80
   1  -1   5   41.02    3.28
   1  -1   5   38.78    3.41
  -1  -1  -5   40.20    3.42
   1  -1   5   39.24    3.12
  -1  -1  -5   40.91    3.24
   1   1   5   40.90    3.49
  -1   1  -5   40.33    3.21
   1   1   5   45.97    3.31
  -1   1  -5   40.23    3.70
   3  -1   5   10.95    1.66
   3  -1   5    8.18    2.29
   3  -1   5    8.41    1.68
   3  -1   5   10.18    2.42
  -3  -1  -5    9.32    1.87
   3  -1   5   10.17    1.64
   3  -1   5   10.02    1.37
  -3  -1  -5    9.57    1.45
   3   1   5    7.71    1.97
   3   1   5   12.43    1.96
   3   1   5    8.15    1.37
   3   1   5    9.69    1.68
  -3   1  -5    9.38    1.45
   3   1   5   13.57    2.86
  -3   1  -5   10.51    1.98
   3   1   5   11.96    2.06
 -10  -2   5   56.23    4.24
  10  -2  -5   51.37    4.14
  10  -2  -5   54.39    4.25
  10  -2  -5   52.33    5.73
  10  -2  -5   55.79    4.95
 -10  -2   5   53.20    5.18
 -10  -2   5   53.26    4.43
  10   2  -5   53.39    4.25
 -10   2   5   62.56    7.84
 -10   2   5   51.07    4.28
 -10   2   5   47.39    4.83
  10   2  -5   52.14    4.18
  10   2  -5   54.64    5.36
  10   2  -5   57.24    5.32
  -8  -2   5   32.16    3.89
  -8  -2   5   30.85    2.54
   8  -2  -5   31.26    3.10
   8  -2  -5   31.04    2.53
   8  -2  -5   28.71    2.40
   8  -2  -5   31.01    3.37
  -8  -2   5   30.05    2.79
  -8  -2   5   27.29    3.21
  -8  -2   5   35.81    5.05
   8   2  -5   31.15    2.55
  -8   2   5   30.43    2.61
  -8   2   5   33.51    3.38
   8   2  -5   29.85    2.41
   8   2  -5   28.75    3.13
  -8   2   5   28.26    2.56
  -8   2   5   35.19    4.59
  -8   2   5   24.08    3.77
   6  -2  -5    1.03    0.40
   6  -2  -5    1.28    0.89
   6  -2  -5    1.09    0.64
  -6  -2   5    1.47    0.44
  -6  -2   5    1.16    0.57
   6   2  -5    1.92    1.24
  -6   2   5   -0.22    1.29
  -6   2   5    0.94    0.54
   6   2  -5    1.44    0.92
   6   2  -5    1.12    0.43
  -4  -2   5   82.19    6.31
   4  -2  -5   89.41    6.36
   4  -2  -5   81.12    6.08
  -4  -2   5   83.83    6.10
  -4  -2   5   80.41    6.07
   4   2  -5   88.85    6.02
  -4   2   5   84.60    6.16
   2  -2  -5  190.40   12.27
  -2  -2   5  160.72   12.33
   2  -2  -5  162.89   13.20
  -2  -2   5  168.00   12.54
  -2   2   5  175.71   12.62
  -2   2   5  185.10   12.39
   0  -2   5  128.18    9.68
   0  -2  -5  134.29    9.55
   0  -2   5  128.76    9.71
   0  -2  -5  132.13    9.47
   0  -2  -5  128.07   10.93
   0   2   5  134.51    9.86
   0   2   5  144.24    9.37
   0   2   5  126.28    9.50
   0   2  -5  129.77    9.35
   2  -2   5   31.27    3.21
   2  -2   5   28.90    2.33
   2  -2   5   30.60    4.49
  -2  -2  -5   26.88    2.53
  -2  -2  -5   22.12    2.89
   2  -2   5   26.22    2.46
   2  -2   5   31.61    2.97
   2  -2   5   26.03    2.71
  -2   2  -5   31.91    2.91
  -2   2  -5   28.41    2.48
   2   2   5   24.57    3.03
   2   2   5   29.84    2.48
   2   2   5   30.19    2.52
  -4  -2  -5    1.07    1.24
   4  -2   5   -0.46    1.67
  -4  -2  -5    1.95    1.06
   4  -2   5    2.15    1.28
   4  -2   5    2.20    1.43
   4  -2   5    0.71    1.20
   4   2   5    4.24    1.87
   4   2   5    3.44    2.18
  -4   2  -5    2.79    1.56
   4   2   5    5.00    1.50
   4   2   5    1.72    1.13
   4   2   5    0.21    2.64
  -4   2  -5    0.24    0.99
  -9  -3   5   17.55    2.10
  -9  -3   5   13.81    2.61
   9  -3  -5   16.64    1.61
   9  -3  -5   16.90    1.75
  -9  -3   5   17.44    4.60
   9  -3  -5   17.31    2.69
  -9  -3   5   14.40    3.27
   9  -3  -5   14.45    2.35
  -9  -3   5   19.36    1.83
  -9   3   5   16.98    2.67
  -9   3   5   12.10    4.29
  -9   3   5   17.50    1.84
  -9   3   5   23.66    4.30
   9   3  -5   15.75    2.96
   9   3  -5   15.49    3.42
   9   3  -5   16.66    1.83
   9   3  -5   16.64    1.65
  -9   3   5   16.53    1.88
  -9   3   5   13.41    3.56
  -7  -3   5    5.22    1.18
   7  -3  -5    6.45    1.99
   7  -3  -5    3.12    0.90
  -7  -3   5    5.77    0.89
  -7  -3   5    4.12    1.49
   7  -3  -5    5.33    1.30
   7  -3  -5    3.96    0.72
  -7  -3   5    6.97    1.37
   7   3  -5    3.49    0.75
  -7   3   5    2.13    1.64
  -7   3   5    4.64    1.08
   7   3  -5    6.65    1.63
   7   3  -5    3.93    1.56
  -7   3   5    5.69    2.66
  -7   3   5    4.50    0.87
   5  -3  -5    8.95    1.10
  -5  -3   5    7.77    1.18
   5  -3  -5    8.94    0.92
  -5  -3   5    9.74    0.93
   5  -3  -5   10.17    1.53
  -5  -3   5    9.11    1.02
  -5   3   5    8.41    1.92
   5   3  -5    6.25    2.14
  -3  -3   5   64.45    4.36
  -3  -3   5   56.14    4.34
   3  -3  -5   62.34    4.32
  -3  -3   5   56.64    4.61
   3  -3  -5   65.68    4.41
  -3   3   5   63.80    4.45
   3   3  -5   49.31    6.02
  -3   3   5   46.94    4.81
  -1  -3   5  203.81   13.33
   1  -3  -5  166.46   14.85
   1  -3  -5  200.38   13.51
   1  -3  -5  198.32   13.45
  -1   3   5  175.09   13.93
   1  -3   5  308.72   21.05
   1  -3   5  283.59   20.62
  -1  -3  -5  293.89   20.38
   1  -3   5  274.78   20.37
   1  -3   5  280.43   20.45
   1  -3   5  288.77   20.01
  -1  -3  -5  296.68   20.46
   1  -3   5  292.01   20.64
   1   3   5  284.57   20.33
   1   3   5  260.27   21.07
  -1   3  -5  297.31   20.26
   1   3   5  285.09   20.85
   3  -3   5  263.94   17.64
   3  -3   5  249.17   17.70
   3  -3   5  246.21   17.91
   3  -3   5  247.47   17.56
  -3  -3  -5  228.38   17.33
  -3  -3  -5  242.86   20.62
   3  -3   5  235.66   17.53
  -3  -3  -5  241.26   17.67
  -3  -3  -5  251.11   17.81
   3   3   5  240.78   17.72
  -3   3  -5  218.91   17.74
  -3   3  -5  228.82   17.62
   3   3   5  258.48   18.28
   3   3   5  268.46   17.58
   3   3   5  273.11   18.19
   8  -4  -5    0.41    1.44
  -8  -4   5    2.80    1.17
   8  -4  -5    2.29    0.82
  -8  -4   5    2.13    1.53
   8  -4  -5    1.77    0.66
  -8  -4   5    0.36    0.78
  -8  -4   5    9.24    3.41
   8  -4  -5    2.78    1.37
  -8  -4   5    1.82    1.30
  -8  -4   5    3.47    1.22
   8  -4  -5    0.52    0.88
  -8   4   5   -0.19    2.60
  -8   4   5    2.15    1.68
  -8   4   5   -1.05    3.54
   8   4  -5    2.37    0.72
   8   4  -5    6.32    2.04
  -8   4   5   -0.30    2.24
  -6  -4   5    2.28    1.09
   6  -4  -5   -0.53    1.64
  -6  -4   5   -0.64    1.11
   6  -4  -5    0.39    1.17
  -6  -4   5    2.12    1.08
  -6  -4   5    1.26    0.94
  -6  -4   5   -0.01    0.55
   6  -4  -5   -0.20    0.91
   6  -4  -5   -0.27    0.43
  -6   4   5   -0.82    1.59
   6   4  -5   -0.50    1.75
  -6   4   5   -2.55    1.47
  -4  -4   5    4.53    1.00
   4  -4  -5    4.87    1.03
   4  -4  -5    3.77    0.71
  -4  -4   5    4.51    0.79
  -4  -4   5    4.05    0.81
  -4   4   5    3.38    1.57
  -4   4   5    6.53    1.69
  -4   4   5    8.07    0.99
   4   4  -5    1.57    1.85
   2  -4  -5    7.65    2.78
   2  -4  -5    9.00    1.05
  -2  -4   5    9.36    1.33
   2  -4  -5    7.88    1.27
  -2  -4   5   11.04    1.06
  -2  -4   5   11.84    1.14
  -2   4   5    9.25    2.07
  -2   4   5    9.67    1.23
   2   4  -5    7.61    3.50
   0  -4   5    7.71    1.56
   0  -4   5    9.14    2.79
   0  -4  -5    5.97    1.38
   0  -4  -5    8.34    1.10
   0  -4   5    8.20    0.80
   0  -4   5    7.64    1.62
   0  -4   5    9.70    1.15
   0  -4   5   10.22    2.39
   0  -4   5    4.88    1.23
   0  -4   5    4.94    1.72
   0  -4   5    6.26    1.24
   0   4   5    5.96    1.07
   0   4   5    5.12    1.68
   2  -4   5    3.11    1.17
  -2  -4  -5    1.91    5.41
   2  -4   5    2.53    1.58
   2  -4   5    3.50    1.17
   2  -4   5    2.98    1.13
   2  -4   5    1.99    1.06
  -2  -4  -5    1.21    1.12
   2  -4   5    0.96    1.09
   2  -4   5    1.83    1.43
  -2  -4  -5    1.12    0.88
  -2  -4  -5    1.58    0.68
  -2   4  -5    4.06    1.81
  -2   4  -5    1.33    0.88
   2   4   5    3.20    1.74
   2   4   5    1.56    0.88
   2   4   5    3.67    1.99
   2   4   5    1.42    1.78
  -7  -5   5   28.93    2.47
   7  -5  -5   26.83    2.84
   7  -5  -5   26.04    2.21
  -7  -5   5   24.40    2.64
   7  -5  -5   25.72    2.37
  -7  -5   5   27.50    2.57
  -7  -5   5   33.35    3.26
   7  -5  -5   24.17    6.30
  -7  -5   5   20.13    2.93
   7  -5  -5   25.19    2.98
   7  -5  -5   23.73    2.49
  -7   5   5   25.01    3.66
  -7   5   5   21.16    3.76
  -7   5   5   27.12    3.14
  -7   5   5   19.21    4.44
   7   5  -5   26.01    2.23
  -5  -5   5   30.94    3.31
  -5  -5   5   32.73    3.16
  -5  -5   5   33.44    3.16
  -5  -5   5   35.65    2.88
  -5  -5   5   35.59    2.96
  -5  -5   5   33.94    3.04
  -5  -5   5   35.84    3.26
   5  -5  -5   39.66    2.93
   5  -5  -5   29.11    2.70
  -5  -5   5   36.65    3.53
  -5   5   5   28.56    3.85
  -5   5   5   36.71    3.45
  -5   5   5   37.31    3.77
  -5   5   5   32.45    4.72
   5   5  -5   33.11    5.42
  -3  -5   5   69.55    5.18
  -3  -5   5   63.97    5.31
  -3  -5   5   75.28    5.11
  -3  -5   5   62.30    5.64
   3  -5  -5   69.28    5.13
  -3  -5   5   68.37    5.17
  -3  -5   5   62.81    5.36
  -3  -5   5   62.90    5.37
   3  -5  -5   73.23    5.06
  -3   5   5   60.24    5.98
   3   5  -5   62.69    7.94
  -3   5   5   75.98    5.21
  -3   5   5   65.35    5.66
  -1  -5   5  132.13    8.97
  -1  -5   5  113.17    9.13
  -1  -5   5  113.91    9.11
  -1  -5   5  122.54    8.92
  -1  -5   5  140.21    9.60
  -1  -5   5  115.22    9.38
  -1  -5   5  127.73    8.93
   1  -5  -5  118.11    8.84
  -1  -5   5  128.80    8.72
   1  -5  -5  118.73    9.60
  -1  -5   5  118.60    9.18
  -1   5   5  111.11    9.61
  -1   5   5  120.98    9.72
  -1   5   5  120.05    9.32
   1   5  -5  112.15   12.39
  -1   5   5  121.04    9.59
  -1   5   5  121.40    8.89
   1   5  -5  128.17    8.65
   1  -5   5  152.47   10.68
   1  -5   5  150.33   10.76
   1  -5   5  142.06   10.97
   1  -5   5  149.28   10.76
  -1  -5  -5  152.52   10.70
   1  -5   5  137.44   11.18
  -1  -5  -5  122.82   13.54
  -1  -5  -5  152.53   10.81
   1  -5   5  143.00   10.91
   1  -5   5  138.16   10.92
   1  -5   5  157.41   10.75
   1   5   5  143.98   11.46
  -1   5  -5  143.51   10.90
  -1   5  -5  147.99   10.60
   1   5   5  153.42   11.68
   1   5   5  150.75   10.65
   3  -5   5  112.39    9.35
  -3  -5  -5  114.56   12.41
  -3  -5  -5  126.03    9.29
   3  -5   5  124.61    9.53
   3  -5   5  127.10    9.48
  -3  -5  -5  123.18    8.92
  -3  -5  -5  120.51    9.13
   3  -5   5  138.86    9.13
  -3   5  -5  113.24    9.15
   3   5   5  140.31   10.40
   3   5   5  105.71    9.89
   3   5   5  130.91    9.07
  -3   5  -5  111.76    9.42
  -6  -6   5    1.55    1.11
  -6  -6   5    1.16    1.10
  -6  -6   5    0.76    1.28
   6  -6  -5    0.53    0.94
   6  -6  -5    0.38    4.83
  -6  -6   5    1.62    1.02
   6  -6  -5    0.55    0.66
   6  -6  -5    0.78    0.85
  -6  -6   5    0.44    0.78
  -6  -6   5    0.82    1.13
  -6   6   5   -0.41    2.24
  -6   6   5    2.29    1.76
   6   6  -5   -0.81    0.74
  -6   6   5   -0.27    2.14
  -6   6   5    1.53    2.63
   6   6  -5    1.51    3.47
  -4  -6   5   35.85    3.25
  -4  -6   5   39.07    3.87
  -4  -6   5   35.55    3.74
   4  -6  -5   26.93    6.18
  -4  -6   5   40.02    3.13
   4  -6  -5   36.51    2.99
  -4  -6   5   32.86    3.51
  -4  -6   5   32.20    3.35
  -4  -6   5   37.27    3.15
  -4  -6   5   38.05    3.15
  -4  -6   5   38.66    3.40
  -4  -6   5   38.35    3.41
   4  -6  -5   37.94    3.11
   4   6  -5   37.20    2.93
  -4   6   5   40.52    3.88
  -4   6   5   38.10    3.21
  -4   6   5   36.47    4.73
   4   6  -5   35.55    6.62
  -4   6   5   34.03    4.52
   2  -6  -5   77.96    6.21
   2  -6  -5   72.48    9.67
  -2  -6   5   80.65    6.51
  -2  -6   5   88.09    7.17
  -2  -6   5   73.59    6.66
  -2  -6   5   82.29    6.16
  -2  -6   5   90.53    6.09
   2  -6  -5   83.79    6.20
  -2  -6   5   80.76    6.23
  -2  -6   5   76.04    6.45
  -2  -6   5   82.22    6.42
  -2  -6   5   87.13    6.20
  -2  -6   5   76.51    6.37
   2   6  -5   79.47   10.51
  -2   6   5   88.26    6.22
  -2   6   5   71.15    7.08
  -2   6   5   84.71    6.68
  -2   6   5   85.09    7.30
   0  -6  -5   61.97    8.53
   0  -6   5   54.13    5.35
   0  -6   5   61.92    5.15
   0  -6   5   66.06    4.87
   0  -6   5   72.15    5.26
   0  -6  -5   66.02    4.81
   0  -6   5   55.64    5.08
   0  -6   5   56.26    5.07
   0  -6   5   63.83    4.89
   0  -6   5   59.53    4.79
   0  -6  -5   61.84    4.92
   0  -6   5   55.02    5.01
   0   6   5   63.72    5.98
   0   6   5   59.81    5.88
   0   6   5   67.32    5.79
   0   6  -5   58.41    4.65
   0   6  -5   58.05    9.36
   0   6   5   61.74    4.80
   0   6   5   58.95    5.32
  -2  -6  -5   14.15    1.63
   2  -6   5   10.50    2.22
   2  -6   5    9.58    1.95
  -2  -6  -5   17.19    5.45
  -2  -6  -5   13.63    1.82
   2  -6   5   15.10    3.18
   2  -6   5   14.48    2.56
   2  -6   5   14.02    1.92
   2  -6   5   12.78    1.86
   2  -6   5    9.12    2.25
  -2   6  -5   11.91    2.56
   2   6   5   12.01    2.79
   2   6   5   17.67    3.55
   2   6   5   10.78    1.95
   2   6   5   10.55    3.30
  -5  -7   5  246.98   18.27
  -5  -7   5  242.12   18.27
  -5  -7   5  281.40   18.49
  -5  -7   5  258.30   18.70
  -5  -7   5  259.97   18.34
   5  -7  -5  232.02   17.90
  -5  -7   5  223.67   18.34
  -5  -7   5  261.67   18.26
  -5  -7   5  253.20   18.12
  -5   7   5  271.65   18.73
   5   7  -5  270.92   22.77
   5   7  -5  253.84   17.90
  -5   7   5  225.34   19.25
  -5   7   5  251.66   19.28
   3  -7  -5  157.07   12.68
  -3  -7   5  180.75   12.13
  -3  -7   5  165.56   12.06
  -3  -7   5  153.76   12.33
  -3  -7   5  171.63   12.11
  -3  -7   5  158.56   12.32
   3  -7  -5  134.22   14.25
  -3  -7   5  163.12   12.26
   3  -7  -5  167.66   12.03
  -3  -7   5  191.46   12.75
  -3  -7   5  158.04   12.69
  -3  -7   5  166.03   12.39
  -3  -7   5  176.67   12.16
   3   7  -5  165.22   17.05
  -3   7   5  160.68   12.66
  -3   7   5  175.39   13.25
  -3   7   5  196.50   12.32
   3   7  -5  176.77   11.97
  -3   7   5  138.29   13.10
  -1  -7   5   59.76    4.43
  -1  -7   5   55.91    4.97
  -1  -7   5   56.65    4.84
  -1  -7   5   50.47    4.86
  -1  -7   5   69.41    4.91
   1  -7  -5   54.72    4.52
   1  -7  -5   57.05    7.73
  -1  -7   5   50.28    5.12
   1  -7  -5   48.92    4.79
  -1  -7   5   61.80    4.64
  -1   7   5   60.59    5.97
   1   7  -5   53.21   10.20
  -1   7   5   54.18    5.89
  -1   7   5   57.08    5.27
  -1   7   5   62.79    5.83
  -1   7   5   62.21    4.64
   1   7  -5   59.76    4.45
 -10   0   6   -0.62    1.28
 -10   0   6   -0.52    2.36
  10   0  -6    0.17    0.82
  10   0  -6    0.87    0.62
 -10   0   6    0.48    1.36
  10   0  -6    1.00    1.87
 -10   0   6   -0.02    2.76
  10   0  -6    1.81    2.03
   8   0  -6    1.67    1.42
   8   0  -6    2.84    0.78
  -8   0   6    0.99    1.30
  -8   0   6   -0.36    1.14
   8   0  -6    1.04    0.48
  -8   0   6    2.67    2.79
  -8   0   6    2.03    0.85
  -8   0   6    2.01    0.67
  -6   0   6   42.01    3.20
   6   0  -6   44.79    3.47
   6   0  -6   39.64    3.06
   4   0  -6  174.73   14.32
  -4   0   6  209.11   14.46
  -4   0   6  230.09   14.56
   2   0  -6  441.58   30.80
  -2   0   6  422.05   29.97
  -2   0   6  367.13   29.90
   2   0  -6  471.11   29.73
   0   0  -6  413.47   31.02
   0   0   6  431.24   31.15
   0   0   6  480.71   30.95
   0   0  -6  439.48   31.10
   0   0   6  447.38   31.23
  -2   0  -6  254.97   20.64
   2   0   6  306.04   20.84
   2   0   6  295.24   20.43
   2   0   6  306.57   20.71
   2   0   6  312.23   20.82
   2   0   6  281.68   20.67
  -2   0  -6  275.00   20.78
  -9  -1   6    2.37    0.97
  -9  -1   6   -0.78    1.96
   9  -1  -6    4.19    2.00
   9  -1  -6    0.84    0.55
   9  -1  -6    2.59    0.78
  -9  -1   6    2.17    2.88
  -9  -1   6   -1.48    1.36
   9  -1  -6    2.01    1.51
  -9   1   6    0.58    0.78
  -9   1   6    2.89    2.72
   9   1  -6    0.94    0.81
  -9   1   6    0.41    1.31
  -9   1   6    2.05    0.88
  -9   1   6    2.96    2.08
  -9   1   6    1.47    1.43
   9   1  -6    1.45    0.56
   7  -1  -6   32.69    2.71
  -7  -1   6   33.54    2.76
  -7  -1   6   34.39    4.16
  -7  -1   6   37.84    3.73
   7  -1  -6   37.45    3.21
  -7  -1   6   39.51    2.90
  -7  -1   6   37.78    3.04
   7  -1  -6   35.31    2.82
  -7   1   6   36.26    2.98
  -7   1   6   29.15    3.35
   7   1  -6   41.57    3.32
  -5  -1   6   82.10    6.40
   5  -1  -6   94.72    6.22
   5  -1  -6   92.34    6.56
   5   1  -6   86.20    6.13
  -5   1   6   80.64    6.38
  -5   1   6   85.84    6.38
   3  -1  -6   79.78    5.79
  -3  -1   6   74.28    5.94
  -3  -1   6   70.34    5.79
  -3   1   6   79.21    5.71
  -3   1   6   89.25    5.80
   1  -1  -6   16.55    3.52
   1  -1  -6   15.40    1.41
  -1  -1   6   15.81    1.70
   1  -1  -6   12.71    1.73
  -1  -1   6   14.89    1.54
  -1   1   6   15.55    1.49
  -1   1   6   14.68    1.65
   1   1  -6   15.26    1.36
  -1   1   6   15.08    1.56
  -1  -1  -6    4.78    1.00
   1  -1   6    2.70    1.32
   1  -1   6    3.87    1.14
   1  -1   6    6.25    1.46
   1  -1   6    3.24    0.92
   1  -1   6    1.76    2.18
   1  -1   6    5.74    1.93
  -1  -1  -6    3.17    1.48
   1   1   6    2.72    1.25
   1   1   6    4.73    1.11
  -1   1  -6    3.71    0.96
   1   1   6    2.99    0.93
   1   1   6    7.82    2.48
  -1   1  -6    5.10    1.59
   1   1   6    6.63    1.47
  -3  -1  -6   17.70    2.35
   3  -1   6   21.91    2.56
   3  -1   6   23.95    3.30
  -3  -1  -6   19.75    2.61
   3  -1   6   22.23    2.83
   3  -1   6   25.49    2.91
   3  -1   6   22.44    2.40
   3  -1   6   19.19    2.49
  -3   1  -6   20.77    2.68
  -3   1  -6   21.70    2.41
   3   1   6   26.27    2.67
   3   1   6   23.67    2.40
   3   1   6   18.47    3.06
   3   1   6   26.65    3.35
   3   1   6   22.09    2.53
   3   1   6   29.01    3.04
 -10  -2   6   90.25    8.24
 -10  -2   6   72.58    7.45
  10  -2  -6   78.58    5.98
 -10  -2   6   79.15    6.60
 -10  -2   6   76.36    6.99
  10  -2  -6   79.33    6.69
  10  -2  -6   68.21    5.87
 -10  -2   6   86.21    6.08
  10   2  -6   73.02    6.91
  10   2  -6   75.69    5.91
 -10   2   6   87.22    6.42
 -10   2   6   94.69    8.51
  10   2  -6   78.97    5.98
  -8  -2   6  132.59    8.53
   8  -2  -6  116.60    8.25
   8  -2  -6  109.19    8.85
  -8  -2   6  120.35    8.51
   8  -2  -6  102.91    8.16
   8  -2  -6  117.79    8.74
  -8  -2   6  135.08    9.98
  -8  -2   6  104.96    8.86
  -8  -2   6  107.05    9.16
  -8  -2   6  119.79    8.34
  -8   2   6   89.85    9.04
  -8   2   6  136.30   10.22
   8   2  -6   95.89    8.11
   8   2  -6  112.01    8.21
  -8   2   6  111.27    8.24
  -8   2   6  117.68    8.37
   6  -2  -6  140.48   10.34
  -6  -2   6  146.06   10.12
  -6  -2   6  129.07    9.99
   6  -2  -6  146.72   10.04
  -6  -2   6  148.06   10.32
   6  -2  -6  147.22    9.99
   6   2  -6  124.21    9.85
  -6   2   6  151.45   10.24
  -6   2   6  133.13   10.11
  -4  -2   6  145.14   10.27
   4  -2  -6  144.80   10.18
  -4  -2   6  141.98   10.28
   4  -2  -6  152.28   10.24
  -4   2   6  129.50   10.53
  -4   2   6  146.95   10.37
   2  -2  -6  103.49    9.38
  -2  -2   6  111.80    8.23
   2  -2  -6  117.44    8.11
   2  -2  -6  113.53    8.18
  -2   2   6  119.26    8.49
  -2   2   6  113.25    8.25
   0  -2   6  102.82    6.96
   0  -2  -6   81.75    6.49
   0  -2   6   88.78    6.66
   0  -2   6   88.86    6.74
   0  -2   6   88.82    6.93
   0  -2  -6   88.43    6.62
   0  -2   6   86.65    6.59
   0  -2   6   83.58    6.77
   0  -2   6   89.32    6.95
   0  -2   6   88.86    7.37
   0   2  -6   82.60    6.41
   0   2   6   91.81    6.60
   0   2   6   82.01    6.81
   2  -2   6   73.04    5.39
   2  -2   6   65.17    5.05
   2  -2   6   59.80    5.09
   2  -2   6   64.21    5.16
   2  -2   6   65.45    5.51
   2  -2   6   64.51    5.00
  -2  -2  -6   52.33    4.92
   2  -2   6   64.81    5.45
  -2  -2  -6   62.71    5.16
   2   2   6   73.00    5.38
   2   2   6   65.40    5.72
  -2   2  -6   57.66    5.16
   2   2   6   52.37    5.29
   2   2   6   65.88    5.00
  -2   2  -6   59.03    4.91
  -9  -3   6    1.31    1.39
   9  -3  -6   -0.54    1.50
   9  -3  -6    0.39    0.75
   9  -3  -6    0.75    0.60
   9  -3  -6    1.33    1.59
  -9  -3   6   -0.78    2.90
  -9  -3   6    2.08    1.92
  -9  -3   6   -0.77    0.77
  -9  -3   6    0.72    1.01
   9   3  -6    0.69    0.67
   9   3  -6    1.21    0.94
  -9   3   6   -1.16    2.49
  -9   3   6    1.19    1.91
  -9   3   6    3.24    2.58
  -9   3   6    0.31    0.86
  -9   3   6    1.04    0.84
   7  -3  -6   19.33    2.27
  -7  -3   6   16.76    1.95
   7  -3  -6   17.77    2.76
  -7  -3   6   17.79    1.59
  -7  -3   6   23.27    2.41
  -7  -3   6   13.79    2.89
  -7  -3   6   17.68    2.08
  -7  -3   6   16.47    1.71
   7  -3  -6   17.95    1.71
   7  -3  -6   16.21    1.56
  -7  -3   6   16.59    2.45
  -7   3   6   17.64    1.78
   7   3  -6   19.15    1.53
  -7   3   6   16.49    1.72
  -7   3   6   16.18    3.18
   5  -3  -6   45.51    3.38
  -5  -3   6   48.93    3.74
  -5  -3   6   46.81    3.74
  -5  -3   6   46.06    3.40
  -5  -3   6   36.81    3.81
   5  -3  -6   43.84    3.29
  -5  -3   6   43.88    3.34
  -5   3   6   45.45    3.47
  -5   3   6   44.90    3.51
  -5   3   6   39.80    4.19
   5   3  -6   34.92    4.66
  -3  -3   6   35.42    3.08
   3  -3  -6   27.43    4.21
   3  -3  -6   37.64    2.87
  -3  -3   6   33.77    2.80
  -3  -3   6   38.52    2.73
   3  -3  -6   35.46    2.71
   3   3  -6   34.44    5.35
  -3   3   6   29.35    3.62
  -3   3   6   35.34    2.86
  -1  -3   6   11.08    2.15
  -1  -3   6   11.00    2.28
  -1  -3   6    6.83    1.37
  -1  -3   6    8.18    1.18
  -1  -3   6    9.73    1.77
  -1  -3   6    8.83    1.49
  -1  -3   6    7.77    1.43
  -1  -3   6    9.44    1.80
   1  -3  -6    7.62    1.09
   1  -3  -6    7.77    1.42
  -1  -3   6    7.87    1.55
  -1   3   6    8.23    1.25
  -1   3   6    7.28    1.79
   1   3  -6    8.82    1.03
   1  -3   6    2.12    1.73
   1  -3   6    0.38    0.79
   1  -3   6    1.08    1.14
   1  -3   6    1.35    1.06
  -1  -3  -6    2.66    1.22
   1  -3   6    0.65    1.18
   1  -3   6    0.91    1.12
   1  -3   6    1.13    1.47
  -1  -3  -6    1.38    0.78
   1  -3   6    0.49    1.10
  -1   3  -6    0.46    0.76
  -1   3  -6    1.32    1.62
   1   3   6    2.83    2.29
   1   3   6    1.18    1.43
   1   3   6    2.02    1.37
   1   3   6    0.75    0.82
   1   3   6    3.21    2.59
   3  -3   6   10.52    2.06
   3  -3   6   11.95    2.09
   3  -3   6   13.50    2.01
   3  -3   6   10.54    2.00
   3  -3   6    9.83    2.29
  -3  -3  -6    8.43    1.79
   3  -3   6   11.52    2.08
  -3  -3  -6    7.47    1.65
  -3   3  -6    8.23    1.91
   3   3   6    7.96    2.21
   3   3   6    2.02    2.47
   3   3   6   11.51    2.02
   3   3   6   11.91    2.16
  -3   3  -6    8.73    1.70
  -8  -4   6  260.98   18.35
   8  -4  -6  272.49   18.17
   8  -4  -6  255.85   18.06
   8  -4  -6  272.77   18.61
   8  -4  -6  238.24   17.98
  -8  -4   6  258.53   18.76
  -8  -4   6  271.61   18.31
  -8  -4   6  229.41   18.65
   8  -4  -6  248.24   18.60
  -8  -4   6  268.78   18.20
  -8   4   6  209.16   19.03
  -8   4   6  267.92   18.16
  -8   4   6  238.40   18.52
   8   4  -6  255.03   17.93
  -6  -4   6  208.69   14.75
  -6  -4   6  217.85   14.78
  -6  -4   6  210.29   14.60
  -6  -4   6  179.10   14.96
  -6  -4   6  195.80   14.59
  -6  -4   6  225.14   15.21
  -6  -4   6  204.03   14.59
   6  -4  -6  202.33   14.46
  -6  -4   6  219.26   14.94
  -6  -4   6  195.65   15.17
   6  -4  -6  216.26   14.54
  -6   4   6  177.25   15.31
   6   4  -6  192.18   16.24
  -6   4   6  203.53   14.62
  -4  -4   6   82.53    5.70
   4  -4  -6   78.85    5.79
  -4  -4   6   80.65    6.06
  -4  -4   6   79.69    6.50
  -4  -4   6   77.83    5.67
  -4  -4   6   76.51    6.15
  -4  -4   6   73.10    5.79
  -4  -4   6   76.05    6.08
   4  -4  -6   73.09    5.63
  -4  -4   6   78.80    5.99
  -4  -4   6   73.54    5.79
  -4   4   6   96.44    7.28
  -4   4   6   65.38    6.41
   4   4  -6   62.64    7.93
  -4   4   6   79.85    5.81
  -2  -4   6    9.95    1.49
  -2  -4   6    8.35    2.25
  -2  -4   6   10.72    2.53
  -2  -4   6    9.01    1.19
  -2  -4   6   11.09    1.09
  -2  -4   6    8.06    1.43
  -2  -4   6    9.88    1.96
  -2  -4   6    8.56    1.45
  -2  -4   6    9.08    1.79
   2  -4  -6    8.77    1.16
  -2  -4   6   10.13    2.31
  -2   4   6   10.74    2.40
   2   4  -6    7.78    3.65
  -2   4   6    9.48    1.31
   0  -4   6    3.82    1.58
   0  -4   6    2.70    1.50
   0  -4   6    1.33    1.04
   0  -4   6    1.59    1.63
   0  -4   6    0.27    0.90
   0  -4  -6    1.96    1.02
   0  -4   6   -0.24    0.93
   0  -4   6    0.90    1.11
   0  -4  -6    1.49    0.80
   0  -4   6   -0.66    1.13
   0  -4   6    0.62    0.90
   0  -4   6   -0.19    1.39
   0  -4   6    1.75    0.82
   0   4   6   -0.90    2.27
   0   4   6    7.83    3.04
   0   4   6   -0.15    1.50
   0   4  -6    0.95    0.78
   0   4   6    1.51    0.82
   0   4   6    0.75    1.86
   2  -4   6    4.18    1.61
   2  -4   6    4.64    1.24
  -2  -4  -6    0.19    5.37
   2  -4   6    3.87    1.22
  -2  -4  -6    4.02    1.15
  -2  -4  -6    1.52    1.18
   2   4   6    6.56    1.74
   2   4   6    5.13    1.33
  -2   4  -6    3.19    1.69
   2   4   6    3.00    1.98
   2   4   6    3.44    2.14
  -2   4  -6    2.05    1.04
  -7  -5   6   33.64    2.88
   7  -5  -6   29.18    2.76
  -7  -5   6   32.59    3.78
  -7  -5   6   38.17    3.00
  -7  -5   6   36.28    3.10
  -7  -5   6   31.69    2.99
  -7  -5   6   30.44    3.11
  -7  -5   6   28.73    3.33
   7  -5  -6   28.51    2.65
   7  -5  -6   28.33    2.91
  -7  -5   6   36.71    3.33
  -7  -5   6   35.58    3.66
  -7   5   6   28.88    3.84
  -7   5   6   29.70    4.60
   7   5  -6   27.09    2.60
  -7   5   6   40.49    3.08
  -7   5   6   32.64    5.15
  -5  -5   6   75.92    6.10
  -5  -5   6   79.71    5.80
  -5  -5   6   70.99    5.90
   5  -5  -6   74.12    5.65
  -5  -5   6   77.89    5.78
  -5  -5   6   81.67    6.09
  -5  -5   6   76.01    5.99
  -5  -5   6   70.64    6.14
  -5  -5   6   71.59    5.78
  -5  -5   6   78.21    6.44
   5  -5  -6   79.91    5.77
  -5  -5   6   76.69    6.48
   5   5  -6   70.35    8.71
  -5   5   6   62.52    6.62
  -5   5   6   84.55    6.40
  -5   5   6   80.53    5.87
  -3  -5   6   63.49    4.87
  -3  -5   6   67.78    5.61
   3  -5  -6   61.77    4.66
   3  -5  -6   56.31    4.71
  -3  -5   6   63.55    4.79
  -3  -5   6   60.58    5.11
  -3  -5   6   60.30    4.94
  -3  -5   6   57.63    5.05
  -3  -5   6   56.46    5.53
  -3  -5   6   55.15    5.09
  -3  -5   6   65.05    4.82
  -3  -5   6   60.47    5.01
  -3  -5   6   60.05    4.99
  -3  -5   6   63.49    4.63
  -3   5   6   68.81    4.85
  -3   5   6   68.63    5.41
  -3   5   6   49.79    5.58
   3   5  -6   54.00    8.59
  -3   5   6   61.55    6.01
  -1  -5   6   10.54    1.64
  -1  -5   6   13.82    2.53
   1  -5  -6   13.33    1.70
  -1  -5   6   13.14    2.26
  -1  -5   6   10.38    2.02
  -1  -5   6   13.74    2.03
  -1  -5   6   15.48    2.15
  -1  -5   6   12.60    1.73
  -1  -5   6   13.66    1.93
  -1  -5   6   12.53    2.35
  -1  -5   6    8.25    1.68
   1  -5  -6   11.20    1.44
   1  -5  -6   26.92    6.88
  -1   5   6   11.23    1.54
   1   5  -6    9.12    4.57
   1   5  -6   12.22    1.43
  -1   5   6   13.93    3.40
  -1   5   6   12.73    2.85
   1  -5   6    4.31    1.15
   1  -5   6    1.27    1.53
   1  -5   6    1.23    1.43
   1  -5   6    1.68    1.53
   1  -5   6    4.30    1.98
  -1  -5  -6    3.45    1.02
   1  -5   6    3.53    1.68
  -1  -5  -6   -4.73    5.15
   1  -5   6    2.90    1.37
  -1  -5  -6    3.51    1.30
   1  -5   6    4.59    1.15
   1   5   6    1.75    2.11
   1   5   6    3.07    1.26
  -1   5  -6    2.77    1.98
   1   5   6    3.71    2.03
  -1   5  -6    1.94    1.04
   1   5   6    0.89    1.93
  -6  -6   6   52.42    4.86
  -6  -6   6   55.18    4.74
   6  -6  -6   47.07    4.14
   6  -6  -6   48.65    8.73
  -6  -6   6   57.37    4.41
  -6  -6   6   55.76    4.58
  -6  -6   6   58.03    4.32
  -6  -6   6   53.05    4.96
  -6  -6   6   51.22    4.31
   6  -6  -6   50.05    4.24
  -6  -6   6   49.62    4.51
  -6  -6   6   55.61    4.98
  -6   6   6   46.34    5.66
   6   6  -6   53.14    4.09
  -6   6   6   54.48    5.06
  -6   6   6   58.44    4.55
  -6   6   6   54.84    6.03
  -4  -6   6   91.49    7.10
   4  -6  -6   69.36   10.21
  -4  -6   6   95.82    7.46
  -4  -6   6   97.56    7.18
  -4  -6   6   95.71    7.17
   4  -6  -6   94.25    7.13
  -4  -6   6  100.04    7.12
  -4  -6   6  102.77    7.56
  -4  -6   6   95.80    7.79
  -4  -6   6   96.13    7.28
  -4  -6   6   90.00    7.38
   4  -6  -6   92.99    7.04
  -4  -6   6   93.53    7.39
  -4  -6   6   98.34    7.79
  -4   6   6  101.40    8.34
  -4   6   6   94.47    7.75
   4   6  -6   97.47   11.99
  -4   6   6   78.55    8.17
  -4   6   6   99.85    7.25
  -2  -6   6  147.40   10.13
  -2  -6   6  129.51    9.27
  -2  -6   6  135.71    9.58
  -2  -6   6  120.23    9.21
  -2  -6   6  121.64    9.54
  -2  -6   6  115.13    9.49
  -2  -6   6  107.81    9.41
   2  -6  -6  127.07    9.26
  -2  -6   6  131.37    9.26
  -2  -6   6  130.37    9.25
   2  -6  -6  106.30   12.28
   2  -6  -6  116.29    9.14
  -2  -6   6  119.06    9.86
   2   6  -6  113.70   14.34
  -2   6   6  131.75    9.30
   2   6  -6  142.22    9.11
  -2   6   6  111.37   10.26
  -2   6   6  129.48    9.66
  -2   6   6  125.19   10.13
  -2   6   6  109.35    9.68
  -2   6   6  136.88   10.14
   0  -6   6  135.94    9.59
   0  -6  -6  135.86    9.53
   0  -6   6  111.61    9.21
   0  -6   6  117.30    9.36
   0  -6  -6  122.11    9.10
   0  -6   6  109.91    9.30
   0  -6   6  104.24    9.37
   0  -6   6  113.14   10.24
   0  -6  -6  109.32   12.34
   0  -6   6  135.15    9.92
   0   6   6  138.67    9.12
   0   6   6  127.25   10.98
   0   6  -6  105.36    8.81
   0   6   6  123.62   10.20
   0   6   6  138.57   10.02
  -5  -7   6    6.79    1.60
  -5  -7   6    6.92    1.68
   5  -7  -6    8.68    4.71
  -5  -7   6    7.42    1.62
   5  -7  -6    7.19    1.33
   5  -7  -6    7.43    1.46
  -5  -7   6    6.54    2.00
  -5  -7   6    8.55    1.49
  -5  -7   6    7.56    1.39
  -5  -7   6    5.04    1.44
  -5  -7   6    2.83    2.25
  -5   7   6    5.99    2.16
  -5   7   6    4.70    3.07
  -5   7   6    9.25    1.82
   5   7  -6    1.44    6.23
  -5   7   6    2.59    2.53
   5   7  -6    8.94    1.57
  -3  -7   6    3.86    1.05
   3  -7  -6    3.48    1.04
  -3  -7   6    8.86    2.09
  -3  -7   6    5.81    1.79
  -3  -7   6    5.17    1.56
  -3  -7   6    6.67    1.67
   3  -7  -6    5.64    4.50
  -3  -7   6    6.94    1.40
  -3  -7   6    6.37    1.62
  -3  -7   6    4.32    1.27
  -3  -7   6    8.66    1.83
  -3  -7   6    5.54    1.26
   3  -7  -6    6.50    1.37
  -3   7   6    6.58    1.50
  -3   7   6    5.06    2.76
  -3   7   6    7.48    2.80
  -3   7   6    6.90    2.26
   3   7  -6    7.17    7.70
   3   7  -6    8.77    1.31
 -10   0   7    0.14    2.03
  10   0  -7    0.72    2.23
  10   0  -7   -1.06    0.79
 -10   0   7    0.20    0.87
 -10   0   7    0.24    1.80
  10   0  -7   -1.37    0.58
  -8   0   7   -0.09    1.12
  -8   0   7    0.89    0.68
   8   0  -7   -0.42    0.82
   8   0  -7    0.43    0.45
  -8   0   7   -0.46    0.73
   8   0  -7    0.97    1.64
  -8   0   7    0.66    1.92
  -8   0   7    0.76    1.25
  -6   0   7   -1.29    0.72
   6   0  -7    1.54    1.17
  -6   0   7    0.88    0.58
  -6   0   7   -1.71    0.96
  -6   0   7    1.97    1.24
   6   0  -7    0.57    0.41
  -6   0   7   -0.70    1.80
  -4   0   7    0.81    1.89
  -4   0   7    0.62    1.32
   4   0  -7    0.13    0.96
  -4   0   7    0.32    0.58
  -4   0   7    0.01    1.02
  -4   0   7   -3.83    1.91
   4   0  -7    0.58    0.45
  -4   0   7    0.52    0.73
  -2   0   7    0.93    1.70
  -2   0   7   -1.51    1.06
  -2   0   7    1.28    1.10
  -2   0   7   -0.32    1.02
  -2   0   7    0.73    0.65
  -2   0   7   -0.03    2.16
   2   0  -7   -0.34    0.49
  -2   0   7    0.84    0.94
  -2   0   7   -0.78    0.82
   0   0   7   -1.87    0.94
   0   0   7    1.92    1.73
   0   0   7   -0.44    1.10
   0   0   7   -0.81    1.93
   0   0   7    0.98    1.81
   0   0  -7    0.66    0.71
   0   0   7    0.85    1.05
   0   0   7    0.46    1.22
   0   0   7    0.47    0.81
  -2   0  -7   -2.01    1.24
   2   0   7    0.86    1.09
   2   0   7    0.81    1.51
   2   0   7    2.19    2.85
  -2   0  -7   -0.85    0.93
   2   0   7    0.95    1.15
   9  -1  -7  116.24    8.39
  -9  -1   7  111.48    9.09
   9  -1  -7  121.26    9.06
  -9  -1   7  140.60   10.15
   9  -1  -7  113.87    9.12
  -9  -1   7  115.63    9.68
  -9  -1   7  118.36    8.65
   9  -1  -7  109.20    8.32
  -9  -1   7  116.71    8.61
  -9   1   7  103.97    8.89
   9   1  -7  116.51    8.36
  -9   1   7  110.45    8.58
   9   1  -7  111.62    8.30
  -9   1   7  115.93    8.56
  -7  -1   7   82.17    5.56
  -7  -1   7   68.53    5.44
   7  -1  -7   71.82    5.25
  -7  -1   7   68.99    5.25
   7  -1  -7   66.75    5.69
   7  -1  -7   69.94    5.16
  -7  -1   7   84.78    6.04
  -7  -1   7   67.52    6.44
  -7  -1   7   69.62    5.50
  -7  -1   7   66.94    5.86
  -7   1   7   70.70    5.40
  -7   1   7   68.47    6.44
  -7   1   7   70.43    5.84
  -7   1   7   66.35    6.15
   7   1  -7   67.38    5.09
  -7   1   7   70.31    5.34
  -5  -1   7   29.03    2.61
  -5  -1   7   33.75    2.64
   5  -1  -7   28.74    2.40
  -5  -1   7   27.96    3.55
   5  -1  -7   27.16    2.17
  -5  -1   7   31.34    2.63
  -5  -1   7   29.10    2.69
  -5  -1   7   21.76    3.24
  -5  -1   7   25.54    2.95
  -5  -1   7   22.73    2.32
   5   1  -7   26.98    2.08
  -5   1   7   30.74    2.74
  -5   1   7   26.30    3.82
  -5   1   7   28.98    2.48
  -5   1   7   29.21    2.51
  -3  -1   7   13.09    1.65
  -3  -1   7   11.71    1.69
  -3  -1   7   12.05    2.39
  -3  -1   7    9.90    1.75
  -3  -1   7   12.63    2.70
  -3  -1   7   16.38    1.97
   3  -1  -7   13.58    1.25
  -3  -1   7   11.53    1.47
  -3  -1   7   12.42    1.87
   3  -1  -7   11.18    1.66
  -3   1   7   14.59    2.71
  -3   1   7   12.72    2.85
  -3   1   7   10.30    1.47
   3   1  -7   13.84    1.15
  -3   1   7   13.83    1.89
  -3   1   7   15.84    1.82
  -3   1   7   15.72    1.44
  -1  -1   7   17.51    2.00
  -1  -1   7   18.50    2.83
   1  -1  -7   17.90    1.84
  -1  -1   7   18.98    2.14
  -1  -1   7   19.39    2.29
  -1  -1   7   19.98    3.19
  -1  -1   7   22.95    2.54
  -1  -1   7   18.14    2.17
   1  -1  -7   19.53    2.19
  -1  -1   7   25.30    2.78
  -1  -1   7   22.95    2.45
  -1   1   7   21.80    2.41
  -1   1   7   19.48    1.98
  -1   1   7   20.90    2.04
  -1   1   7   23.39    3.10
  -1   1   7   25.70    2.39
  -1   1   7   20.93    2.34
  -1   1   7   22.07    1.89
   1   1  -7   17.02    1.79
   1  -1   7   48.00    4.06
  -1  -1  -7   43.82    4.05
   1  -1   7   46.20    4.13
   1  -1   7   45.51    4.73
   1  -1   7   51.19    4.95
   1  -1   7   47.85    4.21
   1  -1   7   48.27    3.96
  -1  -1  -7   41.39    3.81
   1  -1   7   48.38    4.59
   1  -1   7   46.52    3.95
   1   1   7   45.70    4.02
  -1   1  -7   41.52    4.12
   1   1   7   45.89    4.17
   1   1   7   53.13    4.09
   1   1   7   41.63    4.54
   1   1   7   49.16    3.93
  -1   1  -7   42.62    3.80
   1   1   7   45.05    4.15
  -8  -2   7   88.25    6.13
   8  -2  -7   83.01    6.02
  -8  -2   7   75.15    5.97
  -8  -2   7   84.37    6.26
  -8  -2   7   69.77    6.66
  -8  -2   7   78.86    6.75
   8  -2  -7   73.65    6.73
   8  -2  -7   78.26    5.93
  -8  -2   7   82.48    6.25
  -8  -2   7   79.46    7.19
   8  -2  -7   84.04    6.63
  -8   2   7   83.59    6.17
   8   2  -7   86.02    5.87
  -8   2   7   83.08    6.09
  -6  -2   7   81.79    6.35
  -6  -2   7   80.31    6.48
  -6  -2   7   76.03    5.84
  -6  -2   7   85.79    6.12
   6  -2  -7   80.89    5.83
  -6  -2   7   78.02    6.07
  -6  -2   7   78.31    6.00
   6  -2  -7   76.83    5.74
  -6  -2   7   81.04    6.90
  -6  -2   7   76.97    6.41
  -6  -2   7   85.19    5.89
  -6  -2   7   80.01    6.04
  -6   2   7   85.16    6.00
  -6   2   7   74.59    7.03
  -6   2   7   73.89    5.93
  -6   2   7   65.72    6.11
  -4  -2   7   15.46    2.89
  -4  -2   7   16.89    1.83
  -4  -2   7   16.73    1.89
  -4  -2   7   16.03    2.08
  -4  -2   7   14.74    1.60
  -4  -2   7   14.31    1.91
  -4  -2   7   14.21    1.84
  -4  -2   7   14.06    2.10
  -4  -2   7   13.19    2.77
  -4  -2   7   15.31    2.67
   4  -2  -7   14.50    1.59
   4  -2  -7   15.02    1.38
  -4   2   7   15.32    1.63
   4   2  -7   11.91    3.44
  -4   2   7   18.52    2.08
  -4   2   7   16.16    3.96
  -4   2   7   18.04    2.63
  -2  -2   7    9.43    1.95
  -2  -2   7    9.98    1.53
  -2  -2   7   10.70    1.63
  -2  -2   7   10.90    1.86
  -2  -2   7   13.80    2.62
  -2  -2   7   11.32    1.73
  -2  -2   7    8.67    1.31
  -2  -2   7   11.03    2.30
  -2  -2   7   12.03    2.40
   2  -2  -7    9.50    1.57
   2  -2  -7   10.18    1.20
  -2   2   7   11.36    1.92
  -2   2   7   11.86    1.43
  -2   2   7   13.76    2.82
   0  -2   7   56.63    4.59
   0  -2   7   60.69    5.06
   0  -2   7   57.66    4.80
   0  -2   7   58.93    4.87
   0  -2   7   62.83    4.76
   0  -2   7   56.79    5.49
   0  -2  -7   53.07    4.62
   0  -2  -7   53.82    4.49
   0  -2   7   58.86    5.07
   0  -2   7   52.04    4.59
   0   2   7   63.08    4.86
   0   2  -7   55.64    4.87
   0   2   7   61.47    4.89
   0   2  -7   49.90    4.40
   0   2   7   62.17    4.95
   0   2   7   59.33    5.34
   0   2   7   54.50    4.56
  -9  -3   7   38.81    3.69
   9  -3  -7   30.56    2.67
   9  -3  -7   30.89    3.85
   9  -3  -7   30.62    3.82
  -9  -3   7   29.59    4.02
  -9  -3   7   23.94    3.60
  -9  -3   7   30.85    3.09
  -9  -3   7   36.13    2.94
   9  -3  -7   30.58    2.77
   9  -3  -7   34.71    3.09
  -9   3   7   36.50    4.87
  -9   3   7   32.66    2.97
  -9   3   7   34.42    3.48
   9   3  -7   30.24    2.64
   9   3  -7   38.64    2.93
  -7  -3   7  124.98    9.39
  -7  -3   7  118.92    9.79
  -7  -3   7  111.72    9.24
   7  -3  -7  126.44    9.18
   7  -3  -7  126.34    9.67
  -7  -3   7  122.91   10.12
  -7  -3   7  125.03    9.52
  -7  -3   7  131.95    9.26
  -7  -3   7  138.63    9.50
   7  -3  -7  127.43    9.82
  -7  -3   7  151.22    9.77
   7  -3  -7  117.62    9.09
  -7  -3   7  123.95    9.10
  -7  -3   7  127.00    9.31
   7   3  -7  126.98    8.95
  -7   3   7  128.37    9.28
  -7   3   7  123.13    9.28
  -5  -3   7  254.03   19.76
  -5  -3   7  289.45   18.77
  -5  -3   7  261.05   19.01
  -5  -3   7  270.41   19.16
  -5  -3   7  251.14   19.12
  -5  -3   7  268.48   19.14
  -5  -3   7  254.47   19.12
  -5  -3   7  294.77   19.28
  -5  -3   7  240.00   19.40
  -5  -3   7  305.43   19.49
  -5  -3   7  266.93   19.01
   5  -3  -7  262.23   18.94
  -5  -3   7  266.27   19.50
  -5   3   7  275.98   19.13
  -5   3   7  274.77   19.17
  -5   3   7  261.13   19.98
  -3  -3   7  301.93   22.77
  -3  -3   7  301.81   22.71
  -3  -3   7  316.66   23.04
   3  -3  -7  322.79   22.64
  -3  -3   7  310.37   22.81
  -3  -3   7  329.01   23.53
  -3  -3   7  281.74   24.14
  -3  -3   7  340.36   23.11
  -3  -3   7  340.04   22.30
  -3  -3   7  315.28   23.11
  -3  -3   7  330.13   22.83
  -3  -3   7  329.69   22.84
  -3   3   7  336.20   22.83
  -3   3   7  340.77   22.46
  -3   3   7  312.53   23.03
  -1  -3   7  253.33   17.23
  -1  -3   7  241.41   17.40
  -1  -3   7  239.92   17.67
  -1  -3   7  242.26   17.39
  -1  -3   7  258.69   18.19
  -1  -3   7  236.41   17.40
  -1  -3   7  230.97   17.36
   1  -3  -7  222.55   17.26
  -1  -3   7  213.90   17.86
  -1  -3   7  240.79   17.46
   1  -3  -7  240.53   17.36
  -1  -3   7  239.79   17.72
  -1  -3   7  277.49   17.74
  -1   3   7  237.16   17.27
  -1   3   7  262.88   17.47
  -1   3   7  251.11   17.42
   1   3  -7  233.59   17.10
   1  -3   7  103.96    7.99
   1  -3   7  103.99    8.96
  -1  -3  -7   88.76    7.86
   1  -3   7  106.56    8.34
  -1  -3  -7  107.15    8.10
   1  -3   7  106.62    9.71
   1  -3   7  122.09    9.67
   1  -3   7  103.38    8.01
   1  -3   7  110.18    8.05
   1   3   7  104.78    8.21
  -1   3  -7  102.96    8.10
  -1   3  -7   95.15    7.83
   1   3   7  107.58    8.01
   1   3   7  116.49    8.41
  -8  -4   7    0.93    1.18
  -8  -4   7    2.61    1.25
  -8  -4   7    4.58    1.08
   8  -4  -7    4.57    1.85
  -8  -4   7    0.71    1.76
   8  -4  -7    4.72    0.94
   8  -4  -7    5.38    1.12
   8  -4  -7    5.88    1.91
  -8  -4   7    2.12    1.71
  -8  -4   7    5.51    1.73
  -8  -4   7    1.36    1.83
  -8   4   7    3.59    1.07
  -8   4   7    5.25    2.79
   8   4  -7    3.97    0.81
  -6  -4   7    3.35    1.86
  -6  -4   7    5.50    1.94
  -6  -4   7    4.98    1.18
   6  -4  -7    3.50    0.82
   6  -4  -7    4.67    1.11
  -6  -4   7    3.92    0.96
  -6  -4   7    3.94    0.94
  -6  -4   7    2.77    1.04
  -6  -4   7    4.72    1.26
  -6  -4   7    6.63    1.33
  -6  -4   7    4.47    1.33
  -6  -4   7    3.67    1.32
  -6  -4   7    5.44    2.29
  -6  -4   7    5.93    1.52
  -6   4   7    5.33    1.10
  -6   4   7    7.96    2.58
  -6   4   7    1.83    1.94
  -4  -4   7    1.42    1.18
   4  -4  -7    1.42    0.88
  -4  -4   7   -0.23    0.61
  -4  -4   7    1.81    1.32
  -4  -4   7    2.10    1.17
  -4  -4   7   -0.84    1.44
  -4  -4   7    0.18    1.76
   4  -4  -7    0.35    0.57
  -4  -4   7    3.21    1.90
  -4  -4   7    1.61    1.04
  -4  -4   7    0.58    0.97
  -4  -4   7    0.88    0.91
  -4  -4   7    0.66    0.73
  -4  -4   7    0.73    0.89
  -4  -4   7    1.05    1.18
  -4   4   7    1.55    1.57
   4   4  -7   -0.09    3.30
  -4   4   7    0.18    0.78
  -4   4   7    3.76    2.53
  -2  -4   7    3.32    1.72
  -2  -4   7   -0.15    0.89
  -2  -4   7    0.86    0.78
   2  -4  -7    1.45    1.00
  -2  -4   7    3.44    1.68
  -2  -4   7   -0.40    1.12
  -2  -4   7    0.53    1.14
  -2  -4   7    0.54    1.23
   2  -4  -7    1.59    0.68
  -2  -4   7   -0.39    0.98
  -2  -4   7    0.97    1.05
  -2  -4   7   -0.50    0.85
  -2  -4   7    1.54    1.56
  -2   4   7    2.40    0.92
  -2   4   7   -1.94    1.55
  -2   4   7    0.23    2.21
   2   4  -7    1.34    3.80
  -2   4   7    3.41    2.18
   0  -4   7    3.91    1.18
   0  -4   7    2.83    1.80
   0  -4  -7    3.01    1.31
   0  -4   7    2.15    1.04
   0  -4   7    2.04    1.37
   0  -4   7    2.66    2.26
   0  -4   7    4.30    1.22
   0  -4   7    4.18    1.84
   0  -4   7    2.89    1.47
   0  -4   7    0.59    1.66
   0  -4  -7    1.22    0.88
   0   4   7    6.26    2.64
   0   4   7    0.84    2.03
   0   4  -7    4.38    1.00
   0   4   7    3.74    1.52
   0   4   7    2.79    1.10
  -7  -5   7   89.42    6.61
   7  -5  -7   76.06    6.41
  -7  -5   7   90.54    7.02
  -7  -5   7   91.76    7.43
  -7  -5   7   98.43    7.43
   7  -5  -7   81.34    6.51
   7  -5  -7   77.27    6.59
  -7  -5   7   89.91    7.76
  -7  -5   7   92.55    7.14
  -7  -5   7   89.87    6.63
   7   5  -7   76.54    6.27
  -7   5   7   93.91    6.74
  -7   5   7   72.40    7.82
  -7   5   7   91.13    7.25
  -5  -5   7  159.25   11.05
  -5  -5   7  142.47   11.00
  -5  -5   7  143.53   11.37
  -5  -5   7  144.53   10.65
  -5  -5   7  154.79   10.59
  -5  -5   7  154.56   10.92
  -5  -5   7  149.62   10.76
  -5  -5   7  142.18   11.08
  -5  -5   7  145.04   10.62
   5  -5  -7  129.99   10.49
   5  -5  -7  137.49   10.58
  -5  -5   7  145.11   10.66
  -5  -5   7  140.67   10.64
  -5  -5   7  157.57   11.42
  -5   5   7  144.30   11.55
  -5   5   7  148.60   11.12
  -5   5   7  117.91   11.40
  -5   5   7  145.44   11.66
  -5   5   7  156.29   10.78
  -3  -5   7  169.22   12.38
  -3  -5   7  162.25   12.00
  -3  -5   7  179.75   11.81
  -3  -5   7  174.57   12.86
   3  -5  -7  154.08   11.89
  -3  -5   7  149.19   12.33
  -3  -5   7  171.36   12.06
  -3  -5   7  164.18   12.64
   3  -5  -7  153.28   11.95
  -3  -5   7  152.03   11.99
  -3  -5   7  168.70   11.98
  -3  -5   7  166.21   12.20
  -3   5   7  177.48   12.78
  -3   5   7  168.46   12.30
   3   5  -7  147.51   16.17
  -3   5   7  176.66   12.11
  -1  -5   7  123.70    9.90
   1  -5  -7  122.38    9.75
  -1  -5   7  131.38   11.06
   1  -5  -7  125.11    9.68
  -1  -5   7  149.03   10.13
  -1  -5   7  117.57   10.19
  -1  -5   7  113.42   10.52
  -1  -5   7  131.92   10.54
  -1  -5   7  136.73   10.18
   1   5  -7  132.20    9.48
  -1   5   7  129.50   10.10
  -1   5   7  138.68   10.72
  -1   5   7  137.67    9.82
  -1   5   7  148.85   10.53
  -1   5   7  136.65   10.65
   4  -6  -7    7.86    1.37
  -4  -6   7    7.43    1.48
  -4  -6   7    9.08    1.94
   4  -6  -7    9.56    1.49
  -4  -6   7    8.52    1.75
  -4  -6   7    7.04    1.53
  -4  -6   7    7.74    3.17
  -4  -6   7    9.92    2.76
  -4  -6   7    5.91    1.54
  -4  -6   7    6.87    1.39
  -4  -6   7    8.85    1.52
  -4  -6   7    6.98    1.78
  -4  -6   7    4.68    3.26
  -4   6   7    9.03    3.24
  -4   6   7   17.74    4.82
  -4   6   7    9.43    1.64
  -4   6   7    1.88    2.38
  -8   0   8  206.36   18.00
   8   0  -8  241.43   16.73
  -8   0   8  240.75   17.00
  -8   0   8  252.55   17.45
  -8   0   8  256.35   17.10
   8   0  -8  238.86   16.78
  -8   0   8  235.81   17.04
  -8   0   8  222.30   16.84
  -6   0   8  347.45   23.98
  -6   0   8  312.31   24.46
  -6   0   8  334.76   23.73
  -6   0   8  370.51   23.66
   6   0  -8  344.62   23.31
  -6   0   8  313.74   23.47
  -6   0   8  326.75   23.60
  -6   0   8  324.29   23.65
  -6   0   8  318.62   23.55
   4   0  -8  287.53   19.18
  -4   0   8  272.53   19.51
  -4   0   8  259.58   20.24
  -4   0   8  255.63   19.46
  -4   0   8  278.01   19.61
  -4   0   8  269.14   19.42
  -4   0   8  259.98   19.57
  -4   0   8  298.94   19.43
  -2   0   8  136.59    9.84
  -2   0   8  132.86   10.22
  -2   0   8  128.28    9.86
   2   0  -8  126.69    9.62
  -2   0   8  137.45   10.74
  -2   0   8  127.64    9.94
   2   0  -8  128.78    9.83
  -2   0   8  146.37   10.43
  -2   0   8  134.41    9.93
  -2   0   8  138.42   10.05
   0   0   8   24.49    3.66
   0   0  -8   25.84    2.84
   0   0   8   25.40    3.16
   0   0   8   22.28    4.11
   0   0   8   30.55    3.50
   0   0   8   26.35    2.89
   0   0   8   22.58    2.74
   0   0  -8   19.89    2.37
   0   0   8   25.01    2.58
   9  -1  -8   24.15    2.15
   9  -1  -8   22.70    3.56
  -9  -1   8   21.86    2.53
   9  -1  -8   23.26    2.00
  -9  -1   8   22.88    4.47
  -9  -1   8   25.98    3.60
  -9  -1   8   24.83    2.37
  -9  -1   8   22.30    3.77
   9   1  -8   20.05    1.92
  -9   1   8   22.93    3.83
   9   1  -8   22.70    2.15
  -9   1   8   22.24    2.34
  -9   1   8   23.11    2.95
  -9   1   8   16.05    3.02
  -9   1   8   22.54    2.28
  -7  -1   8    4.78    1.38
  -7  -1   8    4.20    0.98
  -7  -1   8    4.26    1.47
  -7  -1   8    3.72    1.87
  -7  -1   8    6.22    1.44
  -7  -1   8    4.29    1.30
  -7  -1   8    1.55    1.87
  -7  -1   8    6.26    1.59
  -7  -1   8    6.08    1.22
   7  -1  -8    5.84    1.15
  -7  -1   8    4.10    2.22
   7  -1  -8    3.63    0.78
   7   1  -8    5.45    0.78
  -7   1   8    5.86    1.18
  -7   1   8    7.93    1.34
  -7   1   8    5.56    1.60
  -7   1   8    2.37    1.33
  -7   1   8    8.20    1.74
  -7   1   8    5.50    2.15
  -5  -1   8    8.18    1.44
  -5  -1   8    7.33    2.12
  -5  -1   8    8.99    1.60
  -5  -1   8   10.28    2.42
  -5  -1   8    6.09    1.63
   5  -1  -8    6.70    0.88
  -5  -1   8    6.54    1.38
  -5  -1   8    5.61    2.02
   5  -1  -8    6.52    1.38
  -5  -1   8    6.15    1.23
  -5  -1   8    7.31    1.54
  -5  -1   8    7.00    1.40
  -5   1   8    5.08    1.37
   5   1  -8    5.54    0.81
  -5   1   8    7.30    1.52
  -5   1   8    7.05    1.41
  -5   1   8    8.19    1.31
  -5   1   8    8.34    1.91
  -5   1   8    5.53    2.20
  -5   1   8    8.39    2.35
   3  -1  -8   37.71    3.40
  -3  -1   8   35.48    3.49
  -3  -1   8   37.57    3.41
  -3  -1   8   40.81    4.06
  -3  -1   8   44.43    3.47
  -3  -1   8   37.65    3.49
  -3  -1   8   42.73    3.74
  -3  -1   8   36.35    4.35
  -3  -1   8   41.82    3.37
   3  -1  -8   38.95    3.07
  -3  -1   8   41.37    3.51
  -3  -1   8   32.17    3.26
  -3  -1   8   37.95    4.10
  -3   1   8   33.92    3.99
  -3   1   8   40.20    3.53
  -3   1   8   35.16    4.35
  -3   1   8   35.39    3.39
  -3   1   8   46.49    3.78
  -3   1   8   37.15    3.31
   3   1  -8   35.25    2.95
  -3   1   8   41.47    3.67
  -1  -1   8   45.64    4.37
  -1  -1   8   43.96    3.86
  -1  -1   8   45.07    3.93
  -1  -1   8   45.13    3.84
   1  -1  -8   41.87    3.74
  -1  -1   8   44.79    4.68
  -1  -1   8   43.84    4.52
  -1  -1   8   44.02    4.05
  -1  -1   8   41.05    3.74
   1  -1  -8   36.17    3.49
  -1   1   8   50.33    4.01
   1   1  -8   33.89    3.90
  -1   1   8   49.10    4.61
  -1   1   8   46.45    4.63
  -1   1   8   49.82    4.80
   1   1  -8   36.92    3.46
  -1   1   8   46.06    4.02
  -1   1   8   40.92    3.72
  -1   1   8   43.39    3.91
  -8  -2   8   62.97    4.84
  -8  -2   8   56.83    6.16
   8  -2  -8   54.03    4.48
  -8  -2   8   56.55    4.81
  -8  -2   8   66.27    5.52
  -8  -2   8   59.86    5.47
  -8  -2   8   54.43    5.56
   8  -2  -8   56.38    4.58
   8  -2  -8   53.88    5.59
  -8  -2   8   66.38    5.16
  -8   2   8   74.85    8.22
  -8   2   8   63.01    5.03
   8   2  -8   55.48    4.38
  -8   2   8   62.07    5.03
  -8   2   8   61.24    5.19
  -8   2   8   63.84    4.81
   6  -2  -8   70.55    5.16
  -6  -2   8   66.81    5.24
  -6  -2   8   66.47    5.42
  -6  -2   8   66.15    6.30
  -6  -2   8   70.28    5.38
  -6  -2   8   58.36    5.43
   6  -2  -8   62.13    5.04
  -6  -2   8   77.14    5.49
  -6  -2   8   71.84    5.80
  -6  -2   8   72.32    5.96
  -6  -2   8   70.86    5.76
  -6   2   8   65.19    5.29
  -6   2   8   71.78    5.62
  -6   2   8   67.52    6.54
  -6   2   8   65.12    5.32
  -6   2   8   71.89    5.42
  -4  -2   8   72.77    6.76
  -4  -2   8   82.59    6.09
  -4  -2   8   74.17    6.17
  -4  -2   8   70.91    5.90
   4  -2  -8   75.57    5.74
  -4  -2   8   83.60    5.94
  -4  -2   8   72.27    6.02
  -4  -2   8   70.38    5.78
  -4  -2   8   69.63    5.83
  -4  -2   8   72.45    6.37
  -4  -2   8   75.77    5.79
   4  -2  -8   69.87    5.59
  -4  -2   8   74.88    6.31
  -4   2   8   75.35    6.55
  -4   2   8   80.85    6.12
  -4   2   8   83.92    6.01
  -4   2   8   79.51    6.94
  -4   2   8   80.28    5.94
   2  -2  -8   72.18    5.87
  -2  -2   8   73.30    5.98
  -2  -2   8   75.34    5.90
  -2  -2   8   73.23    6.46
  -2  -2   8   77.85    6.09
  -2  -2   8   87.65    6.36
   2  -2  -8   73.46    5.76
  -2  -2   8   80.79    6.24
  -2  -2   8   74.13    6.41
  -2  -2   8   73.43    6.71
  -2  -2   8   73.00    5.90
  -2  -2   8   73.99    5.99
  -2   2   8   83.96    6.57
  -2   2   8   70.96    5.93
  -2   2   8   84.77    6.13
  -2   2   8   78.40    6.11
   2   2  -8   63.87    5.58
  -2   2   8   81.46    6.97
  -2   2   8   81.86    6.18
  -7  -3   8    3.11    1.17
  -7  -3   8    0.88    1.81
  -7  -3   8    3.24    1.13
  -7  -3   8    3.77    1.10
  -7  -3   8    3.45    1.30
  -7  -3   8    3.17    0.96
  -7  -3   8    1.78    1.45
   7  -3  -8    2.60    0.77
  -7  -3   8    4.92    2.17
  -7  -3   8    1.57    1.23
   7  -3  -8    2.46    0.90
  -7   3   8    3.10    1.15
  -7   3   8    2.80    2.33
  -7   3   8    0.12    1.34
  -7   3   8    4.52    1.09
  -5  -3   8    2.27    0.87
  -5  -3   8    3.49    1.52
   5  -3  -8    4.25    0.88
  -5  -3   8    3.51    1.15
  -5  -3   8    2.81    1.23
  -5  -3   8    2.92    1.34
  -5  -3   8    3.15    1.87
  -5  -3   8    2.17    1.86
  -5  -3   8    2.09    1.10
  -5  -3   8    3.71    1.37
  -5  -3   8    2.60    1.08
  -5  -3   8    3.76    1.13
   5  -3  -8    2.50    1.09
  -5   3   8    0.35    1.99
  -5   3   8    2.18    1.97
  -5   3   8    2.56    1.62
  -5   3   8    1.30    0.93
  -3  -3   8   17.20    3.38
  -3  -3   8   17.41    2.54
  -3  -3   8   17.48    2.11
  -3  -3   8   16.74    2.11
  -3  -3   8   16.69    2.18
  -3  -3   8   20.49    2.32
  -3  -3   8   15.32    2.76
   3  -3  -8   16.23    1.95
  -3  -3   8   16.52    1.95
  -3  -3   8   18.46    2.34
  -3  -3   8   21.47    3.00
   3  -3  -8   13.92    1.71
  -3  -3   8   20.00    2.37
  -3   3   8   17.81    2.27
  -3   3   8   16.49    2.01
  -3   3   8   14.30    3.66
  -3   3   8   18.70    3.11
  -3   3   8   19.32    2.66
   1  -3  -8   19.20    2.07
  -1  -3   8   19.44    2.47
  -1  -3   8   16.96    2.56
  -1  -3   8   18.12    3.29
  -1  -3   8   18.34    2.88
  -1  -3   8   21.76    2.61
   1  -3  -8   18.39    2.25
  -1  -3   8   16.97    2.91
  -1  -3   8   20.79    2.27
  -1  -3   8   21.08    2.38
  -1  -3   8   16.77    2.36
  -1  -3   8   21.16    3.52
  -1   3   8   22.07    2.66
   1   3  -8   18.97    2.02
  -1   3   8   21.24    2.98
  -1   3   8   16.09    3.38
  -1   3   8   22.34    3.17
  -1   3   8   20.06    2.40
  -6  -4   8    1.27    1.90
  -6  -4   8   -1.55    1.80
  -6  -4   8   -1.24    1.22
  -6  -4   8   -0.34    1.30
   6  -4  -8    1.01    0.97
  -6  -4   8    0.18    0.96
   6  -4  -8    1.88    0.75
  -6  -4   8    1.37    0.88
  -6  -4   8    2.50    2.07
  -6  -4   8    1.85    1.07
  -6  -4   8    3.84    1.25
  -6  -4   8    0.55    1.07
  -6   4   8    1.63    1.02
  -6   4   8    5.68    2.27
  -6   4   8    1.38    2.29
  -4  -4   8    3.32    1.28
  -4  -4   8    5.51    2.16
  -4  -4   8    4.82    1.27
  -4  -4   8    5.50    1.41
  -4  -4   8    5.91    1.25
   4  -4  -8    4.75    1.06
  -4  -4   8    8.65    2.15
  -4  -4   8    7.39    1.61
  -4  -4   8    4.54    2.00
  -4  -4   8    4.27    1.20
  -4  -4   8    7.84    1.70
  -4  -4   8    6.99    1.85
  -4  -4   8    6.88    2.01
   4  -4  -8    6.35    1.35
  -4   4   8    1.84    2.39
  -4   4   8   15.00    3.10
  -4   4   8    5.02    2.18
  -4   4   8    8.16    1.55
  -2  -4   8   40.05    3.47
  -2  -4   8   35.64    3.50
  -2  -4   8   35.00    4.49
  -2  -4   8   34.55    3.42
  -2  -4   8   36.62    3.59
   2  -4  -8   36.17    3.47
  -2  -4   8   43.42    3.94
   2  -4  -8   36.94    3.33
  -2  -4   8   49.38    4.69
  -2  -4   8   40.24    4.12
  -2  -4   8   40.85    3.87
  -2  -4   8   37.35    4.01
  -2  -4   8   43.40    3.71
   2   4  -8   43.32    3.20
  -2   4   8   38.09    5.12
  -2   4   8   37.24    4.45
  -2   4   8   38.01    3.55
   6   0  -9   -0.32    0.52
  -6   0   9   -0.01    1.03
  -6   0   9   -1.85    1.25
  -6   0   9   -2.19    2.54
  -6   0   9   -0.98    1.09
  -6   0   9   -0.44    0.98
  -6   0   9   -0.17    0.87
  -4   0   9   -1.26    1.01
   4   0  -9    1.07    0.67
  -4   0   9    3.28    3.20
  -4   0   9   -2.14    2.04
  -4   0   9    0.94    1.99
  -4   0   9    2.53    1.92
  -4   0   9    0.44    1.01
  -4   0   9    0.16    1.25
  -7  -1   9   20.46    2.22
  -7  -1   9   21.68    2.66
   7  -1  -9   19.41    2.01
  -7  -1   9   26.50    2.71
  -7  -1   9   11.87    3.21
  -7  -1   9   19.35    2.40
  -7  -1   9   25.41    3.09
   7  -1  -9   20.19    1.79
  -7  -1   9   13.91    3.63
  -7  -1   9   16.19    2.12
  -7  -1   9   19.39    2.77
  -7   1   9   19.98    2.46
  -7   1   9   21.18    2.13
   7   1  -9   18.68    1.69
  -7   1   9   21.59    2.24
  -7   1   9   18.93    3.28
  -7   1   9   11.67    3.25
  -7   1   9   21.95    2.79
  -7   1   9   18.76    2.43
  -5  -1   9   62.49    4.70
  -5  -1   9   51.10    5.01
  -5  -1   9   67.66    4.82
   5  -1  -9   51.88    4.37
  -5  -1   9   58.15    4.75
  -5  -1   9   55.87    6.09
  -5  -1   9   63.99    4.95
   5  -1  -9   55.05    4.55
  -5  -1   9   60.49    5.35
  -5  -1   9   49.06    6.65
   5   1  -9   56.23    4.28
  -5   1   9   55.90    4.77
  -5   1   9   68.98    5.17
  -5   1   9   54.70    5.24
  -5   1   9   64.34    6.26
  -5   1   9   56.83    4.67
  -5   1   9   52.04    5.83
  -3  -1   9  108.29    8.42
  -3  -1   9  115.02    8.51
  -3  -1   9  124.06    8.61
  -3  -1   9  105.17    8.85
  -3  -1   9  127.14    8.36
  -3  -1   9  126.08    8.87
  -3  -1   9  108.67    8.93
  -3  -1   9  107.74    8.57
   3  -1  -9  106.89    8.17
  -3  -1   9   96.58    8.40
   3  -1  -9  113.93    8.31
   3   1  -9   98.63    8.05
  -3   1   9   96.09    9.38
  -3   1   9  112.89    8.67
  -3   1   9  111.96    8.61
  -3   1   9  119.83    8.59
  -3   1   9  109.11    8.48
  -3   1   9  109.54    8.96
  -6  -2   9   52.52    5.02
  -6  -2   9   55.15    4.61
  -6  -2   9   50.67    4.66
  -6  -2   9   55.59    4.85
  -6  -2   9   46.87    5.32
  -6  -2   9   54.96    6.60
  -6  -2   9   51.67    4.33
   6  -2  -9   46.89    4.03
  -6  -2   9   48.71    4.14
   6  -2  -9   45.26    3.89
  -6  -2   9   52.88    4.62
  -6   2   9   47.17    6.65
  -6   2   9   53.42    5.37
  -6   2   9   52.86    5.13
  -6   2   9   54.72    4.53
  -6   2   9   50.60    4.31
  -6   2   9   45.66    4.19
   4  -2  -9   65.08    5.07
  -4  -2   9   58.77    5.17
  -4  -2   9   64.97    5.75
  -4  -2   9   62.98    6.23
   4  -2  -9   56.58    4.91
  -4  -2   9   75.03    5.27
  -4  -2   9   58.09    5.36
  -4  -2   9   74.81    6.58
  -4  -2   9   64.33    5.53
  -4  -2   9   63.36    5.16
  -4  -2   9   68.77    5.08
  -4  -2   9   67.58    5.36
  -4   2   9   69.27    5.35
  -4   2   9   67.23    6.02
  -4   2   9   61.23    5.36
  -4   2   9   58.68    6.16
  -4   2   9   63.49    5.25
   4   2  -9   61.42    4.74
   0   0   0    0.00    0.00
;
_shelx_hkl_checksum              61015
loop_
_space_group_symop_operation_xyz
'x, y, z'
'-x, y, -z+1/2'
'x+1/2, y+1/2, z'
'-x+1/2, y+1/2, -z+1/2'
'-x, -y, -z'
'x, -y, z-1/2'
'-x+1/2, -y+1/2, -z'
'x+1/2, -y+1/2, z-1/2'
loop_
_atom_site_label
_atom_site_type_symbol
_atom_site_fract_x
_atom_site_fract_y
_atom_site_fract_z
_atom_site_U_iso_or_equiv
_atom_site_adp_type
_atom_site_occupancy
_atom_site_site_symmetry_order
_atom_site_calc_flag
_atom_site_refinement_flags_posn
_atom_site_refinement_flags_occupancy
Ni1 Ni 0.2500 0.2500 0.0000 0.00281(9) Uani 1 2 d S P
P1 P 0.19891(5) 0.11511(5) 0.33609(5) 0.00304(9) Uani 1 1 d . .
loop_
_atom_site_aniso_label
_atom_site_aniso_U_11
_atom_site_aniso_U_22
_atom_site_aniso_U_33
_atom_site_aniso_U_23
_atom_site_aniso_U_13
_atom_site_aniso_U_12
Ni1 0.00408(12) 0.00272(12) 0.00242(11) -0.00021(5) 0.00220(8) -0.00038(5)
P1 0.00349(14) 0.00332(14) 0.00261(12) 0.00015(8) 0.00175(10) 0.00008(8)
loop_
_atom_type_symbol
_atom_type_description
_atom_type_scat_dispersion_real
_atom_type_scat_dispersion_imag
_atom_type_scat_source
P P 0.1023 0.0942 'International Tables Vol C Tables 4.2.6.8 and 6.1.1.4'
Ni Ni 0.3393 1.1124 'International Tables Vol C Tables 4.2.6.8 and 6.1.1.4'
loop_
_geom_angle_atom_site_label_1
_geom_angle_atom_site_label_2
_geom_angle_atom_site_label_3
_geom_angle
_geom_angle_site_symmetry_1
_geom_angle_site_symmetry_3
P1 Ni1 P1 180.000(16) 6 4
P1 Ni1 P1 90.822(7) 6 7
P1 Ni1 P1 89.178(7) 4 7
P1 Ni1 P1 89.178(7) 6 .
P1 Ni1 P1 90.822(7) 4 .
P1 Ni1 P1 180.000(14) 7 .
Ni1 P1 Ni1 128.608(12) 4_545 .
Ni1 P1 P1 111.375(18) 4_545 7_556
Ni1 P1 P1 111.783(18) . 7_556
Ni1 P1 P1 94.768(9) 4_545 2
Ni1 P1 P1 104.259(16) . 2
P1 P1 P1 99.499(19) 7_556 2
loop_
_geom_bond_atom_site_label_1
_geom_bond_atom_site_label_2
_geom_bond_distance
_geom_bond_site_symmetry_2
Ni1 P1 2.2055(3) 6
Ni1 P1 2.2055(3) 4
Ni1 P1 2.2063(3) 7
Ni1 P1 2.2063(3) .
P1 Ni1 2.2054(3) 4_545
P1 P1 2.2217(5) 7_556
P1 P1 2.2225(6) 2
