#------------------------------------------------------------------------------
#$Date: 2021-04-01 01:29:13 +0300 (Thu, 01 Apr 2021) $
#$Revision: 263498 $
#$URL: file:///home/coder/svn-repositories/cod/cif/4/00/38/4003897.cif $
#------------------------------------------------------------------------------
#
# This file is available in the Crystallography Open Database (COD),
# http://www.crystallography.net/
#
# All data on this site have been placed in the public domain by the
# contributors.
#
data_4003897
loop_
_publ_author_name
'M\;aczka, Miros\/law'
'Zar\;eba, Jan K.'
'G\;agor, Anna'
'Stefa\'nska, Dagmara'
'Ptak, Maciej'
'Roleder, Krystian'
'Kajewski, Dariusz'
'Soszy\'nski, Andrzej'
'Fedoruk, Katarzyna'
'Sieradzki, Adam'
_publ_section_title
;
 [Methylhydrazinium]2PbBr4, a Ferroelectric Hybrid Organic--Inorganic
 Perovskite with Multiple Nonlinear Optical Outputs
;
_journal_name_full               'Chemistry of Materials'
_journal_paper_doi               10.1021/acs.chemmater.0c04440
_journal_year                    2021
_chemical_formula_moiety         'Br4 Pb, 2(C H5 N2)'
_chemical_formula_sum            'C2 H14 Br4 N4 Pb'
_chemical_formula_weight         621.00
_space_group_crystal_system      orthorhombic
_space_group_IT_number           59
_space_group_name_Hall           '-P 2c 2a'
_space_group_name_H-M_alt        'P m n m :2'
_atom_sites_solution_hydrogens   geom
_audit_creation_method           SHELXL-2018/3
_cell_angle_alpha                90
_cell_angle_beta                 90
_cell_angle_gamma                90
_cell_formula_units_Z            2
_cell_length_a                   18.1597(12)
_cell_length_b                   6.0526(3)
_cell_length_c                   6.0368(3)
_cell_measurement_reflns_used    2219
_cell_measurement_temperature    380.1(2)
_cell_measurement_theta_max      28.8770
_cell_measurement_theta_min      4.0080
_cell_volume                     663.53(6)
_computing_cell_refinement       'CrysAlisPro 1.171.38.46 (Rigaku OD, 2015)'
_computing_data_collection       'CrysAlisPro 1.171.38.46 (Rigaku OD, 2015)'
_computing_data_reduction        'CrysAlisPro 1.171.38.46 (Rigaku OD, 2015)'
_computing_structure_refinement  'SHELXL-2018/3 (Sheldrick, 2018)'
_diffrn_ambient_environment      air
_diffrn_ambient_temperature      380.1(2)
_diffrn_detector                 'CCD plate'
_diffrn_detector_area_resol_mean 10.6249
_diffrn_detector_type            Atlas
_diffrn_measured_fraction_theta_full 0.997
_diffrn_measured_fraction_theta_max 0.997
_diffrn_measurement_device       'four-circle diffractometer'
_diffrn_measurement_device_type  'Xcalibur, Atlas'
_diffrn_radiation_monochromator  graphite
_diffrn_radiation_probe          x-ray
_diffrn_radiation_type           'Mo K\a'
_diffrn_radiation_wavelength     0.71073
_diffrn_reflns_av_R_equivalents  0.0352
_diffrn_reflns_av_unetI/netI     0.0230
_diffrn_reflns_Laue_measured_fraction_full 0.997
_diffrn_reflns_Laue_measured_fraction_max 0.997
_diffrn_reflns_limit_h_max       22
_diffrn_reflns_limit_h_min       -20
_diffrn_reflns_limit_k_max       7
_diffrn_reflns_limit_k_min       -7
_diffrn_reflns_limit_l_max       6
_diffrn_reflns_limit_l_min       -7
_diffrn_reflns_number            4115
_diffrn_reflns_point_group_measured_fraction_full 0.997
_diffrn_reflns_point_group_measured_fraction_max 0.997
_diffrn_reflns_theta_full        25.682
_diffrn_reflns_theta_max         25.682
_diffrn_reflns_theta_min         3.366
_diffrn_source                   'fine-focus sealed X-ray tube'
_diffrn_source_type              'Enhance (Mo) X-ray Source'
_exptl_absorpt_coefficient_mu    24.720
_exptl_absorpt_correction_T_max  0.419
_exptl_absorpt_correction_T_min  0.043
_exptl_absorpt_correction_type   gaussian
_exptl_absorpt_process_details
;
CrysAlisPro 1.171.38.46 (Rigaku Oxford Diffraction, 2015)
Numerical absorption correction based on gaussian integration over
			a multifaceted crystal model
Empirical absorption correction using spherical harmonics,
 implemented in SCALE3 ABSPACK scaling algorithm.
;
_exptl_crystal_density_diffrn    3.108
_exptl_crystal_description       plate
_exptl_crystal_F_000             552
_exptl_crystal_size_max          0.315
_exptl_crystal_size_mid          0.273
_exptl_crystal_size_min          0.114
_refine_diff_density_max         1.955
_refine_diff_density_min         -1.210
_refine_diff_density_rms         0.288
_refine_ls_extinction_coef       0.0024(7)
_refine_ls_extinction_expression Fc^*^=kFc[1+0.001xFc^2^\l^3^/sin(2\q)]^-1/4^
_refine_ls_extinction_method     'SHELXL-2018/3 (Sheldrick 2018)'
_refine_ls_goodness_of_fit_ref   1.145
_refine_ls_hydrogen_treatment    constr
_refine_ls_matrix_type           full
_refine_ls_number_parameters     42
_refine_ls_number_reflns         726
_refine_ls_number_restraints     2
_refine_ls_restrained_S_all      1.148
_refine_ls_R_factor_all          0.0448
_refine_ls_R_factor_gt           0.0396
_refine_ls_shift/su_max          0.000
_refine_ls_shift/su_mean         0.000
_refine_ls_structure_factor_coef Fsqd
_refine_ls_weighting_details
'w=1/[\s^2^(Fo^2^)+(0.0647P)^2^+1.2623P] where P=(Fo^2^+2Fc^2^)/3'
_refine_ls_weighting_scheme      calc
_refine_ls_wR_factor_gt          0.1025
_refine_ls_wR_factor_ref         0.1053
_reflns_Friedel_coverage         0.000
_reflns_number_gt                659
_reflns_number_total             726
_reflns_threshold_expression     'I > 2\s(I)'
_cod_data_source_file            cm0c04440_si_002.cif
_cod_data_source_block           I
_cod_original_sg_symbol_H-M      'P m n m'
_cod_database_code               4003897
_shelx_shelxl_version_number     2018/3
_shelx_space_group_comment
;
The symmetry employed for this shelxl refinement is uniquely defined
by the following loop, which should always be used as a source of
symmetry information in preference to the above space-group names.
They are only intended as comments.
;
_oxdiff_exptl_absorpt_empirical_full_min 0.565
_oxdiff_exptl_absorpt_empirical_full_max 1.944
_oxdiff_exptl_absorpt_empirical_details
;
Empirical correction (ABSPACK) includes:
- Absorption correction using spherical harmonics
- Frame scaling
;
_shelx_res_file
;
TITL mhy_pbbr3_ht_3_380_00_a.res in Pmmn
    transf.res
    created by SHELXL-2018/3 at 14:38:36 on 15-Jun-2020
REM Old TITL MHy_PbBr3_HT_3_380_00 in Pmn2(1)
REM SHELXT solution in Pmmn: R1 0.149, Rweak 0.341, Alpha 0.024
REM <I/s> 4.284 for 75 systematic absences, Orientation a'=c, b'=a, c'=b
REM Formula found by SHELXT: Pb Br4 N2
CELL 0.71073 18.1597  6.0526 6.0368 90 90 90
ZERR 2 0.0012 0.0003 0.0003 0 0 0
LATT 1
SYMM 0.5-X,+y, 0.5-z
SYMM -X,-y,0.5+z
SYMM 0.5+X,-Y,-Z
SFAC C H N Br Pb
UNIT 4 28 8 8 2
DFIX 1.4  n2 c3 n2 n1
omit 3 1 0
acta 56
L.S. 12 0 0
PLAN  20
list 4
fmap 2 53
shel 10. 0.82
eqiv  $6   x,  y, -z+1/2
free C3 N2_$6
free n2 N2_$6

WGHT    0.064700    1.262300
EXTI    0.002417
FVAR       2.82292   0.50000
PB1   5    0.250000    0.921100    0.750000    10.25000    0.04776    0.03432 =
         0.03230    0.00000    0.00000    0.00000
BR1   4    0.250000    0.874482    0.250000    10.25000    0.09810    0.06755 =
         0.03165    0.00000    0.00000    0.00000
BR2   4    0.085586    0.907726    0.750000    10.50000    0.05144    0.09080 =
         0.09465    0.00000    0.00000    0.00448
BR3   4    0.250000    0.432261    0.750000    10.25000    0.16324    0.03398 =
         0.07996    0.00000    0.00000    0.00000
N1    3    0.024470    0.638811    0.250000    10.50000    0.20546    0.11801 =
         0.14183    0.00000    0.00000    0.08713
N2    3    0.083886    0.527017    0.171752    10.50000    0.11363    0.11845 =
         0.10169    0.00531    0.00952   -0.02026
AFIX  23
H2A   2    0.120296    0.625439    0.170525    10.50000   -1.20000
H2B   2    0.073570    0.499538    0.030283    10.50000   -1.20000
AFIX   0
C3    1    0.115189    0.335729    0.250000    10.50000    0.11471    0.13165 =
         0.09601    0.00000    0.00000    0.04979
AFIX 133
H3A   2    0.082580    0.213883    0.222763    10.50000   -1.50000
H3B   2    0.123729    0.349209    0.406353    10.50000   -1.50000
H3C   2    0.161137    0.310405    0.175571    10.50000   -1.50000

AFIX   0
HKLF 4 1 1 0 0  0 -1 0 0 0 -1




REM  mhy_pbbr3_ht_3_380_00_a.res in Pmmn
REM wR2 = 0.1053, GooF = S = 1.145, Restrained GooF = 1.148 for all data
REM R1 = 0.0396 for 659 Fo > 4sig(Fo) and 0.0448 for all 726 data
REM 42 parameters refined using 2 restraints

END

WGHT      0.0591      2.0604

REM Highest difference peak  1.955,  deepest hole -1.210,  1-sigma level  0.288
Q1    1   0.0828  0.0735  0.2500  10.50000  0.05    1.96
Q2    1   0.0832  1.1372  0.7500  10.50000  0.05    1.19
Q3    1   0.2500  1.0145  0.6182  10.50000  0.05    0.97
Q4    1   0.0967  0.5776  0.2500  10.50000  0.05    0.87
Q5    1   0.2500  0.4219  1.0419  10.50000  0.05    0.81
Q6    1   0.2500  0.7660  0.7500  10.25000  0.05    0.81
Q7    1   0.2500  0.3721  0.9831  10.50000  0.05    0.79
Q8    1   0.2500  0.4963  0.5794  10.50000  0.05    0.79
Q9    1   0.2500  1.1335  0.2500  10.25000  0.05    0.76
Q10   1   0.2500  0.8185  0.8778  10.50000  0.05    0.72
Q11   1   0.0924  0.9745  0.8687  11.00000  0.05    0.69
Q12   1   0.2500  0.2641  0.0181  10.50000  0.05    0.63
Q13   1   0.2216  0.9249  0.0254  11.00000  0.05    0.62
Q14   1   0.2227  0.9932  0.0574  11.00000  0.05    0.61
Q15   1   0.2500  0.5723  0.4547  10.50000  0.05    0.61
Q16   1   0.0597  0.6154  0.2500  10.50000  0.05    0.61
Q17   1   0.2500  1.0572  0.0351  10.50000  0.05    0.60
Q18   1   0.2230  0.9424  0.2500  10.50000  0.05    0.58
Q19   1   0.0806  0.5248  0.0768  11.00000  0.05    0.54
Q20   1   0.2725  0.4068  0.7500  10.50000  0.05    0.53
;
_shelx_res_checksum              79863
_shelx_hkl_file
;
  -3   0   0 39954.8 2174.78   1
   3   0   0 117204. 2889.67   1
  -4   0   0 237796. 4689.48   1
   4   0   0 225689. 3860.77   1
   5   0   0-31.5455 582.628   1
  -5   0   0 351.234 647.158   1
  -6   0   0 999999. 9356.17   1
   6   0   0 982138. 8222.18   1
   7   0   0 100.185 536.599   1
  -7   0   0 298.672 599.765   1
  -8   0   0 191602. 4139.24   1
   8   0   0 174218. 3487.78   1
   9   0   0 16138.2 1218.13   1
  -9   0   0 8746.61 1142.85   1
 -10   0   0 73570.2 2660.46   1
  10   0   0 61082.6 2148.24   1
 -11   0   0 788.961 581.415   1
  11   0   0 306.041 539.199   1
  12   0   0 242449. 4271.51   1
  13   0   0 536.710 557.516   1
  14   0   0 37198.8 1702.46   1
  15   0   0 1007.85 593.072   1
  16   0   0 10346.3 994.600   1
 -17   0   0 212.530 396.869   2
  17   0   0 249.263 538.510   1
  18   0   0 40473.8 1793.23   1
  19   0   0 526.095 567.553   1
  20   0   0 7205.92 913.018   1
  21   0   0 748.612 573.925   1
  22   0   0 1741.86 624.982   1
  23   0   0 158.221 554.786   1
   0  -1   0 207252. 1173.98   4
   0   1   0 208259. 1166.85   4
  -1   1   0 94739.4 852.276   3
   1   1   0 94850.1 798.830   4
  -1  -1   0 92076.8 804.402   4
   2  -1   0 66762.3 823.251   3
  -2  -1   0 65477.8 779.975   4
  -2   1   0 65164.5 815.798   3
   2   1   0 65079.5 763.509   4
  -3   1   0 9583.73 421.044   3
   3  -1   0 8822.80 441.593   3
   3   1   0 9250.38 439.368   4
  -3   1   0 6847.74 320.344   1
   3   1   0 7891.63 304.609   1
  -3  -1   0 8078.63 290.252   1
   3  -1   0 6033.13 340.432   1
   4   1   0 37353.5 928.271   4
  -4   1   0 35236.7 846.863   1
  -4  -1   0 35623.3 724.772   1
   4  -1   0 36153.2 905.443   1
   4   1   0 36720.0 717.013   1
  -4   1   0 35693.5 903.342   3
  -5   1   0 107339. 1879.98   3
   5  -1   0 106552. 1846.62   1
  -5   1   0 107517. 1827.41   1
   5   1   0 107389. 1515.91   1
  -5  -1   0 105983. 1555.39   1
  -6   1   0 242355. 3326.07   3
   6   1   0 248932. 2852.12   1
  -6  -1   0 245386. 2988.95   1
  -6   1   0 253965. 3456.39   1
   6  -1   0 234900. 3242.81   1
   7   1   0 50173.4 1551.06   1
  -7  -1   0 49592.5 1609.98   1
   7  -1   0 49570.6 1763.50   1
   8   1   0 30097.7 1432.82   1
  -8  -1   0 29439.8 1455.42   1
   8  -1   0 29165.2 1599.06   1
   9   1   0 5649.50 889.412   1
  -9  -1   0 4871.11 815.856   1
   9  -1   0 4690.34 869.131   1
  -9   1   0 4180.24 860.808   1
 -10   1   0 16509.5 1426.08   1
  10   1   0 18723.3 1543.13   1
  10  -1   0 15200.6 1338.55   1
 -10  -1   0 17251.9 1465.03   1
 -10   1   0 16102.6 548.087   2
  11   1   0 25706.1 1721.44   1
 -11   1   0 27833.0 802.682   2
  11  -1   0 29889.2 1836.34   1
  12   1   0 95407.0 3137.55   1
 -12   1   0 96297.0 1504.29   2
 -13   1   0 21608.8 696.481   2
  13   1   0 24381.6 1596.78   1
 -14   1   0 12559.8 526.504   2
  14   1   0 14158.9 1247.31   1
  15   1   0 1233.96 674.877   1
 -15   1   0 807.874 196.209   2
  15  -1   0 713.993 582.678   1
 -16   1   0 3189.74 271.634   2
  16   1   0 4658.05 815.681   1
  16  -1   0 4844.56 813.407   1
  17   1   0 5640.39 868.356   1
  17  -1   0 6451.36 899.085   1
  18   1   0 25046.8 1532.99   1
  18  -1   0 26264.7 1604.53   1
  19   1   0 5748.02 854.966   1
  19  -1   0 6076.10 870.901   1
  20   1   0 4751.15 817.127   1
  20  -1   0 4487.71 807.149   1
  21   1   0 868.450 622.425   1
  21  -1   0 347.094 536.509   1
  22   1   0 1448.29 600.680   1
  22  -1   0 1027.25 584.384   1
  23   1   0 1514.93 633.727   1
   0  -2   0 226947. 1754.45   4
   0   2   0 228184. 1733.27   4
   1  -2   0 414135. 2423.35   4
   1   2   0 413452. 2327.38   4
   1  -2   0 411544. 2430.03   3
  -2   2   0 49569.8 895.748   3
  -2  -2   0 49242.5 838.384   4
   2  -2   0 50989.5 928.115   3
   2  -2   0 50549.6 893.781   4
   2   2   0 49174.4 849.698   4
   3   2   0 111649. 1372.67   4
  -3   2   0 111978. 1430.92   3
  -3  -2   0 111465. 1333.87   4
   3  -2   0 109767. 1428.21   3
   3  -2   0 107038. 1280.89   1
  -4  -2   0 39326.3 879.582   4
  -4  -2   0 39449.9 683.645   1
   4  -2   0 41283.8 897.894   1
  -4   2   0 40585.5 945.127   3
   4  -2   0 40561.1 947.304   3
   4   2   0 40701.7 891.593   4
   5  -2   0 241815. 2497.19   3
  -5  -2   0 248782. 1926.65   1
   5  -2   0 246334. 2434.61   1
  -5   2   0 245923. 2511.27   3
  -5  -2   0 247881. 2391.54   4
   5   2   0 244404. 2375.67   4
  -6   2   0 135452. 2074.52   3
   6   2   0 133260. 1954.43   4
   7   2   0 269316. 2506.11   1
   7  -2   0 260313. 3290.96   1
  -7   2   0 262282. 3214.64   3
  -7  -2   0 263633. 2624.00   1
   7   2   0 264342. 3139.73   4
  -7   2   0 273241. 3076.25   1
   8   2   0 24198.3 905.085   1
   8  -2   0 22869.9 1142.26   1
   8   2   0 22055.1 1118.51   4
  -8   2   0 23324.4 1110.62   3
  -8   2   0 25697.6 1120.32   1
  -8  -2   0 21842.6 888.655   1
  -9   2   0 36138.0 1559.32   3
  -9  -2   0 32250.8 1269.69   1
   9  -2   0 32144.6 1535.24   1
   9   2   0 33814.6 1616.79   4
  -9   2   0 35122.6 1487.10   1
   9   2   0 35180.0 1222.60   1
 -10  -2   0 8875.91 788.279   1
  10  -2   0 11312.9 1053.29   1
  10   2   0 10479.9 845.005   1
  10   2   0 9063.92 1059.40   4
  11   2   0 80323.4 3024.58   4
  11  -2   0 83039.4 2856.08   1
 -11  -2   0 85777.9 2567.88   1
  11   2   0 85228.0 2355.48   1
  12  -2   0 36919.3 2197.16   1
  12   2   0 35488.3 1797.95   1
  12   2   0 32132.7 2397.65   4
  13   2   0 61487.9 2519.07   1
  13  -2   0 61503.0 2757.29   1
  14   2   0 5847.97 1070.29   1
  14  -2   0 4862.38 1072.79   1
  15  -2   0 6170.58 1148.62   1
  15   2   0 5118.02 1162.58   1
  16   2   0 533.730 934.419   1
  16  -2   0 2280.01 842.369   1
  17  -2   0 18518.9 1554.93   1
  17   2   0 14958.4 1578.05   1
  18   2   0 6215.94 1143.26   1
  18  -2   0 7685.97 1057.28   1
  19  -2   0 11653.5 1257.07   1
  19   2   0 12217.6 1320.64   1
  20  -2   0 388.351 697.926   1
  20   2   0 1283.91 739.611   1
  21  -2   0 187.191 651.128   1
  21   2   0 678.128 703.262   1
  22   2   0 2927.21 1243.84   4
  22   2   0 98.6827 582.908   1
  23   2   0 2086.83 708.472   1
  23   2   0 5963.24 1384.51   4
   0  -3   0 10158.2 523.937   4
   0   3   0 9933.76 545.593   4
   0  -3   0 9765.48 545.115   3
   1  -3   0 113937. 1570.70   3
  -1  -3   0 116509. 1554.88   4
   1   3   0 115269. 1542.33   4
   1  -3   0 117864. 1582.70   4
   2  -3   0 5460.18 399.608   4
   2  -3   0 5829.40 438.946   3
   2   3   0 5800.85 418.844   4
  -2  -3   0 5401.85 385.753   4
   3  -3   0 5454.82 424.353   4
   3  -3   0 5942.98 463.162   3
  -3  -3   0 5358.12 394.267   4
   3   3   0 5607.13 435.026   4
   4  -3   0 3750.01 342.413   1
   4  -3   0 3600.69 404.472   3
   4   3   0 3405.17 381.449   4
  -4  -3   0 3440.85 334.594   4
  -4   3   0 3709.48 359.191   3
  -5  -3   0 96845.0 1604.12   4
   5   3   0 95786.2 1612.59   4
  -5  -3   0 93616.6 1208.43   1
   5  -3   0 99433.6 1755.90   3
   5  -3   0 98874.6 1605.81   1
  -5   3   0 99782.9 1731.73   3
  -6   3   0 10081.7 633.901   3
   6  -3   0 8052.59 572.020   1
  -6  -3   0 8486.54 428.051   1
  -6  -3   0 9880.65 640.623   4
   6   3   0 9463.47 679.628   4
   6  -3   0 10876.8 710.981   3
  -7  -3   0 88633.0 1419.28   1
   7  -3   0 86305.2 1868.73   3
   7  -3   0 91412.5 1905.38   1
   7   3   0 87123.4 1760.75   4
  -8  -3   0 807.428 242.157   1
   8   3   0 310.258 401.647   4
   8  -3   0 237.801 126.097   2
   8  -3   0 298.814 108.580   2
   9   3   0 6581.71 723.979   4
   9  -3   0 4798.44 641.535   1
  -9  -3   0 6968.62 545.993   1
  10  -3   0 1148.52 600.461   1
 -10  -3   0 613.380 311.425   1
  10   3   0-366.630 605.142   4
  11   3   0 42838.5 1864.11   4
 -11  -3   0 44507.3 1603.21   1
  11  -3   0 46646.8 2024.80   1
  12  -3   0 4234.71 912.358   1
  12   3   0 4273.61 998.386   4
  13  -3   0 45296.2 2358.84   1
  13   3   0 42332.0 2300.22   4
  14   3   0 322.466 967.454   4
  14  -3   0-640.901 910.458   1
  15   3   0 2912.12 1258.52   4
  15  -3   0 2328.72 934.642   1
  16  -3   0-625.260 942.586   1
  16   3   0 133.829 1206.23   4
  16   3   0 192.889 758.836   1
  17   3   0 10189.2 1421.22   1
  17  -3   0 12508.1 1605.90   1
  17   3   0 10543.8 1990.45   4
  18   3   0-895.089 1186.41   1
  18  -3   0 173.589 796.138   1
  18   3   0-766.609 1774.92   4
  19   3   0 9145.42 1577.30   1
  19   3   0 4951.96 2027.66   4
  20  -3   0 1248.33 829.744   1
  20   3   0-2010.48 1342.77   1
  20   3   0-2042.78 2251.84   4
  21   3   0 313.150 1543.78   4
  21   3   0-1463.01 1130.83   1
  22   3   0 639.947 1434.57   4
  22   3   0-1245.43 980.171   1
  23   3   0-204.343 846.437   1
   0  -4   0 78602.8 1535.65   3
   1   4   0 115423. 1849.59   4
   1  -4   0 113965. 1857.30   3
   2   4   0 16748.6 772.674   4
   2  -4   0 16670.2 789.571   3
   3  -4   0 51815.9 1332.61   3
   3   4   0 51852.3 1309.47   4
   4   4   0 16639.2 795.966   4
   4  -4   0 16737.8 820.323   3
   4  -4   0 18745.1 731.112   1
   5  -4   0 90209.1 1839.95   3
   5   4   0 88201.9 1755.88   4
   5  -4   0 89317.4 1626.87   1
   6   4   0 43079.5 1334.03   4
   6  -4   0 40855.7 1234.62   1
  -6  -4   0 41571.2 944.045   1
  -7  -4   0 65009.4 1232.77   1
   7   4   0 65317.9 1629.85   4
   7  -4   0 67296.4 1712.87   1
   7  -4   0 66290.9 1754.64   3
   8   4   0 12347.5 840.300   4
   8  -4   0 11060.8 863.758   3
   8  -4   0 11034.9 826.715   1
  -8  -4   0 11711.3 594.390   1
   9  -4   0 18606.7 652.874   2
  -9  -4   0 20592.9 836.683   1
   9  -4   0 18142.7 1116.22   1
   9  -4   0 18988.3 555.556   2
   9   4   0 20553.2 1101.23   4
  10  -4   0 5259.37 226.992   2
  10  -4   0 5125.76 251.878   2
  11  -4   0 35719.3 1765.48   1
  11   4   0 30410.4 1513.61   4
  12  -4   0 15382.0 1340.21   1
  12   4   0 15172.4 1251.30   4
  13   4   0 21422.7 1547.57   4
  13  -4   0 22346.6 1686.40   1
  14   4   0 1625.42 877.157   4
  14  -4   0 2933.45 901.213   1
  15  -4   0 3690.52 1089.47   1
  15   4   0 2816.81 1061.59   4
  16   4   0 133.641 1138.96   4
  16  -4   0 324.896 967.390   1
  17  -4   0 5657.11 1231.41   1
  17   4   0 3583.41 1330.86   4
  18   4   0-1206.18 1589.86   4
  18  -4   0 2713.62 1114.26   1
  19  -4   0 6588.42 1308.39   1
  19   4   0 850.697 1677.34   4
  20   4   0-3455.26 2039.80   4
   0  -5   0 35004.7 1225.87   3
  -1  -5   0 1409.51 421.952   3
   1  -5   0 1405.34 443.253   3
   2  -5   0 11046.1 771.529   3
  -2  -5   0 9820.09 709.431   3
   2   5   0 10128.2 735.346   4
   3  -5   0 812.138 447.494   3
   3  -5   0 671.225 290.097   1
   3   5   0 648.804 423.969   4
   4   5   0 8110.79 703.496   4
   4  -5   0 8450.63 706.092   3
   4  -5   0 8277.96 587.700   1
   5  -5   0 992.670 466.797   3
   5   5   0 813.984 445.342   4
   5  -5   0 985.185 353.448   1
   6  -5   0 29424.5 1137.06   1
   6   5   0 30599.2 1252.65   4
   6  -5   0 31255.6 1321.23   3
   7  -5   0 2721.33 492.116   1
   7   5   0 3120.20 594.798   4
   7  -5   0 2834.25 590.314   3
   8  -5   0 6491.68 695.042   1
   8  -5   0 6679.50 776.230   3
   8   5   0 6921.01 738.861   4
   9  -5   0-69.5428 564.351   3
   9   5   0 108.763 511.980   4
   9  -5   0-26.9775 518.220   1
  10   5   0 5318.98 781.161   4
  10  -5   0 4389.47 718.043   1
  11   5   0 2521.61 708.016   4
  11  -5   0 2953.42 734.321   1
  12  -5   0 15510.4 1365.02   1
  12   5   0 14758.0 1256.56   4
  13   5   0 3725.74 948.589   4
  13  -5   0 2904.72 877.933   1
  14   5   0 4736.77 1044.05   4
  14  -5   0 3847.53 978.269   1
  15  -5   0 819.016 866.368   1
  15   5   0 1651.85 959.516   4
  16   5   0 3669.59 1206.03   4
  16  -5   0 1697.55 978.895   1
  17   5   0 2874.52 1283.54   4
  17  -5   0-434.101 1034.73   1
  18   5   0 5379.36 1547.53   4
  19   5   0 1773.24 1413.78   4
   0  -6   0 42468.6 1543.68   3
   1  -6   0 395.907 488.698   3
  -1  -6   0 179.738 441.178   3
  -2  -6   0 24179.3 1166.53   3
   2  -6   0 25711.6 983.715   1
   2  -6   0 27330.3 1269.56   3
   3  -6   0 2132.98 577.875   3
   3  -6   0 1719.47 404.906   1
  -3  -6   0 1563.86 511.456   3
   4   6   0 23373.3 1202.55   4
   4  -6   0 21750.9 962.274   1
   4  -6   0 20865.9 1165.26   3
   5   6   0 649.052 538.713   4
   5  -6   0 523.946 509.261   3
   5  -6   0 342.206 355.798   1
   6   6   0 31817.0 1428.82   4
   6  -6   0 30492.1 1437.39   3
   6  -6   0 28372.4 1240.32   1
   7   6   0 396.790 543.189   4
   7  -6   0-93.1231 425.675   1
   7  -6   0-53.5000 534.766   3
   8  -6   0 14111.3 1103.67   3
   8   6   0 14874.2 1109.56   4
   8  -6   0 13228.2 1020.90   1
   9  -6   0-1.54118 601.022   3
   9   6   0 742.031 615.110   4
   9  -6   0-533.886 607.442   1
  10   6   0 8298.82 965.884   4
  10  -6   0 6683.93 900.853   1
  11   6   0 192.197 643.006   4
  11  -6   0 1666.69 710.368   1
  12   6   0 11997.5 1198.87   4
  12  -6   0 14094.7 1382.20   1
  13  -6   0 796.087 736.139   1
  13   6   0-596.910 780.419   4
  14  -6   0 4853.51 1085.41   1
  14   6   0 3148.03 975.901   4
  15   6   0-703.461 1005.22   4
  15  -6   0 1.32872 783.054   1
  16   6   0 3165.05 1116.19   4
   0  -7   0 3726.53 704.309   3
   1  -7   0 2900.15 446.192   1
  -1  -7   0 2743.61 652.014   3
   1  -7   0 2826.35 651.499   3
  -2  -7   0 1164.25 545.663   3
   2  -7   0 1915.86 395.416   1
   2  -7   0 1692.94 582.496   3
   3  -7   0 1305.24 618.771   3
   3  -7   0 1384.53 377.759   1
  -3  -7   0 966.459 503.698   3
   4  -7   0 1830.61 628.039   3
   4  -7   0 1957.49 454.212   1
  -4  -7   0 1371.51 522.458   3
  -5  -7   0 1815.74 551.228   3
   5  -7   0 2094.40 488.633   1
   5  -7   0 2256.91 652.949   3
   6  -7   0 3106.03 574.044   1
   6  -7   0 3030.88 743.790   3
   6   7   0 3799.48 765.630   4
  -6  -7   0 2753.57 604.797   3
   7  -7   0 698.522 487.955   1
   7  -7   0 1316.00 670.000   3
   7   7   0 1877.15 695.250   4
   8  -7   0 1313.47 648.950   3
   8  -7   0 438.380 519.651   1
   9   7   0 1196.40 671.424   4
   9  -7   0 362.775 597.155   3
   9  -7   0-802.431 687.879   1
  10   7   0 2265.85 779.189   4
  10  -7   0 504.697 605.091   1
  11   7   0 468.033 686.686   4
  11  -7   0 2002.20 739.117   1
  12  -7   0 3603.70 927.485   1
  12   7   0 2118.61 837.862   4
   0   0  -1 15416.9 500.825   2
   0   0   1 28071.1 622.719   2
  -1   0   1 203011. 1143.41   1
  -1   0  -1 200734. 1705.88   2
  -1   0   1 205322. 1662.49   2
  -2   0   1 214.081 62.9778   3
  -2   0   1 386.505 170.064   2
  -2   0   1 207.760 105.664   1
   2   0  -1 261.818 123.289   1
   2   0  -1 226.464 138.971   2
   2   0   1 199.174 168.976   2
  -2   0  -1 414.427 173.580   2
   3   0  -1 42929.4 772.159   2
  -3   0   1 44533.7 709.974   3
  -3   0   1 43470.4 858.383   1
  -3   0  -1 44275.1 1013.55   2
  -3   0   1 44636.9 899.142   2
   3   0  -1 42985.0 837.095   1
   3   0   1 42235.1 571.640   1
   3   0   1 45649.4 899.174   2
  -4   0   1 438.082 243.621   2
  -4   0  -1 222.387 227.747   2
   4   0  -1 515.223 297.642   1
   4   0   1 74.9899 201.804   2
   4   0   1 458.683 149.755   1
  -4   0   1 14.2417 205.566   1
  -5   0   1 181503. 2633.74   1
  -5   0   1 181941. 2192.88   2
   5   0  -1 184774. 2650.35   1
  -5   0  -1 174790. 2502.05   2
  -5   0  -1 179946. 1764.01   1
   5   0   1 182266. 1955.84   1
  -6   0  -1 30649.2 1386.51   2
  -6   0   1 24012.0 1229.43   1
   6   0   1 16315.2 853.248   1
   6   0  -1 30269.5 1375.62   1
  -6   0   1 24991.8 1045.11   2
   7   0  -1 181159. 3696.92   1
  -7   0   1 171536. 3444.43   1
  -7   0  -1 185892. 2784.32   1
  -7   0   1 179170. 2818.48   2
  -7   0  -1 179175. 3362.04   2
   7   0   1 167221. 2797.30   1
   8   0   1 186.913 455.435   1
  -8   0   1-275.330 500.109   2
  -8   0   1 31.1089 413.270   1
   8   0  -1 248.502 744.594   1
  -8   0  -1-38.0761 548.053   2
  -8   0  -1 289.904 388.257   1
   9   0  -1 3509.33 903.438   1
  -9   0  -1 4498.11 887.336   2
  -9   0  -1 3731.35 780.958   1
  -9   0   1 2891.28 674.566   2
  -9   0   1 2968.02 783.055   1
   9   0   1 3569.82 742.093   1
  10   0  -1-465.407 756.296   1
 -10   0   1-104.825 564.744   2
 -10   0  -1-177.859 548.650   2
 -10   0  -1-198.719 521.537   1
  10   0   1-702.542 661.625   1
 -10   0   1-360.462 653.028   1
 -11   0   1 78613.3 2530.03   2
  11   0  -1 69563.0 2650.99   1
 -11   0  -1 71897.2 2685.69   1
  11   0   1 80690.9 2806.10   1
 -12   0  -1 6289.25 999.252   2
  12   0   1 10006.9 1157.27   1
  12   0  -1 10582.2 1256.82   1
 -12   0   1 8441.21 1056.30   2
  13   0  -1 59027.5 2352.61   1
 -13   0   1 62267.1 2046.77   2
  13   0   1 63484.7 2299.21   1
  14   0  -1 293.809 644.344   1
  14   0   1 384.652 507.317   1
 -14   0   1 507.158 489.887   2
 -14   0  -1-20.9540 481.580   2
 -15   0   1 1143.06 514.275   2
  15   0   1 619.823 537.864   1
 -15   0  -1 1299.59 571.151   2
  15   0  -1 1864.26 711.163   1
 -16   0  -1 242.727 445.971   2
  16   0  -1 37.7871 567.844   1
  16   0   1-383.027 577.238   1
 -16   0   1 226.364 439.431   2
 -17   0  -1 15197.3 1122.77   2
  17   0  -1 14916.9 1216.02   1
 -17   0   1 16692.0 1025.36   2
  17   0   1 16358.1 1232.49   1
 -18   0   1 842.415 455.311   2
  18   0  -1 1078.95 657.598   1
  18   0   1 470.747 553.744   1
  19   0  -1 17137.1 1298.75   1
  19   0   1 15973.2 1196.81   1
  20   0   1 134.003 510.579   1
  20   0  -1 734.363 626.231   1
  21   0  -1 795.125 599.821   1
  21   0   1 601.164 547.726   1
  22   0  -1 500.550 564.378   1
  22   0   1 140.330 496.834   1
  23   0   1 3263.66 702.124   1
   0   1  -1 29918.7 408.790   3
   0   1   1 33546.8 1043.16   2
   0  -1  -1 29155.5 531.205   4
   0  -1   1 30498.7 803.715   2
   0  -1   1 29486.2 445.664   3
   0  -1  -1 32791.5 926.730   2
   0   1   1 31074.2 537.604   4
  -1  -1  -1 69438.5 871.347   4
   1  -1   1 72302.2 1061.11   2
  -1   1  -1 70107.4 772.125   3
  -1   1   1 70645.6 787.450   4
  -1  -1   1 70908.2 538.526   4
   1  -1  -1 70619.7 1158.70   2
  -1   1   1 69052.8 1388.34   2
   1  -1   1 71179.4 898.228   3
   1  -1  -1 71232.1 1716.97   1
  -1   1  -1 70233.5 1226.36   2
  -1  -1   1 71004.4 1346.34   2
   1   1   1 72149.9 865.849   4
   1  -1  -1 70024.3 807.666   4
  -1   1   1 72324.5 1500.44   1
  -1  -1   1 70646.0 551.725   3
   2   1  -1 965.083 93.1329   4
  -2   1  -1 957.979 218.889   2
   2  -1   1 1008.32 187.747   2
  -2  -1   1 964.312 102.612   4
   2  -1  -1 909.441 160.251   3
  -2   1   1 1075.87 292.481   2
  -2  -1  -1 665.488 385.522   2
   2  -1  -1 861.036 551.058   1
  -2  -1  -1 864.509 173.384   4
  -2   1  -1 923.825 187.415   3
  -2   1   1 1428.82 579.872   1
   2  -1  -1 972.921 192.036   2
   2   1   1 901.795 196.154   4
   2  -1  -1 925.771 138.466   4
  -3   1   1 60969.4 861.024   3
  -3   1  -1 59498.7 1051.73   2
  -3   1   1 47195.0 1931.41   1
   3   1   1 61582.9 904.118   1
  -3  -1   1 61296.4 843.551   1
   3  -1  -1 43339.6 1792.02   1
   3  -1   1 62470.2 871.611   2
   3   1   1 63485.0 1061.82   4
  -3  -1  -1 66926.6 1036.41   1
   3   1  -1 61691.7 686.449   4
  -3   1   1 62091.4 1181.90   2
   3  -1  -1 60888.9 850.849   3
   3  -1  -1 61231.5 874.117   2
  -4   1  -1 14582.2 538.544   2
   4  -1  -1 12183.7 1138.54   1
   4   1   1 15765.1 686.973   4
   4   1   1 16160.0 763.843   1
  -4   1   1 14830.7 580.669   2
   4  -1  -1 14913.2 506.703   3
  -4  -1  -1 19993.7 1002.08   1
   4  -1   1 15117.4 427.634   2
   4  -1  -1 14912.5 405.627   2
   4   1  -1 15384.0 493.323   4
  -4   1   1 15288.8 502.577   3
  -4   1   1 11626.1 1118.18   1
  -4  -1   1 15347.0 487.802   1
   5  -1   1 49358.8 893.010   1
   5   1  -1 47830.9 985.052   1
  -5   1  -1 44679.4 936.128   2
   5  -1  -1 46506.1 992.360   3
   5  -1  -1 46388.5 2026.09   1
  -5   1   1 41086.2 2050.01   1
  -5  -1  -1 40558.3 1456.64   1
  -5  -1   1 47799.0 960.230   1
   5  -1  -1 46795.2 668.925   2
   5   1   1 50679.6 1778.65   1
  -5   1   1 46777.6 969.561   2
  -5   1   1 45207.5 959.245   3
   5   1   1 47926.6 1377.50   4
   5  -1   1 47130.7 738.464   2
   6  -1  -1 31467.1 559.508   2
   6  -1   1 31489.3 838.813   1
  -6  -1  -1 28144.5 1398.55   1
  -6   1   1 34350.4 1002.36   3
  -6   1  -1 33773.6 875.643   2
  -6  -1   1 32874.9 919.503   1
   6   1  -1 33739.9 960.247   1
   6   1   1 32964.8 1552.64   1
   6  -1   1 33446.4 683.187   2
  -6   1   1 36923.8 2028.72   1
  -6   1   1 35280.5 878.188   2
   7   1  -1 56495.0 1402.49   1
   7  -1   1 58840.3 1311.68   1
  -7   1   1 58637.0 2465.44   1
  -7   1   1 55983.9 1129.12   2
  -7   1  -1 55296.8 1191.28   2
   7   1   1 52170.4 1889.08   1
   7  -1   1 57057.7 942.371   2
  -7   1   1 56333.7 1464.37   3
  -7  -1  -1 52755.1 1938.70   1
  -7  -1   1 58591.3 1369.34   1
   7  -1  -1 60953.7 2283.21   1
  -8   1   1 246.292 563.781   1
  -8   1   1-386.748 405.262   3
  -8  -1   1 22.1804 269.671   1
   8   1   1 10.1228 500.335   1
  -8   1   1 218.921 227.124   2
  -8   1  -1 76.0288 241.814   2
   8   1  -1-62.8998 378.856   1
  -8  -1  -1 490.394 476.742   1
  -8   1  -1 1057.83 313.385   1
   8  -1   1-191.325 424.464   1
   8  -1  -1 112.711 585.182   1
   9   1   1 2522.80 624.182   1
  -9   1   1 1941.89 510.341   3
  -9   1  -1 3248.92 498.548   1
  -9  -1  -1 3566.08 701.986   1
  -9   1  -1 2221.08 391.774   2
   9  -1   1 2868.24 541.471   1
  -9   1   1 2583.30 360.466   2
  -9   1   1 3132.11 791.792   1
   9   1  -1 1844.04 523.401   1
  -9  -1   1 1909.28 437.611   1
   9  -1  -1 2716.46 740.288   1
  10   1   1 625.162 515.923   1
 -10  -1   1-391.119 514.402   1
  10  -1  -1 546.886 581.536   1
 -10   1   1 1320.13 675.556   1
 -10   1  -1 443.719 340.393   2
  10  -1   1 904.375 498.850   1
  10   1  -1-65.9561 629.158   1
 -10  -1  -1 1182.82 557.650   1
 -10   1   1-219.996 632.122   3
 -10   1  -1 791.791 421.373   1
 -10   1   1 682.706 314.937   2
  11   1   1 25589.5 1376.13   1
  11   1  -1 23314.4 1561.60   1
 -11   1   1 21859.2 1721.69   3
 -11   1  -1 24368.6 1214.46   2
  11  -1  -1 27586.1 1569.03   1
  11  -1   1 23828.8 1433.70   1
 -11   1   1 26208.2 1073.99   2
 -12   1  -1 19664.7 1273.42   2
  12  -1   1 17917.4 1428.13   1
  12   1   1 20780.2 1297.79   1
  12  -1  -1 21394.2 1472.85   1
 -12   1   1 21013.9 1095.56   2
 -12  -1  -1 22534.0 1507.02   1
  12   1  -1 17613.0 1579.96   1
  13  -1  -1 37725.8 1798.27   1
  13  -1   1 33571.1 1988.71   1
 -13   1   1 39161.1 1454.62   2
 -13   1  -1 32143.1 1428.04   2
  13   1  -1 33662.7 2280.25   1
  13   1   1 36409.8 1609.25   1
 -14   1  -1 673.392 403.148   2
  14  -1  -1 1433.58 610.898   1
  14   1   1 1167.88 548.452   1
  14   1  -1-82.9417 903.844   1
 -14   1   1 686.447 351.674   2
  14  -1   1 399.141 775.955   1
  15  -1   1 918.349 752.981   1
  15   1   1 1085.50 586.538   1
  15  -1  -1 1001.53 606.012   1
 -15   1   1 732.041 322.477   2
 -15  -1  -1 944.757 632.852   2
 -15   1  -1 805.964 358.490   2
  15   1  -1 1000.49 806.043   1
  16  -1  -1 359.203 578.522   1
  16   1   1 597.117 490.621   1
 -16   1   1 205.367 255.252   2
  16  -1   1-124.923 690.709   1
  16   1  -1 363.063 723.085   1
 -16   1  -1 252.019 298.905   2
  17   1   1 10160.9 974.760   1
  17  -1  -1 9760.24 1003.85   1
  17   1  -1 9987.36 1228.16   1
  17  -1   1 10946.3 1217.82   1
  18  -1   1 6963.41 1023.82   1
  18  -1  -1 6455.85 905.421   1
  18   1   1 6197.41 827.321   1
  18   1  -1 7326.07 1080.02   1
  19   1  -1 12207.6 1266.44   1
  19  -1  -1 10895.5 1063.30   1
  19   1   1 10929.3 1006.78   1
  19  -1   1 10296.3 1124.26   1
  20   1   1 960.883 560.583   1
 -20  -1   1 530.362 431.354   2
  20   1  -1 1073.47 683.959   1
  20  -1   1-704.776 736.711   1
  20  -1  -1 1142.73 618.318   1
  21   1  -1 492.431 648.105   1
  21  -1  -1 745.346 577.853   1
  21  -1   1-257.796 663.902   1
  21   1   1 614.225 511.836   1
  22  -1  -1 263.446 532.589   1
  22   1  -1 924.189 670.755   1
  22   1   1 508.835 530.704   1
  22  -1   1-299.230 594.443   1
  23   1   1 2338.01 635.919   1
  24   1   1 1510.44 603.958   1
   0  -2   1 264317. 1821.10   3
   0  -2   1 262805. 1736.57   4
   0   2   1 258113. 2009.44   4
   0  -2  -1 260373. 2046.32   4
  -1  -2  -1 102511. 1304.79   4
   1   2   1 104502. 1307.11   4
  -1  -2   1 103023. 1066.14   4
  -1   2  -1 105509. 1171.73   3
   1  -2  -1 103640. 1301.00   4
  -1   2   1 104505. 1270.93   4
   1  -2   1 103488. 1217.78   3
  -1  -2   1 101665. 1092.11   3
   1  -2  -1 103876. 1277.07   1
   2  -2  -1 12939.4 499.005   3
  -2  -2   1 12669.9 394.884   4
   2  -2  -1 11932.1 668.196   2
   2  -2  -1 12372.5 485.871   4
   2  -2  -1 11894.9 590.028   1
   2  -2   1 13732.1 522.246   3
  -2  -2  -1 12063.0 484.149   4
   2   2  -1 12911.2 404.395   4
  -2   2  -1 12977.0 463.276   3
   2   2   1 12826.5 518.608   4
   3   2  -1 32498.9 662.567   4
   3   2   1 31743.9 854.952   4
   3  -2  -1 31769.9 787.076   4
  -3   2   1 29618.4 705.239   1
   3  -2  -1 31731.0 1173.35   1
   3  -2  -1 31226.3 922.482   2
   3  -2   1 32381.6 847.421   2
   3  -2   1 31380.3 864.268   3
  -3  -2   1 31296.5 645.463   4
  -3  -2  -1 32199.3 825.578   4
   3  -2  -1 32867.0 801.152   3
  -3  -2  -1 29904.6 442.086   1
  -3   2  -1 33001.7 806.982   3
   4   2   1 27862.2 835.847   4
  -4   2  -1 28154.6 828.273   3
  -4   2   1 28739.7 841.460   1
  -4  -2   1 28654.3 690.344   4
   4  -2  -1 28169.7 765.890   3
  -4   2   1 28413.7 772.865   3
   4  -2  -1 27872.2 750.063   2
  -4  -2  -1 28594.4 841.667   4
   4   2  -1 28968.8 662.854   4
   4  -2  -1 28790.1 1288.65   1
   4  -2   1 27782.5 687.910   2
  -4  -2  -1 28754.7 581.205   1
   5  -2  -1 69016.7 1281.36   3
   5   2  -1 68823.3 1095.37   4
  -5   2   1 68462.2 1272.73   3
   5  -2  -1 66082.1 2162.20   1
  -5  -2  -1 69403.5 1410.01   4
   5  -2   1 67842.3 973.371   2
   5   2   1 67360.0 1399.06   4
   5  -2  -1 70337.4 1042.88   2
  -5   2  -1 69605.3 1461.30   3
  -5  -2   1 68267.2 1103.70   1
  -5  -2  -1 68946.9 1260.23   1
  -5   2   1 67936.7 1548.57   1
   6   2   1 160601. 1510.65   1
  -6   2   1 164407. 2169.59   3
   6  -2   1 160706. 1404.07   2
  -6   2   1 166735. 2916.83   1
   6  -2  -1 160508. 2082.05   3
   6   2  -1 160739. 1919.99   4
   6   2   1 162751. 2344.31   4
   6  -2   1 158990. 1856.91   1
  -6   2  -1 166525. 2582.59   3
  -6  -2   1 159517. 1827.28   1
   6  -2  -1 166427. 3863.82   1
  -6  -2  -1 162955. 2538.03   1
   6  -2  -1 159196. 1372.87   2
  -7  -2   1 58855.4 1211.64   1
  -7   2   1 66225.3 2188.30   1
  -7   2   1 58432.7 1397.27   3
   7  -2  -1 56553.7 1370.81   3
   7  -2   1 58903.9 1256.36   1
  -7  -2  -1 55351.0 1859.12   1
   7  -2   1 56498.5 781.773   2
   7  -2  -1 57011.9 727.561   2
   7   2   1 60993.0 1141.89   1
   7   2   1 60192.5 1635.55   4
   7   2  -1 55230.9 1287.00   4
   7  -2  -1 53820.8 2406.97   1
  -7   2  -1 57657.3 1734.11   3
   8  -2  -1 10395.4 282.649   2
   8  -2  -1 10396.7 1200.24   1
  -8  -2  -1 12372.0 1110.53   1
   8   2   1 11878.7 650.879   1
   8   2  -1 11000.1 744.034   4
   8  -2   1 11430.1 358.813   2
   8  -2   1 11547.4 667.616   1
  -8  -2   1 12277.3 633.736   1
  -8   2   1 14886.0 1295.50   1
   8   2   1 11091.4 913.204   4
  -8   2  -1 10169.7 902.785   3
  -8   2   1 12952.2 757.954   3
   9  -2   1 12038.3 390.250   2
  -9   2  -1 12500.2 1140.96   3
   9  -2  -1 13938.3 1458.65   1
   9   2   1 13150.2 1156.99   4
   9  -2   1 12771.1 795.953   1
   9   2   1 11988.7 795.926   1
  -9   2   1 15158.8 1565.14   1
   9   2  -1 12218.5 966.416   4
  -9  -2   1 12828.6 729.119   1
  -9   2   1 14527.0 880.786   3
  10   2  -1 8723.74 751.448   1
 -10  -2   1 5867.50 561.516   1
 -10  -2  -1 8780.98 1125.66   1
  10  -2  -1 5892.30 1086.51   1
  10   2  -1 5402.09 827.811   4
  10   2   1 3891.57 896.564   4
  10   2   1 5403.75 665.365   1
  10  -2   1 6872.35 670.858   1
  11   2   1 17246.0 1231.16   1
  11  -2  -1 21438.1 1601.42   1
  11   2   1 16430.7 1548.84   4
  11   2  -1 22078.5 1220.58   1
  11  -2   1 21714.5 1214.86   1
  11   2  -1 15613.1 1410.03   4
  12  -2   1 61958.3 2210.78   1
  12   2   1 58175.0 2436.71   1
  12   2   1 52816.1 2906.99   4
  12   2  -1 54125.0 2659.48   4
  12   2  -1 61191.0 2150.69   1
  12  -2  -1 66083.0 2575.06   1
  13   2  -1 18837.7 1400.18   1
  13  -2  -1 18456.2 1423.32   1
  13   2   1 16741.6 1528.83   1
  13   2   1 9207.45 1634.58   4
 -13  -2  -1 24440.2 1540.62   1
  13  -2   1 18013.9 1361.45   1
  13   2  -1 10799.5 1474.59   4
  14   2  -1 6268.82 1056.87   1
  14  -2   1 5221.60 955.454   1
  14  -2  -1 5667.48 928.356   1
  14   2   1 4260.37 933.486   1
  15  -2   1 2043.55 857.013   1
  15  -2  -1 3001.55 777.763   1
  15   2  -1 2444.09 951.696   1
  15   2   1 3000.06 887.337   1
  16  -2  -1 940.845 606.477   1
  16   2  -1 139.656 956.217   1
  16  -2   1 142.317 851.159   1
  16   2   1 2118.36 784.001   1
  16   2   1-1553.33 2012.08   4
  17   2   1 1587.24 1897.12   4
  17  -2   1 3012.07 917.998   1
  17   2  -1 2470.55 1085.62   1
  17   2   1 4927.19 882.420   1
  17  -2  -1 4172.66 822.541   1
  18   2  -1 12668.1 1647.35   1
  18  -2   1 16974.6 1735.50   1
  18   2   1 15226.1 1340.19   1
  18  -2  -1 15651.0 1297.08   1
  18   2   1 18393.5 2981.18   4
  19   2   1 4516.44 852.212   1
  19  -2   1 4477.34 1074.87   1
  19   2  -1 2564.91 1038.05   1
  19   2   1 6650.88 1919.84   4
  19  -2  -1 3645.87 803.298   1
  20  -2   1 2841.67 887.387   1
  20   2  -1 1617.28 854.333   1
  20  -2  -1 2418.58 733.530   1
  20   2   1 3459.42 1596.85   4
  20   2  -1 4015.26 1413.53   4
  20   2   1 2638.35 723.323   1
  21  -2  -1 704.533 579.727   1
  21   2  -1 3913.69 1299.67   4
  21  -2   1 530.174 713.006   1
  21   2   1 862.056 623.459   1
  21   2  -1 88.1493 774.446   1
  21   2   1 3690.26 1507.31   4
  22   2   1 863.098 599.504   1
  22   2   1 2731.32 1338.05   4
  22   2  -1-271.534 722.554   1
  22   2  -1 3971.17 1277.66   4
  23   2   1 1021.80 602.586   1
  23   2  -1 3129.43 1156.85   4
  24   2   1 2339.25 686.167   1
   0  -3   1 62035.7 1145.46   3
   0  -3  -1 63933.5 1232.36   4
   0  -3   1 61977.6 1080.73   4
   0   3   1 62597.1 1202.93   4
  -1   3   1 1489.23 317.355   4
   1  -3  -1 1514.63 319.065   3
  -1  -3   1 1557.66 252.625   3
   1  -3   1 2538.74 273.070   4
  -1  -3   1 1438.86 227.182   4
   1  -3   1 1365.21 289.373   3
   1  -3  -1 1870.38 240.027   1
   1   3   1 1454.60 308.566   4
  -1  -3  -1 1626.56 266.935   4
   1  -3  -1 1560.16 260.308   4
   2  -3  -1 2652.02 351.467   3
   2   3   1 2457.73 355.501   4
   2   3  -1 2705.61 299.217   4
  -2  -3   1 2771.79 271.679   4
   2  -3  -1 2789.62 315.068   4
   2  -3  -1 2543.97 297.594   1
  -2  -3  -1 2825.26 328.868   4
   2  -3   1 2454.51 282.781   4
   2  -3   1 2874.16 338.934   3
   3  -3  -1 9564.18 574.176   1
   3  -3   1 10137.9 573.467   3
  -3   3  -1 10058.2 518.623   3
   3   3  -1 9838.05 489.023   4
  -3  -3   1 9922.81 465.481   4
   3   3   1 9308.58 567.697   4
   3  -3  -1 10013.3 547.152   4
   3  -3  -1 9954.28 558.793   3
  -3  -3  -1 10113.2 547.021   4
   4  -3   1 757.892 312.169   3
   4   3   1 1301.79 360.990   4
   4   3  -1 1069.77 265.118   4
  -4   3  -1 1155.45 263.941   3
   4  -3  -1 1059.62 317.177   2
   4  -3  -1 883.332 245.106   4
   4  -3  -1 1276.02 325.998   3
  -4  -3   1 778.784 206.442   4
  -4  -3  -1 1146.50 280.825   4
   4  -3  -1 256.882 362.289   1
  -4  -3  -1 924.191 141.643   1
   5   3  -1 1995.92 324.561   4
   5  -3  -1 1814.93 315.982   2
   5  -3  -1 1792.62 323.500   4
   5   3   1 2205.71 419.387   4
   5  -3  -1 1981.18 384.095   3
  -5  -3  -1 1883.98 203.660   1
   5  -3   1 1509.62 378.651   3
  -5  -3   1 1897.59 279.673   4
  -5   3  -1 2102.92 332.334   3
   5  -3   1 1599.23 286.119   2
  -5  -3  -1 1770.04 328.885   4
   5  -3  -1 2558.65 487.382   1
   6   3   1 65599.4 1555.53   4
  -6  -3  -1 66310.3 1134.81   1
  -6   3   1 65553.3 1466.56   3
  -6  -3   1 65382.7 1372.08   4
   6  -3  -1 66853.5 1272.29   2
   6  -3  -1 64954.5 1480.69   3
  -6  -3   1 64602.5 1193.55   1
   6  -3   1 65981.7 1309.48   1
   6  -3   1 65307.1 1135.50   2
  -6   3  -1 69157.0 1616.87   3
   6  -3  -1 65969.3 2030.01   1
   6   3  -1 63672.9 1299.47   4
  -6  -3  -1 66953.0 1553.51   4
  -7  -3  -1 1992.14 294.905   1
   7  -3   1 2410.50 371.948   1
  -7  -3   1 2009.00 279.182   1
   7  -3  -1 1802.77 426.184   3
   7  -3  -1 1979.07 245.332   2
   7   3   1 1994.85 480.502   4
   7  -3   1 2191.12 247.404   2
   7   3  -1 2573.69 391.987   4
   7  -3  -1 2356.52 656.433   1
  -8  -3  -1 4871.07 497.401   1
   8  -3   1 5418.23 302.873   2
  -8   3   1 7603.14 667.358   1
   8  -3   1 5577.23 514.166   1
   8  -3  -1 5241.94 895.392   1
   8   3   1 4674.41 616.984   4
   8  -3  -1 5441.24 291.978   2
   8  -3  -1 5112.59 586.900   3
  -8  -3   1 5381.13 424.105   1
   8   3  -1 5101.29 515.612   4
   9  -3   1 2200.05 439.039   1
  -9  -3  -1 2498.62 487.620   1
   9  -3  -1 2295.73 499.780   3
   9  -3  -1 2152.37 166.491   2
   9  -3   1 2359.26 202.683   2
   9  -3  -1 2780.16 866.692   1
   9   3  -1 2125.58 473.487   4
   9   3   1 2028.61 617.462   4
  10  -3   1 3334.42 193.187   2
 -10  -3  -1 3204.32 620.285   1
  10  -3  -1 3100.27 925.935   1
  10   3   1 2979.52 709.949   4
  10   3  -1 2713.01 547.675   4
  10  -3   1 3224.20 515.771   1
  11  -3   1 870.954 450.887   1
  11  -3  -1 960.983 823.404   1
  11   3   1 158.686 774.194   4
  11   3  -1 724.085 519.649   4
 -11  -3  -1 597.028 560.315   1
  12   3  -1 35903.3 1722.58   4
  12  -3  -1 36286.7 2332.07   1
  12   3   1 40050.6 2139.59   4
 -12  -3  -1 42284.5 2301.66   1
  12  -3   1 37063.2 1624.99   1
  13  -3  -1 181.989 810.127   1
 -13  -3  -1 1126.66 762.111   1
  13  -3   1 1645.32 669.645   1
  13   3  -1 1293.29 769.748   4
  13   3   1 1642.28 547.309   1
  13   3   1 1528.53 1002.63   4
  14  -3   1 7540.39 1037.89   1
  14   3   1 6782.38 920.841   1
  14   3  -1 6466.72 1141.58   4
  14   3   1 6176.15 1415.11   4
  14  -3  -1 6583.88 1131.96   1
  15   3   1 1973.65 1289.77   4
  15   3   1 1186.76 727.355   1
  15  -3  -1 1580.52 785.955   1
  15  -3   1 1418.23 799.813   1
  15   3  -1 1451.88 1033.77   4
  16  -3   1 1729.09 860.218   1
  16   3  -1 2804.36 1225.20   4
  16  -3  -1 3675.06 903.388   1
  16   3   1 2459.62 845.127   1
  16   3   1 2966.25 1497.11   4
  17  -3   1-171.344 944.953   1
  17   3   1-687.609 891.687   1
  17  -3  -1-1183.14 890.784   1
  17   3   1 276.036 1336.82   4
  17   3  -1-67.0766 1139.29   4
  18   3   1 9635.49 1551.05   1
  18  -3  -1 12909.7 1301.57   1
  18   3   1 8287.02 2056.49   4
  18  -3   1 12098.4 1611.47   1
  18   3  -1 10068.0 1953.41   4
  19   3  -1-1941.98 1903.87   4
  19   3   1-1581.08 1181.80   1
  19  -3  -1-597.270 784.974   1
  19  -3   1-968.709 1041.26   1
  19   3   1-3402.82 2012.24   4
  20  -3   1 2183.95 1004.52   1
  20   3   1 979.432 894.249   1
  20   3   1 522.667 2316.57   4
  20  -3  -1 2386.37 797.353   1
  20   3  -1 178.667 1972.23   4
  21   3   1 113.902 1818.84   4
  21   3   1-1224.21 891.567   1
  21   3  -1-669.744 1612.39   4
  22   3  -1 1391.71 1340.79   4
  23   3  -1 1085.58 1209.82   4
   0  -4   1 150637. 1981.51   4
   0   4   1 148277. 2151.99   4
   0  -4   1 153245. 2128.19   3
   1  -4  -1 4714.77 501.383   3
  -1  -4   1 5593.04 431.827   4
  -1  -4   1 4470.17 442.591   3
   1  -4   1 4792.06 417.288   4
   1  -4   1 4425.17 463.804   3
   1  -4  -1 6144.99 414.966   1
   1   4   1 4729.10 504.429   4
  -2  -4   1 60556.3 1316.40   3
   2  -4   1 61664.8 1338.82   4
   2  -4  -1 61982.1 1291.01   1
   2  -4   1 59393.2 1376.62   3
   2   4   1 60922.2 1449.55   4
  -2  -4   1 62473.8 1299.67   4
   2  -4  -1 57633.4 1389.39   3
   3   4   1 2541.11 510.707   4
   3  -4  -1 2801.24 477.181   3
   3  -4  -1 1367.38 358.695   1
  -3  -4   1 2422.60 376.198   4
   3   4  -1 2861.38 450.828   4
   3  -4   1 3184.75 503.621   3
   4  -4  -1 48094.4 1426.27   1
   4  -4  -1 45640.5 1298.47   3
   4  -4   1 47124.2 1375.32   3
   4   4   1 46176.5 1327.27   4
   4   4  -1 46567.2 1203.94   4
  -4  -4   1 47511.8 1191.41   4
   5  -4  -1 3742.41 561.660   1
   5  -4  -1 4182.64 535.857   3
  -5  -4  -1 4215.26 288.093   1
  -5  -4   1 4563.40 440.127   4
   5  -4   1 4264.72 568.092   3
   5   4   1 4412.27 568.127   4
   5   4  -1 4418.00 475.277   4
   5  -4  -1 4008.59 547.292   2
   6   4  -1 98833.7 1820.82   4
   6  -4  -1 97800.3 2412.56   1
   6  -4   1 102062. 1754.86   1
   6  -4   1 102426. 1793.34   2
  -6  -4  -1 96550.7 1350.53   1
   6  -4   1 99274.8 2178.15   3
  -6  -4   1 98945.1 1837.26   4
   6   4   1 98167.9 2016.94   4
   6  -4  -1 99611.0 2038.77   2
   6  -4  -1 99136.5 1995.08   3
   7   4   1 5688.87 662.517   4
   7  -4   1 5081.29 506.580   1
   7  -4  -1 4593.26 588.513   3
  -7  -4  -1 5463.38 399.446   1
   7   4  -1 5151.57 547.540   4
   7  -4   1 4570.82 644.954   3
   7  -4  -1 5154.51 471.163   2
   7  -4   1 5107.82 427.149   2
   7  -4  -1 5856.55 837.648   1
   8   4  -1 34178.5 1189.32   4
   8  -4  -1 34971.8 1347.04   3
   8  -4  -1 37388.7 1855.74   1
   8  -4   1 34327.2 1151.33   1
   8  -4   1 36019.2 890.411   2
   8  -4  -1 35560.9 961.750   2
   8   4   1 36037.6 1399.37   4
  -8  -4  -1 35434.6 1068.39   1
   9  -4  -1 1067.87 512.723   3
   9  -4   1 750.272 381.508   1
   9   4   1 1950.23 635.783   4
   9   4  -1 1971.53 538.349   4
   9  -4   1 1234.62 243.226   2
   9  -4  -1 1678.62 799.887   1
   9  -4  -1 1204.25 231.734   2
  -9  -4  -1 922.038 336.108   1
  10  -4   1 16462.5 967.367   1
  10  -4  -1 15784.0 1042.80   3
  10  -4   1 17363.9 521.307   2
  10  -4  -1 15359.6 449.119   2
 -10  -4  -1 15164.9 972.805   1
  10   4   1 17027.0 1178.23   4
  10   4  -1 16474.8 967.497   4
  10  -4  -1 15792.6 1471.45   1
  11  -4  -1 2819.80 989.614   1
  11  -4   1 3446.74 594.515   1
  11  -4   1 3179.18 198.389   2
  11   4   1 3668.89 801.392   4
  11   4  -1 3819.51 641.860   4
 -11  -4  -1 3791.16 637.791   1
  12   4   1 35314.3 1869.53   4
  12  -4   1 34573.4 1590.42   1
  12  -4  -1 33371.9 2345.40   1
  12   4  -1 33677.9 1581.50   4
  13  -4   1 1253.22 592.911   1
  13  -4  -1 703.233 916.536   1
  13   4   1 1148.30 846.546   4
  13   4  -1 2300.99 731.194   4
  14   4  -1 8898.14 1124.64   4
  14  -4  -1 8367.88 1335.34   1
  14   4   1 8717.67 1332.74   4
  14  -4   1 11401.2 1184.09   1
  15   4  -1-241.873 843.226   4
  15  -4  -1 252.770 827.429   1
  15   4   1-1264.68 1226.18   4
  15  -4   1 693.948 709.430   1
  16   4  -1 2281.72 1007.24   4
  16  -4   1 4632.14 1049.78   1
  16   4   1 872.746 1276.42   4
  16  -4  -1 4865.77 1160.06   1
  17  -4   1 1031.92 857.594   1
  17  -4  -1 1415.67 871.598   1
  17   4  -1-888.863 1107.36   4
  18  -4   1 7287.20 1388.04   1
  18  -4  -1 8997.84 1264.20   1
  18   4   1 2660.91 1458.09   4
  18   4  -1 3393.89 1331.81   4
  19   4  -1-1399.55 1514.66   4
  19   4   1-3759.84 2082.85   4
  19  -4  -1-349.433 858.699   1
  19  -4   1 112.548 897.069   1
  20   4  -1-1342.06 1591.78   4
  21   4  -1-3420.62 1984.96   4
   0  -5  -1 9550.53 724.700   3
   0  -5   1 10461.4 742.197   3
   0  -5  -1 11340.1 584.517   1
   1  -5   1 10082.4 720.807   3
  -1  -5   1 10124.5 726.833   3
   1  -5  -1 9302.02 718.629   3
   1   5   1 10152.4 739.335   4
  -1  -5  -1 9256.14 714.029   3
   1  -5  -1 9829.03 581.200   1
   2  -5   1 5125.28 600.618   3
   2  -5  -1 4913.01 474.849   1
   2  -5  -1 4432.50 564.774   3
  -2  -5   1 4998.75 559.542   3
   2   5   1 5073.90 612.203   4
   3  -5  -1 286.274 412.906   3
   3  -5   1 835.034 427.039   3
   3  -5  -1 417.211 326.884   1
   3   5   1 746.034 446.722   4
  -3  -5   1 511.010 375.462   3
   4  -5  -1 6250.91 660.548   3
   4  -5   1 5969.14 661.813   3
   4  -5  -1 5843.92 613.840   1
   4   5  -1 6491.78 613.935   4
   4   5   1 6603.12 687.151   4
   5   5   1 8752.84 773.034   4
   5  -5  -1 7771.20 757.438   1
   5   5  -1 8922.51 707.595   4
  -5  -5  -1 8598.81 433.701   1
   5  -5   1 8797.30 781.257   3
   5  -5  -1 8811.55 737.081   3
   6  -5  -1 7389.31 804.205   1
   6   5  -1 8786.15 723.560   4
   6  -5   1 8003.62 786.241   3
   6   5   1 9439.32 822.522   4
   6  -5  -1 8323.00 763.007   2
   6  -5   1 9590.06 666.374   1
   6  -5  -1 8770.94 766.670   3
  -6  -5  -1 8602.90 460.606   1
   7  -5   1 8289.23 636.086   1
   7  -5   1 7904.78 829.869   3
   7  -5   1 9384.89 655.563   2
   7   5   1 8797.62 814.415   4
   7  -5  -1 9205.14 805.570   3
  -7  -5  -1 9438.59 522.823   1
   7  -5  -1 8367.85 693.225   2
   7  -5  -1 9658.12 968.241   1
   7   5  -1 9174.46 747.858   4
   8  -5  -1 6271.09 935.910   1
   8  -5   1 4464.55 547.792   1
   8  -5  -1 4393.82 671.816   3
   8   5  -1 4375.46 621.649   4
   8   5   1 4287.55 712.751   4
   8  -5   1 4903.16 465.769   2
   9  -5  -1 1715.76 742.641   1
   9  -5  -1 684.293 527.561   3
   9  -5   1 832.698 403.662   1
   9  -5   1 1221.12 287.367   2
   9   5  -1 787.743 479.315   4
   9   5   1 1309.16 617.816   4
  10   5  -1 4039.67 658.215   4
  10  -5  -1 4996.17 998.867   1
  10  -5  -1 3810.41 709.412   3
  10  -5   1 4370.83 617.869   1
  10   5   1 6584.16 880.914   4
  11  -5   1 5497.63 713.553   1
  11  -5  -1 5757.07 1130.23   1
  11   5  -1 5632.92 760.648   4
  11   5   1 7049.39 971.189   4
  12  -5  -1 5415.88 1228.17   1
  12   5   1 6659.21 1036.41   4
  12  -5   1 4268.91 728.098   1
  12   5  -1 6288.69 844.328   4
  13  -5  -1 5002.33 1217.03   1
  13   5   1 7208.23 1149.30   4
  13  -5   1 4832.08 767.898   1
  13   5  -1 7552.52 961.108   4
  14   5   1 4646.70 1141.83   4
  14   5  -1 4845.73 929.236   4
  14  -5   1 4155.07 846.681   1
  15   5   1 1693.31 1063.97   4
  15  -5   1 1037.68 693.111   1
  15  -5  -1-144.131 1044.78   1
  15   5  -1 2373.75 876.118   4
  16   5   1 2330.07 1199.38   4
  16  -5   1 2112.18 805.059   1
  16   5  -1 3047.96 992.908   4
  16  -5  -1 571.655 908.111   1
  17   5   1 4091.83 1439.22   4
  17  -5  -1 2728.23 1026.28   1
  17   5  -1 4258.49 1171.98   4
  18   5  -1 3162.82 1200.96   4
  19   5  -1 2836.20 1301.18   4
  20   5  -1 1793.35 1320.10   4
   0  -6  -1 4352.28 660.880   3
   0  -6   1 4906.25 682.762   3
   0  -6  -1 4152.75 446.767   1
   1  -6   1 36507.6 1439.48   3
   1  -6  -1 34964.3 1178.95   1
  -1  -6  -1 35288.5 1396.17   3
  -1  -6   1 37308.2 1451.33   3
  -1  -6  -1 36137.5 1064.56   1
   1  -6  -1 33507.0 1388.80   3
  -2  -6  -1 5782.54 676.269   3
   2  -6   1 6258.50 736.032   3
  -2  -6   1 6034.84 690.948   3
   2  -6  -1 5553.11 567.994   1
   2  -6  -1 5773.62 715.570   3
  -3  -6   1 17075.9 1034.36   3
   3   6   1 18786.9 1129.91   4
   3  -6   1 17808.5 1101.12   3
   3  -6  -1 16967.2 994.458   1
   3  -6  -1 17981.1 1082.77   3
  -4  -6   1 3765.68 603.862   3
   4  -6   1 4319.72 706.003   3
   4  -6  -1 3387.22 579.279   1
   4  -6  -1 4628.74 676.672   3
   4   6   1 5054.65 729.827   4
   5  -6   1 28093.0 1401.21   3
   5  -6  -1 26314.0 1294.19   3
   5  -6   1 29172.6 1190.65   1
   5  -6  -1 27820.5 1425.93   1
   5   6   1 29235.3 1386.04   4
  -5  -6   1 25358.9 1183.09   3
   6  -6   1 3552.10 529.834   1
   6  -6   1 2681.41 659.027   3
   6  -6  -1 1251.41 540.515   1
   6   6   1 3285.28 704.903   4
   6  -6  -1 2874.24 643.042   3
   6   6  -1 3342.41 643.883   4
   7  -6  -1 21836.1 1270.17   3
   7  -6   1 22664.6 1093.51   2
   7  -6  -1 23825.2 1515.11   1
   7  -6   1 22129.3 1340.05   3
   7  -6   1 20718.4 1063.53   1
   7   6   1 22863.6 1320.01   4
   7   6  -1 22150.0 1186.26   4
   8   6   1 2241.91 688.746   4
   8   6  -1 3352.31 661.040   4
   8  -6  -1 2916.88 686.320   3
   8  -6   1 1903.15 619.390   3
   8  -6   1 2437.28 501.508   1
   8  -6  -1 4136.24 873.658   1
   9  -6   1 8505.27 815.620   1
   9  -6  -1 8605.49 940.054   3
   9   6   1 9667.71 998.876   4
   9   6  -1 9817.98 938.093   4
   9  -6  -1 10280.6 1241.29   1
  10   6   1 1288.01 714.428   4
  10   6  -1 1672.02 625.142   4
  10  -6  -1 1958.73 839.858   1
  10  -6  -1 782.569 585.576   3
  10  -6   1 1123.89 497.328   1
  11   6   1 10496.6 1175.55   4
  11  -6  -1 10385.0 1094.74   3
  11  -6   1 10113.0 1003.39   1
  11   6  -1 10018.8 1005.76   4
  11  -6  -1 10617.3 1427.88   1
  12   6   1-233.820 822.262   4
  12   6  -1 202.416 605.946   4
  12  -6  -1 331.963 837.458   1
  12  -6   1-279.417 648.299   1
  13  -6  -1 6403.84 1395.82   1
  13   6   1 7584.27 1195.00   4
  13   6  -1 7869.29 1023.22   4
  13  -6   1 5745.51 878.896   1
  14  -6   1 1981.36 757.064   1
  14   6  -1 91.6025 706.544   4
  14   6   1-485.411 952.744   4
  14  -6  -1-964.645 1116.12   1
  15   6  -1 1361.52 832.462   4
  15  -6  -1 1358.81 957.727   1
  16   6  -1-925.703 965.628   4
  17   6  -1 1450.01 953.531   4
   0  -7   1 1854.05 619.214   3
   0  -7  -1 959.267 571.030   3
  -1  -7  -1 4464.04 715.261   3
   1  -7   1 5189.01 770.034   3
   1  -7  -1 4065.86 729.837   3
  -1  -7   1 5164.79 773.741   3
  -2  -7   1-5.87294 510.557   3
   2  -7  -1 486.838 513.045   3
   2  -7   1 632.932 542.521   3
  -2  -7  -1 514.606 515.702   3
   3  -7   1 3529.85 730.078   3
   3  -7  -1 3290.62 687.904   3
  -3  -7  -1 2675.48 610.725   3
  -3  -7   1 3172.09 664.843   3
   3  -7   1 4225.53 563.649   1
   4  -7  -1 350.038 540.612   3
   4  -7  -1-402.114 565.783   1
  -4  -7  -1 710.927 511.958   3
  -4  -7   1 214.876 504.930   3
   4  -7   1 65.0495 559.870   3
   4  -7   1 1233.29 448.036   1
  -5  -7  -1 4395.11 693.096   3
   5  -7   1 4096.58 774.450   3
  -5  -7   1 4374.98 712.131   3
   5  -7  -1 4428.33 745.989   3
   5  -7   1 4494.99 618.396   1
   5   7   1 4731.32 827.760   4
   5  -7  -1 2340.95 624.759   1
  -6  -7   1 1389.49 548.600   3
   6  -7  -1 1448.52 611.591   3
   6  -7   1 1004.86 604.781   3
   6  -7  -1 923.060 592.006   1
   6  -7   1 1752.09 506.477   1
   6   7   1 1823.99 687.443   4
   7   7   1 4922.15 874.518   4
  -7  -7   1 4188.47 682.019   3
   7  -7   1 4696.02 653.150   1
   7  -7   1 4104.92 823.472   3
   7  -7  -1 5046.69 837.822   3
   7  -7  -1 5945.06 979.362   1
   8   7   1 609.330 682.344   4
  -8  -7   1-51.4477 477.700   3
   8  -7   1 152.803 437.109   1
   8  -7  -1 24.0492 561.516   3
   8  -7   1-812.733 765.027   3
   8  -7  -1 1048.96 694.992   1
   9   7   1 2873.90 822.654   4
   9   7  -1 3052.10 755.029   4
   9  -7  -1 2769.29 895.292   1
   9  -7   1 2191.27 605.000   1
  10  -7  -1 536.915 811.916   1
  10  -7   1-154.461 542.119   1
  10   7  -1 1226.40 697.772   4
  11   7  -1 4103.82 845.509   4
  11  -7  -1 3056.00 1044.57   1
  12   7  -1 1124.03 737.629   4
  12  -7  -1 44.4340 890.362   1
  13   7  -1 3641.89 916.225   4
   0  -8   1 4006.79 815.117   3
  -1  -8   1 5999.76 904.568   3
   1  -8   1 6517.16 634.021   1
  -2  -8   1 3548.38 793.166   3
   2  -8   1 4240.61 573.200   1
  -3  -8   1 5228.13 856.192   3
   3  -8   1 5173.54 619.529   1
   4  -8   1 2384.04 510.916   1
  -4  -8   1 2200.14 686.944   3
  -5  -8   1 4180.18 816.559   3
   5  -8   1 4682.39 658.438   1
   0   0  -2 685635. 4273.94   2
   0   0   2 683278. 4370.78   2
   1   0   2 451.094 316.787   2
  -1   0   2 157.029 78.9176   4
  -1   0   2 299.360 310.569   2
   1   0  -2-1.17876 201.787   2
   1   0   2 67.1973 156.390   4
   1   0  -2 61.0194 101.939   4
  -1   0  -2 123.013 229.990   2
   2   0  -2 188187. 958.394   3
   2   0  -2 196358. 988.638   4
  -2   0   2 189980. 1591.85   1
   2   0   2 191967. 2237.21   2
  -2   0  -2 188543. 2371.36   2
  -2   0   2 191913. 2348.23   2
   2   0  -2 196471. 2135.23   2
   3   0  -2 14363.9 679.322   2
  -3   0   2 13696.2 533.791   1
   3   0  -2 13530.5 398.363   3
   3   0   2 17814.0 837.143   2
  -3   0  -2 17384.5 900.486   2
  -3   0   2 17229.2 906.576   2
   3   0  -2 10874.8 305.969   4
   4   0  -2 181682. 1889.40   1
  -4   0   2 177414. 1979.25   1
  -4   0  -2 176092. 2623.09   2
  -4   0   2 173303. 2426.60   2
   4   0   2 179107. 2273.75   2
  -4   0   2 176730. 1186.56   3
   4   0  -2 174915. 2035.02   2
  -5   0  -2 479.405 348.431   2
  -5   0   2 105.492 216.258   1
  -5   0   2 205.439 355.468   2
   5   0   2 131.793 276.097   2
   5   0  -2-28.5698 187.441   2
  -5   0   2 143.601 137.191   3
   5   0   2 583.437 155.582   1
   5   0  -2 79.2028 245.531   1
   6   0   2 494913. 2881.87   1
   6   0   2 507479. 4123.06   2
   6   0  -2 499824. 4035.95   1
   6   0  -2 493011. 3559.21   2
  -6   0  -2 497928. 5063.61   2
  -6   0   2 498218. 4265.03   1
  -6   0   2 497511. 4593.22   2
  -6   0   2 485211. 3123.47   3
  -7   0   2-106.787 344.470   1
  -7   0   2-213.001 272.848   3
   7   0   2-243.708 264.399   1
   7   0  -2-596.784 466.679   1
  -7   0   2 263.673 432.164   2
  -7   0  -2 340.886 406.688   2
   7   0   2 32.7098 337.116   2
  -8   0   2 119286. 2309.84   3
   8   0  -2 120917. 2592.56   1
  -8   0  -2 124690. 3125.35   2
  -8   0   2 124184. 2721.88   2
   8   0   2 126757. 2033.32   1
  -8   0   2 126502. 2772.06   1
   9   0   2 3715.09 552.421   1
  -9   0   2 3953.09 742.124   3
  -9   0  -2 6631.42 1091.46   2
   9   0  -2 3543.67 754.660   1
  -9   0   2 7190.51 927.091   2
  -9   0   2 3245.95 662.970   1
 -10   0   2 46410.5 2069.27   3
  10   0   2 50730.3 1710.99   1
  10   0  -2 51163.6 2195.42   1
 -10   0   2 54597.3 2227.01   2
 -10   0  -2 56104.2 2633.44   2
  11   0  -2-1272.99 918.900   1
 -11   0   2-37.4814 645.671   2
  11   0   2 1199.66 545.173   1
 -11   0   2-1838.05 950.931   3
 -11   0  -2 130.177 622.114   2
  12   0   2 153194. 3786.09   1
 -12   0   2 150328. 3940.28   2
  13   0  -2-652.269 1026.03   1
 -13   0  -2-4.00193 561.687   2
  13   0   2-287.718 723.610   1
 -13   0   2 39.2092 777.112   2
 -14   0   2 28072.6 1692.13   2
  14   0   2 28608.9 1825.89   1
 -14   0  -2 25348.5 1669.47   2
  14   0  -2 24620.3 1896.53   1
 -15   0   2 70.0264 560.318   2
  15   0   2 613.688 667.269   1
  15   0  -2 348.574 781.349   1
 -15   0  -2 570.816 590.233   2
  16   0  -2 8946.38 1245.22   1
 -16   0   2 7664.45 911.493   2
  16   0   2 9896.09 1097.97   1
 -16   0  -2 7866.26 962.733   2
 -17   0   2-491.517 557.817   2
  17   0   2 763.598 611.081   1
  17   0  -2 327.502 706.159   1
  18   0   2 27909.4 1632.15   1
  18   0  -2 31709.6 1915.04   1
 -18   0   2 30289.4 1465.56   2
  19   0   2-218.250 598.713   1
  19   0  -2 990.327 761.032   1
  20   0   2 5117.19 842.008   1
  20   0  -2 5991.08 981.183   1
  21   0   2-360.926 559.627   1
  21   0  -2 579.095 658.810   1
  22   0   2 1048.09 548.372   1
  23   0   2 54.6062 517.337   1
   0   1   2 192389. 2715.47   2
   0  -1  -2 189776. 2448.72   2
   0   1   2 189025. 1497.98   1
   0   1  -2 190361. 1084.44   3
   0  -1   2 191628. 2329.85   2
   0  -1  -2 193694. 1643.14   4
   0   1  -2 188261. 2427.38   2
   0   1   2 191068. 1505.39   4
  -1  -1  -2 67567.1 1063.32   4
   1   1   2 68517.1 976.045   4
  -1   1  -2 68159.5 1458.29   2
   1   1   2 68444.8 1682.49   2
   1  -1  -2 69315.9 779.917   1
  -1  -1   2 69047.3 1483.37   2
  -1   1   2 69694.5 885.576   4
   1  -1  -2 67546.3 915.423   4
   1   1  -2 67303.3 1465.22   2
  -1   1   2 68369.3 1629.07   2
  -1  -1  -2 67794.3 1555.64   2
   1  -1  -2 71367.4 1413.04   2
  -1   1   2 67314.1 1195.25   1
   1  -1   2 69307.5 1346.67   2
   1   1   2 68278.3 655.500   1
  -2  -1   2 47114.8 1301.54   2
   2   1   2 44866.3 1410.15   2
  -2   1   2 46551.4 1331.93   2
   2  -1  -2 47227.5 750.313   3
   2  -1  -2 46067.5 797.930   1
   2  -1  -2 46692.0 761.551   4
   2  -1  -2 48551.4 1123.53   2
   2   1  -2 46911.7 1243.86   2
   2  -1   2 46655.1 1096.09   2
  -2   1  -2 45804.4 1229.12   2
  -2   1   2 46621.8 1278.63   1
   2   1   2 45260.5 868.905   4
  -2  -1  -2 45798.6 1371.16   2
  -2  -1  -2 47354.4 997.234   4
   3   1   2 12824.8 867.754   2
   3  -1  -2 10652.9 413.525   3
   3   1   2 7148.34 206.812   1
  -3  -1  -2 10466.8 832.932   2
  -3   1   2 11548.6 787.222   2
   3  -1  -2 8561.83 477.609   1
   3  -1  -2 9896.75 513.565   2
   3  -1   2 10023.6 544.811   2
  -3   1  -2 10817.6 658.894   2
   3  -1  -2 9210.65 395.440   4
  -3  -1   2 9728.34 782.902   2
  -3   1   2 9261.74 804.360   1
   3   1   2 10754.8 546.484   4
  -4  -1   2 31615.0 1248.31   2
   4  -1  -2 31765.7 691.840   3
   4   1   2 28911.6 1195.96   2
  -4  -1   2 31326.1 774.212   1
  -4   1   2 29996.1 1112.21   2
  -4   1   2 31217.7 1502.13   1
   4  -1  -2 32709.6 1021.27   1
   4  -1   2 32184.3 888.780   2
   4  -1  -2 31686.8 842.503   2
  -4   1  -2 30378.5 1059.08   2
   4   1   2 30686.1 587.377   1
   4  -1  -2 30828.2 679.484   4
  -4  -1  -2 29049.2 1356.00   2
   4   1   2 30808.1 937.198   4
   5   1   2 68277.7 1240.91   1
   5   1  -2 69228.3 968.074   4
   5  -1  -2 68525.9 1117.37   3
   5   1   2 68763.3 1627.09   4
  -5   1   2 67613.4 1075.85   3
  -5   1   2 65901.8 1631.96   2
  -5  -1  -2 68434.3 2243.91   2
  -5  -1   2 69947.4 1238.53   1
   5  -1   2 67911.5 1240.96   2
   5  -1  -2 71951.2 1810.29   1
   5  -1  -2 66381.6 1161.60   2
  -5   1  -2 67796.3 1617.20   2
  -5  -1   2 68975.3 1996.89   2
  -5   1   2 70391.5 2524.75   1
  -6   1   2 182914. 1940.88   3
  -6  -1   2 182699. 3553.10   2
   6  -1  -2 185028. 2060.57   3
  -6  -1  -2 188254. 4156.94   2
   6  -1   2 183087. 2059.08   2
  -6  -1   2 183367. 2181.43   1
  -6   1   2 194491. 4618.64   1
  -6   1   2 181767. 2821.94   2
   6  -1  -2 193050. 3478.47   1
  -6   1  -2 182560. 2822.63   2
   6  -1  -2 179637. 1898.85   2
   6   1   2 191420. 3083.31   4
   6   1   2 181640. 2659.97   1
  -7  -1   2 40595.2 1869.57   2
   7   1  -2 39801.1 1180.47   1
  -7  -1   2 41381.8 1137.01   1
  -7  -1  -2 43360.8 2262.95   2
  -7   1  -2 39413.6 1421.96   2
  -7   1   2 39003.6 1403.76   2
   7  -1  -2 42961.9 1978.57   1
   7  -1   2 41451.9 941.526   1
   7  -1  -2 38858.3 878.213   2
  -7   1   2 39778.3 1016.05   3
  -7   1   2 39632.8 2338.03   1
   7   1   2 39842.9 1548.27   1
   7  -1   2 39630.3 1004.67   2
   8  -1  -2 25247.7 727.854   2
   8  -1   2 26137.0 853.982   2
   8  -1   2 27175.1 857.787   1
  -8  -1  -2 30364.7 2232.34   2
  -8   1   2 28220.3 2130.76   1
  -8   1   2 26782.9 1259.41   2
  -8  -1   2 27587.9 1027.43   1
   8  -1  -2 29243.1 1928.83   1
  -8   1  -2 27192.6 1285.96   2
  -8   1   2 26375.8 926.851   3
  -8  -1   2 25873.8 1680.89   2
   8   1  -2 27117.4 1079.63   1
   8   1   2 25392.3 1390.67   1
   9  -1  -2 5332.05 1086.97   1
  -9   1   2 6801.88 592.865   3
   9  -1   2 4531.29 468.641   1
  -9  -1   2 5432.79 1062.21   2
   9  -1   2 5348.82 499.172   2
  -9  -1  -2 6960.80 1420.33   2
  -9  -1  -2 6175.11 556.220   1
  -9   1   2 6057.54 771.990   2
  -9   1  -2 6591.20 789.018   2
   9   1  -2 6145.58 700.743   1
   9   1   2 7713.45 946.546   1
  -9   1   2 7986.16 1395.71   1
 -10   1   2 17834.9 1014.03   3
 -10  -1  -2 20819.4 1104.32   1
 -10  -1   2 16739.9 1588.38   2
  10   1  -2 17790.0 1117.21   1
 -10  -1  -2 14824.5 1667.53   2
  10   1   2 19816.3 1208.26   1
 -10   1   2 17452.3 1171.45   2
 -10   1  -2 18286.2 1286.43   2
  10  -1  -2 13228.2 1372.95   1
  10  -1   2 17572.1 902.272   1
 -11  -1   2 22161.8 1824.64   2
  11  -1   2 21679.0 1103.24   1
  11   1   2 25731.5 1334.53   1
 -11   1   2 23053.2 1302.70   3
 -11  -1  -2 28890.8 1541.35   1
  11   1  -2 23045.2 1378.72   1
 -11  -1  -2 19519.6 1823.50   2
 -11   1   2 23674.6 1457.51   2
 -11   1  -2 24559.0 1611.86   2
  11  -1  -2 19343.2 1572.81   1
  12  -1   2 81126.5 2296.22   1
  12   1   2 86503.7 2384.10   1
 -12  -1  -2 70739.3 3297.49   2
 -12   1   2 87636.1 2932.95   2
 -12  -1  -2 96980.4 3162.14   1
 -12   1  -2 90147.5 3273.73   2
  12  -1  -2 76259.1 2997.36   1
 -12  -1   2 78471.5 3330.72   2
  12   1  -2 79573.7 2699.39   1
  13   1  -2 19392.0 1606.27   1
 -13   1   2 20176.5 1485.36   2
 -13   1  -2 19438.6 1498.74   2
  13  -1  -2 19574.7 1552.11   1
 -13  -1   2 19129.9 1604.18   2
  13   1   2 20271.8 1223.77   1
 -13  -1  -2 18654.0 1447.68   1
  13  -1   2 19984.2 1311.84   1
  14   1   2 14375.8 1061.48   1
  14   1  -2 12798.2 1526.45   1
 -14   1   2 11294.8 1017.46   2
 -14  -1   2 12849.5 1277.08   2
 -14   1  -2 11461.6 1107.56   2
  14  -1  -2 12861.8 1263.10   1
  14  -1   2 12417.1 1227.53   1
  15   1   2 1595.94 537.592   1
 -15  -1   2 1413.70 712.260   2
  15  -1  -2 1405.11 715.509   1
  15  -1   2 730.746 711.080   1
 -15   1   2 1075.90 521.781   2
 -15   1  -2 1089.95 555.699   2
  15   1  -2 310.756 1021.47   1
  16  -1   2 3676.65 911.507   1
 -16  -1   2 5605.37 860.021   2
 -16   1   2 4828.44 647.824   2
  16  -1  -2 5687.53 920.301   1
  16   1   2 5185.16 707.817   1
  16   1  -2 2854.95 1072.79   1
  17  -1   2 3741.79 950.898   1
 -17  -1   2 5530.68 854.940   2
  17  -1  -2 5514.24 931.534   1
  17   1   2 5690.58 750.465   1
  17   1  -2 3939.75 1128.70   1
  18  -1   2 18447.9 1742.62   1
 -18  -1   2 20071.7 1329.80   2
  18  -1  -2 19944.5 1460.63   1
  18   1   2 21129.2 1252.69   1
  18   1  -2 18252.0 1827.32   1
 -19  -1   2 3136.65 637.081   2
  19  -1   2 5162.15 1021.78   1
  19   1   2 5221.86 737.780   1
  19   1  -2 4026.56 1021.19   1
  19  -1  -2 4837.65 897.744   1
  20   1  -2 3246.22 970.183   1
  20  -1   2 4491.92 933.230   1
  20   1   2 3955.87 694.737   1
  20  -1  -2 3733.57 822.070   1
  21  -1  -2 541.616 581.898   1
  21  -1   2-894.936 798.047   1
  21   1  -2 349.459 663.516   1
  21   1   2 461.087 495.715   1
  22   1   2 1192.24 546.073   1
  22  -1   2 175.377 687.203   1
  23   1   2 952.261 534.616   1
  24   1   2 3179.86 667.572   1
   0   2   2 117513. 1515.32   4
   0  -2   2 125963. 2189.40   2
   0  -2   2 114599. 1083.64   4
   0  -2   2 118508. 1398.72   3
   0  -2  -2 118990. 2392.28   2
   0  -2  -2 110769. 988.051   1
   0  -2  -2 121813. 1575.69   4
  -1  -2   2 276893. 3496.16   2
   1  -2  -2 282672. 2338.51   4
  -1   2  -2 285124. 1887.95   3
  -1  -2   2 285577. 1814.94   3
  -1   2   2 277088. 1977.23   1
  -1  -2   2 284027. 1559.64   4
  -1  -2  -2 284582. 2437.69   4
   1  -2  -2 277978. 3282.05   2
   1  -2  -2 276712. 2362.24   1
  -1  -2  -2 270061. 3849.28   2
   1  -2   2 284378. 3046.34   2
   1   2   2 286063. 2349.93   4
  -1   2   2 280457. 2238.73   4
   2  -2  -2 39695.5 870.706   3
  -2   2   2 40173.6 1088.51   1
  -2  -2  -2 40683.9 968.810   4
  -2  -2  -2 41342.1 1689.36   2
  -2  -2   2 41491.6 643.528   3
   2  -2  -2 41735.7 926.184   4
   2  -2  -2 40572.3 1323.17   1
   2  -2   2 40362.4 1117.68   2
   2  -2  -2 39435.0 1173.28   2
   2   2   2 40117.9 943.006   4
  -2  -2   2 39844.7 588.957   4
  -2   2  -2 41507.1 823.939   3
  -2   2   2 40728.0 878.779   4
  -2  -2   2 40135.7 1473.60   2
  -3  -2   2 85207.0 920.484   4
  -3   2   2 85420.0 2097.66   1
   3  -2  -2 84495.5 1315.89   3
  -3   2  -2 86264.0 1371.09   3
   3  -2  -2 87576.6 1361.05   4
  -3   2   2 86719.6 2646.35   2
  -3  -2  -2 83139.3 2709.85   2
   3  -2  -2 87106.3 1644.90   2
  -3  -2  -2 87629.8 1530.45   4
   3  -2   2 83800.9 1519.74   2
   3   2   2 85783.9 1474.80   4
  -3  -2   2 82541.7 2335.52   2
   4  -2  -2 36571.7 2043.85   1
  -4   2   2 31864.7 1623.37   1
   4   2  -2 33886.1 588.062   4
  -4   2  -2 31970.2 968.669   3
  -4   2   2 28955.7 1577.75   2
  -4  -2  -2 30220.5 1823.49   2
   4  -2  -2 31834.2 929.585   2
   4  -2   2 32044.9 898.117   2
   4  -2  -2 31818.2 859.750   4
  -4  -2  -2 32638.8 1029.90   4
   4   2   2 30317.1 943.871   4
   4  -2  -2 31972.4 856.586   3
  -4  -2   2 31239.7 1564.83   2
   5  -2  -2 169460. 4285.20   1
   5  -2  -2 183674. 2050.14   3
  -5   2  -2 185901. 2635.88   3
  -5  -2   2 180398. 1984.13   1
  -5   2   2 173930. 3731.06   2
  -5  -2  -2 180930. 4819.54   2
   5  -2  -2 187125. 2124.61   2
   5  -2   2 183227. 2081.04   2
   5   2   2 179300. 2408.01   4
   5   2  -2 181167. 1439.88   4
   5  -2  -2 183241. 2065.78   4
  -5   2  -2 176527. 3127.09   2
   6   2   2 79973.8 1823.86   4
  -6   2   2 71835.3 3012.20   1
   6   2  -2 75869.7 1094.86   4
  -6   2  -2 78036.0 2169.32   2
   6  -2  -2 79406.2 1501.44   3
  -6   2  -2 80655.7 2045.97   3
  -6   2   2 89037.4 2848.14   2
  -6  -2   2 73566.1 1368.74   1
   6   2   2 76085.5 925.650   1
  -6  -2  -2 71315.3 862.544   1
   6  -2  -2 73949.3 1262.30   2
   6  -2   2 76583.1 1328.26   2
   6  -2  -2 66363.6 2871.72   1
  -6   2   2 76325.1 1436.55   3
   6  -2  -2 77648.7 1451.29   4
  -7   2   2 156423. 4397.92   1
  -7   2   2 185640. 2345.26   3
  -7   2  -2 183132. 3509.64   3
  -7  -2  -2 186671. 1918.18   1
  -7  -2  -2 210049. 6693.21   2
  -7   2   2 183368. 4037.79   2
  -7  -2   2 183374. 2273.26   1
   7   2   2 182888. 2925.11   4
   7   2   2 191058. 2015.84   1
   7  -2  -2 158448. 4124.36   1
   7  -2   2 185146. 2046.01   1
   7  -2   2 188206. 2031.79   2
   7  -2  -2 183476. 2358.85   3
   7  -2  -2 186035. 1888.29   2
  -7   2  -2 179273. 3317.02   2
   7   2  -2 177128. 1850.38   4
   8  -2  -2 19239.8 1550.18   1
  -8   2  -2 17518.3 1304.08   3
  -8   2   2 18700.0 1621.81   1
  -8   2   2 20966.7 1558.96   2
   8   2   2 18472.0 1141.24   4
   8  -2  -2 18866.4 856.302   3
  -8  -2  -2 17036.5 2065.85   2
   8  -2   2 19578.5 757.682   1
   8  -2   2 18426.9 646.267   2
   8   2   2 20654.7 903.166   1
   8  -2  -2 18971.5 591.983   2
  -8   2   2 19303.7 842.902   3
   8   2  -2 17634.9 713.166   4
  -8   2  -2 18756.2 1197.33   2
  -8  -2  -2 21334.6 907.063   1
   9  -2   2 27193.7 947.560   1
  -9   2   2 32818.6 1880.40   2
   9  -2   2 27759.2 804.847   2
   9   2   2 28989.4 1285.49   1
  -9   2  -2 30005.7 1576.48   2
  -9   2   2 29666.4 1135.48   3
   9  -2  -2 27204.1 694.059   2
  -9  -2  -2 32877.4 1446.41   1
   9   2   2 28493.6 1533.71   4
   9  -2  -2 32101.4 1945.78   1
   9   2  -2 28345.7 1082.43   4
  10   2  -2 7549.33 743.809   4
  10  -2  -2 9099.23 414.767   2
  10  -2   2 9169.81 642.584   1
 -10  -2  -2 9611.64 930.360   1
 -10   2   2 8740.34 966.964   2
  10  -2   2 8986.48 494.044   2
  10   2   2 9019.65 928.913   1
  10  -2  -2 9913.04 1205.98   1
  10   2   2 7434.24 1029.02   4
 -10   2  -2 9755.34 1027.42   2
  11  -2   2 67278.2 1782.79   1
 -11   2  -2 70321.0 2454.97   2
 -11  -2  -2 59108.3 2112.31   1
  11  -2   2 65186.1 1286.17   2
 -11   2   2 52754.3 1874.59   2
  11   2   2 67693.6 2536.57   1
  11  -2  -2 68695.5 2602.82   1
  11   2  -2 58546.7 2085.38   4
  11   2   2 61976.4 2642.30   4
  12  -2   2 23433.1 1225.38   1
 -12   2   2 21551.7 1131.36   2
  12   2   2 25013.0 1727.19   1
  12  -2  -2 27934.2 1736.34   1
  12   2  -2 22738.7 1601.64   4
  12   2   2 19164.5 1881.58   4
 -12  -2  -2 21180.5 1357.66   1
 -12   2  -2 24205.5 1344.19   2
  13   2  -2 35953.6 2216.42   4
 -13  -2  -2 48548.0 2044.39   1
  13  -2   2 47295.0 1810.09   1
 -13   2  -2 44242.5 1554.81   2
 -13   2   2 41145.6 1320.99   2
  13   2   2 46275.6 2125.31   1
  13  -2  -2 51025.3 2201.43   1
  13   2   2 31444.5 2469.90   4
  14  -2   2 6549.16 910.211   1
 -14  -2  -2 6199.62 862.250   1
  14   2  -2 5671.29 983.222   1
 -14   2   2 4459.74 431.788   2
  14   2   2 851.927 1523.06   4
  14  -2  -2 5796.07 922.981   1
  14   2  -2 833.382 1218.02   4
 -14   2  -2 4520.29 530.356   2
  14   2   2 4336.53 790.080   1
  15  -2   2 6763.83 981.523   1
  15   2  -2 6161.44 1126.79   1
  15   2   2 6008.01 858.526   1
  15   2   2 1483.33 1561.58   4
  15  -2  -2 6594.37 961.371   1
  15   2  -2 2579.53 1274.56   4
 -16  -2   2 2112.28 700.852   2
  16  -2  -2 2246.13 729.897   1
  16  -2   2 2366.73 817.122   1
  16   2   2-89.5697 1725.48   4
  16   2  -2 1560.18 954.073   1
  16   2   2 1203.66 545.579   1
  16   2  -2-1542.72 1735.80   4
  17   2  -2 13433.6 1702.85   1
  17  -2   2 12443.6 1485.17   1
  17   2   2 12854.8 1097.33   1
  17   2   2 7841.02 2083.95   4
  17  -2  -2 14453.9 1245.96   1
 -17  -2   2 11080.4 1058.75   2
  17   2  -2 7944.54 2000.51   4
  18   2  -2 3820.57 1680.15   4
  18   2   2 4687.84 766.784   1
  18   2  -2 2657.86 1178.53   1
  18  -2  -2 5227.69 886.526   1
 -18  -2   2 4391.07 775.838   2
  18   2   2 2880.11 1906.91   4
  18  -2   2 3952.35 1047.79   1
 -19  -2   2 8964.25 939.304   2
  19   2   2 9676.39 977.636   1
  19  -2   2 7570.46 1304.13   1
  19   2  -2 5285.48 1295.41   1
  19  -2  -2 9969.49 1079.39   1
  19   2   2 8889.00 2312.99   4
  19   2  -2 7976.26 1679.14   4
  20   2  -2 1788.79 1163.27   4
 -20  -2   2 1364.13 575.545   2
  20   2   2 1994.07 613.512   1
  20   2  -2-948.178 1199.29   1
  20  -2   2 146.210 837.772   1
  20   2   2 2885.02 1658.40   4
  20  -2  -2 1688.68 690.777   1
  21  -2  -2 978.848 607.671   1
  21   2   2 1661.77 599.406   1
  21   2  -2-579.313 1030.39   1
  21  -2   2 967.878 801.037   1
  21   2  -2 3117.27 1210.86   4
  21   2   2 4117.46 1639.36   4
  22   2  -2 3107.05 1177.94   4
  22   2   2 489.532 505.866   1
  23   2  -2 3808.15 1145.88   4
   0  -3  -2 4136.80 962.838   1
   0  -3   2 6400.01 464.671   3
   0  -3  -2 9027.89 942.118   2
   0  -3  -2 8623.79 560.049   4
   0  -3   2 6630.82 377.391   4
   0   3   2 6786.21 522.931   4
   0  -3   2 7254.68 764.802   2
  -1  -3   2 88046.4 1311.02   3
   1  -3   2 88403.6 1489.79   3
   1   3   2 88031.5 1536.99   4
  -1  -3  -2 86776.1 2749.48   2
   1  -3  -2 89798.6 2317.10   2
  -1  -3   2 91180.4 2414.31   2
   1  -3   2 92381.5 2105.23   2
  -1  -3  -2 87770.1 1565.67   4
   1  -3  -2 90969.6 1574.36   4
  -1  -3   2 88046.7 1173.81   4
   1  -3   2 86891.9 1256.05   4
  -1   3   2 86592.4 1489.86   4
   2  -3  -2 3948.00 419.060   3
   2  -3  -2 3618.61 1048.98   1
  -2  -3  -2 4016.02 400.021   4
   2  -3   2 3958.89 427.300   3
  -2   3  -2 4422.77 344.504   3
   2  -3  -2 4209.82 556.822   2
  -2  -3  -2 3769.69 785.456   2
  -2  -3   2 3820.00 323.354   3
  -2  -3   2 4118.62 291.968   4
   2   3   2 4128.51 442.034   4
   2  -3  -2 4269.92 405.082   4
   2  -3   2 4003.12 525.095   2
  -3  -3   2 9028.16 410.950   4
   3  -3   2 9004.20 642.063   2
  -3  -3   2 8826.75 438.772   3
  -3   3  -2 9779.88 520.222   3
   3  -3  -2 8788.99 557.319   3
   3  -3   2 8538.64 629.575   3
  -3  -3  -2 9240.76 1268.53   2
   3  -3  -2 8969.41 681.806   2
  -3  -3  -2 9144.57 570.316   4
   3   3   2 8984.32 618.388   4
   3  -3  -2 9540.95 571.070   4
  -4   3  -2 2914.31 354.756   3
   4  -3  -2 2798.09 397.922   3
   4  -3   2 2576.81 384.046   2
   4  -3  -2 2401.59 396.715   2
  -4   3   2 3588.25 332.295   1
  -4  -3   2 2325.61 262.786   4
   4  -3  -2 3353.94 1135.22   1
   4   3  -2 2544.50 284.551   4
   4   3   2 2725.35 453.722   4
   4  -3  -2 2737.39 353.809   4
  -5   3  -2 80182.5 1647.49   3
   5  -3  -2 74679.0 1525.51   3
  -5   3   2 76538.5 1565.54   1
   5  -3  -2 77849.7 1599.83   2
   5  -3   2 77561.0 1499.83   2
   5   3   2 73624.1 1654.21   4
   5   3  -2 79000.9 1234.79   4
  -5  -3   2 76281.6 1294.35   4
   6   3   2 6671.20 689.094   4
  -6  -3  -2 4401.01 421.869   1
  -6   3  -2 7751.47 623.801   3
  -6   3   2 5265.71 535.812   1
   6  -3  -2 6640.36 513.220   2
   6  -3   2 5741.88 476.621   2
   6   3  -2 6266.66 437.673   4
   6  -3  -2 6269.25 583.725   3
  -7  -3  -2 57942.4 1478.19   1
  -7   3   2 72078.2 2085.32   1
   7  -3  -2 68710.6 1611.05   3
   7  -3  -2 68405.3 1315.29   2
   7  -3  -2 77691.6 3092.45   1
   7  -3   2 68522.7 1306.46   2
   7   3  -2 66682.5 1236.66   4
   7   3   2 65203.4 1767.28   4
  -8  -3  -2-73.4851 352.207   1
   8   3   2 358.230 482.297   4
   8  -3  -2 607.490 206.393   2
   8  -3   2 621.310 247.656   2
   8   3  -2 593.467 292.537   4
   8  -3  -2 234.482 380.365   3
   8  -3  -2 882.064 787.773   1
  -8   3   2 702.527 490.205   1
   8  -3   2 983.992 337.035   1
  -9  -3  -2 6998.20 682.116   1
   9  -3  -2 8109.67 719.852   3
   9  -3   2 7830.96 571.798   1
   9  -3   2 8266.77 480.779   2
   9  -3  -2 8262.34 431.756   2
   9   3   2 7782.00 881.881   4
   9   3  -2 8393.29 599.588   4
 -10  -3  -2 311.221 382.793   1
  10  -3  -2 385.154 159.699   2
  10   3  -2 555.661 364.945   4
  10  -3  -2 710.177 709.804   1
  10  -3   2 375.709 323.556   1
  10   3   2-355.604 719.597   4
  10  -3   2 527.010 220.504   2
  11  -3   2 33896.4 1257.92   1
  11   3   2 34840.7 1840.66   4
 -11  -3  -2 38809.4 1598.19   1
  11  -3   2 35600.3 857.469   2
  11  -3  -2 33858.6 692.855   2
  11  -3  -2 38303.8 2037.87   1
  11   3  -2 32603.2 1259.89   4
 -12  -3  -2 2557.27 585.487   1
  12   3   2 3239.38 543.878   1
  12  -3   2 1682.97 273.368   2
  12  -3  -2 3047.76 862.963   1
  12  -3   2 1227.65 481.553   1
  12   3   2-42.3847 983.274   4
  12   3  -2 1646.43 550.986   4
  13   3  -2 30399.7 1559.36   4
  13  -3  -2 36957.2 1994.79   1
 -13  -3  -2 36999.2 1633.39   1
  13   3   2 36176.4 1498.03   1
  13  -3   2 33511.5 1505.74   1
  13   3   2 32149.7 2140.25   4
  14  -3   2-1000.63 689.797   1
  14  -3  -2-55.8075 630.477   1
  14   3   2 640.310 530.758   1
  14   3   2 1446.63 1094.06   4
  14   3  -2-637.497 837.281   4
  15  -3   2 5076.32 864.135   1
  15  -3  -2 4302.76 873.241   1
  15   3   2 4300.59 833.750   1
  15   3   2 5201.23 1464.34   4
  15   3  -2 1182.84 800.511   4
  16  -3   2 634.452 666.294   1
  16  -3  -2 483.894 633.789   1
  16   3   2-471.153 672.025   1
  16   3   2 538.295 1218.81   4
  16   3  -2 389.909 862.375   4
  17   3   2 6976.63 1162.57   1
  17  -3  -2 10791.5 1152.34   1
  17   3  -2 8235.46 1491.06   4
  17  -3   2 10600.7 1296.80   1
  17   3   2 6541.37 1770.24   4
  18  -3   2-6.93468 770.102   1
  18  -3  -2 351.354 635.750   1
  18   3   2-426.736 935.160   1
  18   3   2-592.444 1553.10   4
  18   3  -2 72.6376 1055.15   4
  19  -3   2 8128.85 1454.99   1
  19  -3  -2 9682.72 1115.64   1
  19   3   2 4423.90 1793.09   4
  19   3  -2 4990.15 1545.17   4
 -20  -3   2 372.113 542.736   2
  20  -3  -2 507.037 613.480   1
  20  -3   2-2498.79 1122.76   1
  20   3   2-1732.00 1978.47   4
  20   3  -2-2091.60 1801.69   4
 -21  -3   2 1061.68 557.438   2
  21   3  -2-1047.94 1547.14   4
   0  -4  -2 62418.2 1982.65   1
   0  -4   2 57643.6 1338.35   3
   0  -4   2 59332.8 1230.06   4
   0   4   2 57561.8 1426.86   4
  -1  -4  -2 90871.5 2002.05   1
   1  -4  -2 82435.1 1700.72   3
   1  -4   2 86333.9 1680.73   3
  -1  -4   2 84710.5 1566.87   3
   1   4   2 85479.9 1748.19   4
   1  -4   2 88543.6 2403.51   2
  -1  -4   2 83207.6 1404.03   4
   1  -4   2 85371.1 1476.35   4
   1  -4  -2 90947.6 2664.47   1
  -1   4   2 85194.0 1700.58   4
  -2  -4  -2 12813.7 644.841   1
   2  -4  -2 13248.8 758.218   3
  -2  -4   2 13084.5 658.872   3
   2  -4  -2 14684.1 1092.72   2
   2  -4   2 13590.6 768.865   3
  -2  -4   2 13097.7 594.963   4
   2  -4   2 13343.1 942.530   2
   2   4   2 13622.9 785.907   4
   2  -4   2 14054.9 658.776   4
   2  -4  -2 16395.0 1356.71   1
   3  -4  -2 41232.3 1242.72   3
  -3  -4  -2 37921.0 850.554   1
   3  -4   2 39858.2 1310.73   3
  -3  -4  -2 37844.0 536.951   1
   3  -4  -2 40653.3 1637.54   2
  -3  -4   2 40318.9 1009.33   4
   3  -4   2 40732.8 1476.53   2
  -3  -4   2 40939.6 1076.81   3
   3  -4  -2 44184.1 2329.66   1
   3  -4   2 42227.9 1158.97   4
   3   4   2 39383.8 1278.73   4
   4   4   2 13190.4 824.606   4
  -4  -4   2 13499.2 655.726   3
   4  -4  -2 13611.6 790.689   3
   4  -4   2 13056.2 856.289   3
  -4  -4  -2 13008.7 394.250   1
  -4  -4   2 12507.0 605.262   4
   4  -4  -2 12928.9 883.773   2
  -4  -4  -2 13390.7 365.945   1
   4  -4   2 13348.6 837.901   2
   4  -4  -2 13843.8 1538.36   1
   5  -4  -2 67521.3 1640.08   3
   5  -4  -2 67904.8 1784.29   2
  -5  -4  -2 65580.9 1082.47   1
  -5  -4   2 65622.1 1356.73   4
   5  -4   2 69002.2 1639.31   2
   5   4   2 65154.8 1687.20   4
   5  -4  -2 67175.9 3184.50   1
   5   4  -2 69307.1 1417.43   4
   6  -4  -2 36749.3 1255.17   3
   6  -4  -2 34458.7 1206.73   2
  -6  -4  -2 32514.2 1079.93   1
  -6  -4   2 34096.9 1072.78   4
   6  -4   2 35132.0 1129.20   2
   6   4   2 35549.8 1329.73   4
   6   4  -2 34562.5 1050.78   4
   6  -4  -2 33596.3 2414.49   1
   7  -4  -2 51207.3 1524.68   3
   7  -4  -2 51673.6 1338.34   2
   7  -4   2 51852.3 1268.84   2
   7   4   2 50008.2 1625.91   4
  -7  -4  -2 57241.4 1806.54   1
   7   4  -2 51317.8 1288.84   4
   7  -4  -2 50269.7 2915.37   1
   8  -4  -2 9037.11 764.644   3
   8  -4   2 10640.4 675.958   1
   8  -4  -2 9299.67 556.137   2
   8  -4   2 9311.73 557.413   2
   8   4   2 9478.57 890.839   4
   8   4  -2 8471.12 603.883   4
   8  -4  -2 9949.85 1495.11   1
  -8  -4  -2 10940.4 834.598   1
   9  -4  -2 15613.8 998.447   3
   9  -4   2 15477.8 814.643   1
   9  -4  -2 16660.8 670.885   2
   9  -4   2 17241.1 710.465   2
   9   4   2 17284.9 1181.40   4
   9  -4  -2 20791.0 2008.14   1
  -9  -4  -2 19207.6 1026.46   1
   9   4  -2 15961.7 832.039   4
  10   4   2 5943.31 873.774   4
  10  -4  -2 4980.10 701.508   3
  10  -4   2 5779.55 423.610   2
  10  -4  -2 5204.99 1106.81   1
  10  -4   2 4967.11 561.730   1
  10   4  -2 5134.76 551.365   4
  11  -4   2 22659.7 1089.99   1
  11  -4   2 25538.1 756.615   2
  11   4   2 23842.2 1553.99   4
  11   4  -2 24369.6 1113.49   4
  11  -4  -2 26071.9 1961.32   1
  12  -4   2 10725.4 862.695   1
  12   4   2 11887.0 1319.63   4
  12   4  -2 11929.2 878.803   4
  13  -4   2 16169.9 1107.70   1
  13  -4  -2 17334.6 1553.17   1
  13   4   2 17016.8 1582.25   4
  13   4  -2 17602.6 1139.54   4
  14   4  -2 2889.67 706.586   4
  14  -4   2 1070.69 561.425   1
  14  -4  -2 2387.14 817.321   1
  14   4   2 1037.08 1014.85   4
  15   4  -2 4071.44 854.195   4
  15  -4  -2 3988.23 920.245   1
  15  -4   2 2188.44 637.679   1
  15   4   2 2665.27 1183.82   4
  16   4  -2 670.956 686.494   4
  16  -4  -2 414.416 686.499   1
  16  -4   2 1778.52 717.588   1
  16   4   2-1117.65 1457.25   4
  17   4  -2 5384.83 1125.98   4
  17  -4   2 5953.98 1047.39   1
  17  -4  -2 6344.30 1044.29   1
  18  -4  -2 2549.85 771.436   1
  18  -4   2 3246.10 978.042   1
  18   4  -2 1492.24 972.674   4
  19   4  -2 3183.72 1189.79   4
  19  -4  -2 5432.77 974.841   1
   0  -5  -2 27926.0 1304.98   1
   0  -5  -2 28311.5 1173.87   3
   0  -5   2 27581.5 1084.15   3
   1  -5  -2 2703.66 635.987   1
   1   5   2 1668.13 501.276   4
   1  -5  -2 1670.19 492.233   3
  -1  -5   2 1793.31 422.994   3
  -1  -5  -2 314.464 447.151   1
   1  -5   2 1353.09 456.122   3
   2  -5  -2 9779.39 757.105   3
  -2  -5  -2 9269.72 623.269   1
  -2  -5   2 9979.09 712.290   3
   2  -5   2 10014.1 769.598   3
   2  -5   2 9618.42 963.300   2
   2   5   2 9968.85 786.144   4
   2  -5  -2 10529.1 1063.22   1
   3   5   2 608.444 494.463   4
  -3  -5   2 589.767 388.529   3
   3  -5  -2 379.137 419.970   3
   3  -5  -2 1200.39 644.952   1
   3  -5   2 651.722 446.187   3
  -3  -5  -2 286.381 219.459   1
   3  -5   2 359.593 479.839   2
  -4  -5   2 8699.14 658.056   3
   4  -5  -2 7799.03 724.006   3
   4  -5   2 7689.16 763.828   3
  -4  -5  -2 8572.72 448.805   1
   4   5   2 8005.66 769.659   4
   4  -5   2 7910.79 766.667   2
   4  -5  -2 8036.56 1116.53   1
   5   5   2 1224.08 517.237   4
   5  -5  -2 671.236 755.199   1
   5  -5   2 981.064 425.256   2
  -5  -5   2 989.524 378.673   3
   5  -5  -2 1139.48 476.466   3
   5  -5   2 593.459 486.908   3
  -5  -5  -2 1706.44 219.097   1
   6   5  -2 25015.0 1051.06   4
   6  -5  -2 23885.4 1140.13   3
   6  -5   2 24127.8 1080.28   2
   6  -5  -2 24834.3 2071.79   1
   6   5   2 23942.3 1233.60   4
   7   5  -2 2741.85 501.615   4
   7   5   2 2218.19 648.369   4
   7  -5  -2 2719.57 569.570   3
   7  -5   2 3532.68 513.897   1
   7  -5   2 2579.26 451.156   2
   7  -5  -2 2076.08 924.033   1
   8  -5  -2 7295.03 787.014   3
   8  -5   2 8057.54 672.434   1
   8  -5   2 7315.54 578.389   2
   8   5   2 6000.69 806.422   4
   8  -5  -2 5258.07 1204.69   1
   8   5  -2 7113.77 662.824   4
   9   5   2 1357.88 636.971   4
   9   5  -2 997.838 465.888   4
   9  -5  -2 854.413 522.874   3
   9  -5   2 878.677 309.334   2
   9  -5   2 1468.87 434.315   1
   9  -5  -2 8.50843 990.245   1
  10  -5  -2 5196.44 775.431   3
  10  -5   2 5275.85 621.718   1
  10  -5  -2 5334.87 1291.83   1
  10   5  -2 5313.12 631.675   4
  10   5   2 7280.74 960.895   4
  11   5   2 3274.53 881.457   4
  11   5  -2 1434.60 512.237   4
  11  -5  -2 687.932 581.029   3
  11  -5   2 1361.99 489.254   1
  11  -5  -2 1598.22 1021.60   1
  12  -5   2 9848.76 881.350   1
  12   5   2 13613.4 1368.84   4
  12  -5  -2 12778.3 1553.59   1
  12   5  -2 10807.5 904.763   4
  13   5   2 3284.10 1003.74   4
  13   5  -2 1570.42 581.327   4
  13  -5   2 1371.43 544.833   1
  13  -5  -2 3174.38 995.271   1
  14   5   2 6083.79 1301.87   4
  14   5  -2 2731.13 700.867   4
  14  -5   2 2042.81 636.731   1
  14  -5  -2 4542.94 1076.89   1
  15   5   2 1993.24 1109.11   4
  15   5  -2 2162.63 737.751   4
  15  -5  -2 215.800 731.735   1
  15  -5   2-523.805 673.789   1
  16   5   2 3458.36 1378.83   4
  16   5  -2 4092.40 887.386   4
  16  -5  -2 1391.73 789.005   1
  17  -5  -2 3.17329 778.636   1
   0  -6   2 33028.1 1373.73   3
   0  -6  -2 33713.1 1434.38   3
  -1  -6  -2 222.450 467.639   3
   1  -6  -2 946.568 513.150   3
  -1  -6   2 683.393 449.211   3
   1  -6   2 289.637 458.378   3
   2  -6  -2 21058.5 1516.64   1
  -2  -6  -2 19569.0 1124.89   3
  -2  -6   2 20858.8 1114.08   3
   2  -6   2 19809.9 1166.89   3
   2  -6  -2 20675.0 1172.20   3
   2  -6   2 20466.3 1429.32   2
   2   6   2 20700.6 1184.50   4
   3   6   2 1518.50 599.647   4
  -3  -6   2 956.910 513.870   3
   3  -6  -2 1068.94 544.597   3
   3  -6   2 403.007 540.879   2
   3  -6   2 737.515 516.090   3
   3  -6  -2 1561.59 729.883   1
  -4  -6   2 18172.1 1064.52   3
   4  -6  -2 18554.1 1131.36   3
   4  -6   2 16913.9 1156.29   3
   4  -6   2 17544.1 1164.99   2
   4   6   2 18083.3 1154.41   4
   4  -6  -2 17997.8 1631.85   1
   5   6   2 454.049 544.688   4
   5  -6  -2 49.8896 680.906   1
   5  -6   2 110.324 440.662   2
   5  -6  -2 794.520 523.603   3
   5  -6   2-461.194 586.731   3
  -5  -6   2 476.461 440.495   3
  -6  -6   2 24466.4 1219.88   3
   6  -6   2 24554.9 1220.47   2
   6  -6  -2 23839.7 1288.90   3
   6   6   2 24963.3 1387.95   4
   6  -6  -2 23205.5 2067.05   1
   7   6   2 82.0564 599.031   4
   7  -6   2 249.306 385.453   2
   7  -6  -2 274.306 496.977   3
   7  -6   2 1034.95 478.346   1
  -7  -6   2 256.589 446.210   3
   7  -6  -2-464.998 937.605   1
  -8  -6   2 10992.8 880.593   3
   8  -6  -2 11773.7 1029.22   3
   8  -6   2 12116.2 889.844   1
   8   6   2 11254.1 1075.01   4
   8  -6  -2 11386.1 1615.19   1
   8   6  -2 11912.1 912.923   4
   9  -6   2 622.085 444.321   1
   9   6   2 608.129 692.518   4
   9   6  -2 812.603 521.277   4
   9  -6  -2 758.589 578.996   3
   9  -6  -2-619.443 1060.95   1
  10  -6  -2 6607.72 882.607   3
  10  -6   2 7565.37 789.967   1
  10   6   2 7612.11 1047.71   4
  10  -6  -2 7540.92 1443.05   1
  10   6  -2 7519.27 810.472   4
  11   6   2-794.406 818.071   4
  11   6  -2 282.266 510.832   4
  11  -6  -2-985.333 711.425   3
  11  -6   2-42.9596 444.891   1
  11  -6  -2-914.295 1086.77   1
  12  -6   2 9122.97 937.417   1
  12   6   2 9771.33 1308.52   4
  12   6  -2 10516.4 989.377   4
  12  -6  -2 10725.9 1548.97   1
  13   6  -2 371.445 599.365   4
  13  -6  -2 307.988 817.159   1
  14  -6  -2 5201.00 1182.46   1
  15  -6  -2 1128.58 819.066   1
   0  -7  -2 3042.68 664.666   3
   0  -7   2 3314.82 696.658   3
  -1  -7  -2 2098.94 620.067   3
   1  -7  -2 2263.06 639.830   3
  -1  -7   2 2234.62 626.283   3
   1  -7   2 2093.36 662.533   3
   1  -7   2 1295.21 781.264   2
  -2  -7  -2 1596.84 585.892   3
   2  -7  -2 1601.72 631.545   3
  -2  -7   2 1826.65 600.496   3
   2  -7   2 604.230 638.313   2
   2  -7   2 1296.20 605.927   3
  -3  -7  -2 721.757 517.699   3
   3  -7  -2 1459.41 644.204   3
  -3  -7   2 1212.89 575.901   3
   3  -7   2 385.308 588.755   2
   3  -7   2 151.690 555.029   3
   4   7   2 2084.65 707.302   4
   4  -7   2 1530.31 610.536   2
  -4  -7   2 2065.80 634.850   3
   4  -7  -2 1824.26 597.574   3
   4  -7   2 1202.60 627.196   3
  -4  -7  -2 1676.87 613.434   3
   5   7   2 2497.64 753.128   4
   5  -7   2 1386.90 560.466   2
  -5  -7   2 1583.73 602.119   3
   5  -7  -2 2120.18 638.619   3
   5  -7   2 977.701 638.663   3
   5  -7   2 3225.26 629.563   1
   6   7   2 2886.53 767.266   4
  -6  -7   2 2880.59 684.073   3
   6  -7  -2 2515.03 703.732   3
   6  -7   2 4059.59 674.305   1
  -7  -7   2 1656.63 609.807   3
   7  -7   2 2464.99 615.623   1
   8  -7   2 2369.20 598.623   1
   0  -8   2 2879.23 807.344   3
   1  -8   2 2334.63 958.196   2
  -1  -8   2 3418.84 815.299   3
   1  -8   2 2724.72 783.070   3
   2  -8   2 2611.32 778.088   3
   0   0   3 6248.10 306.574   4
   0   0   3 7618.50 747.999   2
   0   0  -3 6875.60 642.830   2
   1   0   3 120192. 1262.06   4
  -1   0   3 116963. 1395.95   1
   1   0   3 119261. 2181.69   2
  -1   0   3 120188. 2300.88   2
  -1   0  -3 121566. 2283.53   2
   1   0  -3 122604. 2143.71   2
  -1   0   3 119842. 937.048   4
  -2   0   3 243.938 402.003   2
  -2   0  -3 14.8115 286.284   2
   2   0  -3 201.063 238.652   2
   2   0  -3 43.4024 88.7743   3
  -2   0   3 148.624 156.991   1
   2   0  -3-88.1825 143.645   4
   2   0   3 52.6341 212.525   4
   2   0   3 192.369 351.112   2
   3   0  -3 13089.6 322.909   3
   3   0  -3 12780.9 340.638   4
  -3   0   3 13132.7 558.458   1
   3   0   3 14190.8 839.155   2
  -3   0   3 13771.1 888.020   2
  -3   0  -3 14991.0 919.028   2
   3   0  -3 14064.0 738.399   2
   3   0   3 13927.4 682.991   4
   4   0  -3 77.1948 99.6474   4
  -4   0  -3 175.583 347.234   2
  -4   0   3 169.292 415.884   2
  -4   0   3 15.4620 189.685   1
   4   0  -3 60.8364 241.765   2
   4   0   3 135.279 354.666   2
   5   0  -3 88541.8 929.341   4
   5   0   3 92922.6 2000.87   2
  -5   0   3 94068.3 1695.70   1
  -5   0  -3 92764.5 2358.30   2
  -5   0   3 92637.9 2315.21   2
   5   0  -3 96772.5 1832.81   2
   6   0  -3 2359.29 251.995   4
   6   0   3 4851.01 635.040   2
  -6   0  -3 5221.69 785.815   2
   6   0  -3 2643.05 467.190   2
  -6   0   3 3372.26 470.313   1
  -7   0   3 81927.0 1122.60   3
   7   0  -3 83583.5 1777.99   1
   7   0   3 84328.1 1254.64   1
   7   0   3 84860.1 2003.37   2
  -7   0  -3 85532.6 2666.08   2
  -7   0   3 84303.1 2474.88   2
  -7   0   3 84862.0 1937.47   1
   7   0  -3 85497.2 1765.83   2
  -8   0  -3-57.7008 548.955   2
  -8   0   3-148.552 605.088   2
  -8   0   3-49.1174 191.144   3
   8   0   3-44.0249 218.520   1
   8   0  -3 428.957 438.564   1
   8   0   3-139.110 395.953   2
  -9   0   3 4170.61 869.241   2
  -9   0   3 3919.21 394.759   3
   9   0   3 2969.60 378.104   1
   9   0   3 3804.19 621.341   2
   9   0  -3 4142.26 656.714   1
  -9   0  -3 4658.18 969.826   2
 -10   0  -3 661.099 750.906   2
  10   0   3-322.731 407.429   1
 -10   0   3 153.431 702.902   2
 -10   0   3 416.934 307.365   3
  10   0  -3 627.748 597.644   1
  11   0   3 42469.4 1497.29   1
 -11   0   3 38172.5 1399.45   3
  11   0  -3 41123.8 1932.69   1
 -11   0  -3 46920.6 2844.93   2
 -11   0   3 43292.0 2456.28   2
 -12   0   3 2410.58 1001.58   2
 -12   0   3 1686.19 566.184   3
  12   0   3 1551.74 597.878   1
  12   0  -3 2520.99 904.308   1
 -13   0   3 29304.1 1651.47   3
  13   0  -3 32594.8 2142.26   1
 -13   0   3 33999.1 2324.02   2
  13   0   3 30057.1 1619.76   1
  14   0   3-214.880 694.552   1
 -14   0   3 638.371 843.539   2
  14   0  -3-393.420 972.655   1
 -15   0   3 2157.34 874.302   2
  15   0  -3 649.085 1101.56   1
  15   0   3 371.252 654.633   1
 -16   0   3 536.571 703.438   2
  16   0  -3-654.835 1074.09   1
  16   0   3-336.369 741.219   1
  17   0  -3 7919.27 1371.46   1
 -17   0   3 10024.3 1123.54   2
  17   0   3 9834.57 1223.64   1
 -18   0   3 668.964 626.574   2
  18   0   3 523.676 641.324   1
  18   0  -3 504.496 838.900   1
  19   0  -3 9989.37 1409.23   1
  19   0   3 10042.1 1094.73   1
  20   0   3-1034.13 704.611   1
  20   0  -3 219.727 704.562   1
  21   0   3-328.790 627.061   1
  22   0   3-28.0117 567.722   1
  23   0   3 1515.40 607.656   1
   0   1  -3 12157.7 365.403   3
   0   1   3 14123.6 956.562   2
   0   1   3 12004.4 447.256   1
   0  -1  -3 12336.2 778.462   2
   0  -1   3 12547.7 829.590   2
   0  -1  -3 12416.4 537.630   4
   0   1  -3 12384.8 786.561   2
   0   1   3 12444.1 469.701   4
  -1   1  -3 28653.2 1168.79   2
   1   1  -3 28518.4 1130.74   2
   1   1   3 27882.5 584.273   1
   1   1   3 27882.1 1266.19   2
  -1   1   3 26856.6 1256.69   2
  -1   1   3 28824.7 781.221   1
  -1  -1  -3 28329.7 1188.11   2
   1  -1  -3 28559.9 1076.18   2
   1  -1   3 27787.4 1084.93   2
  -1  -1   3 28126.1 1162.78   2
  -1  -1  -3 28902.6 872.366   4
   1  -1  -3 28024.1 722.967   4
   1   1   3 27400.2 698.954   4
  -1   1   3 27675.5 642.167   4
  -2  -1  -3 414.223 328.446   2
  -2   1   3 364.400 235.585   1
   2  -1   3 172.187 316.383   2
  -2   1   3 54.8623 158.018   4
  -2  -1   3 221.317 401.894   2
  -2   1  -3 124.411 289.446   2
   2  -1  -3 238.567 254.833   2
   2   1  -3 169.529 305.207   2
   2  -1  -3 90.9252 158.222   4
  -2   1   3 252.741 424.884   2
   2   1   3-146.233 439.561   2
   2   1   3 223.523 208.489   4
   3  -1  -3 3315.47 270.614   3
  -3  -1   3 3118.78 300.571   1
   3   1   3 3876.12 647.131   2
  -3  -1  -3 4184.98 581.062   2
   3  -1   3 3252.58 457.071   2
   3  -1  -3 3450.36 423.043   2
  -3   1   3 3900.71 434.472   1
  -3   1  -3 3231.18 493.336   2
  -3  -1   3 3031.63 576.637   2
   3   1  -3 3168.74 454.782   2
   3  -1  -3 2956.45 266.332   4
   3   1   3 3229.93 371.458   4
  -3   1   3 3312.12 596.268   2
  -4  -1  -3 2324.87 541.814   2
   4  -1   3 1763.68 385.896   2
   4  -1  -3 1726.06 321.525   2
   4  -1  -3 2055.47 244.411   3
  -4  -1   3 1425.78 518.431   2
  -4   1  -3 1869.74 458.910   2
  -4   1   3 1317.61 341.915   1
   4   1  -3 2047.40 417.951   2
   4  -1  -3 2309.25 314.417   1
  -4  -1   3 1957.31 279.392   1
   4  -1  -3 2026.74 242.264   4
   4   1   3 1679.25 527.054   2
   4   1   3 1805.39 347.748   4
  -4   1   3 1711.17 555.816   2
   5  -1  -3 23132.9 666.594   3
   5   1   3 22673.6 512.125   1
   5   1   3 22908.0 1239.19   2
   5  -1  -3 23515.3 863.711   1
  -5  -1   3 22852.4 797.299   1
  -5  -1  -3 22825.0 1361.40   2
  -5   1   3 23236.8 1263.70   2
   5  -1   3 22873.3 933.231   2
   5  -1  -3 23019.8 878.659   2
  -5   1  -3 22007.9 1181.71   2
  -5  -1   3 23101.7 1315.91   2
  -5   1   3 23053.4 1248.84   1
   5   1   3 23412.4 966.531   4
   5  -1  -3 22676.9 658.830   4
  -6  -1   3 11631.3 268.580   3
   6   1   3 12909.1 491.424   1
   6  -1  -3 13922.9 596.482   3
   6   1   3 14320.7 1055.15   2
   6  -1  -3 13684.4 793.573   1
  -6  -1   3 13352.1 663.392   1
   6  -1   3 14443.0 764.985   2
  -6  -1  -3 16017.9 1282.71   2
  -6   1   3 15572.0 1144.23   2
  -6   1  -3 15459.1 1084.66   2
  -6  -1   3 14912.1 1232.76   2
   6  -1  -3 13308.1 676.177   2
   6   1   3 13514.6 912.808   4
  -6   1   3 14252.0 1132.95   1
   6  -1  -3 13882.8 554.979   4
   7  -1  -3 26430.1 773.104   4
   7   1   3 26330.4 830.898   1
  -7  -1   3 26794.6 594.594   3
   7  -1  -3 27726.9 1188.15   1
   7  -1   3 27102.5 1014.34   2
  -7  -1  -3 28617.1 1802.12   2
  -7   1   3 26889.6 1494.83   2
  -7   1  -3 27145.9 1461.19   2
  -7  -1   3 28866.2 1682.69   2
   7   1   3 25669.7 1318.82   4
   7  -1  -3 28247.8 941.031   2
  -7   1   3 28522.1 1666.76   1
  -8   1   3 480.909 583.315   2
   8  -1   3 805.870 268.532   1
  -8   1  -3 366.670 505.264   2
  -8  -1   3 648.042 748.738   2
   8  -1  -3 354.182 244.504   2
  -8   1   3 368.690 214.662   3
  -8  -1   3 240.099 207.545   3
   8   1   3 513.466 325.503   1
   8  -1   3 64.5657 336.804   2
  -8   1   3 288.396 507.158   1
   8  -1  -3-242.709 560.456   1
   8   1   3-288.423 777.967   4
  -9   1   3 1833.18 817.238   2
  -9   1  -3 1599.94 681.459   2
  -9  -1   3 1461.39 884.857   2
   9   1   3 636.807 415.746   1
  -9   1   3 842.766 282.659   3
   9  -1  -3 686.290 280.548   2
  -9  -1   3 160.817 334.633   3
   9  -1  -3-58.6180 614.151   1
   9  -1   3 807.920 357.327   2
   9  -1   3 641.927 280.366   1
   9   1   3-694.565 1018.92   4
  10   1   3-120.949 513.105   1
 -10   1   3 409.796 741.250   2
 -10   1  -3 386.638 651.032   2
 -10  -1   3 218.699 907.010   2
  10  -1   3 0.82143 275.929   1
 -10   1   3-39.1198 267.814   3
  10  -1  -3 116.137 230.855   2
 -10  -1   3-792.363 547.677   3
  10  -1  -3-419.979 769.267   1
  10  -1   3-150.950 334.630   2
 -11   1   3 13977.4 853.446   3
  11  -1   3 14171.6 809.621   1
 -11  -1   3 11679.8 1106.22   3
  11   1  -3 16643.5 1148.61   1
  11  -1   3 14263.1 878.727   2
  11  -1  -3 13487.5 1466.39   1
 -11   1   3 16507.6 1634.36   2
 -11   1  -3 16668.5 1651.24   2
 -11  -1   3 13518.3 1671.59   2
  11   1   3 13661.2 1136.38   1
  12  -1   3 6944.60 699.339   1
 -12   1   3 7380.31 754.426   3
 -12  -1   3 7227.40 1447.99   2
  12   1   3 9464.09 1046.52   1
  12   1  -3 9607.64 1066.24   1
 -12  -1   3 5260.83 942.726   3
 -12   1   3 9749.91 1520.30   2
 -12   1  -3 11615.2 1660.19   2
  12  -1  -3 8703.28 1454.76   1
  13  -1   3 18524.3 1119.98   1
 -13  -1   3 12978.8 1384.43   3
  13   1  -3 18727.2 1449.75   1
  13  -1  -3 16402.9 1746.15   1
 -13   1   3 18976.8 1796.28   2
 -13   1  -3 18008.8 1775.44   2
 -13  -1   3 16750.2 1921.20   2
  13   1   3 19745.0 1307.45   1
 -14   1   3-5.60531 740.692   2
 -14   1  -3 191.661 627.710   2
 -14  -1   3-324.744 949.662   2
 -14  -1   3-491.332 876.631   3
  14   1   3 1148.30 551.741   1
  14  -1   3 1687.69 599.570   1
  14   1  -3 1071.80 815.681   1
  14  -1  -3-910.596 1027.48   1
 -15   1   3 1258.95 701.414   2
  15  -1  -3 556.547 841.772   1
 -15  -1   3 559.322 842.855   2
  15  -1   3 1389.72 621.167   1
  15   1   3 1157.53 521.236   1
  15   1  -3 1389.10 940.816   1
 -16   1   3 756.420 635.685   2
 -16  -1   3-91.9578 759.574   2
  16  -1   3-70.1504 641.451   1
  16   1   3-94.2865 435.961   1
  16   1  -3-104.853 1015.40   1
  16  -1  -3 395.581 794.797   1
  17  -1   3 5466.40 1110.57   1
 -17  -1   3 6404.81 1043.85   2
  17  -1  -3 6237.42 1144.68   1
  17   1  -3 4471.84 1412.45   1
  17   1   3 6882.03 822.318   1
  18  -1   3 1409.08 794.724   1
 -18  -1   3 2739.37 823.976   2
  18   1   3 2550.98 582.869   1
  18  -1  -3 4420.30 1014.62   1
 -19  -1   3 3593.27 740.381   2
  19   1  -3 4055.26 1261.92   1
  19   1   3 5816.18 758.571   1
  19  -1   3 4921.74 1075.53   1
  20  -1  -3 1050.63 715.081   1
  20   1   3 420.736 450.561   1
  20   1  -3-1121.21 1188.17   1
  20  -1   3-112.278 755.219   1
  21   1   3 559.668 462.497   1
  21  -1   3 1162.14 748.932   1
  22  -1   3 1110.19 702.518   1
   0   2   3 103368. 2933.86   2
   0  -2  -3 103477. 2311.48   2
   0  -2   3 105491. 2194.19   2
   0  -2  -3 106458. 1685.53   4
   0   2   3 103511. 1516.27   4
   0  -2   3 104083. 955.232   4
   0   2   3 106269. 2833.10   1
  -1   2  -3 51068.1 804.932   3
   1   2   3 46299.3 1982.45   2
  -1   2   3 49447.0 2071.15   2
  -1  -2  -3 51535.0 1717.28   2
   1  -2  -3 52753.6 1567.98   2
   1  -2   3 50263.6 1479.43   2
  -1  -2   3 51864.3 1673.85   2
  -1  -2  -3 50526.1 1192.02   4
   1  -2  -3 51079.3 1129.67   4
  -1   2  -3 52408.2 1802.78   2
  -1  -2   3 50433.3 570.656   4
   1   2   3 51473.5 1119.20   4
  -1   2   3 50682.7 1050.96   4
  -1   2   3 50050.1 2652.84   1
  -2   2  -3 12367.4 471.927   3
   2  -2  -3 12397.1 455.258   1
  -2   2   3 12273.5 1132.58   2
  -2  -2  -3 11676.1 915.941   2
   2  -2  -3 12822.9 786.844   2
   2  -2   3 12049.5 768.031   2
  -2  -2   3 11802.3 933.943   2
  -2  -2  -3 12066.8 646.225   4
  -2  -2   3 10537.3 243.083   4
   2  -2  -3 12222.8 577.342   4
  -2   2  -3 12379.9 931.592   2
   2   2   3 11978.3 596.436   4
  -2   2   3 11938.7 542.237   4
  -2   2   3 10988.5 1655.83   1
   3  -2  -3 17286.7 651.418   3
  -3   2  -3 17709.5 673.140   3
  -3   2   3 18152.1 1385.40   2
   3  -2  -3 16184.5 615.947   1
   3  -2  -3 17387.8 889.084   2
   3  -2   3 16945.1 868.451   2
  -3  -2  -3 17203.3 827.669   4
   3   2   3 17471.2 768.653   4
  -3   2  -3 17220.0 1130.53   2
   3  -2  -3 17357.1 695.327   4
  -3  -2   3 18454.9 1181.82   2
  -3   2   3 20565.2 2187.94   1
   4  -2  -3 16124.1 650.476   3
  -4   2  -3 15207.2 735.044   3
  -4   2   3 15306.4 1323.94   2
   4  -2  -3 15683.5 715.260   1
   4  -2  -3 15932.5 793.566   2
   4  -2   3 16051.9 828.004   2
  -4  -2   3 16645.7 1212.81   2
   4   2   3 15294.8 752.586   4
   4  -2  -3 16360.7 674.551   4
  -4   2  -3 17481.9 1150.67   2
  -4   2   3 17370.2 1920.46   1
  -5  -2   3 33037.8 420.727   3
   5  -2  -3 37281.1 977.733   3
  -5   2  -3 37913.2 1332.90   3
  -5   2   3 36824.6 1985.47   2
   5  -2  -3 37298.6 1281.87   1
   5  -2   3 36763.0 1142.59   2
   5  -2  -3 37218.5 1143.26   2
  -5   2   3 41466.7 2719.75   1
   5   2   3 36544.1 1167.65   4
  -5   2  -3 36580.3 1675.29   2
   5  -2  -3 37682.3 1015.30   4
  -5  -2   3 36439.8 1786.50   2
  -6   2  -3 71724.0 2421.06   2
   6  -2  -3 70831.5 1397.51   3
  -6   2  -3 73235.0 2146.16   3
  -6   2   3 72818.1 2879.65   2
   6  -2  -3 74616.0 2088.59   1
   6   2   3 65837.2 915.711   1
   6  -2   3 69837.5 1563.37   2
   6  -2  -3 70637.2 1537.65   2
  -6  -2   3 68507.7 2634.07   2
   6   2   3 69107.8 1757.51   4
   6  -2  -3 71321.1 1419.71   4
   7  -2  -3 30076.2 991.352   3
  -7   2  -3 28238.2 1577.11   3
  -7   2   3 30489.0 1983.11   2
   7  -2   3 30431.7 1045.65   2
   7  -2  -3 33348.2 1634.81   1
   7   2   3 29724.8 997.968   1
   7  -2  -3 30675.4 980.140   2
   7   2   3 29796.3 1261.53   4
  -7  -2   3 29402.7 1924.78   2
  -7   2  -3 30150.2 1666.78   2
   7   2  -3 29930.5 552.156   4
   7  -2  -3 29861.5 961.766   4
   8  -2  -3 8400.89 606.960   3
  -8   2   3 8235.22 1281.29   2
   8  -2   3 8360.29 590.084   2
   8  -2  -3 9735.77 1193.82   1
   8   2   3 8617.49 754.739   1
   8  -2  -3 8574.49 535.211   2
   8   2   3 8673.67 845.783   4
  -8   2  -3 8225.35 1015.57   2
  -8  -2   3 8016.16 1283.13   2
   8   2  -3 8643.47 379.391   4
   8  -2  -3 8184.42 562.279   4
  -8   2   3 11157.1 1485.28   1
  -9   2   3 8630.52 624.718   3
  -9  -2   3 6882.26 1442.61   2
  -9   2   3 8822.74 1462.66   2
   9  -2   3 7383.00 538.841   1
   9  -2   3 7524.21 572.281   2
   9  -2  -3 9805.15 1400.88   1
   9   2   3 8614.90 921.872   1
   9  -2  -3 7627.37 499.265   2
   9   2   3 8454.56 974.400   4
  -9   2  -3 9335.09 1179.84   2
   9   2  -3 7355.34 430.374   4
  10  -2  -3 5216.33 1133.64   1
 -10   2  -3 5271.05 1049.85   2
 -10  -2   3 4513.04 1272.39   2
  10  -2   3 5243.99 495.119   1
  10  -2   3 5166.71 498.892   2
  10   2   3 4872.26 728.274   1
  10  -2  -3 5145.10 424.829   2
  10   2  -3 4786.74 437.624   4
 -10   2   3 6023.54 1465.71   2
  10   2   3 4425.31 877.983   4
 -11  -2   3 10576.0 1613.04   2
  11  -2   3 11606.6 735.201   1
  11  -2   3 12211.8 719.136   2
 -11   2   3 12475.8 1607.13   2
  11  -2  -3 11338.6 1447.66   1
  11   2   3 13678.8 1031.26   1
  11   2   3 9252.27 1231.55   4
 -11   2  -3 14688.7 1691.11   2
  11   2  -3 12160.4 756.936   4
  11  -2  -3 11622.0 601.961   2
  12  -2   3 29262.9 1204.11   1
  12  -2   3 29481.4 1093.29   2
 -12   2   3 28574.4 2019.90   2
  12  -2  -3 26315.5 1989.85   1
  12   2   3 32689.0 1508.77   1
  12   2  -3 28329.1 1307.45   4
 -12  -2   3 29381.0 2441.53   2
 -12   2  -3 30569.7 2103.31   2
  12   2   3 24940.7 1889.70   4
  13  -2   3 9093.03 800.731   1
  13  -2   3 9227.93 680.326   2
 -13   2   3 10357.3 1202.46   2
  13  -2  -3 8487.88 1253.52   1
  13   2   3 10736.9 914.925   1
  13   2  -3 7755.69 918.951   4
 -13   2  -3 8181.36 1091.35   2
 -13  -2   3 9320.57 1635.65   2
  13   2   3 5753.89 1166.77   4
 -14  -2   3 4218.48 1138.01   2
  14   2   3 4029.67 643.896   1
  14   2   3 1654.13 1083.52   4
 -14   2   3 4346.67 859.478   2
  14   2  -3 2612.04 802.328   4
  14  -2   3 3141.89 601.639   1
  14  -2  -3 3438.65 939.464   1
  15   2   3 2437.05 575.316   1
  15  -2   3 3385.30 724.657   1
 -15  -2   3 1019.41 824.532   2
  15   2  -3 672.985 826.534   4
  15   2   3 250.231 1310.32   4
  15  -2  -3 1993.49 871.051   1
  16   2   3 1456.18 509.624   1
 -16  -2   3 1520.76 835.208   2
  16  -2   3 1835.96 681.837   1
  16   2  -3 224.660 1066.60   4
  16   2   3 384.783 1359.17   4
  16  -2  -3 1394.87 766.398   1
  17   2   3 1917.84 490.093   1
 -17  -2   3 2412.33 803.214   2
  17  -2   3 3741.80 873.671   1
  17   2  -3 905.154 1099.53   4
  17  -2  -3 2683.42 814.012   1
  18   2   3 4202.55 1944.43   4
  18  -2  -3 9245.84 1169.71   1
  18   2   3 6780.62 774.092   1
 -18  -2   3 7385.81 1047.63   2
  18   2  -3 6235.30 1548.23   4
  18  -2   3 8321.43 1228.60   1
  19  -2   3 1684.00 897.339   1
 -19  -2   3 2132.09 720.105   2
  19  -2  -3 2799.56 856.275   1
 -20  -2   3 1628.40 701.385   2
  20  -2  -3 1987.63 772.034   1
  20  -2   3-118.522 943.192   1
  21  -2   3-936.214 997.011   1
   0   3   3 36193.4 1064.65   4
   0  -3   3 37208.5 1520.64   2
   0  -3   3 36658.6 746.685   4
   1   3   3 1055.18 354.069   4
   1  -3   3 1126.53 203.110   4
  -1   3   3 1260.77 349.939   4
   1  -3   3 1350.71 492.287   2
  -1  -3   3 1515.75 573.744   2
  -1  -3   3 769.403 261.360   3
   1  -3  -3 1233.89 174.835   1
  -1  -3   3 1260.06 191.888   4
   2  -3  -3 4704.65 459.202   3
  -2   3  -3 3984.90 321.974   3
  -2  -3   3 4237.42 348.839   3
  -2   3   3 4631.04 297.832   1
   2  -3  -3 4660.86 368.600   1
   2  -3   3 4213.53 591.671   2
  -2  -3   3 4512.19 775.064   2
  -2  -3   3 4103.93 262.642   4
   2   3   3 3749.83 463.181   4
   3  -3  -3 7376.85 548.930   3
  -3   3  -3 6853.41 435.729   3
  -3  -3   3 7356.54 398.206   3
  -3   3   3 7283.36 457.384   1
   3  -3  -3 7816.73 682.249   2
   3  -3  -3 8417.08 604.611   1
   3  -3   3 7344.32 657.552   2
  -3  -3   3 7165.91 965.520   2
   3   3   3 6543.94 583.331   4
  -3  -3   3 6880.58 327.693   4
   4  -3  -3 2752.20 419.864   3
  -4   3  -3 2739.35 352.310   3
  -4  -3   3 3268.64 272.106   3
   4  -3   3 2370.62 453.861   2
  -4   3   3 2635.52 380.253   1
  -4  -3   3 2100.12 787.965   2
   4  -3  -3 2851.72 453.581   2
   4  -3  -3 4120.88 600.001   1
  -4  -3   3 2561.13 249.661   4
   4   3   3 2907.46 486.086   4
   5   3   3 1453.78 463.769   4
   5  -3  -3 1425.18 363.962   2
   5  -3  -3 1769.21 638.373   1
   5  -3   3 1402.80 399.161   2
  -5   3  -3 1883.38 354.014   3
  -5  -3   3 1209.57 199.544   3
  -5  -3   3 778.503 752.463   2
   5  -3  -3 1183.43 359.134   3
  -5   3   3 1378.17 415.227   1
  -6  -3   3 37120.4 739.730   3
  -6   3  -3 37079.5 1255.97   3
   6  -3  -3 35866.9 1133.42   3
  -6   3   3 37462.4 1758.35   1
   6  -3  -3 36865.4 1203.28   2
   6  -3   3 36201.5 1201.11   2
   6  -3  -3 41437.0 2154.41   1
  -6  -3   3 35692.5 2207.73   2
   6   3   3 36159.7 1343.46   4
   7   3   3 1393.31 545.975   4
   7   3  -3 1331.50 240.127   4
   7  -3  -3 1058.37 307.157   2
   7  -3   3 1249.55 367.528   2
   7  -3  -3 870.804 838.560   1
  -7  -3   3 241.444 973.048   2
   7  -3  -3 1426.92 404.937   3
  -7   3   3 926.475 578.091   1
   8  -3  -3 5228.94 1148.68   1
   8  -3  -3 5290.58 586.825   3
  -8  -3   3 4761.56 1265.97   2
   8  -3   3 5587.76 517.520   2
   8  -3  -3 5842.57 484.563   2
   8   3   3 5685.05 750.339   4
   8   3  -3 6073.86 392.604   4
   9  -3  -3 1697.24 830.819   1
  -9  -3   3 2265.96 1181.55   2
   9  -3  -3 2380.65 509.236   3
   9  -3   3 3345.21 443.858   1
   9  -3   3 2855.42 431.159   2
   9  -3  -3 2397.18 343.115   2
   9   3  -3 2507.12 329.280   4
   9   3   3 2956.11 723.874   4
  10  -3  -3 3524.38 935.253   1
 -10  -3   3 2211.69 1211.11   2
  10  -3  -3 3531.13 583.295   3
  10  -3   3 4434.29 488.811   1
  10  -3   3 4325.54 460.082   2
  10  -3  -3 3808.21 376.394   2
  10   3  -3 4407.57 414.933   4
  10   3   3 4329.24 817.204   4
  11   3  -3 901.324 333.130   4
  11  -3  -3 626.525 713.421   1
  11  -3  -3 911.574 254.269   2
 -11  -3   3 228.156 1093.61   2
  11  -3   3 779.950 363.959   1
  11  -3   3 843.846 315.784   2
  11   3   3 398.027 753.052   4
  12   3  -3 20949.1 945.207   4
  12  -3   3 20305.7 1021.11   1
  12  -3   3 22157.6 893.276   2
  12  -3  -3 23145.8 1775.64   1
  12   3   3 20453.2 1638.58   4
 -12  -3   3 20514.5 2322.11   2
  13   3  -3 313.169 397.663   4
  13  -3  -3 854.710 742.942   1
 -13  -3   3 1243.55 1091.88   2
  13   3   3 1348.16 423.607   1
  13   3   3-765.257 1179.78   4
  13  -3   3-70.6306 430.409   1
  13  -3   3 404.247 290.866   2
 -14  -3   3 3811.61 1112.54   2
  14  -3   3 3762.92 651.177   1
  14  -3  -3 6014.50 1038.98   1
  14   3  -3 3993.96 639.831   4
  15  -3   3-245.219 611.990   1
  15  -3  -3 1094.00 748.109   1
 -15  -3   3 1092.42 866.530   2
  15   3   3-1294.04 1223.55   4
  15   3  -3 18.4910 543.587   4
  16  -3  -3 3597.18 875.946   1
 -16  -3   3 2529.48 874.266   2
  16  -3   3 3754.79 716.850   1
  16   3   3 3283.38 1306.42   4
  16   3  -3 1061.22 642.204   4
  17  -3  -3 531.475 678.421   1
 -17  -3   3 715.985 716.204   2
  17  -3   3 967.000 658.252   1
  17   3   3 823.682 1344.43   4
  18  -3   3 9637.04 1220.01   1
  18  -3  -3 8571.14 1109.31   1
 -18  -3   3 7142.25 1038.65   2
  19  -3  -3 530.401 680.145   1
  19  -3   3 41.3238 699.522   1
 -19  -3   3 554.051 614.070   2
 -20  -3   3 1870.89 698.156   2
 -21  -3   3-50.3319 530.649   2
   0  -4   3 77576.3 1725.35   3
   0  -4  -3 74100.0 829.941   1
   0  -4   3 74962.1 2367.62   2
   0  -4   3 74704.3 1300.11   4
   0   4   3 75064.5 1700.31   4
   1   4   3 2593.17 494.428   4
  -1   4   3 2321.15 473.773   4
   1  -4   3 2329.81 624.268   2
   1  -4  -3 2700.37 494.697   3
  -1  -4   3 1962.14 681.842   2
  -1  -4   3 2304.80 397.255   3
   1  -4   3 1823.15 424.874   3
   1  -4  -3 3078.66 327.375   1
  -1  -4   3 2276.63 290.500   4
   1  -4   3 2382.62 313.070   4
   2  -4  -3 37825.0 1246.20   3
  -2  -4   3 38747.9 1086.32   3
   2  -4  -3 38878.8 1297.59   1
   2  -4   3 38428.5 1539.71   2
  -2  -4   3 37061.9 900.994   4
  -2  -4   3 38709.0 1958.22   2
   2   4   3 37107.8 1259.37   4
   2  -4   3 37670.5 1029.67   4
   3   4   3 775.925 478.232   4
   3  -4   3 845.639 314.052   4
   3  -4  -3 428.508 488.793   1
   3  -4   3 1019.61 520.714   2
   3  -4  -3 1057.48 443.959   3
  -3  -4   3 783.836 810.777   2
  -3  -4   3 987.384 315.708   3
  -3  -4   3 823.781 257.476   4
   4  -4  -3 30838.7 1175.16   3
  -4  -4   3 31384.4 915.136   3
   4  -4  -3 32916.1 1895.97   1
   4  -4   3 31499.8 1291.63   2
  -4  -4   3 30502.5 2022.64   2
   4   4   3 29179.7 1190.10   4
  -4  -4   3 30208.3 843.717   4
   5   4   3 1862.02 537.938   4
   5  -4   3 2413.53 513.517   2
   5  -4  -3 2089.37 936.939   1
  -5  -4   3 1996.04 324.316   3
   5  -4  -3 2239.13 498.936   3
  -5  -4   3 1069.26 931.589   2
  -5  -4   3 1878.13 301.514   4
  -6  -4   3 52687.5 1154.66   3
   6  -4  -3 50795.3 1496.37   3
   6  -4   3 51881.1 1498.51   2
  -6  -4   3 51096.4 3038.14   2
   6   4   3 52706.8 1669.63   4
  -7  -4   3 2722.32 365.191   3
   7  -4  -3 1394.00 710.664   1
   7  -4  -3 2613.26 520.982   3
  -7  -4   3 1495.29 1214.02   2
   7   4   3 3584.62 682.632   4
   7  -4  -3 3152.11 452.701   2
   7  -4   3 2587.17 466.240   2
   8  -4  -3 22823.9 1129.55   3
   8  -4  -3 22863.0 947.683   2
   8  -4   3 23740.2 1000.56   2
   8   4   3 23651.6 1292.61   4
  -8  -4   3 19618.7 2451.02   2
   8   4  -3 23109.6 847.115   4
   9   4   3 994.592 653.518   4
   9   4  -3 510.888 320.104   4
   9  -4   3 510.566 343.813   2
   9  -4  -3 1056.88 799.618   1
  -9  -4   3-572.049 1497.93   2
   9  -4  -3 312.200 460.033   3
   9  -4   3 744.309 375.993   1
  10  -4  -3 12121.2 946.244   3
  10  -4   3 12996.3 807.207   1
  10  -4   3 12863.7 730.334   2
  10  -4  -3 11619.9 1362.26   1
  10   4   3 13149.7 1194.81   4
  10   4  -3 12844.3 698.228   4
  11  -4   3 1968.42 369.100   2
  11   4   3 2556.04 845.100   4
  11   4  -3 1868.00 399.302   4
  11  -4  -3 2859.37 872.579   1
 -11  -4   3 163.451 1278.35   2
  11  -4  -3 1277.02 544.978   3
  11  -4   3 2322.15 477.577   1
  12  -4   3 17945.3 1009.93   1
  12  -4  -3 21348.3 1671.54   1
  12   4   3 19644.2 1615.95   4
 -12  -4   3 17989.1 2474.30   2
  12   4  -3 19324.5 936.569   4
  13   4   3 1451.88 910.404   4
  13   4  -3 966.101 430.695   4
  13  -4  -3 2536.92 856.460   1
 -13  -4   3 2638.05 1353.03   2
  13  -4   3 1264.49 471.605   1
  14   4   3 5545.08 1249.08   4
  14  -4   3 5860.47 754.102   1
  14  -4  -3 8182.18 1130.59   1
 -14  -4   3 6726.77 1374.32   2
  15  -4  -3 1180.18 771.822   1
  15  -4   3-402.468 575.350   1
 -15  -4   3 1586.52 934.286   2
  15   4   3-719.585 1167.74   4
  16  -4  -3 4435.79 923.936   1
 -16  -4   3 2818.25 889.955   2
  16  -4   3 1748.00 635.573   1
  16   4   3 1334.11 1189.47   4
  17  -4  -3 1353.23 732.510   1
 -17  -4   3 1246.92 741.058   2
  17  -4   3 2159.74 756.799   1
 -18  -4   3 3719.94 870.571   2
  18  -4  -3 5620.25 973.167   1
   0  -5  -3 7735.33 762.678   3
   0  -5   3 7073.25 678.269   3
   0   5   3 7156.95 724.214   4
   0  -5   3 7641.76 1026.80   2
   1  -5  -3 6550.90 701.434   3
  -1  -5   3 7014.50 634.600   3
   1  -5   3 6346.35 692.853   3
   1  -5  -3 5882.07 564.173   1
   1  -5   3 6377.64 887.814   2
  -1  -5   3 6694.82 1032.89   2
   1   5   3 6854.86 709.212   4
   2  -5  -3 4639.25 638.811   3
  -2  -5   3 4600.32 536.109   3
   2  -5  -3 3528.70 645.361   1
  -2  -5   3 3650.93 940.433   2
   2  -5   3 4275.13 625.507   3
   2  -5   3 5006.52 790.657   2
   2   5   3 5328.56 673.460   4
   3   5   3 1120.28 535.670   4
   3  -5   3 1017.18 535.157   2
   3  -5  -3 575.334 435.967   3
  -3  -5   3 219.089 925.958   2
  -3  -5   3 861.509 369.608   3
   3  -5  -3-682.186 905.621   1
   4  -5  -3 5121.72 659.834   3
  -4  -5   3 5461.55 528.902   3
  -4  -5   3 4029.40 1214.39   2
   4  -5   3 5408.88 720.240   2
   4   5   3 5168.91 693.480   4
  -5  -5   3 6328.03 565.827   3
   5  -5  -3 7139.83 734.024   3
   5  -5   3 6372.37 728.239   2
   5   5   3 6228.83 770.078   4
  -6  -5   3 6708.80 588.693   3
   6  -5  -3 6495.41 718.558   3
  -6  -5   3 5784.74 1632.50   2
   6  -5   3 6854.31 705.795   2
   6   5   3 5931.86 773.030   4
  -7  -5   3 6656.66 593.359   3
   7  -5  -3 6370.86 729.039   3
  -7  -5   3 4393.01 1644.85   2
   7  -5  -3 4838.71 979.105   1
   7  -5   3 6359.64 637.646   2
   7   5   3 5673.22 800.143   4
   8   5   3 3775.55 750.125   4
  -8  -5   3 4137.05 513.105   3
   8  -5  -3 4427.68 697.784   3
  -8  -5   3 1930.11 1896.99   2
   8  -5  -3 2503.87 894.532   1
   8  -5   3 3959.31 533.984   2
   9   5   3 1598.13 725.522   4
   9  -5   3 1266.23 390.293   2
  -9  -5   3 1173.38 414.472   3
   9  -5  -3 892.073 554.446   3
   9  -5  -3 1179.45 811.175   1
   9  -5   3 2370.67 520.817   1
  10  -5  -3 4515.97 986.110   1
  10  -5  -3 3068.10 690.559   3
  10  -5   3 3561.19 555.056   1
  10   5   3 5214.77 932.359   4
  10   5  -3 4213.13 550.041   4
 -11  -5   3 3669.40 1879.01   2
  11  -5   3 4816.16 655.274   1
  11  -5  -3 3862.61 748.737   3
  11  -5  -3 6061.97 1058.60   1
  11   5   3 6539.87 1072.70   4
  12  -5   3 3944.43 617.339   1
  12  -5  -3 5123.78 988.033   1
 -12  -5   3 5889.60 2145.73   2
  12  -5  -3 2712.36 703.250   3
  12   5   3 6973.42 1173.15   4
  13   5   3 5479.53 1168.98   4
  13  -5   3 3772.00 675.721   1
  13  -5  -3 4991.13 978.740   1
 -13  -5   3 6450.64 1791.42   2
  14   5   3 5680.07 1287.24   4
  14  -5  -3 3285.83 880.839   1
 -14  -5   3 4021.83 1375.59   2
  14  -5   3 1711.38 566.106   1
  15  -5  -3 1036.99 730.422   1
 -15  -5   3 1847.73 1027.25   2
  16  -5  -3 2043.60 781.177   1
  17  -5  -3 2832.10 849.655   1
   0  -6  -3 2403.05 664.002   3
   0  -6   3 2285.34 860.838   2
   0  -6   3 1824.95 529.148   3
  -1  -6  -3 22370.6 1298.94   3
   1  -6  -3 21952.4 1264.48   3
  -1  -6   3 21590.2 1173.49   3
   1  -6   3 19905.3 1215.01   3
   1  -6   3 20970.8 1544.33   2
  -1  -6   3 21478.7 1792.99   2
  -2  -6   3 3730.16 594.189   3
   2  -6   3 3393.53 773.937   2
   2  -6  -3 3218.47 667.616   3
  -2  -6   3 3175.55 1085.52   2
   2  -6   3 3527.35 682.795   3
   2   6   3 4762.02 741.225   4
   3  -6  -3 12848.7 1024.92   3
  -3  -6   3 13102.9 890.477   3
   3  -6   3 12027.0 1099.08   2
  -3  -6   3 11608.3 1689.26   2
   3   6   3 13718.9 1060.83   4
   4   6   3 3271.40 719.799   4
   4  -6   3 3074.22 688.201   2
   4  -6  -3 2576.77 620.316   3
  -4  -6   3 2954.59 533.476   3
  -4  -6   3 1901.60 1153.87   2
  -5  -6   3 17079.2 999.295   3
   5  -6  -3 16603.5 1125.10   3
   5  -6   3 16476.1 1117.41   2
  -5  -6   3 19473.3 2480.98   2
   5   6   3 16876.1 1192.95   4
   6   6   3 1755.89 666.951   4
   6  -6   3 1771.27 553.733   2
   6  -6  -3 1911.62 616.040   3
   7  -6  -3 13348.2 1065.00   3
  -7  -6   3 15552.9 2808.87   2
   7  -6   3 14951.1 984.409   2
   7   6   3 14300.8 1182.78   4
   8   6   3 1524.21 690.138   4
   8  -6  -3 1586.64 589.958   3
   8  -6   3 3552.55 656.250   1
   9  -6  -3 6928.80 898.435   3
   9  -6   3 8685.16 859.761   1
   9   6   3 7377.47 1029.64   4
  10   6   3 405.094 740.949   4
 -10  -6   3-612.683 2162.55   2
  10  -6  -3 650.151 607.065   3
  10  -6   3 1545.53 526.734   1
  11  -6  -3 6964.39 944.098   3
   0  -7   3 292.278 767.829   2
   1  -7   3 3443.51 921.534   2
  -1  -7   3 3789.33 1093.07   2
   1  -7   3 2590.11 696.537   3
   2  -7   3 215.140 626.594   2
  -2  -7   3-274.343 1076.01   2
   2  -7   3-315.713 645.262   3
   3  -7   3 2589.48 733.141   2
  -3  -7   3 2435.98 1233.15   2
   4  -7   3 678.371 574.471   2
  -4  -7   3-1288.33 1458.85   2
   0   0   4 253279. 3816.03   2
   0   0   4 269053. 1765.13   4
   1   0   4 55.3429 180.011   4
  -1   0   4 1067.93 586.129   2
  -1   0   4 6.28887 131.016   4
  -1   0   4 568.214 230.727   1
   1   0   4 563.220 517.406   2
   2   0  -4 111664. 972.343   3
  -2   0   4 111012. 1681.08   1
   2   0   4 106178. 2462.08   2
  -2   0   4 106344. 2665.85   2
   2   0   4 108260. 1473.06   4
   3   0  -4 2973.86 214.055   3
  -3   0   4 3050.72 398.799   1
   3   0   4 5914.88 790.070   2
  -3   0   4 7143.96 932.521   2
   3   0   4 5279.26 501.164   4
   4   0   4 90016.5 2257.76   2
  -4   0   4 90751.5 1706.97   1
  -4   0   4 92185.6 2616.65   2
   4   0  -4 87985.4 1073.84   4
   4   0   4 91967.4 1752.03   4
  -5   0   4 39.9542 580.999   2
   5   0   4 205.528 466.189   2
   5   0   4-211.804 452.955   4
   5   0  -4-0.08460 107.944   4
   6   0   4 169117. 3084.64   2
  -6   0   4 165055. 3767.19   2
   6   0   4 168674. 3082.37   4
   6   0  -4 167692. 1356.76   4
   7   0  -4 92.9835 142.032   4
  -7   0   4 234.361 716.472   2
   7   0   4 831.089 240.462   1
   7   0   4 267.800 491.512   2
   8   0   4 61701.7 1189.25   1
   8   0   4 62693.5 1986.97   2
  -8   0   4 59405.4 2569.85   2
   8   0  -4 63236.7 994.401   4
   9   0  -4 670.370 226.396   4
   9   0   4 539.118 277.942   1
   9   0   4 1090.69 586.154   2
  10   0   4 32655.8 1081.10   1
  10   0   4 30525.0 1496.29   2
 -10   0   4 33350.0 2311.72   2
  10   0  -4 29728.3 804.820   4
 -11   0   4 278.000 1015.82   2
  11   0   4-538.149 385.890   1
 -11   0   4 490.354 262.417   3
  12   0   4 55548.4 1723.31   1
  12   0  -4 61148.4 2330.44   1
 -12   0   4 61323.1 3468.75   2
 -13   0   4-369.670 1107.35   2
  13   0   4 906.066 515.482   1
  13   0  -4 1193.35 819.425   1
  14   0  -4 18479.6 1713.07   1
 -14   0   4 15725.9 1901.00   2
  14   0   4 16826.3 1251.33   1
 -15   0   4-143.282 834.140   2
  15   0   4 142.749 541.616   1
  15   0  -4 319.315 935.992   1
 -16   0   4 6577.38 1177.45   2
  16   0  -4 7739.64 1524.37   1
  16   0   4 6337.11 1049.71   1
 -17   0   4-434.570 639.345   2
  17   0  -4-1356.22 1243.91   1
  17   0   4-751.110 761.040   1
  18   0  -4 9850.98 1629.25   1
  18   0   4 12562.9 1385.00   1
  19   0  -4-1901.23 1255.61   1
  19   0   4 521.853 641.070   1
  20   0   4 3745.59 802.374   1
  21   0   4-1303.48 718.674   1
   0   1   4 91518.9 2562.91   2
   0   1   4 87247.2 1414.42   1
   0  -1   4 87617.3 2265.00   2
   0  -1   4 89448.3 800.695   4
   0   1   4 90676.9 1298.26   4
   1   1   4 29317.1 760.994   1
   1   1   4 28874.8 1471.39   2
  -1   1   4 31285.8 1588.98   2
  -1   1   4 31872.3 958.928   1
   1  -1   4 29918.4 1332.39   2
  -1  -1   4 29589.8 1399.78   2
   1  -1  -4 30753.5 939.782   4
   1  -1   4 31243.4 654.459   4
   1   1   4 29705.7 792.089   4
  -1   1   4 30793.5 755.743   4
   2  -1  -4 29232.3 703.985   3
   2   1   4 27578.2 688.263   1
   2   1   4 27783.4 1446.54   2
  -2   1   4 28270.7 1529.53   2
   2  -1   4 29931.4 1311.91   2
  -2   1   4 30144.4 1010.37   1
   2  -1  -4 28357.7 834.199   4
  -2  -1   4 28564.7 1442.36   2
   2   1   4 28607.3 844.183   4
   2  -1   4 29318.5 834.902   4
  -2   1   4 29009.4 715.340   4
   3  -1  -4 10152.8 461.403   3
   3   1   4 11480.1 1060.78   2
  -3   1   4 12103.2 1150.13   2
   3  -1   4 10268.1 867.920   2
  -3   1   4 10252.0 714.776   1
  -3  -1   4 10696.2 1070.94   2
   3  -1  -4 10277.1 528.349   4
   3   1   4 10535.0 603.272   4
   4  -1  -4 25330.0 682.947   3
   4   1   4 23607.9 1359.36   2
  -4   1   4 24520.5 1525.69   2
   4  -1   4 23696.5 1144.22   2
  -4  -1   4 25067.7 1476.31   2
  -4   1   4 24031.1 1110.98   1
   4   1   4 23290.4 898.785   4
   4  -1  -4 24064.9 735.216   4
   5  -1  -4 26509.3 738.477   3
   5   1   4 27033.3 1446.82   2
  -5   1   4 26929.9 1632.77   2
   5  -1   4 25617.8 1188.84   2
  -5  -1   4 27622.5 1636.54   2
  -5   1   4 26960.1 1294.69   1
   5   1   4 26430.1 1041.08   4
   5  -1  -4 28216.6 794.516   4
   6  -1  -4 73787.4 1302.98   3
   6   1   4 72019.5 1047.13   1
   6   1   4 75000.4 2397.92   2
   6  -1   4 75537.8 1950.40   2
  -6   1   4 71696.6 2685.78   2
  -6  -1   4 77664.8 2776.65   2
  -6   1   4 75733.9 2392.76   1
   6   1   4 75315.4 1891.44   4
   6  -1  -4 74845.8 1314.21   4
   7   1   4 19182.3 630.290   1
   7   1   4 19883.7 1328.11   2
   7  -1   4 19062.3 1025.85   2
  -7   1   4 18600.7 1543.02   2
  -7  -1   4 19344.6 1595.95   2
   7   1   4 19041.8 1107.51   4
   7  -1  -4 20619.3 726.595   4
   8   1   4 18915.4 747.552   1
   8  -1  -4 20262.6 1058.87   1
   8   1   4 16719.8 1241.75   2
   8  -1   4 18377.1 1026.90   2
  -8   1   4 17535.5 1635.58   2
  -8  -1   4 19609.5 1672.96   2
   8   1   4 16293.0 1160.38   4
   8  -1  -4 18746.1 714.131   4
  -9   1   4 5620.98 1235.95   2
   9   1   4 5618.84 522.313   1
  -9  -1   4 4995.88 1209.21   2
   9  -1  -4 7445.79 790.235   1
   9  -1   4 5031.61 657.361   2
   9  -1   4 5158.95 454.223   1
   9  -1  -4 4572.58 424.572   4
   9   1  -4 4246.40 206.784   4
   9   1   4 4085.41 856.901   4
 -10  -1   4 13915.4 466.003   3
  10  -1   4 13897.1 711.600   1
  10  -1  -4 16128.2 1174.70   1
  10  -1   4 13282.2 941.805   2
 -10   1   4 14876.8 1755.65   2
 -10  -1   4 14407.4 1822.78   2
  10   1  -4 11802.2 633.176   4
  10   1   4 11232.5 1257.83   4
  10  -1  -4 12607.9 643.129   4
  10   1   4 14424.3 893.280   1
  11  -1   4 11022.9 706.017   1
  11  -1   4 10656.6 872.974   2
  11  -1  -4 13566.1 1247.01   1
 -11   1   4 12773.8 1787.79   2
 -11  -1   4 11381.0 1716.19   2
  11  -1  -4 9424.34 607.949   4
  11   1   4 7312.85 1175.97   4
  11   1   4 10756.5 917.438   1
  12  -1   4 32377.6 1250.20   1
  12  -1   4 31771.1 1449.03   2
  12  -1  -4 35802.3 2085.91   1
 -12   1   4 37251.5 2886.00   2
 -12  -1   4 31281.6 2702.88   2
  12   1   4 32748.9 1742.67   1
  13  -1   4 8045.57 752.832   1
 -13  -1   4 8238.75 1677.86   2
  13  -1  -4 10310.8 1420.33   1
 -13   1   4 9811.00 1590.55   2
  13   1   4 7269.46 916.307   1
  14  -1   4 7125.04 775.354   1
 -14   1   4 8811.21 1378.15   2
 -14  -1   4 10569.0 1817.82   2
  14  -1  -4 8525.27 1466.49   1
  14   1   4 9062.13 1046.96   1
 -15   1   4 1570.79 865.858   2
 -15  -1   4 3323.76 1263.85   2
  15   1   4 1516.39 599.687   1
  15  -1   4 2523.16 649.641   1
  15  -1  -4 1046.66 1166.66   1
  16  -1   4 5567.55 886.605   1
 -16   1   4 4084.48 968.800   2
 -16  -1   4 4400.36 1140.56   2
  16   1   4 3306.19 613.718   1
  16  -1  -4 2843.45 1115.20   1
 -17  -1   4 2773.36 1008.47   2
  17  -1   4 2857.30 827.775   1
  17   1   4 1413.40 468.903   1
  17  -1  -4 1424.36 1005.24   1
  17   1   4-491.960 1968.65   4
 -18  -1   4 9735.40 1304.36   2
  18  -1  -4 6669.64 1367.87   1
  18  -1   4 8007.67 1241.72   1
  18   1   4 7765.50 2196.88   4
  19  -1  -4 1758.77 1024.88   1
  19   1   4 3045.39 2001.65   4
  19  -1   4 677.778 760.524   1
  20  -1   4 974.915 838.818   1
  21  -1   4-197.358 767.456   1
   0   2   4 38283.9 2021.54   2
   0  -2   4 36398.1 1587.24   2
   0  -2  -4 37773.3 1165.77   4
   0   2   4 37000.1 1921.79   1
   0   2   4 34266.0 968.480   4
   0  -2   4 34591.8 495.564   4
  -1   2  -4 113507. 1143.87   3
   1   2   4 111226. 3287.74   2
  -1   2   4 111718. 3336.07   2
   1  -2   4 116071. 2598.33   2
  -1  -2   4 111262. 2685.23   2
  -1  -2  -4 118215. 2145.33   4
   1  -2  -4 116306. 1925.91   4
   1   2   4 108050. 2728.97   1
  -1   2   4 107161. 3491.10   1
   1   2   4 110995. 1735.13   4
  -1   2   4 114424. 1685.69   4
   2  -2  -4 19134.7 728.655   3
  -2   2  -4 18783.1 577.968   3
   2   2   4 17331.1 1434.99   2
  -2   2   4 20245.2 1596.95   2
   2  -2   4 19245.6 1098.67   2
  -2   2   4 18752.6 714.297   4
  -2  -2   4 19609.6 1260.47   2
  -2  -2  -4 19923.8 952.841   4
   2   2   4 17649.6 969.324   1
   2  -2  -4 20334.1 834.006   4
  -2   2   4 19238.4 1723.06   1
   2   2   4 18159.3 778.010   4
   3  -2  -4 45975.3 1089.18   3
  -3   2  -4 44266.6 1070.49   3
   3   2   4 46319.8 2155.99   2
  -3   2   4 48588.4 2448.07   2
   3  -2   4 46087.2 1558.55   2
  -3  -2   4 46372.2 1929.08   2
   3  -2  -4 47200.3 1218.37   4
   3   2   4 45882.4 1239.28   4
  -3   2   4 48122.6 2882.63   1
   4   2   4 13967.2 335.691   1
   4  -2  -4 16265.2 693.663   3
  -4   2  -4 15327.8 763.177   3
  -4   2   4 15924.7 1601.72   2
   4  -2   4 15525.4 931.758   2
  -4  -2   4 16462.4 1298.13   2
   4  -2  -4 16763.3 759.404   4
   4   2   4 15983.3 838.966   4
  -4   2   4 16182.3 1880.95   1
   5  -2  -4 80442.9 1466.24   3
  -5   2  -4 78890.9 1980.12   3
   5  -2  -4 82569.4 1582.25   1
  -5   2   4 78026.2 3202.77   2
   5  -2   4 79973.5 1976.15   2
  -5  -2   4 79104.5 2813.47   2
   5   2   4 77676.2 1785.30   4
   5  -2  -4 82642.5 1617.27   4
  -5   2   4 86514.1 4267.43   1
   5   2   4 78400.5 1255.13   1
   6  -2  -4 24310.0 885.230   3
  -6   2  -4 23331.8 1307.15   3
   6  -2  -4 25896.0 1058.09   1
  -6   2   4 26474.9 2130.67   2
   6  -2   4 24515.6 1164.34   2
  -6  -2   4 26709.0 1821.12   2
   6   2   4 24635.4 1127.79   4
   6  -2  -4 25083.2 932.269   4
   6   2   4 29637.5 997.058   1
  -6   2   4 29609.7 2760.81   1
   7  -2  -4 72774.0 1539.99   3
  -7   2  -4 69190.0 2535.71   3
   7  -2  -4 74965.5 1902.96   1
  -7   2   4 71757.7 3437.36   2
   7  -2   4 69999.2 1796.16   2
  -7  -2   4 73491.3 3035.42   2
   7   2   4 67362.8 1890.98   4
   7   2   4 75239.5 1514.12   1
   7  -2  -4 74427.4 1597.66   4
   8  -2  -4 9604.70 656.835   3
   8   2   4 11138.5 678.485   1
   8  -2  -4 10541.4 897.277   1
   8  -2   4 9854.05 751.636   2
  -8  -2   4 12594.6 1588.04   2
   8   2   4 9468.98 909.733   4
   8  -2  -4 9597.39 622.662   4
  -8   2   4 9733.10 1627.56   2
   9  -2  -4 19289.5 1295.28   1
  -9   2   4 21756.0 2422.89   2
   9  -2   4 18871.6 992.433   2
   9  -2   4 19381.0 829.060   1
  -9  -2   4 22394.4 2116.11   2
   9   2   4 22584.4 1017.39   1
   9   2   4 17910.2 1255.22   4
 -10  -2   4 7079.83 1570.90   2
  10  -2   4 6467.32 554.894   1
  10  -2   4 5564.38 631.559   2
  10   2   4 6985.53 641.186   1
  10  -2  -4 5047.17 898.273   1
 -10   2   4 5811.90 1736.50   2
  10   2   4 4540.80 873.709   4
  11  -2   4 30414.8 1112.84   1
  11  -2   4 29777.3 1243.42   2
 -11   2   4 32057.8 2998.14   2
  11  -2  -4 31622.0 2018.98   1
  11   2   4 35115.3 1319.32   1
 -11  -2   4 29964.6 2629.50   2
  11   2   4 28268.2 1793.21   4
  11   2  -4 28591.2 654.525   4
 -12  -2   4 6876.18 1593.74   2
  12  -2   4 8125.64 683.655   1
  12  -2   4 9163.97 796.487   2
  12  -2  -4 9401.39 1446.32   1
  12   2   4 10173.7 795.212   1
  12   2   4 8582.71 1280.66   4
 -12   2   4 8196.62 1637.95   2
  13  -2   4 21163.1 1096.45   1
  13  -2   4 21196.1 1116.02   2
 -13   2   4 20435.2 2022.01   2
  13  -2  -4 23616.6 2276.14   1
  13   2   4 24967.8 1182.74   1
 -13  -2   4 19863.3 2310.52   2
  13   2   4 18781.2 1790.04   4
 -14  -2   4 2568.92 1317.90   2
  14  -2   4 2262.79 557.884   1
  14  -2  -4 2349.82 1080.51   1
  14  -2   4 2403.41 527.719   2
 -14   2   4 2462.31 1030.09   2
  14   2   4 3474.85 1206.83   4
  15  -2   4 3594.55 662.382   1
 -15  -2   4 3746.59 1246.19   2
  15  -2  -4 3595.10 1095.87   1
  15   2   4 4198.83 1348.26   4
 -16  -2   4 21.8185 937.072   2
  16  -2   4 2435.55 677.637   1
  16  -2  -4 626.006 882.055   1
  16   2   4-157.279 1243.27   4
  17  -2   4 8053.09 1043.66   1
 -17  -2   4 4878.39 1124.65   2
  17  -2  -4 6718.97 1331.82   1
  17   2   4 3225.37 1482.74   4
 -18  -2   4 952.728 848.945   2
  18  -2   4 2513.33 814.575   1
  18  -2  -4 2844.60 1050.81   1
  18   2   4-310.743 1648.05   4
 -19  -2   4 4073.47 985.756   2
  19  -2   4 4414.58 1005.71   1
  19  -2  -4 4921.14 1092.55   1
   0  -3   4 2635.26 699.010   2
   0  -3   4 2883.38 236.875   4
   0   3   4 2881.83 474.478   4
  -1   3   4 42870.1 782.080   1
   1  -3   4 44921.1 1699.46   2
  -1  -3   4 44819.1 1864.31   2
  -1  -3   4 44381.6 668.071   4
   1   3   4 43008.6 1250.79   4
   1  -3   4 45899.6 855.692   4
  -1   3   4 44479.7 1234.92   4
   2   3   4 1322.31 408.317   4
  -2   3  -4 1806.74 242.611   3
   2  -3   4 1730.91 547.751   2
   2  -3  -4 1633.82 396.920   3
  -2   3   4 1478.80 277.020   1
  -2  -3   4 1428.39 137.852   4
   3  -3  -4 13291.0 738.019   3
  -3   3  -4 13312.5 578.445   3
  -3   3   4 11859.6 801.971   1
   3  -3   4 13417.0 982.971   2
   3   3   4 13352.5 811.733   4
   4   3   4 1172.68 432.425   4
   4  -3   4 988.133 474.030   2
  -4  -3   4 1735.53 775.020   2
  -4   3   4 210.541 494.983   1
   4  -3  -4 1028.17 365.584   3
  -4   3  -4 1096.79 274.121   3
   4  -3  -4 1741.56 320.084   1
  -5   3   4 40149.1 2159.48   1
   5  -3  -4 38370.4 1188.67   3
  -5   3  -4 38726.8 1168.82   3
  -5   3   4 35482.4 2845.92   2
   5  -3  -4 41069.8 1203.45   1
   5  -3   4 38188.3 1416.13   2
  -5  -3   4 39715.5 2187.15   2
   5   3   4 37722.0 1352.45   4
   6   3   4 2594.62 588.015   4
  -6   3   4 532.832 825.719   1
   6  -3   4 2316.12 524.920   2
   6  -3  -4 2295.90 431.454   3
  -6  -3   4 3115.39 1084.12   2
   6  -3  -4 1956.19 456.700   1
  -6   3   4 2744.88 1510.84   2
   7  -3  -4 34133.9 1195.89   3
  -7   3   4 34218.1 3218.39   2
   7  -3  -4 34742.5 1472.63   1
   7  -3   4 33631.6 1307.25   2
  -7  -3   4 32892.8 2345.14   2
   7   3   4 33868.0 1448.79   4
   8   3   4 532.872 562.717   4
   8  -3   4 476.479 411.814   2
  -8  -3   4 460.255 1008.40   2
   8  -3  -4 28.8146 386.132   3
   8  -3  -4-203.825 553.683   1
  -8   3   4 155.622 1423.37   2
   9  -3  -4 9166.46 746.983   3
   9  -3  -4 8651.17 1091.00   1
   9  -3   4 9283.98 726.591   2
  -9  -3   4 11210.7 1790.65   2
   9   3   4 9425.21 991.085   4
  -9   3   4 8673.95 1797.23   2
  10   3   4 151.512 635.087   4
  10  -3   4 1089.66 392.683   1
 -10  -3   4 33.2312 1123.01   2
  10  -3  -4-244.840 457.029   3
 -10   3   4 232.927 990.783   2
  10  -3  -4-689.601 954.438   1
  10  -3   4 200.958 373.344   2
 -11   3   4 15262.8 1740.19   2
  11  -3   4 19747.3 951.700   1
  11  -3   4 19660.1 993.197   2
  11  -3  -4 19042.8 1910.99   1
 -11  -3   4 16352.1 2139.42   2
  11   3   4 17621.7 1404.80   4
 -12  -3   4-367.047 1232.65   2
  12  -3   4 314.488 358.408   1
  12  -3  -4-585.757 1097.13   1
  12  -3   4 527.957 410.185   2
  12   3   4-35.3011 876.144   4
  13  -3   4 15478.5 966.265   1
  13  -3   4 16284.0 926.630   2
  13  -3  -4 11900.9 1589.23   1
 -13  -3   4 12258.9 2027.35   2
  13   3   4 13081.5 1477.31   4
 -14  -3   4-201.861 1165.99   2
  14  -3   4-467.854 484.054   1
  14  -3  -4-971.972 1028.37   1
  14   3   4-2518.72 1301.19   4
 -15  -3   4 3361.30 1209.75   2
  15  -3   4 2900.64 642.340   1
  15  -3  -4 2541.50 949.646   1
  15   3   4 434.003 1264.08   4
  16  -3   4-897.106 650.194   1
 -16  -3   4-379.257 903.056   2
  16  -3  -4 340.518 821.030   1
  17  -3   4 7249.40 960.135   1
 -17  -3   4 3761.63 1022.24   2
  17  -3  -4 7154.03 1251.54   1
 -18  -3   4 93.1372 707.020   2
  18  -3   4 1066.93 704.245   1
  18  -3  -4 985.285 781.089   1
 -19  -3   4 3339.63 899.110   2
 -20  -3   4-340.754 676.660   2
   0  -4   4 25130.5 1523.15   2
   0   4   4 25074.9 1093.21   4
   1  -4  -4 40033.3 1394.94   3
   1  -4   4 38985.1 1736.26   2
  -1  -4   4 38852.2 1895.81   2
   1   4   4 35402.0 1305.11   4
  -1   4   4 37089.2 1289.42   4
   2  -4  -4 8209.47 711.181   3
   2  -4   4 8238.67 888.371   2
  -2  -4   4 9747.02 1169.09   2
   2  -4   4 8075.09 514.593   4
   2   4   4 7765.14 713.813   4
   3  -4  -4 21115.1 1020.90   3
   3  -4  -4 23193.0 713.910   1
   3  -4   4 20146.0 1220.25   2
  -3  -4   4 22272.1 1707.47   2
   3   4   4 19797.1 1042.14   4
   4  -4  -4 7521.46 687.656   3
   4  -4  -4 7542.06 520.968   1
   4  -4   4 7024.08 778.638   2
  -4  -4   4 7931.91 1237.31   2
   4   4   4 7424.96 741.682   4
   5  -4  -4 29132.7 1198.03   3
   5  -4  -4 28977.1 1116.95   1
   5  -4   4 30176.4 1368.69   2
  -5  -4   4 29879.8 2145.96   2
   5   4   4 28931.7 1305.53   4
   6  -4  -4 15299.2 925.131   3
   6  -4  -4 15019.6 977.335   1
   6  -4   4 16823.9 1051.31   2
  -6  -4   4 15108.4 1804.29   2
   6   4   4 14640.0 1036.75   4
   7  -4  -4 22852.6 1116.04   3
   7  -4  -4 24208.3 1398.87   1
   7  -4   4 22243.7 1121.72   2
  -7  -4   4 21467.9 2205.45   2
   7   4   4 22774.9 1272.87   4
   8  -4  -4 4931.62 656.838   3
  -8  -4   4 4847.21 1470.56   2
   8  -4  -4 6453.74 996.815   1
   8  -4   4 5092.02 620.406   2
   8   4   4 5340.44 831.755   4
   9  -4  -4 10246.8 869.141   3
  -9  -4   4 9558.47 1987.22   2
   9  -4  -4 10883.4 1343.14   1
   9  -4   4 9931.41 793.211   2
   9   4   4 10853.2 1085.11   4
  10   4   4 3766.99 873.044   4
 -10  -4   4 2790.07 1455.33   2
  10  -4  -4 2869.28 611.966   3
  10  -4   4 4011.40 569.688   1
  10  -4   4 3351.13 517.205   2
  10  -4  -4 4140.60 1203.95   1
  11  -4  -4 10940.8 957.764   3
 -11  -4   4 8324.47 1833.46   2
  11  -4   4 11966.8 842.052   1
  11  -4   4 12253.2 813.552   2
  11  -4  -4 10269.4 1432.78   1
  11   4   4 13139.2 1317.40   4
 -12  -4   4 4677.69 1631.17   2
  12  -4   4 5853.62 680.967   1
  12   4   4 6810.34 1162.54   4
  12  -4  -4 3292.79 970.885   1
 -13  -4   4 8501.09 1887.30   2
  13  -4   4 9131.20 821.160   1
  13   4   4 7921.59 1256.36   4
  13  -4  -4 5418.01 1107.97   1
  14   4   4 1685.42 1075.93   4
 -14  -4   4 1859.88 1233.52   2
  14  -4   4 907.426 471.114   1
  14  -4  -4-71.9603 894.003   1
  15   4   4 2377.17 1180.98   4
 -15  -4   4 2369.70 1143.21   2
  15  -4   4 2491.43 636.233   1
  15  -4  -4 2245.62 908.643   1
 -16  -4   4 700.761 871.158   2
  16  -4  -4 417.200 749.238   1
  17  -4  -4 2389.09 865.769   1
   0  -5  -4 16084.2 1102.29   3
   0  -5   4 13966.5 1306.64   2
   0   5   4 14508.7 970.957   4
   1   5   4 1292.30 538.614   4
   1  -5   4 1288.19 670.641   2
  -1  -5   4 1401.16 737.959   2
   1  -5  -4 1310.23 567.960   3
   2  -5  -4 7221.45 780.304   3
   2  -5   4 7462.48 929.347   2
  -2  -5   4 7627.70 1183.20   2
   2   5   4 8006.68 805.271   4
   3   5   4 1112.79 568.265   4
   3  -5   4 993.319 591.439   2
  -3  -5   4 1349.81 844.419   2
   3  -5  -4 1048.01 515.296   3
   4  -5  -4 6603.71 749.710   3
  -4  -5   4 6924.80 1343.39   2
   4  -5   4 6297.52 801.644   2
   4   5   4 6693.08 802.668   4
   5   5   4 874.826 560.990   4
   5  -5   4 772.796 512.113   2
  -5  -5   4 823.547 1063.51   2
   5  -5  -4 1630.01 551.824   3
   6  -5  -4 12128.0 930.696   3
   6  -5   4 11440.9 923.389   2
  -6  -5   4 11798.4 1844.59   2
   6   5   4 12010.4 1033.57   4
   7   5   4 2038.56 698.041   4
   7  -5   4 1662.90 524.510   2
  -7  -5   4 1071.14 1220.42   2
   7  -5  -4 1526.93 547.118   3
   8   5   4 4500.37 828.102   4
   8  -5  -4 5150.33 715.982   3
  -8  -5   4 5336.03 1691.92   2
   8  -5   4 4810.63 645.920   2
   9   5   4 515.630 693.305   4
   9  -5   4 2249.19 545.059   1
   9  -5   4 944.408 430.350   2
  -9  -5   4 823.913 1649.93   2
   9  -5  -4 551.361 507.434   3
  10   5   4 5174.29 982.206   4
 -10  -5   4 3088.69 1828.87   2
  10  -5  -4 3375.03 700.672   3
  10  -5   4 5114.38 660.829   1
 -11  -5   4-331.143 1673.50   2
  11  -5  -4 369.962 564.939   3
  11  -5   4 1620.15 529.941   1
  12  -5  -4 3055.34 888.235   1
 -12  -5   4 5474.63 2033.84   2
  12  -5   4 6140.73 738.797   1
  12  -5  -4 4704.14 841.065   3
  12   5   4 7765.84 1176.34   4
  13  -5  -4 297.851 706.065   1
  14  -5  -4 1531.00 813.829   1
  15  -5  -4 128.269 680.194   1
   0  -6  -4 18470.7 1325.00   3
   0  -6   4 16585.4 1499.94   2
   1  -6   4 388.091 664.428   2
  -1  -6   4 433.290 783.851   2
  -1  -6  -4 278.813 654.254   3
   1  -6  -4 108.111 586.209   3
  -2  -6  -4 13443.5 1231.82   3
   2  -6  -4 11859.3 1072.06   3
   2  -6   4 11186.7 1161.54   2
  -2  -6   4 11085.4 1462.81   2
   2   6   4 11683.6 1037.22   4
   3   6   4 1138.57 664.256   4
   3  -6   4 1000.73 642.585   2
  -3  -6   4 1357.24 1050.44   2
   3  -6  -4 503.937 614.290   3
   4  -6  -4 9476.68 983.600   3
   4  -6   4 9136.37 998.720   2
  -4  -6   4 8957.32 1620.20   2
   4   6   4 10327.3 1017.16   4
   5   6   4 783.905 658.576   4
   5  -6   4 36.8902 498.566   2
  -5  -6   4-398.314 1146.95   2
   5  -6  -4 827.662 591.705   3
   6  -6  -4 12417.6 1062.37   3
  -6  -6   4 12140.5 2124.28   2
   6  -6   4 11714.3 1002.88   2
   6   6   4 11492.6 1105.84   4
   7   6   4 361.271 684.562   4
  -7  -6   4-786.859 1558.34   2
   7  -6  -4 230.663 546.320   3
   8  -6  -4 6412.18 869.250   3
   9  -6  -4 20.7018 579.043   3
   1  -7   4 1773.84 801.184   2
   2  -7   4 1546.53 731.120   2
   3  -7   4 330.733 618.804   2
   4  -7   4 1724.64 677.639   2
   0   0   5 387.976 184.012   4
   0   0   5 649.066 271.817   1
   0   0   5 560.086 613.802   2
   1   0   5 32559.6 1635.26   2
  -1   0   5 32141.1 1704.61   2
   1   0   5 32109.0 743.352   4
  -1   0   5 33642.5 632.363   4
  -2   0   5 63.6931 621.514   2
   2   0   5 81.1566 222.713   4
   2   0  -5-24.6255 106.006   3
   2   0   5 170.780 559.874   2
   3   0  -5 5998.03 247.052   3
   3   0   5 7199.89 904.809   2
  -3   0   5 8296.78 1076.18   2
   3   0   5 7278.57 490.955   4
  -4   0   5 507.000 696.591   2
   4   0   5-176.332 558.289   2
   4   0   5-193.300 326.294   4
   5   0   5 28572.8 1529.86   2
  -5   0   5 27002.1 1809.58   2
   5   0   5 26625.7 1056.91   4
  -6   0   5 1226.18 878.332   2
   6   0   5 639.898 595.004   2
   6   0   5 228.247 439.340   4
   7   0   5 22543.7 1378.38   2
  -7   0   5 24324.2 1939.22   2
   7   0   5 20736.1 1193.02   4
  -8   0   5 1010.64 981.234   2
   8   0   5 388.823 264.562   1
   8   0   5 325.212 584.434   2
   8   0   5-253.394 684.527   4
  -9   0   5 5386.93 1329.58   2
   9   0   5 4203.78 409.704   1
   9   0   5 3829.34 743.693   2
   9   0   5 2038.89 761.315   4
 -10   0   5-35.0112 1064.80   2
  10   0   5 5.85162 264.657   1
  10   0   5-228.501 591.295   2
  10   0   5-1077.65 1049.49   4
  11   0   5 13274.7 780.574   1
  11   0   5 12800.3 1141.05   2
 -11   0   5 13548.0 2050.14   2
 -12   0   5-618.072 1307.92   2
  12   0   5-421.301 421.990   1
  12   0   5-3068.87 1467.07   4
 -13   0   5 8134.40 1806.16   2
  13   0   5 11948.9 912.969   1
 -14   0   5-1618.13 1373.19   2
  14   0   5 386.327 491.708   1
 -15   0   5 741.613 1028.81   2
  15   0   5 2012.95 656.565   1
 -16   0   5-1049.27 1027.13   2
  16   0   5-536.563 663.565   1
   0  -1   5 3483.10 761.088   2
   0   1  -5 2860.37 179.007   3
   0   1   5 3141.71 387.567   1
   0  -1   5 2965.62 153.291   4
   0   1   5 3444.55 348.679   4
   0   1   5 3947.44 873.443   2
   1   1   5 9545.56 1110.62   2
   1   1   5 10090.8 572.446   1
  -1   1   5 10193.1 1153.72   2
  -1   1   5 11127.6 688.737   1
   1  -1   5 9418.90 963.539   2
  -1  -1   5 9837.22 1039.69   2
   1  -1   5 10208.5 358.349   4
   1   1   5 9849.68 529.822   4
  -1   1   5 9920.64 487.182   4
   2  -1   5 171.489 532.738   2
   2   1   5 256.167 283.572   4
  -2  -1   5 397.159 618.126   2
   2  -1  -5 209.729 195.955   3
   2   1   5 189.789 199.600   1
   2   1   5 102.341 656.735   2
  -2   1   5 14.4437 669.041   2
   2  -1   5-31.6620 204.004   4
  -2   1   5 671.856 309.678   1
   3  -1   5 1301.90 583.993   2
   3   1   5 1208.46 367.595   4
  -3   1   5 1560.36 401.877   1
  -3  -1   5 1260.82 698.883   2
   3  -1  -5 1187.64 245.343   3
   3   1   5 1201.66 257.199   1
   3   1   5 1546.75 718.170   2
   3  -1  -5 960.578 307.371   4
  -3   1   5 1258.45 767.943   2
   3  -1   5 1075.06 290.169   4
   4   1   5 101.242 322.741   4
  -4  -1   5 128.871 659.608   2
   4  -1  -5 164.947 195.386   3
   4   1   5 387.602 666.602   2
   4  -1   5-83.5093 333.840   4
   4  -1  -5-9.44266 243.470   4
  -4   1   5 15.2579 721.367   2
   4  -1   5 165.663 524.215   2
   5  -1  -5 9235.13 478.875   3
   5   1   5 8248.31 1010.48   2
  -5   1   5 8503.80 1243.92   2
   5  -1   5 9052.16 892.780   2
  -5  -1   5 9018.16 1176.87   2
   5  -1   5 8203.66 706.613   4
   5  -1  -5 8682.02 527.823   4
   5   1   5 9060.91 681.133   4
  -6  -1   5 3760.60 1017.69   2
   6  -1  -5 3139.01 353.882   3
   6   1   5 4339.89 321.119   1
   6  -1  -5 3224.82 369.485   4
   6   1   5 3666.32 831.122   2
   6  -1   5 3453.89 670.768   2
  -6   1   5 3708.27 1065.04   2
   6   1   5 3206.61 574.597   4
   7   1   5 10064.2 476.666   1
   7   1   5 9752.14 1125.92   2
   7  -1   5 9843.76 909.667   2
  -7   1   5 9971.92 1404.87   2
  -7  -1   5 10764.8 1383.21   2
   7   1   5 9289.51 822.734   4
   7  -1  -5 10112.5 556.592   4
  -8  -1   5 277.322 904.839   2
   8   1   5 198.735 206.005   1
   8   1   5-314.671 697.522   2
   8  -1   5-137.356 515.890   2
   8   1   5-627.110 635.296   4
  -8   1   5-72.2800 911.370   2
  -9  -1   5 2268.11 1222.82   2
   9   1   5 1434.84 312.523   1
   9  -1   5 2415.81 383.245   1
   9  -1   5 1769.58 564.835   2
   9   1   5 2649.33 726.024   4
  -9   1   5 3235.84 1249.80   2
 -10  -1   5 196.380 1145.78   2
  10  -1   5 588.393 309.950   1
  10   1   5 1031.97 353.521   1
  10  -1   5 277.139 513.181   2
  10   1   5 249.998 666.081   4
 -10   1   5 241.251 1137.35   2
 -11  -1   5 7019.74 1756.72   2
  11  -1   5 6510.36 579.363   1
  11  -1   5 6263.21 802.288   2
  11   1   5 4694.03 987.515   4
 -11   1   5 7139.11 1819.54   2
  11   1   5 6568.47 684.291   1
 -12  -1   5 4135.27 1634.09   2
  12   1   5 2099.57 567.437   1
  12  -1   5 2223.97 650.479   2
  12   1   5 1501.91 866.863   4
  12  -1   5 1892.95 425.807   1
 -12   1   5 3420.89 1521.79   2
 -13  -1   5 5612.01 1777.97   2
  13  -1   5 5902.30 658.070   1
  13  -1   5 5554.50 823.966   2
  13   1   5 4219.03 1161.90   4
 -13   1   5 7877.91 1689.85   2
  14  -1   5-391.768 506.595   1
 -14  -1   5 988.887 1483.94   2
  14  -1  -5 2296.59 996.246   1
  14   1   5 25.4376 1100.19   4
 -14   1   5 1079.00 1078.69   2
 -15  -1   5 2214.92 1355.05   2
  15  -1  -5 1903.48 1023.65   1
  15  -1   5 2053.53 541.007   1
  15   1   5-161.700 1286.02   4
 -15   1   5 2670.57 1076.93   2
 -16  -1   5 1504.85 1194.25   2
  16  -1   5 1089.32 617.579   1
  16  -1  -5-160.871 1016.35   1
  16   1   5-434.589 1424.63   4
 -17  -1   5 3028.44 1208.30   2
  17  -1   5 3569.31 830.303   1
  17  -1  -5 2374.19 1303.29   1
  17   1   5 93.4426 1553.11   4
 -18  -1   5 1441.05 1012.00   2
  18  -1   5 377.832 640.925   1
  19  -1   5 1832.73 886.350   1
   0   2   5 23038.0 1785.88   2
   0  -2   5 23787.5 1434.89   2
   0   2   5 22240.4 1521.34   1
   0   2   5 23776.5 882.200   4
  -1   2  -5 10090.3 300.549   3
   1   2   5 14844.6 1461.95   2
  -1   2   5 15416.5 1547.71   2
   1  -2   5 15032.3 1142.89   2
  -1  -2   5 14992.4 1228.89   2
   1   2   5 14874.2 1128.43   1
   1  -2   5 14569.5 396.912   4
  -1   2   5 12891.7 1310.42   1
   1   2   5 14141.7 709.589   4
  -1   2   5 15346.6 712.756   4
   2  -2  -5 6356.72 476.064   3
  -2   2  -5 6565.16 339.786   3
   2  -2   5 6136.14 809.275   2
  -2  -2   5 6526.62 988.403   2
   2   2   5 5385.68 632.403   1
   2  -2   5 5543.50 386.832   4
   2  -2  -5 6252.23 574.424   4
  -2   2   5 7123.87 1106.51   1
   2   2   5 6233.59 545.579   4
   2   2   5 6131.49 1121.68   2
  -2   2   5 6461.05 1206.54   2
   3  -2  -5 7488.92 512.885   3
  -3   2  -5 7722.33 455.757   3
   3   2   5 7496.28 1164.55   2
  -3   2   5 8778.15 1411.43   2
   3  -2   5 8031.27 889.438   2
  -3  -2   5 8294.98 1126.61   2
   3   2   5 7189.65 619.178   1
   3  -2  -5 7963.96 622.693   4
  -3   2   5 8999.70 1386.50   1
   3   2   5 7443.90 612.937   4
   4  -2  -5 6463.20 486.745   3
  -4   2  -5 6121.00 508.097   3
   4   2   5 6434.21 253.171   1
   4  -2   5 6800.89 817.511   2
   4   2   5 6728.30 500.949   1
  -4  -2   5 6041.14 1073.68   2
   4  -2  -5 6856.19 585.089   4
   4   2   5 6466.67 615.391   4
  -4   2   5 6424.54 1305.66   1
   4   2   5 4902.94 1018.54   2
  -4   2   5 6606.45 1266.20   2
   5   2   5 11267.6 390.661   1
   5  -2  -5 12296.4 641.628   3
  -5   2  -5 11134.9 774.354   3
   5   2   5 10974.6 1301.19   2
  -5   2   5 10280.0 1530.91   2
   5  -2   5 11238.6 941.794   2
  -5  -2   5 12368.2 1403.72   2
   5  -2  -5 12263.7 732.731   4
   5   2   5 11972.8 824.107   4
   6  -2  -5 17959.4 787.749   3
  -6   2  -5 16569.6 1103.29   3
  -6   2   5 17881.9 2021.00   2
   6  -2   5 17564.5 1105.88   2
  -6  -2   5 17708.6 1740.02   2
   6   2   5 18678.2 1046.47   4
   6   2   5 17499.7 621.214   1
   7  -2  -5 9251.69 625.205   3
   7  -2   5 9366.45 869.989   2
  -7  -2   5 8160.68 1412.22   2
   7   2   5 9443.36 845.983   4
  -7   2   5 8319.10 1658.86   2
  -8  -2   5 3592.13 1259.37   2
   8  -2  -5 3979.56 487.187   3
   8  -2   5 4392.44 691.795   2
   8   2   5 4584.80 732.507   4
  -8   2   5 4006.99 1576.32   2
  -9  -2   5 3607.05 1316.63   2
   9  -2   5 4003.56 669.359   2
  -9   2   5 3182.30 1631.33   2
   9   2   5 3698.08 748.574   4
 -10  -2   5 2568.39 1344.55   2
  10  -2  -5 5497.58 804.390   1
  10  -2   5 3966.11 498.685   1
 -10   2   5 2102.76 1748.31   2
  10  -2   5 3238.27 628.358   2
  10   2   5 2143.93 705.897   4
 -11  -2   5 4356.53 1574.71   2
  11  -2  -5 6745.11 979.511   1
  11  -2   5 4754.62 553.946   1
  11  -2   5 4056.88 671.834   2
 -11   2   5 4531.46 1850.63   2
  11   2   5 3449.95 883.562   4
 -12  -2   5 8991.81 1959.17   2
  12  -2   5 8977.88 724.472   1
  12  -2  -5 11645.8 1282.65   1
  12  -2   5 9487.24 913.178   2
 -12   2   5 7603.20 1807.16   2
  12   2   5 6921.83 1153.42   4
 -13  -2   5 2880.81 1568.88   2
  13  -2   5 3290.14 554.360   1
  13  -2  -5 5055.34 1086.80   1
  13  -2   5 3514.99 654.401   2
 -13   2   5 2995.89 1302.30   2
  13   2   5 938.356 982.389   4
  14  -2   5 1428.84 492.523   1
  14  -2  -5 2838.52 1096.39   1
  14  -2   5 2176.09 607.461   2
 -15  -2   5 3216.85 1464.30   2
  15  -2   5 410.001 505.925   1
  15  -2  -5 2446.69 1257.29   1
  15   2   5 2790.60 1112.30   4
 -16  -2   5 2412.95 1240.63   2
  16  -2  -5 761.513 1161.15   1
  16  -2   5-369.798 638.169   1
  16   2   5 2365.49 1289.25   4
 -17  -2   5 1946.89 1096.53   2
  17  -2   5 2461.84 720.882   1
 -18  -2   5 3547.03 1113.38   2
  18  -2   5 3946.75 898.768   1
   0  -3   5 14032.6 1242.67   2
   0   3   5 13757.8 791.017   4
   1   3   5 755.385 389.864   4
  -1   3   5 835.781 400.478   4
   1  -3   5 1139.25 643.690   2
  -1  -3   5 898.157 659.874   2
   2  -3  -5 4369.41 512.718   3
  -2  -3   5 4471.93 922.083   2
   2  -3   5 4682.35 803.139   2
  -2   3   5 2495.42 1204.85   2
   2   3   5 4006.73 538.255   4
   3   3   5 2830.51 526.765   4
   3  -3   5 2845.79 644.194   2
   3  -3  -5 2771.43 440.902   3
  -3  -3   5 3029.03 925.090   2
  -3   3   5 2210.05 1229.38   2
   4  -3   5 3460.96 663.052   2
   4  -3  -5 3567.69 466.024   3
  -4  -3   5 3774.03 966.770   2
  -4   3   5 2182.81 1305.46   2
   4   3   5 3787.19 576.359   4
   5   3   5 805.607 499.790   4
   5  -3   5 941.752 529.757   2
  -5  -3   5-19.3778 887.092   2
   5  -3  -5 1134.95 368.028   3
  -5   3   5-47.1816 1380.48   2
   6  -3  -5 12818.3 779.559   3
   6  -3   5 12973.4 1006.06   2
  -6  -3   5 11726.3 1553.78   2
   6   3   5 13452.4 962.603   4
  -6   3   5 10717.3 2187.67   2
   7  -3   5 679.013 485.509   2
   7   3   5 958.114 567.873   4
  -7  -3   5-491.539 1084.87   2
   7  -3  -5 525.059 389.075   3
  -7   3   5 362.138 1636.17   2
  -8  -3   5 2439.94 1219.84   2
   8  -3  -5 4047.47 541.266   3
   8  -3  -5 5561.61 670.586   1
   8  -3   5 4879.37 683.706   2
   8   3   5 5169.41 807.796   4
  -8   3   5 4536.04 2140.95   2
   9   3   5 1921.91 713.502   4
  -9  -3   5 488.068 1127.46   2
   9  -3  -5 998.809 448.891   3
   9  -3  -5 2693.95 589.049   1
  -9   3   5-361.919 1773.20   2
   9  -3   5 1105.37 510.692   2
  10   3   5 3106.53 818.349   4
 -10  -3   5 3183.34 1499.54   2
  10  -3  -5 3133.63 567.449   3
  10  -3  -5 5694.05 817.173   1
  10  -3   5 4801.73 569.989   1
 -10   3   5 3341.28 1603.99   2
  10  -3   5 3426.43 612.977   2
  11   3   5 449.355 750.756   4
 -11  -3   5-488.973 1342.56   2
  11  -3  -5 1557.86 752.696   1
 -11   3   5-111.798 1243.96   2
  11  -3   5 1364.56 443.392   1
  11  -3   5 329.642 455.694   2
  12   3   5 6912.57 1114.28   4
 -12  -3   5 4213.19 1521.06   2
  12  -3   5 8536.00 751.901   1
  12  -3  -5 9880.59 1263.48   1
  12  -3   5 7956.41 829.993   2
 -12   3   5 4179.75 1319.12   2
  13   3   5-51.2939 852.040   4
 -13  -3   5-1613.90 1551.40   2
  13  -3   5 545.457 427.308   1
  13  -3  -5 913.127 905.056   1
  14  -3   5 3123.97 607.984   1
 -14  -3   5 134.271 1400.58   2
  14  -3  -5 3375.18 1215.99   1
  14   3   5 1059.83 999.762   4
 -15  -3   5 182.520 1135.59   2
  15  -3   5 10.0442 476.700   1
  15  -3  -5-741.008 1194.95   1
  15   3   5-1163.62 1150.79   4
  16  -3   5 1433.37 589.419   1
  16  -3  -5 515.683 1015.07   1
  17  -3  -5-1254.85 1104.60   1
   0  -4   5 23838.8 1600.45   2
   0   4   5 23800.6 1141.90   4
   1   4   5 851.460 464.908   4
   1  -4   5 799.274 639.897   2
  -1  -4   5 741.600 725.465   2
   1  -4  -5 1036.50 483.000   3
   2  -4  -5 16573.6 974.148   3
   2  -4   5 14712.8 1246.29   2
  -2  -4   5 16079.5 1466.41   2
   2   4   5 15937.1 981.093   4
   3   4   5 234.524 473.572   4
   3  -4   5 182.809 565.875   2
  -3  -4   5-155.766 758.020   2
   3  -4  -5 190.085 417.992   3
   4  -4  -5 13668.5 898.970   3
   4  -4   5 13455.3 1131.14   2
  -4  -4   5 13569.1 1556.58   2
   4   4   5 13190.8 970.132   4
   5   4   5 810.299 531.098   4
   5  -4   5 894.941 555.809   2
  -5  -4   5 2172.88 1062.36   2
   5  -4  -5 1037.73 452.228   3
   6  -4  -5 16354.3 964.866   3
   6  -4   5 15909.6 1110.04   2
   6   4   5 16928.4 1148.98   4
   7   4   5 84.0718 574.385   4
   7  -4   5 887.990 529.435   2
  -7  -4   5 2217.04 1245.87   2
   7  -4  -5 933.450 466.542   3
   8  -4  -5 9724.42 841.959   3
   8  -4   5 9681.08 906.498   2
  -8  -4   5 10675.0 1801.97   2
   8   4   5 10778.7 1038.49   4
   9  -4   5 136.668 441.242   2
   9   4   5 1698.63 734.478   4
  -9  -4   5 1083.65 1430.84   2
   9  -4  -5 140.124 455.134   3
 -10  -4   5 7086.45 1863.28   2
  10  -4  -5 5490.03 732.677   3
  10  -4   5 6531.20 745.395   2
  10  -4   5 8081.35 724.788   1
  10   4   5 7685.29 1052.88   4
  11   4   5 1837.67 830.515   4
 -11  -4   5 1308.66 1427.65   2
  11  -4  -5-303.220 578.714   3
  11  -4   5 1302.60 463.687   1
  12  -4   5 7729.97 763.287   1
  12  -4  -5 6267.52 1147.67   1
  12   4   5 9520.86 1285.56   4
  13  -4  -5 933.952 930.944   1
  14  -4  -5 3587.78 1251.35   1
  15  -4  -5-975.096 1031.19   1
   0  -5  -5 5033.46 792.543   3
   0  -5   5 3756.19 886.463   2
   1   5   5 3875.00 676.116   4
   1  -5   5 2912.26 805.455   2
  -1  -5   5 2817.17 856.335   2
   1  -5  -5 4107.80 736.736   3
   2   5   5 3206.38 665.441   4
   2  -5   5 3001.70 788.881   2
  -2  -5   5 4301.93 1028.21   2
   2  -5  -5 3567.82 693.234   3
   3   5   5 1332.53 600.741   4
   3  -5   5 1398.01 666.734   2
  -3  -5   5 2347.62 1017.28   2
   3  -5  -5 1064.73 565.483   3
   4   5   5 3387.20 704.336   4
   4  -5   5 3340.74 789.773   2
  -4  -5   5 4506.96 1228.79   2
   4  -5  -5 3087.53 657.716   3
   5   5   5 2996.91 711.211   4
   5  -5   5 3432.25 756.521   2
   5  -5  -5 3633.42 652.537   3
  -5  -5   5 4970.83 1352.25   2
   6   5   5 3014.14 736.618   4
   6  -5   5 3388.59 688.083   2
   6  -5  -5 3372.84 632.905   3
  -6  -5   5 5096.98 1453.27   2
   7   5   5 3115.73 797.533   4
   7  -5   5 2773.72 641.581   2
  -7  -5   5 4574.11 1546.02   2
   7  -5  -5 2565.31 613.162   3
   8   5   5 2274.51 736.375   4
   8  -5   5 2089.74 588.627   2
  -8  -5   5 3096.47 1448.56   2
   8  -5  -5 1995.46 576.567   3
   9   5   5 845.510 717.987   4
   9  -5  -5 1182.70 573.971   3
  10  -5  -5 1467.42 625.055   3
  11  -5  -5 1295.48 619.116   3
   0  -6   5 628.803 775.967   2
   0  -6  -5 684.206 743.440   3
  -1  -6  -5 10734.0 1214.22   3
   1  -6  -5 10130.0 1103.45   3
   1  -6   5 8653.50 1176.73   2
  -1  -6   5 9223.35 1312.33   2
   2  -6   5 1902.58 774.420   2
   2  -6  -5 1521.39 722.290   3
   3  -6  -5 7632.87 989.933   3
   3  -6   5 5329.21 932.194   2
   4  -6   5 1442.08 678.783   2
   4  -6  -5 1381.89 670.326   3
   5  -6   5 6927.62 945.501   2
   6  -6   5 835.730 615.574   2
   0   0   6 67245.5 2663.58   2
   1   0   6 365.826 751.611   2
  -1   0   6 331.869 769.226   2
   2   0   6 37330.5 1982.99   2
  -2   0   6 37582.5 2152.36   2
   2   0   6 36821.4 895.089   4
   3   0   6 737.937 302.205   4
   3   0   6 838.352 722.175   2
  -3   0   6 982.070 853.945   2
   4   0   6 34045.4 1872.82   2
  -4   0   6 32547.8 2152.74   2
   4   0   6 32152.3 1015.73   4
   5   0   6 125.319 335.121   4
  -5   0   6 222.352 847.384   2
   5   0   6 198.340 657.680   2
   6   0   6 43043.5 2079.39   2
  -6   0   6 42296.7 2627.84   2
   6   0   6 43132.1 1406.23   4
  -7   0   6 454.858 957.825   2
   7   0   6 582.713 741.303   2
   7   0   6-290.391 462.088   4
   8   0   6 22042.5 1555.87   2
   8   0   6 25275.2 901.689   1
  -8   0   6 21922.9 2241.99   2
   8   0   6 20521.1 1190.39   4
  -9   0   6 48.8622 1200.36   2
   9   0   6 298.783 246.882   1
   9   0   6 85.5903 632.444   2
   9   0   6 1162.36 620.301   4
  10   0   6 10064.5 637.301   1
  10   0   6 14020.8 1319.90   2
 -10   0   6 14247.5 2256.52   2
  10   0   6 12415.6 1166.47   4
 -11   0   6 266.913 1436.64   2
  11   0   6-20.8232 300.862   1
  11   0   6-527.721 738.732   2
  11   0   6-263.199 695.309   4
 -12   0   6 17071.4 2613.47   2
  12   0   6 12232.5 1439.37   4
 -13   0   6 1927.31 1708.27   2
  13   0   6-409.898 1026.42   4
 -14   0   6 9821.65 2012.43   2
  14   0   6 3811.63 1213.41   4
 -15   0   6 1430.45 1298.23   2
  15   0   6-1685.86 1417.90   4
 -16   0   6 4722.39 1375.95   2
  16   0   6 1044.58 1395.98   4
   0   1   6 27414.2 1935.53   2
   0  -1   6 26701.0 1702.06   2
   0   1   6 26663.5 818.290   4
   1  -1  -6 10085.2 501.328   3
   1   1   6 9704.55 1260.35   2
  -1   1   6 10013.9 1329.00   2
   1  -1   6 10644.2 1153.20   2
  -1  -1   6 9842.81 1205.02   2
   1   1   6 9945.67 572.127   4
   2  -1  -6 15249.2 590.791   3
   2   1   6 13506.0 1409.94   2
  -2   1   6 15627.4 1587.22   2
   2  -1   6 15248.0 1290.54   2
  -2  -1   6 15409.7 1453.82   2
   2   1   6 14710.2 699.598   4
  -3  -1   6 5772.57 1092.73   2
   3  -1  -6 6413.11 409.142   3
   3   1   6 5958.88 1094.50   2
   3  -1   6 5980.32 950.087   2
   3   1   6 5768.42 518.721   4
  -3   1   6 7254.38 1265.81   2
   4   1   6 14696.7 1444.04   2
  -4   1   6 13069.5 1583.30   2
   4  -1   6 13939.8 1231.38   2
  -4  -1   6 16046.3 1628.88   2
   4   1   6 13352.9 758.136   4
   5   1   6 8592.05 1192.88   2
  -5   1   6 8444.74 1431.33   2
   5  -1   6 8645.55 1029.76   2
  -5  -1   6 10997.2 1549.17   2
   5  -1   6 7868.65 583.215   4
   5   1   6 8434.49 695.074   4
   6   1   6 18891.9 1579.48   2
   6  -1   6 21176.5 1437.91   2
  -6   1   6 19777.7 2046.79   2
   6   1   6 22930.2 704.644   1
  -6  -1   6 22005.5 2034.82   2
   6  -1   6 20188.6 982.048   4
   6   1   6 20650.0 1041.37   4
   7  -1   6 6419.56 935.319   2
  -7  -1   6 7395.79 1462.98   2
   7  -1   6 6192.74 700.401   4
   7   1   6 6617.76 736.851   4
   7   1   6 6742.02 1112.56   2
  -7   1   6 7152.68 1498.60   2
   8   1   6 8968.52 1200.40   2
   8  -1   6 8987.88 1021.69   2
  -8  -1   6 10319.1 1700.93   2
   8  -1   6 7972.34 872.364   4
   8   1   6 8996.32 856.402   4
  -8   1   6 8781.70 1745.66   2
  -9  -1   6 4024.39 1513.07   2
   9  -1   6 3662.96 487.839   1
   9   1   6 2119.48 823.535   2
   9  -1   6 2370.19 714.985   2
   9  -1   6 2235.85 719.413   4
  -9   1   6 3137.41 1507.99   2
   9   1   6 2500.75 678.670   4
 -10  -1   6 8729.70 1939.52   2
  10  -1   6 8002.19 633.842   1
  10  -1   6 8141.22 1033.99   2
  10   1   6 6378.13 944.346   4
  10  -1   6 4680.31 935.897   4
 -10   1   6 7634.49 1956.64   2
 -11  -1   6 5713.97 1921.24   2
  11  -1   6 4085.19 523.031   1
  11  -1   6 3553.93 788.711   2
  11  -1   6 889.355 881.787   4
 -11   1   6 4614.47 1861.93   2
  11   1   6 2818.90 819.696   4
 -12  -1   6 8102.19 2114.39   2
  12  -1   6 9455.31 739.639   1
  12  -1   6 9479.76 1091.61   2
  12  -1   6 4298.97 1127.82   4
 -12   1   6 9491.17 2237.19   2
  12   1   6 5934.17 1070.11   4
 -13  -1   6-24.9515 1651.42   2
  13  -1   6 2559.89 521.437   1
  13  -1   6 2292.13 737.991   2
 -13   1   6 2532.55 1512.39   2
  13   1   6 2350.52 968.887   4
 -14  -1   6 1595.74 1640.98   2
  14  -1   6 3482.39 613.435   1
 -14   1   6 3464.65 1417.86   2
  14   1   6 4341.89 1185.92   4
 -15  -1   6-1457.14 1515.61   2
  15   1   6 847.195 1036.20   4
 -16  -1   6 269.403 1164.49   2
  16   1   6 2357.42 1280.51   4
   0   2   6 9919.06 1480.93   2
   0  -2   6 8961.89 1143.66   2
   0   2   6 8283.78 604.893   4
   1  -2  -6 30708.2 998.703   3
   1   2   6 30080.4 2193.23   2
  -1   2   6 31858.2 2345.81   2
   1  -2   6 33023.3 1848.25   2
  -1  -2   6 32127.5 1916.66   2
   1   2   6 31210.8 1078.79   4
   2  -2  -6 5656.45 477.587   3
   2  -2   6 5844.03 941.792   2
  -2  -2   6 6192.29 1074.13   2
   2   2   6 5687.36 1176.08   2
   2   2   6 5604.35 557.776   4
  -2   2   6 7021.89 1428.94   2
   3  -2  -6 18333.7 785.898   3
   3   2   6 18992.9 1809.35   2
  -3   2   6 18906.7 2049.00   2
   3  -2   6 17915.8 1359.00   2
  -3  -2   6 20586.4 1696.72   2
   3   2   6 17969.4 899.603   4
   4  -2   6 4841.31 825.250   2
  -4  -2   6 5682.69 1160.63   2
   4  -2  -6 5566.72 484.068   3
   4   2   6 5052.08 591.360   4
   4   2   6 5472.82 1183.11   2
  -4   2   6 5845.53 1474.16   2
   5  -2  -6 25152.8 927.273   3
   5   2   6 22481.3 1868.47   2
  -5   2   6 23282.6 2378.42   2
   5  -2   6 24848.7 1498.58   2
  -5  -2   6 24974.0 2030.33   2
   5   2   6 23573.2 1117.66   4
   6  -2   6 6275.83 893.057   2
  -6  -2   6 7669.73 1431.98   2
   6   2   6 6107.15 723.724   4
  -6   2   6 5297.62 1588.44   2
  -7   2   6 18705.9 2447.85   2
   7  -2   6 20222.6 1357.55   2
  -7  -2   6 20540.1 2080.08   2
   7   2   6 20561.6 1177.31   4
  -8  -2   6 3968.03 1437.05   2
   8   2   6 4358.69 753.007   4
  -8   2   6 2984.83 1618.32   2
   8  -2   6 3619.58 749.715   2
   9  -2   6 9138.29 999.492   2
  -9  -2   6 10207.4 1976.81   2
   9   2   6 9358.52 1003.46   4
  -9   2   6 11253.0 2406.43   2
  10   2   6 1953.52 716.956   4
 -10  -2   6 4062.42 1672.88   2
  10  -2   6 3286.95 521.638   1
 -10   2   6 1651.20 1906.34   2
  10  -2   6 2184.72 675.133   2
 -11  -2   6 11178.0 2378.31   2
  11  -2   6 10523.6 766.278   1
  11  -2   6 9551.11 1022.51   2
  11   2   6 8932.42 1105.08   4
 -11   2   6 7355.04 2182.83   2
 -12  -2   6 2168.75 1603.98   2
  12  -2   6 2865.04 526.720   1
  12  -2   6 2411.15 726.485   2
 -12   2   6 2295.66 1604.97   2
  12   2   6 1308.72 821.053   4
 -13  -2   6 7197.91 2071.79   2
  13  -2   6 6569.20 717.158   1
  13  -2   6 7060.27 958.966   2
 -13   2   6 5390.52 1656.14   2
  13   2   6 6276.85 1148.27   4
 -14  -2   6 1497.29 1673.86   2
  14  -2   6 1046.28 482.808   1
  14   2   6-222.337 1028.27   4
  15  -2   6 2072.71 590.469   1
  16  -2   6-767.542 645.443   1
   0   3   6 914.493 422.011   4
   0  -3   6 1248.09 759.137   2
   1  -3  -6 16042.0 872.461   3
  -1   3   6 13784.7 1958.94   2
   1  -3   6 15999.6 1374.95   2
  -1  -3   6 18109.0 1556.07   2
   1   3   6 15924.7 902.184   4
   2   3   6 413.748 421.645   4
   2  -3   6 555.693 662.377   2
  -2  -3   6 828.489 847.794   2
   2  -3  -6 360.276 333.739   3
  -2   3   6-401.709 1315.36   2
   3  -3  -6 8805.90 683.703   3
   3  -3   6 10134.6 1129.18   2
  -3  -3   6 10392.1 1415.95   2
  -3   3   6 7663.00 1840.90   2
   3   3   6 9273.78 774.802   4
   4  -3   6 613.761 616.918   2
   4   3   6 177.784 429.322   4
  -4  -3   6 1329.45 1013.43   2
   4  -3  -6 496.747 354.081   3
  -4   3   6-815.389 1521.09   2
   5  -3  -6 13706.1 789.103   3
   5  -3   6 13715.0 1186.45   2
  -5  -3   6 15599.4 1796.73   2
   5   3   6 13605.9 970.132   4
  -5   3   6 13302.9 2381.02   2
   6  -3   6 1039.30 639.280   2
   6   3   6 290.641 507.688   4
  -6  -3   6 454.146 961.715   2
   6  -3  -6 771.114 391.436   3
  -6   3   6 444.486 1684.46   2
   7  -3  -6 12226.8 817.055   3
   7  -3   6 11566.7 1067.42   2
  -7  -3   6 12523.8 1853.31   2
   7   3   6 13127.8 1048.26   4
  -7   3   6 11132.2 2711.72   2
   8   3   6 1131.74 636.320   4
  -8  -3   6-67.9162 1200.77   2
  -8   3   6-1824.42 2438.21   2
   8  -3   6 204.537 519.882   2
  -9  -3   6 6159.73 1636.51   2
   9  -3   6 5933.59 858.730   2
   9   3   6 6690.57 938.566   4
  -9   3   6 4531.72 2364.30   2
  10   3   6 881.770 707.481   4
  10  -3   6 855.775 411.121   1
 -10  -3   6-168.018 1470.86   2
 -10   3   6-1983.84 1904.69   2
  10  -3   6 282.641 534.343   2
 -11  -3   6 5890.21 1858.17   2
  11  -3   6 8173.40 747.036   1
  11  -3   6 7722.93 916.795   2
  11   3   6 8013.42 1128.34   4
 -11   3   6 4363.38 1787.04   2
  12   3   6 930.449 806.602   4
  12  -3   6 728.617 440.518   1
  12  -3   6-237.633 551.960   2
  13   3   6 5902.19 1176.02   4
  13  -3   6 6139.93 725.974   1
   0  -4  -6 7491.86 783.195   3
   0  -4   6 7892.55 1182.33   2
   1  -4  -6 11657.3 896.557   3
   1  -4   6 9907.44 1209.85   2
  -1  -4   6 10847.8 1348.87   2
   1   4   6 10542.9 879.344   4
   2   4   6 3265.11 626.306   4
   2  -4   6 3668.99 876.118   2
  -2  -4   6 4495.75 1130.66   2
   2  -4  -6 3287.63 590.266   3
   3  -4  -6 7866.87 746.050   3
   3  -4   6 8510.81 1080.60   2
  -3  -4   6 8284.60 1331.40   2
   3   4   6 7942.62 839.017   4
   4   4   6 3177.95 673.475   4
   4  -4   6 3220.23 770.568   2
  -4  -4   6 3293.57 1160.39   2
   4  -4  -6 3429.77 573.637   3
  -5  -4   6 8597.32 1509.04   2
   5  -4  -6 8997.65 775.015   3
   5  -4   6 9198.88 1067.70   2
   5   4   6 9277.33 920.713   4
   6   4   6 4571.37 775.249   4
  -6  -4   6 3852.59 1328.67   2
   6  -4  -6 4273.37 618.719   3
   6  -4   6 5098.42 872.516   2
   7  -4  -6 7115.92 731.146   3
   7  -4   6 7287.05 935.750   2
   7   4   6 6989.85 915.717   4
   8  -4   6 2798.82 706.977   2
   8   4   6 2179.30 731.035   4
   8  -4  -6 1832.48 515.360   3
   9   4   6 3461.55 837.302   4
   9  -4   6 3898.50 737.661   2
  10   4   6 2815.00 822.771   4
  10  -4   6 1179.76 590.543   2
   0  -5  -6 6447.85 882.879   3
   1  -5   6 644.528 767.133   2
  -1  -5  -6 571.885 625.967   3
   1  -5  -6 699.654 581.418   3
   2  -5   6 4985.45 1028.35   2
   2  -5  -6 4240.90 732.857   3
   2   5   6 4324.44 756.413   4
   3   5   6 1190.03 614.938   4
   3  -5   6 1102.02 748.563   2
   3  -5  -6 771.248 554.792   3
   4   5   6 3684.27 772.586   4
   4  -5   6 3834.72 835.817   2
   4  -5  -6 3670.94 677.658   3
   5   5   6 1060.05 656.295   4
   5  -5   6 719.560 611.420   2
   5  -5  -6 816.712 507.397   3
   6  -5   6 4481.54 838.689   2
   6  -5  -6 4487.70 701.165   3
   7  -5   6 494.364 591.188   2
   7  -5  -6 701.513 507.048   3
   8  -5  -6 2393.22 612.156   3
   0   0   7 26.5858 750.534   2
   1   0   7 6750.40 1185.93   2
  -1   0   7 6319.44 1224.06   2
   2   0   7 168.342 808.186   2
  -2   0   7 487.958 831.649   2
   3   0   7 3177.17 977.730   2
  -3   0   7 4714.24 1234.91   2
   4   0   7 89.2078 751.041   2
  -4   0   7-478.813 964.224   2
   5   0   7 5646.88 1042.21   2
  -5   0   7 6876.51 1403.01   2
   6   0   7 101.867 716.822   2
  -6   0   7 1014.57 1109.40   2
   7   0   7 5518.04 1106.01   2
  -7   0   7 5341.12 1540.57   2
   8   0   7-36.2898 713.984   2
  -8   0   7 1051.39 1336.60   2
   9   0   7 2064.13 839.495   2
  -9   0   7 2976.27 1553.28   2
  10   0   7-366.051 820.043   2
 -10   0   7 535.843 1541.91   2
  11   0   7 2622.93 921.589   2
 -11   0   7 2193.36 1836.71   2
 -12   0   7-914.260 1689.06   2
   0   1   7 579.405 889.815   2
   0  -1   7 1398.97 900.126   2
   1   1   7 3018.57 1025.36   2
  -1   1   7 3699.50 1156.22   2
   1  -1   7 3949.95 1006.71   2
  -1  -1   7 3649.02 995.957   2
  -2  -1   7 27.6812 857.130   2
   2   1   7 931.627 942.226   2
  -2   1   7 499.642 1028.02   2
   2  -1   7 558.842 777.420   2
  -3  -1   7 2012.62 931.687   2
   3   1   7 2795.48 1036.55   2
  -3   1   7 2168.02 1047.16   2
   3  -1   7 1670.08 837.646   2
  -4  -1   7-360.091 983.217   2
   4   1   7 553.705 877.547   2
  -4   1   7 90.7106 953.407   2
   4  -1   7-3.94537 713.004   2
  -5  -1   7 3407.71 1230.26   2
   5   1   7 3672.12 1087.29   2
  -5   1   7 3033.36 1244.89   2
   5  -1   7 3438.45 878.229   2
  -6  -1   7-67.9262 1115.24   2
   6   1   7 207.829 862.556   2
   6  -1   7 973.549 779.808   2
  -6   1   7 376.768 1161.31   2
  -7  -1   7 3586.48 1468.63   2
   7   1   7 2488.72 987.932   2
   7  -1   7 3044.58 824.356   2
  -7   1   7 2651.30 1407.15   2
  -8  -1   7-1168.24 1410.61   2
   8   1   7-313.220 796.693   2
   8  -1   7-37.2593 686.981   2
  -8   1   7-392.599 1331.48   2
  -9  -1   7 42.1677 1357.34   2
   9   1   7 1052.79 915.739   2
   9  -1   7 1363.13 778.230   2
  -9   1   7 2193.30 1654.90   2
 -10  -1   7-336.900 1619.93   2
  10  -1   7 68.5485 705.904   2
 -10   1   7 839.285 1612.51   2
  11  -1   7 1658.13 810.598   2
 -11   1   7 433.653 1575.54   2
  12  -1   7 369.001 702.494   2
 -12   1   7-608.952 1750.84   2
 -13   1   7-137.359 1412.53   2
   0  -2   7 4968.87 1061.41   2
   0   2   7 5236.76 1294.37   2
   1  -2   7 3344.77 877.132   2
  -1  -2   7 3456.11 1051.16   2
   1   2   7 2472.48 1195.60   2
  -1   2   7 3043.03 1249.32   2
   2  -2   7 2857.64 821.787   2
  -2  -2   7 2092.44 908.269   2
   2   2   7 1432.93 950.886   2
  -2   2   7 2335.85 1286.37   2
  -3  -2   7 3116.32 1133.38   2
   3   2   7 2585.62 1159.86   2
  -3   2   7 3601.10 1424.93   2
   3  -2   7 2219.36 828.285   2
  -4  -2   7 3006.73 1123.25   2
   4   2   7 1156.98 1016.44   2
  -4   2   7 3164.74 1469.21   2
   4  -2   7 2584.49 856.977   2
  -5  -2   7 3832.59 1237.32   2
   5   2   7 3070.32 1097.92   2
  -5   2   7 2763.20 1497.88   2
   5  -2   7 2514.58 787.061   2
  -6  -2   7 4168.02 1299.03   2
  -6   2   7 2893.68 1496.13   2
   6  -2   7 3668.65 894.203   2
  -7   2   7 3259.11 1830.39   2
   7  -2   7 2369.91 772.663   2
  -8   2   7 1395.28 1547.03   2
   8  -2   7 1890.73 734.459   2
  -9   2   7 1652.40 1912.17   2
   9  -2   7 811.813 674.638   2
  10   2   7 1426.83 669.244   4
  10  -2   7 2070.30 481.763   1
 -10   2   7 1905.80 1990.13   2
  10  -2   7 914.609 659.787   2
  11   2   7 1366.42 723.714   4
  11  -2   7 1805.74 458.683   1
  11  -2   7 1162.32 739.940   2
 -11   2   7 1052.97 1775.95   2
  12  -2   7 1971.48 736.722   2
   0  -3   7 4446.15 1075.15   2
   1  -3   7 118.856 702.802   2
   2  -3   7 2827.93 860.518   2
  -2   3   7 2496.76 1363.13   2
   3  -3   7 734.771 706.481   2
  -3   3   7 188.239 1368.44   2
   4  -3   7 2206.01 805.247   2
  -4   3   7 784.836 1562.31   2
   5  -3   7 594.489 653.804   2
  -5   3   7-1110.32 1669.98   2
   6   3   7 3479.87 673.471   4
  -6   3   7 3833.09 2132.52   2
   6  -3   7 3563.38 869.682   2
   7   3   7 468.787 548.209   4
  -7   3   7-397.327 2011.84   2
   7  -3   7 291.106 661.319   2
   8   3   7 1817.55 679.169   4
  -8   3   7 1659.41 2311.54   2
   8  -3   7 2131.04 743.727   2
   9   3   7-526.147 640.669   4
  -9   3   7-1142.16 2352.58   2
   9  -3   7 59.0723 628.890   2
  -2  -4  -7 4978.11 736.322   3
   4   4   7 4023.47 708.457   4
   5   4   7 643.479 566.532   4
   0   0   0    0.00    0.00   0

TITL MHy_PbBr3_HT_3_380_00-abs in Pmmn
REM Pmmn (#59, found as Pnmm in -cba setting)
CELL 0.71073  18.159653   6.052644   6.036808  90.0000  90.0000  90.0000
ZERR    2.00   0.001184   0.000332   0.000331   0.0000   0.0000   0.0000
LATT  1
SYMM -x+1/2,-y, z
SYMM -x, y+1/2,-z
SYMM  x+1/2,-y+1/2,-z
SFAC C H N Br Pb
UNIT 8.00 56.00 16.00 16.00 4.00
TREF
HKLF 4
END
;
_shelx_hkl_checksum              33718
loop_
_space_group_symop_operation_xyz
'x, y, z'
'-x+1/2, y, -z+1/2'
'-x, -y, z+1/2'
'x+1/2, -y, -z'
'-x, -y, -z'
'x-1/2, -y, z-1/2'
'x, y, -z-1/2'
'-x-1/2, y, z'
loop_
_atom_site_label
_atom_site_type_symbol
_atom_site_fract_x
_atom_site_fract_y
_atom_site_fract_z
_atom_site_U_iso_or_equiv
_atom_site_adp_type
_atom_site_occupancy
_atom_site_site_symmetry_order
_atom_site_calc_flag
_atom_site_refinement_flags_posn
_atom_site_refinement_flags_adp
_atom_site_refinement_flags_occupancy
_atom_site_disorder_assembly
_atom_site_disorder_group
Pb1 Pb 0.250000 0.92110(9) 0.750000 0.0381(3) Uani 1 4 d S T P . .
Br1 Br 0.250000 0.8745(4) 0.250000 0.0658(7) Uani 1 4 d S T P . .
Br2 Br 0.08559(10) 0.9077(3) 0.750000 0.0790(6) Uani 1 2 d S T P . .
Br3 Br 0.250000 0.4323(3) 0.750000 0.0924(11) Uani 1 4 d S T P . .
N1 N 0.0245(17) 0.639(4) 0.250000 0.155(11) Uani 1 2 d DS T P . .
N2 N 0.0839(13) 0.527(4) 0.172(4) 0.111(10) Uani 0.5 1 d D . P . .
H2A H 0.120296 0.625439 0.170525 0.134 Uiso 0.5 1 calc R U P . .
H2B H 0.073570 0.499538 0.030283 0.134 Uiso 0.5 1 calc R U P . .
C3 C 0.1152(15) 0.336(4) 0.250000 0.114(9) Uani 1 2 d DS T P . .
H3A H 0.082580 0.213883 0.222763 0.171 Uiso 0.5 1 calc R U P . .
H3B H 0.123729 0.349209 0.406353 0.171 Uiso 0.5 1 calc R U P . .
H3C H 0.161137 0.310405 0.175571 0.171 Uiso 0.5 1 calc R U P . .
loop_
_atom_site_aniso_label
_atom_site_aniso_U_11
_atom_site_aniso_U_22
_atom_site_aniso_U_33
_atom_site_aniso_U_23
_atom_site_aniso_U_13
_atom_site_aniso_U_12
Pb1 0.0478(5) 0.0343(4) 0.0323(4) 0.000 0.000 0.000
Br1 0.0981(19) 0.0675(12) 0.0317(9) 0.000 0.000 0.000
Br2 0.0514(10) 0.0908(13) 0.0946(13) 0.000 0.000 0.0045(8)
Br3 0.163(3) 0.0340(11) 0.0800(17) 0.000 0.000 0.000
N1 0.21(3) 0.118(15) 0.14(2) 0.000 0.000 0.087(19)
N2 0.11(2) 0.118(19) 0.10(2) 0.005(15) 0.010(15) -0.020(17)
C3 0.11(2) 0.13(2) 0.096(15) 0.000 0.000 0.050(17)
loop_
_atom_type_symbol
_atom_type_description
_atom_type_scat_dispersion_real
_atom_type_scat_dispersion_imag
_atom_type_scat_source
C C 0.0033 0.0016 'International Tables Vol C Tables 4.2.6.8 and 6.1.1.4'
H H 0.0000 0.0000 'International Tables Vol C Tables 4.2.6.8 and 6.1.1.4'
N N 0.0061 0.0033 'International Tables Vol C Tables 4.2.6.8 and 6.1.1.4'
Br Br -0.2901 2.4595 'International Tables Vol C Tables 4.2.6.8 and 6.1.1.4'
Pb Pb -3.3944 10.1111 'International Tables Vol C Tables 4.2.6.8 and 6.1.1.4'
loop_
_exptl_crystal_face_index_h
_exptl_crystal_face_index_k
_exptl_crystal_face_index_l
_exptl_crystal_face_perp_dist
-10 -9 1 0.1264
-24 0 0 0.0536
24 0 0 0.0604
6 10 2 0.0843
-22 4 1 0.0658
-3 0 -8 0.1267
2 -1 8 0.1436
4 8 0 0.0933
loop_
_geom_angle_atom_site_label_1
_geom_angle_atom_site_label_2
_geom_angle_atom_site_label_3
_geom_angle
_geom_angle_site_symmetry_1
_geom_angle_site_symmetry_3
_geom_angle_publ_flag
Br3 Pb1 Br2 88.45(4) . 2_556 ?
Br3 Pb1 Br2 88.45(4) . . ?
Br2 Pb1 Br2 176.89(7) 2_556 . ?
Br3 Pb1 Br1 84.66(4) . . ?
Br2 Pb1 Br1 89.855(4) 2_556 . ?
Br2 Pb1 Br1 89.855(4) . . ?
Br3 Pb1 Br1 84.66(4) . 1_556 ?
Br2 Pb1 Br1 89.855(4) 2_556 1_556 ?
Br2 Pb1 Br1 89.855(4) . 1_556 ?
Br1 Pb1 Br1 169.32(9) . 1_556 ?
Br3 Pb1 Br3 180.0 . 1_565 ?
Br2 Pb1 Br3 91.55(4) 2_556 1_565 ?
Br2 Pb1 Br3 91.55(4) . 1_565 ?
Br1 Pb1 Br3 95.34(4) . 1_565 ?
Br1 Pb1 Br3 95.34(4) 1_556 1_565 ?
Pb1 Br1 Pb1 169.32(9) 1_554 . ?
Pb1 Br3 Pb1 180.0 . 1_545 ?
N1 N2 C3 129(2) . . ?
loop_
_geom_bond_atom_site_label_1
_geom_bond_atom_site_label_2
_geom_bond_distance
_geom_bond_site_symmetry_2
_geom_bond_publ_flag
Pb1 Br3 2.9587(18) . ?
Pb1 Br2 2.9868(19) 2_556 ?
Pb1 Br2 2.9868(18) . ?
Pb1 Br1 3.0316(3) . ?
Pb1 Br1 3.0316(3) 1_556 ?
Pb1 Br3 3.0938(18) 1_565 ?
N1 N2 1.358(18) 7_556 ?
N1 N2 1.358(18) . ?
N2 C3 1.374(17) . ?
