#------------------------------------------------------------------------------
#$Date: 2021-07-21 01:34:50 +0300 (Wed, 21 Jul 2021) $
#$Revision: 267648 $
#$URL: file:///home/coder/svn-repositories/cod/cif/4/00/40/4004011.cif $
#------------------------------------------------------------------------------
#
# This file is available in the Crystallography Open Database (COD),
# http://www.crystallography.net/
#
# All data on this site have been placed in the public domain by the
# contributors.
#
data_4004011
loop_
_publ_author_name
'Wang, Xiaoze'
'Song, Enhai'
'Qin, Lianjie'
'Gui, Daxiang'
'Xu, Zhijun'
'Xie, Jian'
'Lei, Min'
'Zhang, Hongfa'
'Wang, Yanlong'
'Wang, Yaxing'
'Xia, Zhiguo'
'Liu, Wei'
'Du, Wei'
'Wang, Shuao'
_publ_section_title
;
 Fabrication of a Wide Color Gamut pc-WLED Surpassing 107% NTSC Based on a
 Robust Luminescent Uranyl Phosphate
;
_journal_name_full               'Chemistry of Materials'
_journal_paper_doi               10.1021/acs.chemmater.1c00862
_journal_year                    2021
_chemical_formula_moiety         'O6 P U, 8(O)'
_chemical_formula_sum            'O14 P U'
_chemical_formula_weight         493.00
_chemical_melting_point          ?
_chemical_name_common            'uranyl phosphate'
_space_group_crystal_system      tetragonal
_space_group_IT_number           129
_space_group_name_Hall           '-P 4a 2a'
_space_group_name_H-M_alt        'P 4/n m m :2'
_audit_creation_method           SHELXL-2014
_cell_angle_alpha                90
_cell_angle_beta                 90
_cell_angle_gamma                90
_cell_formula_units_Z            2
_cell_length_a                   6.9932(16)
_cell_length_b                   6.9932(16)
_cell_length_c                   8.908(2)
_cell_measurement_reflns_used    1850
_cell_measurement_temperature    296(2)
_cell_measurement_theta_max      24.99
_cell_measurement_theta_min      3.04
_cell_volume                     435.64(17)
_computing_cell_refinement       'Bruker SAINT'
_computing_data_collection       'Bruker APEX2'
_computing_data_reduction        'Bruker SAINT'
_computing_molecular_graphics    'Bruker SHELXTL'
_computing_publication_material  'Bruker SHELXTL'
_computing_structure_refinement  'SHELXL-2014 (Sheldrick, 2014)'
_computing_structure_solution    'SHELXL-2014 (Sheldrick, 2014)'
_diffrn_ambient_temperature      296(2)
_diffrn_measured_fraction_theta_full 1.000
_diffrn_measured_fraction_theta_max 1.000
_diffrn_measurement_device_type  'Bruker APEX-II'
_diffrn_measurement_method       '0.5 wide w/ exposures'
_diffrn_radiation_type           MoK\a
_diffrn_radiation_wavelength     0.71073
_diffrn_reflns_av_R_equivalents  0.0800
_diffrn_reflns_av_unetI/netI     0.0223
_diffrn_reflns_Laue_measured_fraction_full 1.000
_diffrn_reflns_Laue_measured_fraction_max 1.000
_diffrn_reflns_limit_h_max       9
_diffrn_reflns_limit_h_min       -9
_diffrn_reflns_limit_k_max       9
_diffrn_reflns_limit_k_min       -9
_diffrn_reflns_limit_l_max       11
_diffrn_reflns_limit_l_min       -11
_diffrn_reflns_number            9183
_diffrn_reflns_point_group_measured_fraction_full 1.000
_diffrn_reflns_point_group_measured_fraction_max 1.000
_diffrn_reflns_theta_full        25.242
_diffrn_reflns_theta_max         27.553
_diffrn_reflns_theta_min         2.286
_exptl_absorpt_coefficient_mu    18.900
_exptl_absorpt_correction_T_max  0.516
_exptl_absorpt_correction_T_min  0.223
_exptl_absorpt_correction_type   multi-scan
_exptl_absorpt_process_details   SHELTXPREP
_exptl_crystal_colour            yellow
_exptl_crystal_density_diffrn    3.759
_exptl_crystal_description       block
_exptl_crystal_F_000             438
_exptl_crystal_size_max          0.140
_exptl_crystal_size_mid          0.070
_exptl_crystal_size_min          0.035
_refine_diff_density_max         0.681
_refine_diff_density_min         -1.307
_refine_diff_density_rms         0.298
_refine_ls_extinction_method     none
_refine_ls_goodness_of_fit_ref   1.183
_refine_ls_hydrogen_treatment    undef
_refine_ls_matrix_type           full
_refine_ls_number_parameters     22
_refine_ls_number_reflns         329
_refine_ls_number_restraints     0
_refine_ls_restrained_S_all      1.183
_refine_ls_R_factor_all          0.0296
_refine_ls_R_factor_gt           0.0280
_refine_ls_shift/su_max          0.000
_refine_ls_shift/su_mean         0.000
_refine_ls_structure_factor_coef Fsqd
_refine_ls_weighting_details
'w=1/[\s^2^(Fo^2^)+(0.0472P)^2^+3.5611P] where P=(Fo^2^+2Fc^2^)/3'
_refine_ls_weighting_scheme      calc
_refine_ls_wR_factor_gt          0.0770
_refine_ls_wR_factor_ref         0.0783
_reflns_Friedel_coverage         0.000
_reflns_number_gt                316
_reflns_number_total             329
_reflns_threshold_expression     'I > 2\s(I)'
_cod_data_source_file            cm1c00862_si_002.cif
_cod_data_source_block           UPO
_cod_depositor_comments
;
The following automatic conversions were performed:

data item '_chemical_melting_point' value 'N/a' was changed to '?' --
the value is undefined or not given.

Automatic conversion script
Id: cif_fix_values 7556 2019-12-06 15:28:31Z antanas 
;
_cod_original_cell_volume        435.6(2)
_cod_original_sg_symbol_H-M      'P 4/n m m'
_cod_database_code               4004011
_shelx_space_group_comment
;
The symmetry employed for this shelxl refinement is uniquely defined
by the following loop, which should always be used as a source of
symmetry information in preference to the above space-group names.
They are only intended as comments.
;
_shelx_estimated_absorpt_t_min   0.110
_shelx_estimated_absorpt_t_max   0.350
_shelxl_version_number           2014-3
_shelx_res_file
;
TITL A_a.res in P4/nmm
REM Old TITL A in P4/nmm

REM SHELXT solution in P4/nmm
REM R1 0.095,  Rweak 0.004,  Alpha 0.005,  Orientation as input
REM Formula found by SHELXT:  O6 P U

CELL  0.71073   6.9932   6.9932   8.9085   90.000   90.000   90.000
ZERR    4.000   0.0016   0.0016   0.0021    0.000    0.000    0.000
LATT  1
SYMM 1/2-X, 1/2-Y, Z
SYMM 1/2-Y, X, Z
SYMM Y, 1/2-X, Z
SYMM -X, 1/2+Y, -Z
SYMM 1/2+X, -Y, -Z
SYMM 1/2+Y, 1/2+X, -Z
SYMM -Y, -X, -Z
SFAC O P U
UNIT 4 4 4
TEMP 23.000
L.S. 20
ACTA
BOND $H
LIST 6
FMAP 2
PLAN 20
WGHT    0.047200    3.561100
FVAR       0.56232
U1    3    0.250000    0.250000    0.402953    10.12500    0.00921    0.00921 =
         0.01615    0.00000    0.00000    0.00000
P1    2    0.250000    0.750000    0.500000    10.12500    0.00984    0.00984 =
         0.02393    0.00000    0.00000    0.00000
O3    1    0.250000    0.250000    0.202737    10.12500    0.02092    0.02092 =
         0.02960    0.00000    0.00000    0.00000
O2    1    0.250000    0.250000    0.604457    10.12500    0.03462    0.03462 =
         0.01569    0.00000    0.00000    0.00000
O1    1    0.250000    0.575313    0.396045    10.50000    0.07566    0.01180 =
         0.01984   -0.00217    0.00000    0.00000
O1W   1    0.480249    0.668337    0.127525    11.00000    0.07107

HKLF 4

REM  A_a.res in P4/nmm
REM R1 =  0.0280 for     316 Fo > 4sig(Fo)  and  0.0296 for all     329 data
REM     22 parameters refined using      0 restraints

END

WGHT      0.0453      3.8340

REM Highest difference peak  0.681,  deepest hole -1.307,  1-sigma level  0.298
Q1    1   0.2500  0.5696  0.4424  10.50000  0.05    0.68
Q2    1   0.0260  0.4740  0.3500  10.50000  0.05    0.68
Q3    1   0.3953  0.1047  0.0884  10.50000  0.05    0.65
Q4    1   0.4823  0.4823  0.1421  10.50000  0.05    0.60
Q5    1   0.2500  0.1813  0.0700  10.50000  0.05    0.60
Q6    1   0.4983  0.5643 -0.0047  11.00000  0.05    0.60
Q7    1   0.1554  0.4732  0.2518  11.00000  0.05    0.60
Q8    1   0.2867  0.5119  0.1438  11.00000  0.05    0.56
Q9    1   0.4937  0.4937  0.2213  10.50000  0.05    0.54
Q10   1   0.6366  0.6366  0.2139  10.50000  0.05    0.52
Q11   1   0.4991  0.6892  0.2544  11.00000  0.05    0.51
Q12   1   0.4626  0.5311  0.2314  11.00000  0.05    0.51
Q13   1   0.2500  0.0963  0.1545  10.50000  0.05    0.51
Q14   1   0.4742  0.2500  0.1482  10.50000  0.05    0.51
Q15   1   0.6658  0.6658  0.1141  10.50000  0.05    0.51
Q16   1   0.2500  0.1312  0.2693  10.50000  0.05    0.50
Q17   1   0.2500  0.2500  0.5263  10.12500  0.05    0.49
Q18   1   0.2500  0.4295  0.3998  10.50000  0.05    0.48
Q19   1   0.5848  0.5848  0.2075  10.50000  0.05    0.48
Q20   1   0.0814  0.4186  0.4027  10.50000  0.05    0.48
;
_shelx_res_checksum              30120
_shelx_hkl_file
;
  -1   0   0    7.60    3.20
  -1   0   0    1.00    2.00
  -1   0   0    3.50    2.90
  -1   0   0   11.20    7.70
   0  -1   0    3.20    4.60
   0  -1   0    0.90    3.20
   0  -1   0    2.70    2.60
   0  -1   0    5.90    2.00
   0   1   0   18.30    6.40
   0   1   0    2.90    1.80
   1   0   0    3.70    2.80
   1   0   0    1.00    2.20
   1   0   0    1.60    2.50
   1   0   0    8.10    7.20
   1   1   0 4273.17  302.07
   1   1   0 4504.75  300.07
   1   1   0 4559.24  300.87
  -1  -1   0 4316.77  302.47
  -1  -1   0 3845.82  318.47
  -1   1   0 4887.11  320.97
   1   1   0 4202.48  305.17
   1  -2   0    7.20    8.10
  -1   2   0    4.00    5.20
  -1   2   0    0.70    6.20
  -2  -1   0    1.20   12.30
   2   1   0    1.50    4.80
   2   1   0    4.10    5.70
   2   1   0    3.90   12.20
   1  -2   0    8.40    7.10
   1  -2   0    2.60    2.70
   2   1   0    3.10    5.30
  -2  -1   0    3.90    6.50
  -2  -1   0    1.60    4.30
  -2  -1   0    3.90    5.40
  -2  -1   0    2.80    4.70
  -2   0   0 6682.53  569.84
   0   2   0 8629.94  555.34
   2   0   0 8803.32  573.74
  -1  -2   0    1.30    5.30
  -1  -2   0    4.90    5.30
   1   2   0    2.90    6.40
  -2   1   0   -1.80   10.30
  -1  -2   0   -2.90    6.70
  -1  -2   0    3.00    4.50
  -2   1   0   14.40    6.90
   1   2   0    3.50    6.70
   1   2   0   -2.00   12.50
   2  -1   0    2.30    4.70
   1   2   0    0.10    4.50
   1   2   0    1.20    4.10
   1   2   0    2.30    4.50
   2  -1   0    6.00    5.40
   2  -1   0    6.80   10.50
  -2   1   0    8.60    6.10
  -2   1   0    3.00    4.70
   2  -1   0    5.30    5.30
   2  -2   0 4532.85  319.07
  -2   2   0 4345.27  320.47
  -2  -2   0 3988.70  355.96
  -2  -2   0 4713.83  321.77
  -2  -2   0 4701.23  325.17
   2   2   0 4548.25  325.97
   2  -2   0 4579.04  324.07
   2   2   0 4728.93  323.57
   2   2   0 4548.04  321.37
   2   2   0 4683.63  329.27
   2  -2   0 4687.03  322.47
  -2   2   0 4577.54  326.27
  -2   2   0 5176.48  384.86
   3   2   0  -12.50   17.80
  -3  -2   0   15.30   11.00
  -3  -2   0    1.10    9.40
  -3  -2   0    9.00    9.70
   3   2   0    1.50    8.20
  -3  -2   0    1.70   22.70
  -2   3   0    8.90   20.70
   2  -3   0    2.50    4.60
   3   2   0   23.70   11.80
   3   2   0    2.80    7.90
  -2   3   0    4.90    8.30
  -3  -2   0   11.70    9.80
   2  -3   0   10.70   10.70
  -3  -1   0 6905.21  448.46
   3   1   0 6410.96  439.76
  -3  -1   0 6882.61  440.86
   3   1   0 6578.84  447.86
   1  -3   0 5446.96  433.06
   1  -3   0 6358.16  444.56
  -3  -1   0 6403.26  440.36
   3   1   0 5413.76  468.05
  -1   3   0 6559.74  445.16
   0   3   0    0.00    8.20
   0   3   0    0.10    5.50
   3   0   0    8.20    7.50
   3   0   0    9.10    8.90
  -3   0   0    3.80   17.80
  -3   0   0    3.80    6.40
   0  -3   0    2.70    3.00
   0   3   0  -13.50    8.30
   0  -3   0    1.80   10.20
   0  -3   0   -2.40    5.20
  -3   0   0    1.10    6.70
  -3   0   0    4.30    7.10
   0  -3   0    8.50   10.30
   3   0   0    6.30   12.70
   1   3   0 6900.71  460.85
   1   3   0 6251.67  508.35
   1   3   0 6643.14  463.65
   3  -1   0 6779.42  495.65
  -3   1   0 6619.04  461.85
  -3   1   0 7167.88  467.55
   3  -1   0 6700.73  461.15
  -3   1   0 6419.16  460.75
   3  -1   0 6827.62  466.85
   1   3   0 6317.47  470.05
  -3   1   0 6458.25  500.25
  -1  -3   0 7117.59  465.35
  -1  -3   0 6068.19  466.25
  -1  -3   0 7253.87  468.75
   3  -1   0 6514.35  460.05
   1   3   0 6450.05  461.85
   2   3   0   32.60   13.50
   2   3   0    5.50    8.30
  -3   2   0    1.70    6.50
  -3   2   0    8.40    8.30
  -2  -3   0   -3.00    7.20
   2   3   0    1.30    7.70
   2   3   0   19.40   24.80
   3  -2   0   -2.40    5.60
   2   3   0    2.80    6.50
  -2  -3   0   -0.10    6.80
   2   3   0    7.70    9.90
  -2  -3   0    7.60    9.50
   3  -2   0    1.00    6.00
  -3   2   0   15.10   23.20
   3  -2   0    4.20    8.00
  -3  -3   0 5139.19  460.85
  -3  -3   0 5683.93  411.06
  -3   3   0 6066.89  468.55
   3  -3   0 5701.13  405.46
  -3  -3   0 6054.29  414.66
   3   3   0 6004.00  415.16
   3  -3   0 6167.38  411.76
   3  -3   0 5739.43  404.96
  -3  -3   0 6105.49  409.06
   3   3   0 5629.34  407.66
  -3   3   0 5670.23  417.36
   3   3   0 5648.33  411.66
   3   3   0 5602.74  415.56
  -4  -3   0   14.30   31.30
  -3   4   0    7.80   17.80
   4   3   0    3.40   10.10
   4   3   0   -7.00   16.70
   4   3   0    5.10   11.50
  -4  -3   0    8.10   13.80
  -3   4   0    4.20   22.40
  -3   4   0   11.80   12.40
   4   3   0   -8.30   31.80
  -4  -3   0   -0.80   11.00
   4   3   0   12.40   15.50
  -4  -3   0    3.30   15.80
   3  -4   0   -8.50   14.00
   3  -4   0    4.20    7.80
  -4  -3   0   -4.30   11.00
   3  -4   0   -2.40    9.00
  -4  -2   0 6670.33  437.46
  -2   4   0 5856.61  425.96
   2  -4   0 5988.10  411.86
  -4  -2   0 5732.53  425.36
   2  -4   0 6537.35  429.06
   4   2   0 6105.89  424.76
   4   2   0 5939.21  425.56
   4   2   0 5965.50  435.46
  -4  -2   0 5847.22  433.76
  -4  -2   0 6080.69  424.86
   4   2   0 5370.26  469.25
  -4  -1   0    0.90   10.40
   4   1   0    2.00    9.80
  -4  -1   0    0.00    9.20
  -4  -1   0   12.30    8.50
   4   1   0    7.60    9.30
   4   1   0  -10.90   17.00
   1  -4   0  -11.80   15.20
   4   1   0    5.90    8.10
  -1   4   0    4.10   12.00
  -4  -1   0   -2.50   22.30
   1  -4   0    9.50   12.50
  -1   4   0   -2.90   12.30
  -4   0   0 7226.68  547.25
   4   0   0 7897.41  557.54
   4   0   0 7609.14  585.64
  -4   0   0 8661.03  560.14
   4   0   0 7568.24  548.25
  -4   0   0 7956.90  549.25
   4   0   0 7465.35  546.65
   0  -4   0 8662.13  554.24
   0  -4   0 7771.02  556.84
   0   4   0 7788.52  556.14
   0  -4   0 8184.88  536.85
  -1  -4   0    8.50   13.60
   1   4   0    8.60    9.10
   4  -1   0   -3.70    7.90
   4  -1   0    0.20   16.30
  -1  -4   0   12.00   13.60
   4  -1   0    3.60    7.30
  -4   1   0    6.20   10.20
  -1  -4   0    7.60   12.00
   1   4   0   31.80   17.20
  -1  -4   0    4.50    6.20
   4  -1   0    6.20    9.60
   1   4   0    7.80   11.40
   1   4   0   -2.80   23.90
  -4   1   0    8.00   10.20
  -4   1   0    7.70    8.80
   1   4   0  -17.50   10.20
  -4   1   0    7.70   18.60
   2   4   0 5965.60  412.56
  -2  -4   0 5736.43  430.36
   4  -2   0 5819.52  417.06
  -2  -4   0 6333.67  411.96
   4  -2   0 5416.36  453.65
  -4   2   0 5802.92  469.95
   2   4   0 5869.31  423.16
  -2  -4   0 5338.47  416.66
   2   4   0 5971.80  408.86
  -2  -4   0 6236.08  413.56
   4  -2   0 5743.33  408.56
   2   4   0 5219.88  413.56
   2   4   0 5513.55  479.85
   4  -2   0 5652.03  414.56
  -4   2   0 5648.94  410.06
  -4   2   0 6124.89  427.46
   2   4   0 6349.36  426.86
   3   4   0    5.90   11.70
  -3  -4   0   20.30   15.00
  -3  -4   0   -9.60   12.80
   3   4   0    6.40   32.50
   4  -3   0    1.20   11.00
   4  -3   0    7.20   12.50
   3   4   0   -4.40    9.50
  -4   3   0    3.80   14.10
  -4   3   0   26.30   38.50
  -3  -4   0    0.30   10.00
   3   4   0    4.60   14.50
   4  -3   0    2.70    9.40
  -4   3   0    6.00   12.90
   3   4   0    3.40   11.60
   4  -4   0 3451.15  245.88
   4   4   0 3310.37  250.77
   4   4   0 3291.67  248.38
  -4  -4   0 3051.99  316.47
   4   4   0 3228.58  259.97
  -4  -4   0 3731.93  259.87
   4  -4   0 3127.19  243.58
  -4  -4   0 3383.06  249.08
  -4   4   0 3513.55  249.38
  -4   4   0 2885.61  260.57
  -4  -4   0 3165.08  253.47
   4   4   0 3173.98  254.87
  -4   4   0 3343.97  322.87
   4  -4   0 3712.83  256.57
  -5  -4   0    3.70   16.60
   5   4   0   -8.20   41.80
  -4   5   0   -1.50   25.00
   5   4   0    5.90   19.80
   4  -5   0    2.70   20.90
  -5  -4   0    4.70   15.80
  -4   5   0   10.00   16.80
   5   4   0   -4.70   15.70
  -5  -4   0   11.30   19.40
   5   4   0    4.80   21.90
  -3   5   0 2326.57  269.17
  -5  -3   0 2043.00  170.58
   5   3   0 2055.09  174.78
  -5  -3   0 2453.15  184.68
   5   3   0 2067.69  189.58
  -5  -3   0 1909.11  233.78
  -3   5   0 2059.49  167.58
  -5  -3   0 2342.17  170.88
  -5  -3   0 1686.73  188.88
   5   3   0 2092.19  167.78
   5   3   0 2096.69  181.88
   5   3   0 2234.08  231.68
   3  -5   0 2010.70  180.08
   3  -5   0 2186.28  154.08
  -5  -2   0  -20.20   31.20
   5   2   0   30.40   31.20
  -5  -2   0   11.30   15.20
   5   2   0   -1.70   13.40
  -2   5   0    9.50   13.80
   5   2   0   -7.50   11.10
  -5  -2   0    5.40   14.80
   2  -5   0  -12.70   17.10
   5   2   0   -4.50   11.00
  -5  -2   0   -6.50   11.00
  -5  -2   0  -11.70   13.00
   5   1   0 1947.61  158.38
  -5  -1   0 2197.28  178.58
   1  -5   0 1966.80  172.58
   5   1   0 2161.08  204.78
   1  -5   0 2177.78  165.18
  -1   5   0 1817.22  170.98
  -1   5   0 2040.80  178.48
  -5  -1   0 2199.78  162.08
  -5  -1   0 1850.41  158.68
  -5  -1   0 2284.27  174.88
   5   1   0 1987.90  158.98
   1  -5   0 1927.31  164.98
   5   0   0   14.70   14.50
  -5   0   0   -7.40    9.30
  -5   0   0    4.30   12.00
   0  -5   0  -11.50   11.40
   0   5   0  -15.30   12.40
   5   0   0    7.50   11.90
  -5   0   0   -6.90   11.30
  -5   0   0   22.60   33.00
   0  -5   0  -14.10   14.50
   0  -5   0   19.70   20.10
   5   0   0   -5.80   20.80
   0  -5   0    5.20    4.30
   5   0   0    7.30   14.00
  -5   1   0 1963.90  156.28
   1   5   0 1632.44  153.08
   5  -1   0 1859.11  195.78
  -1  -5   0 2249.07  148.99
  -5   1   0 1773.12  209.18
   5  -1   0 1886.41  155.08
  -5   1   0 2340.87  170.38
  -5   1   0 2046.00  158.88
   5  -1   0 1925.51  164.58
   1   5   0 2046.90  160.88
  -1  -5   0 2161.88  168.38
   1   5   0 1928.61  224.28
   5  -1   0 1882.01  153.48
  -1  -5   0 2244.28  163.28
   5  -2   0  -14.00   20.60
   5  -2   0    7.40   12.80
   2   5   0   24.30   20.90
   2   5   0   22.70   16.50
   2   5   0   -5.10   31.00
  -2  -5   0  -19.40   11.70
  -5   2   0   19.70   15.30
  -2  -5   0  -14.00   19.70
  -2  -5   0    5.00    8.90
  -5   2   0    5.10   10.50
   5  -2   0    6.10   12.40
   2   5   0   -4.90   11.00
  -5   2   0    6.20   12.50
  -5   2   0  -10.30   23.20
   5  -2   0    3.70   13.50
   2   5   0    0.70   15.20
   3   5   0 2094.49  185.08
  -5   3   0 2277.77  184.38
   3   5   0 2134.89  171.48
   3   5   0 2166.28  166.68
  -3  -5   0 2101.19  181.68
   3   5   0 1978.90  246.08
  -5   3   0 2187.18  171.68
   5  -3   0 2178.68  175.48
   3   5   0 1982.70  176.68
   5  -3   0 2090.89  168.18
  -3  -5   0 2392.26  174.38
  -5   3   0 2039.50  236.28
  -3  -5   0 2451.75  175.78
   5  -3   0 2133.19  171.98
  -5   4   0    6.40   14.30
   4   5   0  -18.00   43.70
   5  -4   0   -9.00   11.80
  -5   4   0   -1.50   22.00
   4   5   0  -11.40   19.30
   4   5   0   -8.60   15.20
   4   5   0    8.00   16.70
  -4  -5   0   -4.70   15.70
   5  -4   0    6.50   17.60
  -4  -5   0    0.80   14.10
   5   5   0 1276.97  205.08
  -5  -5   0 1831.72  153.28
   5  -5   0 1614.14  135.19
  -5  -5   0 1595.64  139.79
  -5   5   0 1701.83  139.79
   5   5   0 1474.65  134.89
   5   5   0 1502.45  138.09
   5  -5   0 1699.03  149.99
   5   5   0 1550.04  149.49
   6   5   0    5.90   21.50
  -5   6   0  -31.40   17.70
   5  -6   0  -14.40   15.70
  -6  -5   0    8.60   24.50
   6   5   0  -29.70   41.50
   5  -6   0  -17.20   28.70
  -6  -5   0   -5.40   18.90
  -5   6   0  -32.20   29.90
   6   5   0  -23.20   53.99
   6   4   0 3425.16  311.97
   4  -6   0 2619.94  193.48
   6   4   0 2633.04  212.48
   4  -6   0 2504.95  226.48
  -6  -4   0 2810.12  215.18
  -4   6   0 2471.65  210.08
   6   4   0 2598.44  225.18
   3  -6   0   -3.10   24.30
  -6  -3   0   -4.00   18.60
  -3   6   0   11.50   16.60
  -6  -3   0   12.80   25.50
  -6  -3   0   -7.20   14.80
   6   3   0  -14.60   32.50
   6   3   0    1.50   14.90
  -3   6   0  -12.90   23.70
   6   2   0 3863.91  303.47
   2  -6   0 3346.97  314.17
   6   2   0 4827.92  375.36
  -6  -2   0 4653.43  325.97
   6   2   0 4021.00  302.97
   2  -6   0 4169.28  309.87
  -6  -2   0 4211.78  305.37
  -6  -2   0 3877.51  320.07
  -2   6   0 3896.61  305.87
   1  -6   0  -21.50   22.60
  -1   6   0  -10.50   17.90
  -6  -1   0   19.20   22.80
  -6  -1   0   -2.90   16.10
   6   1   0   -1.30   14.50
   1  -6   0   -3.90   16.30
   6   1   0   13.30   16.20
  -6  -1   0    2.80   14.50
  -1   6   0    4.00   24.50
  -6  -1   0   45.40   52.39
  -6  -1   0   10.20   17.20
   6   1   0   38.40   35.70
   0   6   0 3411.96  297.17
   6   0   0 3870.31  336.27
   6   0   0 3863.61  284.07
  -6   0   0 4125.89  301.97
  -6   0   0 3822.62  286.27
   6   0   0 3579.34  281.17
   0  -6   0 3954.50  308.27
   0   6   0 4050.69  294.77
  -6   0   0 3598.74  283.87
   0  -6   0 3964.00  294.17
  -6   1   0  -28.50   37.10
   6  -1   0   18.20   35.60
  -1  -6   0   20.80   22.20
   6  -1   0  -13.90   12.10
  -1  -6   0    6.50    8.70
   1   6   0   -6.00   17.50
  -6   1   0    7.00   16.70
   6  -1   0    5.40   16.20
   1   6   0   -2.30   22.40
  -1  -6   0   -3.80   10.20
  -6   1   0   -2.30   12.80
   1   6   0    3.30   13.30
   1   6   0  -18.20   31.90
  -1  -6   0  -13.70   19.60
   2   6   0 4318.27  311.27
  -6   2   0 4177.68  313.37
   2   6   0 3757.52  398.96
   6  -2   0 4157.28  308.77
  -2  -6   0 4222.98  310.57
  -2  -6   0 3998.60  330.97
   6  -2   0 3735.43  360.56
  -2  -6   0 4603.04  303.47
  -6   2   0 4656.83  323.87
  -6   2   0 3837.12  307.07
   6  -2   0 3962.10  318.07
  -6   3   0    0.30   14.90
  -6   3   0   21.90   25.90
  -3  -6   0    9.60   19.00
   3   6   0   -5.60   15.30
  -3  -6   0   13.10   33.40
   3   6   0   36.00   33.40
  -3  -6   0    7.00   14.30
   6  -3   0    7.10   18.50
   3   6   0    3.90   18.90
   4   6   0 2413.66  222.88
  -6   4   0 2824.52  236.28
   4   6   0 2817.22  215.38
   6  -4   0 2880.31  220.48
   4   6   0 2381.26  227.98
   4   6   0 2799.72  207.48
  -4  -6   0 2869.81  215.78
   6  -4   0 2674.03  219.28
   4   6   0 2399.66  308.27
  -6   4   0 2775.42  215.18
   5   6   0   23.50   72.59
  -6   5   0    2.80   22.70
   5   6   0   -8.90   20.50
   6  -5   0  -20.70   24.30
  -5  -6   0    1.20   23.30
  -5  -6   0    7.30   22.30
  -6   5   0   -5.40   30.80
  -6  -6   0 2241.28  186.88
   6   6   0 1905.01  188.98
   6   6   0 2006.00  175.68
   6   6   0 2397.56  301.37
   6  -6   0 2258.77  198.88
  -7  -5   0 1059.89  113.79
   7   5   0 1106.29  207.48
  -5   7   0 1020.50  104.09
  -7  -5   0 1202.68  143.89
  -4   7   0  -32.90   25.40
  -7  -4   0   12.40   24.20
  -7  -4   0  101.79   40.40
   4  -7   0  -21.90   21.00
   4  -7   0   -9.30   37.00
   7   4   0   23.60   26.30
   7   4   0  -49.99   41.70
   7   4   0   -4.00   47.50
  -7  -4   0   -9.60   21.70
  -4   7   0   -2.90   26.90
  -7  -3   0 1404.16  130.19
   3  -7   0 1179.28  142.49
   3  -7   0 1376.16  134.49
  -7  -3   0 1331.57  147.79
  -7  -3   0 1687.13  153.18
  -3   7   0 1457.45  128.89
   7   3   0 1315.57  126.59
   2  -7   0   -4.00   18.30
   2  -7   0  -25.70   26.00
  -7  -2   0    2.50   17.90
  -2   7   0    9.30   24.50
   7   2   0   -6.30   19.00
  -7  -2   0   -3.40   20.70
   7   2   0   16.80   36.50
  -7  -1   0 2008.80  176.88
  -1   7   0 1765.82  167.58
  -1   7   0 1552.34  158.88
   7   1   0 1959.60  210.58
   7   1   0 1741.03  154.78
  -7  -1   0 1844.52  158.98
   1  -7   0 1990.60  172.88
  -7  -1   0 1949.10  183.68
  -7   0   0    0.60   20.40
   0  -7   0   11.60   25.00
   7   0   0   16.80   39.60
   0   7   0  -44.80   23.90
   0   7   0    3.00   19.40
   0  -7   0    0.90   23.70
  -7   0   0   13.50   21.40
  -1  -7   0 1923.71  157.58
  -1  -7   0 1787.22  169.68
   7  -1   0 1758.92  150.78
   1   7   0 1703.13  240.68
   1   7   0 1633.44  152.28
   7  -1   0 1483.65  192.98
  -7   1   0 2022.90  170.88
  -7   1   0 1731.33  154.48
  -7   2   0   -4.30   15.70
  -2  -7   0   -2.10   33.20
   7  -2   0  -13.60   18.60
   2   7   0    6.30   23.00
  -2  -7   0   -1.60   11.20
  -2  -7   0   -9.80   19.10
   2   7   0   48.90   33.90
   7  -2   0   33.00   39.30
  -7   2   0    5.70   20.70
   2   7   0  -18.90   17.00
  -2  -7   0   12.60   23.00
   2   7   0   44.70   26.80
   2   7   0   22.20   77.29
   3   7   0 1263.07  122.29
   7  -3   0 1086.99  163.58
   7  -3   0 1287.87  125.89
  -3  -7   0 1397.66  124.29
   3   7   0 1311.37  218.48
  -7   3   0 1541.65  145.79
   4   7   0  -21.40   24.30
  -4  -7   0  -15.90   22.60
  -4  -7   0   34.30   52.19
   7  -4   0   13.80   33.00
  -4  -7   0    9.50   21.60
   4   7   0    8.30   67.09
   4   7   0   -1.50   23.10
  -7   4   0    1.60   32.00
   7  -5   0  975.00  115.09
  -5  -7   0 1140.09  116.69
  -5  -7   0  974.30  110.29
   8   4   0 1513.35  212.78
   8   4   0 1342.67  133.79
  -8  -4   0 1607.44  161.88
   4  -8   0 1267.57  141.59
   4  -8   0 1146.89  145.89
   3  -8   0   10.90   36.10
  -3   8   0   18.50   32.40
   8   3   0   19.70   27.20
  -8  -3   0  -25.30   22.60
   8   3   0   26.30   58.49
  -3   8   0   -2.00   35.30
  -8  -3   0   -1.40   43.80
  -8  -3   0   78.99   59.29
  -2   8   0 1672.33  163.48
   2  -8   0 1862.21  179.38
  -2   8   0 1682.63  173.58
   8   2   0 2153.08  233.78
   2  -8   0 1929.41  176.28
  -8  -2   0 1938.11  166.38
   8   2   0 1718.43  159.58
  -1   8   0   35.50   26.10
  -8  -1   0   27.30   31.30
  -1   8   0  -48.90   32.40
   1  -8   0  -20.70   28.90
  -8  -1   0   -0.70   24.90
   8   1   0    0.80   49.20
   8   1   0   11.10   23.10
   1  -8   0  -26.80   23.20
   8   0   0 2101.99  235.78
  -8   0   0 2172.68  182.48
   0  -8   0 2100.49  192.78
   0   8   0 1827.52  282.27
   0   8   0 1996.60  179.88
   0  -8   0 2105.29  182.18
   0   8   0 1925.71  186.08
   8   0   0 1896.21  172.78
  -8   0   0 2194.58  198.48
   1   8   0    6.90   23.30
   8  -1   0   31.80   25.50
  -8   1   0  -23.70   20.90
   1   8   0  -39.30   49.60
  -8   1   0    8.50   23.80
   1   8   0   21.90   36.90
   8  -1   0   39.90   57.89
  -1  -8   0  -17.70   29.30
   8  -2   0 1404.66  205.88
   2   8   0 2049.09  165.58
  -2  -8   0 1958.20  164.38
  -2  -8   0 1752.12  192.68
   8  -2   0 1709.33  158.88
   2   8   0 1755.72  158.58
   2   8   0 1746.63  274.77
  -3  -8   0   27.30   33.40
   3   8   0    7.50   24.30
   3   8   0   15.30   31.10
   3   8   0   42.50   94.39
   8  -3   0   17.40   28.80
  -3  -8   0    6.90   31.30
  -4  -8   0 1486.65  133.79
   8  -4   0 1248.38  135.39
   4   8   0 1219.78  128.29
  -8   4   0 1299.97  156.68
   4   8   0 1390.56  264.67
  -9  -1   0 1142.69  119.89
  -1   9   0  851.51  114.79
   1  -9   0  999.20  124.79
   1  -9   0 1089.99  134.09
   9   1   0  826.82  115.99
  -9  -1   0 1234.38  139.39
   0   9   0   11.90   94.29
   0  -9   0   13.50   39.50
  -9   0   0   21.40   29.40
  -9   0   0   -8.60   28.80
   9   0   0  -11.00   32.60
   0  -9   0    5.80   35.80
  -9   1   0 1076.49  117.39
   9  -1   0  728.63  153.48
   9  -1   0  906.21  106.79
   1   9   0  840.52  104.79
   1   9   0  820.22  250.87
  -1  -9   0 1094.39  139.89
  -1  -9   0 1120.69  113.49
   0   0  -1 4680.83  312.07
   0   0  -1 4349.76  311.87
   0   0  -1 4181.08  309.47
   0   0  -1 4741.13  342.97
   0   0   1 4795.92  344.77
   0   1  -1 1990.70  138.29
   1   0  -1 2016.00  141.19
  -1   0  -1 1772.92  146.99
  -1   0  -1 2130.89  150.78
   0  -1  -1 1756.62  155.58
   0   1  -1 2233.68  145.39
   1   0  -1 1641.84  154.18
  -1   0  -1 2215.98  141.69
   0   1  -1 2244.38  146.19
  -1   0  -1 1969.00  146.39
   1   0  -1 2028.40  140.69
   0  -1  -1 1649.83  150.98
  -1   0  -1 1924.61  140.39
   1   0   1 2116.09  141.19
  -1   0   1 2077.89  140.69
  -1   0   1 2069.79  156.38
   1   0   1 1971.20  146.19
   1   0   1 2261.67  146.59
   0  -1   1 2029.20  157.68
  -1   0   1 1996.90  141.09
   1   0   1 2082.99  140.49
   0  -1   1 2241.68  145.39
   1   0   1 2104.89  150.78
   1  -1  -1 2968.50  187.58
  -1  -1  -1 2231.98  195.88
   1   1  -1 2578.34  182.08
  -1   1  -1 2666.73  185.18
   1  -1  -1 2651.53  204.58
  -1  -1  -1 2550.54  196.08
  -1  -1  -1 2921.71  188.08
   1   1  -1 2859.91  186.98
  -1   1  -1 2649.83  182.28
  -1  -1  -1 2630.24  190.48
  -1  -1  -1 2452.35  185.18
   1   1  -1 2738.03  183.38
  -1   1  -1 2675.33  181.28
  -1   1   1 2824.02  201.98
  -1   1   1 3013.20  189.08
   1  -1   1 2552.14  180.88
   1   1   1 2953.10  187.88
   1   1   1 2190.48  196.08
   1   1   1 2581.24  178.88
   1  -1   1 2431.86  184.98
   1   1   1 2628.94  198.88
   1   1   1 2560.04  185.28
   1   1   1 2421.26  189.38
   1  -1   1 2685.83  181.88
  -1  -1   1 2527.15  182.68
  -1  -1   1 2609.94  181.88
  -2  -1  -1 2664.93  189.98
  -1   2  -1 2673.83  183.18
  -2  -1  -1 2852.81  197.98
  -1   2  -1 2705.83  185.98
   2   1  -1 2596.64  193.18
  -2  -1  -1 2812.72  191.28
   2   1  -1 2558.34  187.18
  -2  -1  -1 2613.94  200.18
   2   1  -1 2702.53  189.08
   1  -2  -1 2594.84  195.98
   1  -2  -1 2672.13  196.18
  -1   2   1 2514.15  195.78
   1  -2   1 2844.02  187.28
   2   1   1 2730.53  198.88
   1  -2   1 2757.42  190.58
   2   1   1 2546.65  195.48
  -1   2   1 2593.54  212.38
  -2  -1   1 2540.45  188.28
  -2  -1   1 2560.74  186.88
  -2  -1   1 2695.73  192.78
   2   1   1 2231.68  203.08
   2   1   1 2617.94  188.78
   1  -2   1 2769.32  191.58
   2   1   1 2904.11  191.58
   2   0  -1 7111.69  542.45
   0  -2  -1 6721.03  525.15
   0   2  -1 8262.07  519.05
   2   0  -1 7535.25  514.95
   0  -2  -1 6674.93  519.75
  -2   0  -1 7308.77  513.85
  -2   0  -1 8274.07  523.15
   0  -2   1 8203.78  514.65
   0  -2   1 6829.32  527.75
   2   0   1 7660.83  513.65
   0  -2   1 8022.80  519.05
  -2   0   1 7325.77  541.95
   2   0   1 7786.32  529.05
   2   0   1 7483.65  520.75
  -1  -2  -1 2558.94  191.18
   2  -1  -1 2643.04  187.18
   1   2  -1 2656.13  179.98
   1   2  -1 2683.63  187.18
  -2   1  -1 2572.34  186.28
  -1  -2  -1 2763.72  194.08
   1   2  -1 2567.34  184.48
  -2   1  -1 2581.64  184.78
   2  -1  -1 2677.93  190.68
   2  -1  -1 2606.24  216.18
   1   2  -1 2806.12  189.58
  -1  -2  -1 2701.23  192.78
  -1  -2  -1 2863.51  186.78
   2  -1  -1 2693.73  188.38
  -2   1  -1 2642.74  213.98
   1   2  -1 2811.22  196.88
   1   2  -1 2604.84  221.68
  -2   1  -1 2712.03  190.68
   2  -1   1 2351.16  202.38
   2  -1   1 2555.04  184.28
   1   2   1 2307.47  191.28
   2  -1   1 2441.46  189.18
  -1  -2   1 2524.85  222.88
  -1  -2   1 2629.14  187.38
  -1  -2   1 2898.91  200.08
   2  -1   1 2615.84  185.68
  -1  -2   1 2647.14  184.48
  -2   1   1 2580.14  188.38
   1   2   1 2656.83  192.08
  -1  -2   1 2705.73  186.68
   1   2   1 2601.04  191.78
  -2   1   1 2814.52  214.48
   1   2   1 2498.05  216.18
   2   2  -1 5638.04  383.26
   2   2  -1 5442.56  385.36
  -2   2  -1 5614.94  423.76
  -2  -2  -1 5174.68  410.86
   2  -2  -1 5166.68  417.56
  -2   2  -1 5847.02  380.46
  -2   2  -1 5570.04  385.16
   2   2  -1 5333.07  379.16
   2  -2  -1 5857.81  385.06
  -2  -2  -1 6042.30  386.76
  -2  -2  -1 5893.01  390.86
   2  -2  -1 5719.33  382.66
  -2   2  -1 5187.78  377.76
   2   2  -1 4496.15  395.16
  -2   2   1 5915.31  420.16
   2   2   1 5332.67  383.26
  -2   2   1 5824.72  388.86
  -2   2   1 5759.22  385.96
   2  -2   1 5048.29  379.66
   2   2   1 5690.23  384.96
   2   2   1 5513.65  392.96
   2   2   1 5123.39  388.56
  -2  -2   1 5361.06  450.25
   2  -2   1 5237.88  377.46
  -2  -2   1 5478.65  383.86
   2   2   1 5431.76  377.16
  -2  -2   1 5484.55  379.06
   2  -2   1 5585.74  380.76
  -2  -2   1 5220.58  386.16
  -2   3  -1 1803.62  128.19
   2  -3  -1 1979.00  141.09
   3   2  -1 1755.72  133.29
   2  -3  -1 1941.71  140.79
   3   2  -1 1635.64  137.09
   2  -3  -1 1812.12  128.69
  -2   3  -1 1879.61  124.59
  -3  -2  -1 1576.84  131.59
  -3  -2  -1 1826.72  135.19
  -3  -2  -1 1733.13  147.89
  -3  -2  -1 1628.44  166.38
   3   2  -1 1599.64  128.69
   2  -3   1 1900.11  136.29
  -2   3   1 1572.44  140.49
  -3  -2   1 1761.82  129.49
   3   2   1 1739.13  132.29
  -3  -2   1 1320.97  169.58
   2  -3   1 1613.44  124.89
  -3  -2   1 1774.32  129.79
  -3  -2   1 1771.42  136.39
  -2   3   1 1636.54  165.18
   3   2   1 1659.33  139.79
   2  -3   1 1655.43  126.09
  -3  -2   1 1583.24  131.19
  -1   3  -1 2899.21  201.08
  -3  -1  -1 2991.90  205.18
  -3  -1  -1 2546.55  206.48
   3   1  -1 2473.95  237.98
  -3  -1  -1 3049.89  213.98
   3   1  -1 2814.32  202.88
   1  -3  -1 2414.26  208.98
   3   1  -1 2653.03  200.28
  -3  -1  -1 2738.53  215.08
   3   1  -1 2827.52  209.78
   1  -3   1 2974.30  202.08
   3   1   1 2594.84  209.38
  -3  -1   1 2728.93  202.38
   3   1   1 2726.63  201.38
  -3  -1   1 2784.92  200.78
   1  -3   1 3097.79  207.58
   3   1   1 3000.20  204.98
  -1   3   1 2878.51  214.38
  -3  -1   1 2909.21  209.18
   3   1   1 2828.62  225.28
  -3   0  -1 2748.23  189.58
  -3   0  -1 2810.22  197.68
   3   0  -1 2682.63  188.28
   0   3  -1 2627.74  178.58
   0  -3  -1 2468.15  188.28
   0  -3  -1 2368.46  198.98
   3   0  -1 2763.22  227.38
   3   0  -1 2514.85  186.28
   0   3  -1 2602.74  187.68
  -3   0  -1 2606.14  186.98
   3   0  -1 2656.33  194.78
  -3   0   1 2531.35  187.78
   0  -3   1 2720.03  188.48
  -3   0   1 2495.35  223.88
  -3   0   1 2558.14  186.68
  -3   0   1 2770.42  194.68
   3   0   1 2538.35  187.58
   3   0   1 2645.44  186.08
   0  -3   1 2598.74  191.88
   0   3   1 2182.38  195.48
   3   0   1 2666.83  208.58
   3   0   1 2461.15  193.68
   1   3  -1 2598.04  242.68
   3  -1  -1 2698.63  200.18
  -1  -3  -1 2963.00  202.28
   1   3  -1 2756.92  198.28
   3  -1  -1 2960.60  207.58
  -3   1  -1 2596.94  197.98
  -3   1  -1 2546.75  252.67
  -1  -3  -1 2506.25  206.48
   1   3  -1 2661.43  207.48
  -3   1  -1 2793.72  201.38
   3  -1  -1 2584.44  236.28
   3  -1  -1 2882.91  201.68
  -1  -3  -1 2981.30  204.88
   1   3  -1 2828.12  198.58
  -1  -3  -1 2965.80  210.78
  -3   1  -1 2874.51  206.88
   3  -1   1 2601.54  204.78
  -3   1   1 2979.30  239.28
  -1  -3   1 2834.82  198.38
  -3   1   1 2849.51  202.18
   1   3   1 2616.24  243.88
  -1  -3   1 2879.31  197.38
   1   3   1 2664.83  209.48
  -3   1   1 2805.52  200.68
  -1  -3   1 3169.98  213.18
   3  -1   1 2588.44  197.08
   3  -1   1 2644.84  223.38
   1   3   1 2769.62  207.58
  -1  -3   1 2733.63  203.88
   3  -1   1 2869.21  200.18
  -3   2  -1 1649.83  173.68
   3  -2  -1 1843.62  133.69
   2   3  -1 1657.43  179.48
  -2  -3  -1 1787.72  138.39
   2   3  -1 1882.01  144.19
   2   3  -1 1773.22  136.99
  -2  -3  -1 2014.60  140.79
   2   3  -1 1752.22  134.39
  -3   2  -1 1882.91  134.59
  -2  -3  -1 1647.94  135.69
   3  -2  -1 1604.94  169.28
   3  -2  -1 1799.32  133.29
  -3   2  -1 1634.64  128.19
   2   3  -1 1741.83  134.19
  -2  -3   1 1649.54  133.59
   3  -2   1 1604.64  131.99
  -2  -3   1 1771.92  129.09
   2   3   1 1719.83  125.09
   2   3   1 1634.74  146.09
   2   3   1 1730.93  136.89
   2   3   1 1844.12  136.99
   2   3   1 1663.03  146.29
   3  -2   1 1628.34  127.09
  -2  -3   1 1722.83  131.89
   2   3   1 1485.05  171.18
  -3   2   1 1740.73  134.69
  -2  -3   1 1521.75  175.88
  -3   2   1 1790.42  170.78
  -3   2   1 1967.60  139.99
   3  -2   1 1599.24  129.69
   3  -3  -1 3148.98  219.98
   3   3  -1 3009.50  228.78
   3   3  -1 2884.51  211.98
  -3  -3  -1 3180.78  225.98
  -3   3  -1 3173.98  212.48
  -3  -3  -1 3099.79  219.88
  -3  -3  -1 2634.84  227.38
  -3   3  -1 2780.32  222.28
  -3  -3  -1 2738.03  216.98
  -3   3  -1 2816.62  270.37
   3  -3  -1 3138.59  215.78
   3  -3  -1 2878.11  215.48
   3   3  -1 2975.90  221.68
  -3  -3  -1 2785.72  256.97
   3   3  -1 2816.62  232.98
   3   3  -1 2441.76  265.77
  -3   3  -1 3084.19  211.48
   3  -3   1 2718.33  210.88
  -3   3   1 2985.70  218.68
  -3  -3   1 2537.45  270.77
   3   3   1 2659.53  222.78
  -3  -3   1 3026.20  212.08
   3   3   1 2799.92  216.68
   3  -3   1 3069.59  216.38
   3   3   1 2940.91  208.88
   3   3   1 2914.71  217.88
   3  -3   1 2716.53  208.28
  -3  -3   1 2859.31  216.78
  -3  -3   1 3032.50  219.58
  -3   3   1 2999.80  224.78
  -3   3   1 3014.60  263.37
   3   3   1 2964.00  220.58
  -4  -3  -1 1354.46  109.79
  -3   4  -1 1272.17  100.49
  -4  -3  -1 1175.38  106.19
   3  -4  -1 1419.66  115.09
  -4  -3  -1 1169.18  122.49
   3  -4  -1 1325.27  100.29
  -3   4  -1 1149.29  158.58
  -4  -3  -1 1415.26  118.69
  -4  -3  -1 1145.39  145.99
   4   3  -1  942.31  121.79
   4   3  -1 1335.97  120.59
   4   3  -1 1108.69  157.18
   4   3  -1 1246.78  113.59
   4   3  -1 1257.77  102.29
  -4  -3   1 1381.96  112.59
  -3   4   1 1253.07  169.28
   3  -4   1 1225.78   97.99
   4   3   1 1385.06  106.29
  -4  -3   1  968.80  151.88
   3  -4   1 1314.97  111.39
   3  -4   1 1208.88   96.79
  -3   4   1 1227.18  108.59
   4   3   1 1098.69  142.19
   4   3   1 1163.38  104.99
   4   3   1 1189.28  105.79
  -4  -3   1 1136.79  112.59
  -3   4   1 1015.10  113.69
   4   3   1 1160.88  113.89
  -4  -3   1 1140.69  103.29
  -4  -3   1 1298.77  102.49
   4   2  -1 2690.33  196.38
  -4  -2  -1 2577.04  210.68
  -2   4  -1 2729.13  190.68
   2  -4  -1 2515.95  206.18
   4   2  -1 2156.08  239.68
  -4  -2  -1 2857.11  209.08
  -4  -2  -1 2336.87  238.68
  -2   4  -1 2649.24  213.68
   2  -4  -1 2778.62  186.38
  -4  -2  -1 2487.85  194.28
   2  -4  -1 2775.42  203.68
   4   2  -1 2614.64  191.88
   4   2  -1 2673.43  204.58
  -4  -2  -1 2800.02  197.98
   2  -4   1 2146.79  197.28
   4   2   1 2763.32  231.78
   4   2   1 2556.54  194.98
  -2   4   1 2611.94  201.78
  -2   4   1 2358.36  235.28
  -4  -2   1 2730.93  202.28
   4   2   1 2382.86  192.18
  -4  -2   1 2524.85  194.88
  -4  -2   1 2669.63  197.48
   4   2   1 2367.16  202.88
  -1   4  -1  911.51   74.69
  -4  -1  -1  926.21   76.99
   4   1  -1  843.82   71.89
   4   1  -1  841.62   81.09
  -4  -1  -1  779.02   84.89
   4   1  -1  798.92   72.89
   4   1  -1  829.22  111.89
   1  -4  -1  646.34   82.39
   1  -4  -1  640.04   77.49
  -1   4  -1  712.23   76.79
   1  -4  -1  744.93   71.09
  -4  -1  -1  806.92   72.59
  -4  -1  -1  908.31   84.99
   4   1   1  827.32   81.19
   4   1   1  959.10  108.99
   4   1   1  875.81   74.99
   1  -4   1  786.92   71.69
  -1   4   1  857.11   85.39
   1  -4   1  798.52   78.19
  -4  -1   1  858.41   74.39
  -4  -1   1  877.41   80.59
   1  -4   1  980.20   79.39
   4   1   1  865.41   72.79
  -4   0  -1 4483.65  302.77
   0  -4  -1 4351.66  291.47
   0  -4  -1 4084.89  285.67
  -4   0  -1 4309.97  292.97
   0   4  -1 3975.70  289.17
   4   0  -1 4027.10  298.27
   4   0  -1 4095.99  290.27
   4   0  -1 3971.20  287.97
   0  -4  -1 3896.51  303.77
   4   0  -1 4079.69  337.37
  -4   0  -1 3752.82  286.97
   4   0   1 4113.49  289.57
   4   0   1 3592.94  295.17
   0  -4   1 4160.38  295.17
   0  -4   1 4306.57  300.47
   0   4   1 3616.54  299.97
  -4   0   1 3754.52  337.57
  -4   0   1 4081.79  288.67
   4   0   1 3727.23  285.47
   0  -4   1 4220.38  290.37
  -4   0   1 4201.88  297.97
   4   0   1 3970.00  317.87
  -4   0   1 3872.61  289.77
  -4   1  -1  784.92   71.09
  -1  -4  -1  966.20   86.09
   1   4  -1  823.82  116.19
  -1  -4  -1  915.91   74.79
  -1  -4  -1  917.51   77.79
   4  -1  -1  778.32   72.69
  -4   1  -1  931.51   82.39
   4  -1  -1  785.22   71.79
  -4   1  -1  716.63  105.39
   1   4  -1  817.72   69.69
   4  -1  -1  864.31  113.19
   1   4  -1  862.01   71.89
   4  -1  -1  836.22   79.79
  -1  -4  -1  754.12   80.69
  -4   1  -1  892.41   76.29
   1   4  -1  865.31   76.09
  -1  -4   1  758.32   77.69
  -4   1   1  870.71   75.19
   4  -1   1  816.72   72.99
   1   4   1  918.11   83.49
  -4   1   1  842.22   73.49
  -1  -4   1  940.81   72.89
   4  -1   1  757.82   77.29
  -4   1   1  874.51  113.39
   4  -1   1  793.72   69.69
   1   4   1  796.62   85.19
  -4   1   1  951.60   81.79
   1   4   1  702.43   75.59
   4  -1   1  831.82   97.99
  -1  -4   1  883.71   84.09
   2   4  -1 2616.54  198.48
  -2  -4  -1 2425.26  200.28
  -4   2  -1 2807.02  197.48
   2   4  -1 2539.45  190.28
   2   4  -1 2383.96  252.97
   4  -2  -1 2706.33  199.58
   4  -2  -1 2478.35  192.18
  -4   2  -1 2500.05  248.58
  -2  -4  -1 2888.91  213.58
   4  -2  -1 2323.27  237.68
  -2  -4  -1 2750.02  198.38
   2   4  -1 2645.74  203.58
   4  -2  -1 2557.64  193.58
  -4   2  -1 2616.04  190.98
  -2  -4  -1 2624.44  207.78
   4  -2   1 2326.57  187.48
   2   4   1 2626.74  203.78
   2   4   1 2254.97  197.98
   4  -2   1 2310.57  223.78
  -2  -4   1 2665.73  190.28
  -2  -4   1 2532.05  198.78
   2   4   1 2503.05  256.37
  -2  -4   1 2919.31  219.78
  -4   2   1 2886.01  249.28
  -2  -4   1 2693.43  191.88
   4  -2   1 2412.46  195.88
   2   4   1 2708.93  199.78
   4  -2   1 2677.53  193.48
  -4   2   1 2626.04  196.48
   3   4  -1 1238.58  112.19
  -3  -4  -1 1461.85  117.19
   3   4  -1 1222.18  104.39
   3   4  -1 1327.27  117.69
   3   4  -1 1272.57  116.09
  -3  -4  -1 1281.07  114.59
   3   4  -1 1279.37  167.58
  -3  -4  -1 1336.27  113.19
  -4   3  -1 1275.47  104.19
   4  -3  -1 1319.97  109.99
  -4   3  -1 1171.98  160.68
   4  -3  -1 1310.37  109.19
   4  -3  -1 1256.67  108.29
  -4   3  -1 1418.56  119.59
  -4   3  -1 1353.46  108.69
   4  -3   1 1234.18  101.39
   3   4   1  954.50  151.28
   3   4   1 1120.59  113.69
   3   4   1 1230.98  110.29
   3   4   1 1299.47  114.09
  -3  -4   1 1238.78  111.59
  -4   3   1 1400.66  181.78
   4  -3   1 1177.68  106.39
   3   4   1 1260.57   98.69
  -4   3   1 1280.57  109.99
  -3  -4   1 1257.87  103.89
   4  -3   1 1329.27  108.59
  -3  -4   1 1345.47  109.89
   3   4   1 1233.08  110.79
  -4   3   1 1437.96  118.49
  -4   4  -1 2649.73  195.98
  -4   4  -1 2401.66  271.67
   4  -4  -1 2597.84  199.88
   4  -4  -1 2749.62  206.28
   4   4  -1 2717.83  218.18
  -4  -4  -1 2803.12  206.38
   4  -4  -1 2723.73  199.18
  -4  -4  -1 2491.15  204.48
   4   4  -1 2628.84  209.58
   4   4  -1 2302.67  270.87
  -4  -4  -1 2447.66  257.47
   4   4  -1 2560.74  196.78
  -4   4  -1 2094.39  208.98
   4   4  -1 2663.13  211.28
  -4  -4   1 2468.35  204.38
  -4   4   1 2508.05  213.58
   4   4   1 2245.58  256.17
  -4   4   1 2824.12  206.08
   4   4   1 2362.76  212.08
   4  -4   1 2619.44  196.68
   4  -4   1 2454.35  192.08
  -4  -4   1 2770.92  197.78
  -4   4   1 2981.40  273.37
  -4  -4   1 2245.28  271.67
   4  -4   1 2823.62  205.98
   4   4   1 2757.32  204.78
  -4  -4   1 2798.42  207.08
   4   4   1 2685.23  207.08
  -5  -4  -1  741.83   82.39
  -5  -4  -1  909.21   93.79
  -4   5  -1  730.13   72.89
   4  -5  -1  809.42   72.69
   5   4  -1  723.43  139.99
  -5  -4  -1  814.22   94.79
  -5  -4  -1  523.65  112.59
   5   4  -1  757.52  101.99
   5   4  -1  694.83   97.29
   4  -5  -1  784.72   86.99
   5   4  -1  824.12   87.59
   5   4   1  719.43   72.09
   5   4   1  663.73   79.09
  -5  -4   1  760.92   75.19
   5   4   1  751.52   87.99
   4  -5   1  883.31   90.99
  -4   5   1  713.13   80.29
   4  -5   1  654.23   67.59
  -5  -4   1  865.51   87.69
   5   4   1  656.83  121.69
   5   3  -1 1359.86  114.19
   5   3  -1 1222.98  173.58
  -5  -3  -1 1427.46  121.69
  -3   5  -1 1478.45  138.19
   5   3  -1 1269.37  119.59
  -5  -3  -1 1557.14  134.69
   5   3  -1 1334.17  128.79
  -5  -3  -1 1353.76  119.19
  -3   5  -1 1427.96  121.69
  -3   5  -1 1227.58  198.08
   3  -5  -1 1429.16  106.79
   3  -5  -1 1291.77  128.69
  -5  -3  -1 1339.37  137.59
  -5  -3   1 1437.16  126.59
  -3   5   1 1406.26  123.69
   5   3   1 1316.97  122.39
   3  -5   1 1172.78  121.99
   5   3   1 1298.77  129.09
   3  -5   1 1319.77  108.49
  -5  -3   1 1140.29  178.18
  -5  -3   1 1367.26  114.29
   5   3   1 1327.67  117.99
  -5  -3   1 1187.48  119.29
   5   3   1 1343.87  117.59
   5   3   1 1583.34  168.38
   5   2  -1  718.03   69.39
  -5  -2  -1  582.54  110.59
  -5  -2  -1  870.71   87.69
  -5  -2  -1  753.22   75.29
   2  -5  -1  688.43   76.89
   5   2  -1  773.22   82.89
  -2   5  -1  701.73   67.49
  -2   5  -1  526.65   75.19
   2  -5  -1  641.74   68.29
   2  -5  -1  801.82   59.29
  -5  -2  -1  703.93   85.79
   5   2  -1  729.13   73.19
   5   2  -1  833.82  123.89
  -5  -2   1  764.82   78.69
   5   2   1  803.42  103.09
   5   2   1  771.62   73.99
  -5  -2   1  720.33   69.49
  -2   5   1  747.53   80.79
  -5  -2   1  683.43   72.39
   5   2   1  630.74   77.89
   2  -5   1  603.64   76.99
   2  -5   1  811.02   77.19
  -2   5   1  588.74  103.59
  -5  -2   1  779.32   80.69
  -5  -1  -1 1239.78  111.79
  -1   5  -1 1420.66  113.49
   5   1  -1 1315.27  110.99
   5   1  -1 1363.46  132.79
   5   1  -1 1549.14  168.98
  -1   5  -1 1336.87  118.39
   5   1  -1 1346.47  114.29
   1  -5  -1 1253.37  101.29
   1  -5  -1 1102.79  128.79
  -5  -1  -1 1403.16  116.89
  -5  -1  -1 1272.77  128.29
  -5  -1  -1 1487.65  128.69
  -5  -1   1 1427.76  123.09
   5   1   1 1495.65  145.89
   1  -5   1 1360.56  118.09
   5   1   1 1237.08  109.69
   5   1   1 1260.17  112.59
  -1   5   1 1374.76  128.39
  -5  -1   1 1392.16  116.29
  -5  -1   1 1358.06  111.69
   1  -5   1 1368.26  112.69
   1  -5   1 1448.76  119.59
  -5   0  -1 1485.25  127.09
  -5   0  -1 1837.02  156.18
   0   5  -1 1488.85  134.99
   5   0  -1 1585.84  130.19
   0  -5  -1 1718.43  161.38
   0  -5  -1 1667.23  121.19
   5   0  -1 1575.44  127.49
   0   5  -1 1532.55  129.09
   0  -5  -1 1657.13  133.49
  -5   0  -1 1731.63  143.69
   5   0  -1 1592.24  139.99
   5   0  -1 1644.54  177.28
  -5   0  -1 1668.93  133.29
   5   0   1 1422.46  136.29
   0  -5   1 1717.13  137.79
   0  -5   1 1647.34  130.19
  -5   0   1 1349.27  178.38
  -5   0   1 1742.23  140.99
   0   5   1 1567.84  143.19
   5   0   1 1518.35  125.59
  -5   0   1 1496.65  129.09
   5   0   1 1686.13  161.08
   5   0   1 1571.44  129.59
  -5   0   1 1519.25  127.79
  -5   1  -1  980.40  150.38
  -1  -5  -1 1510.05  120.79
  -5   1  -1 1344.37  114.99
   5  -1  -1 1320.37  120.49
   1   5  -1 1305.07  171.48
  -1  -5  -1 1471.05  125.49
  -5   1  -1 1489.55  124.09
   1   5  -1 1196.98  104.09
  -5   1  -1 1263.87  108.99
   5  -1  -1 1266.77  109.49
   1   5  -1 1434.66  110.99
   5  -1  -1 1237.78  155.78
  -1  -5  -1 1458.85  108.89
   5  -1  -1 1353.06  111.69
  -5   1   1 1288.67  110.99
   5  -1   1 1123.79  135.29
  -5   1   1 1333.07  112.99
   1   5   1 1357.06  121.19
   1   5   1 1051.19  136.99
  -5   1   1 1497.75  122.89
   5  -1   1 1205.08  117.09
   5  -1   1 1482.65  114.39
  -5   1   1 1249.77  183.48
  -1  -5   1 1389.56  122.99
  -1  -5   1 1406.06  110.19
   1   5   1 1384.96  180.58
  -5   2  -1  627.54  117.19
  -5   2  -1  843.42   80.69
  -2  -5  -1  785.72   79.89
   2   5  -1  730.33   69.69
   5  -2  -1  744.33  118.79
   2   5  -1  751.72   72.49
  -5   2  -1  754.72   69.89
  -2  -5  -1  758.12   87.99
   2   5  -1  711.33   72.29
   2   5  -1  834.42  134.89
   5  -2  -1  746.53   71.39
   5  -2  -1  717.83   77.69
  -2  -5  -1  806.22   81.19
  -2  -5  -1  706.33   79.99
  -5   2  -1  817.12   78.59
   5  -2  -1  759.32   72.19
   5  -2   1  763.72   72.79
   5  -2   1  687.83   76.19
  -2  -5   1  757.32   69.19
   5  -2   1  666.43   98.99
   2   5   1  601.44   73.69
   2   5   1  812.82   79.89
  -2  -5   1  766.32   92.59
  -2  -5   1  654.33   77.89
   2   5   1  734.23   85.69
  -5   2   1  704.03   72.69
   5  -2   1  705.63   66.89
  -5   2   1  771.12  117.79
  -2  -5   1  798.42   68.39
   2   5   1  648.34  125.89
   5  -3  -1 1359.06  120.19
   3   5  -1 1302.67  186.78
   3   5  -1 1314.87  117.69
   3   5  -1 1263.37  118.79
   3   5  -1 1391.36  113.09
  -3  -5  -1 1542.05  123.49
  -5   3  -1 1287.47  111.59
   3   5  -1 1136.59  126.29
   5  -3  -1 1271.27  121.09
  -5   3  -1 1410.46  129.29
  -5   3  -1 1526.85  189.98
   5  -3  -1 1324.47  115.79
  -3  -5  -1 1500.95  123.99
   5  -3  -1 1177.78  165.78
  -5   3   1 1486.05  127.99
  -3  -5   1 1328.67  113.19
  -3  -5   1 1488.55  117.19
   3   5   1 1169.38  179.28
  -3  -5   1 1265.47  121.99
   5  -3   1 1275.77  118.09
   5  -3   1 1312.17  116.89
   3   5   1 1381.26  127.89
   3   5   1 1171.08  121.99
   3   5   1 1326.37  119.49
  -5   3   1 1453.35  120.49
   3   5   1 1334.77  118.79
  -5   4  -1  763.82   73.59
   4   5  -1  855.61   83.89
  -4  -5  -1  797.42   84.49
   4   5  -1  754.62   88.79
   5  -4  -1  779.32   80.59
   4   5  -1  733.33   83.09
  -4  -5  -1  802.22   82.89
  -5   4  -1  606.44   97.09
   4   5  -1  550.74  123.09
   5  -4  -1  739.63   77.39
   4   5   1  664.83   82.49
  -5   4   1  627.44   84.69
   4   5   1  604.84   82.49
   5  -4   1  705.13   75.09
  -4  -5   1  844.42   81.19
   4   5   1  687.23   64.89
   5  -4   1  755.92   79.59
  -4  -5   1  739.23   74.29
   4   5   1  554.44  127.59
   5   5  -1  562.44   83.79
   5   5  -1  739.93   74.09
   5   5  -1  633.54  144.89
  -5   5  -1  686.03   71.59
  -5  -5  -1  791.92   88.29
   5  -5  -1  651.63   81.59
  -5   5  -1  459.75   85.79
   5  -5  -1  730.23   73.89
  -5  -5  -1  770.62   83.19
  -5  -5   1  734.53   83.29
   5  -5   1  710.93   83.39
   5   5   1  588.54   63.79
  -5   5   1  685.13   80.09
  -5  -5   1  681.63   72.79
   5   5   1  646.54   77.09
   5  -5   1  622.74   70.79
  -5   5   1  572.84   88.09
  -6  -5  -1  528.95   76.99
   5  -6  -1  439.86   56.09
  -6  -5  -1  474.65   69.59
   5  -6  -1  497.75   75.79
   6   5  -1  349.17   79.99
   6   5  -1  373.86   56.99
   6   5  -1  549.35  164.18
  -5   6  -1  456.95   58.59
  -6  -5   1  555.04   73.99
   5  -6   1  422.76   76.29
  -6  -5   1  356.46   60.49
   6   5   1  716.73  133.29
   6   5   1  457.85   65.89
   6   5   1  360.16   51.89
  -5   6   1  284.07   77.99
   4  -6  -1 1666.93  169.08
  -4   6  -1 1863.11  151.28
   6   4  -1 2012.10  248.78
  -6  -4  -1 2053.89  167.38
   6   4  -1 1958.30  192.48
  -4   6  -1 1694.73  175.28
  -6  -4  -1 1645.34  176.48
   6   4  -1 1591.84  174.78
   6   4  -1 1877.01  154.88
   6   4   1 1793.52  151.98
   4  -6   1 1922.11  164.08
   4  -6   1 1780.72  167.88
   6   4   1 1850.41  159.88
  -4   6   1 1933.91  163.58
  -6  -4   1 2117.09  174.08
  -6  -4   1 1846.02  154.58
   6   3  -1  923.11   97.89
  -3   6  -1  877.11   87.29
  -6  -3  -1  951.50   97.89
   3  -6  -1  762.82  104.89
   6   3  -1 1260.77  203.48
  -6  -3  -1 1126.09  114.29
   6   3  -1  975.30   92.39
  -6  -3  -1  902.01  113.49
   3  -6  -1  984.10   76.19
   6   3   1 1122.19  141.29
   3  -6   1  944.91   98.39
  -6  -3   1 1086.19  108.19
   6   3   1 1047.80  100.39
  -3   6   1  883.41  100.79
  -6  -3   1  940.51  102.29
  -6  -3   1  897.81   91.69
  -2   6  -1 2421.96  186.58
   6   2  -1 2627.14  260.57
   6   2  -1 2277.67  189.98
  -6  -2  -1 2532.35  213.58
  -6  -2  -1 2533.25  194.58
  -6  -2  -1 1865.11  246.08
  -6  -2  -1 2428.96  221.08
   6   2  -1 2328.17  185.78
  -2   6  -1 2102.89  197.18
  -2   6   1 2308.97  200.28
   2  -6   1 2384.86  194.68
  -6  -2   1 2287.77  185.78
  -6  -2   1 2408.26  201.38
   6   2   1 2425.56  230.28
  -6  -2   1 2498.85  204.38
   6   2   1 2372.86  190.18
   2  -6   1 2508.85  200.28
  -6  -1  -1 1119.29  120.89
  -6  -1  -1  985.50   99.09
   6   1  -1 1013.00   97.99
   6   1  -1 1077.19  101.89
  -6  -1  -1 1145.79  105.89
  -1   6  -1 1033.50  103.49
   6   1  -1 1269.37  159.08
   1  -6  -1  950.30  115.99
  -6  -1  -1 1316.17  121.79
  -1   6  -1 1109.39  103.29
   1  -6  -1 1156.48  106.99
   1  -6   1 1118.49  107.99
  -1   6   1  963.90  116.59
   6   1   1 1208.08  104.29
  -1   6   1  969.20  113.29
   1  -6   1 1080.99  100.79
  -6  -1   1 1208.38  114.09
   1  -6   1 1244.78  107.89
  -6  -1   1 1113.79  100.49
   6   1   1 1166.18  135.39
   0  -6  -1 3816.32  282.67
   0   6  -1 3500.05  284.07
   0   6  -1 3761.42  275.17
  -6   0  -1 3649.93  303.27
   6   0  -1 3287.67  270.37
   6   0  -1 3294.77  272.57
   0  -6  -1 3870.61  259.07
  -6   0  -1 3990.50  294.47
   6   0  -1 3691.73  338.57
   0  -6  -1 4000.10  296.07
  -6   0  -1 3986.00  282.87
   0   6   1 3437.56  289.37
   0  -6   1 3698.53  284.77
  -6   0   1 3915.51  290.07
   0  -6   1 3870.61  275.37
  -6   0   1 3598.74  273.87
  -6   0   1 3246.78  274.57
   6   0   1 3576.94  313.27
   6   0   1 3605.14  275.17
  -6   1  -1 1148.39  105.79
   1   6  -1 1093.69  171.28
  -1  -6  -1  978.90   90.49
   6  -1  -1 1091.39   98.29
   1   6  -1 1024.70   95.59
  -1  -6  -1 1170.58  111.89
  -6   1  -1 1090.59   98.19
  -1  -6  -1 1206.68   92.39
   6  -1  -1 1066.19  121.49
   6  -1  -1  972.10  147.59
  -1  -6  -1 1343.27  119.49
   6  -1   1 1136.09  101.59
   1   6   1 1102.09  110.09
  -6   1   1 1154.88  101.69
   1   6   1  993.60  171.98
  -6   1   1 1242.98  113.39
   1   6   1  810.62  114.79
  -1  -6   1 1169.88   98.09
   6  -1   1 1112.09  134.69
   6  -1   1  969.10  106.19
  -1  -6   1 1292.37  118.89
  -1  -6   1  910.41  102.69
  -6   1   1  974.20   98.99
  -6   2  -1 2197.58  199.58
  -6   2  -1 2680.83  200.58
  -2  -6  -1 2685.83  199.28
  -6   2  -1 2270.87  182.68
   6  -2  -1 2215.68  246.58
   2   6  -1 2355.46  181.68
   2   6  -1 2141.89  168.48
   6  -2  -1 2356.36  196.38
   2   6  -1 2095.09  181.98
   6  -2  -1 2330.57  184.28
   2   6  -1 2377.36  275.87
  -2  -6  -1 2677.53  184.58
  -2  -6  -1 2523.25  210.18
   2   6   1 2165.28  273.27
   2   6   1 1832.02  197.68
  -2  -6   1 2618.24  218.18
   6  -2   1 1933.31  219.28
  -6   2   1 2262.77  187.68
   2   6   1 2714.83  211.78
   6  -2   1 2116.29  191.98
   6  -2   1 2407.76  186.78
   3   6  -1  824.42   92.29
  -3  -6  -1  921.71   98.49
  -6   3  -1 1092.39  101.59
  -6   3  -1  827.82   87.09
   3   6  -1  927.11   87.99
   3   6  -1  972.20  172.68
   3   6  -1  832.02  104.39
   6  -3  -1  874.61   98.89
   6  -3  -1  920.11  145.69
   3   6  -1  948.21   94.69
  -3  -6  -1 1025.40   95.49
   6  -3  -1  954.30   93.19
   3   6   1  886.61   92.19
   3   6   1  762.92  158.48
  -3  -6   1 1041.80   90.99
  -6   3   1 1145.69  108.29
  -6   3   1  887.01   93.89
   6  -3   1  848.32   96.99
   6  -3   1 1062.59   97.39
   3   6   1  998.60   98.59
  -3  -6   1  941.31   88.19
   3   6   1  947.71  109.99
  -6   4  -1 1763.92  156.78
   6  -4  -1 1963.00  167.38
  -6   4  -1 1876.31  181.78
   4   6  -1 1888.31  160.38
  -4  -6  -1 2047.70  169.18
  -4  -6  -1 2251.37  172.18
   4   6  -1 1715.53  178.28
   6  -4  -1 1915.61  163.88
   4   6  -1 1815.12  155.38
   4   6  -1 1868.41  257.07
   4   6  -1 1755.12  167.18
  -6   4   1 2146.99  181.58
  -4  -6   1 1963.90  157.48
   4   6   1 1484.55  232.98
   4   6   1 1915.01  196.18
   6  -4   1 1813.22  164.08
   4   6   1 1947.31  165.68
   6  -4   1 1885.31  165.58
   6  -5  -1  433.16   63.49
  -5  -6  -1  452.35   67.89
  -6   5  -1  435.56   57.89
   5   6  -1  415.26   79.39
  -5  -6  -1  513.65   72.69
   5   6  -1  497.15  158.98
   5   6  -1  460.85   58.09
  -6   5  -1  283.17   75.49
   5   6   1  394.06   62.59
   5   6   1  449.16  138.69
   6  -5   1  338.87   60.49
   6  -5   1  516.95   71.99
  -6   5   1  409.06   76.49
  -5  -6   1  468.35   60.19
  -6   6  -1 1113.29  113.79
   6  -6  -1 1100.79  128.99
   6   6  -1  981.60  120.79
  -6  -6  -1 1420.86  140.39
  -6  -6  -1 1096.59  125.29
   6   6   1 1286.07  207.38
   6   6   1 1409.66  142.69
  -6  -6   1 1414.26  136.39
  -6  -6   1 1222.28  120.19
   6  -6   1 1233.38  135.69
  -7  -5  -1  580.14   82.79
   7   5  -1  721.73  187.98
   7   5  -1  610.74   82.49
   5  -7  -1  410.26   68.89
   5  -7  -1  346.07   79.29
   5  -7   1  293.57   69.99
  -7  -5   1  411.26   70.29
  -7  -5   1  629.64   95.69
   5  -7   1  567.04   92.49
  -5   7   1  477.25   51.09
   7   5   1  470.35   78.69
   7   5   1  603.54  146.19
  -4   7  -1  483.95   65.49
   4  -7  -1  344.87   87.79
  -7  -4  -1  536.05   75.89
  -7  -4  -1  635.24   89.79
   7   4  -1  742.53  143.59
   7   4  -1  547.25   68.29
  -7  -4  -1  607.04   91.89
  -4   7  -1  386.16   87.39
   7   4   1  451.95   69.39
   7   4   1  660.63  131.39
   4  -7   1  464.95   72.09
   4  -7   1  431.26   81.19
   7   4   1  463.85   71.49
  -7  -4   1  554.14   68.79
  -7  -4   1  576.24   81.19
  -7  -4   1  654.63   86.19
  -7  -3  -1  943.81  121.79
   3  -7  -1  770.32  107.09
  -3   7  -1  638.54   93.19
  -7  -3  -1  783.92   93.39
  -7  -3  -1  990.10  112.59
  -3   7  -1  707.33   79.59
   7   3  -1 1170.18  170.68
   7   3  -1  805.42   86.59
   3  -7   1  790.32   97.89
   7   3   1  723.23   88.29
  -7  -3   1  888.91   89.69
  -7  -3   1 1017.50  109.59
  -3   7   1  733.33   97.99
   7   3   1  946.91  139.19
   3  -7   1  810.52   95.19
  -7  -3   1  970.40  107.29
   7   2  -1  429.96   59.19
  -7  -2  -1  461.65   66.29
  -2   7  -1  404.96   65.29
  -2   7  -1  478.45   57.99
   2  -7  -1  360.86   81.99
   7   2  -1  648.64  122.49
  -7  -2  -1  581.84   81.79
   2  -7  -1  465.65   67.49
  -7  -2  -1  613.84   83.99
   7   2   1  419.56   62.29
   7   2   1  541.45  117.19
  -7  -2   1  558.54   78.19
  -2   7   1  418.36   90.59
   2  -7   1  458.25   68.39
   2  -7   1  456.15   67.59
  -7  -2   1  572.24   76.89
  -7  -2   1  511.45   63.89
  -1   7  -1  911.91   91.49
  -1   7  -1  837.92   86.79
   1  -7  -1  866.71  109.49
   7   1  -1  968.80  147.69
   7   1  -1  846.92   85.69
  -7  -1  -1  945.81  107.29
   1  -7  -1  842.92   94.19
  -7  -1  -1  802.62   91.79
  -1   7   1  809.02  101.99
   7   1   1  791.52  119.29
  -1   7   1  871.41  109.79
   7   1   1  759.92   88.09
  -7  -1   1  739.23   83.69
   1  -7   1  779.92   93.19
  -7  -1   1  887.91  101.69
   0   7  -1  698.83   79.39
   0  -7  -1  593.34   80.69
  -7   0  -1  762.12   92.59
  -7   0  -1  722.63   81.89
   0   7  -1  582.04  129.49
   0   7  -1  682.43   73.19
   7   0  -1  769.42  130.79
   7   0  -1  631.24   72.19
   0  -7  -1  686.33   91.59
   7   0   1  621.44  106.09
  -7   0   1  681.53   75.19
  -7   0   1  794.42   89.69
   0   7   1  495.45   94.69
   0   7   1  580.04   85.09
   7   0   1  592.94   73.39
  -7   1  -1  795.42   90.39
   7  -1  -1  756.82   80.99
   1   7  -1  592.74   91.39
  -1  -7  -1  819.32  100.79
  -7   1  -1  829.62   97.19
  -1  -7  -1  915.01   71.49
   1   7  -1  767.52   79.69
   7  -1  -1  619.24  127.39
  -1  -7  -1  857.21   98.29
   1   7  -1  704.03  146.49
  -7   1   1  856.71   86.99
   7  -1   1  655.83  133.59
   1   7   1  798.12   93.99
   1   7   1  669.73  180.98
   7  -1   1  788.82   85.79
  -1  -7   1  855.21   82.49
  -2  -7  -1  538.95   87.59
   2   7  -1  477.45   59.99
   7  -2  -1  496.05   62.99
   2   7  -1  501.45   43.90
  -7   2  -1  528.25   75.09
   2   7  -1  372.26   69.79
  -2  -7  -1  537.45   73.39
   7  -2  -1  356.56  109.89
  -7   2  -1  454.65   69.09
   2   7  -1  557.44  155.58
  -2  -7  -1  553.24   58.19
   7  -2   1  451.45   94.49
  -2  -7   1  474.55   60.89
   2   7   1  471.75   69.09
   2   7   1  419.16  145.79
  -2  -7   1  625.54   74.99
   7  -2   1  471.85   65.09
   2   7   1  433.66   78.89
  -2  -7   1  486.75   86.79
   7  -3  -1  740.73  133.79
   3   7  -1  663.13   88.89
  -3  -7  -1  956.10   90.09
   7  -3  -1  718.73   89.39
   3   7  -1  870.61  170.88
  -3  -7  -1  983.50  101.59
   3   7  -1  861.01   85.29
   3   7   1  803.72   83.59
  -3  -7   1  890.51   87.39
   3   7   1  908.21   97.59
  -7   3   1 1005.20  107.19
   3   7   1  685.73  187.28
   7  -3   1  926.01   96.29
  -4  -7  -1  611.14   74.29
   7  -4  -1  422.26   68.19
  -4  -7  -1  549.74   85.89
   4   7  -1  530.25  169.48
  -7   4  -1  395.76   89.69
   4   7  -1  559.04   66.89
   4   7  -1  424.16   72.29
   4   7   1  542.25   73.09
  -4  -7   1  520.45   65.49
   7  -4   1  455.35   71.99
   4   7   1  353.26  139.19
  -7   4   1  613.04   87.79
  -5  -7  -1  649.54   85.29
   5   7  -1  529.15  179.48
   7  -5  -1  612.74   83.89
  -5  -7  -1  551.54   83.49
  -7   5   1  333.47  124.09
  -5  -7   1  614.14   77.09
   5   7   1  458.95  166.38
   7  -5   1  499.05   93.29
   8   4  -1  865.61  101.69
  -8  -4  -1  992.10  127.09
  -4   8  -1  958.40  135.89
   4  -8  -1  971.60  116.09
  -8  -4  -1 1116.49  134.29
   8   4  -1 1398.86  215.78
   4  -8   1  848.42  110.49
  -8  -4   1  903.51  107.09
  -8  -4   1 1148.69  129.79
   4  -8   1  885.61  119.59
   8   4   1  962.00  109.79
  -3   8  -1  397.06   56.89
  -8  -3  -1  380.86   82.19
   3  -8  -1  406.96   88.09
   8   3   1  267.77   68.79
  -8  -3   1  319.67   58.99
  -3   8   1  239.98   83.29
   3  -8   1  323.57   71.99
   3  -8   1  260.07   65.39
   8   3   1  324.87  103.09
  -8  -3   1  498.05   89.39
  -2   8  -1  887.61  101.49
   2  -8  -1 1154.38  121.39
  -2   8  -1 1073.79  114.89
   2  -8  -1 1093.29  133.99
   8   2  -1 1095.29  179.68
  -8  -2  -1 1121.79  119.29
   8   2  -1  829.92  133.19
  -8  -2   1 1221.08  134.59
   8   2   1 1076.29  151.28
  -2   8   1  923.71  118.09
   2  -8   1 1089.09  115.49
   8   2   1 1142.59  113.09
  -8  -2   1 1020.40  107.29
   2  -8   1 1056.09  117.89
   1  -8  -1  382.46   76.39
   8   1  -1  469.25  126.19
  -8  -1  -1  449.86   77.79
  -8  -1  -1  323.97   63.39
  -1   8  -1  471.95   63.99
   1  -8  -1  382.26   81.89
   8   1  -1  346.67   55.99
  -1   8  -1  384.36   63.09
  -1   8   1  456.55   77.79
  -8  -1   1  479.05   76.39
  -8  -1   1  371.56   60.89
  -1   8   1  243.38   72.59
   8   1   1  341.87   60.69
   1  -8   1  463.55   67.19
   8   1   1  261.17   89.39
   1  -8   1  449.16   73.59
   8   0  -1 1292.67  183.88
   8   0  -1 1109.49  116.09
   0   8  -1 1102.49  119.19
   0   8  -1 1289.57  119.09
   0  -8  -1 1354.86  140.09
  -8   0  -1 1549.34  149.19
   0   8  -1 1242.78  219.48
   0  -8  -1 1462.35  143.49
  -8   0  -1 1285.97  129.89
   0   8   1  967.90  138.09
   0  -8   1 1224.78  118.59
   0  -8   1 1120.49  134.89
   8   0   1 1221.88  158.38
   0   8   1 1209.58  134.69
   8   0   1 1214.08  122.49
  -8   0   1 1298.47  122.79
   8  -1  -1  456.45   62.89
  -8   1  -1  394.36   67.79
   1   8  -1  368.26  139.49
  -1  -8  -1  440.36   76.59
  -8   1  -1  542.45   83.49
   1   8  -1  380.36   57.29
   8  -1  -1  376.06  111.79
   1   8   1  445.76   72.09
   1   8   1  530.55   91.29
   1   8   1  260.97  132.89
  -8   1   1  384.86   62.59
   8  -1   1  328.17   90.69
   8  -1   1  372.86   63.89
  -1  -8   1  387.16   58.59
  -1  -8   1  392.46   87.39
  -2  -8  -1 1160.88  123.09
   8  -2  -1 1081.09  110.69
  -2  -8  -1 1006.40  140.29
   8  -2  -1  922.21  172.88
  -8   2  -1 1270.07  130.79
   2   8  -1 1142.99  107.69
   8  -2   1  942.61  149.49
   2   8   1  952.00  123.09
  -2  -8   1 1280.37  146.39
   8  -2   1 1069.29  114.39
   2   8   1 1032.50  219.18
  -2  -8   1 1172.18  109.59
   8  -3  -1  337.47  117.19
  -3  -8  -1  486.05   61.99
   8  -3  -1  421.56   67.39
   3   8  -1  466.65  190.38
   3   8  -1  364.36   58.89
  -3  -8  -1  444.76   75.49
   3   8   1  505.95   49.80
  -3  -8   1  377.06   62.99
   3   8   1  303.77  100.59
   8  -3   1  554.44   77.79
  -8   4  -1 1020.10  142.79
   4   8  -1 1007.40  102.59
   8  -4  -1  918.81  111.69
   4   8  -1  997.70  213.28
  -4  -8  -1 1043.20  108.09
  -4  -8  -1 1099.19  122.59
  -8   4   1 1032.30  132.29
   8  -4   1  929.81  115.89
  -4  -8   1  977.00  103.89
   4   8   1 1104.99  115.19
  -1   9  -1  700.53  115.09
   1  -9  -1  505.35  105.69
  -9  -1  -1  549.25   89.99
  -9  -1  -1  824.02  112.39
   9   1  -1  601.04   81.69
   1  -9   1  775.62   92.59
  -1   9   1  719.93  107.59
  -9  -1   1  593.64   84.89
   0  -9  -1  622.84  103.09
   9   0  -1  651.53  136.99
   0  -9  -1  489.35   89.29
  -9   0  -1  586.64   93.99
   0   9  -1  457.25  166.38
  -9   0  -1  515.15   83.29
  -9   0   1  589.74   78.69
   0  -9   1  309.17   97.49
   9   0   1  294.47   97.99
   9   0   1  435.86   75.79
   0  -9   1  436.16   74.19
   0   9   1  534.75   86.09
   0   9   1  344.97  172.68
  -1  -9  -1  643.04  102.99
  -9   1  -1  763.82  107.39
  -9   1  -1  619.24   96.79
   1   9   1  765.32  100.69
  -9   1   1  731.43   91.09
  -1  -9   1  525.05   82.49
   0   0  -2 1595.14  122.69
   0   0  -2 1514.85  121.79
   0   0  -2 1628.54  156.88
   0   0  -2 1698.33  127.29
   0   0   2 1570.84  121.29
   0   0   2 1821.32  127.09
   0   0   2 1869.21  140.79
   0   0   2 1976.00  123.39
   0   0   2 1668.33  156.88
   0   1  -2 7928.41  541.15
  -1   0  -2 6699.73  508.25
  -1   0  -2 6877.11  512.05
  -1   0  -2 8091.39  495.55
   0   1  -2 7474.95  513.35
   1   0  -2 7488.75  496.05
  -1   0  -2 6642.54  495.85
   0  -1  -2 6707.73  504.15
   0   1  -2 7718.93  508.85
   0   1  -2 8142.49  509.85
   0  -1   2 8047.99  503.85
  -1   0   2 7584.04  496.15
   0   1   2 7172.28  501.55
   1   0   2 5862.81  503.15
   1   0   2 7239.08  494.15
   0   1   2 7053.49  538.35
   0  -1   2 8148.38  511.55
  -1   0   2 7103.49  512.05
   0   1   2 6147.88  500.45
   1   0   2 7136.79  516.55
   1  -1  -2  117.69   33.60
   1   1  -2   88.09   10.90
   1  -1  -2   75.29   13.70
  -1   1  -2   70.29   27.90
  -1  -1  -2   79.39   18.60
   1   1  -2   83.09    9.40
   1   1  -2   72.99   24.20
  -1   1  -2   80.19   22.30
  -1   1  -2   71.79   16.00
  -1   1  -2   70.29    8.00
  -1  -1  -2   61.99   25.20
  -1   1  -2   91.09   14.20
  -1   1  -2   72.29    9.00
  -1  -1  -2   73.39   21.10
   1   1  -2   80.19   28.70
  -1  -1  -2   79.89   13.50
   1  -1  -2   70.19   17.50
  -1  -1  -2   81.99    7.70
  -1   1   2   87.99   15.30
   1   1   2   49.80   23.60
  -1  -1   2   71.29    8.70
  -1   1   2   87.99   23.30
   1   1   2   83.19   15.60
   1   1   2   68.79   12.80
   1  -1   2   96.19   13.70
  -1   1   2   77.99   18.20
  -1  -1   2   76.29    9.90
   1  -1   2   61.99   20.80
   1   1   2   55.29   17.30
   1  -1   2   70.49    8.00
   1  -1   2   53.89   14.60
  -1  -1   2   62.89   17.50
  -1  -1   2   52.49   24.80
   1   1   2   54.09   16.60
   1  -2  -2 1277.87   99.39
  -2  -1  -2 1100.19  101.09
  -1   2  -2 1220.58  121.89
  -1   2  -2 1042.10   89.39
  -2  -1  -2 1226.88   90.09
  -2  -1  -2 1138.19  107.19
  -1   2  -2 1153.48   81.99
  -1   2  -2 1130.99   99.29
   1  -2  -2  925.51   95.79
   2   1  -2 1236.88   95.69
  -2  -1  -2 1295.57   94.59
   2   1  -2 1071.79  119.89
  -2  -1  -2 1186.88  101.09
   2   1  -2 1237.98   89.39
   2   1  -2 1136.99   85.89
   2   1   2 1138.19   88.29
  -1   2   2 1278.07  101.69
   2   1   2 1037.30   97.49
  -2  -1   2 1192.58   85.99
  -2  -1   2 1118.79   87.79
  -1   2   2 1271.07  110.59
   2   1   2 1176.68   96.89
  -2  -1   2 1121.59  120.89
   1  -2   2 1173.98   91.99
  -1   2   2 1069.19   96.49
   2   1   2 1198.48  109.09
   1  -2   2 1126.69   81.69
   2   1   2 1198.68   92.09
  -2   0  -2 1323.57  105.79
   0  -2  -2 1080.19  113.59
   0   2  -2 1215.88   91.59
   0   2  -2 1243.38   87.79
  -2   0  -2 1280.67   93.39
   0  -2  -2 1042.10  104.49
   2   0  -2 1067.39  120.39
   0   2  -2 1168.88  116.99
   2   0  -2 1384.46   96.49
   0   2  -2 1448.85  105.59
   2   0  -2 1238.68   92.99
  -2   0  -2 1439.86   97.29
  -2   0  -2 1324.97  111.89
   0   2  -2 1354.76  101.79
   2   0   2 1374.46   95.59
   2   0   2 1290.37  111.99
   2   0   2 1152.08  102.59
   0  -2   2 1062.79  120.29
   2   0   2 1265.07  100.59
   0   2   2 1155.18  103.99
   2   0   2 1243.88   92.29
  -2   0   2 1319.57  120.49
  -2   0   2 1320.57   95.79
   0  -2   2 1333.97  101.59
  -2   0   2 1202.48   92.59
   2  -1  -2 1189.58   90.49
   1   2  -2 1054.49   92.39
  -2   1  -2 1163.08  113.69
  -2   1  -2 1189.58   88.79
  -1  -2  -2 1144.69  101.49
  -2   1  -2 1097.09   85.69
  -2   1  -2 1263.67  107.19
   1   2  -2 1162.88  121.09
   1   2  -2 1154.08   84.39
  -1  -2  -2 1340.97  103.39
  -1  -2  -2 1138.69   94.49
   2  -1  -2 1191.08  122.69
   1   2  -2 1210.08   89.29
   1   2  -2 1179.98  107.39
   1   2  -2 1267.57   92.09
   2  -1  -2 1317.47   94.49
  -2   1  -2 1206.78   96.99
   2  -1   2 1138.09   87.19
  -1  -2   2  981.90  121.69
   1   2   2 1044.90   98.79
   1   2   2 1150.88   97.39
   2  -1   2 1046.90   94.89
  -1  -2   2 1409.16  108.09
   1   2   2 1159.18   94.59
  -2   1   2 1282.37   94.59
   1   2   2 1079.79  108.79
  -1  -2   2 1147.29   84.09
  -2   1   2 1262.37   93.19
  -2   1   2 1334.87  114.99
  -1  -2   2 1133.89   87.09
   2  -1   2 1075.39   84.89
   2   2  -2  793.32  103.49
  -2   2  -2  822.02   64.49
  -2   2  -2  825.02   71.09
  -2  -2  -2  872.71   81.89
   2   2  -2  934.11   72.19
  -2   2  -2  850.11  104.09
  -2  -2  -2  968.40   79.99
  -2  -2  -2  836.12   92.89
   2   2  -2  876.91   74.79
   2  -2  -2  950.70   74.99
   2   2  -2  788.42   65.89
   2  -2  -2  844.42  104.69
  -2   2   2  908.51   78.59
   2   2   2  904.61   94.69
  -2  -2   2  845.52   65.89
   2  -2   2  932.51   68.19
  -2   2   2  814.32   92.09
   2   2   2  755.22   78.59
  -2  -2   2  890.71   70.09
  -2   2   2  895.41   76.89
   2  -2   2  822.02   66.19
  -2  -2   2  750.12   66.19
   2  -2   2  877.31   72.09
   2   2   2  839.72   71.89
  -2  -2   2  643.14   99.99
   2   2   2  892.81   76.29
   2   2   2  918.41   94.29
   3   2  -2 3137.19  306.37
  -3  -2  -2 3410.66  285.07
  -3  -2  -2 3329.07  257.47
  -2   3  -2 3719.03  249.97
   3   2  -2 3680.83  259.67
   3   2  -2 3486.55  252.87
  -3  -2  -2 3846.52  273.57
  -2   3  -2 3795.52  251.67
   3   2  -2 3618.94  265.07
   2  -3  -2 3906.71  268.87
   2  -3  -2 3855.71  271.77
  -3  -2  -2 3372.26  284.17
  -3  -2  -2 4031.40  266.57
   2  -3   2 3565.84  248.58
  -2   3   2 3547.55  292.77
  -3  -2   2 3578.64  252.57
   2  -3   2 3778.92  257.87
   3   2   2 3176.18  267.27
   3   2   2 3293.07  277.97
  -2   3   2 3303.57  267.27
   3   2   2 3666.03  276.87
   2  -3   2 3750.12  260.87
  -3  -2   2 3378.16  256.67
   3   2   2 3577.64  257.57
  -2   3   2 3658.83  269.17
   3   2   2 3770.62  249.08
  -3  -2   2 2861.61  303.47
  -1   3  -2  141.89   21.60
  -3  -1  -2  163.38   39.60
  -3  -1  -2  154.18   24.90
  -1   3  -2  110.49   43.70
  -1   3  -2  171.28   17.50
  -3  -1  -2  124.39   37.60
   3   1  -2  145.89   23.00
   1  -3  -2  124.79   32.00
   3   1  -2  149.59   26.70
   1  -3  -2   87.99   27.00
   1  -3  -2   94.59   36.80
  -1   3  -2  162.98   16.80
  -1   3   2  153.28   36.00
  -3  -1   2  107.69   46.20
  -1   3   2  153.68   34.80
   3   1   2  169.58   22.30
  -1   3   2  124.09   41.20
   3   1   2  169.88   25.40
   1  -3   2  124.29   21.10
  -3  -1   2  133.09   19.60
  -3  -1   2  161.48   22.80
   3   1   2  176.88   31.80
  -1   3   2  173.88   38.30
   1  -3   2  188.48   21.40
   3   1   2  139.49   27.50
   0  -3  -2 5968.90  459.15
   0   3  -2 6542.95  438.06
  -3   0  -2 7200.58  459.95
  -3   0  -2 6367.16  442.66
   0  -3  -2 5365.86  458.75
  -3   0  -2 6797.42  467.75
   3   0  -2 6340.47  442.26
   3   0  -2 6529.85  446.06
   3   0  -2 6959.80  455.05
   0   3  -2 6250.27  441.96
   0   3  -2 6870.81  453.65
   0  -3  -2 6227.28  471.35
  -3   0  -2 6956.90  448.16
   0   3  -2 6939.71  451.15
   3   0  -2 6391.46  493.75
  -3   0   2 6297.67  445.36
   0  -3   2 5994.50  477.65
   3   0   2 5796.62  452.75
   0  -3   2 6495.75  451.25
  -3   0   2 6627.84  442.66
   0  -3   2 6491.95  437.96
   3   0   2 6220.88  441.06
  -3   0   2 6658.83  487.25
   0   3   2 5830.82  457.35
   3   0   2 6363.76  458.15
   3   0   2 6668.33  445.56
   0   3   2 5246.77  455.35
   1   3  -2  146.19   19.90
   1   3  -2  166.08   21.70
  -1  -3  -2  165.18   37.50
   3  -1  -2  172.48   27.40
   3  -1  -2  151.18   21.70
  -3   1  -2  155.78   20.10
   3  -1  -2  168.58   25.20
   1   3  -2  142.79   25.60
   1   3  -2  146.09   18.30
  -3   1  -2  153.98   47.40
  -3   1  -2  145.99   23.10
  -1  -3  -2  174.68   29.10
  -3   1  -2  158.48   32.10
   1   3  -2  169.98   36.30
  -1  -3  -2  199.68   21.80
  -3   1  -2  186.48   29.90
  -1  -3  -2  169.08   30.20
   1   3   2  122.29   27.10
  -3   1   2  178.38   25.60
  -3   1   2  195.78   52.69
  -1  -3   2  156.08   18.20
  -1  -3   2  182.68   36.90
   3  -1   2  143.89   26.00
   1   3   2  138.19   31.00
   3  -1   2  147.19   37.90
   3  -1   2  129.69   18.60
   1   3   2  172.18   35.60
  -1  -3   2  153.58   23.50
   1   3   2  150.98   28.30
   3  -1   2  156.68   22.10
   3  -2  -2 3382.66  306.37
   3  -2  -2 3921.81  262.07
  -3   2  -2 3512.75  250.47
   2   3  -2 3546.05  250.87
  -3   2  -2 3663.23  310.47
   3  -2  -2 3593.54  256.67
   3  -2  -2 3611.14  261.07
   2   3  -2 3740.63  261.07
  -3   2  -2 3651.03  260.07
  -3   2  -2 3546.75  256.47
  -2  -3  -2 3803.62  269.47
   2   3  -2 3446.36  309.47
  -2  -3  -2 4037.00  272.67
  -2  -3  -2 3433.36  260.67
   2   3  -2 3579.54  279.07
  -2  -3   2 3274.67  314.47
  -2  -3   2 3466.95  249.38
   2   3   2 3469.15  260.17
   3  -2   2 3178.98  258.27
   3  -2   2 3392.46  248.78
  -3   2   2 3775.42  296.37
  -3   2   2 3843.92  262.47
   2   3   2 3707.23  265.07
  -2  -3   2 3452.25  255.87
   2   3   2 3381.06  286.77
   3  -2   2 3732.23  254.37
   2   3   2 3139.59  265.17
  -3   2   2 3628.04  262.07
   2   3   2 3073.09  294.47
  -3   3  -2  213.18   24.80
  -3  -3  -2  213.88   38.30
  -3  -3  -2  283.77   64.49
  -3  -3  -2  170.48   30.40
  -3   3  -2  230.18   72.69
   3   3  -2  172.98   25.10
   3   3  -2  201.38   32.50
  -3   3  -2  159.98   35.00
   3   3  -2  144.69   49.90
   3  -3  -2  202.08   29.50
  -3   3  -2  242.78   29.40
   3  -3  -2  202.78   32.60
   3   3  -2  226.58   75.49
  -3  -3  -2  215.78   37.50
   3  -3  -2  204.08   32.90
   3   3   2  189.28   18.40
  -3  -3   2  143.59   64.89
  -3   3   2  232.68   51.69
   3   3   2  165.88   29.20
  -3   3   2  199.38   34.90
   3  -3   2  169.88   28.00
   3   3   2  207.08   42.00
   3   3   2  188.08   58.39
   3   3   2  177.58   33.50
  -3  -3   2  159.98   28.20
   3  -3   2  191.38   23.30
  -3  -3   2  167.28   24.50
  -3   3   2  194.18   35.30
   3   3   2  170.18   35.10
   3  -3   2  219.38   30.60
   4   3  -2 2397.56  191.28
  -4  -3  -2 2183.38  236.38
   4   3  -2 2464.85  181.48
  -3   4  -2 2676.73  177.28
  -3   4  -2 2355.96  260.07
  -3   4  -2 2470.65  177.88
   3  -4  -2 2508.15  195.18
   4   3  -2 2519.55  197.08
  -4  -3  -2 2382.86  188.38
  -4  -3  -2 2503.75  194.98
   3  -4  -2 2517.15  184.18
   4   3  -2 2428.46  256.27
  -4  -3  -2 2018.00  209.78
  -4  -3   2 2526.15  191.08
   4   3   2 2442.96  224.28
   4   3   2 2428.76  172.58
   3  -4   2 2570.94  190.48
   3  -4   2 2473.05  188.78
  -4  -3   2 2024.80  251.77
  -3   4   2 2447.96  234.68
  -4  -3   2 2308.97  174.68
   4   3   2 2618.34  193.18
  -4  -3   2 2581.74  193.28
   3  -4   2 2335.87  175.38
  -3   4   2 2544.75  198.28
   4   3   2 2322.57  185.88
   4   3   2 2162.48  197.68
  -4  -3   2 2446.16  180.88
  -3   4   2 2156.18  197.38
  -4  -2  -2  740.23   76.79
   4   2  -2  645.04   63.59
  -4  -2  -2  583.24   60.39
   4   2  -2  670.43  106.49
  -4  -2  -2  556.34   87.09
   4   2  -2  601.84   67.99
  -2   4  -2  578.44   85.39
   4   2  -2  602.94   57.09
   2  -4  -2  567.54   70.19
  -4  -2  -2  533.55   75.89
   2  -4  -2  523.45   68.39
  -2   4  -2  643.24   53.59
  -4  -2  -2  669.43   67.59
   4   2   2  652.93   64.89
  -4  -2   2  587.34   61.19
  -2   4   2  446.36   67.99
  -2   4   2  758.92   78.99
   4   2   2  607.54   59.09
   2  -4   2  646.64   64.59
  -2   4   2  583.34   89.19
  -4  -2   2  528.35   99.19
  -2   4   2  643.44   72.69
   2  -4   2  584.14   51.39
  -4  -2   2  684.33   67.69
   2  -4   2  639.54   63.99
   4   2   2  672.93   88.99
  -4  -2   2  638.04   57.39
   4   2   2  555.04   68.19
  -4  -1  -2 2717.63  204.38
   4   1  -2 2933.61  217.38
   4   1  -2 2735.13  201.98
  -4  -1  -2 2772.12  227.38
   4   1  -2 2786.92  206.98
   1  -4  -2 2365.96  219.88
   4   1  -2 2936.01  266.67
  -1   4  -2 2656.83  202.98
   1  -4  -2 2706.03  224.58
  -4  -1  -2 3185.48  213.88
  -4  -1  -2 3077.89  223.78
  -1   4  -2 3003.10  198.78
  -1   4   2 2253.37  217.68
  -4  -1   2 2804.02  201.98
   1  -4   2 2795.82  203.68
   1  -4   2 2863.31  198.88
  -4  -1   2 2620.84  205.38
  -1   4   2 2343.77  219.78
  -4  -1   2 2574.94  258.97
   1  -4   2 2820.82  210.78
   4   1   2 2530.05  215.18
   4   1   2 3040.40  209.48
   4   1   2 2984.30  225.78
   4   1   2 2725.93  202.48
   0  -4  -2  820.12   79.89
   4   0  -2  880.11   83.09
   4   0  -2  879.31   75.59
   0  -4  -2  640.84   80.99
   0   4  -2  829.42   72.09
   4   0  -2  903.11  119.59
  -4   0  -2  969.80   88.19
   4   0  -2  809.82   70.99
  -4   0  -2  882.91   77.79
  -4   0  -2  808.82   71.19
  -4   0  -2  862.31   92.79
   0  -4  -2  769.82   91.39
   0   4  -2  834.52   72.69
   0   4  -2  860.71   61.39
   4   0   2  888.91   75.29
   0  -4   2  754.42   96.89
  -4   0   2  860.71   72.59
   0  -4   2  881.91   80.79
   4   0   2  794.92   69.59
   0   4   2  825.62   89.39
   4   0   2  771.02   80.69
  -4   0   2  838.12  110.39
  -4   0   2  791.12   74.19
   4   0   2  787.22   87.79
   0  -4   2  848.22   67.79
   0   4   2  662.23   83.89
   1   4  -2 2887.71  205.08
  -1  -4  -2 2890.61  228.68
  -4   1  -2 2898.01  235.38
   1   4  -2 2906.81  211.98
  -4   1  -2 3094.59  222.58
   4  -1  -2 2929.61  219.58
   4  -1  -2 2800.32  207.88
  -1  -4  -2 2375.86  217.28
   1   4  -2 2960.30  220.38
  -1  -4  -2 2891.41  217.18
  -4   1  -2 3132.39  215.18
   1   4  -2 2795.92  202.88
   1   4  -2 2585.84  259.07
  -1  -4  -2 3120.59  210.98
  -4   1  -2 2797.32  207.18
   4  -1  -2 2814.52  266.47
   4  -1  -2 2875.81  212.58
  -4   1   2 3066.69  259.67
   4  -1   2 2889.11  209.98
   1   4   2 2706.23  222.58
  -1  -4   2 2924.51  222.98
   4  -1   2 2605.94  203.68
  -1  -4   2 2873.51  202.48
   4  -1   2 2517.85  215.58
   4  -1   2 2470.65  230.78
  -4   1   2 2833.22  208.58
  -4   1   2 2818.32  212.98
   1   4   2 2964.50  225.18
  -2  -4  -2  610.24   66.79
   4  -2  -2  614.24   64.89
  -4   2  -2  620.04   62.59
  -4   2  -2  559.54   54.69
  -2  -4  -2  548.05   66.19
   4  -2  -2  595.84   59.19
   4  -2  -2  547.55  100.19
   2   4  -2  643.84   72.69
   2   4  -2  516.85   65.29
   2   4  -2  663.33   55.59
   4  -2  -2  637.04   63.49
  -4   2  -2  672.13   66.09
  -2  -4  -2  702.33   71.19
   2   4  -2  582.74  102.59
  -4   2  -2  584.14   99.89
  -2  -4  -2  777.42   77.09
  -4   2   2  655.43   95.09
  -4   2   2  674.43   65.39
   4  -2   2  579.64   63.89
   2   4   2  506.35   97.19
  -4   2   2  647.14   64.89
  -2  -4   2  555.94   61.69
   4  -2   2  591.24   53.89
  -2  -4   2  637.14   54.49
  -2  -4   2  626.24   79.29
   2   4   2  732.93   72.39
   2   4   2  621.84   67.29
   4  -2   2  616.34   59.99
   2   4   2  487.75   64.19
   2   4   2  488.05   79.69
  -4   3  -2 2326.37  197.38
   3   4  -2 2519.85  182.68
  -4   3  -2 2482.55  182.08
  -3  -4  -2 2721.13  202.48
   4  -3  -2 2474.25  189.48
   4  -3  -2 2590.44  193.28
   3   4  -2 2352.66  196.68
  -4   3  -2 2517.75  200.38
   4  -3  -2 2282.87  248.98
   3   4  -2 2233.68  250.77
   3   4  -2 2408.66  210.78
  -4   3  -2 2394.56  257.97
  -3  -4  -2 2763.32  203.48
  -4   3   2 2527.85  195.98
   3   4   2 2186.38  190.58
   4  -3   2 2284.37  179.58
   4  -3   2 2653.53  189.58
  -4   3   2 2622.34  197.88
   3   4   2 2529.35  197.08
   3   4   2 2555.44  212.58
  -3  -4   2 2223.68  259.27
  -3  -4   2 2519.65  181.88
   3   4   2 2528.35  248.68
   3   4   2 2110.89  197.58
  -4   3   2 2695.83  242.48
  -3  -4   2 2494.25  199.98
   4  -3   2 2214.98  188.58
   4   4  -2  537.45  137.59
  -4   4  -2  432.16  125.49
  -4  -4  -2  607.24   71.49
   4  -4  -2  488.05   62.39
   4   4  -2  511.45   66.59
  -4   4  -2  589.84   56.59
   4  -4  -2  561.74   64.99
   4  -4  -2  585.74   61.09
   4   4  -2  538.15   98.59
  -4  -4  -2  497.45   61.89
  -4   4  -2  572.54   53.89
  -4  -4  -2  598.64   73.19
   4   4  -2  530.45   55.19
  -4  -4   2  467.65   63.29
   4  -4   2  471.85   56.39
   4   4   2  512.75   64.19
  -4   4   2  604.54  116.59
   4  -4   2  575.04   63.79
   4  -4   2  470.35   49.40
   4   4   2  679.63  107.69
  -4   4   2  531.95   70.59
  -4  -4   2  581.04   63.69
   4   4   2  458.75   67.99
  -4  -4   2  419.56  145.79
   4   4   2  569.74   69.79
   4   4   2  547.15   62.59
   4  -5  -2 1324.27  113.59
   5   4  -2 1286.97  129.29
  -5  -4  -2 1434.06  129.29
  -5  -4  -2 1526.35  138.59
   5   4  -2 1422.06  199.08
   5   4  -2  931.31  144.19
  -5  -4  -2 1520.65  154.08
  -5  -4  -2 1073.69  155.18
   5   4  -2 1388.16  114.89
   4  -5  -2 1244.78  125.29
   4  -5   2 1203.38  120.99
   4  -5   2 1415.16  123.19
  -4   5   2 1101.39  129.79
  -4   5   2 1255.77  126.39
   5   4   2 1493.55  167.38
  -5  -4   2 1342.27  112.69
   5   4   2 1544.25  140.99
   5   4   2 1240.98   99.59
  -5  -3  -2   66.19   33.00
   5   3  -2   77.19   22.90
  -5  -3  -2  118.59   38.00
  -3   5  -2   58.69   27.40
  -3   5  -2  118.99   44.10
  -3   5  -2  162.58   88.49
   5   3  -2  109.49   66.19
  -3   5  -2   78.29   20.20
  -5  -3  -2  109.09   37.00
  -5  -3  -2   84.99   48.30
   3  -5  -2   66.79   30.90
   5   3  -2  107.69   32.70
  -5  -3  -2   98.69   29.20
   5   3  -2   73.99   29.80
   3  -5  -2   84.39   21.50
   5   3   2   87.39   42.90
   3  -5   2   95.69   30.20
   5   3   2   78.59   22.60
  -5  -3   2   87.59   29.00
  -3   5   2   73.39   33.80
  -5  -3   2   85.19   26.50
  -5  -3   2   80.99   25.50
   5   3   2   85.09   27.00
   3  -5   2   86.29   19.90
   3  -5   2   84.29   31.60
  -3   5   2   87.59   37.50
  -3   5   2  147.69   41.50
   5   3   2  102.69   32.40
   2  -5  -2 1441.26  154.78
   5   2  -2 1805.12  138.39
  -5  -2  -2 1465.25  179.98
  -2   5  -2 1879.21  133.19
  -5  -2  -2 2018.90  164.08
   5   2  -2 1800.52  155.38
   5   2  -2 1716.73  144.89
  -2   5  -2 1890.81  169.38
  -2   5  -2 1540.75  143.09
   5   2  -2 2085.39  219.98
   2  -5  -2 1590.74  157.38
  -5  -2  -2 1704.53  148.49
   2  -5  -2 1678.63  154.48
  -5  -2  -2 2021.70  152.48
  -5  -2  -2 1620.74  161.98
  -5  -2   2 1586.54  205.98
   5   2   2 1881.51  168.98
   5   2   2 1888.71  146.89
   2  -5   2 1896.01  148.89
  -2   5   2 1450.85  156.78
   2  -5   2 1584.34  141.79
   5   2   2 1576.94  152.88
  -5  -2   2 1670.63  143.19
   5   2   2 1661.63  138.59
  -5  -2   2 1816.22  138.09
  -5  -2   2 1847.42  151.58
  -2   5   2 1796.82  161.58
  -2   5   2 1633.64  182.78
  -5  -1  -2   89.79   24.00
   5   1  -2   86.49   23.10
  -5  -1  -2   78.39   30.00
   5   1  -2   62.19   25.70
  -1   5  -2   98.09   21.00
  -5  -1  -2   64.29   29.30
   5   1  -2   36.60   40.40
  -5  -1  -2   69.19   25.30
   1  -5  -2   50.69   27.60
   1  -5  -2   80.39   24.90
   1  -5  -2   87.79   41.60
   5   1  -2   86.99   26.20
  -1   5  -2   78.59   22.30
   5   1   2   82.99   30.40
   5   1   2   74.79   21.50
  -1   5   2   42.40   30.80
  -5  -1   2   54.09   21.60
   5   1   2   63.19   24.00
  -1   5   2   55.49   34.40
   1  -5   2   65.89   22.60
   1  -5   2   55.59   23.40
   5   1   2  103.79   35.40
   1  -5   2   79.09   19.20
  -5  -1   2   75.29   21.80
  -5  -1   2   89.29   55.09
   0  -5  -2 1330.97  142.99
   0   5  -2 1474.75  122.09
   0  -5  -2 1229.78  134.59
  -5   0  -2 1470.65  147.09
   5   0  -2 1579.34  137.49
  -5   0  -2 1609.14  130.79
   0  -5  -2 1696.73  128.09
   5   0  -2 1672.13  186.48
   0   5  -2 1479.85  117.39
   0  -5  -2 1479.55  123.99
   5   0  -2 1609.04  127.49
   5   0  -2 1506.85  121.29
  -5   0  -2 1457.45  123.39
  -5   0  -2 1153.68  160.58
  -5   0  -2 1737.53  142.49
   5   0   2 1741.13  128.79
   0  -5   2 1483.05  117.09
  -5   0   2 1543.15  179.38
   0  -5   2 1267.27  118.69
   0  -5   2 1594.04  133.29
   5   0   2 1459.35  119.19
   0   5   2 1448.96  142.29
   0   5   2 1445.26  143.79
   5   0   2 1550.44  147.79
  -5   0   2 1575.34  122.59
   1   5  -2   63.19   22.80
   1   5  -2   67.59   16.50
  -5   1  -2   63.69   23.20
  -5   1  -2   80.89   21.10
   5  -1  -2   66.89   20.80
   1   5  -2   95.39   20.20
  -1  -5  -2   67.89   24.70
  -1  -5  -2   97.29   37.90
  -5   1  -2  123.99   41.50
  -1  -5  -2   93.49   33.20
   1   5  -2  101.19   19.20
  -5   1  -2   30.80   38.20
   1   5  -2   64.79   25.30
  -1  -5  -2   72.39   23.80
   5  -1  -2   58.99   40.60
   1   5  -2   67.89   51.99
   5  -1  -2   83.89   25.40
  -1  -5  -2   52.49   24.70
  -5   1  -2  102.49   31.20
  -1  -5   2   86.89   35.20
  -5   1   2   61.79   45.20
   5  -1   2   86.09   38.30
   1   5   2   71.69   33.80
   5  -1   2   73.19   23.70
   1   5   2  135.29   44.00
   5  -1   2   58.89   24.10
   1   5   2   54.19   27.90
   5  -1   2   71.19   19.40
  -1  -5   2   56.79   17.60
  -1  -5   2   62.69   23.50
  -5   1   2   92.29   25.30
  -1  -5   2   60.99   27.20
  -2  -5  -2 2001.60  152.58
   5  -2  -2 1841.82  154.18
   2   5  -2 1810.22  142.09
   2   5  -2 1719.13  208.68
  -2  -5  -2 1800.22  159.98
   2   5  -2 1860.01  137.29
  -5   2  -2 1753.02  139.19
  -2  -5  -2 1874.41  156.78
  -2  -5  -2 1537.95  151.08
   2   5  -2 1697.23  151.88
   5  -2  -2 1863.91  147.79
  -5   2  -2 1904.21  153.98
  -5   2  -2 1854.11  150.58
   5  -2  -2 1681.93  205.28
  -5   2  -2 1321.87  192.08
   5  -2  -2 1752.32  141.89
  -5   2   2 1828.32  149.49
  -2  -5   2 1558.04  145.09
   5  -2   2 1821.72  154.48
  -5   2   2 1837.52  151.68
  -5   2   2 1985.10  203.28
   2   5   2 1560.04  208.08
  -2  -5   2 1949.20  169.38
  -2  -5   2 1851.31  136.29
   5  -2   2 1619.54  135.29
   5  -2   2 1617.04  148.39
   2   5   2 1725.53  155.78
   2   5   2 1501.25  168.48
   2   5   2 2015.50  159.78
  -5   3  -2  106.29   71.19
   5  -3  -2   64.69   59.99
  -5   3  -2  114.39   26.30
   3   5  -2   59.59   57.49
   3   5  -2   87.29   27.30
   3   5  -2   80.19   32.60
   5  -3  -2  104.79   29.20
   3   5  -2   76.39   21.30
  -5   3  -2  110.69   28.10
  -3  -5  -2   48.70   29.70
   3   5  -2   60.09   35.50
   5  -3  -2   72.39   27.60
  -3  -5  -2  104.39   31.50
   3   5   2   87.29   68.39
  -5   3   2   62.09   27.20
   3   5   2   76.89   31.50
   3   5   2  116.99   37.20
   5  -3   2   74.89   27.20
  -3  -5   2   97.89   24.00
  -3  -5   2   64.49   26.80
   3   5   2   94.99   42.20
  -5   3   2   92.89   29.50
   4   5  -2 1247.98  134.19
  -4  -5  -2 1431.26  131.89
   4   5  -2 1079.59  128.59
   5  -4  -2 1237.08  119.89
  -4  -5  -2 1537.25  134.29
   5  -4  -2 1360.16  121.79
  -5   4  -2 1353.66  111.99
   4   5  -2 1299.27  199.88
   4   5  -2 1372.06  136.19
  -5   4  -2 1461.85  119.29
   4   5   2 1503.95  141.89
   4   5   2 1344.07  126.89
   5  -4   2 1427.16  124.69
   5  -4   2 1212.08  117.69
   4   5   2 1061.09  127.19
  -5   4   2 1286.37  125.49
  -4  -5   2 1366.96  112.39
   4   5   2 1230.78  124.29
   4   5   2 1489.05  189.48
  -5   4   2 1353.86  131.59
   5  -5  -2   35.40   28.20
  -5  -5  -2   65.59   31.20
  -5   5  -2   55.19   21.60
   5  -5  -2   28.30   20.90
   5   5  -2   28.60   21.70
  -5  -5  -2   74.49   49.10
   5   5  -2   65.29   36.70
  -5  -5  -2   42.40   31.90
   5   5  -2    3.10   57.39
  -5   5  -2  -19.70   27.10
  -5   5   2  126.49   51.69
  -5  -5   2   39.20   21.50
   5  -5   2   62.19   34.60
   5   5   2   71.29   62.89
  -5  -5   2  214.98   83.39
   5   5   2   17.00   26.00
  -5   5   2   74.99   36.30
   5  -5   2   25.70   20.80
   6   5  -2 1417.56  128.19
  -6  -5  -2 1439.76  146.29
  -5   6  -2 1296.07  121.99
  -6  -5  -2 1725.63  159.48
   5  -6  -2 1416.96  144.39
   5  -6  -2 1433.56  127.49
   6   5  -2 1695.13  247.18
   6   5  -2 1331.07  146.19
   6   5   2 1786.42  201.18
   6   5   2 1457.45  141.29
  -5   6   2 1074.69  146.19
   5  -6   2 1509.25  140.19
   5  -6   2 1428.76  142.79
  -6  -5   2 1497.05  128.49
  -4   6  -2  443.96   49.99
   6   4  -2  330.77   73.59
  -6  -4  -2  455.15   68.99
   4  -6  -2  358.06   75.39
  -4   6  -2  632.84  119.09
  -6  -4  -2  456.65   74.09
   4  -6  -2  381.76   49.80
  -6  -4  -2  549.54   86.59
   6   4  -2  580.54  152.38
   6   4  -2  416.86   54.09
   4  -6   2  408.36   72.69
   6   4   2  398.16   63.49
  -4   6   2  285.67   76.09
  -4   6   2  455.55   66.99
  -6  -4   2  414.96   54.99
   6   4   2  553.84  103.09
   4  -6   2  367.76   59.99
  -6  -3  -2 1838.82  184.28
  -6  -3  -2 1981.90  165.68
   6   3  -2 1696.43  159.08
  -6  -3  -2 1589.24  200.48
   6   3  -2 1806.22  148.19
   3  -6  -2 1517.75  166.08
  -6  -3  -2 2174.48  181.58
  -3   6  -2 1899.91  143.39
   3  -6  -2 1475.95  160.58
  -3   6  -2 1896.51  172.98
   6   3   2 1601.04  145.99
   3  -6   2 1654.53  155.28
  -6  -3   2 1987.10  166.88
  -3   6   2 1414.76  170.18
   6   3   2 2037.60  176.68
   6   3   2 2114.89  195.28
   3  -6   2 1990.80  161.88
  -6  -3   2 1923.51  149.69
  -3   6   2 1844.92  170.58
   2  -6  -2  438.16   77.99
   2  -6  -2  441.26   56.79
  -6  -2  -2  521.55   74.99
   6   2  -2  527.85   64.59
  -6  -2  -2  656.53   94.29
  -6  -2  -2  363.16  111.99
  -2   6  -2  512.25   52.49
   2  -6  -2  516.95   48.20
  -6  -2  -2  602.64   82.99
  -2   6  -2  492.95   60.79
   6   2  -2  505.55   64.19
   6   2   2  544.75   67.09
   2  -6   2  494.85   62.69
   6   2   2  561.44   85.89
  -2   6   2  341.47   90.49
  -6  -2   2  495.25   57.69
  -6  -1  -2 1883.81  162.28
   1  -6  -2 2047.30  160.88
  -1   6  -2 1900.61  146.49
  -1   6  -2 1892.61  150.78
   6   1  -2 2151.28  234.38
   1  -6  -2 1779.82  145.39
  -6  -1  -2 1780.12  152.68
   6   1  -2 1917.31  151.48
   6   1  -2 1899.61  158.08
   1  -6  -2 1694.63  177.68
  -6  -1  -2 1927.71  180.88
  -6  -1  -2 2186.48  179.38
  -1   6   2 1464.35  171.38
   6   1   2 1910.61  157.98
  -1   6   2 1746.13  176.08
  -6  -1   2 1789.52  150.28
   1  -6   2 1802.62  145.69
   1  -6   2 1880.61  150.08
   6   1   2 1962.10  183.58
   1  -6   2 1977.80  164.08
  -6   0  -2  622.34   66.99
  -6   0  -2  718.93   77.59
  -6   0  -2  605.74   88.49
   6   0  -2  615.84   65.49
  -6   0  -2  742.63   85.99
   0  -6  -2  640.54   63.09
   6   0  -2  718.83  126.89
   0  -6  -2  614.34   90.99
   0  -6  -2  740.43   76.59
   0   6  -2  649.14   63.39
   0   6  -2  542.45  114.59
   6   0  -2  636.34   70.89
   0   6  -2  630.44   65.89
   0  -6   2  574.84   61.19
   0   6   2  499.85   85.69
   0  -6   2  567.04   62.89
  -6   0   2  638.84   66.39
   6   0   2  567.94   86.79
   0  -6   2  649.34   77.79
   6   0   2  679.23   73.69
   0   6   2  621.54   86.59
   6  -1  -2 1834.42  164.78
   1   6  -2 1951.20  145.49
   6  -1  -2 1898.11  150.88
  -6   1  -2 1714.03  148.39
   1   6  -2 2045.10  147.39
  -6   1  -2 2145.99  172.58
   1   6  -2 1608.04  138.09
  -1  -6  -2 1979.10  162.68
  -1  -6  -2 2007.90  177.68
   1   6  -2 1679.93  156.08
   6  -1  -2 1807.92  222.48
   1   6  -2 1881.01  229.08
  -6   1  -2 2138.69  166.18
  -1  -6  -2 2062.69  165.88
  -1  -6  -2 1989.10  151.58
  -1  -6   2 1904.41  144.49
   6  -1   2 1652.63  179.58
  -6   1   2 1938.91  153.18
   6  -1   2 1798.02  177.78
  -1  -6   2 1920.11  169.08
  -1  -6   2 1493.75  149.39
   1   6   2 1573.14  172.58
   6  -1   2 1805.12  154.18
   1   6   2 1926.41  171.78
  -1  -6   2 1750.72  173.68
   1   6   2 1781.12  238.68
   2   6  -2  527.85   53.39
   2   6  -2  489.55  132.39
   2   6  -2  526.55   66.89
  -2  -6  -2  446.36   73.89
   2   6  -2  450.35   67.39
  -6   2  -2  544.55   68.99
  -2  -6  -2  550.94   61.69
   2   6  -2  470.85   54.89
  -6   2  -2  496.85   55.29
  -2  -6  -2  478.35   74.29
   6  -2  -2  504.55   57.09
  -6   2  -2  266.87  104.59
   6  -2  -2  476.65  156.38
  -2  -6   2  532.25   53.69
   2   6   2  449.06   79.99
   2   6   2  364.16   63.49
   2   6   2  497.15  140.49
   6  -2   2  430.06   82.59
   2   6   2  643.44   88.89
   6  -2   2  380.06   60.79
   2   6   2  376.16   67.39
  -2  -6   2  498.75   78.69
   6  -2   2  519.55   61.89
  -3  -6  -2 2070.19  166.68
   3   6  -2 1890.61  247.58
  -6   3  -2 1941.81  153.28
   3   6  -2 1843.22  149.29
   6  -3  -2 1775.52  155.58
   3   6  -2 1762.02  158.28
  -3  -6  -2 2089.59  176.68
   6  -3  -2 1635.34  220.78
  -6   3  -2 2166.98  169.58
   3   6   2 1572.84  231.48
   6  -3   2 2012.60  162.18
   6  -3   2 1539.85  159.78
   3   6   2 1760.82  170.48
  -6   3   2 2098.49  170.58
   3   6   2 2031.80  171.78
  -6   4  -2  235.58   69.89
   4   6  -2  341.17  128.29
  -6   4  -2  476.95   60.49
   6  -4  -2  369.56   64.89
   4   6  -2  264.67   67.39
   4   6  -2  417.66   48.80
  -6   4  -2  350.16   49.70
  -4  -6  -2  446.26   64.39
   4   6  -2  289.07   57.59
   6  -4   2  355.76   59.39
   4   6   2  401.16  156.18
  -4  -6   2  399.56   49.30
   6  -4   2  331.67   55.29
   4   6   2  359.46   66.39
   4   6   2  441.16   68.59
  -6   4   2  444.76   66.59
   5   6  -2 1478.75  128.79
   6  -5  -2 1376.36  137.49
  -5  -6  -2 1517.65  149.09
  -5  -6  -2 1699.83  153.68
   6  -5  -2 1347.77  138.29
  -6   5  -2 1272.37  124.19
   5   6  -2 1572.54  239.38
   5   6   2 1559.34  218.38
  -5  -6   2 1533.85  130.19
   5   6   2 1475.05  144.59
   6  -5   2 1454.35  141.59
  -6   5   2 1582.34  156.98
  -6   6  -2   90.49   50.59
   6  -6  -2  285.27   66.89
   6  -6  -2  153.48   44.50
  -6   6  -2  229.98   44.30
   6   6  -2  296.77  150.58
  -6  -6  -2  296.37   72.49
   6  -6   2  188.68   56.29
   6   6   2  252.47  106.09
  -6  -6   2  307.67   56.69
   6  -6   2  149.69   57.99
  -6   6   2  211.38   72.69
   7   5  -2   56.59   27.90
  -7  -5  -2   39.30   35.70
   5  -7  -2   -7.30   42.70
   5  -7   2   51.89   33.70
   7   5   2   38.00   60.99
  -7  -5   2   59.69   34.00
  -5   7   2   52.09   39.30
   5  -7   2   65.39   42.80
  -7  -5   2  169.98  153.68
  -7  -4  -2 1111.99  154.68
  -4   7  -2  850.01   85.49
   7   4  -2 1247.28  195.78
  -4   7  -2  634.84  152.48
   4  -7  -2  736.73   91.79
  -7  -4  -2 1003.00  111.59
   4  -7  -2  921.61  118.09
   4  -7   2  905.71  102.29
   7   4   2  844.82  101.39
   7   4   2 1010.90  144.69
  -7  -4   2 1025.50   95.19
   7   4   2  800.22   80.79
   3  -7  -2   32.40   17.20
   3  -7  -2   40.80   14.10
  -7  -3  -2   69.69   39.00
  -3   7  -2    8.10   19.00
   7   3  -2   87.59   69.79
   3  -7  -2   60.09   46.10
   7   3  -2   42.80   26.00
  -3   7  -2   52.19   28.50
  -7  -3  -2   32.70   30.70
   3  -7   2   31.20   28.30
   3  -7   2   54.39   34.00
   7   3   2   75.89   53.69
   7   3   2   51.09   34.50
   7   3   2   32.70   28.20
  -7  -3   2   96.89   38.50
  -3   7   2    4.30   36.80
   2  -7  -2 1457.65  111.99
   7   2  -2 1385.76  129.29
  -2   7  -2 1510.25  133.89
   2  -7  -2 1598.04  144.39
   2  -7  -2 1551.44  110.59
  -2   7  -2 1464.55  123.89
   2  -7  -2 1514.05  163.48
  -7  -2  -2 1582.24  147.29
   7   2  -2 1902.21  230.38
   7   2   2 1397.26  163.68
  -7  -2   2 1630.24  151.48
   2  -7   2 1510.25  143.39
  -2   7   2 1320.17  152.98
   2  -7   2 1423.46  132.09
   7   2   2 1689.03  143.39
  -7  -1  -2   90.49   35.20
   1  -7  -2  -25.70   38.10
   7   1  -2   37.80   22.10
   7   1  -2   89.39   61.89
   1  -7  -2   53.99   15.10
  -1   7  -2   45.70   22.80
  -7  -1  -2   70.79   35.40
  -1   7  -2   69.59   23.40
   1  -7  -2   44.00   25.50
   1  -7   2   38.00   22.40
   1  -7   2   34.30   26.30
  -1   7   2  219.48   70.59
  -1   7   2    5.30   34.00
  -1   7   2   43.00   40.40
   7   1   2   33.20   34.80
   0  -7  -2 1653.33  148.09
  -7   0  -2 1445.96  143.69
   0  -7  -2 1579.64  121.09
   7   0  -2 1369.26  129.59
   0   7  -2 1496.35  130.49
  -7   0  -2 1754.42  159.48
   0   7  -2 1356.36  205.68
   7   0  -2 1755.92  214.18
   0  -7  -2 1560.94  162.58
   0   7  -2 1451.95  127.59
   7   0   2 1518.55  138.69
   0  -7   2 1494.15  126.19
   7   0   2 1494.85  166.28
   0  -7   2 1533.75  147.89
  -7   0   2 1562.74  133.69
   0   7   2 1455.55  156.88
  -1  -7  -2   24.60   38.20
   7  -1  -2   44.70   22.80
  -7   1  -2   59.59   25.30
  -1  -7  -2   50.39   37.20
   1   7  -2   72.19   37.10
   1   7  -2   99.39   68.79
   7  -1  -2   47.80   60.69
   1   7  -2   49.70   21.70
   1   7  -2  155.58   47.80
  -7   1  -2   45.80   30.10
  -7   1  -2   42.10   30.00
  -1  -7   2   58.79   24.20
   1   7   2   63.89   39.90
   1   7   2   38.50   66.79
   1   7   2   49.99   43.60
  -1  -7   2   61.59   34.70
  -7   1   2   57.69   26.50
   7  -1   2   65.99   29.70
   1   7   2  104.99   49.10
   7  -1   2   31.70   39.40
  -2  -7  -2 1415.46  157.68
   7  -2  -2 1361.36  199.68
   7  -2  -2 1522.15  134.19
   2   7  -2 1378.86  210.08
  -2  -7  -2 1497.45  148.89
  -2  -7  -2 1611.04  133.99
  -7   2  -2 1559.84  133.49
  -2  -7  -2 1693.23  158.88
   2   7  -2 1505.95  127.19
  -7   2  -2 1544.75  149.09
   2   7   2 1148.29  213.18
   7  -2   2 1699.63  144.29
   2   7   2 1713.33  157.08
  -2  -7   2 1650.83  130.29
   2   7   2 1225.68  159.98
  -2  -7   2 1477.35  164.68
   3   7  -2  129.19   36.60
   3   7  -2   31.30   25.60
  -3  -7  -2   29.90   45.10
  -3  -7  -2   57.59   29.40
   3   7  -2   65.99   23.40
  -7   3  -2   49.20   26.70
   3   7  -2  103.49   73.69
   7  -3  -2   70.79   63.49
  -7   3  -2   16.80   22.80
   7  -3  -2   57.59   27.60
   3   7   2   75.69   39.80
   3   7   2   63.39   36.80
  -7   3   2   49.80   31.60
   7  -3   2   66.59   35.20
  -7   3   2  153.88   76.29
  -3  -7   2   70.79   28.70
   3   7   2  -16.00   62.19
  -3  -7   2  144.39   53.19
   3   7   2   78.49   35.00
   4   7  -2  953.00  261.07
  -7   4  -2  981.90  100.09
  -4  -7  -2  931.61  116.29
  -7   4  -2 1170.08  125.09
   4   7  -2 1072.39   97.39
  -4  -7  -2 1088.79  113.09
   7  -4  -2  866.61  103.49
   4   7   2 1062.69  193.38
   7  -4   2 1001.60  114.89
   4   7   2  930.61   99.19
  -4  -7   2  947.71   95.99
   5   7  -2  -30.80   42.40
  -7   5  -2   31.30   27.90
  -5  -7  -2   39.10   34.00
   5   7  -2  136.49  101.69
  -5  -7  -2   33.70   40.20
   7  -5  -2    2.90   30.50
  -7   5   2   36.00   36.60
  -5  -7   2  116.99   69.29
  -5  -7   2   23.60   28.50
   5   7   2   39.60   37.50
  -7   5   2  100.69   70.09
   7  -5   2    2.20   36.90
   5   7   2  104.99   86.29
  -8  -4  -2  157.98   58.89
   8   4  -2  137.99   42.30
  -8  -4  -2  241.28   70.99
   4  -8  -2  131.89   62.99
   4  -8   2  150.98   49.80
   8   4   2  171.58   49.70
  -4   8   2  122.69   66.09
   4  -8   2  145.69   53.39
  -8  -4   2  229.08   53.19
   8   3  -2  805.32  114.99
   3  -8  -2  880.01  130.39
  -3   8  -2  812.52   94.69
  -8  -3  -2 1007.10  127.89
  -8  -3  -2  937.81  112.19
   8   3   2  884.31  134.49
  -8  -3   2  812.82   94.09
  -2   8  -2  313.67   48.30
   2  -8  -2  189.68   54.99
   2  -8  -2  205.08   76.69
  -8  -2  -2  290.27   68.09
  -2   8  -2  166.98   38.50
   8   2  -2  292.37   50.19
  -8  -2   2  285.27   50.89
   8   2   2  175.18   48.90
  -2   8   2  135.79   62.69
   2  -8   2  188.08   48.70
   8   2   2  272.17   81.49
  -8  -2   2  288.87   77.19
  -1   8  -2  983.80  117.49
  -8  -1  -2  850.81  122.19
   1  -8  -2  950.80  114.89
   8   1  -2 1200.38  194.78
   8   1  -2 1020.90  102.49
   8   1   2  996.60  110.89
   1  -8   2 1103.19  119.79
   1  -8   2 1060.19   99.59
   8   1   2  970.30  136.89
  -8  -1   2 1041.50  103.49
  -8   0  -2  319.87   67.09
   8   0  -2  207.68  107.09
   0   8  -2  184.48  112.09
   8   0  -2  241.58   46.30
   0  -8  -2  292.87   64.59
   0   8  -2  265.17   51.69
   0  -8  -2  282.07   27.20
  -8   0  -2  261.77   61.09
   0  -8   2  166.98   54.39
   8   0   2  217.48   76.29
   8   0   2  212.38   52.79
  -8   0   2  305.57   53.49
   0   8   2  169.98   72.49
   0  -8   2  230.78   44.40
  -1  -8  -2 1067.29   88.89
  -1  -8  -2  844.02  124.79
  -1  -8  -2 1150.28  134.89
   1   8  -2  984.60  103.59
  -8   1  -2 1105.09  125.49
   8  -1  -2 1006.40  102.59
   8  -1  -2  915.91  195.18
  -1  -8   2 1007.70  123.69
   1   8   2  688.03  208.68
   8  -1   2  820.12  136.59
   8  -1   2 1076.19  112.69
   2   8  -2  169.88   35.30
   8  -2  -2  147.39   42.00
  -2  -8  -2  236.98   42.90
   8  -2  -2  142.29  114.69
  -8   2  -2  296.37   67.59
   2   8  -2  305.67   69.69
  -2  -8  -2  168.88   61.79
   2   8  -2  208.68  120.89
  -2  -8  -2  221.18   68.29
   2   8   2  264.97   69.59
  -2  -8   2  138.29   60.19
  -2  -8   2  280.57   47.50
   2   8   2  170.58   60.49
   2   8   2  301.67  159.38
   8  -2   2  148.09   62.69
   8  -2   2  189.58   50.19
   8  -3  -2  856.21   96.79
   3   8  -2  814.92   91.49
  -3  -8  -2  990.60   95.49
  -3  -8  -2  827.92  114.89
   8  -3  -2  541.15  190.38
   3   8  -2  790.52  174.98
   8  -3   2  837.02  106.99
  -3  -8   2  839.42   89.29
   3   8   2  934.01  112.89
   3   8   2  740.93  208.98
  -4  -8  -2  209.18   52.69
  -4  -8  -2  193.28   67.59
  -8   4  -2   82.89   57.49
   4   8   2  186.98   60.79
  -8   4   2  221.68   61.69
   8  -4   2  146.09   56.19
  -4  -8   2  186.28   46.20
   0   0  -3  206.18   25.50
   0   0  -3  218.08   32.30
   0   0  -3  210.88   24.80
   0   0  -3  241.58   55.39
   0   0  -3  312.07   46.30
   0   0  -3  211.48   29.40
   0   0   3  214.08   23.90
   0   0   3  197.78   36.50
   0   0   3  238.38   29.40
   0   0   3  218.18   63.49
   0   0   3  254.67   25.50
  -1   0  -3 3163.88  277.77
   0  -1  -3 3597.24  262.37
   0   1  -3 3550.04  310.67
  -1   0  -3 3463.25  250.07
   0  -1  -3 3564.44  305.47
   0   1  -3 3610.64  244.28
   0   1  -3 3368.96  271.07
   1   0  -3 3724.13  279.67
   0   1  -3 3375.46  271.77
  -1   0  -3 4032.40  258.77
  -1   0  -3 3829.22  255.07
  -1   0  -3 3153.38  246.88
  -1   0  -3 3412.46  276.37
   1   0  -3 3771.12  251.07
  -1   0  -3 3830.82  298.57
   0   1  -3 3519.75  268.87
   0   1  -3 3010.30  245.38
   0   1   3 3804.22  256.17
   0   1   3 3376.56  308.87
   0   1   3 3488.35  258.57
   1   0   3 3793.22  252.87
  -1   0   3 3659.43  251.37
   0  -1   3 3608.64  304.37
  -1   0   3 4083.99  254.87
   0  -1   3 3918.51  263.77
  -1   0   3 3334.57  267.27
   0  -1   3 3737.33  244.78
   0  -1   3 3842.42  280.77
   0   1   3 3633.14  258.77
   1   0   3 3713.23  254.07
   1   0   3 3408.46  248.98
   1   0   3 3806.72  289.27
   0  -1   3 3610.14  245.68
   1  -1  -3  639.34   77.59
  -1   1  -3  745.03   51.09
  -1  -1  -3  671.13   57.69
  -1   1  -3  712.23   50.99
  -1   1  -3  674.83   71.29
  -1   1  -3  578.54   85.19
   1  -1  -3  615.44   63.39
  -1  -1  -3  767.72   85.59
   1   1  -3  688.53   74.69
   1   1  -3  631.74   77.29
  -1   1  -3  583.34   73.39
  -1  -1  -3  703.23   65.49
  -1  -1  -3  630.64   57.29
   1   1  -3  692.73   50.49
  -1  -1  -3  641.04   77.49
   1  -1  -3  666.83   59.29
  -1  -1  -3  606.84   82.29
   1   1  -3  730.03   53.09
   1  -1   3  622.24   73.39
  -1   1   3  790.72   70.19
   1   1   3  662.93   56.79
  -1  -1   3  705.33   69.69
   1   1   3  565.14   78.49
   1  -1   3  689.43   58.19
   1  -1   3  646.44   48.90
  -1   1   3  787.82   65.29
  -1  -1   3  666.23   51.89
  -1  -1   3  699.33   80.49
   1   1   3  663.83   61.29
   1   1   3  712.43   55.09
  -1   1   3  628.84   58.69
   2   1  -3 3000.40  223.88
  -2  -1  -3 3061.69  253.77
  -2  -1  -3 3208.18  246.18
  -1   2  -3 2802.82  239.58
  -1   2  -3 3152.38  213.88
   1  -2  -3 2944.51  237.28
  -1   2  -3 2881.91  274.77
  -2  -1  -3 3083.19  224.98
  -2  -1  -3 3580.24  235.58
  -1   2  -3 3550.24  236.18
  -1   2  -3 2767.42  215.88
   2   1  -3 3453.05  271.07
  -1   2  -3 3346.47  245.78
   1  -2  -3 3058.89  234.18
   2   1  -3 3020.70  219.58
  -2  -1  -3 2784.12  225.98
  -2  -1   3 3387.76  265.57
   2   1   3 3269.87  223.78
  -1   2   3 2998.80  236.58
   1  -2   3 3507.05  217.38
   1  -2   3 3299.77  229.58
  -2  -1   3 2954.20  222.58
   2   1   3 3296.97  230.18
  -2  -1   3 3160.98  219.58
  -1   2   3 3135.69  263.37
   1  -2   3 3046.00  213.88
   2   1   3 3475.55  266.57
   2   1   3 2918.71  222.68
  -1   2   3 3356.16  244.98
   0   2  -3  129.19   24.90
   0  -2  -3  176.58   55.99
   0   2  -3  145.69   39.70
  -2   0  -3  132.89   17.60
   2   0  -3  140.89   21.00
  -2   0  -3  167.18   23.30
   2   0  -3  135.59   17.60
   0  -2  -3  130.59   32.90
  -2   0  -3  114.69   22.70
   0   2  -3  160.28   35.60
  -2   0  -3  144.59   29.90
  -2   0  -3  151.58   38.90
   0   2  -3  167.18   56.99
   2   0  -3  171.38   49.10
   0  -2  -3  128.49   28.40
   0  -2  -3   75.99   36.70
  -2   0   3  197.98   49.60
   2   0   3  128.69   18.60
   0   2   3  141.79   30.50
   2   0   3  133.79   16.70
   2   0   3  102.89   23.40
   0   2   3  144.49   54.09
   2   0   3  154.88   42.40
   0  -2   3  127.59   26.70
   0  -2   3   91.19   42.00
   0   2   3  111.19   24.30
   2   0   3  152.68   20.40
  -2   0   3  145.09   20.70
   0  -2   3  141.79   24.60
   0   2   3  146.69   27.20
  -1  -2  -3 3353.56  264.17
  -1  -2  -3 3118.69  250.47
   1   2  -3 2771.92  247.78
   1   2  -3 3026.10  214.58
   1   2  -3 3189.88  260.27
  -2   1  -3 3149.28  237.88
  -1  -2  -3 2707.93  226.98
  -2   1  -3 2893.81  247.58
  -2   1  -3 3205.68  246.38
   2  -1  -3 3173.18  229.48
   1   2  -3 3250.87  219.88
  -2   1  -3 3270.77  222.08
   2  -1  -3 3306.87  224.38
  -1  -2  -3 3097.19  239.58
   2  -1  -3 2742.93  260.27
  -2   1  -3 3099.59  217.58
   1   2   3 3206.48  234.78
  -2   1   3 3314.27  230.98
   2  -1   3 3143.19  222.78
   2  -1   3 3060.59  216.58
   1   2   3 3509.65  260.57
  -1  -2   3 3103.29  217.68
  -1  -2   3 2734.83  264.67
   2  -1   3 3197.48  219.98
  -2   1   3 3367.96  226.78
   1   2   3 2936.91  227.08
  -1  -2   3 3296.07  236.78
  -2   2  -3  164.08   33.40
   2  -2  -3  120.89   30.90
  -2  -2  -3  184.48   50.89
  -2  -2  -3  160.58   36.20
  -2  -2  -3  116.39   22.20
  -2   2  -3  125.99   24.70
   2   2  -3  117.29   38.70
   2   2  -3  129.39   21.30
   2  -2  -3  138.99   24.00
   2   2  -3  130.49   24.10
   2   2  -3  123.49   16.10
   2  -2  -3  129.49   52.49
  -2   2  -3  134.59   14.90
   2   2   3  145.09   31.90
  -2   2   3  131.39   38.40
   2   2   3  100.89   43.50
   2  -2   3  144.09   22.90
   2   2   3  160.48   29.10
  -2  -2   3  120.99   16.00
   2  -2   3   84.59   20.90
   2  -2   3  130.29   17.50
   2   2   3  100.49   29.80
   2   2   3  123.39   21.40
  -2  -2   3  106.89   18.90
  -2   2   3  139.99   25.20
  -2  -2   3  130.39   24.90
  -2   2   3  142.89   32.40
  -2  -2   3  118.99   48.30
  -2   3  -3 2820.72  242.18
   3   2  -3 3202.68  236.48
   3   2  -3 3384.86  290.07
  -3  -2  -3 3533.85  241.98
   2  -3  -3 3090.09  235.08
  -3  -2  -3 2865.01  242.08
  -3  -2  -3 2945.91  259.27
  -2   3  -3 3181.18  215.58
  -2   3  -3 3142.39  226.08
  -3  -2  -3 3236.68  247.88
  -2   3  -3 2665.23  223.78
  -2   3  -3 3202.38  274.97
   3   2  -3 3383.16  232.98
   3   2  -3 3022.20  220.18
  -3  -2  -3 2966.70  227.18
   2  -3  -3 2993.20  242.18
  -2   3   3 2803.42  236.08
  -3  -2   3 3036.10  226.08
   3   2   3 3080.29  238.08
   2  -3   3 3287.07  231.18
  -3  -2   3 3215.18  287.67
   3   2   3 3096.59  282.17
  -2   3   3 3193.68  259.37
   2  -3   3 3256.37  222.88
  -3  -2   3 3097.89  219.88
  -2   3   3 3168.08  242.78
   2  -3   3 2929.31  214.38
   3   2   3 2926.01  224.78
   1  -3  -3  520.05   62.59
  -1   3  -3  470.85   53.29
   1  -3  -3  449.95   60.79
  -3  -1  -3  446.76   65.69
   3   1  -3  557.14   52.59
  -3  -1  -3  488.25   49.00
  -3  -1  -3  499.55   62.29
   3   1  -3  521.55   46.70
   3   1  -3  575.14   59.99
  -1   3  -3  553.24   39.90
  -3  -1  -3  561.24   66.09
  -1   3  -3  519.65   88.79
  -1   3  -3  569.04   62.59
  -3  -1  -3  606.74   59.49
   3   1  -3  611.44   92.49
  -1   3  -3  508.05   41.90
  -3  -1   3  583.84   87.29
   3   1   3  524.75   85.39
  -1   3   3  575.94   71.99
   3   1   3  582.34   55.39
   3   1   3  530.85   54.29
  -3  -1   3  540.45   47.00
   1  -3   3  508.25   54.19
   3   1   3  457.95   59.99
  -3  -1   3  469.75   49.40
   3   1   3  511.65   48.10
  -1   3   3  492.75   62.79
   3   1   3  565.34   41.00
   1  -3   3  486.45   42.70
   1  -3   3  531.15   39.60
  -1   3   3  553.04   63.09
  -1   3   3  490.65   84.29
   0   3  -3 5195.48  342.97
   3   0  -3 4332.17  319.37
   3   0  -3 4696.63  334.97
  -3   0  -3 4762.52  341.77
   0  -3  -3 4782.72  345.87
  -3   0  -3 5175.78  329.87
   0   3  -3 4210.78  376.56
   0   3  -3 4822.12  334.27
   3   0  -3 4737.93  326.77
  -3   0  -3 4432.26  343.67
   3   0  -3 4981.90  384.16
   0  -3  -3 3969.20  353.86
   0   3  -3 4474.75  310.87
  -3   0  -3 4614.14  350.16
  -3   0  -3 4722.53  320.87
   0   3  -3 4629.54  312.17
   3   0   3 3877.51  333.57
   3   0   3 4588.04  318.77
   0  -3   3 4910.31  379.66
  -3   0   3 4574.04  361.96
  -3   0   3 4535.05  319.57
  -3   0   3 4427.56  324.97
   0   3   3 4510.35  349.27
   0  -3   3 3835.62  312.37
   3   0   3 4342.37  329.27
   0  -3   3 4664.63  332.07
   0   3   3 4723.03  338.17
   0  -3   3 4525.25  311.07
   3   0   3 4622.44  324.27
   3  -1  -3  534.15   58.09
   3  -1  -3  551.54   56.59
  -3   1  -3  387.26   68.09
  -1  -3  -3  508.75   57.89
   1   3  -3  545.75   69.99
  -3   1  -3  567.74   69.39
   1   3  -3  533.35   51.39
  -3   1  -3  576.74   53.39
  -1  -3  -3  540.65   67.69
  -1  -3  -3  564.04   78.19
  -3   1  -3  573.04   61.69
   1   3  -3  549.35   42.20
   3  -1  -3  452.45   84.09
   3  -1  -3  550.34   50.19
  -3   1  -3  549.74   47.20
  -1  -3  -3  466.45   65.49
   1   3  -3  462.25   77.69
   1   3  -3  529.65   55.69
   3  -1   3  541.65   48.60
   1   3   3  499.05   56.69
   3  -1   3  485.55   44.70
   3  -1   3  456.25   57.39
   3  -1   3  544.25   50.19
   1   3   3  545.15   71.79
  -3   1   3  576.44   56.99
  -3   1   3  564.54   75.99
  -1  -3   3  563.34   64.39
  -1  -3   3  529.05   47.50
  -3   1   3  629.94   54.49
  -2  -3  -3 3187.08  244.28
   3  -2  -3 3307.87  233.48
  -2  -3  -3 3375.36  246.28
   3  -2  -3 3004.60  224.08
   2   3  -3 3020.60  276.47
   2   3  -3 3082.29  215.08
   2   3  -3 2543.55  249.28
  -3   2  -3 3143.09  216.68
  -3   2  -3 2962.30  246.58
   2   3  -3 3216.08  228.68
  -2  -3  -3 3050.59  230.18
  -3   2  -3 2798.92  222.18
  -3   2  -3 3267.97  232.78
  -3   2  -3 2692.13  270.17
   2   3  -3 2869.31  225.28
   3  -2  -3 2824.32  279.17
   3  -2   3 3109.09  223.58
  -2  -3   3 2611.54  278.77
   2   3   3 2833.32  225.88
  -2  -3   3 3053.79  221.88
  -3   2   3 3399.86  262.67
   2   3   3 3172.88  261.87
   3  -2   3 3189.88  220.58
   2   3   3 3320.47  237.98
  -2  -3   3 3058.19  214.38
   2   3   3 2526.85  257.97
  -3   2   3 3423.56  231.58
  -3   2   3 3219.18  234.88
   3  -2   3 2848.42  214.18
  -3  -3  -3  683.83   75.99
  -3   3  -3  466.25   97.79
   3   3  -3  597.64   65.09
  -3  -3  -3  592.24   62.49
   3   3  -3  592.04  103.99
   3   3  -3  605.24   63.69
  -3   3  -3  626.34   76.19
   3  -3  -3  605.24   63.19
  -3  -3  -3  670.83   77.09
   3   3  -3  613.74   53.69
  -3   3  -3  589.24   51.09
  -3   3  -3  647.44   61.09
   3  -3   3  671.63   58.79
  -3  -3   3  536.15  102.29
   3   3   3  467.95   67.39
  -3  -3   3  571.14   60.29
   3   3   3  644.34   69.89
   3   3   3  633.74   89.29
   3  -3   3  612.24   61.69
   3  -3   3  548.95   49.70
  -3  -3   3  618.14   53.19
  -3   3   3  594.74   66.19
   3   3   3  657.23   82.69
  -3   3   3  648.14   88.89
  -3   3   3  628.54   71.99
   3   3   3  577.84   60.09
  -3   4  -3 2315.57  224.98
  -4  -3  -3 2514.05  199.88
  -4  -3  -3 2624.34  207.88
  -3   4  -3 2060.79  185.68
  -4  -3  -3 2272.67  184.88
   3  -4  -3 2396.76  192.28
   4   3  -3 2221.58  189.08
  -3   4  -3 2407.56  171.78
   4   3  -3 2203.68  281.17
  -3   4  -3 2566.64  176.98
  -3   4  -3 1884.11  249.18
   4   3  -3 2419.56  194.78
  -4  -3  -3 2006.90  206.88
   4   3  -3 2490.95  177.38
  -4  -3  -3 2546.15  226.28
   4   3  -3 2887.51  270.17
  -3   4   3 2124.59  193.98
  -3   4   3 2319.47  225.38
   3  -4   3 2568.54  183.48
  -4  -3   3 2381.86  175.88
   4   3   3 2177.68  181.28
   4   3   3 2031.70  196.78
   4   3   3 2656.93  196.68
   4   3   3 2665.63  216.88
   3  -4   3 2673.03  190.78
  -3   4   3 2332.87  199.98
  -4  -3   3 2369.26  170.48
   3  -4   3 2289.67  169.78
   4   3   3 2466.25  208.28
  -4  -3   3 2159.78  252.27
  -4  -3   3 2186.98  184.48
   2  -4  -3   21.80   21.80
   4   2  -3   -8.80   28.40
  -2   4  -3   10.50    7.90
  -2   4  -3   15.90   22.80
  -4  -2  -3    9.10   20.60
  -2   4  -3   15.00   15.90
   4   2  -3   15.90   15.00
  -2   4  -3   15.70   12.40
  -4  -2  -3   32.10   23.20
   4   2  -3   19.20   11.60
   2  -4  -3   31.80   23.20
  -4  -2  -3   14.30   18.00
  -4  -2  -3   19.10   19.30
  -2   4  -3   17.50    8.30
  -4  -2  -3    1.00   11.90
   4   2  -3    3.80   12.70
  -2   4   3    1.50   14.80
  -2   4   3  -18.40   18.30
   2  -4   3    8.60   12.40
   2  -4   3   10.10   12.00
   4   2   3    4.30   16.30
  -2   4   3   29.00   26.90
   4   2   3   11.40   13.20
  -4  -2   3   57.89   42.00
  -2   4   3   10.00   24.30
  -4  -2   3   -0.30   10.10
   4   2   3   20.40   16.70
   2  -4   3    7.40    6.50
   4   2   3    6.80   23.00
  -4  -2   3    4.00   13.60
   4   2   3   13.40   17.80
  -4  -2   3   45.40   49.60
   4   1  -3 1746.73  145.19
   1  -4  -3 1714.33  158.68
  -4  -1  -3 2011.40  164.58
  -4  -1  -3 1643.54  140.09
  -1   4  -3 1773.02  153.98
  -1   4  -3 1981.60  132.89
   1  -4  -3 1896.31  163.88
  -4  -1  -3 2056.89  154.18
  -4  -1  -3 1712.23  166.28
  -1   4  -3 1728.83  132.79
  -1   4  -3 1854.61  135.89
   4   1  -3 1823.92  138.49
   4   1  -3 1973.90  156.58
   1  -4   3 1742.03  147.99
  -4  -1   3 1859.91  138.29
  -4  -1   3 1708.23  143.39
  -1   4   3 1654.23  168.38
   4   1   3 1609.14  154.28
  -1   4   3 1854.51  161.88
   4   1   3 1884.81  153.48
  -1   4   3 2007.90  165.78
  -4  -1   3 1977.50  200.08
   4   1   3 1768.42  138.89
   0  -4  -3    2.20   15.20
   4   0  -3   21.50   16.50
  -4   0  -3   20.40   17.30
   0   4  -3   37.20   17.20
   0   4  -3   22.50    8.00
   0  -4  -3   11.10   24.40
   0   4  -3   15.30    8.10
  -4   0  -3   19.10   11.70
   4   0  -3   20.10   11.50
   0  -4  -3   18.70   21.40
   0   4  -3   28.30   29.90
   4   0  -3   14.90   14.10
   0   4  -3   24.10    9.50
   4   0  -3   32.30   39.20
   0   4  -3    2.10   16.90
   0  -4  -3    7.90   22.90
  -4   0  -3   27.50   19.30
   0   4  -3   21.20   17.80
  -4   0  -3   11.50   16.90
   0   4  -3   87.29   45.90
   0   4   3    4.50   18.60
   0  -4   3   12.70    7.50
   0  -4   3  -16.40   23.00
  -4   0   3   32.60   30.40
   4   0   3   14.50   17.40
   4   0   3   23.00   15.20
   0   4   3    4.00   19.50
   4   0   3    6.60    8.60
   0   4   3   80.59   33.60
  -4   0   3   19.40   13.90
  -4   0   3   47.40   32.20
   4   0   3    4.70   13.80
   0  -4   3    8.30   12.30
   1   4  -3 1880.91  132.29
   4  -1  -3 1887.71  148.79
   1   4  -3 1716.03  188.38
  -4   1  -3 1830.82  138.49
   1   4  -3 2098.09  166.48
  -1  -4  -3 1811.72  172.68
   1   4  -3 1941.61  139.89
   4  -1  -3 1787.02  203.08
  -1  -4  -3 1670.53  153.08
   1   4  -3 1707.43  141.99
  -4   1  -3 1907.91  156.98
  -1  -4  -3 1796.72  173.88
  -1  -4  -3 1889.51  168.48
  -4   1  -3 1723.33  166.78
  -4   1  -3 1953.50  148.99
   4  -1  -3 1892.61  154.28
   1   4  -3 1956.50  144.29
   4  -1  -3 1840.72  141.09
   4  -1   3 2016.10  144.79
   1   4   3 1820.22  160.88
   4  -1   3 1590.34  155.68
  -1  -4   3 1782.52  131.39
  -4   1   3 2164.28  192.18
  -1  -4   3 1710.83  138.79
   1   4   3 1639.44  151.48
   4  -1   3 1744.13  135.89
  -1  -4   3 1834.22  156.48
   4  -1   3 1562.14  150.28
  -4   1   3 1871.31  149.29
   4  -2  -3   21.50   17.40
  -2  -4  -3   -7.80   12.00
   2   4  -3    1.30   22.80
  -2  -4  -3   12.30   23.70
   2   4  -3    4.40   10.00
  -4   2  -3   12.90   14.30
   2   4  -3   25.80   37.20
  -2  -4  -3   -8.90   12.50
   4  -2  -3   13.50   12.90
  -4   2  -3    9.20    9.90
  -2  -4  -3   10.10   16.30
   2   4  -3   14.90    9.10
  -4   2  -3   16.70   32.60
  -4   2  -3   -1.40   12.00
   2   4  -3    3.70   15.60
   4  -2  -3   34.70   35.00
   4  -2  -3   10.50   12.20
   4  -2   3   12.10   15.00
   2   4   3   11.50   14.30
   2   4   3   26.60   31.00
   2   4   3   20.00   21.00
  -4   2   3   15.20   15.20
  -2  -4   3    7.10   13.60
  -2  -4   3   33.70   28.00
   2   4   3   -3.90   25.70
  -4   2   3   15.60   15.70
  -2  -4   3   11.50    8.80
  -4   2   3   64.39   39.70
   2   4   3    3.40   13.60
  -4   2   3   -3.90   23.50
   4  -2   3   10.10    9.00
   4  -2   3   15.00   13.30
  -4   3  -3 1916.31  245.68
   3   4  -3 2067.19  189.88
   3   4  -3 2516.75  191.48
   4  -3  -3 2402.86  190.68
  -4   3  -3 2362.16  209.78
  -3  -4  -3 2654.33  205.98
   4  -3  -3 2232.78  184.48
  -3  -4  -3 2291.97  199.48
   4  -3  -3 2189.38  253.87
   3   4  -3 2407.26  175.98
   4  -3  -3 2442.06  194.98
   3   4  -3 1731.03  261.97
  -4   3  -3 2582.94  190.78
  -3  -4  -3 2547.05  206.28
   3   4  -3 2405.56  254.87
  -4   3  -3 2422.86  175.98
   4  -3   3 2056.69  186.78
   4  -3   3 2402.26  184.98
   3   4   3 2695.93  201.48
   3   4   3 2683.93  237.58
   3   4   3 2343.37  246.18
   3   4   3 2163.48  194.08
  -4   3   3 2414.36  210.28
  -4   3   3 2432.56  192.58
  -4   3   3 2685.03  236.68
  -3  -4   3 2113.89  253.77
   4  -3   3 2590.14  184.68
  -3  -4   3 2445.46  175.18
  -4   4  -3   45.70   14.90
  -4   4  -3   56.59   19.40
   4   4  -3   46.80   43.50
   4   4  -3   47.20   26.70
   4   4  -3  -27.30   32.70
   4   4  -3   34.20   14.50
  -4   4  -3   16.30   21.40
  -4  -4  -3   57.79   48.80
   4  -4  -3   49.50   21.40
  -4   4  -3   15.20   56.69
   4   4  -3   11.30   19.20
  -4  -4  -3   45.10   23.40
  -4  -4  -3   51.69   31.80
  -4  -4  -3   46.30   28.30
   4  -4  -3   39.40   22.20
   4  -4   3   40.50   13.90
   4  -4   3   24.10   15.80
  -4  -4   3  184.28   69.09
  -4   4   3   35.90   24.20
  -4   4   3  124.49   46.50
   4  -4   3   36.80   22.20
   4  -4   3   42.20   22.40
  -4   4   3   40.50   29.80
   4   4   3   36.80   25.40
  -4  -4   3   41.90   17.50
   4   4   3   18.90   21.40
   4   4   3   74.39   25.50
   4   4   3   85.79   46.20
   4   4   3   13.50   32.60
  -4   5  -3 1510.65  168.48
   5   4  -3 1395.36  144.29
   5   4  -3 1752.52  224.68
   5   4  -3 1639.54  127.39
  -5  -4  -3 1784.02  178.58
   4  -5  -3 1551.94  132.19
   4  -5  -3 1409.06  140.49
  -5  -4  -3 1329.17  157.48
  -4   5  -3 1471.65  120.49
  -4   5  -3 1398.96  141.09
   5   4   3 1598.94  166.08
  -4   5   3 1352.66  145.59
   4  -5   3 1722.93  137.49
  -5  -4   3 1555.24  125.79
   4  -5   3 1588.44  137.89
   3  -5  -3  339.87   46.00
  -5  -3  -3  446.46   75.69
  -5  -3  -3  300.67   48.70
  -3   5  -3  366.66   38.70
  -5  -3  -3  302.97   83.89
  -3   5  -3  498.65   83.19
  -3   5  -3  260.67   47.80
   5   3  -3  364.56   56.09
  -5  -3  -3  460.35   69.69
   5   3  -3  554.34  117.29
   3  -5  -3  387.56   61.09
  -5  -3  -3  450.75   65.59
   5   3  -3  370.26   44.70
   5   3  -3  400.56   84.79
   3  -5   3  344.57   36.90
   5   3   3  399.66   67.79
   3  -5   3  421.56   55.99
   5   3   3  360.76   29.80
  -3   5   3  278.47   64.09
  -5  -3   3  411.46   45.80
   3  -5   3  356.66   50.69
   5   3   3  459.95   61.29
  -3   5   3  395.06   69.29
  -3   5   3  360.76   71.89
  -5  -2  -3 1761.02  154.58
   5   2  -3 1617.04  136.19
  -5  -2  -3 1575.54  158.38
   5   2  -3 1623.54  143.99
   2  -5  -3 1615.24  149.39
  -2   5  -3 1368.36  121.29
   2  -5  -3 1318.97  141.89
   2  -5  -3 1187.98  166.38
  -2   5  -3 1250.87  171.28
  -5  -2  -3 1279.87  155.08
   5   2  -3 1631.14  124.69
  -2   5  -3 1662.63  115.69
  -5  -2  -3 1766.42  145.39
  -2   5   3 1412.76  156.98
  -5  -2   3 1532.35  122.69
  -2   5   3 1533.25  166.88
   2  -5   3 1434.16  121.69
  -2   5   3 1602.74  152.18
   5   2   3 1614.64  137.09
   2  -5   3 1575.14  135.09
   5   2   3 1480.55  125.39
   2  -5   3 1479.25  113.19
   5   2   3 1734.33  147.99
  -5  -1  -3  453.05   65.49
  -5  -1  -3  374.26   64.19
  -5  -1  -3  446.86   58.69
   5   1  -3  543.25  108.09
  -1   5  -3  400.86   53.89
   1  -5  -3  352.66   64.39
   1  -5  -3  445.56   65.09
  -1   5  -3  419.06   37.20
   5   1  -3  352.26   43.10
   5   1  -3  362.76   50.49
  -5  -1  -3  294.27   80.49
  -5  -1  -3  367.06   45.80
  -1   5  -3  387.26   39.50
   1  -5  -3  380.76   67.39
   5   1  -3  379.66   55.19
   5   1   3  329.67   54.89
   1  -5   3  410.46   40.20
   1  -5   3  374.56   37.10
   5   1   3  422.76   53.69
  -5  -1   3  437.56   93.19
   5   1   3  416.26   58.69
  -5  -1   3  299.27   46.90
   5   1   3  357.46   43.20
  -5  -1   3  392.76   44.50
   1  -5   3  429.06   55.59
  -1   5   3  365.56   65.29
  -1   5   3  323.27   62.49
  -5   0  -3 2460.85  237.38
  -5   0  -3 2370.26  222.68
   5   0  -3 2770.82  221.78
   0   5  -3 2583.84  185.08
   0   5  -3 2538.65  200.68
   0   5  -3 2639.64  183.08
   5   0  -3 2783.92  276.57
  -5   0  -3 2826.22  218.08
   0  -5  -3 2470.35  213.78
  -5   0  -3 2733.23  206.38
   0   5  -3 2562.34  177.78
   0   5  -3 2217.38  245.38
   5   0  -3 2629.34  210.38
  -5   0  -3 2367.46  191.18
   0  -5  -3 2598.94  219.88
   5   0  -3 2416.46  190.48
   0  -5  -3 2401.96  221.48
   0  -5   3 2969.00  251.27
   0  -5   3 2470.45  182.08
   0  -5   3 2565.54  205.78
   5   0   3 2332.47  210.38
  -5   0   3 2584.34  191.68
   0   5   3 2810.62  222.08
   5   0   3 2261.97  187.48
  -5   0   3 2626.34  255.27
  -5   0   3 2426.76  198.58
   0   5   3 2187.88  213.28
   5   0   3 2792.82  200.88
   0  -5   3 2445.96  185.08
   1   5  -3  424.56   39.30
   1   5  -3  399.66   41.00
  -5   1  -3  428.86   57.49
   1   5  -3  473.95   94.49
   5  -1  -3  388.66   45.90
   5  -1  -3  371.56   55.59
  -5   1  -3  412.16   58.79
  -1  -5  -3  376.06   67.89
  -1  -5  -3  518.25   53.99
   5  -1  -3  331.47  102.69
  -1  -5  -3  358.46   76.09
   1   5  -3  414.06   44.20
   5  -1  -3  410.26   54.19
  -5   1  -3  361.86   43.40
  -5   1  -3  388.76   64.29
  -1  -5  -3  413.46   57.49
  -5   1  -3  341.27   89.49
   1   5  -3  415.96   61.79
   1   5  -3  314.27   43.90
  -1  -5  -3  328.67   53.39
  -1  -5   3  366.86   43.60
  -1  -5   3  439.26   61.99
   5  -1   3  327.57   60.69
  -1  -5   3  407.56   71.29
  -5   1   3  490.95   89.49
   1   5   3  347.67   57.49
  -5   1   3  384.06   53.69
   1   5   3  380.66   63.89
  -1  -5   3  389.56   38.60
   5  -1   3  373.56   41.60
   5  -2  -3 1643.94  138.39
  -2  -5  -3 1686.13  143.99
   5  -2  -3 1575.24  140.19
  -2  -5  -3 1330.47  135.99
   2   5  -3 1313.27  132.09
  -2  -5  -3 1526.35  153.38
  -5   2  -3 1485.25  136.59
  -2  -5  -3 1401.46  132.09
   5  -2  -3 1506.65  127.29
   2   5  -3 1620.24  128.19
  -5   2  -3 1580.44  123.69
   2   5  -3 1480.15  187.88
   5  -2  -3 1487.05  201.78
   2   5  -3 1601.94  119.39
  -5   2  -3 1686.13  142.49
   2   5  -3 1508.95  149.39
  -2  -5   3 1364.36  128.49
  -2  -5   3 1532.35  152.58
   2   5   3 1405.06  187.28
  -5   2   3 1520.35  137.99
   5  -2   3 1749.43  133.19
  -5   2   3 1653.33  134.99
   2   5   3 1413.06  137.99
   2   5   3 1729.93  151.08
   5  -2   3 1523.35  120.89
   2   5   3 1839.52  177.58
  -2  -5   3 1598.54  118.79
  -3  -5  -3  366.26   65.79
   3   5  -3  432.26  118.19
   3   5  -3  216.18   54.49
  -5   3  -3  244.28  103.49
   3   5  -3  394.06   41.90
   3   5  -3  385.06   51.79
   3   5  -3  347.37   75.59
  -3  -5  -3  402.46   60.59
   5  -3  -3  377.76   49.80
  -5   3  -3  363.36   52.69
   5  -3  -3  324.67   51.59
  -5   3  -3  349.77   42.60
   5  -3  -3  372.56  116.49
   5  -3   3  428.16   54.49
  -3  -5   3  394.06   42.30
   3   5   3  381.26   78.89
   5  -3   3  308.27   51.79
   3   5   3  291.07   55.59
   3   5   3  420.86   62.99
  -5   3   3  458.85   58.39
  -3  -5   3  285.27   62.49
   3   5   3  357.96   55.09
   3   5   3  533.25  102.59
   4   5  -3 1490.45  143.69
   5  -4  -3 1391.86  136.49
  -5   4  -3 1429.66  133.19
   5  -4  -3 1553.14  141.69
  -4  -5  -3 1646.34  156.18
   4   5  -3 1533.25  212.48
  -4  -5  -3 1613.54  158.78
   4   5  -3 1577.74  135.59
  -5   4  -3 1730.23  139.39
  -4  -5   3 1629.24  127.79
   5  -4   3 1697.53  141.39
  -5   4   3 1356.86  142.69
   4   5   3 1621.84  151.48
   5  -4   3 1701.43  142.19
   4   5   3 1658.63  164.48
   4   5   3 1974.60  202.48
   5   5  -3   75.29   47.20
  -5   5  -3  110.99   43.70
   5  -5  -3  186.38   47.20
   5  -5  -3  111.99   34.40
  -5   5  -3  186.88   34.40
   5   5  -3  202.48  100.29
   5   5  -3  182.98   32.60
  -5   5  -3  207.88   36.30
  -5  -5  -3  424.16  101.99
  -5  -5  -3  169.78   54.19
  -5  -5  -3  176.28   52.89
   5   5   3  152.98   47.60
  -5  -5   3  179.68   35.40
   5  -5   3  193.68   45.00
   5   5   3  183.38   71.29
   5  -5   3  194.78   47.60
  -5   5   3  152.68   50.39
   5  -5   3  119.59   34.10
  -6  -5  -3 1137.69  132.59
  -5   6  -3 1105.09  101.29
   5  -6  -3 1008.90  109.09
   5  -6  -3 1066.39  123.79
   6   5  -3 1169.08  106.19
  -6  -5  -3 1357.76  142.69
  -5   6   3 1032.50  133.09
   6   5   3 1340.27  159.48
   5  -6   3 1199.58  121.09
  -6  -5   3 1224.18  108.59
   6   5   3 1159.28  126.49
   5  -6   3 1236.08  123.19
  -4   6  -3   41.90   32.60
   6   4  -3  -34.30   31.90
   4  -6  -3  -10.70   23.50
  -4   6  -3   27.50   16.30
  -6  -4  -3   32.30   30.80
   6   4  -3   49.10   55.39
  -6  -4  -3   23.50   31.10
   6   4  -3   28.30   18.10
  -6  -4  -3  139.79   58.19
   4  -6  -3    9.00   18.60
  -6  -4   3   38.30   20.50
   6   4   3   31.20   36.30
   4  -6   3   42.00   27.10
   6   4   3    1.00   28.90
  -4   6   3   28.40   26.70
  -4   6   3   -1.40   29.20
  -6  -4   3  193.18   86.69
   4  -6   3  -11.10   20.20
  -6  -3  -3 2182.88  188.98
  -6  -3  -3 1684.13  188.38
  -6  -3  -3 1973.60  175.78
  -6  -3  -3 1587.14  188.78
  -3   6  -3 1906.31  142.29
   3  -6  -3 1607.44  171.38
   3  -6  -3 1498.95  180.38
   6   3  -3 1819.32  150.28
   3  -6  -3 1934.81  149.39
   6   3   3 2315.47  191.98
   3  -6   3 1689.03  151.18
   6   3   3 2176.28  188.08
  -6  -3   3 1918.01  155.98
   3  -6   3 1971.30  165.68
   6   3   3 1699.73  135.19
  -3   6   3 1757.82  180.38
  -6  -3   3 1964.70  151.28
   6   2  -3   39.20   50.29
   6   2  -3   23.00   16.80
   2  -6  -3   -1.10   25.00
   2  -6  -3   18.40   32.80
  -6  -2  -3  -11.70   21.20
  -6  -2  -3   11.00   31.80
  -6  -2  -3  -55.69   37.00
  -2   6  -3   26.30   12.80
  -6  -2  -3   41.20   30.40
  -6  -2  -3   35.60   23.20
  -2   6  -3   62.39   38.50
  -6  -2   3   22.00   20.50
   2  -6   3    9.20   17.00
  -2   6   3  -32.80   27.50
  -6  -2   3   72.49   59.29
  -2   6   3   28.00   35.30
   6   2   3   -5.90   22.80
   6   2   3    2.30   23.60
   2  -6   3   19.10   21.60
   2  -6   3    0.60   10.90
  -6  -1  -3 2447.16  221.98
  -1   6  -3 1999.90  182.08
  -1   6  -3 2128.29  160.28
   1  -6  -3 2170.28  205.58
   6   1  -3 2154.08  179.58
  -6  -1  -3 1940.81  216.18
  -6  -1  -3 2497.75  195.48
   6   1  -3 2378.06  293.27
   1  -6  -3 2064.89  181.78
   6   1  -3 2074.89  180.28
  -6  -1  -3 2242.38  209.18
  -6  -1  -3 2097.59  172.98
   6   1   3 2169.98  195.18
   1  -6   3 2182.58  161.48
  -1   6   3 1969.70  198.98
  -6  -1   3 2183.88  170.38
   1  -6   3 2111.89  162.38
   6   1   3 2391.96  183.68
   0   6  -3  196.98   43.30
   0   6  -3  179.18   34.80
  -6   0  -3  115.89   58.59
   0   6  -3  159.18   26.50
  -6   0  -3  167.88   43.80
   0  -6  -3  100.09   50.69
   0  -6  -3  158.78   38.50
  -6   0  -3  146.89   31.70
   6   0  -3  153.58   36.00
   0   6  -3  157.08   86.69
   6   0  -3  159.08   42.30
   0  -6  -3  170.88   45.00
   0   6   3  142.19   52.59
   6   0   3  133.79   36.20
   0  -6   3  148.09   26.00
   6   0   3   71.99   44.40
   0  -6   3  142.29   26.60
  -6   0   3  142.19   32.80
   0  -6   3  116.39   37.50
   1   6  -3 2076.49  268.07
  -1  -6  -3 2476.65  183.88
   1   6  -3 2033.20  156.68
   1   6  -3 1943.01  165.48
  -1  -6  -3 2078.09  201.08
  -6   1  -3 2463.85  195.08
  -1  -6  -3 2173.18  177.88
   6  -1  -3 1854.81  172.38
  -6   1  -3 2088.49  167.18
   6  -1  -3 2306.77  266.97
   1   6  -3 2159.98  158.98
   6  -1  -3 1888.11  185.18
   1   6  -3 2195.48  165.78
  -1  -6   3 1983.90  185.68
  -1  -6   3 2183.18  211.18
  -1  -6   3 2131.59  158.18
   6  -1   3 1730.83  189.98
   6  -1   3 2441.26  179.98
   1   6   3 2129.69  193.98
  -6   2  -3   15.90   22.90
   6  -2  -3   57.79   27.80
  -6   2  -3   37.00   17.30
   2   6  -3   37.70   20.50
   2   6  -3   15.00   14.50
   2   6  -3    5.60   14.30
  -2  -6  -3  -22.00   27.60
  -2  -6  -3   64.39   30.80
  -6   2  -3   27.30   23.50
  -2  -6  -3   17.10   20.70
   2   6  -3  -53.39   36.50
  -2  -6  -3  -17.50   28.00
   6  -2  -3    6.10   41.90
  -6   2   3   90.69   58.99
   2   6   3   -3.70   46.60
   2   6   3   22.90   23.70
  -2  -6   3   14.40   14.00
  -2  -6   3  -18.80   23.20
   2   6   3   27.50   29.20
  -6   2   3   39.90   23.60
   2   6   3    8.50   36.10
   6  -2   3   25.70   22.90
  -2  -6   3   36.10   32.00
   6  -3  -3 1764.42  245.38
  -6   3  -3 2033.20  170.78
   3   6  -3 1948.91  148.69
   6  -3  -3 1837.02  157.38
   3   6  -3 1843.72  240.28
  -6   3  -3 1888.71  151.68
   3   6  -3 1801.72  159.48
  -3  -6  -3 2316.37  212.88
   3   6  -3 1533.95  163.68
  -3  -6  -3 2100.89  174.18
   3   6   3 1670.53  193.08
   6  -3   3 1516.95  163.78
  -3  -6   3 1951.90  147.59
   3   6   3 1897.31  176.68
   3   6   3 2143.39  244.98
  -6   3   3 2026.60  168.98
   6  -3   3 2056.09  164.48
  -6   4  -3   44.00   19.50
   4   6  -3   19.20   65.09
   6  -4  -3   45.10   26.50
   4   6  -3  -10.10   32.50
  -4  -6  -3  -27.90   26.10
   4   6  -3   11.30   25.40
   4   6  -3   29.70   18.30
  -6   4  -3   24.40   31.90
  -6   4  -3   43.00   24.50
   4   6   3   31.00   32.90
   6  -4   3   20.70   25.30
   4   6   3   51.29   36.00
  -4  -6   3   98.39   58.89
   4   6   3    3.30   55.39
  -4  -6   3   21.90   19.80
   6  -4   3   51.69   31.60
  -6   4   3   97.99   61.69
  -6   4   3   37.20   26.50
   6  -5  -3 1014.70  114.39
   5   6  -3  975.60  188.28
  -5  -6  -3 1316.47  134.69
  -6   5  -3 1163.48  103.19
   5   6  -3 1187.98  103.19
  -5  -6  -3 1083.09  131.59
   6  -5   3 1043.50  112.99
   5   6   3 1337.27  175.78
   5   6   3 1159.48  127.99
  -5  -6   3 1113.49  103.39
   6  -5   3  934.41  115.19
  -6   5   3 1131.49  127.29
   6   6  -3   17.30   86.99
  -6   6  -3   26.30   37.30
   6   6  -3   23.20   80.59
   6  -6  -3   15.90   30.30
   6   6  -3   33.20   21.90
  -6  -6  -3  -25.40   32.80
  -6   6   3   63.09   44.70
  -6   6   3   17.40   34.20
   6  -6   3   -1.80   26.10
   6  -6   3   -6.30   34.10
  -6  -6   3  -10.50   20.90
   6   6   3  -28.40   46.30
   6   6   3  -17.90   32.30
  -6  -6   3   18.80   63.49
   5  -7  -3   74.19   55.09
   5  -7  -3  117.59   50.09
   7   5  -3   92.59   32.70
   7   5  -3  266.97  126.29
   7   5   3  150.68   69.89
   7   5   3  106.69   65.29
  -5   7   3   93.69   58.09
   5  -7   3  106.59   45.00
   5  -7   3   87.39   65.19
  -7  -5   3  108.39   33.70
  -4   7  -3  995.50   88.79
  -7  -4  -3 1039.60  125.79
   7   4  -3  996.80   96.59
  -4   7  -3 1005.90  101.79
   4  -7  -3  852.51  120.69
  -4   7  -3 1094.49  181.38
   4  -7  -3 1096.59  127.49
   4  -7   3 1060.99  112.99
  -4   7   3  861.41  128.79
   4  -7   3  909.91   99.29
   7   4   3  942.61  114.29
  -7  -3  -3  302.97   66.79
  -7  -3  -3  197.98   59.29
   3  -7  -3  153.08   57.39
   7   3  -3  333.07  126.49
  -3   7  -3  215.98   34.30
  -3   7  -3  266.17   41.10
   3  -7  -3  167.08   33.20
   7   3  -3  218.78   40.40
   3  -7   3  201.08   52.59
  -3   7   3  215.18   66.29
  -7  -3   3  307.37   56.39
   7   3   3  171.98   51.19
   7   3   3  278.37   74.59
  -7  -3   3  208.58   45.30
   3  -7   3  173.18   39.90
  -2   7  -3 1207.98   96.89
   2  -7  -3 1066.69  107.79
   7   2  -3 1571.14  218.18
  -7  -2  -3 1397.46  143.69
  -7  -2  -3 1148.99  129.39
   7   2  -3 1095.49  105.49
   7   2   3 1215.58  121.09
   2  -7   3 1157.48  122.39
  -7  -2   3 1289.77  109.49
   2  -7   3 1031.20  100.19
  -2   7   3 1004.60  136.09
   7   2   3 1042.00  131.49
   1  -7  -3  262.17   78.19
  -7  -1  -3  134.59   86.49
  -1   7  -3  215.58   56.59
   1  -7  -3  167.18   46.40
   7   1  -3  146.89   35.30
   7   1  -3  171.58   87.49
  -7  -1  -3  186.38   51.09
  -1   7  -3  193.08   31.30
  -7  -1  -3  211.58   54.29
   1  -7  -3  148.79   35.40
   1  -7   3  144.39   44.90
   1  -7   3  150.68   31.60
  -1   7   3  165.88   61.59
   7   1   3  112.09   49.40
   7   1   3  119.99   41.60
  -7  -1   3  142.79   44.00
  -7   0  -3 1153.88  193.88
   0  -7  -3 1415.66  135.29
  -7   0  -3 1461.05  145.39
  -7   0  -3 1593.94  155.28
  -7   0  -3 1558.04  140.19
   0   7  -3 1412.06  115.99
   7   0  -3 1656.43  227.38
   0   7  -3 1320.87  192.98
   0  -7  -3 1564.54  142.69
   7   0  -3 1415.06  125.09
   0  -7  -3 1462.85  164.38
   0   7  -3 1511.55  132.79
   0   7  -3 1345.57  116.39
  -7   0   3 1436.26  126.49
   7   0   3 1240.58  151.58
   0  -7   3 1424.26  115.39
   0  -7   3 1505.15  144.89
   0   7   3 1295.97  155.98
   7   0   3 1572.74  138.49
   7  -1  -3   62.59   62.59
  -1  -7  -3  177.48   52.79
   1   7  -3  194.48   31.20
  -7   1  -3  158.78   35.30
  -7   1  -3  198.48   51.59
   1   7  -3  200.18   95.89
  -7   1  -3  141.89   46.10
  -1  -7  -3  189.28   40.80
   7  -1  -3  157.98   37.60
   1   7  -3  207.98   36.90
   7  -1   3  185.58   47.30
  -1  -7   3  106.99   52.69
   1   7   3  285.37   74.29
   1   7   3  167.98   57.29
   7  -1   3  173.78   58.99
  -1  -7   3  157.18   30.20
  -1  -7   3  105.99   49.70
   1   7   3  136.19   99.69
  -7   2  -3 1293.17  128.59
   2   7  -3  977.60  100.89
  -2  -7  -3 1232.78  138.59
  -7   2  -3 1042.50  121.79
   2   7  -3  907.71  117.19
   7  -2  -3  950.80  183.68
   7  -2  -3 1101.79  105.39
  -2  -7  -3 1196.08  140.19
  -2  -7  -3 1218.98  113.89
  -7   2  -3 1025.40  102.69
  -2  -7  -3 1016.90  123.59
   2   7  -3 1056.89  184.08
   2   7  -3  999.10  105.69
   2   7   3 1255.57  135.09
   2   7   3 1047.60  195.08
  -2  -7   3 1226.38  139.89
   2   7   3 1359.26  159.18
   7  -2   3 1246.08  118.99
  -7   2   3 1243.98  117.69
  -2  -7   3  967.90  130.39
  -2  -7   3 1174.98   96.49
   3   7  -3  182.98   89.79
   7  -3  -3  206.28  107.89
  -3  -7  -3  231.28   51.79
  -7   3  -3  257.77   53.19
   7  -3  -3  246.88   49.99
  -3  -7  -3  158.38   61.99
   3   7   3  203.68   63.69
   7  -3   3  159.98   46.40
   3   7   3  139.69   60.89
  -3  -7   3  290.67   66.99
   3   7   3  253.07  117.39
  -7   3   3  232.18   54.99
  -3  -7   3  176.18   35.50
   4   7  -3 1159.68   99.89
   4   7  -3  927.71  191.18
  -7   4  -3 1159.28  115.09
  -4  -7  -3 1082.69  134.49
   7  -4  -3  983.70  108.19
   4   7  -3  814.92  115.19
   4   7  -3  958.80  114.59
  -4  -7  -3 1286.77  125.69
   4   7   3 1108.09  198.08
   7  -4   3 1286.07  122.59
  -4  -7   3 1012.40   98.49
   4   7   3 1042.00  140.49
   5   7  -3  190.88  108.19
  -5  -7  -3   22.10   88.19
  -5  -7  -3  132.19   51.49
  -7   5   3  157.98   52.99
  -7   5   3  308.17   91.49
   5   7   3   65.79   50.29
  -5  -7   3  142.09   42.10
   5   7   3  112.99   86.09
   7  -5   3   97.39   48.60
   8   3  -3  803.32   89.69
  -8  -3  -3 1065.59  132.59
  -8  -3  -3  978.10  121.59
  -3   8  -3  787.52   83.79
   3  -8  -3  935.71  129.89
  -3   8   3  787.12  126.89
   8   3   3  740.33  124.19
   3  -8   3  792.62  104.89
   3  -8   3  826.52   90.19
  -8  -3   3  865.31   93.39
   2  -8  -3   34.00   34.10
   2  -8  -3   -1.00   50.59
  -2   8  -3  -21.30   16.10
  -8  -2  -3  -14.90   36.30
  -2   8   3  -14.00   52.29
  -8  -2   3   51.09   49.60
   8   2   3   -5.30   32.40
   8   2   3    8.50   35.20
   2  -8   3   11.60   30.20
  -8  -2   3    6.80   25.30
   2  -8   3   -2.30   21.50
  -8  -1  -3 1136.59  130.89
  -1   8  -3  786.82  156.78
   8   1  -3  837.22   92.19
   8   1  -3 1029.90  194.98
  -8  -1  -3  955.90  118.29
   1  -8  -3 1013.10  139.09
   1  -8  -3  892.01   77.49
   1  -8  -3  919.01  115.09
  -1   8  -3  853.81   81.19
  -1   8  -3  972.40  107.69
   8   1   3  924.11  107.19
   1  -8   3  859.41   83.49
  -1   8   3  593.34  116.99
   8   1   3  798.92  119.59
  -8  -1   3  874.61   93.69
  -8   0  -3   13.50   34.00
   0   8  -3  -43.90   39.30
   0  -8  -3   -6.80   43.70
   0   8  -3   24.40   19.70
   0  -8  -3  -14.70   60.89
  -8   0  -3    5.60   30.70
   8   0  -3  118.89   86.99
   0  -8   3  -17.60   17.70
   8   0   3   -5.80   38.20
   0  -8   3    8.90   30.00
  -8   0   3   22.40   28.00
   0   8   3  -17.60   46.50
   0   8   3  -17.70   47.70
   8   0   3   -6.80   29.30
  -1  -8  -3  949.01   90.19
  -8   1  -3 1033.70  123.09
  -1  -8  -3  733.43  118.29
   1   8  -3  770.12   83.39
   1   8  -3  919.91   81.99
  -8   1  -3 1001.40  122.49
   1   8  -3  943.31  180.18
  -1  -8  -3  834.52  130.59
   8  -1  -3 1097.19  198.78
   1   8   3  534.95  182.68
  -1  -8   3  902.21   82.89
   1   8   3 1186.88  142.19
   1   8   3  819.82  120.89
  -1  -8   3  939.61  119.69
   8  -1   3  802.82  101.79
   8  -1   3  727.83  120.59
  -8   2  -3  -12.50   25.20
  -2  -8  -3  -12.70   21.20
   2   8  -3  -16.10   15.50
   2   8  -3    6.50   11.50
  -2  -8  -3    4.40   44.30
  -2  -8  -3  -19.90   41.50
  -2  -8   3   11.60   22.60
  -2  -8   3   23.70   41.40
  -2  -8   3   77.59   53.59
  -8   2   3   32.50   81.59
   8  -2   3   -3.50   37.80
   2   8   3  -62.59   98.89
   2   8   3   73.89   48.40
  -3  -8  -3  943.91  103.29
  -8   3  -3 1026.90  119.99
  -3  -8  -3  874.51  130.39
   8  -3  -3  635.64  179.88
   3   8  -3  740.63  168.18
   8  -3  -3  856.21   98.59
   3   8   3  769.12  118.59
  -3  -8   3  911.51  124.29
   3   8   3 1057.19  202.98
  -3  -8   3  960.10   90.19
  -8   3   3 1067.19  163.98
   0   0  -4 8535.55  634.74
   0   0  -4 9174.68  636.34
   0   0  -4 9482.15  645.34
   0   0  -4 9999.00  719.13
   0   0  -4 8865.71  649.14
   0   0   4 9904.11  634.24
   0   0   4 9676.53  713.13
   0   0   4 8353.76  631.64
   0   0   4 9101.69  641.34
   0   0   4 9253.97  667.63
   1   0  -4 2298.57  165.48
   0  -1  -4 2481.85  178.38
   0   1  -4 2120.69  161.28
   0   1  -4 2169.18  182.18
  -1   0  -4 1813.02  202.98
  -1   0  -4 1944.11  212.08
   0  -1  -4 2782.32  243.18
  -1   0  -4 2042.30  163.88
  -1   0  -4 2236.98  171.08
  -1   0  -4 2511.85  181.78
   0  -1  -4 2257.47  174.18
  -1   0  -4 2113.99  195.68
   0  -1  -4 1985.80  180.08
   1   0   4 2362.16  167.88
   1   0   4 2012.00  165.18
   0  -1   4 2595.84  161.18
   0   1   4 2673.73  249.18
   0   1   4 2368.86  168.68
  -1   0   4 2644.54  214.78
   0   1   4 2657.73  174.58
   1   0   4 2261.47  209.08
   0  -1   4 2429.16  160.08
  -1   0   4 2451.65  170.28
   0   1   4 1986.50  188.28
   0  -1   4 2297.37  228.48
   0  -1   4 2116.99  198.78
  -1   0   4 2162.68  181.68
   0   1   4 2412.06  173.58
  -1   0   4 2604.54  189.18
  -1   0   4 2121.39  164.58
   1   1  -4 2644.54  191.28
  -1  -1  -4 2633.54  202.68
  -1   1  -4 2622.44  220.08
   1   1  -4 2902.81  227.38
   1   1  -4 3056.69  223.18
  -1   1  -4 2510.85  187.68
   1   1  -4 2823.22  188.88
  -1   1  -4 2660.33  254.97
   1  -1  -4 2845.32  208.38
  -1  -1  -4 2340.87  195.88
  -1  -1  -4 2444.36  206.48
  -1   1  -4 2624.14  203.28
   1  -1  -4 2641.24  199.18
  -1  -1  -4 2562.14  244.38
  -1  -1  -4 2370.56  239.68
  -1   1  -4 2850.41  189.88
   1  -1   4 2824.12  200.18
  -1  -1   4 2747.72  190.58
   1  -1   4 2584.84  186.78
  -1  -1   4 2754.02  189.48
  -1   1   4 3057.69  210.58
  -1  -1   4 3007.40  241.08
   1   1   4 2721.63  202.28
  -1   1   4 2332.67  196.78
   1   1   4 2417.46  194.38
  -1   1   4 3037.30  206.58
  -1  -1   4 2894.91  220.68
   1  -1   4 2892.11  235.88
   1  -1   4 2404.06  189.28
  -1   1   4 2848.31  244.28
   1   1   4 3169.18  246.18
  -2  -1  -4 1555.64  148.29
   1  -2  -4 1369.66  123.09
  -2  -1  -4 1521.75  116.39
  -2  -1  -4 1490.15  127.49
  -2  -1  -4 1470.85  148.29
   2   1  -4 1420.76  115.29
  -1   2  -4 1706.93  134.59
  -1   2  -4 1416.46  171.88
   2   1  -4 1494.75  109.79
  -1   2  -4 1526.05  136.69
  -1   2  -4 1206.68  143.59
   1  -2   4 1789.12  149.09
  -2  -1   4 1483.05  114.09
   2   1   4 1419.36  158.98
  -2  -1   4 1690.33  153.08
  -1   2   4 1582.64  131.39
   2   1   4 1667.13  123.69
   2   1   4 1410.86  113.29
  -1   2   4 1548.35  165.68
  -1   2   4 1329.27  121.49
   0   2  -4 1849.61  201.48
   0   2  -4 1492.05  148.69
   0   2  -4 1588.34  146.19
   0  -2  -4 1477.95  133.79
  -2   0  -4 1714.43  158.78
  -2   0  -4 1542.45  122.09
  -2   0  -4 1720.43  173.78
   0  -2  -4 1995.90  146.49
  -2   0  -4 1515.55  150.78
   2   0  -4 1539.45  128.29
   0  -2  -4 2082.09  195.98
  -2   0  -4 1631.84  130.29
   0   2  -4 1575.94  148.79
   0   2   4 1839.62  136.49
   2   0   4 1755.82  127.59
   0   2   4 1610.34  132.39
  -2   0   4 1674.93  124.29
   0   2   4 1630.94  135.99
   0  -2   4 1646.64  182.18
   2   0   4 1630.44  164.88
   0  -2   4 1603.84  136.59
  -2   0   4 1641.14  128.49
   2   0   4 1501.75  120.29
   0  -2   4 1895.31  155.58
  -2   0   4 1609.04  149.79
   2   0   4 1540.15  122.29
   0   2   4 1856.11  204.58
  -2   1  -4 1514.45  108.39
  -1  -2  -4 1401.56  132.19
   1   2  -4 1446.66  108.79
  -2   1  -4 1577.24  114.39
  -2   1  -4 1499.65  140.29
  -1  -2  -4 1448.56  157.98
   2  -1  -4 1601.14  116.59
   1   2  -4 1208.88  139.29
  -1  -2  -4 1417.56  154.68
  -2   1  -4 1532.35  141.09
   1   2  -4 1542.65  104.39
  -1  -2  -4 1302.37  118.59
   2  -1  -4 1182.18  147.69
   1   2  -4 1529.45  148.09
  -2   1  -4 1277.37  134.09
   1   2   4 1359.06  117.19
   2  -1   4 1482.55  115.09
   2  -1   4 1576.94  111.69
   1   2   4 1804.92  158.18
   1   2   4 1353.56  115.09
  -1  -2   4 1526.05  107.59
  -2   1   4 1496.15  116.89
  -1  -2   4 1584.34  158.98
   2  -1   4 1669.73  152.48
  -2   1   4 1674.93  126.09
  -2   1   4 1686.83  139.29
  -1  -2   4 1596.24  140.49
   1   2   4 1417.26  125.09
   2  -1   4 1447.16  106.89
   2   2  -4  548.45   43.60
  -2  -2  -4  525.45   74.29
   2   2  -4  550.24   84.79
  -2  -2  -4  552.34   67.19
   2  -2  -4  469.45   62.69
  -2   2  -4  439.76   43.80
  -2   2  -4  505.35   66.89
  -2   2  -4  497.55   64.89
   2   2  -4  554.64   54.59
   2  -2  -4  485.25   53.19
   2   2  -4  668.83   78.29
  -2   2  -4  361.16   74.19
  -2  -2  -4  491.85   52.69
   2   2   4  624.84   62.69
   2   2   4  594.24   54.59
  -2  -2   4  596.74   64.89
  -2   2   4  491.95   61.09
   2  -2   4  479.85   39.80
  -2   2   4  595.64   70.59
  -2  -2   4  474.65   41.80
  -2   2   4  512.25   55.29
  -2  -2   4  596.14   88.89
   2  -2   4  495.85   52.49
   2   2   4  461.65   84.19
  -2  -2   4  552.74   48.30
   2   2   4  450.95   48.80
   2  -3  -4 1488.75  132.19
   2  -3  -4 1468.95  141.79
  -3  -2  -4 1662.33  143.89
   3   2  -4 1562.74  117.19
  -3  -2  -4 1640.64  163.88
   3   2  -4 1864.51  186.08
   3   2  -4 1475.15  127.39
  -2   3  -4 1527.25  145.19
  -2   3  -4 1505.45  110.59
  -2   3  -4 1471.15  132.39
  -3  -2  -4 1534.55  126.09
  -2   3  -4 1506.05  176.48
   3   2  -4 1592.14  137.19
  -2   3  -4 1625.44  117.69
  -3  -2  -4 1673.23  153.68
   3   2  -4 1569.94  150.58
   3   2   4 1767.52  149.88
   2  -3   4 1511.35  128.39
   3   2   4 1399.46  121.69
  -3  -2   4 1474.65  123.89
  -3  -2   4 1504.95  116.29
   3   2   4 1689.73  126.89
  -2   3   4 1407.86  138.99
  -3  -2   4 1756.12  181.48
  -2   3   4 1613.94  151.08
  -2   3   4 1827.22  169.18
  -3  -2   4 1702.63  130.69
   2  -3   4 1429.16  110.19
   3   2   4 1597.34  171.38
   1  -3  -4 3715.93  284.07
  -3  -1  -4 3773.52  281.67
  -3  -1  -4 3537.85  267.47
   1  -3  -4 3806.42  287.97
  -1   3  -4 3877.81  287.97
  -3  -1  -4 3761.92  305.47
   3   1  -4 3698.23  263.07
  -3  -1  -4 3337.67  269.97
   3   1  -4 3606.14  277.47
   3   1  -4 3849.51  285.17
  -3  -1  -4 3980.60  301.57
  -1   3  -4 3797.12  290.17
  -3  -1   4 4124.59  320.97
  -1   3   4 3761.32  291.57
   1  -3   4 3688.73  251.47
   1  -3   4 3602.44  274.97
   3   1   4 3383.36  264.17
  -1   3   4 4364.06  348.97
   3   1   4 3658.03  265.87
  -1   3   4 3646.54  282.17
  -3  -1   4 3636.14  262.17
   3   1   4 3508.25  256.97
   3   1   4 3895.21  275.87
   3   1   4 4147.49  322.47
  -3  -1   4 3486.95  268.67
   0   3  -4 2285.47  197.88
   0  -3  -4 1959.00  181.68
   0   3  -4 2142.09  204.48
   3   0  -4 2265.27  177.38
  -3   0  -4 2307.87  197.48
  -3   0  -4 2284.57  202.48
  -3   0  -4 2349.26  179.98
  -3   0  -4 2640.54  186.98
   3   0  -4 2270.87  168.58
  -3   0   4 2270.87  206.98
   0   3   4 2593.64  188.58
   3   0   4 2102.49  165.98
   0  -3   4 2616.24  239.98
   3   0   4 2411.96  214.28
   0   3   4 2420.96  189.38
  -3   0   4 2263.77  176.48
   0  -3   4 2127.39  180.68
   3   0   4 2368.36  174.68
   3   0   4 2207.88  165.68
  -1  -3  -4 3115.69  269.87
  -3   1  -4 3771.92  286.67
   3  -1  -4 3755.92  273.67
   3  -1  -4 3716.73  262.97
  -3   1  -4 3889.11  268.37
   1   3  -4 3883.61  257.97
   1   3  -4 3731.43  250.27
   3  -1  -4 3124.19  317.27
  -3   1  -4 3745.63  296.67
   1   3  -4 3192.78  294.97
  -1  -3  -4 3497.35  287.47
  -1  -3  -4 3683.33  314.77
  -1  -3  -4 3715.03  307.07
   1   3  -4 3473.85  305.27
  -3   1  -4 3874.71  258.47
  -3   1   4 3749.12  273.87
   1   3   4 3561.34  298.67
  -1  -3   4 4030.90  311.37
  -1  -3   4 3274.57  256.47
   3  -1   4 3997.80  263.97
   3  -1   4 3652.03  261.57
   1   3   4 3061.49  267.47
  -1  -3   4 3624.74  250.27
   1   3   4 3326.47  277.67
  -3   1   4 4173.48  303.27
  -3   1   4 4067.79  267.37
   3  -1   4 3632.04  255.97
  -1  -3   4 3762.62  282.67
  -3   2  -4 1478.75  134.69
  -2  -3  -4 1374.76  125.19
  -2  -3  -4 1653.23  168.18
  -3   2  -4 1511.05  112.79
   2   3  -4 1553.64  111.29
   3  -2  -4 1528.95  133.19
  -3   2  -4 1535.95  148.79
   3  -2  -4 1510.95  123.09
  -2  -3  -4 1401.36  142.39
  -2  -3  -4 1636.54  153.58
   2   3  -4 1222.98  119.19
   2   3  -4 1572.54  169.88
   3  -2  -4 1313.67  173.58
   2   3  -4 1569.54  129.99
  -3   2   4 1706.63  154.58
  -2  -3   4 1510.75  118.39
   2   3   4 1643.94  138.79
  -2  -3   4 1602.74  127.49
  -3   2   4 1609.94  127.19
   2   3   4 1417.96  123.49
  -3   2   4 1574.44  136.09
  -2  -3   4 1514.35  179.48
   3  -2   4 1467.85  111.29
  -2  -3   4 1474.55  110.59
   3  -2   4 1647.14  118.59
   2   3   4 1556.04  167.88
   3  -2   4 1450.75  121.29
   2   3   4 1798.92  150.28
  -3   3  -4 3565.54  299.77
   3  -3  -4 3091.19  323.07
   3   3  -4 3495.45  317.57
   3   3  -4 3028.50  255.57
   3   3  -4 3644.94  265.67
  -3  -3  -4 3291.87  256.17
   3   3  -4 2811.82  307.67
  -3  -3  -4 3610.74  278.67
  -3   3  -4 3539.45  240.38
  -3  -3  -4 3684.23  285.17
   3  -3  -4 3463.25  257.97
   3   3  -4 3397.46  242.78
  -3   3   4 3076.49  258.47
   3  -3   4 3556.04  247.18
   3   3   4 3776.12  270.07
  -3  -3   4 3260.77  251.97
  -3  -3   4 3515.75  242.58
   3  -3   4 3377.06  254.97
   3   3   4 3054.99  251.97
   3   3   4 3648.03  313.97
  -3  -3   4 3414.26  254.27
   3   3   4 3714.23  270.97
   3  -3   4 3249.48  238.68
  -3   3   4 3776.22  293.97
   3  -4  -4 1077.99  109.19
  -4  -3  -4 1314.17  128.09
  -3   4  -4  872.01  168.18
   4   3  -4 1186.98  115.09
   4   3  -4 1120.49  133.49
   4   3  -4 1140.29   93.69
   4   3  -4 1019.50  108.89
  -3   4  -4 1217.28  122.69
  -4  -3  -4 1304.77  131.49
  -3   4  -4 1167.88  100.19
  -3   4  -4 1158.68   87.99
  -3   4  -4 1240.38  148.09
  -4  -3  -4 1543.45  156.18
  -3   4  -4 1010.50  117.59
  -3   4   4 1164.48  136.29
   4   3   4 1263.07  145.49
  -4  -3   4 1047.20  103.89
  -4  -3   4 1233.98  100.19
  -4  -3   4 1369.26  197.38
   3  -4   4 1131.29  105.79
  -4  -3   4 1121.79   92.99
   3  -4   4 1045.70   86.49
  -3   4   4 1061.09  120.39
  -3   4   4 1107.69  113.39
   4   3   4 1214.98  116.29
   4   3   4 1312.97  116.19
   4   3   4 1099.19  106.99
  -4  -2  -4 1390.96  133.69
  -4  -2  -4 1296.77  122.39
  -2   4  -4 1305.87  125.09
  -2   4  -4 1228.28  101.59
  -4  -2  -4 1232.48  136.99
  -2   4  -4 1211.28   87.49
   2  -4  -4 1094.99  113.99
   4   2  -4 1238.88   97.39
   4   2  -4 1139.59  110.99
  -2   4  -4 1353.96  165.58
  -4  -2  -4 1062.09  113.99
  -4  -2  -4 1101.99  102.69
   4   2  -4 1265.57  118.29
   2  -4  -4  915.91  132.49
   2  -4   4 1175.18   87.19
   4   2   4 1395.36  147.49
  -2   4   4 1207.38  133.49
   4   2   4 1054.29   98.89
   2  -4   4 1216.08  109.69
  -2   4   4 1214.98  125.39
  -4  -2   4 1236.78   96.59
  -4  -2   4 1399.46  165.28
  -2   4   4 1119.89  115.29
   4   2   4 1234.38  107.79
   4   2   4 1355.96  115.79
  -4  -2   4 1110.99  104.19
  -2   4   4 1249.77  148.89
  -4  -1  -4 1012.20  105.09
  -4  -1  -4 1167.98  119.09
  -1   4  -4 1103.79   77.69
  -1   4  -4 1112.09   76.19
  -4  -1  -4 1095.79  106.59
   4   1  -4 1076.59   98.79
   1  -4  -4 1129.29  112.79
  -4  -1  -4 1104.59   92.89
  -4  -1  -4 1051.99  121.49
   4   1  -4 1117.69   89.09
   1  -4  -4 1136.39  112.79
  -1   4  -4 1058.09  100.69
  -1   4  -4 1200.18  163.28
   4   1   4  943.91  116.19
   4   1   4 1013.10   80.39
  -1   4   4 1204.08  113.49
   1  -4   4 1047.90  100.19
  -1   4   4 1208.48  158.78
  -1   4   4 1026.10  116.79
  -4  -1   4 1098.59   88.39
   4   1   4 1244.08  134.79
   1  -4   4 1042.20   76.59
   4   1   4  920.91   93.79
   4   1   4 1070.49   97.19
  -1   4   4 1257.87  114.59
  -4  -1   4  973.80  152.98
   1  -4   4 1061.69   77.79
  -4   0  -4 1787.72  138.19
   4   0  -4 1980.30  208.88
   0  -4  -4 1674.13  150.28
  -4   0  -4 1779.22  158.38
  -4   0  -4 1726.33  144.59
   0  -4  -4 1537.35  173.48
   0  -4  -4 1935.91  163.88
   4   0  -4 1492.95  137.89
   4   0  -4 1626.54  129.49
   0   4  -4 1505.25  171.38
  -4   0  -4 1736.63  165.58
   0   4  -4 1664.73  144.89
   0   4  -4 1751.72  116.79
  -4   0  -4 1712.73  154.68
   0  -4   4 1570.14  117.99
   0  -4   4 1655.13  143.89
   0  -4   4 1781.02  196.48
  -4   0   4 1749.22  148.19
   0   4   4 1489.75  152.58
   0   4   4 1891.31  151.78
   0   4   4 2006.20  160.78
   4   0   4 1814.12  139.49
   4   0   4 1505.95  126.59
   4   0   4 1641.64  125.19
  -4   0   4 1669.13  176.48
   4   0   4 1488.95  138.29
   0  -4   4 1656.53  117.19
  -4   1  -4 1156.28  126.29
   1   4  -4 1085.49   99.99
  -4   1  -4 1204.68  113.99
  -4   1  -4 1110.79   88.49
   1   4  -4  826.22  126.89
  -1  -4  -4 1051.99  129.99
  -4   1  -4 1054.79   99.89
   1   4  -4 1047.10   84.89
  -1  -4  -4 1099.79  122.49
   4  -1  -4  933.41  147.39
   4  -1  -4 1098.69   91.69
   1   4  -4 1044.10  134.59
  -1  -4  -4  987.90  116.59
   4  -1  -4 1111.89  102.79
  -4   1  -4  928.41  115.29
  -1  -4  -4  905.11   99.89
   1   4  -4 1133.19   94.89
  -4   1   4 1196.28   96.69
   4  -1   4 1091.79   89.29
   1   4   4  907.41   98.59
   1   4   4  900.21  106.89
  -4   1   4 1159.98  115.49
  -1  -4   4 1105.59   85.19
  -1  -4   4 1202.48  133.49
   1   4   4 1206.48  126.39
  -4   1   4 1218.08  136.39
   4  -1   4 1032.00   85.79
  -1  -4   4 1142.69  109.59
   4  -1   4 1252.17   97.29
  -4   2  -4 1003.20  101.69
  -4   2  -4 1161.08   92.19
   2   4  -4  944.31  127.69
  -2  -4  -4 1276.67  139.69
  -4   2  -4 1308.97  115.99
  -4   2  -4 1236.18  128.99
   2   4  -4 1192.68  104.09
   4  -2  -4 1227.08  113.39
  -2  -4  -4 1186.68  124.99
  -2  -4  -4 1127.39  107.49
   2   4  -4  980.10   98.19
   2   4  -4 1212.78   88.09
  -4   2  -4  995.90  140.69
   2   4  -4 1172.78  150.08
  -2  -4  -4 1126.59  125.89
   4  -2  -4  974.60  158.38
   4  -2  -4 1189.88  100.29
   4  -2   4 1090.89   89.69
  -2  -4   4 1037.70   94.79
   2   4   4 1023.90  102.59
   4  -2   4 1266.67   99.49
  -4   2   4 1253.17  115.59
   4  -2   4 1289.07  100.99
  -2  -4   4 1172.88   87.49
   2   4   4 1323.47  148.59
  -4   2   4 1247.28  104.69
   2   4   4 1276.27  120.79
   2   4   4 1325.17  163.48
   4  -2   4  976.30  107.29
   4  -3  -4 1155.98  115.09
   4  -3  -4  974.10  160.48
   4  -3  -4 1134.59  102.89
  -3  -4  -4 1331.97  130.09
  -4   3  -4 1087.89  126.39
  -3  -4  -4 1219.88  109.39
  -4   3  -4  802.12  146.39
  -4   3  -4 1226.88   91.69
   3   4  -4 1137.29   90.39
   3   4  -4 1200.08  109.49
   3   4  -4 1263.87  163.78
  -4   3  -4 1215.28  109.79
  -3  -4  -4 1060.59  123.79
   4  -3   4 1215.08  100.09
  -4   3   4 1070.19  116.49
  -4   3   4 1119.49  106.79
  -3  -4   4 1181.28  170.38
   4  -3   4 1095.79  100.79
  -3  -4   4 1066.89  100.39
  -4   3   4 1243.88  141.79
   3   4   4  958.20  100.29
   3   4   4 1355.66  137.49
   3   4   4 1044.50  144.09
   4  -3   4 1064.49   88.89
  -3  -4   4 1131.29   90.09
   3   4   4 1222.08  119.69
  -4  -4  -4  676.73   90.09
   4  -4  -4  596.54   71.19
   4   4  -4  611.24   75.99
  -4   4  -4  623.74   55.19
   4  -4  -4  583.34   72.99
  -4   4  -4  643.04   67.89
  -4   4  -4  326.47  129.79
   4   4  -4  588.94   57.39
  -4   4  -4  574.34   71.69
  -4  -4  -4  578.74   92.89
  -4  -4  -4  571.54   86.69
   4   4   4  602.44   98.99
   4  -4   4  606.44   68.99
   4  -4   4  720.83   68.49
  -4   4   4  575.54   74.49
   4   4   4  650.13   83.59
   4   4   4  673.53   89.19
   4  -4   4  581.44   52.99
  -4  -4   4  615.64   58.49
  -5  -4  -4  827.02  106.49
   4  -5  -4  602.84   77.99
   4  -5  -4  656.63   83.69
  -4   5  -4  703.93   63.89
  -4   5  -4  901.71  119.09
  -5  -4  -4  781.72  103.69
  -4   5  -4  692.43   78.29
  -4   5  -4  752.72   70.69
   5   4  -4  788.92   71.79
   5   4  -4  983.10  164.98
   5   4  -4  607.94   88.69
  -4   5   4  934.81  113.49
   5   4   4  840.22   99.69
   5   4   4  811.82  108.69
   4  -5   4  691.83   81.79
  -5  -4   4  704.43   70.59
  -4   5   4  584.64   86.29
   5   4   4  767.52  108.59
   4  -5   4  775.82   77.39
  -5  -3  -4 1658.13  158.18
  -3   5  -4 1362.06  124.39
  -3   5  -4 1598.74  117.59
  -3   5  -4 1655.23  188.08
  -5  -3  -4 1639.14  175.78
  -5  -3  -4 1632.84  137.99
   5   3  -4 1277.67  140.19
   3  -5  -4 1411.06  143.79
  -3   5  -4 1642.04  121.29
  -5  -3  -4 1838.52  170.78
   5   3   4 1564.54  145.79
  -5  -3   4 1763.32  128.29
  -5  -3   4 1647.74  126.59
   3  -5   4 1578.94  141.49
  -3   5   4 1756.62  250.27
   3  -5   4 1448.26  115.99
   3  -5   4 1485.15  124.99
   5   3   4 1526.45  146.79
  -5  -2  -4  748.73   96.79
  -2   5  -4  794.92   61.89
   5   2  -4  776.42   86.39
  -2   5  -4  848.62   63.59
  -5  -2  -4  908.11  109.69
   5   2  -4  794.02   72.59
   2  -5  -4  732.73   92.79
  -5  -2  -4  939.61  107.39
   2  -5  -4  584.24  109.09
  -5  -2  -4  849.72   97.49
  -5  -2  -4  760.92   78.89
  -2   5   4  862.31   98.39
   2  -5   4  750.42   61.19
  -2   5   4  684.23  119.29
  -5  -2   4  797.52   73.29
   5   2   4  823.42   88.79
   2  -5   4  830.02   86.99
  -2   5   4  871.21  107.99
  -2   5   4  702.43   98.29
   5   2   4  746.53   58.99
  -5  -1  -4 1517.55  160.58
  -1   5  -4 1591.54  110.99
   1  -5  -4 1400.86  166.58
  -1   5  -4 1451.75  114.69
  -5  -1  -4 1457.55  125.99
   5   1  -4 1504.95  123.09
  -5  -1  -4 1698.83  146.99
   1  -5  -4 1601.34  150.68
  -1   5  -4 1565.84  110.09
   5   1  -4 1411.16  134.39
  -5  -1  -4 1235.18  143.39
  -5  -1  -4 1706.73  157.78
   1  -5  -4 1664.63  156.18
  -1   5  -4 1509.95  142.09
   5   1   4 1489.05  112.99
   5   1   4 1453.65  136.69
   5   1   4 1519.35  135.19
  -5  -1   4 1565.34  122.89
  -1   5   4 1883.91  160.38
  -1   5   4 1753.42  154.58
   1  -5   4 1465.35  111.09
   1  -5   4 1603.64  138.69
   0   5  -4 1157.58   83.89
  -5   0  -4 1125.49  112.39
   0   5  -4 1160.18   89.79
   0  -5  -4 1130.29  117.29
  -5   0  -4 1123.99  129.59
   0   5  -4 1174.78  150.48
   0  -5  -4 1260.27  133.09
   0   5  -4 1145.59   83.29
  -5   0  -4 1279.27  125.89
   5   0  -4 1420.26  184.08
   5   0  -4 1089.89  107.99
   0  -5  -4 1073.69  128.09
   0   5  -4  945.01  103.89
  -5   0  -4 1174.88   98.19
   5   0  -4 1113.19   96.19
  -5   0  -4 1050.39  125.19
   0  -5   4 1148.99   83.79
   0   5   4 1137.39  123.29
   5   0   4  903.31  115.19
   5   0   4 1216.08  106.59
   5   0   4 1058.89   97.99
   0   5   4 1282.47  121.09
  -5   0   4 1075.29  168.38
   0  -5   4 1198.08  178.18
   0  -5   4 1080.89   84.79
   0  -5   4 1108.69  110.69
  -5   1  -4 1683.43  172.08
  -1  -5  -4 1600.04  152.38
  -5   1  -4 1553.44  139.19
   1   5  -4 1597.14  111.89
   1   5  -4 1528.75  129.59
  -1  -5  -4 1232.28  135.09
   5  -1  -4 1479.85  123.69
   5  -1  -4 1431.36  152.78
   5  -1  -4 1675.83  140.19
   1   5  -4 1572.34  183.98
   5  -1  -4 1532.45  206.38
  -1  -5  -4 1258.77  151.48
  -1  -5  -4 1754.22  128.89
  -5   1  -4 1450.85  120.79
  -5   1  -4 1681.63  150.08
  -1  -5  -4 1492.05  166.58
  -1  -5   4 1363.26  164.28
   5  -1   4 1753.72  133.99
   5  -1   4 1472.55  119.59
   1   5   4 1382.36  137.59
  -1  -5   4 1404.96  140.49
  -5   1   4 1771.42  132.79
   5  -1   4 1341.87  117.59
   1   5   4 1444.06  148.99
   1   5   4 1791.12  166.18
  -1  -5   4 1254.17  114.19
  -5   2  -4  946.41   98.59
  -5   2  -4  934.61   82.69
   5  -2  -4  625.84  100.59
  -2  -5  -4  885.61  115.69
   2   5  -4  889.11   82.39
  -2  -5  -4  915.01   80.49
  -5   2  -4  636.04  126.49
   2   5  -4  817.72   71.59
  -5   2  -4  673.73   86.49
  -2  -5  -4  792.72  110.79
  -2  -5  -4  937.21  104.39
   2   5  -4  799.62   80.89
   5  -2  -4  568.44  135.69
   5  -2  -4  845.92   81.09
   2   5  -4  884.41  137.09
   2   5   4  951.10  139.09
  -5   2   4  899.71   86.99
   2   5   4  795.62  101.59
   5  -2   4  793.72   77.59
  -2  -5   4 1030.50   88.29
  -2  -5   4  830.22   69.19
   5  -2   4  901.01   85.89
  -2  -5   4 1096.59  121.09
  -3  -5  -4 1533.45  165.38
  -3  -5  -4 1802.82  163.48
   3   5  -4 1659.83  203.88
  -5   3  -4 1691.93  147.29
   5  -3  -4 1397.36  251.27
  -5   3  -4 1592.64  126.49
   3   5  -4 1590.24  141.49
   3   5  -4 1653.23  123.99
   5  -3   4 1870.81  140.89
   3   5   4 1472.35  183.98
   5  -3   4 1558.44  134.69
   3   5   4 1709.73  158.68
   5  -3   4 1263.17  142.99
  -5   3   4 1661.43  143.29
  -3  -5   4 1591.44  123.19
   4   5  -4  668.43   66.19
   4   5  -4  759.72  145.49
  -5   4  -4  792.92   82.89
  -5   4  -4  697.13   66.59
   4   5  -4  663.43   83.69
  -4  -5  -4  801.42  108.29
   5  -4  -4  726.33   80.49
   5  -4   4  680.33   77.59
   5  -4   4  801.72   80.39
  -5   4   4  647.14   83.99
   4   5   4  722.23   94.79
   4   5   4  890.01  116.89
  -4  -5   4  733.13   67.79
   4   5   4  672.53  113.19
   5   5  -4 1218.08  105.89
   5   5  -4 1622.14  222.18
  -5   5  -4 1326.57  128.09
  -5  -5  -4 1339.17  145.49
  -5   5  -4 1221.68  103.09
   5  -5  -4 1125.69  120.69
  -5   5  -4 1376.36  115.19
  -5  -5  -4 1316.07  147.59
  -5  -5   4 1281.47  107.89
   5   5   4 1241.08  150.18
   5  -5   4 1074.39  116.99
   5   5   4 1191.68  144.29
   5   5   4 1243.68  135.89
  -5   5   4 1058.99  125.89
  -5   6  -4  465.05   55.19
  -5   6  -4  452.15   66.99
   5  -6  -4  528.85   80.29
   6   5  -4  783.72  170.98
  -6  -5  -4  621.24   98.09
   5  -6   4  556.94   89.99
  -5   6   4  554.74   94.89
   5  -6   4  564.04   70.19
  -6  -5   4  580.84   66.39
   6   5   4  547.95   90.59
  -5   6   4  640.34   99.99
   6   5   4  537.45   99.19
  -6  -4  -4  689.03  101.29
  -4   6  -4  610.74   56.09
   4  -6  -4  482.25   96.69
  -6  -4  -4  564.54   95.59
   4  -6  -4  393.16   75.29
   6   4  -4  430.56   83.19
   6   4  -4  659.13   65.19
   4  -6  -4  490.15   67.49
  -4   6  -4  561.44   63.69
  -6  -4   4  640.94   66.89
   4  -6   4  554.64   64.69
   4  -6   4  570.24   76.59
   6   4   4  628.14   91.29
  -4   6   4  563.34   87.69
   6   4   4  664.83   90.49
  -4   6   4  616.84  143.59
  -6  -3  -4  921.31  114.89
  -3   6  -4  818.42   66.69
  -6  -3  -4  877.31  109.79
   6   3  -4  782.92   76.59
   3  -6  -4  871.21  102.89
   3  -6  -4  599.94  114.69
  -3   6  -4  619.84   69.19
  -6  -3  -4  685.83  108.19
   6   3  -4  631.64   93.89
  -3   6   4  922.41  109.09
   3  -6   4  828.92   92.79
  -6  -3   4  904.11   80.19
   3  -6   4  733.33   72.29
   6   3   4  844.62   99.29
   6   3   4  942.21  104.59
   6   2  -4  990.00   86.89
  -6  -2  -4  857.81  108.69
  -6  -2  -4  831.62  115.59
   2  -6  -4  822.32  123.39
  -2   6  -4 1011.40  107.79
   6   2  -4  815.92   99.79
  -6  -2  -4  873.41   97.89
  -6  -2  -4  993.70  117.39
   2  -6   4  838.82   71.69
   6   2   4  822.92  100.49
  -6  -2   4  989.00   87.19
   6   2   4 1036.50  105.59
  -2   6   4 1129.69  121.29
   2  -6   4  941.11  100.89
  -6  -1  -4  975.10  110.59
  -1   6  -4  963.50   75.09
   1  -6  -4  964.50  117.89
  -1   6  -4  952.10  102.19
  -6  -1  -4 1133.49  123.09
  -1   6  -4  838.22  139.79
  -6  -1  -4  856.51   90.69
  -6  -1  -4  914.11  120.89
   6   1  -4  857.41   85.79
   1  -6  -4 1236.48  130.29
  -1   6  -4  978.00   75.59
   6   1   4  933.41  106.09
  -1   6   4 1038.30  120.39
   1  -6   4  885.31  100.99
  -6  -1   4  972.10   88.29
   6   1   4  929.11  100.29
  -6   0  -4  813.52  101.89
   6   0  -4  748.43   75.89
   6   0  -4  701.23   88.89
   0  -6  -4  759.32   97.69
   6   0  -4  876.31  152.48
  -6   0  -4  816.92   79.39
  -6   0  -4  876.91  116.99
   0   6  -4  834.32   64.39
  -6   0  -4  816.92   97.99
   0  -6  -4  892.31  116.39
   0  -6  -4  847.62   86.79
   0   6  -4  644.84  125.29
   0   6  -4  783.22   86.69
   0   6   4  773.92  104.59
   6   0   4  855.21   89.59
   0  -6   4  692.13   88.89
   6   0   4  716.63   94.59
   0  -6   4  812.32   69.49
  -1  -6  -4  984.00  110.69
  -6   1  -4  916.01  107.19
   1   6  -4  912.01   81.49
  -1  -6  -4 1015.00  110.19
  -6   1  -4 1149.78  131.69
   1   6  -4 1060.69   91.79
   6  -1  -4  885.31  168.78
  -6   1  -4  925.11  137.19
   1   6  -4  890.11   75.89
  -1  -6  -4  776.12  120.29
   1   6  -4  872.21   79.69
   1   6  -4  885.31  141.19
  -6   1  -4  955.90   88.39
   6  -1  -4  966.80   90.49
  -1  -6   4  958.70   77.09
  -1  -6   4 1044.00  138.59
  -1  -6   4  898.71  106.99
   1   6   4 1118.09  130.09
   6  -1   4 1125.29  104.09
  -6   1   4 1028.40   97.09
   1   6   4  917.21  117.89
   2   6  -4  880.11   85.59
  -6   2  -4  713.53   99.59
  -2  -6  -4 1098.69   98.09
  -2  -6  -4 1057.89  110.79
   2   6  -4  884.01  144.59
   6  -2  -4  985.80   91.09
   6  -2  -4  853.21  171.08
  -2  -6  -4  869.91  122.69
  -2  -6  -4  948.61  121.69
  -6   2  -4  939.81  152.18
   2   6  -4  914.11   76.39
  -6   2  -4  866.01   83.89
   2   6  -4  844.02   86.39
   2   6   4  949.11  132.89
  -2  -6   4  946.51   77.09
   2   6   4 1074.09  171.48
   2   6   4  936.51  115.29
  -2  -6   4  920.81  122.39
   6  -2   4  967.20   98.49
   6  -3  -4  764.42  157.18
   3   6  -4  886.21   76.49
  -3  -6  -4  951.60  109.59
  -3  -6  -4 1097.69  133.79
   3   6  -4  867.51  153.98
   3   6  -4  816.92   88.99
  -6   3  -4  894.41  100.89
  -3  -6  -4  745.43  115.89
  -6   3  -4  865.41   79.89
   6  -3  -4  801.32   86.49
   3   6  -4  806.52   89.39
   3   6   4  828.72  108.09
  -6   3   4  808.82   92.49
   3   6   4  594.94  122.39
   3   6   4 1018.20  152.98
  -3  -6   4  807.52   74.29
   6  -3   4  806.82   84.79
   6  -3   4  878.61   93.79
  -6   4  -4  588.74   61.69
  -4  -6  -4  521.95   99.09
  -4  -6  -4  705.23   93.59
   4   6  -4  496.85   86.39
   6  -4  -4  642.34   75.39
   4   6  -4  618.64  162.38
  -6   4  -4  663.43   79.29
   4   6   4  703.83   97.89
  -4  -6   4  615.64   61.79
  -6   4   4  538.25   77.29
   4   6   4  815.62  127.29
   6  -4   4  538.85   70.39
   6  -4   4  433.16   74.99
  -6   5  -4  503.75   58.59
   6  -5  -4  530.95   74.69
   5   6  -4  430.46   86.09
   5   6  -4  514.15   58.59
  -5  -6  -4  624.74   94.49
  -5  -6  -4  564.84  110.99
  -6   5  -4  532.05   85.19
   5   6  -4  614.54  166.98
  -5  -6   4  548.05   62.09
   5   6   4  577.24   93.79
   6  -5   4  428.16   72.99
   5   6   4  492.85   88.39
   5   6   4  542.25  115.39
   6  -6  -4  506.25   88.39
   6   6  -4  901.71  216.58
   6   6  -4  623.54   68.79
  -6  -6  -4  600.54  111.19
  -6  -6  -4  600.04  102.49
  -6   6   4  520.15   91.99
   6  -6   4  532.85   79.69
   6   6   4  683.93  120.89
   6   6   4  500.35   95.79
   7   4  -4  520.15  188.78
   4  -7  -4  381.26   96.19
  -4   7  -4  461.95   55.29
   4  -7  -4  488.35   84.39
  -4   7  -4  441.36   54.49
  -7  -4   4  423.16   58.19
   7   4   4  482.45   84.29
   4  -7   4  417.06   95.59
   4  -7   4  412.36   58.09
   7   4   4  677.03  149.29
   3  -7  -4  929.21  131.99
  -3   7  -4  994.10   85.29
  -7  -3  -4 1259.67  160.08
   3  -7  -4  872.21   95.99
   3  -7  -4 1271.97  136.99
   7   3   4 1075.99  124.49
   3  -7   4  973.40   89.89
   7   3   4 1198.68  126.59
  -7  -3   4 1077.69  100.09
  -7  -3   4 1163.98  115.99
  -7  -2  -4  511.35  101.69
   2  -7  -4  489.25   84.69
   2  -7  -4  738.13  102.69
   7   2  -4  569.24   65.89
  -7  -2  -4  736.73  104.39
  -7  -2  -4  546.45   90.79
   2  -7   4  592.04   81.29
   7   2   4  499.55   86.79
   7   2   4  745.23   89.29
   2  -7   4  466.75   58.19
  -7  -2   4  595.94   69.09
  -2   7   4  808.82  113.09
  -7  -1  -4 1499.35  156.48
   1  -7  -4 1305.17  134.09
  -1   7  -4  994.10  172.98
   1  -7  -4 1628.04  167.48
  -1   7  -4 1289.07  135.79
   7   1  -4 1328.37  118.69
  -7  -1  -4 1179.48  142.39
  -7  -1  -4 1074.29  158.78
  -1   7  -4 1346.37  103.59
   7   1  -4 1743.13  230.88
   7   1   4 1289.47  131.59
   1  -7   4 1348.57  136.59
   7   1   4 1222.98  140.29
  -1   7   4 1554.24  163.28
  -7  -1   4 1438.46  121.49
   0   7  -4  620.04  134.19
  -7   0  -4  570.14   90.19
   7   0  -4  971.20  185.48
   7   0  -4  690.93   73.89
   0  -7  -4  642.84   84.69
  -7   0  -4  568.84   72.39
  -7   0  -4  690.13   99.19
   0   7  -4  845.12   83.39
   0  -7  -4  731.13   90.79
  -7   0  -4  743.33  123.79
   0  -7  -4  745.33  115.89
   0   7  -4  680.83   59.39
   7   0   4  555.64   94.59
   0  -7   4  655.03   89.09
   0   7   4  623.94  102.39
   7   0   4  729.93   91.69
   0  -7   4  679.93   70.09
  -1  -7  -4 1436.26  140.99
   1   7  -4 1302.97  107.19
   1   7  -4 1563.74  117.39
   7  -1  -4 1299.27  119.09
  -1  -7  -4 1167.58  156.48
  -7   1  -4 1085.29  135.19
  -7   1  -4 1203.58  116.39
  -7   1  -4 1383.36  146.79
   1   7  -4 1250.37  191.58
   1   7  -4 1315.07  104.39
   7  -1  -4 1422.46  227.78
  -1  -7  -4 1404.36  134.89
  -7   1  -4 1566.14  204.88
   1   7   4 1502.15  163.68
   7  -1   4 1415.96  134.29
  -1  -7   4 1132.79  167.88
   1   7   4 1225.18  150.48
   1   7   4 1276.27  214.08
  -1  -7   4 1152.48  135.89
  -7   1   4 1303.07  125.39
  -1  -7   4 1376.76  105.19
  -7   2  -4  657.03   68.19
   2   7  -4  510.05   66.79
   7  -2  -4  572.44   69.49
  -7   2  -4  702.43   92.79
   2   7  -4  683.63  140.69
  -2  -7  -4  601.24  110.19
   7  -2  -4  380.86  150.68
  -7   2  -4  468.75   85.29
  -2  -7  -4  625.54   83.69
   2   7  -4  543.95   63.49
   2   7  -4  599.94   56.49
   2   7   4  623.74  174.18
   7  -2   4  578.14   78.99
   2   7   4  756.62  124.69
  -2  -7   4  586.34   57.89
   2   7   4  542.25   96.59
  -2  -7   4  600.04  101.79
  -7   2   4  612.24   77.59
  -7   3  -4 1191.78  126.89
   3   7  -4  931.01  101.59
  -3  -7  -4  991.70  141.79
   7  -3  -4  967.10  104.49
   3   7  -4 1003.20   90.89
  -7   3  -4 1082.09  101.69
   3   7  -4  944.41  106.39
   3   7   4 1382.16  195.98
   7  -3   4 1033.70  104.89
   3   7   4 1095.29  153.28
  -7   3   4 1217.68  118.59
  -3  -7   4 1298.17  148.99
   7  -3   4 1191.98  119.69
   3   7   4 1121.29  138.49
  -3  -7   4 1100.59   94.19
  -7   4  -4  536.15   79.99
  -7   4  -4  442.16   65.69
   4   7  -4  534.95   58.09
  -4  -7  -4  424.86  106.29
  -4  -7  -4  507.85   86.09
  -4  -7   4  587.04   86.59
   7  -4   4  439.56   83.09
   4   7   4  634.24  135.19
  -4  -7   4  770.62  145.19
   7  -4   4  479.55   73.39
   4   7   4  748.83  107.99
  -7   4   4  559.64   81.79
  -8  -3  -4  326.47   88.09
   3  -8  -4  434.26  101.89
   3  -8  -4  259.17   67.49
  -8  -3  -4  441.56   93.99
   8   3  -4  440.36   58.79
  -8  -3   4  326.27   56.39
   2  -8  -4  261.77   64.29
   2  -8  -4  331.37   88.89
  -8  -2  -4  441.56   98.99
   8   2  -4  478.55  173.68
   2  -8  -4  286.07   68.99
   8   2  -4  364.26   52.69
  -8  -2   4  427.96   60.49
   8   2   4  223.98   71.79
  -2   8   4  210.48   76.79
   8   2   4  336.47   73.19
   1  -8  -4  414.46  104.29
   8   1  -4  450.35  157.88
   1  -8  -4  550.44   82.49
  -1   8  -4  358.26   41.40
  -1   8  -4  444.06   58.99
  -8  -1  -4  284.17   88.79
   1  -8  -4  303.77   58.49
   8   1   4  227.68   85.99
  -8  -1   4  496.75   63.59
   1  -8   4  414.76   49.80
   8   1   4  469.35   78.19
   0  -8  -4  448.06   85.19
   0  -8  -4  384.76   64.09
   0   8  -4  424.36   44.30
   0   8  -4  320.07   49.20
   0   8  -4  452.65  155.78
   0  -8  -4  368.36  101.99
  -8   0  -4  516.55   89.19
   0   8   4  579.44  101.19
   8   0   4  430.96   75.89
   0  -8   4  392.76   47.60
   0  -8   4  379.66   81.39
   1   8  -4  391.26   45.00
   8  -1  -4  218.08  144.19
  -1  -8  -4  454.45   91.69
  -1  -8  -4  414.46   65.89
  -1  -8  -4  543.25  123.49
   1   8  -4  327.77   52.29
  -1  -8   4  402.26   48.40
  -1  -8   4  342.47   80.69
  -8   1   4  532.35   74.09
   1   8   4  551.64   94.39
   1   8   4  339.37  152.28
   8  -1   4  378.86   84.79
  -8   2  -4  256.57   74.49
   2   8  -4  387.26  135.59
  -2  -8  -4  516.85   82.59
  -8   2  -4  428.06   78.89
   8  -2  -4  223.48  139.99
  -2  -8  -4  346.17   63.69
  -2  -8  -4  343.27   98.79
   8  -2  -4  241.58   60.99
  -8   2   4  421.66   68.39
  -2  -8   4  553.84  108.39
   2   8   4  273.67   82.89
  -2  -8   4  354.16   50.59
   2   8   4  524.85  173.58
   8  -2   4  422.96   74.79
   8  -3  -4  381.56   62.99
  -8   3  -4  444.56   80.29
  -3  -8  -4  314.47  112.59
  -3  -8  -4  288.37   69.89
  -3  -8   4  456.15   95.59
   8  -3   4  414.96   82.39
   0   0  -5 5266.27  374.26
   0   0  -5 5526.25  385.36
   0   0  -5 5047.59  389.16
   0   0  -5 5499.75  375.36
   0   0  -5 5947.10  472.25
   0   0   5 5070.89  379.76
   0   0   5 4847.21  406.66
   0   0   5 5208.38  455.35
   0   0   5 4942.71  369.56
   0   0   5 5594.24  371.46
   0  -1  -5  138.89   39.20
   0  -1  -5  184.38   34.90
   0  -1  -5  210.58   74.09
   0  -1  -5  217.88   34.10
   1   0  -5  353.46   81.79
  -1   0  -5  101.49   50.89
  -1   0  -5  205.38   69.09
   0   1  -5  235.68   89.79
  -1   0  -5  205.48   24.40
  -1   0  -5  136.39   29.80
   0   1  -5  170.68   57.19
   0   1  -5  184.28   22.10
   1   0  -5  225.98   45.40
   1   0  -5  331.47  100.19
   0   1  -5  191.88   49.90
   0   1  -5  172.08   35.90
   0  -1  -5  136.39   58.29
  -1   0  -5  212.98   56.29
  -1   0  -5  146.29   40.20
   0  -1   5  159.28   19.60
   1   0   5  182.88   60.09
  -1   0   5  154.88   32.50
  -1   0   5  167.28   44.50
   0   1   5  199.18   29.60
   0   1   5  153.38   47.70
  -1   0   5  127.19   21.10
   1   0   5  158.28   25.40
   0   1   5  149.69   24.20
   1   0   5  123.19   20.20
  -1   0   5  181.18   62.19
   0  -1   5  181.48   20.10
  -1   0   5  163.78   27.40
   0  -1   5  224.58   76.09
   0   1   5  173.68   27.60
   0   1   5  217.48   82.29
   1  -1  -5 4325.37  332.57
  -1  -1  -5 4143.69  330.47
  -1   1  -5 4204.08  323.27
   1   1  -5 5549.94  362.66
  -1  -1  -5 5218.38  348.57
  -1   1  -5 4806.22  365.76
  -1   1  -5 4704.53  337.27
  -1  -1  -5 4643.14  399.46
   1  -1  -5 4630.04  365.96
   1   1  -5 4743.43  322.97
  -1   1  -5 4396.56  352.96
  -1   1  -5 4316.17  402.36
  -1   1   5 5180.88  344.27
   1  -1   5 5253.27  390.26
  -1   1   5 4243.38  330.87
  -1   1   5 4081.59  384.86
  -1  -1   5 4628.44  328.27
   1   1   5 4167.28  327.77
   1   1   5 5253.47  338.97
  -1  -1   5 4518.05  384.26
   1  -1   5 4764.12  336.27
   1   1   5 5374.96  388.96
   1  -1   5 4235.18  321.67
  -1  -1   5 4844.42  324.97
  -1   2  -5   43.20   20.40
   1  -2  -5  -13.60   13.30
  -1   2  -5    2.60   15.10
  -2  -1  -5    7.60   24.20
   2   1  -5    0.00   26.80
  -1   2  -5   -1.10   21.20
  -2  -1  -5    6.70   17.30
   2   1  -5   13.80   25.50
   1  -2  -5   35.50   17.80
  -2  -1  -5    4.50   19.20
  -1   2  -5   92.39   48.10
   2   1  -5    7.20   10.90
   1  -2  -5  -10.50   31.70
  -2  -1  -5    2.40    7.90
   1  -2  -5    5.90   21.60
   2   1  -5    7.30    6.60
  -2  -1  -5   -4.20   15.00
  -1   2   5    2.00    9.70
   1  -2   5   -8.40   24.00
   1  -2   5    3.20   11.60
  -1   2   5   -7.00   12.20
  -2  -1   5   -6.40    9.40
  -2  -1   5    2.60    6.70
  -2  -1   5  -18.00   19.70
   2   1   5  -11.00   12.70
  -2  -1   5    2.40   21.40
  -1   2   5  -18.00   20.30
   2   1   5   -9.10   12.00
   2   1   5   -3.70   20.90
  -2  -1   5   -4.20    9.20
   2   1   5   -3.60    7.20
  -1   2   5   16.30   16.80
  -1   2   5   -7.10   20.90
   0   2  -5 3783.22  295.47
   0   2  -5 3945.51  300.57
   2   0  -5 3848.11  265.57
  -2   0  -5 3211.18  322.27
  -2   0  -5 3539.05  318.67
  -2   0  -5 3367.86  273.67
  -2   0  -5 3434.56  302.77
  -2   0  -5 3556.14  264.47
  -2   0  -5 4027.40  275.97
   2   0  -5 3433.06  273.47
   2   0   5 3652.03  267.47
   2   0   5 3686.73  326.27
   0   2   5 3977.40  273.77
   2   0   5 3365.56  261.57
   0  -2   5 4059.79  315.07
   2   0   5 3866.11  270.37
   0  -2   5 3698.43  280.87
  -2   0   5 3896.21  273.67
  -2   0   5 3926.51  297.17
  -2   0   5 3756.02  266.17
   0  -2   5 4308.97  356.86
   0   2   5 4011.10  304.27
   1   2  -5    9.00   20.70
   1   2  -5  -12.80   23.70
  -2   1  -5   -6.80   15.70
  -1  -2  -5   36.50   28.00
  -1  -2  -5    4.00   33.00
  -2   1  -5    3.70    5.80
  -2   1  -5    2.30   10.00
  -1  -2  -5    0.20   17.80
   2  -1  -5    7.70   29.90
   1   2  -5    2.30    6.80
   2  -1  -5   31.60   46.60
  -2   1  -5   33.50   22.70
   2  -1  -5    2.20    9.80
  -2   1  -5    7.70   17.40
   1   2  -5   10.10    5.10
  -1  -2  -5   18.20   31.90
  -2   1  -5   -1.30   19.00
   1   2  -5    0.50   19.90
  -2   1   5   -9.40   14.90
  -2   1   5   19.90   20.40
   1   2   5   -5.90   13.30
   2  -1   5  -20.30   26.30
   2  -1   5    7.90    6.60
   2  -1   5    0.40    8.40
   1   2   5  -11.40   13.10
   1   2   5   -0.30   16.20
  -1  -2   5  -21.00   16.70
  -1  -2   5    3.10   18.20
   1   2   5    6.30    7.30
   1   2   5    8.70   10.80
  -1  -2   5    4.90    4.50
   2  -1   5   -4.10    8.00
  -2   1   5   -3.10   14.80
   2  -1   5    1.30   12.30
  -2   1   5    6.20   10.60
  -1  -2   5   -4.50   23.30
  -2   1   5   -6.90   18.90
  -2   2  -5 2388.06  255.77
  -2  -2  -5 2659.33  255.17
  -2  -2  -5 2306.87  216.08
   2  -2  -5 2481.65  200.88
  -2  -2  -5 2534.55  246.38
   2   2  -5 2219.78  193.88
   2  -2  -5 3168.28  224.28
   2   2  -5 2996.40  248.48
   2  -2  -5 2169.18  244.28
  -2   2  -5 2709.13  184.08
   2   2  -5 2938.11  232.78
  -2   2  -5 2575.14  227.38
  -2   2  -5 2423.66  231.58
   2   2  -5 2765.42  186.98
   2   2   5 2488.05  184.98
  -2  -2   5 3001.50  250.67
   2  -2   5 2506.55  183.18
  -2  -2   5 2913.31  223.48
  -2  -2   5 2521.15  192.38
  -2   2   5 2881.51  250.77
   2   2   5 2331.37  195.18
   2   2   5 2672.83  209.48
   2  -2   5 2802.12  187.28
   2  -2   5 2624.34  200.68
  -2   2   5 2786.72  213.68
   2   2   5 2857.31  185.58
   2   2   5 2782.72  258.27
  -2   2   5 2978.20  223.58
  -3  -2  -5   18.80   30.20
   3   2  -5   56.39   43.00
  -3  -2  -5   36.00   32.10
   2  -3  -5   26.00   19.70
   3   2  -5   37.40   19.50
   2  -3  -5  133.79   62.29
  -3  -2  -5   68.39   37.50
   3   2  -5   62.79   28.40
  -3  -2  -5   55.39   18.40
  -2   3  -5   66.59   28.40
   2  -3  -5   43.10   29.40
  -2   3  -5   73.99   39.80
   3   2  -5   28.70   21.70
   3   2  -5   45.20   13.20
  -2   3   5   -1.30   26.40
   3   2   5   45.00   24.50
   3   2   5   37.10   23.10
  -2   3   5   53.69   30.80
   3   2   5   -3.20   30.80
  -2   3   5  167.08   54.59
  -3  -2   5   36.30   21.00
  -2   3   5   21.60   22.90
  -3  -2   5   63.89   45.00
  -3  -2   5   48.70   13.80
   3   2   5   28.60   14.90
   3   2   5   40.50   12.60
  -2   3   5   35.40   18.90
   2  -3   5   34.10    7.40
   2  -3   5   37.00    9.30
   2  -3   5   42.80   20.60
  -3  -2   5   14.60   15.80
  -3  -2   5   32.30   38.60
  -1   3  -5 5314.17  380.76
  -3  -1  -5 5044.30  393.86
   3   1  -5 4140.79  348.97
  -3  -1  -5 4696.53  345.87
  -3  -1  -5 4446.06  386.46
  -1   3  -5 4776.22  379.86
  -1   3  -5 4680.33  372.96
  -3  -1  -5 4491.55  361.96
   3   1  -5 4849.51  340.07
   1  -3  -5 5184.48  364.16
   1  -3  -5 5663.23  372.06
   3   1   5 5115.79  356.06
   3   1   5 5320.07  419.46
  -3  -1   5 4650.03  348.17
  -1   3   5 4895.01  366.66
  -3  -1   5 5276.97  396.96
  -1   3   5 5262.07  362.36
   3   1   5 4227.78  340.87
   1  -3   5 4623.84  354.36
   3   0  -5  157.98   63.49
   0   3  -5   88.29   45.40
   3   0  -5   66.59   17.30
   0   3  -5   52.99   35.80
   0   3  -5   57.59   51.29
   0   3  -5   48.70   29.00
   0  -3  -5  109.59   54.49
   0  -3  -5   33.50   26.40
   0   3  -5   59.29   32.70
  -3   0  -5   43.20   20.70
  -3   0  -5   89.49   19.70
  -3   0  -5   48.80   31.90
   0  -3  -5   37.90   46.20
   0  -3  -5  131.69   34.30
  -3   0  -5   66.99   40.80
  -3   0  -5   72.49   17.70
  -3   0  -5   58.39   31.70
   3   0  -5   33.30   18.60
   3   0  -5   94.89   48.90
  -3   0   5   43.60   35.00
   0   3   5   86.29   26.20
   0  -3   5   42.40   22.00
   0  -3   5   68.29   49.40
   0   3   5   81.19   38.60
   3   0   5   32.30   20.00
   3   0   5   52.89   14.70
  -3   0   5   55.69   23.40
   3   0   5   64.39   21.10
   0   3   5   93.79   33.70
   3   0   5   60.29   49.00
  -3   0   5   96.99   48.80
  -3   0   5   74.39   19.70
   3   0   5   56.59   14.60
   1   3  -5 4934.91  326.47
  -1  -3  -5 4251.67  402.26
   3  -1  -5 5273.37  420.96
  -3   1  -5 5089.39  366.36
  -3   1  -5 5411.16  413.66
  -1  -3  -5 4306.17  402.06
  -3   1  -5 4891.51  381.36
  -3   1  -5 4918.51  337.07
   1   3  -5 4607.44  386.26
   3  -1  -5 4614.14  355.56
  -3   1  -5 4191.28  345.57
   3  -1  -5 4712.83  342.77
  -1  -3  -5 5546.15  377.76
   1   3  -5 5432.16  327.77
  -3   1   5 5243.98  381.36
  -1  -3   5 5503.15  376.56
  -3   1   5 4904.91  357.16
   1   3   5 5134.69  363.16
   1   3   5 4514.05  349.17
   1   3   5 3970.90  346.87
  -1  -3   5 4027.80  390.16
  -3   1   5 4770.52  345.07
   1   3   5 5076.89  391.36
   3  -1   5 4358.36  333.77
   3  -1   5 5015.50  343.07
   3  -2  -5   49.90   19.20
  -3   2  -5   36.50   10.60
  -3   2  -5   18.40   34.20
   2   3  -5   50.89   10.30
   3  -2  -5   18.50   24.80
  -3   2  -5   75.89   30.50
  -2  -3  -5   65.09   34.90
   3  -2  -5   51.59   52.29
  -3   2  -5   18.30   13.70
  -3   2  -5    4.60   21.90
  -2  -3  -5   22.80   30.40
   2   3  -5  120.39   66.19
  -3   2  -5   32.40   24.00
   2   3  -5   23.00   35.00
   2   3  -5  -13.00   27.70
   2   3  -5   12.50   17.90
  -2  -3  -5  104.79   60.89
  -2  -3  -5   43.90   35.10
  -2  -3   5   25.50   13.80
  -3   2   5   32.70   30.50
  -2  -3   5   68.09   41.90
  -2  -3   5   11.20   23.40
  -3   2   5   43.70   19.10
   2   3   5   26.20   24.00
  -3   2   5   31.40   23.70
   2   3   5   61.59   27.20
  -3   2   5   54.49   38.40
   2   3   5   35.80   28.60
   2   3   5   40.60   43.80
   3  -2   5    7.40   15.20
   2   3   5   24.40   14.10
   3  -2   5   27.60    9.90
   3  -2   5   28.30   14.80
   3  -2   5   22.70   13.00
   3   3  -5 4447.16  308.07
  -3  -3  -5 4039.70  347.77
  -3   3  -5 4242.58  353.16
  -3   3  -5 4634.84  321.37
   3   3  -5 5090.69  396.26
   3   3  -5 4531.75  340.27
  -3   3  -5 4717.53  341.97
  -3  -3  -5 4330.47  324.87
  -3  -3  -5 4786.82  370.16
   3  -3  -5 3864.91  396.86
   3  -3  -5 4527.55  327.57
  -3   3  -5 4306.07  306.67
   3   3  -5 4287.07  360.86
   3   3   5 4600.34  395.86
  -3  -3   5 4452.95  307.87
  -3  -3   5 4911.61  400.56
   3   3   5 3773.52  317.47
   3   3   5 5009.60  342.57
  -3   3   5 3998.90  326.17
   3   3   5 4344.27  321.67
   3  -3   5 4408.36  324.57
  -3   3   5 3968.80  338.67
  -3  -3   5 4051.09  332.57
   3  -3   5 4531.35  304.37
  -3   4  -5   38.30   12.60
  -4  -3  -5   76.89   42.10
  -3   4  -5   70.79   38.10
  -4  -3  -5   37.90   37.60
  -3   4  -5   26.20    8.60
  -3   4  -5   32.40   57.39
  -3   4  -5   21.30   20.60
   4   3  -5  -11.00   37.70
   3  -4  -5   17.40   17.50
   4   3  -5  -24.40   18.50
   4   3  -5   34.50   14.10
  -4  -3  -5   29.40   29.80
   4   3  -5    5.80   20.30
   4   3   5   19.70   19.20
   3  -4   5   58.59   26.10
   3  -4   5   16.00    7.90
  -3   4   5    7.70   29.70
   4   3   5    6.30   45.60
  -3   4   5   25.30   36.60
  -4  -3   5   37.90   23.10
   3  -4   5   12.10   11.90
  -3   4   5   20.60   19.80
  -3   4   5   49.10   47.20
   4   3   5   29.20   30.20
  -4  -3   5   13.70   13.10
  -4  -3   5   26.20   34.90
  -4  -2  -5 1378.46  165.88
   4   2  -5 1609.94  122.69
   2  -4  -5 1819.02  158.88
   4   2  -5 1625.14  150.38
  -4  -2  -5 1466.55  151.48
   2  -4  -5 1275.47  167.78
  -4  -2  -5 1754.22  171.08
  -2   4  -5 1581.84  142.09
   2  -4  -5 1422.36  140.89
  -4  -2  -5 1638.84  133.19
   4   2  -5 1290.27  134.99
  -4  -2   5 1811.62  195.38
   4   2   5 1743.13  145.89
   4   2   5 1717.73  128.59
  -2   4   5 1929.21  200.68
  -2   4   5 1810.32  168.38
  -4  -2   5 1553.14  121.69
   4   2   5 1812.72  194.58
   2  -4   5 1457.05  110.79
   2  -4   5 1587.14  138.19
  -2   4   5 1583.94  158.18
   2  -4   5 1550.24  109.79
  -2   4   5 1539.95  143.59
  -4  -2   5 1529.15  133.89
  -4  -1  -5   88.49   42.50
  -4  -1  -5   78.09   38.80
   1  -4  -5   15.10   33.00
  -4  -1  -5   78.59   25.80
   1  -4  -5  210.68   81.29
  -4  -1  -5   63.69   21.00
  -4  -1  -5   64.29   30.90
   4   1  -5  109.79   63.89
   1  -4  -5   75.29   30.70
  -1   4  -5   40.00   35.30
   1  -4  -5  117.99   37.10
  -1   4  -5   92.69   33.50
   4   1  -5   87.99   32.10
   4   1  -5   45.60   23.20
   4   1  -5   82.39   19.60
  -1   4  -5   52.49   35.60
  -1   4  -5  170.68   73.79
  -1   4  -5   53.69   32.80
   4   1   5   47.20   18.60
   4   1   5   72.69   21.00
   4   1   5   65.79   46.60
   4   1   5  108.69   57.49
  -1   4   5   83.79   36.60
  -1   4   5  108.49   35.40
  -1   4   5   76.19   31.10
   1  -4   5   60.09   26.40
  -4  -1   5   60.39   23.20
  -4  -1   5  211.08   68.39
   4   1   5   77.19   31.10
  -4  -1   5  105.79   56.09
  -1   4   5   59.29   55.09
   4   1   5   78.09   14.80
  -4   0  -5 2031.10  207.48
  -4   0  -5 2321.77  208.48
   0   4  -5 2188.78  217.28
  -4   0  -5 2054.19  185.48
   4   0  -5 2265.07  170.38
   4   0  -5 2186.28  183.98
  -4   0  -5 2333.07  171.68
   4   0  -5 2219.58  195.68
   0  -4  -5 1973.70  231.08
   0   4  -5 2155.08  209.38
   0  -4  -5 2425.56  193.48
  -4   0  -5 2271.67  182.18
   0   4  -5 2185.58  191.68
   0  -4   5 2540.25  255.17
  -4   0   5 2614.84  184.48
  -4   0   5 2246.78  217.78
   0  -4   5 2085.49  184.38
   0   4   5 2597.64  191.48
   4   0   5 2074.79  166.68
   4   0   5 2495.25  181.48
   0   4   5 2214.08  193.78
  -4   0   5 2190.48  182.58
   4   0   5 2262.17  166.18
   4  -1  -5  116.39   61.29
   4  -1  -5   82.49   32.70
  -4   1  -5   63.49   25.50
   1   4  -5  170.98   79.29
   1   4  -5  105.19    9.60
  -4   1  -5  121.89   41.80
  -1  -4  -5  102.79   44.90
  -1  -4  -5   61.89   41.70
   4  -1  -5   71.19   31.10
   1   4  -5   79.09   43.50
   1   4  -5   84.69   45.60
  -4   1  -5   82.89   36.00
  -4   1  -5   87.99   21.10
   4  -1  -5   97.99   24.10
   1   4  -5   88.39   10.10
  -1  -4  -5  160.28   57.69
  -1  -4  -5  101.59   33.00
  -4   1  -5  130.29   45.40
  -4   1   5  118.39   49.00
  -1  -4   5   86.29   10.80
   4  -1   5   68.49   22.80
   1   4   5   90.19   37.90
  -1  -4   5   69.69   31.30
  -1  -4   5   76.59   42.80
   1   4   5   60.69   25.10
  -4   1   5   72.99   31.30
   4  -1   5   77.59   18.10
  -1  -4   5   88.99   13.20
   1   4   5   85.19   43.70
   4  -1   5   66.59   20.50
  -4   1   5   88.29   25.20
  -4   2  -5 1586.04  177.48
   2   4  -5 1532.15  115.79
  -2  -4  -5 1713.23  176.48
   2   4  -5 1600.74  141.39
   4  -2  -5 1604.44  148.89
  -4   2  -5 1812.32  158.58
  -2  -4  -5 1664.43  182.08
  -2  -4  -5 1312.27  157.08
   4  -2  -5 1458.25  130.39
   4  -2  -5 1648.64  211.38
  -4   2  -5 1574.24  122.29
   2   4  -5 1610.94  183.88
  -2  -4   5 1937.91  184.98
  -2  -4   5 1550.84  123.79
  -4   2   5 1659.83  137.39
   4  -2   5 1659.73  131.49
   4  -2   5 1417.86  128.59
   2   4   5 1896.91  192.48
   2   4   5 1626.64  152.78
  -4   2   5 1935.01  177.28
   4  -2   5 1440.76  123.99
  -3  -4  -5   56.79   24.30
  -3  -4  -5   16.30   28.10
  -3  -4  -5   96.29   45.80
   4  -3  -5   35.70   21.00
  -4   3  -5   30.90   23.20
   3   4  -5   27.90   11.30
  -3  -4  -5   70.99   65.59
  -3  -4  -5  -22.70   29.90
  -4   3  -5   52.89   58.79
   4  -3  -5   29.90   58.49
  -4   3  -5   30.30   11.40
   3   4  -5   -3.50   33.10
   4  -3  -5   -1.90   26.60
  -4   3  -5   55.79   29.60
   3   4   5   16.30   26.40
   4  -3   5   27.20   10.90
   3   4   5    0.70   43.50
   3   4   5   28.60   28.00
   4  -3   5   11.30   18.10
  -4   3   5   30.20   36.30
  -4   3   5    2.90   17.30
  -3  -4   5  -17.60   16.80
   4  -3   5   14.70   15.90
  -3  -4   5    7.30   36.40
  -3  -4   5   10.30   11.00
   4  -3   5    7.60   17.80
  -4  -4  -5 1724.83  175.18
  -4   4  -5 1496.15  118.19
  -4   4  -5 1560.74  141.09
   4   4  -5 1480.95  121.49
  -4  -4  -5 1262.37  159.38
   4   4  -5 1854.01  211.58
  -4   4  -5 1843.62  136.79
   4  -4  -5 1487.75  140.59
   4  -4   5 1363.66  116.49
   4   4   5 1776.62  160.28
   4  -4   5 1874.51  130.99
  -4   4   5 1458.05  144.89
   4   4   5 1662.13  197.68
  -4  -4   5 1634.64  122.99
   4   4   5 1558.34  148.19
  -4   5  -5   40.40   14.50
   4  -5  -5   -2.00   20.20
  -4   5  -5   12.30   18.30
   5   4  -5   42.40   56.79
  -5  -4  -5    8.60   39.70
   5   4  -5   15.60   13.90
  -5  -4  -5   15.40   31.50
   5   4  -5  -48.20   29.30
   5   4   5   20.00   52.09
   4  -5   5  -17.30   14.90
  -5  -4   5    1.60   19.10
  -5  -4   5   68.39   62.19
   5   4   5  -28.80   31.40
  -4   5   5    5.50   24.20
   4  -5   5   14.40   21.80
   5   4   5   -2.20   23.20
  -4   5   5  -10.60   21.30
   3  -5  -5 2183.18  210.88
   5   3  -5 2628.34  192.28
  -3   5  -5 2495.15  179.28
  -5  -3  -5 2690.23  238.88
  -3   5  -5 2555.54  195.48
  -5  -3  -5 2445.06  205.38
  -5  -3  -5 2804.02  244.98
  -5  -3   5 2966.10  220.08
   3  -5   5 2554.14  209.98
  -3   5   5 2829.42  267.57
  -5  -3   5 2689.23  201.78
   3  -5   5 2143.89  182.98
   5   3   5 2797.22  223.38
  -3   5   5 2313.27  215.08
  -5  -2  -5   46.70   35.80
  -2   5  -5  153.88   69.19
  -2   5  -5   33.50    5.60
  -2   5  -5   29.50   17.00
  -2   5  -5  100.29   35.90
   5   2  -5   41.80   34.10
   5   2  -5   78.49   61.29
   2  -5  -5   12.50   39.50
  -5  -2  -5   46.70   32.20
  -5  -2  -5   33.10   19.50
   2  -5  -5   68.29   38.40
  -5  -2  -5   37.40   34.70
   2  -5   5    3.50   19.70
  -5  -2   5   57.99   34.90
   2  -5   5   32.50    7.80
  -2   5   5  137.19   63.79
  -2   5   5   47.70   30.10
  -5  -2   5   92.39   58.59
  -5  -2   5   41.70   17.80
   2  -5   5   32.90    9.10
   5   2   5   78.19   37.50
   5   2   5   13.90   20.50
  -2   5   5   28.70   35.00
  -2   5   5   15.90   42.20
  -5  -1  -5 2629.24  197.68
  -1   5  -5 2515.95  250.37
   5   1  -5 2748.02  192.98
   5   1  -5 2320.77  207.38
  -1   5  -5 2430.96  203.88
  -1   5  -5 2657.53  221.18
   5   1   5 2926.31  212.18
   5   1   5 2369.56  199.88
   5   1   5 2409.56  180.68
  -1   5   5 2478.55  229.38
  -5   0  -5    9.70   21.40
   5   0  -5   -8.20   40.80
  -5   0  -5   12.60   24.70
  -5   0  -5   -1.40   22.40
   0   5  -5  -43.70   42.60
   0   5  -5  -28.00   22.70
   0  -5  -5   25.50   45.50
   0  -5  -5  -23.40   30.60
   5   0  -5    9.10   14.30
   0  -5  -5   14.80   21.50
  -5   0  -5   18.20   14.60
   5   0  -5   -9.00   19.40
   0   5  -5   65.79   26.20
   0   5  -5   12.80   39.60
   0  -5  -5   39.40   33.40
  -5   0   5   18.00   30.70
   0  -5   5  -55.09   35.00
   0  -5   5    3.60   20.00
  -5   0   5   14.50   16.90
   5   0   5   -4.30   10.10
   0   5   5   14.90   26.10
   5   0   5  -24.30   14.20
  -5   0   5    7.00   43.20
   0   5   5    3.60   24.00
   0   5   5    6.80   26.90
   5  -1  -5 2687.93  228.28
   1   5  -5 2701.83  271.07
  -1  -5  -5 2847.92  210.58
   1   5  -5 2635.44  191.68
  -5   1  -5 2985.20  245.28
   1   5  -5 2737.43  212.48
   1   5  -5 2505.75  189.98
  -1  -5  -5 2854.71  260.57
  -1  -5  -5 3239.08  257.07
   5  -1  -5 3036.40  314.97
  -5   1  -5 2550.84  214.68
  -5   1   5 2873.81  215.28
   1   5   5 2748.63  253.87
  -1  -5   5 2555.64  267.07
  -1  -5   5 2967.50  250.17
   1   5   5 3120.79  243.88
  -1  -5   5 2568.64  191.18
   5  -1   5 3051.09  219.58
   5  -1   5 2487.55  204.08
   5  -2  -5   19.30   29.00
  -2  -5  -5   29.70   30.20
  -5   2  -5    6.30   20.10
   2   5  -5    0.10   17.30
  -2  -5  -5   89.59   42.10
  -5   2  -5   43.30   29.20
   5  -2  -5   31.30   18.50
  -5   2  -5   26.80   14.80
   2   5  -5   29.10   21.50
  -5   2  -5    4.50   44.30
   2   5  -5   36.80   10.40
   2   5   5   22.70   32.90
   2   5   5    5.30   21.20
   5  -2   5    3.50   23.10
  -5   2   5   42.60   22.40
   5  -2   5   54.29   25.20
  -5   2   5  131.59   66.09
   5  -2   5   37.30   20.00
   2   5   5   56.49   51.59
  -2  -5   5   23.00   32.00
   3   5  -5 2539.25  216.58
   3   5  -5 2333.27  179.28
   5  -3  -5 2123.49  286.27
   3   5  -5 2465.45  196.48
  -3  -5  -5 2898.31  241.88
   3   5  -5 2666.63  275.07
  -5   3  -5 2558.14  185.18
  -3  -5  -5 2676.93  255.97
  -3  -5  -5 2006.50  227.28
  -5   3  -5 2727.93  217.48
   5  -3  -5 2311.17  196.58
   5  -3   5 2689.73  197.68
  -3  -5   5 2480.45  180.18
   3   5   5 2393.36  262.37
   5  -3   5 2359.76  194.98
  -5   3   5 2389.96  202.68
  -4  -5  -5   -4.90   31.40
   4   5  -5   17.60   25.50
   4   5  -5    4.60   16.30
  -5   4  -5    6.20   12.20
   4   5  -5   10.90   41.90
   5  -4  -5   41.20   23.30
  -5   4  -5    5.30   20.40
  -4  -5   5   18.50   43.80
   5  -4   5   -1.10   21.20
   4   5   5    1.60   29.90
   4   5   5    0.30   47.50
   5  -4   5    1.80   21.50
  -5   4   5   -1.10   21.40
   4   5   5  -20.30   30.50
  -5   4   5   20.40   38.10
  -4  -5   5   -2.70   12.00
  -5  -5  -5 1619.74  181.88
  -5  -5  -5 1759.42  181.88
   5  -5  -5 1441.36  145.89
  -5   5  -5 1413.86  121.59
   5   5  -5 2104.19  252.87
  -5   5  -5 1746.33  144.39
   5  -5   5 1488.85  145.09
  -5   5   5 1411.56  150.88
   5   5   5 1648.44  209.68
   5   5   5 1573.34  165.88
  -5   6  -5   31.50   17.40
   6   5  -5    9.90   83.09
   6   5  -5   16.10   19.10
  -6  -5  -5   57.19   49.80
  -6  -5   5   11.10   23.20
  -5   6   5  110.79   44.80
   6   5   5  -10.90   36.00
   6   5   5   68.39   61.89
  -6  -5   5   75.79   93.29
   5  -6   5  -10.20   25.40
   6   4  -5 1194.18  105.09
  -6  -4  -5 1392.76  159.58
  -6  -4  -5 1101.99  202.38
   4  -6  -5  912.91  146.79
   4  -6  -5 1080.69  125.19
  -4   6   5 1388.96  166.08
  -4   6   5 1211.18  133.99
   6   4   5 1277.37  140.69
  -6  -4   5 1280.17  107.89
   6   4   5 1306.67  129.69
   4  -6   5 1119.49  122.39
   3  -6  -5   37.10   30.90
   3  -6  -5    7.30   41.30
  -6  -3  -5  -14.30   32.80
   6   3  -5   28.70   18.30
  -6  -3  -5   -2.30   28.30
   6   3  -5  -28.10   33.30
   6   3  -5   69.59   71.49
  -3   6  -5   10.30    7.90
  -3   6   5   54.09   57.09
  -3   6   5   51.69   51.39
  -3   6   5   50.59   36.60
  -6  -3   5    3.50   16.70
   6   3   5    0.40   29.10
   3  -6   5   -1.00   11.80
   6   3   5   -4.80   24.60
   3  -6   5    9.70   22.10
  -6  -3   5   10.50   39.50
  -6  -3   5   17.80   19.80
  -2   6  -5 1427.56   99.59
   6   2  -5 1380.36  117.59
   2  -6  -5 1757.62  157.58
   6   2  -5 1120.39  138.89
  -6  -2  -5 1690.43  167.88
   2  -6  -5 1140.69  171.98
  -2   6  -5 1294.27   98.49
  -6  -2  -5 1354.86  152.28
  -6  -2  -5 1243.08  141.19
  -6  -2  -5 1430.26  136.59
   6   2   5 1390.26  134.19
   2  -6   5 1399.06  102.59
   6   2   5 1583.54  144.39
  -6  -2   5 1622.94  121.79
   2  -6   5 1342.77  135.59
   1  -6  -5   -2.30   40.80
   1  -6  -5  -38.30   34.60
  -1   6  -5   13.20   26.30
  -6  -1  -5    7.30   32.40
  -1   6  -5  -30.50   51.09
  -1   6  -5    0.30   36.80
  -6  -1  -5   -1.40   25.30
   6   1  -5   -1.10   56.59
  -6  -1  -5    7.20   22.10
   1  -6  -5  -26.70   28.30
   6   1  -5   -0.10   13.80
  -1   6   5   22.70   28.70
   6   1   5   12.40   25.80
   1  -6   5   -8.00    5.80
   1  -6   5    2.50    6.90
   6   1   5   10.20   27.80
   6   1   5   10.10   12.20
  -6  -1   5   21.60   36.50
  -6  -1   5   36.80   41.00
  -1   6   5   22.10   43.00
   1  -6   5   20.10   24.70
   0  -6  -5 2089.19  205.98
  -6   0  -5 2053.89  162.28
   0   6  -5 1898.21  223.88
   0   6  -5 2043.00  149.19
  -6   0  -5 2150.18  193.58
   0   6  -5 2100.49  137.69
  -6   0  -5 2164.08  201.18
  -6   0  -5 1649.44  179.08
   0   6  -5 1804.82  136.89
   6   0  -5 1912.01  179.98
   0   6  -5 2031.00  176.18
   6   0  -5 2040.60  160.28
   6   0   5 1909.11  150.58
   0  -6   5 1863.41  178.08
   0  -6   5 2031.60  140.09
   6   0   5 2265.77  177.28
   0   6   5 1806.12  194.88
   1   6  -5   15.00   39.50
  -6   1  -5  -18.90   24.00
  -6   1  -5   24.10   18.00
   1   6  -5    2.60    5.80
  -1  -6  -5   -3.40   31.80
  -1  -6  -5   -8.50   37.40
  -6   1  -5   -3.10   22.10
  -1  -6  -5   18.70   43.70
   6  -1  -5   19.20   63.79
  -1  -6  -5  -29.40   24.40
  -6   1  -5  -30.30   29.50
   1   6  -5   17.60   23.80
   1   6  -5    8.60    7.80
   6  -1  -5   20.80   17.90
  -6   1   5   36.70   22.00
  -1  -6   5   14.90   14.90
   6  -1   5   -8.80   23.90
   6  -1   5    2.20   13.60
  -1  -6   5   20.20   44.80
  -1  -6   5   13.00    9.10
  -6   1   5   38.30   42.60
  -1  -6   5   19.70   27.40
   1   6   5   31.50   35.70
   1   6   5  -10.80   28.90
   6  -2  -5 1629.44  238.48
  -2  -6  -5 1596.24  174.78
  -6   2  -5 1423.26  117.89
   2   6  -5 1344.97  124.19
  -2  -6  -5 1466.15  158.38
  -2  -6  -5 1337.47  162.78
   2   6  -5 1406.16  190.58
  -6   2  -5 1569.74  155.58
   6  -2  -5 1380.16  124.39
   2   6  -5 1270.77  104.59
  -2  -6   5 1276.07  166.48
  -6   2   5 1478.55  134.79
   2   6   5 1450.75  156.38
   6  -2   5 1296.87  119.29
   2   6   5 1582.94  182.38
   6  -2   5 1531.45  146.89
   3   6  -5   -0.10   19.10
  -6   3  -5    9.30   25.10
   6  -3  -5   15.10   20.50
  -3  -6  -5  -29.40   34.60
  -3  -6  -5   29.30   33.50
  -6   3  -5    4.00   15.40
   6  -3  -5   73.09   88.09
   3   6  -5    6.60   61.29
  -3  -6   5   34.10   39.50
   3   6   5   -0.70   48.70
  -6   3   5    9.40   19.60
  -3  -6   5   12.00   14.00
  -6   3   5   24.40   46.10
   6  -3   5   13.80   21.30
   6  -3   5   -6.80   25.80
   3   6   5  -23.30   34.00
   3   6   5   24.20   49.00
   6  -4  -5 1105.69  115.19
  -6   4  -5 1083.69   99.09
   4   6  -5 1124.09   95.99
  -4  -6  -5 1126.89  153.18
  -6   4  -5 1096.69  126.89
   4   6  -5 1570.04  251.57
  -4  -6  -5 1409.46  154.88
   4   6  -5 1162.48  116.99
  -4  -6   5 1148.19   98.19
   6  -4   5 1273.67  116.79
   4   6   5 1481.85  163.58
  -6   4   5 1180.48  123.49
   6  -4   5 1081.79  113.59
   4   6   5 1193.38  172.88
   4   6   5 1094.59  139.29
  -6   5  -5   15.00   26.40
   5   6  -5    6.30   69.19
  -5  -6  -5  -11.80   40.50
  -6   5  -5   16.20   30.60
   6  -5  -5   17.30   25.20
  -5  -6  -5  -21.90   52.59
   5   6  -5   14.00   17.80
  -5  -6   5  104.59   70.09
   5   6   5   -3.00   46.40
   6  -5   5   10.60   33.30
   5   6   5  -42.30   39.30
  -6   5   5   55.59   49.50
   5   6   5   24.00   60.19
  -6   5   5   22.30   34.60
   6  -5   5    0.90   32.60
   6  -5   5  -12.50   32.60
   7   4  -5   25.40   21.80
   4  -7  -5   17.80   35.60
   7   4  -5  -27.80   67.79
   4  -7  -5   23.50   54.39
  -7  -4  -5    9.10   40.70
  -7  -4  -5  -36.80   48.60
  -7  -4   5   -0.30   22.10
  -4   7   5  -25.40   48.20
  -4   7   5   20.50   39.00
   4  -7   5   10.00   32.50
  -7  -4   5    6.60   73.29
   7   4   5   -5.20   35.30
  -3   7  -5 1375.16  110.59
   3  -7  -5 1806.02  170.08
   3  -7  -5 1295.67  183.18
   7   3  -5 1541.05  131.99
   7   3   5 1471.75  153.48
  -7  -3   5 1672.63  133.09
  -7  -3   5 1749.62  175.68
   7   3   5 1675.13  165.48
   3  -7   5 1452.65  116.59
   7   2  -5   31.60   82.19
   2  -7  -5   39.90   45.50
  -7  -2  -5   34.00   46.40
  -2   7  -5   29.60    8.60
  -2   7  -5  -84.69   56.59
   2  -7  -5   12.80   40.70
  -2   7  -5   22.00    9.50
   7   2   5   -1.20   37.60
  -2   7   5  115.19   61.19
  -7  -2   5   24.00   22.90
  -2   7   5   80.59   49.99
   2  -7   5   27.70   14.50
   7   2   5  -24.10   33.10
  -7  -2   5   92.39   46.90
  -1   7  -5 1570.44  115.59
  -7  -1  -5 1908.21  189.88
   7   1  -5 1606.84  138.99
  -7  -1  -5 1689.73  189.68
   1  -7  -5 1587.34  178.08
  -1   7  -5 1494.65  207.78
  -1   7  -5 1778.92  162.98
  -1   7  -5 1568.44  115.59
  -7  -1  -5 1577.24  173.08
   1  -7   5 1682.23  119.29
   1  -7   5 1663.63  162.08
   7   1   5 1864.61  163.58
   1  -7   5 1463.45  119.09
  -1   7   5 2104.49  190.28
   7   1   5 1573.84  160.28
   0  -7  -5  -20.50   29.30
   0   7  -5   13.50    7.60
   7   0  -5  -13.80   72.09
   0   7  -5   38.10   56.09
   0   7  -5   17.70    7.80
   0  -7  -5  -19.10   62.49
  -7   0  -5  -37.60   25.80
   0  -7  -5  -11.20   30.40
   7   0  -5   17.00   21.10
  -7   0  -5   75.69   26.20
   0  -7  -5   -3.70   42.20
  -7   0  -5   30.50   36.50
   0  -7   5    1.30   10.80
   0  -7   5   59.39   33.90
   0   7   5   53.29   44.90
   0   7   5   23.90   40.40
   7   0   5   -6.60   29.50
  -7   0   5   18.60   51.99
   7   0   5   -7.50   14.90
  -7   1  -5 1757.92  193.08
  -1  -7  -5 1444.66  155.08
   1   7  -5 1583.34  127.99
   1   7  -5 1552.54  209.68
  -1  -7  -5 1783.82  173.08
  -7   1  -5 1843.22  181.88
   7  -1  -5 1751.52  145.49
   7  -1  -5 2188.58  286.87
   1   7  -5 1490.55  119.29
  -7   1  -5 1822.52  154.28
  -1  -7  -5 1713.33  193.18
   1   7  -5 1642.74  122.29
  -7   1  -5 1331.37  163.68
  -1  -7   5 1567.44  121.69
   1   7   5 1767.92  182.88
  -7   1   5 1812.42  152.08
   7  -1   5 1814.62  158.58
   7  -1   5 1507.85  133.49
  -1  -7   5 1995.20  219.58
  -1  -7   5 1528.65  164.18
   1   7   5 1588.94  185.98
  -7   2  -5   19.70   23.50
  -2  -7  -5  -17.40   51.79
  -7   2  -5   21.00   36.40
   2   7  -5   -5.90   22.40
  -7   2  -5   40.10   34.60
   2   7  -5  -12.00   21.60
  -7   2   5  100.79   74.29
   2   7   5  105.29   66.19
   2   7   5    1.30   40.00
  -7   2   5   53.29   30.00
   7  -2   5   12.00   22.70
   2   7   5 -111.09   66.69
   7  -2   5   28.20   37.00
  -2  -7   5   65.49   46.70
   7  -3  -5 1421.36  143.69
   7  -3  -5 1693.63  293.47
  -3  -7  -5 1983.30  204.38
  -7   3  -5 1497.85  135.89
  -3  -7  -5 1833.42  177.48
   3   7   5 1718.83  185.48
   7  -3   5 1670.93  155.38
   3   7   5 1907.81  222.58
  -7   3   5 1603.94  153.28
   7  -3   5 1454.75  139.29
   3   7   5 1622.24  204.28
  -3  -7   5 1486.05  183.48
  -7   4  -5  -19.10   21.60
  -4  -7  -5  -37.80   27.60
   7  -4  -5   23.90   28.00
   4   7  -5    2.20   14.60
  -7   4  -5  -40.70   35.30
   4   7  -5   32.10   65.59
  -4  -7   5   -6.90   21.00
   7  -4   5  -37.30   32.60
  -7   4   5    5.00   56.19
   4   7   5  -51.39   49.30
   4   7   5  -45.40   45.90
  -4  -7   5   96.59   59.09
   4   7   5  -13.00   65.39
   1  -8  -5  -31.40   37.90
   1  -8  -5   16.60   55.09
   1  -8  -5  -29.70   35.20
  -1   8  -5  -61.69   53.19
  -8  -1  -5  -29.30   37.30
  -8  -1  -5    0.10   36.90
   8   1  -5   25.00   22.40
   8   1  -5   24.50   72.19
   8   1   5  -30.00   18.30
   8   1   5    5.00   40.70
   1  -8   5   18.30   32.60
  -8  -1   5   42.50   65.19
   8   1   5  -57.79   34.70
  -1   8   5   25.40   46.40
   8   0  -5 1054.99  210.28
   0   8  -5  734.33  155.58
   0  -8  -5  691.73  108.39
   0   8  -5  722.93   59.09
   8   0  -5  780.62   84.59
   0  -8  -5  687.93  100.09
  -8   0  -5  906.51  126.49
   0   8   5  859.91  129.99
   8   0   5  779.82  103.09
   8   0   5  601.84   69.99
   0  -8   5  706.13  102.09
   8  -1  -5  143.29  102.49
  -1  -8  -5  -22.30   42.90
   1   8  -5   13.90    9.90
  -1  -8  -5  -51.99   67.99
  -1  -8  -5  -27.10   30.60
   1   8  -5   31.90   62.79
  -8   1  -5   17.10   40.60
   8  -1  -5   21.80   27.90
   8  -1   5  -16.00   25.80
  -8   1   5    6.50   27.40
   1   8   5   40.10   35.80
   8  -1   5   -9.60   40.50
   1   8   5  -90.49   91.79
  -8   1   5   68.19   59.89
   1   8   5  -24.60   46.40
  -1  -8   5  -13.10   39.90
   0   0  -6 3114.19  222.38
   0   0  -6 3323.07  223.88
   0   0  -6 2918.41  238.68
   0   0  -6 3039.20  232.18
   0   0   6 2798.82  215.98
   0   0   6 2782.52  226.58
   0   0   6 2591.34  254.17
   0   0   6 3243.58  218.28
   0   0   6 2947.21  305.57
   0  -1  -6 1518.25  122.49
   0  -1  -6 1588.64  120.89
  -1   0  -6 1420.56  118.39
   0   1  -6 1640.54  108.99
   0  -1  -6 1125.79  162.38
   0   1  -6 1403.06  140.79
  -1   0  -6 1637.74  158.88
   1   0  -6 1312.17  123.99
  -1   0  -6 1314.17  173.18
  -1   0  -6 1259.67  133.19
  -1   0  -6 1236.28  108.79
   1   0  -6 1252.47  109.09
   1   0   6 1138.99  104.79
  -1   0   6 1611.44  116.09
   0   1   6 1310.57  110.79
   0  -1   6 1482.35  186.28
   1   0   6 1432.56  111.99
   0  -1   6 1508.85  104.99
   0   1   6 1319.17  142.69
   0  -1   6 1376.56  153.68
   1   0   6 1266.27  157.28
   0   1   6 1516.85  115.39
   0  -1   6 1449.95  104.89
   0   1   6 1525.45  116.59
  -1   0   6 1269.47  135.19
   0   1   6 1629.84  204.38
  -1   0   6 1075.19  155.48
  -1   1  -6 2737.83  207.88
  -1   1  -6 3314.57  299.77
  -1  -1  -6 2533.25  271.07
   1  -1  -6 2788.12  206.68
   1   1  -6 2922.01  229.78
  -1  -1  -6 2408.76  202.48
  -1   1  -6 2772.72  241.38
  -1  -1  -6 2982.20  231.78
   1   1  -6 2596.34  194.98
   1  -1   6 2415.66  252.17
  -1   1   6 2493.25  213.18
   1   1   6 2217.48  197.98
  -1   1   6 2565.54  202.88
   1  -1   6 3072.49  193.58
   1   1   6 3149.19  210.98
  -1   1   6 2896.51  234.98
  -1  -1   6 3036.10  234.18
   1  -1   6 2358.96  193.48
  -1  -1   6 2976.00  240.48
  -1   1   6 2569.84  269.47
  -1  -1   6 2696.23  196.98
   1   1   6 3020.20  259.37
  -1   2  -6  271.07   68.29
  -1   2  -6  461.75   95.49
   2   1  -6  252.07   38.60
  -2  -1  -6  241.38   81.99
   1  -2  -6  342.07   45.20
   2   1  -6  311.37   32.00
  -1   2  -6  155.68   70.49
  -2  -1  -6  240.68   34.10
  -2  -1  -6  234.88   40.10
  -2  -1  -6  385.26   78.79
  -1   2  -6  333.87   56.49
   1  -2  -6  240.18   74.99
  -1   2  -6  270.07   49.60
   2   1  -6  460.85   78.29
   1  -2  -6  458.65  129.19
  -2  -1  -6  274.87   58.09
  -2  -1   6  277.57   31.60
  -1   2   6  313.57   45.90
   2   1   6  335.87   90.69
  -2  -1   6  333.87   60.09
  -1   2   6  380.36  104.19
  -1   2   6  423.66   63.29
  -2  -1   6  332.37   54.79
  -1   2   6  316.97   42.60
   1  -2   6  276.37   79.09
   1  -2   6  253.17   41.10
   2   1   6  337.47   45.90
  -2  -1   6  277.17   37.30
   2   1   6  261.87   33.80
  -2  -1   6  355.66   74.49
  -2   0  -6 1716.33  149.29
   2   0  -6 1763.42  133.69
   0  -2  -6 1516.35  201.08
   0   2  -6 1435.06  177.38
   0   2  -6 1830.72  163.38
  -2   0  -6 1653.53  132.39
  -2   0  -6 1536.15  217.48
   2   0  -6 1450.35  139.39
   0  -2  -6 1915.21  148.49
   0   2  -6 1630.34  172.78
  -2   0   6 1949.41  163.58
  -2   0   6 1617.14  132.69
   2   0   6 1723.33  137.49
   0  -2   6 1904.51  216.48
   0   2   6 2040.60  145.79
   0   2   6 1934.11  139.29
   0   2   6 1928.21  175.58
   2   0   6 1707.93  197.18
   0  -2   6 1594.54  177.18
   2   0   6 1473.95  128.39
   0   2   6 2285.37  254.27
  -2   0   6 1758.32  141.29
  -2   0   6 1993.70  195.98
  -2   0   6 1873.21  162.98
  -2   1  -6  155.08   68.39
  -1  -2  -6  286.07   40.70
   1   2  -6  563.44  149.39
   2  -1  -6  289.27   37.10
  -2   1  -6  268.97   34.40
   1   2  -6  305.17   58.29
   2  -1  -6  343.37   73.19
  -2   1  -6  272.67   46.10
   1   2  -6  343.27   30.80
  -2   1  -6  279.37   31.70
  -2   1  -6  280.07   84.99
  -2   1  -6  227.38   33.70
  -1  -2  -6  417.56   82.29
  -1  -2  -6  282.27   96.49
  -2   1  -6  368.96  115.99
  -1  -2   6  220.88   24.20
  -2   1   6  344.47   53.79
   1   2   6  289.97   25.80
  -1  -2   6  310.17   62.19
  -2   1   6  332.37   85.19
   2  -1   6  251.37   84.79
   2  -1   6  228.78   26.50
  -1  -2   6  250.27   26.80
   1   2   6  312.77   80.29
  -2   1   6  254.97   36.50
  -1  -2   6  276.97   82.49
   2  -1   6  264.87   38.10
  -2   1   6  378.66   54.69
  -1  -2   6  290.27   61.89
  -2   2  -6  970.10  141.99
  -2  -2  -6 1141.69  149.69
  -2  -2  -6 1135.69  101.59
  -2   2  -6 1062.19   83.29
  -2  -2  -6 1092.69   91.89
  -2  -2  -6 1076.19  158.38
   2   2  -6 1248.28  128.79
  -2   2  -6 1062.39  125.99
   2  -2  -6 1017.70  101.19
   2  -2  -6 1207.88  152.18
   2   2  -6 1264.17   88.59
  -2   2  -6 1241.48  166.08
  -2  -2  -6 1323.87  127.29
  -2   2  -6 1214.28  113.69
  -2   2   6 1402.56  123.59
   2  -2   6 1010.60   83.39
  -2  -2   6 1494.25  160.08
   2  -2   6 1192.58  103.89
  -2  -2   6 1452.25  133.69
   2   2   6 1301.47  159.58
  -2  -2   6 1080.69   93.69
   2   2   6 1351.66  114.99
  -2   2   6 1091.69  147.49
  -2  -2   6 1294.37  141.49
   2  -2   6 1321.87  156.48
  -2   2   6  930.21   99.39
   2  -2   6 1264.47   87.29
  -2  -2   6 1291.07   92.39
   2   2   6  959.70   95.09
  -2   3  -6  907.81  132.49
   3   2  -6  747.03   59.49
   2  -3  -6  658.83   74.79
   2  -3  -6  853.81   93.39
  -2   3  -6  638.44   88.09
  -2   3  -6  640.44  104.99
  -2   3  -6  668.53   93.19
  -3  -2  -6  784.82  120.39
  -3  -2  -6  700.53  111.69
  -3  -2  -6  647.04   67.99
   2  -3  -6  534.25   98.19
  -3  -2   6  739.93   84.89
  -3  -2   6  669.73  102.29
  -2   3   6  702.43  117.29
  -2   3   6  741.93   87.89
   3   2   6  641.64  119.39
  -2   3   6  540.25   70.19
   2  -3   6  620.34   71.19
   3   2   6  765.52   83.89
   3   1  -6 2803.52  203.08
  -3  -1  -6 2634.24  253.77
  -3  -1  -6 2805.82  272.47
   1  -3  -6 2264.27  266.47
  -3  -1  -6 2721.53  210.88
  -3  -1  -6 2706.43  278.27
   1  -3  -6 3056.29  226.78
  -1   3  -6 2853.21  241.58
  -1   3  -6 2489.05  245.98
  -1   3  -6 2629.14  247.08
   3   1   6 2285.37  202.78
   3   1   6 2991.10  220.38
  -3  -1   6 2812.52  204.78
   3   1   6 2923.21  288.07
  -1   3   6 3401.26  317.67
  -3  -1   6 3019.60  255.97
  -3  -1   6 3279.27  235.08
  -1   3   6 3074.39  224.08
   1  -3   6 2486.85  217.18
  -3  -1   6 2896.81  224.78
  -1   3   6 2916.21  227.48
  -3   0  -6 1114.19  146.09
  -3   0  -6 1082.59  129.09
   0   3  -6 1015.60  136.59
   0   3  -6 1180.08  121.69
   3   0  -6 1188.18   93.99
   0  -3  -6  916.11  158.48
   3   0  -6  943.91  102.29
   0   3  -6 1179.08  127.99
  -3   0  -6 1271.07   94.89
   0  -3  -6 1106.39  107.59
  -3   0  -6 1112.99  150.38
  -3   0   6 1179.88   95.49
   0   3   6 1351.96  113.19
   0  -3   6 1391.96  143.09
  -3   0   6 1173.68  104.69
   0   3   6 1237.08  105.79
   0  -3   6 1268.87  171.98
  -3   0   6 1141.69  125.69
   3   0   6  967.80   91.29
   3   0   6 1177.68  100.79
   3   0   6 1151.38  158.78
   0   3   6 1120.79  128.49
   0  -3   6  989.50  106.49
   3   0   6 1027.90   92.99
   3  -1  -6 2643.44  214.18
   3  -1  -6 2714.53  198.98
  -1  -3  -6 2345.47  205.08
   1   3  -6 2043.70  233.48
  -1  -3  -6 2822.92  274.87
  -3   1  -6 2700.43  253.47
  -3   1  -6 2824.52  244.48
   3  -1  -6 3272.27  280.27
  -3   1  -6 2718.03  191.18
  -1  -3  -6 2217.98  269.47
   1   3  -6 2691.83  240.98
   1   3   6 2900.61  251.07
   1   3   6 2365.76  200.88
  -3   1   6 2488.65  208.58
   3  -1   6 2473.15  187.78
  -1  -3   6 2165.18  250.07
   1   3   6 2818.52  199.48
   3  -1   6 2491.75  197.18
  -3   1   6 2619.74  212.28
   3  -1   6 2791.32  197.78
  -1  -3   6 2973.30  244.08
  -3   1   6 2847.62  233.18
   3  -1   6 2795.62  267.07
   3  -2  -6  641.44   68.39
   3  -2  -6  678.13  127.69
  -2  -3  -6  589.44  101.89
   2   3  -6  732.43   52.89
  -2  -3  -6  838.42   98.49
  -2  -3  -6  649.74  119.49
   2   3  -6  565.14   97.69
  -3   2  -6  626.84   95.59
   3  -2  -6  787.32   85.29
  -2  -3  -6  651.93   71.79
  -3   2  -6  700.83  102.09
  -2  -3   6  570.84   57.69
  -3   2   6  842.02  116.69
   2   3   6  747.43   83.89
  -3   2   6  692.03   90.69
   2   3   6  642.34   59.99
  -2  -3   6  674.33  106.09
  -3   2   6  678.63   70.39
  -2  -3   6  578.34   90.99
   3  -2   6  650.73   69.19
   2   3   6  741.23  117.79
  -2  -3   6  633.14  106.79
   2   3   6  714.03   63.89
   3  -2   6  647.04   54.09
  -3  -3  -6 2397.36  202.08
  -3  -3  -6 2447.26  231.98
   3  -3  -6 2311.67  203.48
   3   3  -6 2943.41  241.68
   3   3  -6 3190.48  272.37
  -3   3  -6 2590.74  180.18
  -3   3  -6 2371.26  261.87
  -3  -3  -6 2543.75  258.57
  -3  -3  -6 2444.56  297.97
   3  -3  -6 2583.64  282.77
  -3   3  -6 2573.94  233.18
  -3   3   6 2547.84  254.67
   3  -3   6 2492.75  202.98
   3  -3   6 2367.36  179.78
  -3   3   6 2896.01  235.98
   3   3   6 2827.32  187.38
  -3  -3   6 3237.58  314.17
  -3  -3   6 2508.65  221.38
  -3  -3   6 2267.27  193.98
   3   3   6 2802.62  219.18
  -3   3   6 2247.88  202.98
   3   3   6 2657.73  276.97
   3  -4  -6  339.17   58.19
  -4  -3  -6  545.25   61.89
  -3   4  -6  493.35   73.59
  -4  -3  -6  547.25  100.89
   4   3  -6  697.83  119.09
   4   3  -6  477.65   46.10
  -4  -3  -6  333.37   83.99
   3  -4   6  439.56   38.80
  -3   4   6  397.36   61.89
   4   3   6  514.95   49.99
  -4  -3   6  450.85   46.70
  -3   4   6  390.76   91.49
   4   3   6  447.46   71.89
  -4  -3   6  548.75   72.29
   4   3   6  481.05  131.29
   3  -4   6  463.35   36.70
  -2   4  -6  896.51  110.09
  -4  -2  -6  864.01   88.09
  -2   4  -6  890.51  115.19
   2  -4  -6  712.43  125.19
   4   2  -6  915.11   77.89
   2  -4  -6 1178.68  118.69
  -4  -2  -6  874.61  144.19
  -2   4   6 1032.50  102.09
  -2   4   6  853.41  118.29
   2  -4   6  949.21   95.99
   4   2   6 1065.49  106.69
  -4  -2   6  894.71   96.49
   4   2   6 1056.29  152.38
  -2   4   6 1164.98  159.98
  -4  -1  -6  607.54  104.09
  -1   4  -6 1232.98  275.27
  -1   4  -6  742.23   89.79
   4   1  -6  637.74   61.39
  -4  -1  -6  605.24   65.89
   1  -4  -6  552.54  117.99
   1  -4  -6  775.12   87.49
   1  -4  -6  739.83   86.79
  -1   4  -6  675.43  102.69
  -1   4   6  763.62   83.69
   4   1   6  665.23  118.69
   1  -4   6  565.64   74.29
  -4  -1   6  678.03   64.79
  -4  -1   6  747.73  110.09
  -1   4   6  616.64   82.89
  -4   0  -6 1370.16  154.38
  -4   0  -6 1149.39   95.59
   0   4  -6 1078.19  145.89
   0   4  -6 1325.27  147.39
   4   0  -6 1254.17  102.29
   4   0  -6  990.80  114.59
  -4   0  -6 1235.08  101.69
   0  -4  -6  924.01  166.98
   0   4  -6 1289.47  127.89
   0   4   6 1102.29  116.69
   4   0   6 1433.36  175.38
  -4   0   6 1256.67  105.99
   0  -4   6 1112.69  116.49
   0   4   6 1441.46  126.69
   0  -4   6 1380.56  184.48
   4   0   6 1153.48   98.29
   4   0   6 1327.67  112.59
   0   4   6 1461.15  147.59
   4   0   6 1187.28   98.09
  -1  -4  -6  802.42  116.89
  -4   1  -6  632.34   55.99
  -1  -4  -6  545.15  116.09
   4  -1  -6  616.34   60.59
   4  -1  -6  446.56   71.89
   4  -1  -6  702.03  127.09
   1   4  -6  590.94   96.49
  -4   1  -6  626.64   97.39
  -1  -4   6  503.95  100.39
   1   4   6  621.44   93.69
   4  -1   6  428.36   71.89
   1   4   6  531.95   67.09
  -4   1   6  554.44   61.39
  -4   1   6  708.63   92.99
   4  -1   6  529.65   57.59
   4  -1   6  552.64   52.59
   4  -1   6  611.94   65.09
  -4   2  -6  941.51  121.39
   2   4  -6  976.70   70.69
   4  -2  -6  819.42  106.49
  -2  -4  -6  914.21  132.79
   2   4  -6 1104.89   76.99
  -4   2  -6 1149.29  128.29
  -4   2  -6  963.00   78.89
   2   4  -6  968.10  106.09
   4  -2  -6  734.33  154.28
   2   4  -6  963.90  132.89
  -2  -4  -6  997.60  144.39
   4  -2  -6 1002.10  100.29
  -2  -4  -6  795.92   92.39
   4  -2   6  857.71   75.99
   2   4   6 1093.19  112.79
  -2  -4   6 1009.10  136.29
  -2  -4   6  972.60   76.59
   2   4   6 1052.79  142.59
   2   4   6 1154.58  109.79
   4  -2   6  879.51   87.99
  -4   2   6  867.31   90.89
   4  -2   6  916.11   85.99
   3   4  -6  479.85   71.19
  -3  -4  -6  413.26   92.39
   3   4  -6  520.45  117.59
  -3  -4  -6  502.05   62.49
  -4   3  -6  636.64  114.19
   4  -3  -6  490.35   78.69
   3   4  -6  446.66   55.29
   3   4  -6  492.65   43.00
   4  -3  -6  341.67  125.59
  -3  -4  -6  599.44  107.49
  -4   3  -6  539.65   82.39
   4  -3  -6  464.05   59.89
  -3  -4   6  578.94  102.79
   3   4   6  525.65   62.89
  -4   3   6  394.36   59.49
  -3  -4   6  410.36   52.19
   4  -3   6  477.85   59.59
  -3  -4   6  484.95   43.50
   4  -3   6  441.36   42.80
   3   4   6  507.35   77.09
   3   4   6  476.65  125.79
  -4   4  -6  689.43  155.88
   4   4  -6  620.64   87.69
   4   4  -6  980.80  148.59
  -4   4  -6 1024.70   76.79
   4  -4  -6  732.83   88.39
  -4  -4  -6  992.40  136.39
  -4   4  -6  831.22   66.49
   4   4  -6  816.62   75.39
  -4   4  -6  866.51   99.49
  -4   4   6 1015.30  135.39
   4   4   6  904.61  109.79
   4   4   6  531.65  178.28
  -4  -4   6  815.22   71.59
   4  -4   6  824.62   89.29
   4  -4   6  748.23   65.79
   4  -4   6  929.31   87.79
  -4   4   6  795.62   92.69
   4   4   6  989.30   87.79
  -5  -4  -6  162.18   74.99
  -5  -4  -6  240.78   78.29
   4  -5  -6  143.29   43.00
  -4   5  -6  218.08   45.60
   5   4  -6  475.35  131.49
  -4   5  -6  215.78   22.80
  -5  -4   6  213.48   33.80
  -4   5   6  229.38   78.79
   4  -5   6  187.78   29.20
   5   4   6  251.77   65.79
   4  -5   6  157.08   43.90
  -4   5   6  230.98   56.79
   5   4   6  208.98  100.29
  -3   5  -6 1532.65  135.79
   3  -5  -6 1185.48  170.48
  -5  -3  -6 1725.43  187.18
   3  -5  -6 1470.85  143.89
   5   3  -6 1453.95  118.39
  -5  -3  -6 1135.89  155.38
   3  -5   6 1380.66  136.99
   5   3   6 1598.24  152.78
  -3   5   6 1518.65  145.59
   3  -5   6 1417.86  103.59
   5   3   6 1616.34  127.19
  -3   5   6 1853.41  207.68
  -5  -3   6 1562.64  119.99
   5   3   6 1422.26  199.38
   5   2  -6  400.76   43.80
  -5  -2  -6  381.56   55.89
   2  -5  -6  452.25   68.69
   2  -5  -6  325.77  100.19
  -5  -2  -6  331.97   83.09
  -2   5  -6  365.86   81.09
  -5  -2  -6  254.37   72.29
   5   2  -6  632.84  125.59
  -2   5   6  351.96  117.89
  -2   5   6  442.76   73.79
  -5  -2   6  501.35   63.59
   5   2   6  279.77   42.00
   5   2   6  325.77  106.59
   5   2   6  403.66   66.99
   2  -5   6  365.96   58.79
   1  -5  -6 1244.08  187.98
   5   1  -6 1253.97  140.79
  -5  -1  -6 1299.77  122.69
  -5  -1  -6 1691.33  180.58
  -5  -1  -6 1574.94  127.89
  -1   5  -6 1605.14  188.28
  -5  -1  -6 1266.67  146.09
   5   1  -6 1586.44  122.89
  -1   5  -6 1634.34  155.08
   5   1   6 1794.22  144.79
   1  -5   6 1446.06  140.09
  -1   5   6 1691.53  159.68
   0  -5  -6  238.68   94.89
   0   5  -6  369.96   57.79
  -5   0  -6  365.56   78.39
   0   5  -6  496.85  145.39
   5   0  -6  452.55  130.99
   5   0  -6  284.47   39.80
  -5   0  -6  166.88   54.79
   0  -5  -6  368.86   78.59
   0   5  -6  174.68   66.99
   0   5  -6  351.66   93.69
  -5   0  -6  270.97   47.90
   5   0  -6  209.28   57.39
  -5   0  -6  308.07   42.50
   0   5   6  266.57   59.49
   0   5   6  402.06   67.89
   0   5   6  374.06   69.99
   0  -5   6  292.37   52.79
   5   0   6  341.67   93.99
   0  -5   6  295.87  104.89
  -5   0   6  326.67   44.30
   5  -1  -6 1936.81  237.28
   5  -1  -6 1354.86  171.18
   1   5  -6 1554.24  142.99
   5  -1  -6 1632.44  134.49
  -1  -5  -6 1666.63  200.88
  -5   1  -6 1653.63  130.09
   1   5  -6 1502.05  212.58
  -1  -5   6 1588.24  197.58
  -5   1   6 1661.13  138.39
   1   5   6 1864.31  164.78
   5  -1   6 1657.83  130.79
   5  -1   6 1638.64  140.69
   1   5   6 1426.46  149.09
   5  -2  -6  387.36   71.59
   2   5  -6  335.97   99.49
  -2  -5  -6  379.86   88.39
  -5   2  -6  455.35   84.19
  -5   2  -6  383.56   81.99
   2   5  -6  365.96   29.90
   5  -2  -6  253.17  109.99
  -5   2  -6  358.66   41.20
   2   5  -6  321.97   31.70
   5  -2  -6  374.26   50.49
   2   5  -6  292.07   54.79
   5  -2   6  344.17   48.30
  -2  -5   6  339.07   38.40
  -5   2   6  408.66   54.99
   2   5   6  413.26   92.79
  -2  -5   6  361.46   31.30
   2   5   6  408.36   80.49
   5  -2   6  413.06   54.39
  -2  -5   6  363.46   98.49
   3   5  -6 1198.58  140.19
  -5   3  -6 1533.05  118.39
   3   5  -6 1429.56  111.79
  -5   3  -6 1637.14  160.98
   3   5  -6 1307.27  143.19
   5  -3  -6 1401.86  132.59
  -3  -5  -6 1714.73  187.28
   3   5  -6 1514.05  195.88
   5  -3  -6 1443.56  221.88
  -3  -5  -6 1484.85  174.38
   3   5   6 1536.65  201.38
   3   5   6 1690.43  162.38
  -5   3   6 1635.94  150.78
   5  -3   6 1640.44  130.79
   3   5   6 1729.43  156.98
  -4  -5  -6  143.69   69.59
   4   5  -6  226.18   49.10
   4   5  -6  233.88   30.30
   5  -4  -6  169.78   42.80
  -5   4  -6  240.78   55.19
   4   5  -6  260.77  105.79
  -5   4  -6  251.77   31.50
  -4  -5  -6  236.08   76.79
  -4  -5   6  215.78   32.00
   5  -4   6  269.67   45.10
   4   5   6  170.88   58.89
  -5   4   6  219.38   52.89
   4   5   6  252.07   97.79
   4   5   6  244.18   57.49
  -5   4   6  401.56   89.69
  -4  -5   6  376.56  107.19
   5  -4   6  180.18   44.90
   5   5  -6  768.22  104.69
  -5  -5  -6  798.52  138.69
  -5  -5  -6 1129.59  172.28
  -5   5  -6  940.81   89.19
   5  -5  -6 1083.09  125.09
  -5   5  -6  950.10   85.09
  -5   5   6 1052.09  173.08
   5   5   6  962.70  128.29
  -5   5   6  792.32  103.59
  -5  -5   6  951.50   84.39
   5   5   6 1130.19  111.29
   5  -5   6  962.90  106.09
   5   5   6  914.11  173.98
   4  -6  -6  556.44  114.99
  -6  -4  -6  545.05  126.29
   4  -6  -6  596.44   96.39
  -4   6  -6  671.23   51.89
   6   4   6  660.33   84.09
  -6  -4   6  686.83   68.09
   4  -6   6  559.34   80.59
   4  -6   6  501.15   54.69
   6   4   6  740.73  106.89
  -3   6  -6  327.77   42.60
  -6  -3  -6  507.45  117.29
   6   3  -6  447.56   49.40
   6   3  -6  653.43  162.38
   3  -6  -6  449.36   71.59
  -3   6   6  450.55   74.59
   6   3   6  522.35   88.29
   3  -6   6  322.87   66.59
   3  -6   6  337.67   31.30
  -6  -3   6  408.96   52.29
   2  -6  -6  682.73  140.69
  -6  -2  -6  533.55  108.79
  -6  -2  -6  918.41  131.99
  -2   6  -6  753.82  129.69
  -2   6  -6  763.52   71.49
  -2   6  -6 1159.38  197.08
   6   2  -6  838.52   77.39
   2  -6  -6 1029.70  113.09
   2  -6   6  801.62   96.09
   6   2   6  810.52  102.59
   6   2   6  736.13   82.89
   1  -6  -6  282.17  101.09
  -1   6  -6  536.45  155.48
   6   1  -6  260.17   68.29
  -6  -1  -6  425.86   88.79
   6   1  -6  374.76   46.50
  -1   6  -6  308.77   48.90
  -6  -1  -6  262.37   70.59
  -1   6  -6  330.17   41.20
  -6  -1  -6  253.47   72.49
  -1   6  -6  371.96  107.39
   1  -6   6  448.06   67.99
   6   1   6  313.77   33.80
  -1   6   6  461.55   76.49
   6   1   6  217.68   56.69
  -6   0  -6  915.91  109.29
   0  -6  -6  912.81  144.39
   0   6  -6 1067.49  112.99
   6   0  -6 1064.39   96.09
   6   0  -6  893.41  121.39
  -6   0  -6 1148.69  143.49
  -6   0  -6 1064.39   96.59
   0   6  -6 1077.19  153.18
   6   0   6  919.21   86.69
   6   0   6 1097.89  112.59
   0  -6   6  992.60  115.19
  -6   0   6 1191.58  103.69
   0   6   6  989.00  125.69
   0   6   6 1316.77  145.59
   1   6  -6  368.46  106.59
  -6   1  -6  361.96   48.20
   6  -1  -6  397.26   54.09
  -1  -6  -6  544.15   93.49
   1   6  -6  317.37   51.09
  -6   1  -6  360.66   78.89
   1   6  -6  325.07   67.89
  -1  -6  -6  276.97   55.19
  -6   1  -6  446.56   77.39
   6  -1  -6  420.16  138.69
   1   6   6  356.36  109.99
  -6   1   6  449.76   56.39
   1   6   6  396.06   83.39
   6  -1   6  375.16   63.19
   6  -1   6  306.37   44.50
   1   6   6  330.27   70.39
  -1  -6   6  351.46  105.89
   1   6   6  431.56   85.39
  -1  -6   6  193.48   60.59
   2   6  -6  681.33  133.89
   2   6  -6  733.43   59.39
  -2  -6  -6  866.21  127.89
  -6   2  -6  824.32  111.69
   2   6  -6  762.62   57.69
   6  -2  -6  834.32   83.59
   6  -2  -6  993.40  178.78
  -2  -6  -6  911.71  130.59
  -6   2  -6  769.72   75.69
   2   6   6 1020.40  143.99
  -2  -6   6  719.53   59.49
  -2  -6   6  646.34   62.19
   2   6   6  831.22  112.69
   6  -2   6  847.72   89.69
  -6   2   6  811.92   87.29
  -2  -6   6  832.32  130.49
   6  -2   6  813.72   79.59
   6  -3  -6  391.26  134.39
   3   6  -6  379.06   44.30
  -3  -6  -6  259.27   87.09
   3   6  -6  429.36  120.69
  -6   3  -6  369.76   44.80
   6  -3  -6  327.87   60.89
  -6   3  -6  365.66  111.09
  -6   3  -6  408.76   78.59
  -3  -6  -6  388.46   98.19
  -3  -6   6  435.26   99.39
   3   6   6  331.27   82.69
   3   6   6  485.85   96.59
  -6   3   6  403.56   63.09
   6  -3   6  410.66   63.59
   6  -3   6  345.67   55.39
   3   6   6  440.46  112.39
  -4  -6  -6  375.66  108.49
  -4  -6  -6  798.22  123.99
   4   6  -6  562.24   55.69
   4   6  -6  611.74   79.19
  -6   4  -6  570.94   63.49
  -6   4  -6  827.52   88.39
   6  -4  -6  567.64  121.89
  -6   4  -6  682.23   94.49
   4   6  -6  779.52  172.88
   4   6   6  564.94   97.19
   4   6   6  562.14  147.39
  -4  -6   6  667.13   59.89
   4   6   6  565.84  102.69
  -6   4   6  563.54   81.29
   6  -4   6  601.94   76.29
  -7  -3  -6  755.02  141.69
  -7  -3  -6  992.40  151.18
   7   3  -6  930.11   88.59
   3  -7   6  924.11  113.19
   7   3   6  893.21  122.39
  -7  -3   6 1087.49   93.79
  -7  -3   6  894.41  128.39
   7   3   6  789.32  107.09
   7   2  -6  519.85  173.78
   2  -7  -6  439.86  107.99
  -7  -2  -6  336.27  104.29
  -7  -2  -6  293.57   83.59
   2  -7  -6  190.88   88.79
   2  -7   6  194.98   67.89
  -2   7   6  328.07   76.29
   7   2   6  202.78   61.99
   7   2   6  182.98   53.89
   1  -7  -6 1223.38  207.08
   1  -7  -6  982.90  158.28
  -7  -1  -6 1159.28  152.68
  -7  -1  -6  899.21  114.39
   7   1  -6 1080.69   97.69
  -1   7  -6 1046.40  163.78
   7   1   6  926.61   79.09
   7   1   6  897.81  112.69
   1  -7   6 1045.60  164.68
  -7   0  -6  246.88   46.00
   0  -7  -6  457.15  101.69
   0   7  -6  212.08   89.89
   0  -7  -6  193.68   53.49
  -7   0  -6  153.58   56.49
   7   0  -6  286.77   49.10
   7   0  -6  405.66  139.09
   0  -7   6  235.18   63.29
  -7   0   6  325.17   55.69
   0   7   6  373.36   97.19
   7   0   6  287.27   66.99
   0   7   6  317.07   81.09
   7   0   6  195.58   36.80
  -1  -7  -6 1191.98  153.08
   7  -1  -6  935.91  108.69
  -1  -7  -6  930.21  137.99
   7  -1  -6 1536.35  241.88
  -7   1  -6 1060.79  102.39
   1   7   6 1232.68  155.18
  -1  -7   6 1295.57  188.38
   7  -1   6 1155.08  123.69
  -7   1   6 1217.18  115.49
  -1  -7   6 1051.79  128.39
   7  -1   6 1027.10   96.59
  -1  -7   6  975.70   79.09
   1   7   6 1280.17  150.98
   1   7   6 1335.47  196.08
  -2  -7  -6  214.98   77.69
  -7   2  -6  319.67   92.99
  -7   2  -6  315.17   75.69
   2   7  -6  244.98   27.20
   2   7  -6  288.67  104.29
  -2  -7  -6  284.27   92.09
   2   7  -6  280.67   24.90
   7  -2   6  233.88   44.70
   2   7   6  426.76  108.39
  -7   2   6  262.77   58.19
   7  -2   6  226.58   57.29
  -2  -7   6  435.46   97.49
   2   7   6  263.67   92.49
   7  -3  -6 1131.89  211.98
  -3  -7  -6  827.62  148.99
   3   7  -6 1034.50  174.18
   7  -3  -6  896.11  100.79
  -3  -7  -6 1067.69  142.09
   3   7  -6  884.61   74.59
   7  -3   6  845.52   95.79
   7  -3   6 1011.50  110.09
  -3  -7   6 1071.99  147.29
   3   7   6 1199.48  164.38
   0   0  -7  884.81   74.29
   0   0  -7  819.02   82.99
   0   0  -7  613.24  114.49
   0   0   7  764.72   67.89
   0   0   7  691.83  101.19
   0   0   7  749.03   67.39
   0   0   7  658.63  129.99
   0  -1  -7 2091.69  150.28
   0  -1  -7 1939.51  153.38
  -1   0  -7 2031.40  225.38
   0   1  -7 1638.94  168.08
  -1   0  -7 1758.12  138.39
   1   0  -7 2021.50  172.68
   0   1  -7 1811.42  132.89
  -1   0  -7 1606.54  163.58
   1   0  -7 1810.02  139.19
   0  -1  -7 1474.55  199.78
   1   0  -7 1759.62  156.38
   0   1  -7 1423.66  188.58
   0   1  -7 1793.42  143.29
   0  -1  -7 2150.88  152.38
  -1   0  -7 1929.71  147.09
   0  -1   7 1741.73  131.59
  -1   0   7 1556.34  167.38
   0   1   7 1711.33  138.89
   0   1   7 1886.71  238.08
   1   0   7 1759.12  134.19
   0   1   7 2014.40  153.88
  -1   0   7 1554.04  201.58
  -1   0   7 1498.95  134.49
   1   0   7 1352.26  179.18
   0  -1   7 1696.63  222.58
   0  -1   7 1603.84  181.38
  -1   0   7 1686.63  154.38
   1   0   7 1857.41  139.49
   0  -1   7 1923.01  132.59
   0   1   7 1968.00  143.89
   0   1   7 1625.14  175.38
  -1   0   7 1991.80  143.09
  -1   1  -7  439.36   81.89
  -1  -1  -7  689.13  115.59
   1   1  -7  596.64   78.29
   1  -1  -7  510.55   95.09
  -1  -1  -7  447.36  117.29
  -1  -1  -7  607.44   61.79
  -1  -1  -7  615.14   76.29
   1  -1  -7  575.64   87.49
  -1   1  -7  708.43   65.09
   1  -1  -7  612.44   62.89
  -1   1  -7  741.83   96.09
  -1  -1  -7  653.03   70.69
   1   1  -7  695.73   58.99
  -1  -1   7  522.25   54.49
  -1  -1   7  596.04   81.69
  -1  -1   7  594.24  112.69
   1  -1   7  572.64   52.49
  -1   1   7  539.35   59.29
   1  -1   7  670.73   51.69
  -1  -1   7  532.85   83.29
  -1   1   7  534.55   67.89
   1   1   7  703.53   66.59
   1  -1   7  564.74  100.79
   1   1   7  554.24   94.59
  -1   1   7  668.13   66.39
  -1   1   7  600.94  116.19
   1   1   7  571.04   57.49
  -1   1   7  526.85   82.59
  -2  -1  -7 1458.95  129.19
   1  -2  -7 1286.47  167.58
   2   1  -7 1290.87  104.69
   2   1  -7 1346.27  131.49
  -2  -1  -7 1202.88  110.19
  -1   2  -7 1282.17  125.79
   1  -2  -7 1513.45  122.39
  -1   2  -7 1406.26  148.79
  -1   2  -7 1159.68  176.18
  -2  -1   7 1273.17  110.39
  -2  -1   7 1229.88  104.09
   1  -2   7 1382.46  171.58
  -2  -1   7 1222.68  163.88
  -1   2   7 1445.46  122.99
  -2  -1   7 1378.16  141.79
   2   1   7 1578.74  121.49
   2   1   7 1436.66  176.48
  -1   2   7 1544.85  194.48
  -1   2   7 1393.46  147.39
  -2  -1   7 1277.47  136.89
   0  -2  -7  287.47  122.99
   0  -2  -7  144.89   37.60
   2   0  -7  166.68   58.69
   0   2  -7  106.99   54.09
  -2   0  -7  108.89   23.10
  -2   0  -7   75.19   65.39
   2   0  -7  231.48  116.89
  -2   0  -7  124.09   55.29
   0   2  -7  341.37  118.59
  -2   0  -7  122.09   32.30
   0  -2  -7  241.08   92.69
   0   2  -7  105.29   47.50
   2   0  -7  120.59   25.10
  -2   0  -7   29.90   33.00
  -2   0  -7  225.28   85.69
   2   0  -7  168.58   37.20
   0  -2  -7  107.59   28.90
   0  -2  -7   45.60   52.69
   0   2   7  165.08   36.40
  -2   0   7  106.29   24.20
   0  -2   7   50.69   48.10
   0   2   7   74.39   41.60
   2   0   7  116.19   28.20
  -2   0   7   98.19   42.20
   0   2   7  172.98   92.39
   0   2   7  104.79   26.50
  -2   0   7   84.09   27.40
  -2   0   7  116.89   61.49
  -2   0   7  114.29   38.20
   2   0   7   66.79   17.60
   2   0   7   87.79   62.99
   0  -2   7  115.39   74.89
   0   2   7   93.79   27.00
   1   2  -7 1419.96  142.49
  -1  -2  -7 1285.67  110.89
   2  -1  -7 1145.09  104.79
   1   2  -7 1025.40  136.39
  -1  -2  -7 1631.84  130.89
  -2   1  -7 1225.68  144.89
  -1  -2  -7 1055.89  181.08
  -1  -2   7 1382.56   91.49
  -2   1   7 1026.60  102.19
  -2   1   7 1291.07  126.19
   2  -1   7 1181.88  165.08
  -1  -2   7 1360.16  149.19
  -2   1   7 1187.28  162.38
   1   2   7 1418.86  157.38
   1   2   7 1233.88  105.29
  -1  -2   7 1330.07  172.58
  -1  -2   7 1159.78   91.99
  -2  -2  -7   51.09   20.70
   2  -2  -7   96.59   92.39
  -2   2  -7   37.50   22.80
  -2   2  -7    0.10   32.60
  -2  -2  -7   16.00   19.90
   2   2  -7   60.29   13.80
  -2   2  -7    4.80   43.10
   2  -2  -7   29.40   26.10
   2   2  -7   24.20   28.60
  -2  -2  -7   30.50   57.09
  -2  -2  -7   69.99   33.00
   2  -2  -7   53.29   21.30
   2  -2  -7   38.80   44.10
   2   2   7   25.00   36.10
   2  -2   7   33.20   59.39
  -2   2   7   32.60   44.90
  -2  -2   7   24.30   16.50
  -2   2   7   48.30   21.90
  -2   2   7  109.29   44.40
  -2   2   7   44.30   32.90
   2  -2   7   45.90    9.10
  -2  -2   7   36.70   31.40
   2  -2   7   49.00   11.30
  -2  -2   7   62.39   45.40
   2  -2   7   55.99   26.00
  -2  -2   7   77.49   46.20
  -3  -2  -7 1346.57  190.68
  -2   3  -7 1384.06  140.59
   2  -3  -7 1405.36  128.79
  -3  -2  -7 1260.07  118.39
   2  -3   7 1240.18  122.69
  -3  -2   7 1112.09  113.29
  -2   3   7 1511.15  142.09
  -3  -2   7 1432.46  108.59
  -2   3   7 1309.27  123.49
  -3  -2   7 1460.05  208.58
  -3  -2   7 1474.65  143.49
  -3  -2   7 1581.54  165.58
  -2   3   7 1526.95  192.28
   3   2   7 1500.85  132.79
  -3  -1  -7  542.05   75.79
   1  -3  -7  718.93   77.49
   3   1  -7  659.63   58.49
  -3  -1  -7  587.44   68.09
  -1   3  -7  437.36  109.29
  -1   3  -7  604.44   85.99
   1  -3  -7  532.95  113.39
  -3  -1  -7  484.25  116.39
  -1   3  -7  616.14   87.29
   1  -3  -7  789.12   83.99
  -3  -1   7  656.93   96.09
  -3  -1   7  744.33  119.19
  -3  -1   7  543.05   65.69
  -1   3   7  833.42  149.39
  -1   3   7  733.53   74.99
   3   1   7  601.94   71.59
  -3  -1   7  670.23   83.79
  -1   3   7  661.63   76.29
  -1   3   7  772.22   99.19
   1  -3   7  502.05   69.09
   3   1   7  483.05  126.19
  -3  -1   7  633.64   59.29
   0  -3  -7 1718.03  228.18
   3   0  -7 1809.52  143.79
   0   3  -7 1850.71  179.38
   3   0  -7 1812.52  158.18
   0  -3  -7 2131.99  164.38
  -3   0  -7 1671.43  216.88
  -3   0  -7 1737.23  142.49
   0   3   7 1778.42  185.98
  -3   0   7 1668.13  143.59
   0  -3   7 2031.00  238.98
  -3   0   7 2110.09  216.58
   3   0   7 1777.42  148.99
  -3   0   7 2179.98  181.58
   3   0   7 1787.22  221.68
   0  -3   7 1914.61  203.28
  -3   1  -7  586.34   54.79
   3  -1  -7  633.14   63.49
  -1  -3  -7  629.84   71.49
   1   3  -7  497.95   86.29
  -3   1  -7  630.04  122.19
   3  -1  -7  745.23   80.19
  -1  -3  -7  707.23   65.49
   1   3  -7  642.44   93.99
   3  -1  -7  746.33  121.79
  -1  -3   7  438.96  103.19
   3  -1   7  526.15   57.19
  -3   1   7  695.63  111.09
   1   3   7  698.53   67.99
   1   3   7  564.64   99.09
  -3   1   7  631.34  111.69
   3  -1   7  572.64   63.39
  -3   1   7  551.34   62.49
   3  -1   7  457.15  127.69
   1   3   7  660.03   56.89
  -1  -3   7  623.24   99.39
   3  -1   7  577.54   60.79
  -3   2  -7 1165.08  103.99
  -3   2  -7 1281.17  172.08
  -3   2  -7 1593.24  145.79
   2   3  -7 1326.47   95.19
   3  -2  -7 1657.33  139.39
  -3   2  -7 1277.37  120.39
   2   3  -7 1666.13  172.38
  -2  -3  -7 1253.77  118.39
   3  -2  -7 1255.07  122.29
   2   3  -7 1315.87   99.39
   3  -2  -7 1480.85  181.58
  -3   2   7 1292.07  168.48
   3  -2   7 1312.17  116.59
   3  -2   7 1138.09   96.49
  -3   2   7 1483.45  145.99
  -3   2   7 1199.18  115.49
  -2  -3   7 1287.37  146.59
   2   3   7 1274.07  187.48
   3  -2   7 1333.57  103.29
  -2  -3   7 1236.38  167.98
  -2  -3   7 1255.77   99.89
  -2  -3   7 1334.77   96.99
  -3   3  -7  470.55   74.39
   3   3  -7  341.87   67.49
  -3  -3  -7  482.65  117.89
   3   3  -7  615.54   47.30
  -3  -3  -7  592.24   93.29
  -3  -3  -7  434.56   58.99
  -3   3  -7  448.86   98.69
  -3   3  -7  560.84  108.49
   3   3  -7  665.63  108.19
   3  -3  -7  455.05   61.49
  -3  -3   7  420.86   54.49
  -3   3   7  453.45   98.99
  -3  -3   7  556.04   48.20
  -3  -3   7  525.25   86.19
  -3   3   7  505.05   81.49
   3   3   7  620.14  122.59
  -3  -3   7  574.74  104.29
   3   3   7  655.53   78.69
  -3   3   7  446.96   60.79
   3  -3   7  439.16   38.00
   3  -3   7  499.85   63.19
  -3   4  -7 1084.19  131.19
  -4  -3  -7  918.51  126.59
  -4  -3  -7 1267.77  173.48
  -3   4  -7 1138.39  139.39
   4   3  -7 1088.49   91.49
  -4  -3  -7 1098.79  104.29
   3  -4  -7  793.62  129.79
   3  -4  -7  905.31  104.29
  -3   4   7  995.10  106.49
   4   3   7 1097.99  170.68
  -3   4   7 1060.89  156.68
   4   3   7 1208.88  121.99
   3  -4   7 1007.20  105.49
  -4  -3   7 1174.68  122.09
   2  -4  -7  138.79   38.60
  -4  -2  -7   79.89   46.90
   4   2  -7  174.88   27.20
  -2   4  -7   71.59   54.69
  -4  -2  -7   83.99   58.29
  -4  -2  -7  202.18   35.70
   4   2  -7  309.97  103.69
   2  -4  -7  238.38   61.09
   2  -4  -7  388.66  134.19
  -2   4  -7  145.09   54.59
  -4  -2   7  182.28   49.60
  -4  -2   7  188.48   30.20
  -2   4   7  207.18   49.99
   4   2   7   13.60   70.09
  -4  -2   7  291.47   95.99
   4   2   7  128.29   46.40
   2  -4   7  170.88   44.10
  -2   4   7  151.18   55.69
  -2   4   7  217.98   92.09
   1  -4  -7 1214.48  114.79
   1  -4  -7 1227.38  117.29
   1  -4  -7  851.01  154.18
   4   1  -7  936.21   92.19
  -1   4  -7  997.20  123.29
  -4  -1  -7 1068.89  154.78
  -1   4  -7 1059.09  127.19
  -4  -1  -7  941.11   91.99
   4   1   7  974.60  143.49
   4   1   7  991.40  165.38
   1  -4   7  903.11  104.79
  -4  -1   7 1044.00   90.59
  -1   4   7 1098.09  108.89
  -4  -1   7 1144.59  116.89
  -1   4   7 1022.40  110.79
   0   4  -7  284.37   50.99
   4   0  -7  150.48   35.60
  -4   0  -7  199.58   32.90
   4   0  -7  294.77   99.39
   0  -4  -7  135.69   82.79
   0   4  -7  175.08   58.19
  -4   0  -7  158.38   66.49
   0  -4  -7  214.48   49.50
   0  -4  -7  278.57   60.19
   0   4  -7  195.48   70.99
   4   0  -7  128.39   46.50
   0  -4  -7  412.46  120.29
   4   0   7  176.48   40.70
  -4   0   7  370.46   80.79
  -4   0   7  181.38   33.60
   4   0   7   93.19   64.89
   0   4   7  147.39   57.89
  -4   0   7  328.97   95.59
   0   4   7  200.98   41.30
   0   4   7  274.87   55.69
   0  -4   7  195.18   83.49
  -4   1  -7  952.80   82.69
   1   4  -7  917.31  128.29
   4  -1  -7  927.61   88.49
   4  -1  -7  915.71  106.69
   4  -1  -7 1257.87  168.18
   1   4  -7  740.83  112.69
  -4   1  -7 1140.29   84.39
  -4   1  -7  791.02  155.68
  -1  -4  -7 1074.79  105.29
   1   4   7 1255.17  115.79
  -1  -4   7  936.71  149.88
   1   4   7 1006.80  133.79
   4  -1   7  960.60   88.49
  -4   1   7  950.10   91.19
   4  -1   7  861.31   88.99
   4  -2  -7  140.89   35.70
  -4   2  -7  193.08   25.90
  -2  -4  -7   94.09   67.29
  -2  -4  -7  204.68   45.20
   2   4  -7  227.88   77.29
  -4   2  -7   86.19   28.00
  -2  -4  -7  267.87   67.59
  -2  -4   7  181.18   17.80
   2   4   7  181.78   48.80
   4  -2   7  138.19   31.10
   2   4   7  137.29   31.20
   4  -2   7  156.38   35.70
   2   4   7  175.98   36.60
  -4   2   7  201.28   74.59
  -2  -4   7  152.48   17.50
   4  -2   7  115.39   23.00
  -4   2   7  139.09   38.00
   2   4   7  189.58   72.89
   3   4  -7 1253.77  163.88
  -3  -4  -7 1103.39  171.78
   4  -3  -7  970.50  104.09
   4  -3  -7 1042.00  204.38
  -3  -4  -7 1230.38  141.69
   3   4  -7 1158.68   84.79
  -4   3  -7 1084.69   85.19
   3   4  -7 1088.49   92.89
  -4   3  -7 1104.89  142.89
  -3  -4   7 1111.09  154.78
  -3  -4   7 1133.89  124.09
   3   4   7 1336.07  129.29
  -4   3   7  916.91  104.59
  -4   3   7 1256.97  161.28
  -3  -4   7 1045.80   92.19
   4  -3   7 1256.67   92.39
   3   4   7 1045.70   89.99
   3   4   7 1245.58   91.69
   3   4   7 1204.78  171.78
   4  -3   7  961.40   83.99
   4   4  -7   71.69   17.90
   4  -4  -7   74.39   31.50
  -4   4  -7   79.09   81.39
  -4  -4  -7   71.29   58.09
  -4   4  -7   55.59   39.10
   4   4  -7   14.30   23.90
   4   4  -7  144.79   68.39
  -4  -4  -7   45.20   60.29
  -4  -4   7  119.19   68.99
  -4   4   7   68.39   30.00
   4  -4   7   38.20   12.40
   4   4   7   55.89   17.10
  -4   4   7   16.20   46.70
   4  -4   7   40.70   27.30
   4  -4   7   50.29   15.00
  -5  -4  -7  636.04  131.69
   4  -5  -7  495.15  101.79
  -5  -4  -7  729.53  131.89
  -4   5  -7  677.23   91.79
   5   4  -7  667.23   60.69
   4  -5  -7  694.83   89.19
   5   4  -7  472.35   80.19
  -4   5   7  679.43   86.69
   4  -5   7  580.34   46.80
   5   4   7  746.53  104.49
  -4   5   7  726.93  226.08
   4  -5   7  656.73   83.69
   5   4   7  609.04  164.88
   5   4   7  671.23   60.39
  -3   5  -7  237.48   63.69
  -5  -3  -7  306.17   95.19
   5   3  -7  555.74  138.59
   5   3  -7  375.56   43.40
  -3   5  -7  279.67   79.79
   3  -5  -7  380.16   61.99
  -5  -3  -7  285.67   81.99
   5   3   7  142.69   97.69
   5   3   7  366.26   78.59
   3  -5   7  195.68   53.39
  -3   5   7  286.17   96.59
  -3   5   7  335.27   60.59
  -5  -3   7  378.46   65.19
  -2   5  -7  673.33  106.59
  -2   5  -7  653.03  115.79
  -5  -2  -7  525.95  111.29
   5   2  -7  805.72   73.09
  -5  -2  -7  891.81  144.69
   2  -5  -7  724.93  143.09
   2  -5  -7  932.11  100.69
  -5  -2   7  875.61   97.69
   2  -5   7  724.03   90.99
  -2   5   7 1019.90  102.69
   5   2   7  673.13  171.28
  -5  -2   7  854.61  106.09
   5   2   7  800.82   98.09
   5   1  -7  524.05  116.69
  -1   5  -7  454.35   75.79
  -1   5  -7  426.16   85.49
   5   1  -7  346.47   45.30
  -5  -1  -7  316.47   98.09
  -5  -1  -7  375.46   50.89
   1  -5  -7  474.35   76.19
  -5  -1   7  371.86   50.19
   5   1   7  326.67   60.29
  -5  -1   7  512.35   76.79
  -1   5   7  485.75   70.79
  -1   5   7  332.37   63.69
  -1   5   7  477.05   87.89
   1  -5   7  308.77   64.69
  -5   0  -7 1126.99   96.69
   0   5  -7 1395.06  149.29
   0  -5  -7  802.32  165.48
   5   0  -7 1105.59   95.39
   5   0  -7  892.01  118.39
   0   5  -7  931.41  161.48
   0   5  -7  922.61  143.19
  -5   0  -7 1021.60  151.38
   0  -5   7 1201.28  185.28
  -5   0   7 1180.18  100.39
   0   5   7 1103.79  116.79
   0   5   7 1054.99  135.09
   5   0   7  996.10  113.49
   0  -5   7  962.50  112.79
  -5   1  -7  377.66   43.90
   1   5  -7  255.87   76.39
   5  -1  -7  359.86   48.80
   1   5  -7  277.17   87.09
  -5   1  -7  420.96   91.99
  -1  -5  -7  229.98   97.49
  -1  -5  -7  444.66   87.89
  -5   1  -7  336.87   50.89
   5  -1  -7  390.36  126.39
   1   5  -7  310.97   67.79
   1   5   7  275.27   77.19
   1   5   7  266.07   55.49
  -5   1   7  346.37   52.09
   5  -1   7  343.77   46.80
   1   5   7  318.37   93.29
   5  -1   7  316.97   52.19
  -1  -5   7  343.07  106.29
   5  -2  -7  703.93   79.29
  -5   2  -7  621.94   82.89
  -5   2  -7  857.81  129.19
   2   5  -7  835.32  132.49
  -2  -5  -7  728.43  144.99
  -2  -5  -7  912.91  120.29
   2   5  -7  632.14   94.19
  -5   2  -7  754.02   69.49
   5  -2  -7  792.62  161.08
  -5   2   7  786.52   84.79
   5  -2   7  850.11   82.09
   2   5   7  920.91  106.79
   5  -2   7  739.23   78.99
   2   5   7  988.40  137.59
  -2  -5   7  775.22  128.29
   2   5   7  719.23   86.19
  -3  -5  -7  331.37   90.39
   5  -3  -7  322.37   52.59
   3   5  -7  421.46  114.59
  -5   3  -7  384.66   96.19
  -5   3  -7  335.07   80.99
  -3  -5  -7  305.47   98.69
   3   5  -7  335.27   34.90
  -5   3  -7  289.37   37.70
   3   5  -7  321.77   30.70
   5  -3   7  280.17   53.79
  -5   3   7  340.57   55.49
   3   5   7  350.06   79.19
   3   5   7  323.17  105.89
   3   5   7  427.66   73.79
  -3  -5   7  379.06  105.99
   5  -3   7  311.07   46.70
  -5   4  -7  722.13   60.49
   4   5  -7  640.04   59.79
  -4  -5  -7  620.34  116.69
  -4  -5  -7  762.82  147.19
   5  -4  -7  610.34   82.59
  -5   4  -7  732.93  106.99
   4   5  -7  689.13   95.59
   4   5   7  795.62  150.98
   4   5   7  716.33  106.99
   5  -4   7  650.03   84.19
  -4  -5   7 1024.90  150.28
  -5   4   7  800.92  131.19
   4   5   7  833.72   81.69
  -5   4   7  622.34   86.19
   5   5  -7  264.67   36.60
  -5  -5  -7  325.97  103.39
  -5   5  -7  268.27   32.20
   5   5  -7  486.65  134.99
  -5   5  -7  233.58   63.69
  -5  -5  -7  190.78   92.09
   5  -5  -7  244.78   57.89
   5   5   7  210.78  104.79
   5   5   7  181.18   68.39
   5  -5   7  279.17   58.89
  -5   5   7  421.66   86.49
  -5  -5   7  500.65  114.69
   4  -6  -7   51.69   60.79
   4  -6  -7  107.09   45.50
  -6  -4  -7   55.39   70.09
   6   4  -7   97.19   79.59
  -6  -4  -7  -12.30   50.09
   6   4  -7   35.10   21.50
  -6  -4   7  137.69   82.19
  -4   6   7  193.48   81.59
   4  -6   7  100.19   40.30
  -4   6   7  211.48   76.99
   6   4   7   61.99   52.89
  -6  -3  -7  729.73  128.49
   3  -6  -7  822.22  158.58
  -3   6  -7  852.11  142.89
  -6  -3  -7 1085.59  188.68
  -3   6   7 1052.59  118.69
   6   3   7  956.90  120.19
  -6  -3   7 1095.69  110.29
  -6  -2  -7   30.60   53.59
   6   2  -7   80.49   24.60
  -6  -2  -7  134.69   67.39
   2  -6  -7   56.39   62.99
   6   2  -7  -25.10   44.30
   6   2  -7  141.49  100.49
  -2   6  -7   57.79   65.39
  -2   6   7  162.78   53.09
  -6  -2   7  217.58   90.59
  -2   6   7  304.87  108.09
  -6  -2   7  179.28   51.09
   6   2   7   35.00   42.20
  -6  -2   7   89.19   30.60
  -6  -1  -7 1066.29  164.38
   6   1  -7 1096.49  100.99
  -1   6  -7 1171.08  164.48
   1  -6  -7 1459.45  144.29
  -6  -1  -7 1109.89  140.59
   1  -6   7  983.40  159.58
   6   1   7 1045.80  122.39
  -1   6   7 1322.47  133.99
  -6  -1   7 1083.69  106.59
   0   6  -7    8.70   43.90
   0  -6  -7   76.79   49.10
   0   6  -7   91.29   62.89
  -6   0  -7   33.90   47.20
   0  -6  -7   48.30   65.39
   6   0  -7   51.99   22.80
   6   0  -7  135.29   88.29
   0  -6  -7  106.59  102.89
  -6   0  -7   12.00   21.70
   6   0  -7   12.50   43.70
  -6   0  -7   28.50   32.90
  -6   0  -7   58.59   25.70
   0   6   7   50.89   38.00
   0   6   7   98.59   43.20
   6   0   7   23.10   34.90
  -6   0   7   50.49   25.90
   6   0   7   21.20   18.60
  -6   0   7  118.59   66.89
   0   6   7   25.40   50.29
  -6   0   7  106.59   57.99
   0  -6   7   20.30   32.70
   1   6  -7  831.22  104.29
   1   6  -7  918.01  147.49
  -6   1  -7 1053.79  149.19
  -1  -6  -7 1044.90  172.78
  -6   1  -7 1029.20   92.49
   6  -1  -7 1174.68  110.19
   1   6   7 1286.67  160.48
   6  -1   7  869.41  136.59
   1   6   7  888.41  112.89
  -6   1   7 1062.99  101.99
   2   6  -7   47.90   38.90
  -6   2  -7  116.09   49.80
   6  -2  -7  126.09   37.20
  -6   2  -7   76.69   38.90
  -2  -6  -7   62.29   62.89
  -2  -6  -7  135.69   76.79
  -6   2  -7  127.19   28.10
   2   6  -7   67.79   66.89
  -6   2  -7   93.79   52.59
   6  -2  -7   88.99   98.29
   2   6   7   81.79   58.09
   2   6   7  151.78   58.79
   2   6   7  100.89   62.89
   6  -2   7   51.29   34.00
  -6   2   7  220.68   90.19
   2   6   7   83.79   59.59
  -6   2   7  119.59   36.30
   6  -2   7   63.39   28.90
  -2  -6   7   93.99   69.29
   6  -3  -7 1095.49  237.08
  -6   3  -7 1136.99  110.19
   6  -3  -7  977.40  108.99
   3   6  -7  739.63   69.79
  -3  -6  -7 1071.79  163.38
   3   6  -7 1038.60  166.08
  -6   3  -7  889.91  131.19
  -6   3  -7  922.91  151.08
   3   6  -7  855.21   65.59
  -6   3   7  823.92   98.79
   6  -3   7  773.92   91.19
   3   6   7 1110.29  132.69
   3   6   7  907.71  158.98
  -3  -6   7  799.72  137.99
   6  -3   7  880.91   92.69
   3   6   7  910.31  116.89
  -4  -6  -7   74.89   68.59
   4   6  -7   81.99   72.39
  -4  -6  -7   26.30  102.39
  -6   4  -7   83.09   28.10
   6  -4  -7   56.09   33.80
   4   6  -7   52.39   15.10
  -6   4  -7   51.19   45.60
   4   6   7   74.49   82.19
   4   6   7    9.10   56.99
   4   6   7    7.80   38.40
  -6   4   7  171.98   88.19
  -6   4   7  128.79   60.89
  -4  -6   7  124.79   62.79
   6  -4   7   39.30   28.40
   7   1  -7  284.07  112.19
  -7  -1  -7  196.98   85.59
   7   1  -7  338.77   46.60
   1  -7  -7  447.46   95.49
   1  -7  -7  158.18   90.89
  -1   7   7  420.66   96.19
  -1   7   7  388.76  122.39
   1  -7   7  268.57   68.99
   0   7  -7  778.12  161.28
  -7   0  -7  719.33  131.69
   7   0  -7 1022.20  183.18
   0  -7  -7  511.05  143.49
   0  -7  -7  973.20  125.99
   7   0  -7  679.13   76.69
   0  -7   7  565.54   92.49
  -7   0   7  820.52   85.99
   0   7   7  832.42  125.29
   0   7   7  858.81  119.19
   7   0   7  584.44   91.79
   7   0   7  557.04   66.59
   7  -1  -7  302.57   49.70
   7  -1  -7  428.06  148.09
  -1  -7  -7  251.37   87.19
  -1  -7  -7  276.77   79.69
   1   7  -7  396.06  143.19
   7  -1   7  172.38   39.40
   1   7   7  358.06  135.79
  -1  -7   7  329.37  109.09
   1   7   7  321.27   93.99
  -7   1   7  268.27   57.49
   7  -1   7  180.18   57.19
   0   0  -8  554.44  116.39
   0   0  -8  766.32   70.59
   0   0  -8  727.73   98.09
   0   0  -8  595.24   73.59
   0   0  -8  785.42   71.59
   0   0   8  535.85   97.89
   0   0   8  683.13  140.19
   0   0   8  714.73   64.09
   0   0   8  678.03   63.99
   0  -1  -8 2127.69  150.58
   0  -1  -8 1490.65  208.88
   0   1  -8 1932.21  133.19
  -1   0  -8 1393.36  215.38
  -1   0  -8 1790.32  168.48
   0   1  -8 1848.42  132.19
   0   1  -8 1404.16  192.38
   0   1  -8 1678.03  167.98
   1   0  -8 2019.60  144.69
   1   0  -8 2001.90  173.28
   1   0  -8 1622.44  154.68
   0  -1  -8 1885.21  155.68
   1   0  -8 1897.91  139.79
  -1   0  -8 1969.80  140.09
  -1   0   8 1407.06  168.98
   0   1   8 1719.03  140.19
   0   1   8 1564.54  179.38
   1   0   8 1654.83  192.38
   1   0   8 1656.83  136.09
   0  -1   8 1733.93  129.49
  -1   0   8 1611.44  153.68
  -1   0   8 1607.94  134.29
   0  -1   8 1573.84  184.48
   0  -1   8 1821.62  237.28
   0   1   8 1862.11  145.79
  -1   0   8 1479.15  206.48
   0   1   8 1886.51  247.08
  -1   0   8 1816.72  139.79
   0   1   8 1671.03  136.39
   0  -1   8 1769.82  130.29
  -1  -1  -8   -2.30   20.80
   1   1  -8   -5.30   44.30
  -1   1  -8  -12.70   32.20
   1   1  -8    5.20   26.40
   1   1  -8   24.30   11.70
   1   1  -8   25.40   27.10
  -1   1  -8   -6.90    9.60
  -1  -1  -8   48.30   22.30
  -1   1  -8   19.50   16.20
  -1   1  -8    3.40   33.40
   1  -1  -8    2.80   28.20
   1  -1  -8   13.80   21.80
  -1  -1  -8   12.10   16.80
  -1   1   8    1.80   31.10
  -1  -1   8  -20.30   23.40
  -1  -1   8    1.90   28.40
   1  -1   8  -15.20    9.00
  -1  -1   8   -5.70   13.30
   1   1   8   -8.00   30.00
   1  -1   8  -14.90   37.40
   1   1   8   24.80   20.40
   1  -1   8    2.30   12.30
  -1   1   8    8.90   20.00
  -1   1   8    5.60   19.40
  -1   1   8   30.70   17.80
   2   1  -8 1159.58   95.79
  -2  -1  -8 1068.89  101.99
   1  -2  -8  969.00  154.18
  -2  -1  -8 1038.50  118.19
  -1   2  -8 1213.98  182.08
   2   1  -8 1136.69  104.89
  -1   2  -8 1303.97  117.99
   1  -2   8 1062.89  160.48
  -2  -1   8  912.61  153.58
  -1   2   8 1430.46  197.78
  -2  -1   8 1330.97  138.79
   2   1   8 1317.77  168.28
  -2  -1   8 1114.09   95.09
  -2  -1   8 1226.38  133.69
  -1   2   8 1215.28  141.29
   2   1   8 1413.06  111.29
  -1   2   8 1411.76  110.99
  -1   2   8 1086.89  110.39
  -2  -1   8 1320.27  103.99
   2   0  -8  164.98   58.89
   0  -2  -8  105.29   64.69
   0  -2  -8  118.89   30.90
   2   0  -8  111.19   31.80
  -2   0  -8   76.09   21.60
  -2   0  -8   14.40   39.40
   2   0  -8  153.28   26.20
   0  -2  -8  121.49   29.10
   0   2  -8   54.79   49.10
   0   2  -8  182.88   49.30
  -2   0   8   86.49   53.69
  -2   0   8   82.69   41.90
   0   2   8   91.99   46.40
   0   2   8   82.09   49.30
  -2   0   8   97.69   42.20
   0   2   8  110.99   26.90
   2   0   8   87.49   20.90
  -2   0   8   86.49   21.10
   2   0   8  106.29   27.40
   0  -2   8  122.79   65.69
   2   0   8  102.39   67.59
   2  -1  -8 1438.96  154.58
  -1  -2  -8 1187.28  189.38
  -1  -2  -8 1344.47  111.59
  -2   1  -8  822.72  171.88
   2  -1  -8 1187.28  104.69
  -2   1  -8 1009.80   97.39
  -1  -2   8 1173.08   88.79
  -1  -2   8 1373.36   88.19
  -2   1   8 1045.90  164.48
   2  -1   8 1163.18   91.99
   1   2   8 1256.27  152.38
  -1  -2   8 1246.38  150.18
  -1  -2   8 1103.39  167.88
  -2   1   8 1186.88  125.29
   2  -1   8  958.60  191.88
  -2   1   8 1113.69  133.99
   1   2   8 1531.95  154.78
  -2   1   8 1172.68  103.79
  -2  -2  -8   54.89   23.00
   2  -2  -8   60.89   23.80
  -2  -2  -8   87.09   35.60
   2   2  -8   -3.00   16.10
  -2  -2  -8  -22.80   21.30
   2   2  -8   96.49   47.20
  -2   2  -8   25.00   22.10
  -2   2  -8  -47.70   40.70
  -2  -2  -8  -41.70   49.80
   2  -2  -8   50.69   39.10
   2  -2  -8   93.09   48.40
   2  -2   8  -29.30   49.99
  -2   2   8   39.80   32.40
   2   2   8   43.40   29.60
   2   2   8   12.50   48.10
  -2  -2   8   10.40   36.20
  -2  -2   8  -26.50   25.00
  -2  -2   8    4.70   33.20
  -2   2   8    7.20   26.60
  -2   2   8   45.90   22.60
  -3  -2  -8 1069.19  108.29
   2  -3  -8 1029.50  155.28
  -3  -2  -8 1469.65  136.49
   3   2  -8  976.70  106.99
   3   2  -8 1218.48   97.09
  -2   3  -8 1258.07  128.49
   2  -3  -8 1379.66  120.39
  -3  -2  -8 1065.09  194.68
   3   2   8 1388.96  121.29
  -2   3   8 1318.27  130.69
  -2   3   8 1292.97  117.59
   3   2   8 1352.66  185.78
  -3  -2   8 1186.98   98.19
   2  -3   8 1238.48  132.69
  -3  -2   8 1191.98  168.38
  -3  -2   8 1208.78  137.29
   1  -3  -8  -14.80   35.00
   1  -3  -8  -14.90   26.10
   1  -3  -8   27.70   22.10
  -3  -1  -8   44.80   30.00
  -1   3  -8   -5.60   24.90
   3   1  -8  -10.40   19.80
   3   1  -8   28.50   37.60
  -1   3  -8  -11.00   56.19
  -3  -1  -8  -19.30   35.10
  -3  -1  -8   31.00   17.80
  -3  -1   8   28.00   15.40
   3   1   8   -2.70   20.20
  -1   3   8   34.90   33.70
  -1   3   8    2.30   23.00
  -3  -1   8   -3.80   18.90
   3   1   8   35.50   57.69
   1  -3   8   11.60   49.99
  -3  -1   8    3.80   24.70
  -3  -1   8   26.40   37.00
  -1   3   8  -11.60   56.99
  -1   3   8   24.30   19.70
   0   3  -8 1747.33  169.48
   0  -3  -8 1979.30  153.18
   0   3  -8 1647.94  197.38
  -3   0  -8 1376.36  129.19
   0  -3  -8 1546.85  222.38
   3   0  -8 1668.93  160.78
   3   0  -8 1914.91  152.78
  -3   0   8 1794.62  174.88
   3   0   8 1708.63  137.89
   0  -3   8 1743.63  226.68
   0  -3   8 1483.95  195.38
   0   3   8 1633.94  180.98
  -3   0   8 1384.96  159.68
   3   0   8 1300.57  196.58
  -3   0   8 1381.66  130.99
   0   3   8 1867.21  148.89
   0   3   8 1870.41  141.59
  -3   0   8 1719.53  209.28
  -3   1  -8    6.10   11.50
  -1  -3  -8   42.90   30.30
  -1  -3  -8    6.00   16.60
   3  -1  -8  -17.20   25.80
  -3   1  -8   13.20   17.70
  -1  -3  -8   54.49   23.60
   1   3  -8   31.30   38.00
  -3   1  -8  -52.39   44.40
   1   3  -8   96.59   56.39
  -1  -3  -8  -13.60   48.50
   3  -1  -8  -49.10   42.30
   1   3  -8   27.80   34.60
   3  -1  -8   58.49   21.30
  -3   1   8   -0.70   34.80
  -3   1   8   17.80   14.40
   3  -1   8  -14.30   16.30
   3  -1   8   23.70   50.59
   3  -1   8    7.70   11.20
  -1  -3   8  -34.70   40.40
   1   3   8   42.20   29.80
   1   3   8    7.40   38.00
  -1  -3   8  -12.90   38.90
  -3   1   8  -12.70   28.10
  -3   1   8   33.50   30.80
  -2  -3  -8  845.12  185.98
   3  -2  -8 1397.26  174.88
   3  -2  -8 1049.30  104.09
  -2  -3  -8 1082.59  106.99
  -3   2  -8 1172.88  102.29
  -2  -3   8 1204.58   85.09
  -3   2   8 1035.00  103.69
  -3   2   8 1277.57  136.79
   3  -2   8 1018.30   93.09
   3  -2   8 1280.67   90.59
   3  -2   8 1080.99  106.59
  -3   2   8 1095.69  160.68
  -2  -3   8 1025.70  159.48
   2   3   8 1170.98  157.68
  -2  -3   8 1316.87  151.78
  -2  -3   8 1097.99   83.29
   3   3  -8   35.40   40.50
   3   3  -8   23.60   11.60
  -3  -3  -8  -24.60   56.19
  -3   3  -8  -28.50   52.39
  -3  -3  -8   19.10   21.30
  -3  -3  -8   41.50   34.80
   3  -3  -8   22.90   19.60
  -3   3  -8    6.60   26.00
   3  -3  -8   33.20   34.60
  -3   3  -8   14.70   47.50
   3   3  -8    2.10   15.70
   3  -3  -8  -38.80   29.70
  -3  -3   8  -32.30   37.40
  -3  -3   8    0.50   42.20
   3  -3   8   -9.70   18.00
  -3   3   8   14.10   19.40
   3   3   8    9.40   38.50
  -3   3   8   16.80   33.10
  -3   3   8   12.80   39.30
   3   3   8   -0.60   28.20
  -3   4  -8 1000.90  126.99
   3  -4  -8  839.82  141.99
  -4  -3  -8 1152.58  136.89
   4   3  -8 1055.89   85.19
  -4  -3  -8  970.40  182.68
   4   3  -8  940.91  102.09
  -4  -3  -8 1028.60  102.99
   3  -4  -8 1076.19  109.09
  -3   4   8 1074.99  109.29
   4   3   8 1002.90  168.98
  -4  -3   8 1126.09   89.59
   4   3   8 1254.97  126.29
  -3   4   8 1052.19  164.98
   3  -4   8  793.92  101.89
  -4  -3   8 1132.09  126.69
   2  -4  -8   89.59   58.39
   4   2  -8   94.79   39.00
  -2   4  -8   97.29   50.59
   4   2  -8  180.98   78.99
  -4  -2  -8  113.99   29.30
   2  -4  -8  144.59   42.60
  -4  -2  -8  105.59   47.60
  -4  -2  -8  162.48   91.69
   4   2  -8  148.29   26.40
  -2   4  -8   18.50   57.09
  -2   4   8  220.08   71.79
  -4  -2   8  186.18   84.19
  -4  -2   8  114.19   25.90
   2  -4   8  103.19   41.80
  -2   4   8  158.48   37.80
  -4  -2   8  107.69   48.90
   4   2   8   35.10   70.19
  -2   4   8  156.48   57.59
   4   2   8  113.69   44.10
   4   1  -8  929.61  106.99
   4   1  -8 1026.00   87.09
  -4  -1  -8  977.60  110.09
   1  -4  -8 1048.10  170.68
  -1   4  -8 1054.89  127.59
  -4  -1  -8  690.53  158.78
   1  -4  -8 1236.68  113.49
   1  -4  -8 1202.38  120.99
  -1   4  -8  863.91  155.78
  -4  -1  -8  971.70   91.39
  -4  -1   8  820.12  108.99
   1  -4   8  785.32  100.19
  -4  -1   8  959.10   88.39
  -1   4   8 1064.09  137.29
  -1   4   8 1118.49  107.19
  -1   4   8 1079.79  110.69
   4   1   8  947.81  172.88
   0  -4  -8  205.88   50.99
   0  -4  -8  187.48   50.89
   4   0  -8  128.09   43.20
  -4   0  -8  167.68   30.10
   0   4  -8  130.69   67.59
   0   4  -8  322.27   62.89
   0   4  -8  190.18   67.09
  -4   0  -8   77.89   71.99
   0  -4  -8   68.69   70.49
   4   0  -8  210.28   33.70
  -4   0   8  153.68   68.29
   4   0   8  165.08   40.10
  -4   0   8  213.28   37.30
   0   4   8  182.78   44.10
   4   0   8   90.09   85.69
   0  -4   8  171.88   90.89
   0   4   8  137.09   63.49
   0   4   8  123.39   39.10
   1   4  -8  910.51  129.59
  -1  -4  -8 1230.68  110.59
   1   4  -8 1112.59  137.99
  -1  -4  -8  719.43  168.08
  -4   1  -8  780.92  155.58
   4  -1  -8 1030.40   93.19
   4  -1  -8 1153.28  119.89
  -4   1  -8  947.81   84.39
  -4   1  -8  853.41   95.39
   4  -1  -8 1401.76  249.38
   1   4   8 1049.40   89.49
   1   4   8  944.61  134.59
   1   4   8 1229.08  114.69
   4  -1   8  942.61   91.19
  -4   1   8  938.71   93.99
  -1  -4   8  927.61  153.18
   4  -1   8  792.22   89.59
   1   4   8 1079.79   99.09
  -4   1   8 1116.99  160.18
  -4   2  -8   10.50   53.89
  -4   2  -8  129.19   29.70
   2   4  -8  175.48   65.59
  -2  -4  -8  175.68   43.60
   4  -2  -8  103.19   42.10
  -4   2  -8  110.29   20.70
  -2  -4  -8   70.09   77.69
  -2  -4  -8  246.88   66.39
   4  -2  -8   95.69   74.39
   4  -2  -8   91.59   31.00
  -4   2  -8   68.49   25.80
  -4   2   8  110.39   32.70
  -4   2   8   86.99   55.89
   2   4   8  153.38   48.30
  -2  -4   8   10.80   52.49
  -4   2   8  178.48   65.49
  -2  -4   8   93.79   60.49
   2   4   8  158.18   66.79
   4  -2   8   80.49   29.50
  -4   3  -8  959.30  158.98
   4  -3  -8 1035.30  173.18
   3   4  -8 1063.19   78.69
  -3  -4  -8 1027.40  188.78
  -4   3  -8 1076.49  117.39
  -4   3  -8 1346.87  143.29
   4  -3  -8  874.11  100.79
   3   4  -8 1077.59   80.99
   3   4  -8 1359.36  165.78
  -3  -4  -8 1335.67  142.79
  -3  -4   8 1098.49  137.39
  -4   3   8  897.51  102.79
  -4   3   8  826.22  149.88
  -3  -4   8  914.11  154.38
   4  -3   8 1124.09   82.79
   3   4   8 1307.97  126.49
   3   4   8 1131.29  172.98
  -3  -4   8 1029.30   82.19
   4  -3   8  948.81  102.49
   4  -4  -8   40.40   28.30
   4   4  -8  105.49   65.59
   4   4  -8   37.70   37.00
  -4  -4  -8  -13.60   67.09
   4  -4  -8   53.29   41.20
  -4  -4  -8   38.00   46.80
  -4   4  -8  176.98   79.69
   4   4  -8   45.70   15.20
  -4   4  -8   26.90   40.60
  -4   4   8  166.28   80.39
  -4  -4   8   22.20   29.00
  -4   4   8   97.09   61.09
  -4  -4   8   28.70   43.80
   4  -4   8   31.10   27.90
   4   4   8   20.10   39.50
  -4   4   8   78.29   36.30
   4   4   8   12.40   64.89
  -4  -4   8   -5.70   60.39
   5   4  -8  640.24   61.39
  -5  -4  -8  859.51  124.39
  -5  -4  -8  586.14  154.88
   4  -5  -8  609.84   85.09
  -4   5  -8  591.24  108.29
  -4   5  -8  606.84  106.49
  -4   5   8  667.73   89.99
  -5  -4   8  553.34  135.69
  -4   5   8  802.72  134.69
   5   4   8  588.44  160.88
   4  -5   8  643.04   92.79
   5   4   8  757.62  106.49
  -3   5  -8  -45.10   37.50
   5   3  -8   41.10   83.99
   3  -5  -8  -14.40   43.70
   5   3  -8    7.10   14.10
  -5  -3   8   25.00   36.20
   5   3   8  -21.10   38.90
  -5  -3   8    0.00   18.50
   5   3   8   -1.30   86.29
  -3   5   8   29.90   58.79
  -5  -3   8   19.30   42.20
  -3   5   8   -7.50   26.70
   5   2  -8  839.22  142.99
  -5  -2  -8  743.93  107.29
   5   2  -8  796.22   74.39
  -5  -2  -8  822.92  100.49
  -2   5  -8  785.42  124.69
   2  -5  -8  738.93  144.79
   2  -5   8  722.73   92.59
  -2   5   8  899.71   99.09
  -5  -2   8  849.02   86.09
  -5  -2   8  819.32  102.89
   5   2   8  899.61  100.79
   5   2   8  545.65  163.58
   1  -5  -8   27.20   28.90
   5   1  -8   -8.10   50.49
  -1   5  -8  -36.60   50.79
   1  -5  -8   16.50   54.89
  -5  -1  -8   -4.70   53.29
  -5  -1  -8   31.60   19.80
  -5  -1  -8   11.60   30.10
   5   1  -8   20.40   17.90
  -1   5   8   -3.00   24.00
   1  -5   8  -11.70   23.20
   5   1   8   12.10   28.80
   5   1   8  -48.00   52.29
  -1   5   8  -32.40   32.50
  -5  -1   8   19.70   17.50
  -1   5   8    6.10   25.00
  -5  -1   8   -2.90   41.90
  -5  -1   8  -19.40   26.60
   0   5  -8  759.52  137.39
   0  -5  -8  838.02  177.88
  -5   0  -8  913.41  165.38
  -5   0  -8  968.00   90.09
   0   5  -8 1065.49  144.89
   5   0  -8 1174.88   94.59
   5   0  -8  925.61  116.79
   5   0   8  984.90   99.89
   0   5   8 1011.60  136.89
   0   5   8  888.61  106.49
  -5   0   8 1057.89   95.39
   1   5  -8   -3.80   40.20
  -1  -5  -8  -18.20   64.39
   5  -1  -8  -14.20   66.59
  -5   1  -8  -15.50   47.80
   5  -1  -8   38.90   22.10
  -5   1  -8    0.80   15.10
  -5   1  -8  -16.60   23.40
   1   5  -8   28.80   57.79
   1   5  -8   27.00   34.60
  -1  -5  -8   33.80   34.90
  -5   1   8   23.30   42.40
  -5   1   8   23.30   46.20
   1   5   8   30.90   44.50
   5  -1   8   -5.30   24.60
  -5   1   8   12.20   22.20
   1   5   8   -4.80   30.60
  -1  -5   8   45.30   52.49
   1   5   8  -25.10   26.50
   5  -1   8   -8.90   19.50
  -5   2  -8  801.82   70.19
  -5   2  -8  842.72   85.39
  -2  -5  -8  739.63  170.68
  -5   2  -8  715.93  142.19
   5  -2  -8  834.42  153.28
  -5   2  -8  595.74   77.59
   2   5  -8  730.73  125.09
   2   5   8  904.81  106.29
  -2  -5   8  833.92  141.39
   2   5   8  913.31  144.29
   5  -2   8  650.13   78.99
  -5   2   8  755.52   85.99
   5  -2   8  758.82   77.49
   2   5   8  800.22   83.49
  -5   2   8 1018.20  153.78
  -5   3  -8    6.40   11.20
   5  -3  -8  -40.70   67.59
   3   5  -8   24.80   54.09
  -5   3  -8  -17.70   46.10
  -5   3  -8  -53.69   39.30
   3   5   8   -9.80   33.90
  -3  -5   8   44.00   49.90
   3   5   8  -14.70   18.10
   3   5   8  -13.30   14.40
  -5   3   8   40.40   59.49
  -5   3   8   33.60   50.49
   5  -3   8   -7.60   24.90
   3   5   8   11.50   53.19
  -5   3   8   14.60   20.90
  -3  -5   8   -5.20   20.50
   5  -4  -8  597.14   82.59
   4   5  -8  670.43   57.09
  -5   4  -8  662.23  120.39
  -4  -5  -8  757.22  124.49
  -4  -5  -8  724.33  160.88
   5  -4   8  550.84   81.79
  -5   4   8  639.84   84.89
   4   5   8  767.52  157.68
  -5   4   8  737.03  133.89
  -4  -5   8  804.32  142.59
   4   5   8  729.53  113.49
   6   2  -8   83.49   28.30
  -2   6  -8  135.09   64.99
   2  -6  -8  143.09   88.49
  -6  -2  -8  151.58   64.19
   2  -6  -8  101.89   44.80
  -6  -2  -8   62.49   61.39
  -2   6   8   64.49   43.40
   2  -6   8   88.29   47.30
   6   2   8    9.90   41.90
  -6  -2   8   73.19   32.30
  -6  -2   8  172.88   81.49
  -6  -2   8  102.19   40.60
  -2   6   8  201.18   79.09
  -6  -1  -8  698.33  121.79
  -6  -1  -8  764.82  177.78
   1  -6  -8  906.21  187.58
   6   1  -8  886.11   85.89
  -1   6  -8  797.22  142.19
   1  -6  -8 1179.58  127.19
   1  -6   8  837.52  111.19
  -6  -1   8  846.92   90.79
  -1   6   8 1177.28  120.59
   6   1   8  944.91  108.89
  -6   0  -8  -36.30   56.19
   0   6  -8   -9.20   45.30
   0   6  -8   55.29   57.19
   6   0  -8   96.59   60.19
   0  -6  -8  -29.30   70.99
  -6   0   8   78.79   78.99
   0   6   8  124.49   49.20
   0   6   8   42.60   52.49
   6   0   8   30.00   37.80
   0   6   8   21.20   53.29
  -6   0   8  166.68   63.89
  -6   0   8   37.60   27.00
  -1  -6  -8  773.32  195.48
  -1  -6  -8 1223.78  136.39
   6  -1  -8  853.51   92.29
   1   6  -8  962.90  150.38
   1   6  -8  881.71  129.39
  -1  -6  -8  826.62   88.99
   6  -1   8  833.12   96.79
   1   6   8 1070.29  136.49
   1   6   8 1029.80  154.38
  -1  -6   8 1016.00  172.48
  -6   2  -8   43.40   32.80
   6  -2  -8   11.60   97.99
  -6   2  -8   34.70   73.89
  -2  -6  -8  103.09   63.89
   6  -2  -8   61.59   29.00
   2   6  -8   66.09   62.59
   6  -2   8   39.40   34.70
  -6   2   8   91.09   33.50
   2   6   8   64.89   47.40
   6  -2   8   88.99   31.90
   2   6   8   70.89   64.79
   2   6   8  119.69   54.09
  -2  -6   8  135.89   70.89
  -6   2   8  249.28   90.59
   0   0  -9 1070.49  170.28
   0   0  -9 1167.58  111.59
   0   0  -9 1178.38  129.99
   0   0  -9 1455.65  107.99
   0   0   9 1070.69  145.99
   0   0   9 1174.08  200.58
   0   0   9 1296.37  101.99
   0   1  -9 1053.49   81.99
   0  -1  -9  866.81  153.28
   0  -1  -9 1116.59  132.79
   1   0  -9 1112.09   93.29
   0   1  -9 1133.69  104.89
   0   1  -9 1063.69   81.39
   0  -1  -9 1047.60  105.89
  -1   0  -9 1134.29   93.59
   1   0  -9 1095.79   90.29
  -1   0  -9  799.42  111.89
  -1   0  -9  819.82  159.28
   0   1  -9  807.92  143.79
  -1   0  -9 1166.18   90.39
  -1   0   9 1016.40   86.49
   1   0   9  835.42  136.59
   0  -1   9  943.11   79.29
   1   0   9  936.81   85.69
  -1   0   9  913.11  162.38
   0   1   9 1108.99   92.89
  -1   0   9  859.51  104.29
   0   1   9  827.02  123.79
   0  -1   9  880.71  130.79
  -1   0   9  849.81  123.89
   0  -1   9 1016.40  173.28
  -1   1  -9  357.46   41.30
  -1  -1  -9  342.97   50.39
  -1   1  -9  428.76   42.40
   1  -1  -9  365.76   92.99
   1   1  -9  488.85   50.09
   1   1  -9  507.85   73.69
   1   1  -9  517.35   45.40
   1   1  -9  365.76   85.59
   1  -1  -9  432.16   74.59
  -1   1  -9  337.27  110.99
  -1  -1  -9  264.57  106.59
  -1  -1  -9  470.25   73.09
  -1   1   9  409.36   62.19
   1  -1   9  329.97   97.59
   1   1   9  491.15   55.29
  -1   1   9  466.95   52.39
   1  -1   9  384.16   42.10
  -1  -1   9  401.36   46.70
   1   1   9  487.45   94.99
  -1  -1   9  335.47  110.29
  -1   1   9  390.56  127.19
  -1   1   9  386.06   76.99
  -2  -1  -9  349.17   74.09
   1  -2  -9  513.25   69.49
   2   1  -9  530.25   61.79
   1  -2  -9  445.26   99.39
   2   1  -9  741.83  102.29
  -2  -1  -9  558.44   60.29
  -1   2  -9  620.74  130.59
  -1   2  -9  609.14   69.69
  -2  -1  -9  277.17  124.69
   2   1  -9  515.75   51.89
  -2  -1  -9  770.32   97.29
  -2  -1   9  617.54  107.69
  -2  -1   9  364.26  120.39
   2   1   9  467.95  124.59
   1  -2   9  417.76  117.39
  -1   2   9  480.15   68.99
  -1   2   9  499.05   60.69
   2   1   9  575.44   63.39
  -1   2   9  481.95   87.59
  -1   2   9  525.05  120.29
  -2  -1   9  480.75   51.09
   0  -2  -9 1323.17  111.49
   0   2  -9 1345.47  122.79
   2   0  -9 1163.88  105.19
   0   2  -9  993.20  154.98
   0  -2  -9  976.40  171.88
   2   0  -9 1231.48  138.69
  -2   0  -9 1140.59  101.49
   0  -2  -9 1260.57  118.49
  -2   0   9  984.90  118.39
   2   0   9  980.00  151.98
   0  -2   9 1107.99  185.88
  -2   0   9 1017.30   93.39
   2   0   9 1121.69   95.69
   0  -2   9  729.93  160.38
   0   2   9 1091.79  141.89
  -2   0   9  916.51  157.18
   0   2   9 1149.08  103.49
   0   2   9 1007.80   84.99
  -2   0   9  970.80  128.59
  -1  -2  -9  700.43   75.49
   2  -1  -9  650.13   73.39
   1   2  -9  463.95   95.19
  -1  -2  -9  605.54   67.29
  -2   1  -9  296.67  122.09
   2  -1  -9  626.24   62.09
   2  -1  -9  612.24  101.49
  -2   1  -9  502.85   52.49
  -2   1  -9  387.86   94.59
  -1  -2  -9  545.75  139.29
   2  -1  -9  376.36   87.19
  -1  -2  -9  652.33   72.59
  -2   1  -9  617.64   49.70
   2  -1   9  401.46  120.09
  -2   1   9  556.54   60.09
  -1  -2   9  439.36   41.00
  -1  -2   9  503.45   46.60
   1   2   9  632.34   68.69
   1   2   9  384.26  100.69
  -2   1   9  482.55   76.89
   2  -1   9  491.85   45.90
  -1  -2   9  493.95  111.79
  -2   1   9  493.45   85.29
  -2   1   9  389.06  122.69
  -1  -2   9  438.56  108.29
   2  -1   9  457.95   49.90
  -2  -2  -9  896.11   85.79
   2   2  -9  811.82   70.39
  -2   2  -9  936.31   91.09
  -2   2  -9  994.20   79.89
  -2  -2  -9  688.13   96.19
   2  -2  -9  654.53  121.59
   2   2  -9  625.84  109.09
  -2  -2  -9 1041.40  100.69
   2   2  -9  888.81   66.49
   2  -2  -9  931.91   87.99
  -2  -2   9  634.74  104.89
  -2   2   9  800.72  100.59
  -2  -2   9  783.82   66.69
  -2  -2   9  649.93  132.59
  -2   2   9  804.82   83.49
   2   2   9  910.41   90.19
   2   2   9  704.53  129.79
  -2  -2   9  711.13   70.19
  -2   2   9  779.12  145.09
   2  -2   9  604.24  153.78
  -2  -2   9  852.41  114.59
  -2   2   9  868.51  118.49
   2  -3  -9  510.05  112.99
   3   2  -9  545.05   55.59
   3   2  -9  871.61  135.69
  -3  -2  -9  662.93   69.99
  -3  -2  -9  350.66  150.38
  -3  -2  -9  683.53   85.09
  -2   3  -9  588.54   81.19
   2  -3  -9  779.12   81.99
  -2   3  -9  387.96  142.39
  -3  -2   9  518.05  118.89
   3   2   9  594.94  121.59
  -3  -2   9  561.84   64.59
   3   2   9  664.83   80.49
  -2   3   9  642.64  106.79
  -2   3   9  609.14  135.09
  -2   3   9  712.03   77.79
  -3  -2   9  702.93  101.19
   3   1  -9  412.06   63.89
   1  -3  -9  451.75  110.59
   1  -3  -9  561.84   72.29
   3   1  -9  614.84  105.49
  -1   3  -9  487.65   75.89
  -3  -1  -9  423.96   54.99
   3   1  -9  375.96   47.40
  -1   3  -9  397.36  126.29
  -1   3   9  543.35   66.69
  -1   3   9  583.64  137.69
   3   1   9  501.75   62.89
   3   1   9  429.96  122.19
   1  -3   9  364.26  117.69
  -1   3   9  456.05   90.39
  -3  -1   9  358.36   47.60
  -1   3   9  448.16   67.59
  -3  -1   9  423.86  122.99
   0  -3  -9  948.91   95.09
   3   0  -9 1031.60  138.89
   0   3  -9  844.72  143.49
   0  -3  -9  773.82  158.38
  -3   0  -9  845.32   88.29
   0  -3  -9 1016.30   99.09
   3   0  -9  818.42   92.79
   0  -3  -9  951.70   88.49
   0   3  -9  975.60  113.79
  -3   0   9  761.62  112.59
   3   0   9  505.45  145.09
  -3   0   9  640.34  129.49
   0   3   9  890.71  128.29
   0  -3   9  879.11  164.28
   0   3   9  763.52   76.09
  -3   0   9  667.53  104.69
   3   0   9  825.02   81.59
   0   3   9  991.40   93.39
   3  -1  -9  445.36  101.19
   1   3  -9  298.57   80.59
   1   3  -9  481.15   86.79
  -1  -3  -9  419.06  145.79
   3  -1  -9  603.54   77.69
   3  -1  -9  448.06   54.59
  -1  -3  -9  556.84   67.09
  -1  -3  -9  532.25   63.89
  -3   1  -9  435.26   53.89
   1   3   9  544.15   70.89
   1   3   9  495.75   98.29
   3  -1   9  417.86  125.39
  -3   1   9  395.66   93.39
  -1  -3   9  396.86  106.69
  -3   1   9  387.96  117.79
  -1  -3   9  500.05  114.29
  -3   1   9  382.66   53.99
  -3   1   9  420.76   88.89
   2   3  -9  501.45   95.19
   3  -2  -9  588.44   69.79
  -2  -3  -9  730.53   79.49
   3  -2  -9  615.24  116.89
   2   3  -9  852.91  121.59
  -2  -3   9  660.03  125.69
   3  -2   9  628.54   58.59
  -3   2   9  752.92  111.49
  -3   2   9  577.94   71.39
  -3   2   9  499.05  117.09
   2   3   9  599.74  113.59
  -2  -3   9  626.44  107.09
   2   3   9  789.92   86.49
   3  -3  -9  541.65   81.59
   3   3  -9  695.33  109.69
   3   3  -9  444.66   45.20
   3  -3  -9  490.95   71.89
  -3   3  -9  520.45   83.79
  -3  -3  -9  550.64   65.79
   3   3  -9  416.26   41.10
   3   3   9  489.25  141.39
  -3  -3   9  454.45   93.69
  -3  -3   9  378.66   44.60
  -3   3   9  474.25   64.19
  -3   3   9  566.24  115.69
   3  -3   9  407.16   67.39
   3   3   9  489.15   71.99
  -3   3   9  665.53  110.99
  -3  -3   9  425.16  124.59
  -4  -3  -9  519.25   65.29
  -4  -3  -9  271.37  125.79
  -3   4  -9  378.26   81.49
  -4  -3  -9  510.65  137.59
   4   3  -9  499.35   49.00
   3  -4  -9  620.64   89.39
  -3   4   9  643.84  159.28
   4   3   9  523.95   79.89
  -4  -3   9  650.83   97.29
  -3   4   9  435.56   67.69
  -4  -3   9  503.45   53.59
  -4  -3   9  423.16  156.68
  -3   4   9  487.25  116.79
   4   3   9  378.36  135.39
   4   2  -9  850.51  135.09
  -4  -2  -9  870.21  101.39
  -2   4  -9  553.24   92.09
  -4  -2  -9  322.47  146.29
   4   2  -9  614.14   59.59
   4   2  -9  473.15   74.59
   2  -4  -9  741.53   83.79
  -4  -2  -9  625.44   71.49
  -2   4   9  542.65   94.49
   2  -4   9  398.46   73.99
  -2   4   9  654.33  146.09
   4   2   9  727.73   86.89
  -4  -2   9  615.54   63.09
  -4  -2   9  581.74   90.09
  -4  -2   9  669.33  128.89
  -2   4   9  567.74  103.69
  -4  -1  -9  560.14   63.49
  -1   4  -9  544.45   91.79
   4   1  -9  589.04   59.69
  -4  -1  -9  424.36  156.88
  -1   4  -9  407.76  133.39
   1  -4  -9  565.64  133.19
   4   1  -9  482.35   78.09
  -1   4   9  734.83  130.09
  -1   4   9  667.53   84.89
   4   1   9  457.05  170.88
  -4  -1   9  622.34   63.59
  -4  -1   9  495.65   86.29
  -4  -1   9  597.14  125.49
   4   0  -9 1011.90  144.39
   4   0  -9  724.63   76.09
   0  -4  -9  833.92  175.58
  -4   0  -9  749.92   88.39
   4   0  -9  838.42   99.49
   0   4  -9  809.02  115.29
   0  -4  -9  881.51   99.29
   0   4  -9  746.83  130.19
   0   4   9  786.42   84.79
   4   0   9  579.24  164.88
  -4   0   9  822.02  112.99
  -4   0   9  660.13   76.89
   0   4   9  752.62  123.79
  -4   0   9  728.73  140.19
   4   0   9  724.83   81.39
   0  -4   9  815.62  155.88
   0   4   9  967.30   98.09
  -4   1  -9  625.04   69.39
   4  -1  -9  491.95   89.39
  -4   1  -9  596.54   62.09
  -4   1  -9  357.46  149.09
   4  -1  -9  569.44   66.49
   4  -1  -9  765.02  137.99
   1   4  -9  940.81  174.88
  -1  -4  -9  816.52   95.89
  -1  -4  -9  428.66  146.09
   1   4  -9  520.85   98.59
  -1  -4   9  630.54  131.39
   1   4   9  718.83   86.69
  -4   1   9  518.45   66.99
   1   4   9  637.34  112.29
   4  -1   9  480.75   61.89
  -4   1   9  637.54  128.09
  -4   1   9  793.82  111.29
  -4   2  -9  688.43   58.69
   2   4  -9  672.33  119.69
   4  -2  -9  638.04  137.49
  -2  -4  -9  701.23  110.99
   4  -2  -9  738.43   97.59
  -4   2  -9  357.16  145.29
   2   4   9  637.84   84.09
   4  -2   9  561.84   59.29
  -2  -4   9  691.53  134.09
  -2  -4   9  412.46  116.69
   2   4   9  793.42  241.68
  -4   2   9  462.45  134.19
  -4   3  -9  332.07  118.79
   4  -3  -9  337.37   86.99
  -4   3   9  514.15   69.89
  -4   3   9  610.34  124.89
   3   4   9  533.75  135.89
   4  -3   9  385.76   67.29
  -3  -4   9  418.56  103.29
  -4  -4  -9  710.03  108.89
   4  -4  -9  498.65   69.09
   4   4  -9  530.75   56.49
   4  -4  -9  361.66   96.69
  -4  -4  -9  299.17  142.79
  -4  -4   9  497.25  118.69
  -4  -4   9  446.26  106.39
  -4   4   9  545.75  119.59
  -4   4   9  495.15   73.59
   4   4   9  677.43   92.59
   4   4   9  477.55  136.49
   2  -5  -9  542.75   78.99
  -5  -2  -9  320.57  142.79
  -5  -2  -9  289.37   85.29
   5   2  -9  411.56   52.39
  -5  -2   9  492.25   85.49
   5   2   9  196.88  113.89
  -2   5   9  579.34   80.59
  -5  -2   9  555.54  120.09
  -2   5   9  512.25  121.39
   5   2   9  500.95   79.19
  -5  -2   9  468.05   57.99
   1  -5  -9  267.27  114.09
   5   1  -9  340.07   49.99
  -1   5  -9  250.77   79.39
   5   1  -9  269.97  108.59
   1  -5  -9  406.16   66.09
  -5  -1   9  268.07   96.19
   5   1   9  191.68  149.88
   5   1   9  294.57   60.29
  -5  -1   9  297.57   74.19
  -1   5   9  392.46   69.89
  -1   5   9  378.16   97.99
  -1   5   9  251.87   77.99
  -5  -1   9  243.48   47.70
   0   5  -9  533.15   98.19
   0  -5  -9  531.15   78.29
   5   0  -9  457.75  125.79
   5   0  -9  421.96   60.09
   5   0  -9  345.47   91.99
  -5   0  -9  186.88  115.59
  -5   0  -9  279.07   61.19
   5   0   9  342.67   60.69
  -5   0   9  354.86   56.49
  -5   0   9  430.86   85.29
   0   5   9  420.16   69.69
   1   5  -9  184.18   83.09
  -1  -5  -9  307.07   68.19
   5  -1  -9  355.36   83.19
  -5   1  -9  301.27   58.39
   5  -1  -9  221.98   69.19
   5  -1  -9  324.47  112.79
  -1  -5  -9  117.39  120.89
   1   5   9  261.67  130.79
  -1  -5   9  300.57  107.09
  -5   1   9  343.17   55.29
  -5   1   9  462.55   91.79
   5  -1   9  208.38   46.60
   1   5   9  209.68   49.60
   1   5   9  333.77   69.29
  -5   2  -9  214.78  138.39
   5  -2  -9  463.75   60.59
  -5   2  -9  462.45   55.39
  -2  -5  -9  642.24   93.39
   2   5  -9  296.67   92.79
   5  -2  -9  332.27  121.49
   2   5  -9  412.16   82.79
   2   5   9  342.97  121.49
  -5   2   9  454.15   73.89
  -2  -5   9  353.06  120.49
  -5   2   9  540.65  172.28
   5  -2   9  324.47   59.49
   2   5   9  558.24   88.39
   0   0 -10 1604.04  211.38
   0   0  10 1716.33  129.19
   0   0  10 1455.05  178.88
   0  -1 -10    5.60   20.00
  -1   0 -10   32.90   62.09
   1   0 -10   39.90   19.70
  -1   0 -10   30.00   17.70
   0  -1 -10   37.70   54.69
   0   1 -10   40.70   53.69
   1   0 -10   39.20   45.30
   0   1 -10    6.90   11.40
   0   1 -10   -1.60   12.10
   0   1 -10   -6.00   22.80
   1   0 -10   -0.20   20.20
   0   1  10  -21.00   37.50
  -1   0  10   22.40   18.00
   0  -1  10    4.90   42.90
   1   0  10  -65.09   36.90
   0  -1  10    1.80   15.40
  -1   0  10   28.30   42.20
   1   0  10   13.30   19.40
   0  -1  10    8.10   14.40
   0   1  10   13.60   19.10
  -1   0  10   26.90   42.00
   1   1 -10  913.21  107.59
   1   1 -10  973.20   73.49
  -1   1 -10  853.21   68.89
  -1  -1 -10 1065.19   92.99
   1   1 -10  844.42  138.29
   1   1 -10  905.01   76.89
  -1   1 -10  970.30  171.88
   1  -1 -10  727.63  136.59
  -1   1 -10  988.90   68.99
  -1  -1 -10  866.81  105.89
  -1  -1 -10  856.81  170.68
   1  -1 -10 1074.69   89.79
  -1   1  10  842.72  157.88
   1  -1  10  749.73  134.29
  -1  -1  10  762.02  118.79
  -1  -1  10  935.01   75.99
   1   1  10  768.82  130.29
   1  -1  10  732.33   69.09
  -1   1  10  854.41   82.49
  -1   1  10  759.12  119.49
  -1   1  10  725.73   93.59
   1   1  10  825.62   83.19
   1  -1  10  768.12   68.59
  -1  -1  10  792.92  156.98
  -2  -1 -10  -21.40   46.80
  -2  -1 -10   24.20   87.99
   2   1 -10   61.59   44.80
   2   1 -10   31.70   37.50
  -2  -1 -10  109.89   32.70
   1  -2 -10   96.19   33.30
  -1   2 -10   60.29   85.69
   1  -2 -10   69.39   59.29
  -1   2 -10   84.99   29.80
   2   1 -10   95.79   48.40
   2   1  10   66.39   30.90
  -2  -1  10  100.49   54.39
  -1   2  10   21.90   31.30
   1  -2  10    2.00   57.09
   2   1  10   10.00   51.49
  -1   2  10   70.19   52.09
  -2  -1  10   91.59   72.89
  -1   2  10   62.39   72.09
  -1   2  10   63.09   27.20
   0  -2 -10 1538.35  139.49
   0  -2 -10 1499.35  216.78
   2   0 -10 1172.28  173.98
  -2   0 -10 1508.85  242.78
   0   2 -10 1460.85  204.78
   2   0 -10 1508.05  164.48
   2   0 -10 1620.74  124.89
  -2   0 -10 1541.35  165.58
  -2   0 -10 1628.24  127.09
   0  -2 -10 1783.52  141.69
  -2   0  10 1383.96  165.48
  -2   0  10 1499.85  212.48
   2   0  10 1412.16  192.78
   0   2  10 1441.56  180.28
   0   2  10 1632.34  131.79
   2   0  10 1314.97  119.59
  -2   0  10 1532.75  122.59
   0  -2  10 1593.54  229.88
   0  -2  10 1238.18  175.18
  -2   0  10 1358.76  152.18
  -2   1 -10   34.50   77.79
   2  -1 -10   74.49   35.70
   2  -1 -10   90.69   27.60
  -1  -2 -10  116.39   38.50
  -1  -2 -10   -0.90   24.00
  -2   1 -10   43.10   17.50
   1   2 -10   80.59   41.70
   1   2 -10  129.29   67.99
   2  -1 -10   74.69   45.10
  -1  -2 -10   -5.80   33.50
  -1  -2  10  113.09   79.69
  -2   1  10   81.59   28.60
  -2   1  10   93.29   49.99
  -2   1  10    9.40   45.20
   1   2  10   94.29   71.19
   1   2  10   96.99   31.10
   2  -1  10   45.40   19.10
  -2   1  10   48.50   40.10
  -1  -2  10   91.39   65.79
   2  -1  10  -56.89   41.00
   2   2 -10 1313.47   89.69
   2  -2 -10 1448.06  120.09
  -2  -2 -10 1227.48  232.68
   2   2 -10 1223.98   97.19
  -2   2 -10 1177.78  211.68
   2  -2 -10  955.20  164.48
   2   2 -10 1017.40  152.98
  -2  -2 -10 1334.47  115.19
  -2  -2 -10 1126.09  122.99
   2  -2 -10 1373.96  125.59
  -2   2  10 1222.98  197.98
   2  -2  10 1115.39  180.78
  -2  -2  10 1278.67   94.09
  -2   2  10 1194.88  135.89
  -2   2  10 1244.98  113.29
  -2  -2  10 1210.88  150.68
  -2  -2  10 1318.57  233.48
   2   2  10 1193.48  114.09
   2   2  10 1093.69  169.38
   2  -3 -10   13.90   56.49
  -3  -2 -10    1.00  101.79
   3   2 -10   68.79   46.80
   3   2 -10   -0.10   20.50
   2  -3 -10   37.50   25.60
   3   2 -10   68.59   25.70
  -2   3  10   14.80   50.69
  -2   3  10   10.50   55.29
   3   2  10   11.80   31.30
  -3  -2  10   27.70   38.20
  -2   3  10   46.60   29.10
   3   2  10   41.70   56.09
  -1   3 -10  816.92  161.78
  -3  -1 -10  647.64  206.28
  -1   3 -10  962.30  106.39
   3   1 -10  831.22   77.29
   3   1 -10 1041.30  153.68
   1  -3 -10  958.50  104.49
  -3  -1 -10  925.31   95.39
   3   1 -10  728.13   87.49
   1  -3 -10  850.11  160.58
  -3  -1 -10  829.92   82.99
  -3  -1  10  831.32  119.29
  -3  -1  10  826.72   78.39
  -1   3  10  713.63   97.99
  -3  -1  10  730.33  148.69
  -1   3  10  933.21   94.89
   3   1  10  915.91   89.99
   1  -3  10  844.52  159.08
   3   1  10  915.31  158.48
  -1   3  10  784.92  127.49
   0  -3 -10   86.89   58.69
   0   3 -10   62.39   53.39
   3   0 -10   57.19   19.20
   3   0 -10   30.70   49.70
   3   0 -10   22.90   28.30
  -3   0 -10   20.30   22.20
   0  -3 -10   54.29   71.99
   0  -3 -10   51.49   30.40
   0   3 -10    6.70   33.40
   0  -3 -10  -16.80   28.00
   3   0 -10   23.60   31.40
   0  -3  10  -70.79   51.09
   3   0  10    9.10   22.50
   0   3  10   41.90   41.10
  -3   0  10   23.20   20.20
  -3   0  10    0.60   36.10
  -3   0  10   25.70   39.30
   3   0  10    8.60   63.19
   0   3  10   39.10   29.00
  -1  -3 -10  828.32  190.48
   3  -1 -10  804.42  127.49
   3  -1 -10  584.54  117.39
  -3   1 -10  824.12   75.39
   3  -1 -10  961.80   99.09
   1   3 -10  820.62  129.29
  -3   1 -10  606.14  194.78
  -1  -3 -10  860.31   91.39
   1   3  10  670.53  118.49
  -3   1  10  744.93   80.89
   1   3  10  917.01   90.89
   3  -1  10  691.13   69.19
  -1  -3  10  747.03  130.49
   3  -1  10  764.12  147.99
  -3   1  10  591.74  127.79
  -3   1  10  832.32  117.59
   3  -2 -10   84.89   38.90
   3  -2 -10   85.49   27.00
   2   3 -10   27.50   41.00
  -2  -3 -10   99.09   36.90
   3  -2 -10  -33.70   38.70
   2   3 -10   57.99   46.20
  -3   2  10   36.50   48.40
  -2  -3  10   27.30   48.70
   2   3  10    0.50   30.30
   2   3  10  -10.90   56.09
  -2  -3  10  -15.90   45.60
  -3   2  10   27.30   24.80
  -3   2  10   37.20   47.20
  -3  -3 -10  508.55  184.88
  -3  -3 -10 1083.29  111.29
   3  -3 -10  636.04  129.89
   3  -3 -10  897.91   93.49
  -3  -3  10  805.82  131.79
   3   3  10  830.92  154.08
  -3  -3  10  719.33  141.59
   3   3  10  968.00  103.19
  -3   3  10 1063.79  141.39
  -3   3  10  852.51   97.09
  -3   3  10  789.42  159.48
  -2   4 -10  643.54  177.68
  -2   4 -10  923.01  115.69
   2  -4 -10  747.73  152.08
   4   2 -10 1178.58  163.38
   4   2 -10  808.32   77.59
   2  -4 -10 1052.19  107.49
   4   2  10  877.51  163.38
  -4  -2  10  701.43  147.69
  -2   4  10  954.80  143.59
  -2   4  10 1029.60  104.49
  -4  -2  10  912.31  121.49
   4   2  10  907.51  102.59
  -1   4 -10  -13.60   60.09
   4   1 -10   38.60   20.30
   4   1 -10   36.10   52.19
  -1   4 -10   -3.80   33.70
   1  -4 -10   91.29   35.80
  -4  -1 -10  -90.39   88.29
   4   1  10  -74.69   76.39
  -4  -1  10   46.70   53.99
  -4  -1  10    8.90   23.20
  -1   4  10   24.50   48.20
  -4  -1  10   63.59   45.60
  -1   4  10   53.29   32.10
   4   0 -10 1011.30  126.69
   0   4 -10 1137.49  168.18
   0   4  10  883.01  141.79
   0   4  10 1064.99  153.08
   4   0  10  914.81  184.58
  -4   0  10  918.41   94.49
  -4   0  10 1047.50  134.79
  -4   0  10 1009.50  174.98
   4  -1 -10   -5.00   52.59
  -1  -4 -10   76.39   37.10
   1   4 -10   25.10   42.30
  -4   1 -10   -9.20   19.20
  -1  -4 -10   86.49  102.69
   1   4 -10   38.00   41.50
  -4   1  10   48.50   26.40
  -1  -4  10   41.30   64.79
   1   4  10   43.70   45.40
  -4   1  10   24.40   50.29
  -4   1  10  -27.10   37.30
   1   4  10    0.70   50.59
   2   4 -10  678.43  120.59
  -2  -4 -10  560.44  196.18
   4  -2 -10  682.43  125.69
   4  -2 -10  999.80  141.49
   4  -2 -10  852.01   90.89
  -2  -4  10  853.01  228.98
   2   4  10  851.91  145.59
  -4   2  10  987.50  138.39
  -2  -4  10  758.92  158.48
   2   4  10 1077.79  108.59
  -4   2  10  916.61  165.18
  -4   2  10  788.62   91.69
   0   0 -11 1317.77  102.59
   0   0  11 1077.29  100.59
   0   0  11 1187.78  160.88
   0   1 -11   75.59   28.90
   1   0 -11  119.79   27.80
   0   1 -11  136.49   16.10
   1   0 -11   67.49   32.80
   0  -1 -11  148.39   34.50
   1   0 -11   88.49   71.59
   0   1 -11  139.39   74.49
  -1   0 -11  124.09   27.80
   0   1 -11  105.19   15.90
   0  -1 -11  191.28  102.69
  -1   0  11   94.79   27.00
   0  -1  11  190.58  113.79
   1   0  11   51.19   70.49
  -1   0  11   84.39   78.89
   0   1  11  151.98   37.40
   1   1 -11  415.26   43.90
  -1   1 -11  390.66  127.49
  -1  -1 -11  480.85   60.19
  -1  -1 -11  454.65  140.69
   1  -1 -11  521.65   61.29
   1  -1 -11  340.77  112.79
   1   1 -11  502.45   50.99
  -1  -1  11  373.96  129.69
   1  -1  11  271.27   93.19
  -1   1  11  437.86  147.49
   1   1  11  375.46   56.99
  -1  -1  11  379.76  101.89
  -1   1  11  496.35   58.59
   1   1  11  346.37  103.39
  -2  -1 -11   75.59   90.49
  -2  -1 -11  105.29   33.00
   2   1 -11   75.29   57.29
  -1   2 -11  137.39   94.29
   2   1 -11   90.49   22.90
   2   1 -11   77.99   52.19
   1  -2 -11  132.69   36.00
   1  -2 -11   59.69   68.89
  -1   2  11  109.59   36.50
  -1   2  11  129.69   66.69
   1  -2  11  -34.80   59.69
   2   1  11  132.19   38.30
   2   1  11   72.29   72.69
  -2  -1  11   45.70   62.09
  -2  -1  11   91.09   52.99
   0   2 -11  641.04  137.39
   2   0 -11  807.32  112.99
  -2   0 -11  654.13  170.28
   2   0 -11  619.04  127.49
  -2   0 -11  854.51   76.89
   2   0 -11  942.41   80.59
   0  -2 -11  841.72  167.28
  -2   0  11  700.53  156.18
   0   2  11  724.93  126.69
  -2   0  11  651.43  137.49
   0   2  11  770.72   82.69
   0  -2  11  693.93  133.29
  -2   0  11  821.32   80.59
  -1  -2 -11   99.69   37.50
  -1  -2 -11   54.59   67.89
   1   2 -11  116.09   48.00
   2  -1 -11   70.29   54.69
   1   2 -11   84.09   72.99
  -2   1  11  116.79   37.50
  -1  -2  11   91.69   64.29
   1   2  11   94.79   33.60
  -1  -2  11  186.18   91.49
   2  -1  11   50.19   59.19
  -2   1  11  107.99   76.39
   1   2  11   89.09   59.19
  -2  -2 -11  464.75  165.08
   2  -2 -11  709.93   86.09
   2  -2 -11  518.65  123.79
   2   2  11  627.44   78.19
  -2  -2  11  443.46  145.49
  -2   2  11  685.73   79.19
  -2   2  11  742.23  157.98
   0   0   0    0.00    0.00

_computing_structure_solution     'SHELXT 2014/5 (Sheldrick, 2014)'
;
_shelx_hkl_checksum              243
loop_
_space_group_symop_operation_xyz
'x, y, z'
'-x+1/2, -y+1/2, z'
'-y+1/2, x, z'
'y, -x+1/2, z'
'-x, y+1/2, -z'
'x+1/2, -y, -z'
'y+1/2, x+1/2, -z'
'-y, -x, -z'
'-x, -y, -z'
'x-1/2, y-1/2, -z'
'y-1/2, -x, -z'
'-y, x-1/2, -z'
'x, -y-1/2, z'
'-x-1/2, y, z'
'-y-1/2, -x-1/2, z'
'y, x, z'
loop_
_atom_site_label
_atom_site_type_symbol
_atom_site_fract_x
_atom_site_fract_y
_atom_site_fract_z
_atom_site_U_iso_or_equiv
_atom_site_adp_type
_atom_site_occupancy
_atom_site_site_symmetry_order
_atom_site_calc_flag
_atom_site_refinement_flags_posn
_atom_site_refinement_flags_adp
_atom_site_refinement_flags_occupancy
_atom_site_disorder_assembly
_atom_site_disorder_group
U1 U 0.2500 0.2500 0.40295(6) 0.0115(2) Uani 1 8 d S T P . .
P1 P 0.2500 0.7500 0.5000 0.0145(8) Uani 1 8 d S T P . .
O3 O 0.2500 0.2500 0.2027(16) 0.024(3) Uani 1 8 d S T P . .
O2 O 0.2500 0.2500 0.6045(14) 0.028(4) Uani 1 8 d S T P . .
O1 O 0.2500 0.5753(11) 0.3960(7) 0.036(2) Uani 1 2 d S T P . .
O1W O 0.4802(15) 0.6683(12) 0.1275(8) 0.071(2) Uiso 1 1 d . . . . .
loop_
_atom_site_aniso_label
_atom_site_aniso_U_11
_atom_site_aniso_U_22
_atom_site_aniso_U_33
_atom_site_aniso_U_23
_atom_site_aniso_U_13
_atom_site_aniso_U_12
U1 0.0092(3) 0.0092(3) 0.0162(4) 0.000 0.000 0.000
P1 0.0098(11) 0.0098(11) 0.024(2) 0.000 0.000 0.000
O3 0.021(4) 0.021(4) 0.030(7) 0.000 0.000 0.000
O2 0.035(6) 0.035(6) 0.016(7) 0.000 0.000 0.000
O1 0.076(7) 0.012(4) 0.020(3) -0.002(2) 0.000 0.000
loop_
_atom_type_symbol
_atom_type_description
_atom_type_scat_dispersion_real
_atom_type_scat_dispersion_imag
_atom_type_scat_source
O O 0.0106 0.0060 'International Tables Vol C Tables 4.2.6.8 and 6.1.1.4'
P P 0.1023 0.0942 'International Tables Vol C Tables 4.2.6.8 and 6.1.1.4'
U U -9.6767 9.6646 'International Tables Vol C Tables 4.2.6.8 and 6.1.1.4'
loop_
_geom_angle_atom_site_label_1
_geom_angle_atom_site_label_2
_geom_angle_atom_site_label_3
_geom_angle
_geom_angle_site_symmetry_1
_geom_angle_site_symmetry_3
_geom_angle_publ_flag
O2 U1 O3 180.0 . . ?
O2 U1 O1 91.55(15) . . ?
O3 U1 O1 88.45(15) . . ?
O2 U1 O1 91.55(15) . 4 ?
O3 U1 O1 88.45(15) . 4 ?
O1 U1 O1 89.958(9) . 4 ?
O2 U1 O1 91.55(15) . 2 ?
O3 U1 O1 88.45(15) . 2 ?
O1 U1 O1 176.9(3) . 2 ?
O1 U1 O1 89.958(8) 4 2 ?
O2 U1 O1 91.55(15) . 3 ?
O3 U1 O1 88.45(15) . 3 ?
O1 U1 O1 89.958(8) . 3 ?
O1 U1 O1 176.9(3) 4 3 ?
O1 U1 O1 89.958(9) 2 3 ?
O1 P1 O1 111.4(3) . 12_666 ?
O1 P1 O1 105.7(5) . 2_565 ?
O1 P1 O1 111.4(3) 12_666 2_565 ?
O1 P1 O1 111.4(3) . 11_566 ?
O1 P1 O1 105.7(5) 12_666 11_566 ?
O1 P1 O1 111.4(3) 2_565 11_566 ?
P1 O1 U1 141.3(4) . . ?
loop_
_geom_bond_atom_site_label_1
_geom_bond_atom_site_label_2
_geom_bond_distance
_geom_bond_site_symmetry_2
_geom_bond_publ_flag
U1 O2 1.795(12) . ?
U1 O3 1.784(15) . ?
U1 O1 2.276(8) . ?
U1 O1 2.276(8) 4 ?
U1 O1 2.276(8) 2 ?
U1 O1 2.276(8) 3 ?
P1 O1 1.533(7) . ?
P1 O1 1.533(7) 12_666 ?
P1 O1 1.533(7) 2_565 ?
P1 O1 1.533(7) 11_566 ?
O1W O1W 1.142(17) 13_575 ?
