#------------------------------------------------------------------------------
#$Date: 2021-07-20 01:39:33 +0300 (Tue, 20 Jul 2021) $
#$Revision: 267645 $
#$URL: file:///home/coder/svn-repositories/cod/cif/4/00/40/4004010.cif $
#------------------------------------------------------------------------------
#
# This file is available in the Crystallography Open Database (COD),
# http://www.crystallography.net/
#
# All data on this site have been placed in the public domain by the
# contributors.
#
data_4004010
loop_
_publ_author_name
'Kang, Minjung'
'Kang, Dong Won'
'Choe, Jong Hyeak'
'Kim, Hyojin'
'Kim, Dae Won'
'Park, Hyein'
'Hong, Chang Seop'
_publ_section_title
;
 A Robust Hydrogen-Bonded Metal--Organic Framework with Enhanced Ethane
 Uptake and Selectivity
;
_journal_name_full               'Chemistry of Materials'
_journal_paper_doi               10.1021/acs.chemmater.1c01892
_journal_year                    2021
_chemical_formula_moiety         'C12 H10 Co N4 O4'
_chemical_formula_sum            'C12 H10 Co N4 O4'
_chemical_formula_weight         333.17
_space_group_crystal_system      orthorhombic
_space_group_IT_number           34
_space_group_name_Hall           'P 2 -2n'
_space_group_name_H-M_alt        'P n n 2'
_atom_sites_solution_hydrogens   geom
_atom_sites_solution_primary     direct
_atom_sites_solution_secondary   difmap
_audit_creation_method           SHELXL-2017/1
_cell_angle_alpha                90
_cell_angle_beta                 90
_cell_angle_gamma                90
_cell_formula_units_Z            2
_cell_length_a                   12.200(2)
_cell_length_b                   6.7830(14)
_cell_length_c                   10.707(2)
_cell_measurement_reflns_used    24585
_cell_measurement_temperature    293(2)
_cell_measurement_theta_max      34.080
_cell_measurement_theta_min      0.372
_cell_volume                     886.0(3)
_computing_cell_refinement       'HKL3000sm (Otwinowski & Minor, 1997)'
_computing_data_collection       'PAL BL2D-SMDC Program (Shin et. al, 2016)'
_computing_data_reduction        'HKL3000sm (Otwinowski & Minor, 1997)'
_computing_molecular_graphics    WingX
_computing_publication_material  WingX
_computing_structure_refinement  'SHELXL-2017/1 (Sheldrick, 2017)'
_computing_structure_solution    'SHELXT 2018/2 (Sheldrick, 2018)'
_diffrn_ambient_temperature      293(2)
_diffrn_measured_fraction_theta_full 0.998
_diffrn_measured_fraction_theta_max 0.916
_diffrn_measurement_device_type  'Rayonix MX225HS CCD area detector'
_diffrn_measurement_method       'omega scan'
_diffrn_radiation_type           synchrotron
_diffrn_radiation_wavelength     0.700
_diffrn_reflns_av_R_equivalents  0.1098
_diffrn_reflns_av_unetI/netI     0.0803
_diffrn_reflns_Laue_measured_fraction_full 0.998
_diffrn_reflns_Laue_measured_fraction_max 0.916
_diffrn_reflns_limit_h_max       20
_diffrn_reflns_limit_h_min       -20
_diffrn_reflns_limit_k_max       11
_diffrn_reflns_limit_k_min       -11
_diffrn_reflns_limit_l_max       17
_diffrn_reflns_limit_l_min       -18
_diffrn_reflns_number            12719
_diffrn_reflns_point_group_measured_fraction_full 0.996
_diffrn_reflns_point_group_measured_fraction_max 0.910
_diffrn_reflns_theta_full        24.835
_diffrn_reflns_theta_max         36.472
_diffrn_reflns_theta_min         2.493
_diffrn_source                   'PLSII 2D bending magnet'
_exptl_absorpt_coefficient_mu    0.940
_exptl_absorpt_correction_T_max  1.000
_exptl_absorpt_correction_T_min  0.930
_exptl_absorpt_correction_type   empirical
_exptl_absorpt_process_details   'HKL3000sm Scalepack(Otwinowski et.al,2003)'
_exptl_crystal_colour            purple
_exptl_crystal_density_diffrn    1.249
_exptl_crystal_description       block
_exptl_crystal_F_000             338
_exptl_crystal_size_max          0.034
_exptl_crystal_size_mid          0.027
_exptl_crystal_size_min          0.018
_refine_diff_density_max         1.276
_refine_diff_density_min         -2.016
_refine_diff_density_rms         0.108
_refine_ls_abs_structure_details
;
 Flack x determined using 1469 quotients [(I+)-(I-)]/[(I+)+(I-)]
 (Parsons, Flack and Wagner, Acta Cryst. B69 (2013) 249-259).
;
_refine_ls_abs_structure_Flack   0.070(9)
_refine_ls_extinction_method     none
_refine_ls_goodness_of_fit_ref   0.729
_refine_ls_hydrogen_treatment    constr
_refine_ls_matrix_type           full
_refine_ls_number_parameters     96
_refine_ls_number_reflns         4154
_refine_ls_number_restraints     1
_refine_ls_restrained_S_all      0.729
_refine_ls_R_factor_all          0.0625
_refine_ls_R_factor_gt           0.0568
_refine_ls_shift/su_max          0.027
_refine_ls_shift/su_mean         0.003
_refine_ls_structure_factor_coef Fsqd
_refine_ls_weighting_details
'w=1/[\s^2^(Fo^2^)+(0.1969P)^2^+0.1685P] where P=(Fo^2^+2Fc^2^)/3'
_refine_ls_weighting_scheme      calc
_refine_ls_wR_factor_gt          0.1798
_refine_ls_wR_factor_ref         0.1895
_reflns_Friedel_coverage         0.909
_reflns_Friedel_fraction_full    0.995
_reflns_Friedel_fraction_max     0.904
_reflns_number_gt                3581
_reflns_number_total             4154
_reflns_threshold_expression     'I > 2\s(I)'
_cod_data_source_file            cm1c01892_si_002.cif
_cod_data_source_block           Co(IN)2-NH2
_cod_database_code               4004010
_shelx_shelxl_version_number     2017/1
_shelx_space_group_comment
;
The symmetry employed for this shelxl refinement is uniquely defined
by the following loop, which should always be used as a source of
symmetry information in preference to the above space-group names.
They are only intended as comments.
;
_shelx_res_file
;
TITL Co_0_5_a.res in Pnn2
    Co_0_5_a_sq.res
    created by SHELXL-2017/1 at 16:13:37 on 07-Jan-2021
REM Old TITL Co_0_5 in Pnnm
REM SHELXT solution in Pnn2: R1 0.087, Rweak 0.003, Alpha 0.001
REM <I/s>   0.312 for  132 systematic absences,  Orientation as input
REM Flack x =  0.053 ( 0.014 ) from   817 Parsons' quotients
REM Formula found by SHELXT:  C16 N2 O6 Co
CELL  0.70000  12.2000   6.7830  10.7070   90.000   90.000   90.000
ZERR   2.000   0.0024   0.0014   0.0021    0.000    0.000    0.000
LATT -1
SYMM -X, -Y, Z
SYMM 1/2+X, 1/2-Y, 1/2+Z
SYMM 1/2-X, 1/2+Y, 1/2+Z
SFAC C H N O CO
DISP $C  0.00328  0.00164 10.97952!source kissel
DISP $H -0.00002  0.00000  0.66613!source kissel
DISP $N  0.00639  0.00331 18.70527!source kissel
DISP $O  0.01101  0.00602 30.81649!source kissel
DISP $Co  0.34955  0.95468 3825.71471!source kissel
UNIT 24 20 8 8 2
LIST 6 ! automatically inserted. Change 6 to 4 for CHECKCIF!!
ACTA
L.S. 5 0   24
BOND
FMAP 2
PLAN 20
ABIN
WGHT    0.196900    0.168500
FVAR       0.93847
N2    3    0.747669    0.392630    0.426404    11.00000    0.04688    0.03293 =
         0.03726   -0.01562   -0.01977    0.01016
AFIX  93
H2A   2    0.797698    0.333988    0.469086    11.00000   -1.20000
H3B   2    0.718473    0.334549    0.363230    11.00000   -1.20000
AFIX   0
C2    1    0.717016    0.872250    0.583204    11.00000    0.02773    0.03008 =
         0.02754   -0.00999   -0.01117    0.00611
AFIX  43
H2    2    0.744176    0.944573    0.650192    11.00000   -1.20000
AFIX   0
C3    1    0.757472    0.683954    0.560307    11.00000    0.01853    0.02817 =
         0.02152   -0.00407   -0.00687    0.00369
C4    1    0.714909    0.576167    0.458627    11.00000    0.02284    0.03017 =
         0.02328   -0.00544   -0.00752    0.00226
C5    1    0.634406    0.671218    0.385057    11.00000    0.02260    0.03175 =
         0.02309   -0.00467   -0.00829    0.00095
AFIX  43
H5    2    0.605513    0.603377    0.317134    11.00000   -1.20000
AFIX   0
C6    1    0.845273    0.602882    0.642200    11.00000    0.02018    0.03111 =
         0.01859   -0.00240   -0.00230    0.00316
CO1   5    0.500000    1.000000    0.279440    10.50000    0.01425    0.02866 =
         0.01886    0.00000    0.00000    0.00010
O1    4    0.887385    0.714777    0.725762    11.00000    0.02186    0.03225 =
         0.02346   -0.00613   -0.00569    0.00252
N1    3    0.597734    0.852781    0.407846    11.00000    0.01810    0.03256 =
         0.02355   -0.00151   -0.00640    0.00282
C1    1    0.636940    0.953195    0.507614    11.00000    0.02602    0.03384 =
         0.02385   -0.00685   -0.00960    0.01081
AFIX  43
H1    2    0.609671    1.078083    0.525487    11.00000   -1.20000
AFIX   0
O2    4    0.879995    0.429506    0.628599    11.00000    0.02787    0.03205 =
         0.02678   -0.00664   -0.00873    0.00740
HKLF 4




REM  Co_0_5_a.res in Pnn2
REM R1 =  0.0568 for    3581 Fo > 4sig(Fo)  and  0.0625 for all    4154 data
REM     96 parameters refined using      1 restraints

END

WGHT      0.0854      0.0000

REM Highest difference peak  1.276,  deepest hole -2.016,  1-sigma level  0.108
Q1    1   0.5010  0.9044  0.2198  11.00000  0.05    1.28
Q2    1   0.4998  0.9035  0.3407  11.00000  0.05    1.17
Q3    1   0.5570  1.0001  0.3409  11.00000  0.05    1.07
Q4    1   0.5545  0.9991  0.2211  11.00000  0.05    1.01
Q5    1   0.5571  0.9018  0.2793  11.00000  0.05    0.84
Q6    1   0.5582  1.1005  0.2788  11.00000  0.05    0.74
Q7    1   0.9402  0.7237  0.7837  11.00000  0.05    0.53
Q8    1   0.5872  0.9982  0.2846  11.00000  0.05    0.47
Q9    1   0.5000  1.0000  0.4434  10.50000  0.05    0.43
Q10   1   0.6179  0.9530  0.3563  11.00000  0.05    0.37
Q11   1   0.7119  0.6536  0.5159  11.00000  0.05    0.37
Q12   1   0.9229  0.2995  0.6338  11.00000  0.05    0.36
Q13   1   0.5634  0.7742  0.2820  11.00000  0.05    0.35
Q14   1   0.6342  0.9199  0.2769  11.00000  0.05    0.35
Q15   1   0.7951  0.6015  0.5820  11.00000  0.05    0.35
Q16   1   0.8354  0.4583  0.6799  11.00000  0.05    0.34
Q17   1   0.7518  0.5972  0.5173  11.00000  0.05    0.34
Q18   1   0.6512  0.9689  0.4070  11.00000  0.05    0.34
Q19   1   0.6490  1.0310  0.4140  11.00000  0.05    0.32
Q20   1   0.8661  0.5831  0.7809  11.00000  0.05    0.32
;
_shelx_res_checksum              16298
_shelx_hkl_file
;
   1   0   0    0.13    0.27
  -1   0   0    0.74    0.47
   2   0   0  239.14    7.41
  -2   0   0  234.09    6.94
   3   0   0    0.13    0.54
  -3   0   0    1.01    0.54
   4   0   0  235.44    8.08
  -4   0   0  220.42    7.95
   5   0   0    0.00    0.88
  -5   0   0    0.40    0.81
   6   0   0   45.94    4.18
  -6   0   0   47.96    2.96
   7   0   0   -0.07    1.08
  -7   0   0   -1.55    1.08
   8   0   0 5913.90  147.19
  -8   0   0 5845.93  207.28
   9   0   0   -0.74    1.28
  -9   0   0    0.13    1.28
  10   0   0  572.93   17.65
 -10   0   0  529.75   17.11
  11   0   0    2.43    1.82
 -11   0   0    0.07    2.22
  12   0   0  109.00    5.12
 -12   0   0  107.58    5.66
  13   0   0    2.63    2.36
  14   0   0  258.00    9.63
 -14   0   0  262.38   15.43
  15   0   0    1.21    2.36
 -15   0   0   -0.54    2.36
  16   0   0  144.83    7.75
 -16   0   0  138.90   12.26
  17   0   0   -1.62    2.69
 -17   0   0    1.08    2.90
  18   0   0  110.75    7.41
 -18   0   0  126.44    8.89
  19   0   0   -1.28    4.85
 -19   0   0    7.41    8.29
 -20   0   1   -0.27    6.40
 -19   0   1   89.73    6.74
  19   0  -1   92.90    6.33
 -18   0   1    3.03    3.30
  18   0  -1   -0.40    2.83
 -17   0   1  157.77    9.84
  17   0  -1  190.98   10.31
 -16   0   1    0.00    2.76
  16   0  -1    1.15    2.36
 -15   0   1  152.58    7.54
  15   0  -1  133.31    6.13
 -14   0   1    1.01    2.76
  14   0  -1    1.08    2.56
 -13   0   1  132.98    6.26
  13   0  -1  130.28    5.66
 -12   0   1   -0.20    1.89
  12   0  -1   -0.74    1.62
 -11   0   1  235.71   10.91
  11   0  -1  284.88   11.59
 -10   0   1   -1.35    1.62
  10   0  -1   -0.27    1.62
  -9   0   1 1609.33   45.61
   9   0  -1 1563.93   42.78
  -8   0   1    0.20    1.15
   8   0  -1   -0.74    1.01
  -7   0   1 2099.20   57.80
   7   0  -1 2182.20   56.72
  -6   0   1   -0.47    1.41
   6   0  -1    0.20    0.94
  -5   0   1  172.18    9.50
   5   0  -1  138.50    5.39
  -4   0   1   -0.81    0.74
   4   0  -1   -0.40    1.08
  -3   0   1 1437.89   38.46
   3   0  -1 1557.86   41.90
  -2   0   1    0.20    0.40
   2   0  -1    0.34    0.47
   0   0  -1   -0.13    0.34
  -1   0  -1 4692.59  166.12
   2   0   1    0.67    0.67
  -2   0  -1   -0.61    0.88
   3   0   1 1418.35   38.40
  -3   0  -1 1574.71   45.00
   4   0   1   -1.15    0.94
  -4   0  -1    0.34    0.88
   5   0   1  184.85    6.74
  -5   0  -1  144.70    5.93
   6   0   1    1.68    1.15
  -6   0  -1    0.27    1.08
   7   0   1 2106.61   56.05
  -7   0  -1 2238.18   60.56
   8   0   1   -0.67    1.35
  -8   0  -1    0.27    1.68
   9   0   1 1660.80   48.30
  -9   0  -1 1514.14   59.89
  10   0   1   -0.40    1.62
 -10   0  -1   -0.61    1.55
  11   0   1  277.27   11.25
 -11   0  -1  319.98   11.05
  12   0   1    0.40    2.36
 -12   0  -1    1.15    3.03
  13   0   1  161.74    6.87
 -13   0  -1  127.59   10.04
  14   0   1    0.54    2.22
 -14   0  -1    1.89    2.49
  15   0   1  179.32    8.42
  16   0   1    0.74    2.63
 -16   0  -1   -0.54    3.57
  17   0   1  177.30    9.36
 -17   0  -1  226.34   10.98
  18   0   1    2.69    3.17
 -18   0  -1    1.08    4.24
  19   0   1   96.87    6.87
 -19   0  -1  121.12    7.48
 -20   0   2   47.02   10.10
  20   0  -2   36.58    5.59
 -19   0   2    0.94    4.38
  19   0  -2    2.43    3.64
 -18   0   2  137.76    8.29
  18   0  -2  159.59    8.62
 -17   0   2   -0.27    2.83
  17   0  -2   -0.88    2.49
 -16   0   2  177.77    9.23
  16   0  -2  185.05    9.16
 -15   0   2   -0.94    2.83
  15   0  -2    0.47    2.36
 -14   0   2  101.18    5.59
  14   0  -2   82.66    4.85
 -13   0   2   -0.34    2.02
  13   0  -2   -2.22    1.75
 -12   0   2  274.31   19.33
  12   0  -2  284.75   10.10
 -11   0   2    2.29    2.02
  11   0  -2   -1.62    1.48
 -10   0   2  793.42   24.66
  10   0  -2  805.34   23.64
  -9   0   2   -0.40    1.21
   9   0  -2   -0.81    1.08
  -8   0   2  411.60   13.41
   8   0  -2  437.06   13.27
  -7   0   2   -0.13    0.94
   7   0  -2   -0.88    1.01
  -6   0   2 1584.41   44.06
   6   0  -2 1599.56   44.26
  -5   0   2    0.67    0.74
   5   0  -2    0.47    0.74
  -4   0   2 1002.51   36.65
   4   0  -2  907.46   35.30
  -3   0   2   -0.88    0.94
   3   0  -2    1.82    0.74
  -1   0   2   -0.27    0.40
   1   0  -2    0.00    0.40
   0   0   2  190.84    6.26
   0   0  -2  161.47    5.46
   1   0   2    0.34    0.54
  -1   0  -2    0.20    0.54
   3   0   2   -0.34    1.48
  -4   0  -2  857.21   33.82
   5   0   2    0.74    0.94
  -5   0  -2    0.27    1.01
   6   0   2 1691.04   47.90
  -6   0  -2 1683.03   44.12
   7   0   2    0.13    1.15
  -7   0  -2    1.41    1.21
   8   0   2  473.97   15.09
  -8   0  -2  451.88   13.88
   9   0   2   -0.13    1.35
  -9   0  -2    0.20    1.41
  10   0   2  961.42   29.71
 -10   0  -2  852.02   26.14
  11   0   2    0.27    2.56
 -11   0  -2    0.27    2.09
  12   0   2  439.15   16.03
 -12   0  -2  396.91   15.36
  13   0   2    1.75    2.63
 -13   0  -2   -0.20    2.43
  14   0   2  123.28    6.60
 -14   0  -2  117.42    5.79
  15   0   2    3.44    3.57
 -15   0  -2    2.09    5.66
  16   0   2  207.35    8.62
 -16   0  -2  216.24   11.52
  17   0   2   -0.88    3.50
 -17   0  -2   -0.40    4.51
  18   0   2  162.48    9.30
 -18   0  -2  186.46   11.99
  19   0   2    0.34    5.25
 -20   0   3    0.94    3.50
  20   0  -3   -1.62    3.37
 -19   0   3   55.10    8.29
  19   0  -3   68.51    5.46
 -18   0   3   -1.68    3.37
  18   0  -3   -0.67    3.10
 -17   0   3  132.51    7.88
  17   0  -3  140.25    9.09
 -16   0   3    1.35    2.43
  16   0  -3   -1.35    2.76
 -15   0   3  162.21   10.44
  15   0  -3  196.84    7.88
 -14   0   3    1.21    2.56
  14   0  -3    0.13    2.02
 -13   0   3  125.70    6.00
  13   0  -3  121.12    5.46
 -12   0   3    0.34    1.82
  12   0  -3   -0.13    1.55
 -11   0   3  473.50   22.43
  11   0  -3  437.73   13.94
 -10   0   3    0.40    1.55
  10   0  -3   -0.54    1.35
  -9   0   3  341.27   15.97
   9   0  -3  381.62   12.26
  -8   0   3   -0.88    1.21
   8   0  -3    0.27    1.08
  -7   0   3  430.52   14.95
   7   0  -3  528.07   16.30
  -6   0   3   -0.34    0.94
   6   0  -3    0.40    0.81
  -5   0   3 2047.47   54.03
   5   0  -3 2062.76   53.96
  -4   0   3    0.13    0.67
   4   0  -3   -0.61    1.01
  -3   0   3 4977.20  173.93
   3   0  -3 4994.72  176.83
  -2   0   3    0.40    0.81
   2   0  -3   -0.13    0.61
  -1   0   3   89.59    3.57
   1   0  -3  149.21    5.25
   0   0   3    0.74    0.47
   0   0  -3    0.54    0.54
   1   0   3   93.64    3.97
  -1   0  -3  157.23    6.74
   2   0   3   -0.40    0.74
  -2   0  -3   -0.40    0.74
   3   0   3 5112.54  126.98
  -3   0  -3 4857.23  119.17
   4   0   3    0.34    1.21
  -4   0  -3    0.54    1.08
   5   0   3 2203.68   80.90
  -5   0  -3 2165.15   86.63
   6   0   3   -0.61    1.62
  -6   0  -3    0.74    1.75
   7   0   3  476.53   15.09
  -7   0  -3  546.26   15.90
   8   0   3    1.08    1.35
  -8   0  -3   -1.21    1.35
   9   0   3  386.20   17.65
  -9   0  -3  409.78   16.23
  10   0   3    0.54    2.43
 -10   0  -3   -1.95    2.43
  11   0   3  705.98   22.50
 -11   0  -3  645.35   24.66
  12   0   3    0.13    2.09
 -12   0  -3   -0.27    2.16
  13   0   3  173.40    8.08
 -13   0  -3  183.97    8.08
  14   0   3    2.29    2.43
 -14   0  -3   -0.34    2.49
  15   0   3  244.20   10.17
 -15   0  -3  255.38   17.18
  16   0   3   -3.17    2.96
 -16   0  -3   -0.13    3.71
  17   0   3  192.19    9.70
 -17   0  -3  201.55   10.24
  18   0   3    1.95    3.77
 -18   0  -3   -2.69    4.18
 -20   0   4   17.38    5.73
  20   0  -4   16.50    4.45
 -19   0   4    1.62    3.37
  19   0  -4    1.68    3.17
 -18   0   4   42.51    6.60
  18   0  -4   62.51    5.46
 -17   0   4    0.61    3.10
  17   0  -4   -0.74    2.29
 -16   0   4  207.08   10.31
  16   0  -4  192.32    9.36
 -15   0   4    2.76    4.65
  15   0  -4    0.40    2.36
 -14   0   4  195.02    9.03
  14   0  -4  189.16    7.48
 -13   0   4    0.20    2.22
  13   0  -4    0.00    1.68
 -12   0   4  198.72    7.75
  12   0  -4  168.81    6.40
 -11   0   4   -1.28    1.55
  11   0  -4    0.40    1.41
 -10   0   4  304.62   10.71
  10   0  -4  347.73   10.85
  -9   0   4    1.28    2.43
   9   0  -4    0.81    1.55
  -8   0   4  275.18    9.63
   8   0  -4  267.84    9.43
  -7   0   4    0.07    1.01
   7   0  -4    0.88    1.01
  -6   0   4 1058.63   30.18
   6   0  -4 1096.22   32.94
  -5   0   4    0.00    0.67
   5   0  -4   -0.20    0.81
  -4   0   4 3063.32   81.11
   4   0  -4 2939.97   74.30
  -3   0   4   -0.34    0.54
   3   0  -4   -0.07    0.61
  -2   0   4 1896.17   49.92
   2   0  -4 1864.17   48.91
  -1   0   4   -0.07    0.54
   1   0  -4   -0.27    0.61
   0   0   4   32.54    2.02
   0   0  -4   72.62    3.17
   1   0   4   -0.13    1.01
  -1   0  -4    0.00    0.81
   2   0   4 1972.36   54.43
  -2   0  -4 2091.46   58.40
   3   0   4   -0.40    0.88
  -3   0  -4    0.81    0.94
   4   0   4 3150.62   80.70
  -4   0  -4 3086.56   83.60
   5   0   4    0.61    1.21
  -5   0  -4   -0.13    1.08
   6   0   4 1157.72   47.76
  -6   0  -4 1150.04   34.42
   7   0   4    1.62    1.75
  -7   0  -4    3.17    2.16
   8   0   4  303.88   10.91
  -8   0  -4  291.48   10.71
   9   0   4    1.28    1.68
  -9   0  -4   -1.48    1.48
  10   0   4  431.53   13.74
 -10   0  -4  477.34   17.04
  11   0   4   -0.34    2.09
 -11   0  -4   -0.94    2.36
  12   0   4  324.90   14.08
 -12   0  -4  313.04   14.08
  13   0   4    0.67    2.49
 -13   0  -4    1.55    2.63
  14   0   4  302.80   12.80
 -14   0  -4  272.96   12.19
  15   0   4    0.47    2.43
 -15   0  -4   -0.88    2.83
  16   0   4  292.63   11.92
 -16   0  -4  294.52   21.62
  17   0   4    0.07    4.24
 -17   0  -4   -1.55    4.51
  18   0   4   71.54    5.86
 -18   0  -4   81.78    7.68
 -19   0   5   20.88    3.23
  19   0  -5   20.41    3.10
 -18   0   5   -0.34    3.17
  18   0  -5   -0.88    2.90
 -17   0   5  104.15    5.73
  17   0  -5  102.12    6.06
 -16   0   5    1.08    2.22
  16   0  -5    1.55    2.36
 -15   0   5  126.85   10.58
  15   0  -5  112.23    6.33
 -14   0   5    1.62    2.36
  14   0  -5   -1.41    2.56
 -13   0   5  180.06   10.24
  13   0  -5  165.45    7.28
 -12   0   5   -0.74    3.17
  12   0  -5   -0.07    2.29
 -11   0   5  167.27    6.20
  11   0  -5  174.61    7.14
 -10   0   5   -0.40    1.48
  10   0  -5   -1.41    1.35
  -9   0   5  403.65   13.47
   9   0  -5  469.87   14.55
  -8   0   5   -0.67    1.08
   8   0  -5    0.34    1.28
  -7   0   5  663.74   20.14
   7   0  -5  601.76   18.39
  -6   0   5    1.95    1.08
   6   0  -5    0.74    0.88
  -5   0   5 1093.72   32.00
   5   0  -5 1088.61   42.24
  -4   0   5    0.20    0.81
   4   0  -5   -0.34    0.74
  -3   0   5 1165.80   32.33
   3   0  -5 1259.44   48.23
  -2   0   5    0.00    0.67
   2   0  -5    0.34    0.81
  -1   0   5  189.23    7.14
   1   0  -5  209.23    7.48
   0   0   5    0.34    0.67
   0   0  -5   -0.47    0.74
   1   0   5  188.01    7.48
  -1   0  -5  215.30    7.21
   2   0   5    0.34    0.88
  -2   0  -5    0.20    0.88
   3   0   5 1304.44   37.32
  -3   0  -5 1314.14   35.84
   4   0   5   -0.27    1.01
  -4   0  -5    0.74    1.01
   5   0   5 1177.05   33.01
  -5   0  -5 1158.19   34.42
   6   0   5    0.07    1.28
  -6   0  -5   -0.13    1.21
   7   0   5  786.88   22.50
  -7   0  -5  706.52   22.57
   8   0   5    1.15    1.62
  -8   0  -5   -0.94    2.43
   9   0   5  592.13   27.55
  -9   0  -5  684.08   21.42
  10   0   5   -0.40    1.75
 -10   0  -5    0.20    2.02
  11   0   5  290.00   11.72
 -11   0  -5  328.33   13.20
  12   0   5    0.07    2.02
 -12   0  -5    1.28    2.43
  13   0   5  309.40   13.20
 -13   0  -5  298.02   13.00
  14   0   5    1.08    2.90
 -14   0  -5   -0.47    3.37
  15   0   5  243.99   10.58
 -15   0  -5  219.14   10.58
  16   0   5    0.20    2.90
 -16   0  -5   -0.27    3.44
  17   0   5  169.62    9.57
 -17   0  -5  188.69   11.05
  18   0   5   -1.21    7.81
 -19   0   6    0.74    4.65
  19   0  -6   -1.01    3.17
 -18   0   6   60.90    7.41
  18   0  -6   71.14    5.32
 -17   0   6    2.02    5.12
  17   0  -6   -1.01    2.29
 -16   0   6   26.41    3.64
  16   0  -6   29.98    3.23
 -15   0   6   -0.61    2.49
  15   0  -6   -1.89    2.22
 -14   0   6  245.14   10.10
  14   0  -6  195.15    7.61
 -13   0   6    0.13    1.62
  13   0  -6    1.01    1.68
 -12   0   6  145.91    7.07
  12   0  -6  145.44    6.53
 -11   0   6    0.07    2.56
  11   0  -6    2.76    2.69
 -10   0   6  341.27   11.38
  10   0  -6  364.17   12.93
  -9   0   6   -0.07    1.41
   9   0  -6   -0.27    1.08
  -8   0   6  289.87    9.63
   8   0  -6  331.16   11.65
  -7   0   6   -0.94    1.08
   7   0  -6    0.20    1.01
  -6   0   6 1136.50   34.42
   6   0  -6  993.35   30.58
  -5   0   6   -1.28    1.01
   5   0  -6   -1.08    1.28
  -4   0   6 1479.72   43.38
   4   0  -6 1489.83   57.06
  -3   0   6   -0.07    0.81
   3   0  -6    0.00    0.94
  -2   0   6  676.47   21.76
   2   0  -6  607.22   19.13
  -1   0   6    0.88    0.74
   1   0  -6   -0.13    0.74
   0   0   6 2662.70  102.66
   0   0  -6 2843.44   74.71
   1   0   6    0.54    0.74
  -1   0  -6   -0.27    0.94
   2   0   6  727.20   24.12
  -2   0  -6  660.03   19.67
   3   0   6   -0.47    1.01
  -3   0  -6    0.94    1.08
   4   0   6 1678.92   47.29
  -4   0  -6 1754.57   46.62
   5   0   6   -1.21    1.21
  -5   0  -6   -0.07    1.21
   6   0   6 1331.45   36.85
  -6   0  -6 1152.26   31.66
   7   0   6    0.81    1.48
  -7   0  -6    0.27    1.62
   8   0   6  408.90   13.81
  -8   0  -6  464.27   15.09
   9   0   6   -2.22    2.16
  -9   0  -6   -1.55    2.29
  10   0   6  590.51   20.61
 -10   0  -6  578.46   29.57
  11   0   6    2.16    3.23
 -11   0  -6   -1.41    2.29
  12   0   6  257.74   10.10
 -12   0  -6  245.48    9.36
  13   0   6   -1.35    2.29
 -13   0  -6    1.75    3.10
  14   0   6  438.07   15.63
 -14   0  -6  396.37   18.32
  15   0   6    1.55    3.10
 -15   0  -6    2.49    3.30
  16   0   6   55.84    5.39
 -16   0  -6   59.68    6.13
  17   0   6    4.65    4.58
 -17   0  -6   -1.41    4.78
  18   0  -7   -2.43    3.37
 -17   0   7   21.83    4.11
  17   0  -7   24.32    3.77
 -16   0   7   -1.35    3.10
  16   0  -7   -0.20    2.09
 -15   0   7   45.67    4.31
  15   0  -7   50.39    3.57
 -14   0   7    0.74    2.22
  14   0  -7   -0.74    2.09
  13   0  -7  190.10    8.22
 -12   0   7   -0.54    1.68
  12   0  -7   -0.94    1.62
 -11   0   7  234.70   14.82
  11   0  -7  249.65   10.71
 -10   0   7    0.13    1.48
  10   0  -7   -0.74    1.35
  -9   0   7  296.27   11.65
   9   0  -7  318.16   10.78
  -8   0   7   -0.74    1.08
   8   0  -7    0.81    1.15
  -7   0   7  613.76   18.79
   7   0  -7  684.02   28.23
  -6   0   7   -0.07    1.08
   6   0  -7   -0.54    1.62
  -5   0   7 1008.31   28.76
   5   0  -7  884.42   26.07
  -4   0   7    0.13    0.74
   4   0  -7   -0.40    0.94
  -3   0   7  304.89   10.04
   3   0  -7  307.05   10.10
  -2   0   7   -0.20    0.74
   2   0  -7   -0.81    1.01
  -1   0   7 1389.05   37.59
   1   0  -7 1479.79   42.84
   0   0   7    0.13    0.94
   0   0  -7    0.07    1.15
   1   0   7 1389.25   39.81
  -1   0  -7 1467.93   41.63
   2   0   7    0.74    1.01
  -2   0  -7    0.40    1.08
   3   0   7  352.99   11.25
  -3   0  -7  320.99   10.58
   4   0   7   -0.74    1.21
  -4   0  -7    1.01    1.21
   5   0   7 1223.94   42.57
  -5   0  -7 1109.62   31.93
   6   0   7   -1.35    1.48
  -6   0  -7   -1.48    1.62
   7   0   7  824.00   26.07
  -7   0  -7 1008.91   30.45
   8   0   7   -0.67    1.75
  -8   0  -7   -0.88    1.89
   9   0   7  476.26   16.77
  -9   0  -7  505.43   19.00
  10   0   7    2.16    2.49
 -10   0  -7   -2.56    2.76
  11   0   7  403.71   15.70
 -11   0  -7  430.26   15.16
  12   0   7    4.11    3.44
 -12   0  -7    2.69    4.18
  13   0   7  422.98   15.29
 -13   0  -7  367.61   14.15
  14   0   7    0.00    4.18
 -14   0  -7    1.01    4.24
  15   0   7   97.14    5.86
 -15   0  -7  120.85    6.94
  16   0   7    0.94    3.44
 -16   0  -7    1.41    3.77
 -17   0   8    0.54    2.36
  17   0  -8   -0.27    2.90
 -16   0   8   40.96    5.19
  16   0  -8   54.36    3.84
 -15   0   8    0.81    2.16
  15   0  -8    0.67    2.02
 -14   0   8   52.27    5.52
  14   0  -8   51.94    3.71
 -13   0   8    0.54    2.43
  13   0  -8   -0.07    1.82
 -12   0   8  361.34   17.99
  12   0  -8  298.42   10.71
 -11   0   8   -0.07    1.75
  11   0  -8    0.27    1.55
 -10   0   8   19.74    2.22
  10   0  -8   12.66    1.68
  -9   0   8    0.61    1.55
   9   0  -8   -0.27    1.15
  -8   0   8  349.08   11.32
   8   0  -8  359.05   12.13
  -7   0   8    0.47    1.28
   7   0  -8    0.34    1.15
  -6   0   8  391.92   18.32
   6   0  -8  448.78   14.48
  -5   0   8    0.07    1.01
   5   0  -8   -0.20    1.28
  -4   0   8 1108.34   30.79
   4   0  -8  988.30   28.29
  -3   0   8    0.81    1.28
   3   0  -8    0.07    0.94
  -2   0   8  745.32   24.05
   2   0  -8  868.80   34.29
  -1   0   8    0.07    1.01
   1   0  -8    0.40    1.41
   0   0   8  776.64   22.90
   0   0  -8  816.99   24.18
   1   0   8    0.40    1.08
  -1   0  -8    0.07    1.08
   2   0   8  805.88   23.58
  -2   0  -8  867.38   25.40
   3   0   8   -0.27    1.41
  -3   0  -8    1.01    1.41
   4   0   8 1322.16   37.72
  -4   0  -8 1155.03   32.60
   5   0   8   -0.34    1.55
  -5   0  -8   -1.08    1.89
   6   0   8  539.12   17.99
  -6   0  -8  616.05   19.81
   7   0   8   -1.01    2.16
  -7   0  -8    0.00    1.95
   8   0   8  549.29   17.18
  -8   0  -8  563.50   19.47
   9   0   8   -0.67    2.09
  -9   0  -8   -0.20    2.02
  10   0   8   26.81    3.64
 -10   0  -8   28.29    3.37
  11   0   8   -3.03    3.23
 -11   0  -8   -0.54    3.64
  12   0   8  725.58   28.29
 -12   0  -8  673.44   39.27
  13   0   8    0.54    3.44
 -13   0  -8    5.19    7.21
  14   0   8  109.00   13.61
 -14   0  -8  142.48   10.24
  15   0   8    1.21    3.30
 -15   0  -8    2.63    3.64
  16   0   8  136.82    7.68
 -16   0  -8  142.48    9.77
 -16   0   9   -1.89    2.63
  16   0  -9    0.61    4.18
 -15   0   9   64.33    4.24
  15   0  -9   71.88    4.92
 -14   0   9    0.54    3.23
  14   0  -9    1.15    2.49
 -13   0   9  127.39    6.13
  13   0  -9  129.54    6.53
 -12   0   9    0.54    3.37
  12   0  -9   -1.41    2.83
 -11   0   9  153.32    9.77
  11   0  -9  141.13    6.94
 -10   0   9   -1.62    2.69
  10   0  -9    0.00    1.68
  -9   0   9   52.34    4.92
   9   0  -9   65.01    4.65
  -8   0   9    1.08    1.35
   8   0  -9    0.88    1.08
  -7   0   9  490.88   21.83
   7   0  -9  536.15   22.90
  -6   0   9   -0.13    1.41
   6   0  -9    0.67    1.75
  -5   0   9  382.36   11.99
   5   0  -9  417.79   13.74
  -4   0   9   -0.88    0.94
   4   0  -9    0.54    1.21
  -3   0   9  574.95   16.91
   3   0  -9  517.02   23.17
  -2   0   9    0.34    1.01
   2   0  -9    0.07    1.01
  -1   0   9  391.66   12.53
   1   0  -9  437.19   16.30
   0   0   9    0.34    2.02
   0   0  -9   -0.61    1.21
   1   0   9  399.33   19.87
  -1   0  -9  458.82   19.67
   2   0   9    1.28    1.62
  -2   0  -9   -0.07    1.68
   3   0   9  622.11   18.59
  -3   0  -9  587.95   18.79
   4   0   9   -0.61    2.29
  -4   0  -9   -1.01    2.29
   5   0   9  472.16   24.79
  -5   0  -9  602.44   28.83
   6   0   9    1.95    2.29
  -6   0  -9   -1.68    1.89
   7   0   9  784.12   25.13
  -7   0  -9  808.37   25.80
   8   0   9    1.15    2.02
  -8   0  -9   -0.20    2.09
   9   0   9   85.35    6.13
  -9   0  -9  107.31    6.00
  10   0   9   -1.15    2.56
 -10   0  -9    1.68    2.83
  11   0   9  325.64   14.01
 -11   0  -9  287.51   11.38
  12   0   9    1.41    3.17
 -12   0  -9   -1.01    3.50
  13   0   9  321.39   14.15
 -13   0  -9  356.09   14.95
  14   0   9    4.04    3.50
 -14   0  -9    0.27    4.51
  15   0   9  221.22   16.71
 -15   0  -9  231.19   20.28
 -15   0  10   -0.34    2.69
  15   0 -10   -0.61    2.02
  14   0 -10   96.87    5.79
 -13   0  10   -0.13    1.82
  13   0 -10    0.40    1.55
 -12   0  10   45.81    4.65
  12   0 -10   49.11    4.18
 -11   0  10    1.82    2.69
  11   0 -10    1.62    2.83
 -10   0  10  123.95    8.49
  10   0 -10  125.97    9.16
  -9   0  10    0.40    1.62
   9   0 -10    0.67    1.41
  -8   0  10   33.75    2.76
   8   0 -10   27.48    2.76
  -7   0  10    0.20    1.28
   7   0 -10   -0.67    1.55
  -6   0  10  242.98   10.24
   6   0 -10  250.26    9.09
  -5   0  10   -1.41    1.21
   5   0 -10    0.67    1.41
  -4   0  10  708.67   22.10
   4   0 -10  777.65   25.87
  -3   0  10    0.40    1.89
   3   0 -10   -1.01    1.68
  -2   0  10  204.59    7.88
   2   0 -10  179.53   11.65
  -1   0  10    1.21    1.41
   1   0 -10   -0.40    1.62
   0   0  10   46.01    2.96
   0   0 -10   47.63    3.03
   1   0  10    0.13    1.75
  -1   0 -10    0.94    1.75
   2   0  10  204.45   10.64
  -2   0 -10  188.75    9.77
   3   0  10    0.74    1.55
  -3   0 -10    0.00    1.68
   4   0  10  890.42   25.80
  -4   0 -10  976.51   30.99
   5   0  10   -1.68    1.75
  -5   0 -10    0.81    2.43
   6   0  10  371.72   14.48
  -6   0 -10  367.94   16.50
   7   0  10    1.28    1.95
  -7   0 -10    1.21    2.09
   8   0  10   67.84    5.19
  -8   0 -10   50.19    4.92
   9   0  10   -1.28    3.10
  -9   0 -10    0.34    2.90
  10   0  10  254.10   11.86
 -10   0 -10  230.99   10.37
  11   0  10    1.35    3.44
 -11   0 -10    2.09    3.37
  12   0  10  118.49    7.34
 -12   0 -10  130.35    7.88
  13   0  10   -1.75    3.77
 -13   0 -10   -1.08    3.91
  14   0  10  333.12   17.45
 -14   0 -10  337.23   18.26
 -14   0  11    0.54    2.16
  14   0 -11   -0.27    2.29
 -13   0  11   38.33    2.90
  13   0 -11   41.09    2.56
 -12   0  11   -1.01    3.03
  12   0 -11    0.61    2.69
 -11   0  11   59.21    4.85
  11   0 -11   61.03    5.79
 -10   0  11    1.95    1.55
  10   0 -11    1.15    1.48
  -9   0  11   78.55    4.85
   9   0 -11   65.75    3.77
  -8   0  11   -0.34    1.55
   8   0 -11    0.47    2.22
  -7   0  11   47.49    3.37
   7   0 -11   32.07    2.96
  -6   0  11   -0.47    1.68
   6   0 -11   -0.20    1.35
  -5   0  11  535.07   18.19
   5   0 -11  534.80   17.72
  -4   0  11   -0.74    1.89
   4   0 -11    1.89    1.35
  -3   0  11  543.16   15.90
   3   0 -11  533.59   18.39
  -2   0  11    0.20    1.28
   2   0 -11   -0.61    1.75
   1   0 -11   78.82    4.65
   0   0  11   -1.55    1.82
   0   0 -11    0.27    2.02
   1   0  11  108.93    5.12
  -1   0 -11   80.70    6.13
   2   0  11   -0.61    1.62
  -2   0 -11    1.08    1.89
   3   0  11  610.18   20.21
  -3   0 -11  642.86   19.94
   4   0  11    1.01    1.68
  -4   0 -11    0.00    1.82
   5   0  11  701.33   23.38
  -5   0 -11  748.35   24.05
   6   0  11   -0.67    2.02
  -6   0 -11   -1.01    2.43
   7   0  11   71.07    4.51
  -7   0 -11   56.92    4.65
   8   0  11    0.00    2.49
  -8   0 -11   -0.81    2.56
   9   0  11  183.43   10.31
  -9   0 -11  134.66    8.08
  10   0  11    1.75    2.96
 -10   0 -11   -1.08    3.37
  11   0  11  163.63    9.16
 -11   0 -11  165.11    8.62
  12   0  11   -0.27    4.11
 -12   0 -11    0.07    4.24
  13   0  11  134.46    7.95
 -13   0 -11  146.99    8.29
 -13   0  12    0.34    1.89
  13   0 -12    0.61    1.89
 -12   0  12    7.01    4.24
  12   0 -12   14.28    2.43
 -11   0  12    0.54    1.95
  11   0 -12    1.41    2.43
 -10   0  12   63.59    4.24
  10   0 -12   40.89    3.23
  -9   0  12   -0.54    1.82
   9   0 -12   -0.47    1.41
  -8   0  12   53.49    3.23
   8   0 -12   34.76    2.29
  -7   0  12    1.28    1.89
   7   0 -12   -0.13    1.55
  -6   0  12  157.63    7.61
   6   0 -12  156.55    9.16
  -5   0  12    0.47    1.28
   5   0 -12    1.01    1.89
  -4   0  12  239.41    9.09
   4   0 -12  248.78   10.98
  -3   0  12    0.88    2.43
   3   0 -12   -0.34    2.56
  -2   0  12  181.48   10.51
   2   0 -12  184.24    8.35
  -1   0  12    0.67    1.75
   1   0 -12    1.89    2.09
   0   0  12  117.62    5.79
   0   0 -12   86.63    5.86
   1   0  12    0.20    2.09
  -1   0 -12    0.34    2.49
   2   0  12  211.25    9.09
  -2   0 -12  218.33    8.02
   3   0  12    0.40    2.36
  -3   0 -12    1.01    2.83
   4   0  12  321.60   16.71
  -4   0 -12  369.29   12.60
   5   0  12    2.43    2.36
  -5   0 -12    1.21    3.10
   6   0  12  269.32   11.38
  -6   0 -12  248.64   10.78
   7   0  12    0.88    2.69
  -7   0 -12   -1.62    3.03
   8   0  12  107.65    6.47
  -8   0 -12   76.26    5.46
   9   0  12   -1.28    3.44
  -9   0 -12    1.01    3.03
  10   0  12  152.24    8.29
 -10   0 -12  149.41    8.96
  11   0  12    1.01    3.77
 -11   0 -12    1.28    3.97
  12   0  12   43.18    5.79
 -12   0 -12   50.12    6.53
 -11   0  13   10.37    2.76
  11   0 -13   15.09    2.43
 -10   0  13    0.13    2.02
  10   0 -13   -0.88    1.75
  -9   0  13   58.67    3.23
   9   0 -13   55.91    4.11
  -8   0  13    0.88    2.49
   8   0 -13    0.00    2.49
  -7   0  13   72.69    4.24
   7   0 -13   59.01    5.05
  -6   0  13   -0.27    1.55
   6   0 -13   -1.82    3.10
  -5   0  13  127.25    6.74
   5   0 -13  115.53    5.79
  -4   0  13    1.28    1.68
   4   0 -13    0.61    2.02
  -3   0  13   99.36    4.92
   3   0 -13  119.84    6.40
  -2   0  13   -0.47    1.75
   2   0 -13    0.00    2.09
  -1   0  13  172.52    7.68
   1   0 -13  154.53    6.80
   0   0  13   -0.88    1.68
   0   0 -13   -0.47    1.82
   1   0  13  201.89   15.09
  -1   0 -13  175.96    8.22
   2   0  13   -1.08    1.95
  -2   0 -13   -0.54    2.43
   3   0  13  140.86    6.94
  -3   0 -13  150.69    7.48
   4   0  13   -0.81    2.02
  -4   0 -13   -1.48    2.83
   5   0  13  224.05    9.97
  -5   0 -13  209.03    8.15
   6   0  13   -1.08    2.90
  -6   0 -13    2.29    3.44
   7   0  13  147.86    8.02
  -7   0 -13  143.28    9.23
   8   0  13   -0.61    2.76
  -8   0 -13   -0.74    4.38
   9   0  13  165.18   10.98
  -9   0 -13  167.60    9.57
  10   0  13    1.28    3.44
 -10   0 -13    0.67    3.50
  11   0  13   46.14    5.66
 -11   0 -13   78.95    6.53
 -10   0  14   -0.81    1.55
  10   0 -14    5.39    1.95
  -9   0  14    0.81    1.82
   9   0 -14   -0.61    2.36
  -8   0  14   56.79    4.11
   8   0 -14   59.55    3.37
  -7   0  14    0.00    1.82
   7   0 -14   -0.13    2.09
  -6   0  14   28.90    2.90
  -5   0  14    1.62    1.82
   5   0 -14    0.07    1.89
  -4   0  14   59.01    5.66
   4   0 -14   60.90    4.38
  -3   0  14    0.94    2.29
   3   0 -14    0.74    2.49
  -2   0  14   57.80    3.77
   2   0 -14   58.81    3.84
  -1   0  14    0.54    1.62
   1   0 -14    0.47    1.68
   0   0  14  229.51   10.10
   0   0 -14  205.80    8.96
   1   0  14   -1.95    2.83
  -1   0 -14   -0.94    3.30
   2   0  14   65.48    4.38
  -2   0 -14   80.97    5.73
   3   0  14    1.28    2.09
  -3   0 -14    0.67    2.56
   4   0  14  112.03    8.22
  -4   0 -14  111.02    6.74
   5   0  14    1.68    3.30
  -5   0 -14    0.67    3.77
   6   0  14   59.28    5.32
  -6   0 -14   47.90    5.19
   7   0  14    2.49    2.83
  -7   0 -14    2.76    3.10
   8   0  14  212.67   10.04
  -8   0 -14  193.47    9.70
   9   0  14   -0.88    3.84
  -9   0 -14    1.21    4.24
  10   0  14    8.89    3.71
 -10   0 -14   23.58    4.78
  -8   0  15   -0.07    3.03
  -7   0  15   51.06    6.53
   7   0 -15   33.48    3.91
  -6   0  15    0.13    3.64
   6   0 -15    0.74    1.89
  -5   0  15   15.90    2.43
   5   0 -15   10.24    3.30
  -4   0  15    0.40    2.29
   4   0 -15    2.02    2.09
  -3   0  15   85.96    4.98
   3   0 -15   81.51    6.20
  -2   0  15    0.74    1.95
   2   0 -15   -1.62    2.36
  -1   0  15   73.43    4.18
   1   0 -15   74.24    5.19
   0   0  15   -1.95    1.89
   0   0 -15   -0.34    2.63
   1   0  15   80.37    5.73
  -1   0 -15   78.48    6.06
   2   0  15    0.13    2.36
  -2   0 -15    1.01    2.56
   3   0  15  137.29    6.33
  -3   0 -15  109.47    6.33
   4   0  15   -0.88    2.56
  -4   0 -15   -0.61    3.84
   5   0  15   27.35    3.30
  -5   0 -15   34.29    4.78
   6   0  15   -0.47    2.69
  -6   0 -15   -2.43    3.10
   7   0  15  108.93    7.54
  -7   0 -15  108.66    7.41
   8   0  15   -1.21    3.64
  -8   0 -15    1.35    4.85
   9   0  15   19.67    3.97
  -9   0 -15   21.49    4.45
   6   0 -16   18.26    2.63
  -5   0  16    0.34    1.75
   5   0 -16    1.41    2.49
  -4   0  16   24.59    2.83
   4   0 -16   16.03    3.84
  -3   0  16    0.54    1.82
   3   0 -16    1.01    2.16
  -2   0  16   61.84    3.77
   2   0 -16   55.31    4.98
  -1   0  16    0.00    2.29
   1   0 -16    0.88    2.09
   0   0  16   66.89    4.65
   0   0 -16   80.97    6.80
   1   0  16   -0.34    2.36
  -1   0 -16   -0.67    2.96
   2   0  16   89.86    5.66
  -2   0 -16   75.58    5.25
   3   0  16   -0.27    2.63
  -3   0 -16    0.00    3.44
   4   0  16   41.97    3.91
  -4   0 -16   29.03    4.18
   5   0  16    0.27    2.63
  -5   0 -16   -1.48    3.03
   6   0  16   51.06    4.98
  -6   0 -16   70.67    6.00
   7   0  16    2.09    3.10
  -7   0 -16    1.01    3.44
  -2   0  17    1.68    2.09
   2   0 -17    0.27    2.36
  -1   0  17   41.29    4.11
   1   0 -17   36.71    4.78
   0   0  17   -0.40    2.56
   0   0 -17    1.62    2.96
   1   0  17   52.01    4.51
  -1   0 -17   41.02    5.05
   2   0  17   -0.34    3.03
  -2   0 -17   -3.30    3.64
   3   0  17   22.84    3.30
  -3   0 -17   17.85    4.45
   4   0  17   -1.41    2.83
  -4   0 -17   -0.54    3.17
   5   0  17   27.08    3.84
  -5   0 -17   28.70    4.38
   6   0  17    0.61    3.97
  -1   1 -18   13.14    7.21
   5  -1  17    1.89    7.68
  -4   1 -17   41.29    4.58
   4  -1  17   52.41    4.58
  -3   1 -17    4.24    3.44
   3  -1  17    4.45    3.03
  -2   1 -17   40.55    4.92
   2  -1  17   41.70    4.31
  -1   1 -17    5.66    3.77
   1  -1  17    5.32    2.96
   0   1 -17   10.91    7.68
   0  -1  17   29.44    3.97
   1   1 -17    3.77    2.96
  -1  -1  17    1.01    2.43
   2   1 -17   30.79    4.51
  -2  -1  17   32.47    3.50
   3   1 -17    6.06    3.57
   4   1 -17   13.14    6.33
  -7   1 -16   32.67    6.33
   7  -1  16   27.55    7.75
  -6   1 -16   21.49    5.05
   6  -1  16   20.48    3.97
  -5   1 -16   48.77    4.85
   5  -1  16   52.34    4.65
  -4   1 -16    1.82    3.37
   4  -1  16    1.08    2.69
  -3   1 -16   58.27    5.39
   3  -1  16   69.52    5.79
  -2   1 -16    8.89    3.91
   2  -1  16    8.35    3.57
  -1   1 -16   45.20    6.20
   1  -1  16   49.65    4.38
   0   1 -16    1.28    2.90
   0  -1  16   -1.08    2.29
   1   1 -16   53.76    8.35
  -1  -1  16   44.12    4.51
   2   1 -16   10.31    3.03
  -2  -1  16    7.81    2.56
   3   1 -16   39.41    4.31
  -3  -1  16   51.74    4.65
   4   1 -16    0.88    3.30
  -4  -1  16    0.27    3.17
   5   1 -16   23.64    3.10
  -5  -1  16   24.18    3.23
   6   1 -16   10.71    2.96
  -6  -1  16    8.22    2.09
  -8   1 -15   54.97    6.94
   8  -1  15   61.23    5.93
  -7   1 -15   11.52    4.72
   7  -1  15   10.17    4.78
  -6   1 -15   91.82    6.53
   6  -1  15  108.46    7.34
  -5   1 -15   15.97    3.77
   5  -1  15   13.20    3.50
  -4   1 -15   34.76    4.45
   4  -1  15   46.62    4.31
  -3   1 -15   25.53    4.31
   3  -1  15   23.91    3.91
  -2   1 -15   95.72    6.00
   2  -1  15   90.67    5.93
  -1   1 -15   21.15    3.84
   1  -1  15   23.85    3.23
   0   1 -15   99.70    5.73
   0  -1  15   92.69    5.19
   1   1 -15   24.79    3.64
  -1  -1  15   21.29    3.97
   2   1 -15   68.64    5.32
  -2  -1  15   72.89    6.87
   3   1 -15   14.62    2.43
  -3  -1  15   12.93    2.43
   4   1 -15   22.30    2.69
  -4  -1  15   24.92    2.76
   5   1 -15    6.40    2.43
  -5  -1  15    9.57    2.76
   6   1 -15   41.09    3.64
  -6  -1  15   55.24    4.11
   7   1 -15    1.55    2.76
  -7  -1  15    5.32    2.63
   8   1 -15   23.64    3.50
  -8  -1  15   19.33    3.37
   9   1 -15    2.29    2.49
 -10   1 -14   -1.48    5.73
  10  -1  14    3.57    4.04
  -9   1 -14  128.26    7.95
   9  -1  14  126.17    7.54
  -8   1 -14    7.68    4.11
   8  -1  14    6.20    4.04
  -7   1 -14  156.28    8.82
   7  -1  14  154.47    8.82
  -6   1 -14   32.54    4.24
   6  -1  14   36.04    4.11
  -5   1 -14  112.03    6.53
   5  -1  14  140.79    7.68
  -4   1 -14   26.95    4.18
   4  -1  14   23.91    3.97
  -3   1 -14   29.17    3.91
   3  -1  14   20.34    2.90
  -2   1 -14   29.51    3.77
   2  -1  14   38.33    3.57
  -1   1 -14  247.36   10.37
   1  -1  14  237.32   11.05
   0   1 -14    1.21    2.29
   0  -1  14    0.07    1.89
   1   1 -14  204.18    8.96
  -1  -1  14  213.81    9.57
   2   1 -14   31.12    3.97
  -2  -1  14   31.73    3.71
   3   1 -14   23.58    4.38
  -3  -1  14   15.49    3.23
   4   1 -14   12.13    4.92
  -4  -1  14   15.56    4.04
   5   1 -14   77.47    4.92
  -5  -1  14   87.98    4.85
   6   1 -14   20.07    2.63
  -6  -1  14   20.68    2.76
   7   1 -14   74.98    4.72
  -7  -1  14   76.32    4.72
   8   1 -14    1.41    2.16
  -8  -1  14    3.64    2.43
   9   1 -14   51.47    4.51
  -9  -1  14   50.86    4.38
  10   1 -14   -0.07    2.63
 -10  -1  14    0.74    2.63
 -11   1 -13    5.93    4.18
  11  -1  13    9.57    4.11
 -10   1 -13  122.00    7.95
  10  -1  13  115.33    6.80
  -9   1 -13    3.10    3.50
   9  -1  13    0.61    3.37
  -8   1 -13  170.70    9.23
   8  -1  13  185.86   10.98
  -7   1 -13   33.82    4.45
   7  -1  13   31.86    4.31
  -6   1 -13  167.80    8.08
   6  -1  13  179.86    8.22
  -5   1 -13    2.56    2.56
   5  -1  13    5.46    2.90
  -4   1 -13   55.64    4.51
   4  -1  13   42.17    3.57
  -3   1 -13   17.99    3.03
   3  -1  13   14.35    2.49
  -2   1 -13   71.47    4.92
   2  -1  13   81.04    4.98
  -1   1 -13   20.95    3.03
   1  -1  13   22.50    4.04
   0   1 -13  362.69   14.55
   0  -1  13  393.14   13.41
   1   1 -13   22.23    2.29
  -1  -1  13   19.47    2.49
   2   1 -13   63.46    4.31
  -2  -1  13   72.89    4.51
   3   1 -13    9.70    2.16
  -3  -1  13   12.60    2.09
   4   1 -13   32.33    3.10
  -4  -1  13   39.48    3.17
   5   1 -13    1.95    2.02
  -5  -1  13    1.95    1.82
   6   1 -13   92.83    6.40
  -6  -1  13  108.86    6.00
   7   1 -13   19.60    2.63
  -7  -1  13   18.05    3.10
   8   1 -13   83.19    4.65
  -8  -1  13   89.80    4.85
   9   1 -13    1.08    2.09
  -9  -1  13    2.63    2.43
  10   1 -13   49.98    3.57
 -10  -1  13   40.28    3.30
  11   1 -13    2.56    2.09
 -11  -1  13    6.06    2.29
  12   1 -13    0.34    2.02
 -12  -1  13    6.00    2.76
 -12   1 -12   -0.74    5.25
  12  -1  12    3.57    5.05
 -11   1 -12  193.74   10.91
  11  -1  12  217.05   10.91
 -10   1 -12    0.81    3.84
  10  -1  12    1.89    3.17
  -9   1 -12  107.04    7.14
   9  -1  12   90.67    5.93
  -8   1 -12   25.94    3.77
   8  -1  12   27.75    3.57
  -7   1 -12  266.02   12.19
   7  -1  12  283.33   14.62
  -6   1 -12    6.33    2.83
   6  -1  12    7.75    2.49
  -5   1 -12  144.02    7.75
   5  -1  12  125.10    6.47
  -4   1 -12    4.98    2.56
   4  -1  12    3.17    2.22
  -3   1 -12  329.41   10.91
   3  -1  12  325.37   13.41
  -2   1 -12    8.02    2.29
   2  -1  12    5.46    2.09
  -1   1 -12  106.10    5.46
   1  -1  12  114.32    5.79
   0   1 -12   -1.01    2.49
   0  -1  12   -1.62    2.16
   1   1 -12  107.72    5.66
  -1  -1  12  104.28    4.92
   2   1 -12    9.30    2.09
  -2  -1  12    4.98    1.55
   3   1 -12  274.31   14.28
  -3  -1  12  300.24   17.72
   4   1 -12    2.02    2.43
  -4  -1  12    2.36    2.43
   5   1 -12   72.55    7.54
  -5  -1  12   90.27    4.72
   6   1 -12    3.77    1.89
  -6  -1  12    2.96    2.02
   7   1 -12  157.70    8.22
  -7  -1  12  168.48    8.62
   8   1 -12   15.76    2.29
  -8  -1  12   11.25    2.22
   9   1 -12   47.09    3.50
  -9  -1  12   51.94    3.77
  10   1 -12    0.67    2.16
 -10  -1  12   -1.15    2.36
  11   1 -12   72.28    4.31
 -11  -1  12   86.63    4.58
  12   1 -12   -0.47    2.22
 -12  -1  12    0.34    2.16
  13   1 -12    6.53    2.16
 -13  -1  12    7.95    2.16
 -13   1 -11   -0.13    3.57
  13  -1  11   -1.08    4.98
 -12   1 -11  248.78   13.94
  12  -1  11  271.28   12.53
 -11   1 -11   14.82    4.45
  11  -1  11   11.79    3.77
 -10   1 -11  165.38    9.77
  10  -1  11  177.50    8.42
  -9   1 -11   93.77    5.93
   9  -1  11   77.67    5.39
  -8   1 -11   95.46    6.67
   8  -1  11  108.25    7.21
  -7   1 -11   42.04    3.97
   7  -1  11   39.21    3.71
  -6   1 -11  159.59    7.34
   6  -1  11  146.85    7.48
  -5   1 -11    2.09    2.22
   5  -1  11    4.04    2.16
  -4   1 -11  563.03   19.40
   4  -1  11  595.77   19.87
  -3   1 -11   23.38    3.17
   3  -1  11   23.17    2.76
  -2   1 -11  384.51   22.50
   2  -1  11  356.42   14.21
  -1   1 -11   96.94    4.78
   1  -1  11   91.48    5.12
   0   1 -11   35.91    3.17
   0  -1  11   58.81    4.11
   1   1 -11   85.15    4.58
  -1  -1  11   73.09    3.57
   2   1 -11  271.01    9.09
  -2  -1  11  288.52   10.10
   3   1 -11   13.34    1.89
  -3  -1  11   17.85    2.09
   4   1 -11  431.13   24.66
  -4  -1  11  426.15   16.03
   5   1 -11   -0.07    2.43
  -5  -1  11    3.03    1.82
   6   1 -11   98.82    5.05
  -6  -1  11   91.01    4.72
   7   1 -11   23.38    2.56
  -7  -1  11   22.43    2.90
   8   1 -11   53.35    3.17
  -8  -1  11   64.06    3.50
   9   1 -11   41.90    2.90
  -9  -1  11   51.20    3.37
  10   1 -11   77.27    4.58
 -10  -1  11   81.38    5.12
  11   1 -11    7.14    2.36
 -11  -1  11    8.62    2.76
  12   1 -11  105.63    5.46
 -12  -1  11  108.39    5.66
  13   1 -11    1.08    2.63
 -13  -1  11    0.40    4.45
  14   1 -11    4.98    2.69
 -14  -1  11    5.05    2.49
  15   1 -11    2.02    2.36
 -14   1 -10    8.62    6.94
  14  -1  10    4.18    3.30
 -13   1 -10  233.21   12.40
  13  -1  10  220.42   10.91
 -12   1 -10    6.26    3.84
  12  -1  10    9.36    3.77
 -11   1 -10  229.44   11.99
  11  -1  10  224.93   11.18
 -10   1 -10   45.61    5.32
  10  -1  10   45.47    4.51
  -9   1 -10  219.61    8.69
   9  -1  10  261.84   11.79
  -8   1 -10    1.55    3.30
   8  -1  10   -1.28    2.96
  -7   1 -10  115.80    6.53
   7  -1  10  100.24    6.26
  -6   1 -10   14.75    2.90
   6  -1  10   14.01    2.69
  -5   1 -10  670.07   20.14
   5  -1  10  695.54   23.71
  -4   1 -10   19.33    2.43
   4  -1  10   13.88    2.16
  -3   1 -10  720.86   23.78
   3  -1  10  656.94   20.82
  -2   1 -10  129.47    6.00
   2  -1  10  118.49    6.94
  -1   1 -10  119.17    5.52
   1  -1  10  136.95    5.86
   0   1 -10   -0.47    1.55
   0  -1  10    0.94    1.48
   1   1 -10  101.05    4.92
  -1  -1  10  117.01    5.52
   2   1 -10  101.65    6.33
  -2  -1  10   91.95    4.38
   3   1 -10  476.40   18.39
  -3  -1  10  442.04   16.30
   4   1 -10   10.04    1.55
  -4  -1  10   10.78    1.68
   5   1 -10  425.54   13.61
  -5  -1  10  426.95   23.04
   6   1 -10    9.30    2.56
  -6  -1  10    9.63    2.09
   7   1 -10   67.63    3.77
  -7  -1  10   49.98    3.23
   8   1 -10    0.07    1.75
  -8  -1  10    1.08    1.55
   9   1 -10  127.79    5.86
  -9  -1  10  150.36    5.93
  10   1 -10   23.51    3.10
 -10  -1  10   26.47    2.83
  11   1 -10  101.79    4.85
 -11  -1  10  114.99    6.53
  12   1 -10    3.17    2.02
 -12  -1  10    2.16    2.43
  13   1 -10   95.72    5.19
 -13  -1  10  101.38    5.79
  14   1 -10    3.64    3.97
 -14  -1  10    3.10    4.18
  15   1 -10   21.29    4.31
 -15  -1  10   21.76    3.30
  16   1 -10    0.00    3.37
 -16  -1  10    0.07    3.17
 -15   1  -9    1.41    3.97
  15  -1   9    2.90    3.44
 -14   1  -9  211.93   11.92
  14  -1   9  195.36   16.30
 -13   1  -9   16.71    5.46
  13  -1   9   22.16    3.97
 -12   1  -9  246.96   11.92
  12  -1   9  241.43   10.24
 -11   1  -9   46.35    6.33
  11  -1   9   50.73    5.05
 -10   1  -9  186.67    9.50
  10  -1   9  211.86   10.10
  -9   1  -9    7.61    3.17
   9  -1   9    8.42    2.69
  -8   1  -9  259.96   12.53
   8  -1   9  229.38   10.10
  -7   1  -9   32.27    3.23
   7  -1   9   28.43    2.83
  -6   1  -9  215.83    8.76
   6  -1   9  219.41    9.03
  -5   1  -9  129.95    5.86
   5  -1   9  130.42    6.13
  -4   1  -9  497.22   18.05
   4  -1   9  539.72   16.64
  -3   1  -9  320.38   10.91
   3  -1   9  291.01   13.00
  -2   1  -9  145.84    6.40
   2  -1   9  151.57    6.94
  -1   1  -9   36.92    3.64
   1  -1   9   37.05    2.76
   0   1  -9  596.85   23.38
   0  -1   9  576.97   19.27
   1   1  -9   36.17    2.63
  -1  -1   9   34.96    2.29
   2   1  -9  132.71    6.60
  -2  -1   9  150.02    6.20
   3   1  -9  280.71    9.77
  -3  -1   9  264.40    8.49
   4   1  -9  364.78   15.22
  -4  -1   9  395.70   13.67
   5   1  -9   92.56    4.51
  -5  -1   9   88.52    5.73
   6   1  -9  138.03    6.06
  -6  -1   9  131.02    5.05
   7   1  -9   12.87    1.95
  -7  -1   9   13.61    2.43
   8   1  -9  135.94    8.42
  -8  -1   9  135.33    5.59
   9   1  -9    4.78    3.91
  -9  -1   9    4.65    2.49
  10   1  -9  101.52    5.25
 -10  -1   9  117.89    6.20
  11   1  -9   28.29    3.10
 -11  -1   9   26.61    4.85
  12   1  -9  126.11    5.39
 -12  -1   9  133.65    6.87
  13   1  -9    8.69    2.43
 -13  -1   9    6.74    3.17
  14   1  -9   82.18    4.72
 -14  -1   9   85.28    5.52
  15   1  -9    0.07    2.49
 -15  -1   9    2.22    2.56
  16   1  -9   20.34    3.97
 -16  -1   9   18.39    2.96
  17   1  -9    1.89    2.76
 -17  -1   9   -1.08    3.64
 -16   1  -8   13.74    5.19
  16  -1   8   15.83    4.72
 -15   1  -8  107.51    7.75
  15  -1   8  107.31    8.56
 -14   1  -8    3.50    4.11
  14  -1   8   11.65    4.11
 -13   1  -8  300.17   14.35
  13  -1   8  311.02   13.67
 -12   1  -8   66.83    5.32
  12  -1   8   68.24    7.68
 -11   1  -8  208.63   18.39
  11  -1   8  234.23   13.67
 -10   1  -8   28.56    3.77
  10  -1   8   27.82    3.64
  -9   1  -8  451.00   14.89
   9  -1   8  399.27   15.70
  -8   1  -8   21.96    3.64
   8  -1   8   26.88    3.44
  -7   1  -8  623.12   20.82
   7  -1   8  585.80   19.00
  -6   1  -8  271.34   10.04
   6  -1   8  286.90   11.72
  -5   1  -8  519.92   15.09
   5  -1   8  538.31   16.50
  -4   1  -8   88.11    5.19
   4  -1   8   84.74    4.65
  -3   1  -8  364.31   10.64
   3  -1   8  390.04   13.74
  -2   1  -8  137.96    5.59
   2  -1   8  118.49    4.51
  -1   1  -8 1129.56   31.93
   1  -1   8 1069.95   30.31
   0   1  -8    0.00    1.21
   0  -1   8   -0.40    1.08
   1   1  -8 1071.36   40.62
  -1  -1   8 1021.38   31.39
   2   1  -8  117.75    5.05
  -2  -1   8  114.38    4.51
   3   1  -8  321.66   10.98
  -3  -1   8  358.92   11.45
   4   1  -8   77.87    3.64
  -4  -1   8   70.40    3.23
   5   1  -8  419.95   20.07
  -5  -1   8  397.72   14.15
   6   1  -8  195.96    7.34
  -6  -1   8  189.09   11.59
   7   1  -8  393.34   14.15
  -7  -1   8  348.00   14.35
   8   1  -8   12.33    1.68
  -8  -1   8   12.73    1.75
   9   1  -8  226.55    9.16
  -9  -1   8  247.16   10.44
  10   1  -8   12.19    1.75
 -10  -1   8   11.99    1.95
  11   1  -8  137.02    5.52
 -11  -1   8  148.74    6.60
  12   1  -8   40.01    3.77
  13   1  -8  150.90    6.60
 -13  -1   8  168.14    8.49
  14   1  -8    3.77    2.36
 -14  -1   8    7.07    3.57
  15   1  -8   52.01    3.71
 -15  -1   8   50.19    3.97
  16   1  -8    6.26    4.65
 -16  -1   8    3.71    5.12
  17   1  -8   22.43    3.91
 -17  -1   8   23.64    4.18
 -16   1  -7   34.49    8.02
  16  -1   7   38.40    5.46
 -15   1  -7   23.71    4.58
  15  -1   7   18.32    4.24
 -14   1  -7  256.99   12.19
  14  -1   7  232.20   10.85
 -13   1  -7   20.28    3.37
  13  -1   7   21.22    3.50
 -12   1  -7  168.34    9.03
  12  -1   7  174.20    7.75
 -11   1  -7  103.94    6.26
  11  -1   7   92.22    5.05
 -10   1  -7  591.39   19.13
  10  -1   7  536.62   27.22
  -9   1  -7   52.01    5.59
   9  -1   7   48.37    3.57
  -8   1  -7  244.94    9.36
   8  -1   7  228.16    8.76
  -7   1  -7  190.78    7.68
   7  -1   7  194.35    7.61
  -6   1  -7  697.56   21.56
   6  -1   7  747.34   22.50
  -5   1  -7   49.38    3.57
   5  -1   7   47.49    3.50
  -4   1  -7  145.24    6.20
   4  -1   7  182.35    6.60
  -3   1  -7  116.74    4.98
   3  -1   7  112.09    4.92
  -2   1  -7  992.88   27.96
   2  -1   7 1034.58   46.01
  -1   1  -7  173.93    6.47
   1  -1   7  165.11    6.00
   0   1  -7 1241.59   35.70
   0  -1   7 1139.80   47.83
   1   1  -7  163.76    6.13
  -1  -1   7  164.44    5.93
   2   1  -7 1027.91   30.11
  -2  -1   7  964.66   28.70
   3   1  -7  114.86    4.85
  -3  -1   7  104.55    4.72
   4   1  -7  129.41    5.12
  -4  -1   7  152.65    6.13
   5   1  -7   42.91    2.22
  -5  -1   7   41.63    2.36
   6   1  -7  579.80   17.31
  -6  -1   7  594.35   16.77
   7   1  -7  133.11    5.52
  -7  -1   7  133.38    6.94
   8   1  -7  154.40    6.60
  -8  -1   7  155.61    9.09
   9   1  -7   23.64    2.16
  -9  -1   7   28.02    2.63
  10   1  -7  293.78   11.72
 -10  -1   7  317.02   14.69
  11   1  -7   55.84    3.23
 -11  -1   7   59.48    6.80
  12   1  -7   90.67    4.51
 -12  -1   7  113.24    5.66
  13   1  -7    8.29    2.29
 -13  -1   7   13.41    4.31
  14   1  -7  129.41    6.20
 -14  -1   7  122.13   10.04
  15   1  -7   13.00    4.51
 -15  -1   7   10.71    4.98
  16   1  -7   13.41    3.44
  17   1  -7    6.74    3.03
 -17  -1   7    4.51    3.77
  18   1  -7   60.36    5.19
 -18  -1   7   68.91    5.66
 -17   1  -6   96.80    6.47
  17  -1   6   96.87    6.74
 -16   1  -6   25.80    4.51
  16  -1   6   27.48    4.18
 -15   1  -6  193.67   11.52
  15  -1   6  188.62   10.24
 -14   1  -6   24.12    4.18
  14  -1   6   19.60    3.71
 -13   1  -6  166.52    8.82
  13  -1   6  159.79    8.29
 -12   1  -6   29.10    3.50
  12  -1   6   29.71    3.91
 -11   1  -6  468.92   17.51
  11  -1   6  416.45   17.51
 -10   1  -6   40.22    4.45
  10  -1   6   36.85    3.30
  -9   1  -6  510.62   20.07
   9  -1   6  453.36   16.10
  -8   1  -6  149.82    9.50
   8  -1   6  146.58    9.03
  -7   1  -6 1033.97   31.59
   7  -1   6 1200.50   37.45
  -6   1  -6   15.63    2.16
   6  -1   6   13.34    1.95
  -5   1  -6  356.15   10.91
   5  -1   6  303.81   10.91
  -4   1  -6    7.28    1.41
   4  -1   6    5.86    1.41
  -3   1  -6  664.95   20.95
   3  -1   6  605.60   20.21
  -2   1  -6   27.28    2.02
   2  -1   6   25.60    1.82
  -1   1  -6  912.99   37.79
   1  -1   6  900.25   28.09
   0   1  -6    1.01    1.28
   0  -1   6   -0.40    0.94
   1   1  -6  897.70   27.08
  -1  -1   6  860.24   25.67
   2   1  -6   26.27    1.68
  -2  -1   6   25.19    1.82
   3   1  -6  647.57   20.07
  -3  -1   6  589.84   18.73
   4   1  -6    5.05    1.15
  -4  -1   6    5.52    1.15
   5   1  -6  347.94   11.59
  -5  -1   6  279.49    9.90
   6   1  -6   12.87    2.29
  -6  -1   6   11.72    1.82
   7   1  -6  900.12   25.40
  -7  -1   6  980.62   29.44
   8   1  -6   99.23    4.72
  -8  -1   6  105.16    5.66
   9   1  -6  348.27   12.19
  -9  -1   6  285.56   15.63
  10   1  -6   16.64    2.16
 -10  -1   6   19.60    2.16
  11   1  -6  268.38   10.31
 -11  -1   6  255.31   10.91
  12   1  -6   20.61    2.36
 -12  -1   6   19.27    2.43
  13   1  -6  107.45    5.59
 -13  -1   6  103.94    7.68
  14   1  -6   16.37    3.44
 -14  -1   6   18.46    3.77
  15   1  -6  105.49    5.66
 -15  -1   6  130.69    7.48
  16   1  -6   12.13    3.37
 -16  -1   6   15.29    4.24
  17   1  -6   54.43    4.38
 -17  -1   6   61.64    4.98
  18   1  -6    8.69    3.17
 -18  -1   6   13.20    3.03
  19   1  -6   35.37    4.65
 -19  -1   6   33.14    6.00
 -18   1  -5   14.15    4.72
  18  -1   5   21.22    4.78
 -17   1  -5   14.21    5.73
  17  -1   5   16.64    5.32
 -16   1  -5  376.63   19.60
  16  -1   5  360.60   16.30
 -15   1  -5   91.41   10.51
  15  -1   5   91.82    6.67
 -14   1  -5  166.12    8.56
  14  -1   5  193.54    8.15
 -13   1  -5    3.64    2.96
  13  -1   5    3.71    2.56
 -12   1  -5  416.18   14.28
  12  -1   5  394.62   14.42
 -11   1  -5   10.51    2.49
  11  -1   5   12.13    2.69
 -10   1  -5  223.51   12.46
  10  -1   5  168.07    7.48
  -9   1  -5  123.21    5.79
   9  -1   5  123.75    8.29
  -8   1  -5 1134.28   33.95
   8  -1   5 1202.79   35.30
  -7   1  -5  313.58   11.52
   7  -1   5  318.83   15.49
  -6   1  -5  982.51   40.55
   6  -1   5  982.64   27.55
  -5   1  -5   20.28    1.82
   5  -1   5   20.41    1.82
  -4   1  -5  758.05   23.71
   4  -1   5  731.98   22.43
  -3   1  -5   11.86    1.48
   3  -1   5   10.51    1.21
  -2   1  -5 1949.59   54.97
   2  -1   5 1888.42   50.19
  -1   1  -5  506.44   16.64
   1  -1   5  474.65   15.70
   0   1  -5 2230.83   60.63
   0  -1   5 2283.51   63.46
   1   1  -5  465.89   19.54
  -1  -1   5  485.22   16.57
   2   1  -5 1893.20   53.29
  -2  -1   5 1799.16   49.24
   3   1  -5   10.78    1.28
  -3  -1   5   11.65    1.28
   4   1  -5  720.39   30.18
  -4  -1   5  658.42   21.02
   5   1  -5   18.86    1.68
  -5  -1   5   16.57    1.55
  -6  -1   5  914.40   29.84
   7   1  -5  301.52   10.31
  -7  -1   5  281.85   10.31
   8   1  -5  972.54   26.47
  -8  -1   5 1018.21   29.64
   9   1  -5   88.04    3.50
  -9  -1   5   84.14    3.97
  10   1  -5  138.97    6.47
 -10  -1   5  108.46    4.92
  11   1  -5    6.26    1.75
 -11  -1   5    6.47    1.89
  12   1  -5  276.93   10.98
 -12  -1   5  261.10   15.49
  13   1  -5    2.22    2.29
 -13  -1   5    0.40    2.29
  14   1  -5  112.84    5.73
 -14  -1   5  130.55    7.41
  15   1  -5   65.75    5.25
 -15  -1   5   66.89    4.65
  16   1  -5  238.00    9.70
 -16  -1   5  240.56   16.23
  17   1  -5    7.81    3.37
 -17  -1   5   11.79    3.57
  18   1  -5    9.97    3.44
 -18  -1   5   17.99    3.84
  19   1  -5    4.92    4.31
 -19  -1   5    2.83    5.93
 -18   1  -4    1.08    3.77
  18  -1   4    6.40    3.84
 -17   1  -4  129.27    7.34
  17  -1   4  137.56    8.29
 -16   1  -4   12.73    3.84
  16  -1   4   13.20    3.84
 -15   1  -4  354.40   13.54
  15  -1   4  341.47   13.81
 -14   1  -4   22.63    3.37
  14  -1   4   26.20    3.23
 -13   1  -4  283.47   12.19
  13  -1   4  306.37   13.94
 -12   1  -4   33.88    5.19
  12  -1   4   30.65    3.23
 -11   1  -4  184.24    7.75
  11  -1   4  168.61    7.68
 -10   1  -4  120.65    6.33
  10  -1   4  125.70    5.93
  -9   1  -4  493.58   16.77
   9  -1   4  570.98   19.94
  -8   1  -4  125.97    5.39
   8  -1   4  135.87    5.19
  -7   1  -4  768.63   23.38
   7  -1   4  739.25   23.04
  -6   1  -4  323.35   11.52
   6  -1   4  329.95   11.45
  -5   1  -4 1727.22   64.47
   5  -1   4 1647.05   59.28
  -4   1  -4  150.63    9.23
   4  -1   4  139.44    5.93
  -3   1  -4 1521.82   43.25
   3  -1   4 1410.94   38.73
  -2   1  -4 1148.02   34.02
   2  -1   4 1149.37   33.68
  -1   1  -4  558.11   24.59
   1  -1   4  608.03   19.06
   0   1  -4    0.81    1.01
   0  -1   4    0.34    0.88
   1   1  -4  574.82   18.05
  -1  -1   4  566.94   17.38
   2   1  -4 1118.11   44.66
  -2  -1   4 1130.51   29.98
   3   1  -4 1447.12   54.56
  -3  -1   4 1347.01   37.59
   4   1  -4  150.49    5.86
  -4  -1   4  137.36    5.73
   5   1  -4 1581.17   62.85
  -5  -1   4 1584.68   43.11
   6   1  -4  316.48   10.44
  -6  -1   4  303.00   11.25
   7   1  -4  741.07   32.54
  -7  -1   4  659.76   20.07
   8   1  -4  118.90    6.06
  -8  -1   4  117.82    4.98
   9   1  -4  445.68   12.80
  -9  -1   4  481.86   16.37
  10   1  -4   87.30    4.24
 -10  -1   4   86.77    4.58
  11   1  -4  128.33    6.13
 -11  -1   4  114.32    8.22
  12   1  -4   14.48    3.77
 -12  -1   4   19.67    3.30
  13   1  -4  202.43    9.43
 -13  -1   4  192.39   10.51
  14   1  -4   21.35    3.44
 -14  -1   4   21.22    3.17
  15   1  -4  247.97   10.04
 -15  -1   4  232.20   17.58
  16   1  -4    7.54    2.49
 -16  -1   4    5.12    2.69
  17   1  -4   89.73    5.79
 -17  -1   4   96.13    6.26
  18   1  -4    3.17    3.44
 -18  -1   4    2.63    4.45
  19   1  -4   13.61    3.57
 -19  -1   4   18.53    3.84
 -19   1  -3    2.29    8.82
  19  -1   3    1.95    7.48
  18  -1   3  118.43    8.02
 -17   1  -3   15.22    3.71
  17  -1   3   11.12    3.50
 -16   1  -3  136.95    7.34
  16  -1   3  130.48    7.34
 -15   1  -3    0.88    2.90
  15  -1   3    4.92    2.96
 -14   1  -3  405.94   16.03
  14  -1   3  371.04   13.00
 -13   1  -3    5.66    2.22
  13  -1   3    1.95    2.09
 -12   1  -3  265.55   12.26
  12  -1   3  285.96   11.52
 -11   1  -3  232.14    9.77
  11  -1   3  215.90    8.56
 -10   1  -3  602.98   19.13
  10  -1   3  579.67   18.86
  -9   1  -3   39.88    4.85
   9  -1   3   38.46    3.57
  -8   1  -3  435.91   22.16
   8  -1   3  393.41   12.40
  -7   1  -3  156.55    6.26
   7  -1   3  152.18    5.66
  -6   1  -3  507.25   16.64
   6  -1   3  468.25   15.63
  -5   1  -3  983.58   28.36
   5  -1   3 1011.54   29.44
  -4   1  -3 6410.98  153.93
   4  -1   3 6575.62  160.33
  -3   1  -3 2869.58  112.16
   3  -1   3 2936.61  111.96
  -2   1  -3   98.62    4.04
   2  -1   3  126.64    4.85
  -1   1  -3   42.44    2.29
   1  -1   3   37.05    2.09
   0   1  -3 2399.58   85.55
   0  -1   3 2082.70   52.61
   1   1  -3   40.82    2.63
  -1  -1   3   39.00    2.16
   2   1  -3   97.21    4.11
  -2  -1   3  130.62    5.32
   3   1  -3 3002.35   75.31
  -3  -1   3 2980.06   75.18
   4   1  -3 6233.41  218.87
  -4  -1   3 6325.36  160.46
   5   1  -3  977.86   28.56
  -5  -1   3  969.64   30.04
   6   1  -3  489.27   15.09
  -6  -1   3  456.73   15.90
   7   1  -3  152.92    5.52
  -7  -1   3  146.45    5.52
   8   1  -3  428.10   13.27
  -8  -1   3  362.15   11.38
   9   1  -3   36.11    2.43
  -9  -1   3   35.57    2.76
  10   1  -3  525.37   16.10
 -10  -1   3  522.48   17.11
  11   1  -3  174.07    7.21
 -11  -1   3  171.98    6.94
  12   1  -3  195.49    7.95
 -12  -1   3  224.19   10.85
  13   1  -3    4.31    3.91
 -13  -1   3    5.46    2.90
  14   1  -3  319.58   15.90
 -14  -1   3  306.37   20.28
  15   1  -3    3.03    2.83
 -15  -1   3   -0.07    2.76
  16   1  -3  111.08    6.26
 -16  -1   3  112.50   11.92
  17   1  -3   11.25    3.91
 -17  -1   3   12.33    6.47
  18   1  -3  107.04    7.68
 -18  -1   3  109.40    8.22
  19   1  -3   -0.07    3.91
 -19  -1   3    2.76    4.18
 -19   1  -2  124.49   10.51
  19  -1   2  112.30    8.62
 -18   1  -2   12.13    4.45
  18  -1   2    4.04    3.91
 -17   1  -2  125.10   13.47
  17  -1   2  119.98    7.68
 -16   1  -2    1.41    2.69
  16  -1   2   -0.13    2.69
 -15   1  -2  159.52    8.42
  15  -1   2  135.27    6.40
 -14   1  -2   24.99    3.91
  14  -1   2   30.18    3.17
 -13   1  -2  242.71   10.58
  13  -1   2  214.96    9.57
 -12   1  -2   21.15    2.56
  12  -1   2   23.71    2.63
 -11   1  -2  671.28   28.76
  11  -1   2  751.38   23.58
 -10   1  -2   55.17    3.57
  10  -1   2   49.85    3.71
  -9   1  -2  565.93   17.38
   9  -1   2  554.14   16.91
  -8   1  -2   60.16    4.85
   8  -1   2   61.57    3.44
  -7   1  -2  459.02   14.01
   7  -1   2  438.00   13.94
  -6   1  -2  260.23    9.50
   6  -1   2  257.47    8.96
  -5   1  -2 1797.55   48.70
   5  -1   2 1705.39   47.22
  -4   1  -2  141.94    5.73
   4  -1   2  140.59    6.26
  -3   1  -2 3371.38   86.70
   3  -1   2 3511.09   87.98
  -2   1  -2 3242.98   83.06
   2  -1   2 3020.48  110.88
  -1   1  -2  972.00   37.66
   1  -1   2  832.22   33.82
   0   1  -2    0.27    0.88
   0  -1   2   -0.94    0.94
   1   1  -2  963.38   26.34
  -1  -1   2  819.69   23.58
   2   1  -2 3220.01   83.13
  -2  -1   2 3075.98   79.42
   3   1  -2 3387.21   86.16
  -3  -1   2 3477.00   89.53
   4   1  -2  134.59    4.78
  -4  -1   2  139.65    6.00
   5   1  -2 1731.33   47.96
  -5  -1   2 1714.01   45.61
   6   1  -2  254.77    8.56
  -6  -1   2  261.24    9.63
   7   1  -2  506.44   15.83
  -7  -1   2  438.81   14.55
   8   1  -2   56.45    3.50
  -8  -1   2   50.86    4.65
   9   1  -2  558.38   16.64
  -9  -1   2  460.91   15.49
  10   1  -2   53.22    3.10
 -10  -1   2   50.19    4.11
  11   1  -2  640.97   20.01
 -11  -1   2  634.17   20.82
  12   1  -2   23.31    2.90
 -12  -1   2   22.77    2.90
  13   1  -2  204.99    8.35
 -13  -1   2  201.15    8.76
  14   1  -2   25.46    2.69
 -14  -1   2   23.58    2.96
  15   1  -2  141.13    6.60
 -15  -1   2  126.17    7.07
  16   1  -2   -1.08    2.83
 -16  -1   2    1.95    2.56
  17   1  -2  112.77    6.94
 -17  -1   2  113.04    7.21
  18   1  -2    6.53    4.18
 -18  -1   2    8.69    4.98
  19   1  -2   91.48    7.01
 -19  -1   2  107.92    8.29
 -19   1  -1    7.61    4.51
  19  -1   1    5.25    3.57
 -18   1  -1  123.48    8.56
  18  -1   1  123.07    8.82
 -17   1  -1    9.36    5.59
  17  -1   1    6.80    3.03
 -16   1  -1  142.41    7.88
  16  -1   1  145.84    7.14
 -15   1  -1   17.45    3.23
  15  -1   1   16.84    2.83
 -14   1  -1  164.97   10.04
  14  -1   1  153.52    7.28
 -13   1  -1   12.06    3.03
  13  -1   1    9.09    2.22
 -12   1  -1  380.47   14.28
  12  -1   1  417.79   14.15
 -11   1  -1    1.62    3.23
  11  -1   1    0.20    2.29
 -10   1  -1  653.50   22.50
  10  -1   1  689.14   21.22
  -9   1  -1    6.40    1.95
   9  -1   1    7.34    1.75
  -8   1  -1 1159.88   32.60
   8  -1   1 1143.04   33.75
  -7   1  -1  186.94    7.68
   7  -1   1  193.07    7.14
  -6   1  -1 1729.10   49.71
   6  -1   1 1819.30   69.92
  -5   1  -1   18.59    1.68
   5  -1   1   20.41    1.55
  -4   1  -1  228.63    8.02
   4  -1   1  211.32    7.48
  -3   1  -1  755.83   22.77
   3  -1   1  775.83   22.43
  -1   1  -1 1955.99   54.03
   1  -1   1 1889.50   47.56
  -1  -1   1 1925.13   67.70
   2   1  -1 9039.60  316.68
   3   1  -1  794.22   24.99
  -3  -1   1  799.14   23.44
   4   1  -1  237.32    8.22
  -4  -1   1  214.29    7.61
   5   1  -1   19.94    1.62
  -5  -1   1   19.67    2.16
   6   1  -1 1824.69   48.23
  -6  -1   1 1814.52   67.50
   7   1  -1  195.22    7.07
  -7  -1   1  177.77    6.67
   8   1  -1 1191.54   33.01
  -8  -1   1 1120.00   30.11
   9   1  -1    7.54    2.16
  -9  -1   1    8.35    1.75
  10   1  -1  686.44   30.65
 -10  -1   1  676.47   22.16
  11   1  -1   -0.13    3.30
 -11  -1   1   -0.27    2.36
  12   1  -1  399.81   13.34
 -12  -1   1  434.43   16.10
  13   1  -1    9.36    2.36
 -13  -1   1   11.05    2.49
  14   1  -1  163.43    6.94
 -14  -1   1  168.07    9.16
  15   1  -1   20.82    3.10
 -15  -1   1   20.75    3.10
  16   1  -1  140.12    7.21
 -16  -1   1  142.81    8.49
  17   1  -1    5.46    3.77
 -17  -1   1    4.51    3.91
  18   1  -1  121.59    8.29
 -18  -1   1  125.57    8.89
  19   1  -1    6.13    3.44
 -19  -1   1    4.85    3.97
 -20   1   0    2.83    3.64
  20  -1   0    1.89    5.39
 -19   1   0   64.74    7.95
  19  -1   0   74.64    7.21
 -18   1   0    7.68    4.92
  18  -1   0    2.90    3.44
 -17   1   0  123.75    8.82
  17  -1   0  126.71    7.28
 -16   1   0   48.70    4.31
  16  -1   0   37.93    3.64
 -15   1   0  103.74    6.40
  15  -1   0   92.56    5.52
 -14   1   0    8.42    2.76
  14  -1   0    6.67    2.56
 -13   1   0  205.06    7.95
  13  -1   0  211.59    7.88
 -12   1   0    2.69    1.82
  12  -1   0    2.22    1.82
 -11   1   0  211.66    9.03
  11  -1   0  227.89   10.98
 -10   1   0   13.67    1.95
  10  -1   0   17.31    2.09
  -9   1   0  828.18   24.72
   9  -1   0  861.59   25.13
  -8   1   0   76.93    3.71
   8  -1   0   85.75    3.84
  -7   1   0 1543.65   41.16
   7  -1   0 1571.81   45.74
  -6   1   0   13.67    1.28
   6  -1   0   15.16    1.55
  -5   1   0    7.34    0.94
   5  -1   0    6.40    0.94
  -4   1   0  274.31    9.63
   4  -1   0  273.30    9.16
  -3   1   0  310.35   10.17
   3  -1   0  320.99   10.04
  -2   1   0   29.98    1.55
   2  -1   0   28.90    1.41
  -1   1   0 2670.86   66.62
   1  -1   0 2736.40   67.57
   0   1   0   -0.94    0.47
   0  -1   0    0.20    0.47
   1   1   0 2727.37   68.91
  -1  -1   0 2658.19   65.28
   2   1   0   29.17    2.49
  -2  -1   0   28.29    2.16
   3   1   0  335.74   16.44
  -3  -1   0  321.87   10.17
   4   1   0  288.39    9.77
  -4  -1   0  288.72   14.28
   5   1   0    6.60    1.35
  -5  -1   0    6.13    1.41
   6   1   0   14.28    1.41
  -6  -1   0   14.69    1.55
   7   1   0 1632.03   42.71
  -7  -1   0 1608.52   46.21
   8   1   0   86.70    3.91
  -8  -1   0   91.95    3.84
   9   1   0  889.14   26.61
  -9  -1   0  904.84   25.53
  10   1   0   14.82    2.16
 -10  -1   0   13.74    2.29
  11   1   0  251.40   10.64
 -11  -1   0  252.28   12.46
  12   1   0    1.62    2.02
 -12  -1   0    1.48    2.22
  13   1   0  264.13    9.50
 -13  -1   0  246.01   14.35
  14   1   0    6.87    2.43
 -14  -1   0    9.63    2.63
  15   1   0  109.53    6.40
 -15  -1   0  120.99    6.74
  16   1   0   51.40    4.78
 -16  -1   0   44.39    5.19
  17   1   0  136.14    8.22
 -17  -1   0  145.57   11.79
  18   1   0    4.65    3.23
 -18  -1   0    5.39    3.44
  19   1   0   99.23    6.80
 -19  -1   0   91.68    8.76
 -20   1   1   50.93    5.25
  20  -1  -1   61.57    5.52
 -19   1   1    7.54    3.44
  19  -1  -1    5.66    3.17
 -18   1   1  101.59    8.15
  18  -1  -1  106.64    6.33
 -17   1   1   10.58    3.23
  17  -1  -1    6.67    2.69
 -16   1   1  131.90    7.75
  16  -1  -1  133.11    8.35
 -15   1   1   17.25    2.76
  15  -1  -1   16.37    2.69
 -14   1   1  143.42    6.00
  14  -1  -1  131.23    5.66
 -13   1   1    7.41    2.56
  13  -1  -1    7.61    2.16
 -12   1   1  275.45   22.63
  12  -1  -1  309.40   10.98
 -11   1   1    3.64    1.48
  11  -1  -1    2.69    1.48
 -10   1   1  627.16   19.20
  10  -1  -1  629.72   18.39
  -9   1   1    5.19    1.41
   9  -1  -1    5.66    1.48
  -8   1   1 1037.34   47.56
   8  -1  -1 1138.05   33.35
  -7   1   1  173.40    7.14
   7  -1  -1  177.71    6.60
  -6   1   1 1723.24   46.75
   6  -1  -1 1744.80   49.85
  -5   1   1   18.26    1.68
   5  -1  -1   18.93    1.21
  -4   1   1  203.51   10.71
   4  -1  -1  217.45    7.68
   3  -1  -1  756.97   19.87
   1   1   1 2012.10   72.55
  -1  -1  -1 1947.30   67.30
  -2  -1  -1 9999.00  350.56
   3   1   1  786.88   23.17
  -3  -1  -1  783.31   23.44
   4   1   1  213.81   11.72
  -4  -1  -1  219.81   13.20
   5   1   1   21.96    2.29
  -5  -1  -1   17.04    1.35
   6   1   1 1902.57   54.63
  -6  -1  -1 1786.77   47.49
   7   1   1  200.00    7.21
  -7  -1  -1  187.47   10.04
   8   1   1 1187.29   32.87
  -8  -1  -1 1175.44   35.57
   9   1   1    8.22    1.89
  -9  -1  -1    7.07    2.29
  10   1   1  761.96   23.85
 -10  -1  -1  683.41   22.97
  11   1   1    1.48    1.89
 -11  -1  -1    1.68    1.82
  12   1   1  451.41   15.49
 -12  -1  -1  429.24   14.01
  13   1   1   10.71    2.22
 -13  -1  -1    9.84    3.57
  14   1   1  193.13    8.35
 -14  -1  -1  191.04    9.09
  15   1   1   23.11    3.10
 -15  -1  -1   24.79    4.38
  16   1   1  151.97    8.08
 -16  -1  -1  171.17    7.88
  17   1   1    9.23    3.64
 -17  -1  -1    6.87    4.31
  18   1   1  137.83    8.29
 -18  -1  -1  132.77    9.50
  19   1   1    2.22    3.64
 -19  -1  -1    6.20    4.24
 -20   1   2    8.15    4.92
  20  -1  -2   12.06    3.64
 -19   1   2   71.20    6.33
  19  -1  -2   85.15    6.20
 -18   1   2    6.60    3.57
  18  -1  -2    5.25    3.37
 -17   1   2   92.56    7.28
  17  -1  -2   97.48    5.86
 -16   1   2    0.07    2.36
  16  -1  -2    0.47    2.16
 -15   1   2  117.42    7.01
  15  -1  -2  126.38    6.33
 -14   1   2   24.72    4.11
  14  -1  -2   18.05    2.69
 -13   1   2  157.70    7.34
  13  -1  -2  162.62    7.21
 -12   1   2   15.22    4.58
  12  -1  -2   15.29    2.43
 -11   1   2  529.95   19.81
  11  -1  -2  493.31   14.48
 -10   1   2   47.76    4.92
  10  -1  -2   48.91    2.63
  -9   1   2  468.11   15.97
   9  -1  -2  542.82   16.91
  -8   1   2   52.14    4.65
   8  -1  -2   53.82    2.76
  -7   1   2  387.28   13.14
   7  -1  -2  445.55   13.88
  -6   1   2  248.98    9.09
   6  -1  -2  245.74    7.88
  -5   1   2 1588.51   66.02
   5  -1  -2 1671.98   44.33
  -4   1   2  130.82    5.05
   4  -1  -2  129.20    4.45
  -3   1   2 3953.94  101.38
   3  -1  -2 3545.58  125.23
  -1   1   2  929.56   33.41
   0   1   2    0.40    0.34
   0  -1  -2    0.67    0.40
   1   1   2  817.53   22.63
  -1  -1  -2  940.40   25.80
   2   1   2 3097.27   78.95
  -2  -1  -2 3131.90   77.47
   3   1   2 3449.92   87.78
  -3  -1  -2 3488.32   86.70
   4   1   2  143.62    5.93
  -4  -1  -2  140.25    5.66
   5   1   2 1730.25   47.96
  -5  -1  -2 1673.60   64.94
   6   1   2  232.74   11.99
  -6  -1  -2  249.58   13.94
   7   1   2  453.02   14.82
  -7  -1  -2  485.56   15.36
   8   1   2   64.06    3.50
  -8  -1  -2   56.18    3.17
   9   1   2  542.42   16.57
  -9  -1  -2  572.33   18.93
  10   1   2   63.25    4.38
 -10  -1  -2   59.62    4.04
  11   1   2  790.25   23.11
 -11  -1  -2  738.45   23.85
  12   1   2   25.67    3.57
 -12  -1  -2   24.99    3.17
  13   1   2  245.21   10.78
 -13  -1  -2  239.88   11.59
  14   1   2   30.92    3.44
 -14  -1  -2   29.17    3.17
  15   1   2  160.53    8.96
 -15  -1  -2  168.68   10.98
  16   1   2    1.89    2.49
 -16  -1  -2   -0.20    2.96
  17   1   2  132.17    7.75
  18   1   2    7.28    3.91
 -18  -1  -2   12.19    4.51
 -20   1   3   21.49    4.45
  20  -1  -3   19.20    4.72
 -19   1   3    3.57    4.31
  19  -1  -3    2.83    3.30
 -18   1   3   86.43    6.26
  18  -1  -3   83.87    5.66
 -17   1   3    7.48    3.10
  17  -1  -3    8.29    3.03
 -16   1   3   95.86    6.06
  16  -1  -3   86.90    4.72
 -15   1   3    2.36    2.63
  15  -1  -3    4.78    3.30
 -14   1   3  281.51   11.05
  14  -1  -3  291.89   10.71
 -13   1   3    3.91    2.49
  13  -1  -3    6.74    3.37
 -12   1   3  173.33    7.88
  12  -1  -3  148.34    5.79
 -11   1   3  145.30    9.77
  11  -1  -3  147.86    6.40
 -10   1   3  480.78   15.22
  10  -1  -3  451.00   14.28
  -9   1   3   34.09    2.36
   9  -1  -3   32.81    2.22
  -8   1   3  334.93   11.79
   8  -1  -3  385.19   12.93
  -7   1   3  133.65    5.73
   7  -1  -3  134.05    5.32
  -6   1   3  441.10   13.41
   6  -1  -3  476.67   14.42
  -5   1   3  881.39   34.42
   5  -1  -3  910.63   24.59
   4  -1  -3 7385.07  260.36
  -3   1   3 3298.08   84.61
   3  -1  -3 3210.44   80.97
  -2   1   3  123.48    4.72
   2  -1  -3   92.15    3.91
  -1   1   3   36.11    2.16
   1  -1  -3   38.26    2.29
   0   1   3 2036.82   51.74
   0  -1  -3 2340.91   86.63
   1   1   3   38.46    2.22
  -1  -1  -3   40.42    3.57
   2   1   3  130.62    7.34
  -2  -1  -3   95.79    3.91
   3   1   3 3063.52   80.10
  -3  -1  -3 2944.29   75.58
   4   1   3 6466.83  153.93
  -4  -1  -3 6361.27  153.86
   5   1   3 1015.52   28.90
  -5  -1  -3  954.01   28.29
   6   1   3  466.70   14.62
  -6  -1  -3  506.92   15.97
   7   1   3  145.51    8.56
  -7  -1  -3  141.06    7.75
   8   1   3  404.99   17.72
  -8  -1  -3  447.70   14.35
   9   1   3   34.96    3.57
  -9  -1  -3   41.16    3.44
  10   1   3  698.16   22.30
 -10  -1  -3  624.13   21.35
  11   1   3  243.86    9.50
 -11  -1  -3  233.21    8.69
  12   1   3  309.07   11.65
 -12  -1  -3  274.04   11.25
  13   1   3    6.26    2.36
 -13  -1  -3    6.94    2.69
  14   1   3  427.83   15.83
 -14  -1  -3  457.07   19.06
  15   1   3    6.33    2.96
 -15  -1  -3    5.52    3.44
  16   1   3  141.40    7.34
 -16  -1  -3  158.78    8.89
  17   1   3   11.32    3.50
 -17  -1  -3   11.65    4.65
  18   1   3  116.54    7.21
 -18  -1  -3  117.42    9.84
 -19   1   4   11.86    5.93
  19  -1  -4   15.49    4.11
 -18   1   4    3.97    2.76
  18  -1  -4    3.37    2.29
 -17   1   4   70.87    6.47
  17  -1  -4   72.75    4.98
 -16   1   4    8.42    2.56
  16  -1  -4    8.08    1.95
 -15   1   4  213.61   10.51
  15  -1  -4  210.24    8.96
 -14   1   4   10.24    3.30
  14  -1  -4   17.85    2.36
 -13   1   4  179.80    7.75
  13  -1  -4  175.55    8.02
 -12   1   4   18.93    2.90
  12  -1  -4   17.99    2.29
 -11   1   4   96.26    6.26
  11  -1  -4  115.13    4.98
 -10   1   4   83.94    6.74
  10  -1  -4   84.34    4.58
  -9   1   4  438.41   15.09
   9  -1  -4  406.88   19.60
  -8   1   4  115.19    4.31
   8  -1  -4  112.09    6.20
  -7   1   4  638.07   19.74
   7  -1  -4  680.24   19.47
  -6   1   4  291.75   10.44
   6  -1  -4  299.91   10.10
  -5   1   4 1562.04   42.17
   5  -1  -4 1432.03   38.60
  -4   1   4  129.34    7.28
   4  -1  -4  129.27    4.58
  -3   1   4 1301.68   50.79
   3  -1  -4 1347.08   49.65
  -2   1   4 1081.73   29.71
  -1   1   4  555.75   16.03
   1  -1  -4  510.15   20.01
   0   1   4    0.07    0.67
   0  -1  -4   -0.13    0.54
   1   1   4  581.49   18.26
  -1  -1  -4  545.58   16.57
   2   1   4 1126.73   30.45
  -2  -1  -4 1070.15   41.16
   3   1   4 1358.67   37.86
  -3  -1  -4 1460.66   45.07
   4   1   4  144.70    7.68
  -4  -1  -4  145.51    5.46
   5   1   4 1725.47   46.55
  -5  -1  -4 1700.27   48.37
   6   1   4  347.53   10.31
  -6  -1  -4  327.66   10.98
   7   1   4  702.54   20.68
  -7  -1  -4  762.43   23.11
   8   1   4  135.47    5.86
  -8  -1  -4  137.69    6.13
   9   1   4  604.73   27.01
  -9  -1  -4  493.24   22.97
  10   1   4  119.17    5.32
 -10  -1  -4  123.75    5.59
  11   1   4  167.94    7.95
 -11  -1  -4  187.68    8.22
  12   1   4   37.25    4.04
 -12  -1  -4   39.74    5.73
  13   1   4  329.28   13.20
 -13  -1  -4  309.61   13.07
  14   1   4   29.51    3.57
 -14  -1  -4   28.16    3.97
  15   1   4  351.57   13.94
 -15  -1  -4  354.67   17.45
  16   1   4   12.13    3.23
 -16  -1  -4    8.22    5.32
  17   1   4  141.33    8.08
 -17  -1  -4  148.34    9.30
  18   1   4    5.66    3.97
 -18  -1  -4    7.41    6.47
 -19   1   5    4.04    4.78
  19  -1  -5    6.20    3.77
 -18   1   5    9.43    3.30
  18  -1  -5   12.33    2.83
 -17   1   5   10.17    2.76
  17  -1  -5    8.96    2.63
 -16   1   5  208.16    8.69
  16  -1  -5  187.74    8.22
 -15   1   5   53.89    3.57
  15  -1  -5   52.68    3.50
 -14   1   5  113.04    8.62
  14  -1  -5   78.61    4.58
 -13   1   5   -0.74    3.57
  13  -1  -5    0.27    3.10
 -12   1   5  226.01   13.20
  12  -1  -5  246.55    8.82
 -11   1   5    6.26    2.69
  11  -1  -5    7.95    1.62
 -10   1   5  115.66    5.19
  10  -1  -5  131.83    6.20
  -9   1   5   78.14    3.84
   9  -1  -5   75.04    3.30
  -8   1   5  882.07   24.99
   8  -1  -5  843.33   25.33
  -7   1   5  264.94   13.41
   7  -1  -5  265.89   14.69
  -6   1   5  843.94   26.47
   6  -1  -5  829.52   24.32
  -5   1   5   16.77    1.15
   5  -1  -5   16.10    1.01
  -4   1   5  623.39   19.27
   4  -1  -5  675.60   19.87
  -3   1   5    9.97    1.28
   3  -1  -5    9.57    1.15
  -2   1   5 1725.67   46.75
   2  -1  -5 1730.05   67.23
  -1   1   5  482.87   21.42
   1  -1  -5  449.79   14.08
   0   1   5 2223.15   60.96
   0  -1  -5 2040.33   51.26
   1   1   5  434.23   14.55
  -1  -1  -5  467.57   15.22
   2   1   5 1787.91   48.64
  -2  -1  -5 1796.60   47.90
   3   1   5   11.59    1.48
  -3  -1  -5   14.01    2.02
   4   1   5  716.75   22.36
  -4  -1  -5  744.51   23.64
   5   1   5   19.40    1.89
  -5  -1  -5   16.57    1.89
   6   1   5  964.32   27.55
  -6  -1  -5  932.99   26.88
   7   1   5  315.60   10.85
  -7  -1  -5  302.47   11.32
   8   1   5 1187.56   35.84
  -8  -1  -5 1089.75   31.66
   9   1   5  124.56    5.79
  -9  -1  -5  116.41    5.46
  10   1   5  186.13    8.89
  11   1   5   10.85    3.30
 -11  -1  -5   12.53    2.29
  12   1   5  420.49   14.35
 -12  -1  -5  433.42   15.22
  13   1   5    3.84    3.44
 -13  -1  -5    3.91    3.64
  14   1   5  197.31    9.30
 -14  -1  -5  175.35    7.95
  15   1   5   97.81    5.93
 -15  -1  -5  108.25    6.53
  16   1   5  391.05   17.11
 -16  -1  -5  372.93   27.82
  17   1   5   19.00    4.11
 -17  -1  -5   28.09    7.14
 -18   1   6    6.74    4.92
  18  -1  -6    8.82    2.69
 -17   1   6   40.89    3.37
  17  -1  -6   49.85    4.04
 -16   1   6    7.34    2.96
  16  -1  -6   12.53    2.63
 -15   1   6   99.90    5.25
  15  -1  -6   87.78    4.51
 -14   1   6   12.26    2.36
  14  -1  -6   12.80    2.09
 -13   1   6   78.21    5.05
  13  -1  -6   70.26    3.91
 -12   1   6   13.94    2.49
  12  -1  -6   17.45    2.02
 -11   1   6  259.28    9.23
  11  -1  -6  262.99    8.49
 -10   1   6   20.88    2.09
  10  -1  -6   21.69    1.68
  -9   1   6  308.19   10.91
   9  -1  -6  330.56   10.98
  -8   1   6   99.50    6.40
   8  -1  -6   93.50    4.18
  -7   1   6  885.43   39.54
   7  -1  -6  812.08   33.61
  -6   1   6   12.46    1.28
   6  -1  -6   12.26    1.55
  -5   1   6  260.97    9.90
   5  -1  -6  292.02   10.58
  -4   1   6    4.31    0.67
   4  -1  -6    3.50    0.88
  -3   1   6  542.55   16.77
   3  -1  -6  607.83   17.18
  -2   1   6   25.40    1.55
   2  -1  -6   22.23    2.16
  -1   1   6  800.96   23.38
   1  -1  -6  838.95   24.05
   0   1   6    0.40    0.74
   0  -1  -6   -0.07    0.61
   1   1   6  875.13   27.28
  -1  -1  -6  862.67   26.00
   2   1   6   25.46    2.09
  -2  -1  -6   25.19    2.09
   3   1   6  602.98   30.18
  -3  -1  -6  667.24   20.14
   4   1   6    4.78    1.28
  -4  -1  -6    3.03    1.35
   5   1   6  308.80   10.31
  -5  -1  -6  347.20   12.13
   6   1   6   10.78    2.09
  -6  -1  -6   12.06    2.36
   7   1   6 1205.95   39.81
  -7  -1  -6 1105.99   38.67
   8   1   6  137.69    6.80
  -8  -1  -6  142.34    6.67
   9   1   6  457.74   14.82
  -9  -1  -6  507.66   18.12
  10   1   6   38.13    3.50
 -10  -1  -6   40.08    3.44
  11   1   6  433.96   15.36
 -11  -1  -6  455.92   17.45
  12   1   6   30.25    3.50
 -12  -1  -6   30.04    4.85
  13   1   6  152.98   16.77
 -13  -1  -6  163.09    9.30
  14   1   6   24.99    3.44
 -14  -1  -6   19.47    3.37
  15   1   6  205.80    9.36
 -15  -1  -6  187.74    9.36
  16   1   6   37.86    4.98
 -16  -1  -6   34.02    4.92
  17   1   6  100.24    7.54
 -17  -1  -6  105.02    8.02
 -17   1   7    5.05    2.63
  17  -1  -7    0.74    2.16
 -16   1   7   17.51    2.69
  16  -1  -7   11.12    2.83
 -15   1   7   11.72    2.43
  15  -1  -7    9.03    1.68
 -14   1   7  104.41    6.40
  14  -1  -7   96.20    5.32
  13  -1  -7    8.08    1.89
 -12   1   7   85.82    4.58
  12  -1  -7   76.46    3.71
 -11   1   7   50.99    3.30
  11  -1  -7   49.04    2.83
 -10   1   7  338.44   12.60
  10  -1  -7  358.18   12.13
  -9   1   7   33.48    3.50
   9  -1  -7   29.10    1.95
  -8   1   7  161.74    7.14
   8  -1  -7  161.34    7.95
  -7   1   7  140.52    6.06
   7  -1  -7  131.29    4.92
  -6   1   7  562.49   18.73
   6  -1  -7  510.08   23.51
  -5   1   7   39.14    3.37
   5  -1  -7   42.10    3.71
  -4   1   7  149.01    5.52
   4  -1  -7  115.80    7.07
  -3   1   7  103.88    4.11
   3  -1  -7  102.46    4.58
  -2   1   7  922.15   37.72
   2  -1  -7  910.09   27.75
  -1   1   7  155.00    6.00
   1  -1  -7  153.59    6.20
   0   1   7 1088.27   31.32
   0  -1  -7 1123.63   31.19
   1   1   7  158.37    5.86
  -1  -1  -7  160.33    5.73
   2   1   7 1008.64   41.97
  -2  -1  -7  962.30   27.82
   3   1   7  114.86    4.51
  -3  -1  -7  110.68    4.78
   4   1   7  174.41    6.33
  -4  -1  -7  131.16    5.25
   5   1   7   48.37    2.69
  -5  -1  -7   47.42    2.76
   6   1   7  649.05   26.88
  -6  -1  -7  643.33   24.86
   7   1   7  177.50    6.53
  -7  -1  -7  187.34    7.41
   8   1   7  232.95    9.90
  -8  -1  -7  239.41    9.03
   9   1   7   52.07    3.97
  -9  -1  -7   47.56    4.31
  10   1   7  571.99   19.13
 -10  -1  -7  543.63   19.81
  11   1   7   97.88    6.20
 -11  -1  -7   96.13    5.46
  12   1   7  179.59    9.03
 -12  -1  -7  159.92    8.08
  13   1   7   17.85    4.24
 -13  -1  -7   21.76    4.58
  14   1   7  258.00   13.67
 -14  -1  -7  221.36   14.62
  15   1   7   28.02    6.20
 -15  -1  -7   28.56    4.78
  16   1   7   36.85    5.46
 -16  -1  -7   33.55   10.17
 -16   1   8    3.57    2.56
  16  -1  -8    4.98    2.36
 -15   1   8   28.70    3.23
  15  -1  -8   32.40    2.63
 -14   1   8    1.28    2.02
  14  -1  -8    4.38    2.02
  13  -1  -8  111.29    5.66
 -12   1   8   39.68    4.18
  12  -1  -8   32.20    3.23
 -11   1   8  116.34    7.68
  11  -1  -8  100.10    4.38
 -10   1   8   14.75    1.82
  10  -1  -8   14.48    2.09
  -9   1   8  269.39   14.89
   9  -1  -8  261.51   12.66
  -8   1   8   14.89    2.16
   8  -1  -8   13.00    1.35
  -7   1   8  386.00   14.55
   7  -1  -8  423.38   19.20
  -6   1   8  202.63    7.28
   6  -1  -8  196.10    7.75
  -5   1   8  395.97   14.48
   5  -1  -8  360.60   15.49
  -4   1   8   58.00    4.65
   4  -1  -8   68.37    5.79
  -3   1   8  327.52   10.58
   3  -1  -8  283.13   10.37
  -2   1   8  107.45    4.85
   2  -1  -8  112.77    4.85
  -1   1   8  904.09   26.34
   1  -1  -8 1020.10   29.91
   0   1   8   -0.47    1.08
   0  -1  -8    0.81    1.68
   1   1   8 1000.29   30.58
  -1  -1  -8 1025.28   30.18
   2   1   8  118.63    4.92
  -2  -1  -8  120.85    6.13
   3   1   8  379.46   11.86
  -3  -1  -8  339.65   11.25
   4   1   8   83.67    3.97
  -4  -1  -8   80.63    4.04
   5   1   8  453.09   17.31
  -5  -1  -8  446.96   15.83
   6   1   8  252.28    8.89
  -6  -1  -8  271.68   10.91
   7   1   8  539.72   25.80
  -7  -1  -8  561.21   19.67
   8   1   8   23.91    2.63
  -8  -1  -8   18.39    2.96
   9   1   8  402.57   15.49
  -9  -1  -8  454.71   17.38
  10   1   8   23.44    3.50
 -10  -1  -8   24.86    3.50
  11   1   8  227.29   10.91
 -11  -1  -8  239.55   10.64
  12   1   8   64.87    5.86
 -12  -1  -8   75.85    6.20
  13   1   8  298.56   12.93
 -13  -1  -8  295.93   13.61
  14   1   8   11.65    3.64
 -14  -1  -8   14.08    3.71
 -15  -1  -8   94.78   11.18
  16   1   8   14.55    5.86
 -16  -1  -8   13.81    7.61
  16  -1  -9    9.63    2.76
 -15   1   9    1.15    2.96
  15  -1  -9   -1.55    1.89
 -14   1   9   52.75    3.84
 -13   1   9    6.80    2.09
  13  -1  -9    6.33    1.75
 -12   1   9   93.37    6.33
  12  -1  -9   81.38    4.38
  11  -1  -9   21.49    1.95
 -10   1   9  101.52    5.59
  10  -1  -9   74.30    4.92
   9  -1  -9    5.52    1.35
  -8   1   9  134.05    9.57
   8  -1  -9  148.81    8.96
  -7   1   9   16.64    1.68
   7  -1  -9   15.49    1.82
  -6   1   9  149.35    6.67
   6  -1  -9  148.34    8.62
  -5   1   9  101.52    4.11
   5  -1  -9   99.77    4.72
  -4   1   9  416.24   21.08
   4  -1  -9  391.72   22.03
  -3   1   9  255.04    9.50
   3  -1  -9  247.56    9.50
  -2   1   9  145.37    6.13
   2  -1  -9  121.52    6.80
  -1   1   9   31.05    1.89
   1  -1  -9   33.61    2.16
   0   1   9  512.84   15.97
   0  -1  -9  575.29   19.20
   1   1   9   30.99    2.02
  -1  -1  -9   33.55    2.22
   2   1   9  144.77    5.52
  -2  -1  -9  135.13    5.05
   3   1   9  266.96    9.43
  -3  -1  -9  291.96   12.53
   4   1   9  415.30   16.64
  -4  -1  -9  454.37   14.95
   5   1   9  117.89    5.52
  -5  -1  -9  109.33    5.79
   6   1   9  200.21   10.10
  -6  -1  -9  201.62    8.08
   7   1   9   26.61    3.17
  -7  -1  -9   24.52    3.10
   8   1   9  208.69   10.17
  -8  -1  -9  249.85   10.78
   9   1   9    8.76    2.63
  -9  -1  -9    6.26    2.36
  10   1   9  190.71    9.43
 -10  -1  -9  164.10    7.75
  11   1   9   52.48    4.85
 -11  -1  -9   50.59    4.98
  12   1   9  237.86   10.78
 -12  -1  -9  243.39   10.17
  13   1   9   24.05    3.84
 -13  -1  -9   27.15    4.24
  14   1   9  195.36   10.78
 -14  -1  -9  199.60   17.92
  15   1   9    2.02    3.37
 -15  -1  -9    0.20    6.67
  15  -1 -10    5.12    2.76
 -14   1  10    2.83    2.90
  14  -1 -10    1.95    1.95
 -13   1  10   51.40    5.66
  13  -1 -10   53.82    3.91
  12  -1 -10    3.30    1.35
  11  -1 -10   66.96    3.44
 -10   1  10   15.43    2.36
  10  -1 -10   15.97    1.55
  -9   1  10  116.07    8.96
   9  -1 -10   91.28    4.18
  -8   1  10    1.55    1.21
   8  -1 -10    1.41    1.08
  -7   1  10   50.99    2.96
   7  -1 -10   62.18    3.91
  -6   1  10    8.08    1.28
   6  -1 -10    8.02    1.48
  -5   1  10  453.50   23.44
   5  -1 -10  462.86   23.98
  -4   1  10   13.20    1.35
   4  -1 -10   13.47    1.55
  -3   1  10  525.31   23.31
   3  -1 -10  513.92   16.10
  -2   1  10  106.91    4.72
   2  -1 -10  101.32    4.38
  -1   1  10  132.84    5.46
   1  -1 -10  108.86    4.85
   0   1  10   -0.94    1.21
   0  -1 -10    0.27    1.08
   1   1  10  113.91    5.52
  -1  -1 -10  100.51    4.72
   2   1  10   93.16    4.58
  -2  -1 -10   86.97    4.85
   3   1  10  419.75   17.04
  -3  -1 -10  514.33   19.00
   4   1  10   16.84    2.09
  -4  -1 -10   12.73    2.22
   5   1  10  591.93   18.86
  -5  -1 -10  602.30   20.88
   6   1  10   15.22    3.23
  -6  -1 -10   13.67    2.83
   7   1  10   83.33    5.05
  -7  -1 -10  104.01    8.22
   8   1  10    3.91    2.56
  -8  -1 -10    2.22    2.43
   9   1  10  243.52   10.04
  -9  -1 -10  203.37    9.03
  10   1  10   42.10    3.97
 -10  -1 -10   40.69    5.19
  11   1  10  208.42    9.16
 -11  -1 -10  219.20   10.71
  12   1  10    7.48    3.30
 -12  -1 -10    6.80    3.37
  13   1  10  214.82   12.40
 -13  -1 -10  226.68   13.41
  14   1  10    7.07    4.18
 -14  -1 -10    8.08    4.65
 -13   1  11    0.13    1.48
  13  -1 -11    0.20    0.94
 -12   1  11   54.03    3.23
 -11   1  11    3.64    1.15
  11  -1 -11    3.77    1.75
 -10   1  11   57.46    3.37
  10  -1 -11   46.01    3.57
  -9   1  11   30.99    2.43
   9  -1 -11   31.39    2.09
  -8   1  11   52.34    4.04
   8  -1 -11   37.52    4.38
  -7   1  11   20.61    1.82
   7  -1 -11   16.17    1.68
  -6   1  11   74.98    3.91
   6  -1 -11   79.76    4.45
  -5   1  11    1.75    1.21
   5  -1 -11    1.95    1.28
  -4   1  11  392.53   12.60
   4  -1 -11  383.03   13.88
  -3   1  11   15.36    1.55
   3  -1 -11   16.37    2.16
  -2   1  11  293.64   10.24
   2  -1 -11  310.21   14.75
  -1   1  11   93.77    5.32
   1  -1 -11   91.48    4.51
   0   1  11   50.05    3.10
   0  -1 -11   32.00    2.29
   1   1  11   82.12    4.24
  -1  -1 -11   76.93    4.45
   2   1  11  286.97   13.47
  -2  -1 -11  274.91   10.37
   3   1  11   14.42    2.69
  -3  -1 -11   14.08    3.64
   4   1  11  434.43   15.70
  -4  -1 -11  459.69   15.22
   5   1  11    0.20    1.68
  -5  -1 -11    4.04    2.29
   6   1  11  124.35    5.93
  -6  -1 -11  134.53    7.07
   7   1  11   31.93    3.84
  -7  -1 -11   39.27    4.51
   8   1  11   96.33    5.66
  -8  -1 -11   79.56    4.85
   9   1  11   78.68    5.86
  -9  -1 -11   85.75    6.47
  10   1  11  167.00    9.36
 -10  -1 -11  149.41    8.29
  11   1  11   14.75    3.44
 -11  -1 -11   13.94    3.64
  12   1  11  252.41   12.06
 -12  -1 -11  262.32   13.54
  13   1  11    0.27    3.50
 -13  -1 -11    1.35    4.04
 -10   1  12    0.40    1.41
  10  -1 -12    0.74    0.94
  -9   1  12   26.47    1.82
   9  -1 -12   28.56    2.56
  -8   1  12   10.91    1.35
  -7   1  12  119.23    6.53
   7  -1 -12   95.59    4.18
  -6   1  12    2.02    1.82
   6  -1 -12    2.83    1.35
  -5   1  12   68.98    3.77
   5  -1 -12   80.90    4.24
  -4   1  12    0.74    1.41
   4  -1 -12    0.13    1.95
  -3   1  12  233.55    9.09
   3  -1 -12  216.04    9.16
  -2   1  12    4.31    1.48
   2  -1 -12    4.72    1.48
  -1   1  12  104.89    6.06
   1  -1 -12   93.97    4.92
   0   1  12   -0.74    1.41
   0  -1 -12    0.00    1.75
   1   1  12   95.79    5.12
  -1  -1 -12   89.39    4.85
   2   1  12    3.23    1.82
  -2  -1 -12    5.05    2.36
   3   1  12  294.79   10.78
  -3  -1 -12  285.09   10.64
   4   1  12    2.16    2.36
  -4  -1 -12    2.22    2.83
   5   1  12  109.33    6.67
  -5  -1 -12  123.68    6.53
   6   1  12    4.11    2.49
  -6  -1 -12    3.97    2.76
   7   1  12  247.63   15.97
  -7  -1 -12  203.37   11.38
   8   1  12   20.14    3.71
  -8  -1 -12   16.84    3.84
   9   1  12   87.57    5.25
  -9  -1 -12   81.65    5.59
  10   1  12    1.28    3.37
 -10  -1 -12    0.34    3.30
  11   1  12  182.76    8.89
 -11  -1 -12  173.80   13.41
  12   1  12    2.09    3.57
 -12  -1 -12    3.10    4.24
  13   1  12   12.06    6.40
  -8   1  13   45.47    3.50
   8  -1 -13   37.72    3.37
  -7   1  13   13.07    1.41
   7  -1 -13   10.24    2.09
  -6   1  13   78.01    3.71
   6  -1 -13   64.94    5.39
  -5   1  13    2.43    1.41
   5  -1 -13    3.37    2.09
  -4   1  13   27.89    2.36
   4  -1 -13   29.24    2.43
  -3   1  13    9.77    1.75
   3  -1 -13    8.29    2.63
  -2   1  13   56.25    3.37
   2  -1 -13   48.17    4.45
  -1   1  13   11.32    2.09
   1  -1 -13   15.02    2.76
   0   1  13  296.27   11.99
   0  -1 -13  310.95   14.75
   1   1  13   21.83    2.56
  -1  -1 -13   13.81    2.76
   2   1  13   68.78    6.06
  -2  -1 -13   72.35    4.45
   3   1  13   10.78    2.09
  -3  -1 -13   11.72    2.56
   4   1  13   44.80    3.57
  -4  -1 -13   46.01    3.71
   5   1  13    5.32    2.69
  -5  -1 -13    4.18    2.90
   6   1  13  176.36    7.75
  -6  -1 -13  156.28    8.49
   7   1  13   33.48    3.91
  -7  -1 -13   26.61    3.71
   8   1  13  178.72    8.69
  -8  -1 -13  170.09    9.90
   9   1  13    0.74    3.03
  -9  -1 -13    1.01    3.44
  10   1  13   93.23    7.28
 -10  -1 -13   99.29    8.08
  11   1  13    8.42    4.98
 -11  -1 -13    8.08    5.93
  -7   1  14   40.15    2.29
  -6   1  14   10.17    1.55
   6  -1 -14   11.25    2.16
  -5   1  14   55.17    3.23
   5  -1 -14   47.56    2.96
  -4   1  14   11.12    1.82
   4  -1 -14   10.91    2.76
  -3   1  14   11.05    2.43
   3  -1 -14   13.54    2.90
  -2   1  14   17.04    2.56
   2  -1 -14   19.81    2.56
  -1   1  14  153.79    9.90
   1  -1 -14  167.33   12.06
   0   1  14   -0.27    1.89
   0  -1 -14    0.67    2.02
   1   1  14  174.81   11.38
  -1  -1 -14  180.40    9.63
   2   1  14   26.74    3.30
  -2  -1 -14   26.20    3.17
   3   1  14   16.03    2.96
  -3  -1 -14   24.66    3.84
   4   1  14   23.17    3.30
  -4  -1 -14   18.73    3.44
   5   1  14  125.90    6.87
  -5  -1 -14  105.83    5.93
   6   1  14   30.92    5.12
  -6  -1 -14   32.13    4.58
   7   1  14  137.96    7.81
  -7  -1 -14  112.77    7.88
   8   1  14    6.60    3.23
  -8  -1 -14    8.02    3.57
   9   1  14  124.89   11.38
  -9  -1 -14  125.36    8.69
  10   1  14    2.02    3.57
 -10  -1 -14    3.71    3.64
  -6   1  15   27.08    2.29
  -5   1  15    3.64    1.55
   5  -1 -15    3.44    1.68
  -4   1  15   16.17    1.89
   4  -1 -15   11.92    2.76
  -3   1  15   10.91    1.89
   3  -1 -15    7.41    2.22
  -2   1  15   52.75    4.51
  -1   1  15   12.46    2.36
   1  -1 -15   17.38    2.63
   0   1  15   72.89    4.45
   0  -1 -15   75.85    5.05
   1   1  15   19.00    2.76
  -1  -1 -15   23.11    3.37
   2   1  15   74.17    4.98
  -2  -1 -15   56.99    3.84
   3   1  15   17.58    3.03
  -3  -1 -15   15.63    3.37
   4   1  15   33.48    3.97
  -4  -1 -15   31.66    4.18
   5   1  15   11.18    3.97
  -5  -1 -15   16.03    4.51
   6   1  15   88.52    9.09
  -6  -1 -15   80.97    6.00
   7   1  15    8.96    2.96
  -7  -1 -15   12.53    4.24
   8   1  15   47.63    5.12
  -8  -1 -15   52.07    6.13
   9   1  15    7.95    3.44
  -9  -1 -15   13.14    4.92
  -4   1  16   -0.13    1.75
   4  -1 -16    1.68    2.56
  -3   1  16   25.53    2.76
   3  -1 -16   22.03    3.50
  -2   1  16    7.61    2.36
   2  -1 -16    5.39    2.49
  -1   1  16   35.97    3.03
   1  -1 -16   31.19    3.50
   0   1  16   -0.34    1.75
   0  -1 -16    0.34    1.82
   1   1  16   42.04    4.11
  -1  -1 -16   32.87    3.91
   2   1  16    5.73    2.76
  -2  -1 -16    5.46    2.63
   3   1  16   52.54    4.11
  -3  -1 -16   40.76    3.84
   4   1  16    0.88    2.56
  -4  -1 -16    0.47    3.50
   5   1  16   44.60    4.72
  -5  -1 -16   36.85    4.24
   6   1  16    9.97    2.96
  -6  -1 -16   10.37    4.31
   7   1  16   33.75    4.72
  -7  -1 -16   34.69    4.45
   8   1  16   13.81    4.78
  -8  -1 -16   13.34    3.64
   1  -1 -17    1.01    2.90
   0   1  17   13.54    2.63
   0  -1 -17   21.15    3.84
   1   1  17    4.51    3.03
  -1  -1 -17    1.62    4.45
   2   1  17   26.81    4.24
  -2  -1 -17   26.00    3.50
   3   1  17    2.69    2.69
  -3  -1 -17    2.96    2.76
   4   1  17   28.97    4.72
  -4  -1 -17   30.11    4.18
   5   1  17   -0.13    3.17
  -5  -1 -17    1.01    3.44
   6   1  17   26.54    5.79
  -6  -1 -17   23.44    5.79
  -3   2 -17   37.99    4.98
   3  -2  17   42.17    5.05
  -2   2 -17    6.74    2.90
   2  -2  17   10.78    3.30
  -1   2 -17   21.96    3.64
   1  -2  17   18.26    3.64
   0   2 -17    2.83    3.37
   0  -2  17   -1.62    3.30
   1   2 -17   16.98    4.85
  -1  -2  17   19.40    4.24
   2   2 -17   10.24    2.76
  -2  -2  17   11.59    3.17
   3   2 -17   32.87    4.72
  -3  -2  17   31.19    4.72
   4   2 -17    0.20    3.17
  -4  -2  17   -2.22    2.56
   6  -2  16   34.36    9.16
  -5   2 -16    7.07    3.84
   5  -2  16    3.57    3.44
  -4   2 -16  143.42    8.35
   4  -2  16  164.23    8.69
  -3   2 -16    3.23    4.58
   3  -2  16    1.41    3.44
  -2   2 -16   22.70    3.64
   2  -2  16   25.40    3.57
  -1   2 -16    3.44    2.76
   1  -2  16    8.15    2.96
   0   2 -16   54.03    5.66
   0  -2  16   56.18    5.12
   1   2 -16    2.56    3.37
  -1  -2  16    5.19    3.10
   2   2 -16   18.39    3.03
  -2  -2  16   21.08    3.30
   3   2 -16   -1.82    2.76
  -3  -2  16   -0.20    2.36
   4   2 -16   84.00    7.07
  -4  -2  16  105.42    8.08
   5   2 -16    1.35    2.96
  -5  -2  16    2.36    2.69
   6   2 -16   22.70    3.10
  -6  -2  16   32.27    3.57
   7   2 -16   -0.54    3.71
  -7  -2  16    2.29    3.23
  -7   2 -15   77.40    8.62
   7  -2  15   89.46    7.81
  -6   2 -15   11.52    4.18
   6  -2  15   14.42    3.77
  -5   2 -15  116.41    8.56
   5  -2  15  144.29    9.50
  -4   2 -15   18.12    4.58
   4  -2  15   13.74    3.84
  -3   2 -15   81.51    6.74
   3  -2  15   87.78    6.53
  -2   2 -15    3.10    3.17
   2  -2  15    2.16    2.63
  -1   2 -15   68.11    4.92
   1  -2  15   60.83    5.05
   0   2 -15    3.44    3.10
   0  -2  15   -0.27    4.38
   1   2 -15   52.88    4.38
  -1  -2  15   53.42    4.72
   2   2 -15    3.77    3.64
  -2  -2  15    5.12    3.37
   3   2 -15   58.54    5.52
  -3  -2  15   66.96    4.65
   4   2 -15   15.56    3.17
  -4  -2  15   17.18    2.96
   5   2 -15   77.60    6.20
  -5  -2  15   84.47    9.03
   6   2 -15   10.78    4.65
  -6  -2  15    7.01    3.50
   7   2 -15   42.71    5.59
  -7  -2  15   51.60    4.24
   8   2 -15    1.55    2.36
  -8  -2  15    0.47    2.76
   9   2 -15   12.93    2.69
  -9  -2  15    7.21    3.10
  -9   2 -14    1.21    4.31
   9  -2  14   -1.15    4.78
  -8   2 -14  109.33    7.61
   8  -2  14  110.54    7.48
  -7   2 -14   18.26    5.52
   7  -2  14   19.27    4.18
  -6   2 -14  160.12   16.17
   6  -2  14  170.03   10.17
  -5   2 -14    6.26    3.97
   5  -2  14   11.45    2.96
  -4   2 -14   22.70    3.57
   4  -2  14   26.74    3.77
  -3   2 -14   54.23    4.72
   3  -2  14   55.37    4.31
  -2   2 -14  128.67    7.41
   2  -2  14  134.12    8.08
  -1   2 -14   10.71    3.37
   1  -2  14   11.12    3.30
   0   2 -14  114.59    5.46
   0  -2  14  121.12    6.67
   1   2 -14   12.60    3.23
  -1  -2  14   11.32    2.96
   2   2 -14  104.41    6.00
  -2  -2  14  104.15    5.39
   3   2 -14   47.96    4.04
  -3  -2  14   46.41    7.21
   4   2 -14   17.99    4.72
  -4  -2  14   17.58    3.50
   5   2 -14    6.60    2.90
  -5  -2  14    6.40    3.30
   6   2 -14  101.79    5.86
  -6  -2  14  117.62    6.53
   7   2 -14   12.19    2.69
  -7  -2  14   13.88    2.90
   8   2 -14   55.98    4.78
  -8  -2  14   63.66    5.93
   9   2 -14    0.00    2.56
  -9  -2  14    1.48    2.36
  10   2 -14   17.18    3.10
 -10  -2  14   16.44    3.77
  11   2 -14    3.37    4.45
 -11  -2  14    2.56    2.83
 -11   2 -13   42.10    9.57
  11  -2  13   44.39   13.67
 -10   2 -13   42.78    5.19
  10  -2  13   39.41    4.65
  -9   2 -13  157.36    9.03
   9  -2  13  180.13    9.43
  -8   2 -13    8.69    3.71
   8  -2  13    6.94    3.37
  -7   2 -13  323.35   14.75
   7  -2  13  287.11   12.46
  -6   2 -13    1.08    3.37
   6  -2  13    5.46    3.37
  -5   2 -13   46.95    4.58
   5  -2  13   57.19    4.85
  -4   2 -13   16.17    3.17
   4  -2  13   17.78    3.03
  -3   2 -13   71.14    4.92
   3  -2  13   68.44    5.12
  -2   2 -13  111.15    5.86
   2  -2  13  113.44    6.60
  -1   2 -13  266.96   10.64
   1  -2  13  276.66   12.80
   0   2 -13   -0.47    2.29
   0  -2  13    0.07    2.02
   1   2 -13  241.30    9.09
  -1  -2  13  277.74   11.52
   2   2 -13   91.68    6.74
  -2  -2  13   97.34    5.39
   3   2 -13   56.86    4.11
  -3  -2  13   66.22    4.11
   4   2 -13   13.20    2.49
  -4  -2  13   12.80    2.69
   5   2 -13   31.46    3.23
  -5  -2  13   48.50    4.24
   6   2 -13    3.03    2.49
  -6  -2  13    3.23    2.16
   7   2 -13  189.90    8.76
  -7  -2  13  196.84   12.87
   8   2 -13    3.30    3.30
  -8  -2  13    5.52    3.84
   9   2 -13   81.98    6.06
  -9  -2  13   88.85    6.13
  10   2 -13   18.19    3.23
 -10  -2  13   16.57    3.71
  11   2 -13   17.04    3.17
 -11  -2  13   23.44    4.65
  12   2 -13    4.18    2.56
 -12  -2  13    2.63    2.69
 -12   2 -12   49.65    6.60
  12  -2  12   52.61    5.32
 -11   2 -12   13.67    4.11
  11  -2  12   13.14    3.84
 -10   2 -12  207.48   10.51
  10  -2  12  217.38   10.17
  -9   2 -12   46.95    4.78
   9  -2  12   39.34    6.67
  -8   2 -12  316.07   13.00
   8  -2  12  286.03   12.60
  -7   2 -12   10.58    4.11
   7  -2  12   16.30    3.30
  -6   2 -12   56.59    5.66
   6  -2  12   63.93    5.59
  -5   2 -12   14.95    4.04
   5  -2  12   11.72    4.65
  -4   2 -12  141.53    8.49
   4  -2  12  138.84    7.75
  -3   2 -12   21.76    3.50
   3  -2  12   21.08    3.17
  -2   2 -12  162.62    7.34
   2  -2  12  155.27    7.54
  -1   2 -12  170.36    7.95
   1  -2  12  172.38    8.08
   0   2 -12  342.41   12.06
   0  -2  12  308.60   11.65
   1   2 -12  151.70    5.59
  -1  -2  12  161.27    7.28
   2   2 -12  119.50    7.21
  -2  -2  12  137.76    6.74
   3   2 -12   19.06    3.10
  -3  -2  12   19.06    2.76
   4   2 -12   98.22    5.46
  -4  -2  12  123.41    6.47
   5   2 -12    8.35    3.10
  -5  -2  12   10.17    3.03
   6   2 -12   35.50    3.77
  -6  -2  12   46.28    4.18
   7   2 -12    8.08    3.57
  -7  -2  12   10.71    3.17
   8   2 -12  196.43   12.06
  -8  -2  12  190.24   15.43
   9   2 -12   23.04    3.77
  -9  -2  12   26.88    3.23
  10   2 -12   97.68    7.54
 -10  -2  12  109.06    6.40
  11   2 -12    3.91    2.83
 -11  -2  12    4.18    3.03
  12   2 -12   22.63    3.30
 -12  -2  12   23.04    3.23
  13   2 -12    2.29    3.30
 -13  -2  12    2.09    4.72
  14   2 -12    7.68    2.43
 -14  -2  12    4.98    2.90
 -13   2 -11   73.83    8.76
 -12   2 -11    6.53    3.77
  12  -2  11    5.59    3.57
 -11   2 -11  191.52   10.31
  11  -2  11  203.37   10.64
 -10   2 -11   11.79    4.58
  10  -2  11   13.20    3.91
  -9   2 -11  377.91   14.28
   9  -2  11  393.61   14.55
  -8   2 -11   83.53    6.20
   8  -2  11   77.47    5.52
  -7   2 -11   33.08    4.18
   7  -2  11   33.61    3.50
  -6   2 -11    6.33    2.43
   6  -2  11    7.95    2.56
  -5   2 -11  258.07   11.59
   5  -2  11  250.12   11.32
  -4   2 -11   -1.35    2.56
   4  -2  11   -1.15    3.30
  -3   2 -11  271.48   10.85
   3  -2  11  277.74   11.12
  -2   2 -11   29.57    2.63
   2  -2  11   27.08    2.83
  -1   2 -11  259.02   10.51
   1  -2  11  245.68    9.23
   0   2 -11    0.27    1.89
   0  -2  11   -1.28    1.68
   1   2 -11  241.77    8.82
  -1  -2  11  218.46    8.49
   2   2 -11   23.78    3.03
  -2  -2  11   18.93    2.83
   3   2 -11  223.51   10.31
  -3  -2  11  229.17   10.64
   4   2 -11   -0.07    2.16
  -4  -2  11   -0.13    2.09
   5   2 -11  167.47    8.56
  -5  -2  11  188.75    7.68
   6   2 -11    5.73    2.90
  -6  -2  11    3.77    2.90
   7   2 -11   22.84    3.37
  -7  -2  11   23.38    4.24
   8   2 -11   53.62    3.97
  -8  -2  11   49.78    3.91
   9   2 -11  225.60   14.15
  -9  -2  11  240.62   10.17
  10   2 -11   10.71    3.10
 -10  -2  11    6.87    2.36
  11   2 -11   99.97    5.93
 -11  -2  11  104.95    6.47
  12   2 -11    0.20    2.56
 -12  -2  11    0.13    2.43
  13   2 -11   33.68    4.24
 -13  -2  11   39.81    6.67
  14   2 -11    9.03    2.43
 -14  -2  11    8.02    3.23
  15   2 -11    1.48    2.69
 -15  -2  11   12.40    3.23
  14  -2  10   70.13    6.26
 -13   2 -10    9.16    7.68
  13  -2  10    0.13    4.58
 -12   2 -10  122.67   12.53
  12  -2  10  143.42    8.02
 -11   2 -10    0.20    3.44
  11  -2  10   -0.20    2.69
 -10   2 -10  389.70   16.77
  10  -2  10  362.35   15.36
  -9   2 -10   38.94    4.24
   9  -2  10   41.97    3.91
  -8   2 -10  134.86    7.14
   8  -2  10  159.92    8.56
  -7   2 -10   77.40    4.78
   7  -2  10   74.30    4.72
  -6   2 -10  202.09    9.43
   6  -2  10  215.63    8.08
  -5   2 -10    3.77    2.29
   5  -2  10    5.66    2.09
  -4   2 -10  261.58   10.64
   4  -2  10  276.53   10.98
  -3   2 -10    3.17    1.82
   3  -2  10    4.58    1.95
  -2   2 -10  366.26   16.64
   2  -2  10  350.63   12.33
  -1   2 -10  169.15    7.48
   1  -2  10  161.14    8.08
   0   2 -10  159.38    6.33
   0  -2  10  149.35    6.20
   1   2 -10  153.12    9.30
  -1  -2  10  147.46    6.40
   2   2 -10  311.22   11.45
  -2  -2  10  282.32   12.33
   3   2 -10    6.94    3.23
  -3  -2  10    6.67    3.03
   4   2 -10  179.59    9.90
  -4  -2  10  174.94    8.08
   5   2 -10    1.35    2.09
  -5  -2  10    1.41    2.22
   6   2 -10  135.67    7.41
  -6  -2  10  147.39    6.53
   7   2 -10   40.35    3.03
  -7  -2  10   50.93    3.23
   8   2 -10   87.44    4.65
  -8  -2  10  103.27    5.59
   9   2 -10   23.51    3.17
  -9  -2  10   22.23    3.23
  10   2 -10  246.49    9.30
 -10  -2  10  248.57   12.33
  11   2 -10   -1.75    3.71
 -11  -2  10   -0.47    2.63
  12   2 -10   65.81    4.51
 -12  -2  10   76.05    4.92
  13   2 -10    3.17    3.44
 -13  -2  10    2.16    3.50
  14   2 -10   30.25    3.57
 -14  -2  10   35.64    3.91
  15   2 -10   10.51    3.23
 -15  -2  10   15.63    3.77
  16   2 -10   14.01    3.44
 -16  -2  10   20.28    3.64
 -15   2  -9  118.76    7.88
  15  -2   9  134.19    8.22
 -14   2  -9   12.33    4.51
  14  -2   9   16.44    3.50
 -13   2  -9  100.17    6.80
  13  -2   9   89.32    6.94
 -12   2  -9   23.38    3.84
  12  -2   9   22.10    3.44
 -11   2  -9  260.43   13.88
  11  -2   9  260.77   10.64
 -10   2  -9   21.69    3.10
  10  -2   9   22.90    3.44
  -9   2  -9  215.03    9.16
   9  -2   9  206.74    7.68
  -8   2  -9   25.73    3.84
   8  -2   9   26.34    3.84
  -7   2  -9  555.35   19.13
   7  -2   9  530.36   19.00
  -6   2  -9   15.97    2.49
   6  -2   9   13.67    2.29
  -5   2  -9  217.65    9.63
   5  -2   9  225.54    8.69
  -4   2  -9    5.39    2.49
   4  -2   9    5.59    2.29
  -3   2  -9  432.75   13.67
   3  -2   9  457.07   16.17
  -2   2  -9   39.61    3.23
   2  -2   9   40.89    4.18
  -1   2  -9  578.86   26.14
   1  -2   9  538.24   16.57
   0   2  -9   -0.47    1.95
   0  -2   9    0.81    1.55
   1   2  -9  546.39   19.33
  -1  -2   9  502.47   19.54
   2   2  -9   42.30    3.50
  -2  -2   9   35.77    3.57
   3   2  -9  337.90   12.53
  -3  -2   9  346.59   13.94
   4   2  -9    5.79    2.56
  -4  -2   9    3.44    2.43
   5   2  -9  166.86    7.61
  -5  -2   9  151.64    7.28
   6   2  -9   10.37    1.82
  -6  -2   9    7.07    1.82
   7   2  -9  362.69   11.99
  -7  -2   9  364.91   13.81
   8   2  -9   14.75    2.69
  -8  -2   9   19.81    3.57
   9   2  -9  130.35    5.73
  -9  -2   9  138.84    6.47
  10   2  -9   14.21    2.29
 -10  -2   9   15.70    2.69
  11   2  -9  174.54   11.12
 -11  -2   9  168.81    8.56
  12   2  -9   13.88    2.49
 -12  -2   9   16.17    2.83
  13   2  -9   52.48    3.97
 -13  -2   9   52.75    4.85
  14   2  -9    9.90    2.69
 -14  -2   9    8.49    2.90
  15   2  -9   62.99    4.78
 -15  -2   9   68.91    5.86
  16   2  -9    2.16    2.83
 -16  -2   9    1.89    2.69
  17   2  -9   22.57    4.72
 -17  -2   9   20.88    4.24
 -16   2  -8  130.28   16.44
  16  -2   8  127.25   10.91
 -15   2  -8   34.02    4.98
  15  -2   8   34.15    4.18
 -14   2  -8   67.23    6.60
  14  -2   8   76.53    6.06
 -13   2  -8   27.22    3.77
  13  -2   8   22.50    3.64
 -12   2  -8  158.91    8.08
  12  -2   8  161.00    8.62
 -11   2  -8   37.66    4.65
  11  -2   8   33.95    3.97
 -10   2  -8  193.27    9.50
  10  -2   8  217.11   14.35
  -9   2  -8    7.01    4.11
   9  -2   8    5.79    2.36
  -8   2  -8  523.55   19.67
   8  -2   8  490.28   17.38
  -7   2  -8  100.78    4.98
   7  -2   8  108.12    5.73
  -6   2  -8  317.89   12.33
   6  -2   8  320.38   12.60
  -5   2  -8   43.72    3.71
   5  -2   8   44.86    3.30
  -4   2  -8  146.05    6.13
   4  -2   8  155.21    6.67
  -3   2  -8   66.22    3.91
   3  -2   8   62.85    3.71
  -2   2  -8  362.62   16.98
   2  -2   8  360.26   16.44
  -1   2  -8   24.05    2.22
   1  -2   8   23.17    2.22
   0   2  -8  671.01   19.54
   0  -2   8  609.78   19.00
   1   2  -8   26.81    2.22
  -1  -2   8   24.45    2.16
   2   2  -8  363.90   12.40
  -2  -2   8  343.62   11.45
   3   2  -8   56.38    3.84
  -3  -2   8   57.26    3.30
   4   2  -8  118.29    5.05
  -4  -2   8  120.11    5.32
   5   2  -8   29.10    2.36
  -5  -2   8   33.61    2.29
   6   2  -8  209.10   11.72
  -6  -2   8  215.90    9.70
   7   2  -8   76.26    4.45
  -7  -2   8   64.33    5.79
   8   2  -8  308.60   12.46
  -8  -2   8  279.02   15.16
   9   2  -8    3.84    3.37
  -9  -2   8    6.20    3.23
  10   2  -8  122.13    7.81
 -10  -2   8  141.67    6.26
  11   2  -8   20.55    2.69
 -11  -2   8   24.32    2.69
  12   2  -8  106.10    6.53
 -12  -2   8   96.06    6.80
  13   2  -8   11.79    3.03
 -13  -2   8   15.02    3.10
  14   2  -8   37.39    3.84
 -14  -2   8   49.24    4.65
  15   2  -8   16.30    3.23
 -15  -2   8   16.91    3.10
  16   2  -8   72.82    4.98
 -16  -2   8   67.16    5.86
  17   2  -8    0.88    3.77
 -17  -2   8   -2.36    4.51
  18   2  -8   32.87    4.11
 -18  -2   8   36.24    6.60
 -16   2  -7   11.18    5.05
  16  -2   7   23.17    5.19
 -15   2  -7   82.93    6.60
  15  -2   7   67.97    5.19
 -14   2  -7    9.36    3.91
  14  -2   7   12.80    3.71
 -13   2  -7  153.93    8.35
  13  -2   7  136.41    7.68
 -12   2  -7   32.20    3.97
  12  -2   7   33.75    4.11
 -11   2  -7  249.25   11.59
  11  -2   7  243.39   10.91
 -10   2  -7   60.63    4.18
  10  -2   7   67.36    4.58
  -9   2  -7  590.31   21.76
   9  -2   7  595.03   20.48
  -8   2  -7  258.88   11.92
   8  -2   7  242.85   14.42
  -7   2  -7  493.31   22.63
   7  -2   7  489.60   16.10
  -6   2  -7    6.53    2.43
   6  -2   7    9.36    2.56
  -5   2  -7  355.35   16.23
   5  -2   7  321.87   10.78
  -4   2  -7   13.67    2.69
   4  -2   7   12.06    2.56
  -3   2  -7  498.09   15.43
   3  -2   7  425.47   14.42
  -2   2  -7   59.08    3.30
   2  -2   7   56.18    3.23
  -1   2  -7 1081.46   31.12
   1  -2   7 1027.51   29.57
   0   2  -7    0.40    1.48
   0  -2   7    3.03    1.95
   1   2  -7  993.02   27.75
  -1  -2   7  967.89   28.16
   2   2  -7   58.54    2.96
  -2  -2   7   55.24    3.23
   3   2  -7  497.55   16.57
  -3  -2   7  437.93   14.08
   4   2  -7   11.05    1.62
  -4  -2   7   12.60    1.55
   5   2  -7  312.77   10.31
  -5  -2   7  277.94   14.42
   6   2  -7    6.33    1.89
  -6  -2   7    8.42    1.95
   7   2  -7  360.74   11.18
  -7  -2   7  337.36   12.13
   8   2  -7  167.40    7.28
  -8  -2   7  155.81   11.12
   9   2  -7  383.71   12.13
  -9  -2   7  364.91   14.42
  10   2  -7   43.25    3.71
 -10  -2   7   45.74    3.50
  11   2  -7  154.67    6.47
 -11  -2   7  156.15    7.61
  12   2  -7   23.17    2.76
 -12  -2   7   22.97    2.90
  13   2  -7  106.57    6.80
 -13  -2   7  101.99    8.42
  14   2  -7    9.16    2.90
 -14  -2   7    5.59    2.56
  15   2  -7   37.32    3.50
 -15  -2   7   46.68    4.58
  16   2  -7   12.53    3.44
 -16  -2   7   14.62    4.51
  17   2  -7  113.37    6.67
 -17  -2   7   99.36    6.87
  18   2  -7    5.46    3.57
 -18  -2   7    1.01    4.11
 -17   2  -6   52.14    9.03
  17  -2   6   56.79    5.46
 -16   2  -6  113.64    7.41
  16  -2   6  131.29    8.02
 -15   2  -6   91.68    7.34
  15  -2   6   88.65    6.47
 -14   2  -6  147.12   12.26
  14  -2   6  126.91    7.54
 -13   2  -6   26.00    4.31
  13  -2   6   19.81    3.50
 -12   2  -6  200.61   10.44
  12  -2   6  190.37    7.88
 -11   2  -6    6.26    2.76
  11  -2   6    3.44    2.22
 -10   2  -6  433.08   17.04
  10  -2   6  446.15   16.37
  -9   2  -6  109.67    5.46
   9  -2   6  103.61    5.79
  -8   2  -6  997.87   31.19
   8  -2   6 1027.37   32.54
  -7   2  -6  131.36    5.73
   7  -2   6  126.64    5.73
  -6   2  -6  336.42   19.94
   6  -2   6  324.43   16.98
  -5   2  -6   88.38    4.65
   5  -2   6   92.09    4.58
  -4   2  -6  720.46   23.64
   4  -2   6  641.85   19.87
  -3   2  -6   80.30    4.65
   3  -2   6   72.75    3.50
  -2   2  -6  540.26   17.04
   2  -2   6  511.02   15.43
  -1   2  -6  180.54    6.94
   1  -2   6  165.04    6.26
   0   2  -6 3401.35   89.06
   0  -2   6 3469.46   87.30
   1   2  -6  176.02    6.47
  -1  -2   6  162.75    6.26
   2   2  -6  538.78   18.19
  -2  -2   6  513.99   16.98
   3   2  -6   76.66    3.71
  -3  -2   6   73.90    3.44
   4   2  -6  703.42   21.62
  -4  -2   6  586.54   24.92
   5   2  -6   91.41    5.39
  -5  -2   6   84.07    3.84
   6   2  -6  302.20   10.31
  -6  -2   6  285.29   14.35
   7   2  -6  109.40    4.51
  -7  -2   6  103.27    4.45
   8   2  -6  765.19   21.83
  -8  -2   6  772.87   26.61
   9   2  -6   71.68    4.45
  -9  -2   6   68.78    3.57
  10   2  -6  296.13   12.80
 -10  -2   6  300.24   16.84
  11   2  -6    4.51    2.16
 -11  -2   6    6.53    2.09
  12   2  -6  133.38    5.86
 -12  -2   6  147.46    6.13
  13   2  -6   20.14    3.03
 -13  -2   6   19.54    3.10
  14   2  -6   84.34    5.32
 -14  -2   6   94.18    7.14
  15   2  -6   66.08    4.85
 -15  -2   6   65.48    4.72
  16   2  -6   78.08    4.98
 -16  -2   6   88.92    6.47
  17   2  -6   55.51    5.05
 -17  -2   6   51.87    5.39
  18   2  -6   65.48    5.19
 -18  -2   6   62.99    8.56
 -19  -2   6    1.62    5.39
 -18   2  -5   35.97    9.03
 -17   2  -5   51.67    6.47
  17  -2   5   66.83    6.80
 -16   2  -5    9.16    3.84
  16  -2   5    5.73    3.44
 -15   2  -5  230.25   11.99
  15  -2   5  214.82   10.71
 -14   2  -5   75.38    5.86
  14  -2   5   72.42    5.39
 -13   2  -5  212.80   10.04
  13  -2   5  190.30    8.35
 -12   2  -5    7.34    2.69
  12  -2   5    8.89    2.36
 -11   2  -5  191.38    8.76
  11  -2   5  185.66    7.81
 -10   2  -5  169.15    7.81
  10  -2   5  154.47    7.34
  -9   2  -5  661.11   21.83
   9  -2   5  698.23   22.36
  -8   2  -5  271.81   10.17
   8  -2   5  271.28    9.43
  -7   2  -5  556.70   23.24
   7  -2   5  521.40   20.95
  -6   2  -5  266.02    9.23
   6  -2   5  278.42   10.51
  -5   2  -5  981.43   26.88
   5  -2   5  866.84   24.92
  -4   2  -5    8.29    2.22
   4  -2   5    6.74    1.89
  -3   2  -5  698.16   20.68
   3  -2   5  595.16   18.39
  -2   2  -5   40.35    2.69
   2  -2   5   44.12    2.76
  -1   2  -5 1893.20   49.92
   1  -2   5 1951.07   52.54
   0   2  -5   -2.36    2.02
   0  -2   5   -1.35    1.21
   1   2  -5 1834.60   72.96
  -1  -2   5 1895.96   51.67
   2   2  -5   41.97    2.49
  -2  -2   5   42.37    2.90
   3   2  -5  694.39   20.95
  -3  -2   5  551.85   16.71
   4   2  -5   10.17    1.35
  -4  -2   5    7.28    1.41
   5   2  -5  904.16   26.07
  -5  -2   5  772.26   23.78
   6   2  -5  265.89    9.30
  -6  -2   5  249.31    8.22
   7   2  -5  530.63   16.64
  -7  -2   5  536.08   16.84
   8   2  -5  224.12    7.48
  -8  -2   5  219.81    8.69
   9   2  -5  547.06   17.04
  -9  -2   5  527.26   17.72
  10   2  -5  117.48    5.59
 -10  -2   5  117.82    6.13
  11   2  -5  155.54    6.60
 -11  -2   5  144.63    6.47
  12   2  -5    5.79    2.76
 -12  -2   5    4.98    2.83
  13   2  -5  150.36    6.47
 -13  -2   5  152.71    8.02
  14   2  -5   54.90    4.24
 -14  -2   5   58.74    4.65
  15   2  -5  180.40    8.96
 -15  -2   5  191.85    9.50
  16   2  -5    8.42    5.73
 -16  -2   5    6.87    5.86
  17   2  -5   35.16    4.45
 -17  -2   5   48.37    5.25
  18   2  -5   36.24    4.85
 -18  -2   5   37.25    6.47
  19   2  -5   41.02    4.85
 -19  -2   5   52.95    6.40
 -18   2  -4   57.80    6.33
  18  -2   4   62.11    5.79
 -17   2  -4   36.71    4.92
  17  -2   4   33.88    4.45
 -16   2  -4  110.75    6.40
  16  -2   4  113.24    7.75
 -15   2  -4   62.11    4.85
  15  -2   4   60.49    4.85
 -14   2  -4  395.76   13.61
  14  -2   4  381.21   14.28
 -13   2  -4  164.23   10.98
  13  -2   4  170.97    8.02
 -12   2  -4  220.82   10.85
  12  -2   4  224.52    8.76
 -11   2  -4  216.98    8.69
  11  -2   4  193.47    7.88
 -10   2  -4  503.28   15.29
  10  -2   4  570.37   18.66
  -9   2  -4   94.71    4.98
   9  -2   4   96.87    4.31
  -8   2  -4  383.64   17.51
   8  -2   4  426.28   19.67
  -7   2  -4  449.72   14.55
   7  -2   4  445.68   14.48
  -6   2  -4 1094.74   32.33
   6  -2   4 1087.33   30.58
  -5   2  -4  397.72   13.14
   5  -2   4  375.42   11.72
  -4   2  -4  830.33   24.92
   4  -2   4  745.18   21.22
  -3   2  -4    6.06    1.55
   3  -2   4    5.12    1.62
  -2   2  -4 1957.00   73.43
   2  -2   4 1988.73   76.26
  -1   2  -4  206.94    7.68
   1  -2   4  199.60    7.48
   0   2  -4  682.80   20.41
   0  -2   4  724.97   20.48
   1   2  -4  195.42    7.21
  -1  -2   4  194.28    7.28
   2   2  -4 1986.44   53.42
  -2  -2   4 1979.36   51.80
   3   2  -4    5.05    1.68
  -3  -2   4    4.72    1.21
   4   2  -4  809.85   23.71
  -4  -2   4  729.96   22.10
   5   2  -4  392.33   12.40
  -5  -2   4  367.07   12.80
   6   2  -4 1103.09   32.94
  -6  -2   4 1020.43   28.16
   7   2  -4  441.84   13.74
  -7  -2   4  429.92   13.94
   8   2  -4  377.44   11.52
  -8  -2   4  395.97   12.87
   9   2  -4   81.38    4.65
  -9  -2   4   85.35    6.47
  10   2  -4  434.50   14.62
 -10  -2   4  475.52   17.18
  11   2  -4  185.45    6.94
 -11  -2   4  178.04    7.14
  12   2  -4  192.06    6.80
 -12  -2   4  186.33    8.08
  13   2  -4  131.70    6.33
 -13  -2   4  126.31    6.20
  14   2  -4  325.10   11.92
 -14  -2   4  307.92   11.12
  15   2  -4   52.27    4.51
 -15  -2   4   54.43    4.24
  16   2  -4   92.83    5.73
 -16  -2   4  105.16    6.67
  17   2  -4   24.59    3.71
 -17  -2   4   23.38    3.64
  18   2  -4   40.22    5.12
 -18  -2   4   62.99    6.13
  19   2  -4   23.91    4.18
 -19  -2   4   21.42    4.24
 -19   2  -3   21.69    9.84
 -18   2  -3   35.84    5.12
  18  -2   3   26.34    4.72
 -17   2  -3   98.01    7.28
  17  -2   3   98.28    6.94
 -16   2  -3   18.59    4.24
  16  -2   3   23.78    3.64
 -15   2  -3  126.17    7.07
  15  -2   3  114.52    6.67
 -14   2  -3   28.70    4.04
  14  -2   3   20.14    3.97
 -13   2  -3  397.92   16.23
  13  -2   3  378.52   15.97
 -12   2  -3  181.95    7.75
  12  -2   3  195.22    8.29
 -11   2  -3  498.02   15.83
  11  -2   3  509.07   18.53
 -10   2  -3   68.85    4.11
  10  -2   3   72.08    4.04
  -9   2  -3  186.40    9.09
   9  -2   3  208.16    8.82
  -8   2  -3   21.76    1.95
   8  -2   3   18.26    2.09
  -7   2  -3  480.10   15.49
   7  -2   3  434.43   12.87
  -6   2  -3  534.80   16.91
   6  -2   3  518.91   15.56
  -5   2  -3 1336.84   37.19
   5  -2   3 1262.07   36.65
  -4   2  -3  877.62   26.81
   4  -2   3  892.10   26.07
  -3   2  -3 2830.85   72.21
   3  -2   3 2856.85   74.44
  -2   2  -3  162.21    6.13
   2  -2   3  164.50    6.40
  -1   2  -3  686.91   30.85
   1  -2   3  652.22   27.75
   0   2  -3   -0.40    1.55
   0  -2   3    0.88    0.81
   1   2  -3  705.03   21.56
  -1  -2   3  603.72   17.92
   2   2  -3  162.48    6.06
  -2  -2   3  156.08    5.93
   3   2  -3 2810.43   72.62
  -3  -2   3 2856.44   74.30
   4   2  -3  895.07   25.94
  -4  -2   3  868.39   24.99
   5   2  -3 1314.68   34.49
  -5  -2   3 1216.66   34.49
   6   2  -3  512.30   16.17
  -6  -2   3  513.32   15.90
   7   2  -3  490.88   15.43
  -7  -2   3  464.54   13.94
   8   2  -3   17.99    2.02
  -8  -2   3   19.67    2.22
   9   2  -3  200.54    8.15
  -9  -2   3  179.32   11.45
  10   2  -3   61.77    3.77
 -10  -2   3   59.42    4.04
  11   2  -3  468.92   15.70
 -11  -2   3  474.92   15.43
  12   2  -3  167.00    6.53
 -12  -2   3  168.55    7.21
  13   2  -3  379.60   12.80
 -13  -2   3  327.46   13.14
  14   2  -3   23.58    3.30
 -14  -2   3   23.31    3.57
  15   2  -3  124.56    6.33
 -15  -2   3  113.17   10.64
  16   2  -3   20.82    4.45
 -16  -2   3   23.11    4.65
  17   2  -3   88.92    6.47
 -17  -2   3  100.37    6.94
  18   2  -3   25.73    4.72
 -18  -2   3   39.07    5.25
  19   2  -3   30.25    5.46
 -19  -2   3   45.94    6.60
 -19   2  -2   17.45    6.26
  19  -2   2   19.94    3.57
 -18   2  -2   60.29    6.06
  18  -2   2   64.53    5.52
 -17   2  -2    8.89    3.97
  17  -2   2    6.06    3.10
 -16   2  -2  138.43    9.30
  16  -2   2  136.48    9.90
 -15   2  -2   -3.23    3.23
  15  -2   2    2.09    2.63
 -14   2  -2  153.52    7.48
  14  -2   2  155.54    9.50
 -13   2  -2  218.33    8.89
  13  -2   2  224.52    9.23
 -12   2  -2  642.99   20.28
  12  -2   2  645.42   18.93
 -11   2  -2  174.88    6.80
  11  -2   2  183.43    7.07
 -10   2  -2  278.28   11.25
  10  -2   2  276.46    9.77
  -9   2  -2    3.23    1.48
   9  -2   2    1.08    1.35
  -8   2  -2  305.09    9.70
   8  -2   2  314.25   10.58
  -7   2  -2  123.48    4.78
   7  -2   2  126.04    4.98
  -6   2  -2  823.19   23.98
   6  -2   2  804.40   23.31
  -5   2  -2  219.41    8.35
   5  -2   2  204.85    8.08
  -4   2  -2 4152.33  106.03
   4  -2   2 4341.76  108.25
  -3   2  -2  131.36    4.98
   3  -2   2  139.58    5.52
  -2   2  -2  946.20   27.62
   2  -2   2  893.38   25.40
  -1   2  -2  141.26    5.39
   1  -2   2  136.08    5.12
   0   2  -2   58.61    2.76
   0  -2   2   97.75    3.64
   1   2  -2  145.37    8.42
  -1  -2   2  141.87    7.48
   2   2  -2  929.49   27.28
  -2  -2   2  895.07   26.00
   3   2  -2  138.97    5.52
  -3  -2   2  136.08    4.92
   4   2  -2 4304.17  107.72
  -4  -2   2 4231.35  105.69
   5   2  -2  216.91    8.15
  -5  -2   2  216.37    7.88
   6   2  -2  841.18   27.82
  -6  -2   2  799.95   23.85
   7   2  -2  137.09    8.62
  -7  -2   2  131.29    5.25
   8   2  -2  309.40   10.17
  -8  -2   2  322.34   10.44
   9   2  -2    1.01    2.16
  -9  -2   2    3.84    3.10
  10   2  -2  288.12    9.63
 -10  -2   2  289.67   10.51
  11   2  -2  190.37    6.60
 -11  -2   2  186.46    7.34
  12   2  -2  689.88   21.22
 -12  -2   2  649.93   32.20
  13   2  -2  242.71    9.63
 -13  -2   2  230.52   10.91
  14   2  -2  159.11    7.28
 -14  -2   2  156.28    9.16
  15   2  -2    1.41    2.56
 -15  -2   2    2.36    2.83
  16   2  -2  142.74    7.14
 -16  -2   2  150.29    7.68
  17   2  -2    8.62    3.84
 -17  -2   2    6.60    4.04
  18   2  -2   51.60    4.78
 -18  -2   2   72.96    6.06
  19   2  -2   21.35    4.45
 -19  -2   2   17.99    6.33
 -19   2  -1   54.97    6.20
  19  -2   1   54.70    4.45
 -18   2  -1    8.49    3.57
  18  -2   1    7.34    3.30
 -17   2  -1   55.58    7.41
  17  -2   1   62.04    6.13
 -16   2  -1    5.59    3.17
  16  -2   1    3.97    2.96
 -15   2  -1  177.64    9.63
  15  -2   1  170.97    9.23
 -14   2  -1   59.68    4.92
  14  -2   1   57.87    4.78
 -13   2  -1  275.05   11.59
  13  -2   1  287.65   10.71
 -12   2  -1   45.88    3.57
  12  -2   1   40.01    3.84
 -11   2  -1  251.20    9.97
  11  -2   1  235.84    8.96
 -10   2  -1   19.60    2.22
  10  -2   1   19.54    1.82
  -9   2  -1  168.28    9.50
   9  -2   1  188.01    7.07
  -8   2  -1   41.50    2.36
   8  -2   1   38.46    2.49
  -7   2  -1  497.62   15.90
   7  -2   1  466.56   14.95
  -6   2  -1   79.36    3.57
   6  -2   1   77.74    3.57
  -5   2  -1 1416.87   41.90
   5  -2   1 1478.24   41.09
  -4   2  -1   67.84    3.23
   4  -2   1   63.73    3.23
  -3   2  -1 1352.07   37.39
   3  -2   1 1283.83   34.29
  -2   2  -1  509.00   16.37
   2  -2   1  527.66   14.75
  -1   2  -1  620.09   19.06
   1  -2   1  572.06   17.92
   0   2  -1    0.07    0.74
   0  -2   1   -0.81    1.21
   1   2  -1  635.65   19.13
  -1  -2   1  581.55   16.64
   2   2  -1  524.03   25.40
  -2  -2   1  552.66   23.38
   3   2  -1 1368.97   57.19
  -3  -2   1 1351.66   51.74
   4   2  -1   68.64    3.17
  -4  -2   1   62.45    2.90
   5   2  -1 1551.26   64.67
  -5  -2   1 1552.07   42.10
   6   2  -1   90.00    3.84
  -6  -2   1   80.97    3.50
   7   2  -1  531.71   16.77
  -7  -2   1  503.95   15.29
   8   2  -1   40.28    2.63
  -8  -2   1   43.92    3.17
   9   2  -1  194.62    8.02
  -9  -2   1  196.91   13.54
  10   2  -1   19.81    2.29
 -10  -2   1   14.48    2.76
  11   2  -1  337.97   12.19
 -11  -2   1  286.16   14.82
  12   2  -1   56.18    3.97
 -12  -2   1   57.66    4.04
  13   2  -1  347.94   13.88
 -13  -2   1  361.48   13.67
  14   2  -1   66.08    4.38
 -14  -2   1   75.52    4.85
  15   2  -1  183.97    7.61
 -15  -2   1  195.15   10.44
  16   2  -1    5.52    2.76
 -16  -2   1    5.05    3.10
  17   2  -1   65.07    5.12
 -17  -2   1   74.77    5.39
  18   2  -1    6.06    4.38
 -18  -2   1    7.81    5.73
  19   2  -1   70.80    6.06
 -19  -2   1   55.44    7.88
 -20   2   0   22.16    7.21
  20  -2   0   32.13    6.47
 -19   2   0   -1.55    3.64
  19  -2   0   -0.40    3.37
 -18   2   0   72.62    6.53
  18  -2   0   83.67    6.47
 -17   2   0    2.43    4.04
  17  -2   0    0.74    2.76
 -16   2   0   84.07    7.68
  16  -2   0   93.77    6.13
 -15   2   0    3.77    2.36
  15  -2   0    6.74    2.29
 -14   2   0  427.02   16.10
  14  -2   0  456.19   16.84
 -13   2   0    7.14    2.16
  13  -2   0    4.51    2.29
 -12   2   0  221.56    8.56
  12  -2   0  201.69    8.62
 -11   2   0   25.94    2.63
  11  -2   0   36.85    3.10
 -10   2   0  326.24   11.05
  10  -2   0  341.13   11.65
  -9   2   0   19.00    1.68
   9  -2   0   16.50    1.68
  -8   2   0  639.15   20.82
   8  -2   0  664.55   19.81
  -7   2   0  129.68    5.73
   7  -2   0  128.06    4.92
  -6   2   0 2076.64   57.93
   6  -2   0 2248.08   59.68
  -5   2   0  448.91   16.10
   5  -2   0  424.87   19.47
  -4   2   0 1970.74   53.08
   4  -2   0 1970.40   52.14
  -3   2   0  147.86    5.79
   3  -2   0  148.13    5.05
  -2   2   0 1576.52   45.00
   2  -2   0 1583.66   41.77
  -1   2   0  382.83   19.81
   1  -2   0  386.13   10.85
   0   2   0 2257.51   60.83
   0  -2   0 2163.60   57.19
   1   2   0  402.10   17.11
  -1  -2   0  399.33   12.40
   2   2   0 1622.87   45.34
  -2  -2   0 1672.38   43.99
   3   2   0  154.47    6.06
  -3  -2   0  152.38    5.59
   4   2   0 2088.16   75.65
  -4  -2   0 1997.82   73.22
   5   2   0  476.00   22.23
  -5  -2   0  471.01   22.03
   6   2   0 2322.25   60.63
  -6  -2   0 2288.97   60.16
   7   2   0  140.59    5.12
  -7  -2   0  134.46    5.39
   8   2   0  717.56   21.69
  -8  -2   0  665.56   20.61
   9   2   0   20.41    3.57
  -9  -2   0   18.39    2.49
  10   2   0  397.52   16.98
 -10  -2   0  403.04   14.89
  11   2   0   50.66    3.71
 -11  -2   0   47.56    3.57
  12   2   0  294.52   11.18
 -12  -2   0  285.35   10.85
  13   2   0    5.93    2.83
 -13  -2   0    5.46    3.17
  14   2   0  553.13   19.94
 -14  -2   0  556.83   18.39
  15   2   0    3.77    2.76
 -15  -2   0    3.37    2.63
  16   2   0  120.11    7.54
 -16  -2   0   96.94    9.23
  17   2   0    1.68    3.64
 -17  -2   0    4.72    4.18
  18   2   0  102.06    7.81
 -18  -2   0  101.05    8.56
 -20   2   1    0.74    6.47
  20  -2  -1    1.01    3.71
 -19   2   1   50.12    4.78
  19  -2  -1   48.03    4.51
 -18   2   1    3.64    3.17
  18  -2  -1    5.19    2.83
 -17   2   1   48.84    3.97
  17  -2  -1   57.93    4.58
 -16   2   1    4.18    2.69
  16  -2  -1    2.56    2.16
 -15   2   1  161.14    8.69
  15  -2  -1  153.39    7.34
 -14   2   1   54.70    4.72
  14  -2  -1   59.48    3.84
 -13   2   1  251.27   15.56
  13  -2  -1  245.61   10.17
 -12   2   1   28.90    4.18
  12  -2  -1   35.43    3.30
 -11   2   1  200.95   11.65
  11  -2  -1  218.19    7.81
 -10   2   1   20.34    3.03
  10  -2  -1   20.95    1.95
  -9   2   1  167.80    7.21
   9  -2  -1  175.75    6.33
  -8   2   1   35.43    2.29
   8  -2  -1   34.69    2.16
  -7   2   1  427.70   13.67
   7  -2  -1  475.59   15.76
  -6   2   1   82.39    6.06
   6  -2  -1   75.31    3.57
  -5   2   1 1417.54   38.40
   5  -2  -1 1407.17   39.00
  -4   2   1   61.23    2.90
   4  -2  -1   59.55    2.56
  -3   2   1 1261.53   48.84
   3  -2  -1 1270.02   49.98
  -2   2   1  515.27   14.55
   2  -2  -1  515.74   23.91
  -1   2   1  580.88   17.78
   1  -2  -1  618.74   19.27
   0   2   1    0.67    0.81
   0  -2  -1   -0.20    1.08
   1   2   1  603.38   25.73
  -1  -2  -1  614.43   25.60
   2   2   1  558.04   17.92
  -2  -2  -1  535.61   21.89
   3   2   1 1368.10   49.98
  -3  -2  -1 1359.41   37.05
   4   2   1   61.64    2.96
  -4  -2  -1   52.61    4.24
   5   2   1 1570.60   45.00
  -5  -2  -1 1520.95   44.12
   6   2   1   85.15    5.73
  -6  -2  -1   84.14    5.46
   7   2   1  476.60   15.63
  -7  -2  -1  508.80   15.49
   8   2   1   40.55    2.69
  -8  -2  -1   34.83    2.22
   9   2   1  217.92    9.50
  -9  -2  -1  203.57    9.50
  10   2   1   25.46    2.56
 -10  -2  -1   27.82    2.49
  11   2   1  324.63   12.13
  12   2   1   58.74    4.24
 -12  -2  -1   67.09    4.45
  13   2   1  400.41   14.01
 -13  -2  -1  383.23   13.27
  14   2   1   76.19    4.72
 -14  -2  -1   76.26    6.60
  15   2   1  202.29    8.96
 -15  -2  -1  206.67   10.17
  16   2   1   10.37    4.24
 -16  -2  -1    6.47    4.38
  17   2   1   79.29    5.19
 -17  -2  -1   84.68    6.40
  18   2   1    5.93    4.45
 -18  -2  -1   13.34    5.19
 -20   2   2   30.92    4.31
  20  -2  -2   30.79    4.04
 -19   2   2   10.58    5.32
  19  -2  -2   12.19    3.23
 -18   2   2   35.97    4.58
  18  -2  -2   35.91    3.71
 -17   2   2    8.89    5.25
  17  -2  -2    6.53    3.37
 -16   2   2  109.80    6.47
  16  -2  -2   99.90    5.39
 -15   2   2    0.00    2.63
  15  -2  -2    1.75    2.36
 -14   2   2  127.66    6.60
  14  -2  -2  126.91    6.13
 -13   2   2  173.93   13.88
  13  -2  -2  160.26    7.41
 -12   2   2  424.53   20.41
  12  -2  -2  425.94   13.54
 -11   2   2  140.66    6.06
  11  -2  -2  133.79    5.79
 -10   2   2  235.77    8.49
  10  -2  -2  226.82    7.95
  -9   2   2    1.95    1.21
   9  -2  -2    1.95    0.94
  -8   2   2  277.74   13.47
   8  -2  -2  289.19   10.04
  -7   2   2  119.10    4.85
   7  -2  -2  117.69    4.51
  -6   2   2  702.27   20.28
   6  -2  -2  740.33   21.69
  -5   2   2  195.69    8.96
   5  -2  -2  203.37    7.75
  -4   2   2 4155.56  104.75
   4  -2  -2 4082.81  100.51
  -3   2   2  121.86    4.38
   3  -2  -2  120.85    4.11
  -2   2   2  845.82   33.28
   2  -2  -2  850.20   23.31
  -1   2   2  129.81    6.13
   1  -2  -2  133.79    7.14
   0   2   2   95.39    3.97
   0  -2  -2   53.76    3.57
   1   2   2  132.44    5.66
  -1  -2  -2  128.26    4.65
   2   2   2  934.61   27.96
  -2  -2  -2  921.34   26.00
   3   2   2  137.15    5.46
  -3  -2  -2  128.60    5.52
   4   2   2 4251.76  104.95
  -4  -2  -2 4138.59  102.33
   5   2   2  224.86   10.31
  -5  -2  -2  227.89    8.15
   6   2   2  812.48   23.91
  -6  -2  -2  865.83   35.70
   7   2   2  131.29    5.25
  -7  -2  -2  135.67    5.93
   8   2   2  333.72   16.17
  -8  -2  -2  310.55   18.79
   9   2   2    1.82    1.82
  -9  -2  -2    0.94    1.95
  10   2   2  329.95   11.12
 -10  -2  -2  316.61   12.26
  11   2   2  201.62    8.82
 -11  -2  -2  210.11    9.03
  12   2   2  761.96   24.86
 -12  -2  -2  775.63   36.17
  13   2   2  279.49   12.06
 -13  -2  -2  291.89   11.59
  14   2   2  192.26    7.68
 -14  -2  -2  195.96   13.81
  15   2   2    2.29    2.76
 -15  -2  -2    2.02    2.83
  16   2   2  168.61    8.82
 -16  -2  -2  173.26   16.50
  17   2   2   11.12    3.50
 -17  -2  -2   13.41    3.77
  18   2   2   59.42    6.06
 -18  -2  -2   63.86    9.30
 -19   2   3   22.23    3.91
  19  -2  -3   19.06    3.50
 -18   2   3   22.77    3.17
  18  -2  -3   21.62    2.96
 -17   2   3   56.86    7.54
  17  -2  -3   62.65    4.58
 -16   2   3   13.34    2.83
  16  -2  -3   15.22    2.43
 -15   2   3   89.59    5.59
  15  -2  -3   88.18    4.45
 -14   2   3   17.38    2.69
  14  -2  -3   15.97    2.43
 -13   2   3  259.76   11.25
  13  -2  -3  255.85    9.09
 -12   2   3  124.02    5.86
  12  -2  -3  121.32    5.12
 -11   2   3  353.73   20.21
  11  -2  -3  348.88   10.64
 -10   2   3   53.89    3.97
  10  -2  -3   43.05    2.63
   9  -2  -3  160.53    6.67
  -8   2   3   17.99    1.48
   8  -2  -3   16.50    1.28
   7  -2  -3  424.93   13.94
  -6   2   3  457.13   14.42
   6  -2  -3  445.82   13.74
  -5   2   3 1125.25   31.05
   5  -2  -3 1164.46   31.46
   4  -2  -3  799.88   21.83
  -1   2   3  613.69   24.66
   1  -2  -3  642.38   23.98
   0   2   3    0.67    0.61
   0  -2  -3    0.61    0.47
   1   2   3  618.61   18.93
  -1  -2  -3  642.38   18.12
   2   2   3  165.85    8.96
  -2  -2  -3  160.60    6.13
   3   2   3 2874.70   76.39
  -3  -2  -3 2693.02   72.35
   4   2   3  916.09   25.87
  -4  -2  -3  847.91   25.13
   5   2   3 1272.24   35.64
  -5  -2  -3 1262.00   37.12
   6   2   3  511.29   15.49
  -6  -2  -3  496.95   22.70
   7   2   3  489.20   14.75
  -7  -2  -3  478.22   14.95
   8   2   3   20.88    2.43
  -8  -2  -3   19.13    2.29
   9   2   3  224.19    9.84
  -9  -2  -3  220.21   14.15
  10   2   3   72.35    5.32
 -10  -2  -3   66.69    4.24
  11   2   3  607.56   21.22
 -11  -2  -3  534.00   19.33
  12   2   3  200.75    8.08
 -12  -2  -3  216.31   10.51
  13   2   3  415.84   16.64
 -13  -2  -3  445.08   16.91
  14   2   3   30.31    3.50
 -14  -2  -3   28.36    3.71
  15   2   3  151.10    7.54
 -15  -2  -3  154.40   13.27
  16   2   3   20.14    3.84
 -16  -2  -3   20.88    4.04
  17   2   3  127.32    7.41
 -17  -2  -3  125.16    8.02
  18   2   3   30.58    5.46
 -18  -2  -3   39.41    5.79
 -19   2   4    8.35    3.57
  19  -2  -4    9.97    2.69
 -18   2   4   30.18    3.84
  18  -2  -4   30.18    3.37
 -17   2   4   16.03    5.19
  17  -2  -4   15.70    2.69
 -16   2   4   56.25    5.59
  16  -2  -4   59.75    4.31
 -15   2   4   30.99    4.78
  15  -2  -4   37.93    3.17
 -14   2   4  201.89   11.38
  14  -2  -4  224.73    9.16
 -13   2   4   84.54    6.53
  13  -2  -4   84.54    4.31
 -12   2   4  139.71    8.15
  12  -2  -4  142.81    6.00
 -11   2   4  133.38    5.73
  11  -2  -4  138.84    6.06
 -10   2   4  404.19   13.34
  10  -2  -4  377.64   12.93
  -9   2   4   69.59    3.30
   9  -2  -4   65.41    3.03
  -8   2   4  325.64   11.79
   8  -2  -4  309.27   15.90
  -7   2   4  363.09   12.06
   7  -2  -4  350.77   11.86
   6  -2  -4  904.70   38.06
  -1   2   4  179.19    5.93
   1  -2  -4  173.66    5.73
   0   2   4  650.00   19.13
   0  -2  -4  623.99   25.46
   1   2   4  179.32    6.67
  -1  -2  -4  185.45    7.28
   2   2   4 1977.14   55.31
  -2  -2  -4 1869.42   50.66
   3   2   4    4.38    1.08
  -3  -2  -4    5.52    1.21
   4   2   4  694.46   21.83
  -4  -2  -4  819.15   35.50
   5   2   4  390.78   13.00
  -5  -2  -4  382.22   13.47
   6   2   4 1102.35   31.19
  -6  -2  -4 1100.06   31.59
   7   2   4  444.27   14.69
  -7  -2  -4  434.57   13.67
   8   2   4  424.60   14.95
  -8  -2  -4  401.63   13.67
   9   2   4  109.06    5.46
  -9  -2  -4   95.66    4.92
  10   2   4  605.20   20.82
 -10  -2  -4  540.19   18.26
  11   2   4  219.47    9.84
 -11  -2  -4  213.95   12.46
  12   2   4  227.35   13.41
 -12  -2  -4  248.30   10.51
  13   2   4  170.36    8.62
 -13  -2  -4  167.20   14.55
  14   2   4  442.85   16.64
 -14  -2  -4  453.36   17.65
  15   2   4   81.17    6.13
 -15  -2  -4   64.27    6.47
  16   2   4  131.36    7.61
 -16  -2  -4  127.52    8.22
  17   2   4   36.92    5.19
 -17  -2  -4   39.81    5.79
 -18   2   5   19.27    4.92
  18  -2  -5   20.41    3.03
 -17   2   5   28.90    3.57
  17  -2  -5   24.18    2.76
 -16   2   5    1.75    3.17
  16  -2  -5    2.83    2.56
 -15   2   5  113.51    6.53
  15  -2  -5  109.74    5.86
 -14   2   5   34.56    3.71
  14  -2  -5   37.32    3.10
 -13   2   5   90.13    6.47
  13  -2  -5  107.92    5.32
  12  -2  -5    3.23    1.55
 -11   2   5  120.65    8.02
  11  -2  -5  122.87    5.59
 -10   2   5  101.72    4.72
  10  -2  -5   97.07    5.86
  -9   2   5  493.51   25.13
   9  -2  -5  440.36   15.43
  -8   2   5  178.99    9.57
   8  -2  -5  189.76    7.61
  -7   2   5  435.17   20.82
   7  -2  -5  427.36   14.48
   6  -2  -5  202.56    8.08
  -2   2   5   33.95    2.22
  -1   2   5 1736.24   47.63
   1  -2  -5 1629.27   44.80
   0   2   5    1.15    0.74
   0  -2  -5    0.27    0.67
   1   2   5 1820.99   47.90
  -1  -2  -5 1624.49   41.43
   2   2   5   39.00    2.22
  -2  -2  -5   38.20    2.83
   3   2   5  541.14   17.11
  -3  -2  -5  635.18   18.73
   4   2   5    9.84    1.55
  -4  -2  -5   10.64    1.55
   5   2   5  823.93   24.18
  -5  -2  -5  921.61   27.89
   6   2   5  260.09    8.76
  -6  -2  -5  270.67    8.96
   7   2   5  587.82   19.87
  -7  -2  -5  564.71   18.53
   8   2   5  268.65    9.57
  -8  -2  -5  263.46   10.37
   9   2   5  732.45   24.99
  -9  -2  -5  649.26   22.43
  10   2   5  157.83    7.61
 -10  -2  -5  146.25    7.34
  11   2   5  207.89    9.77
 -11  -2  -5  215.03   10.37
  12   2   5    8.56    2.63
 -12  -2  -5   10.37    2.69
  13   2   5  193.07   12.26
 -13  -2  -5  202.63   14.35
  14   2   5   78.08    5.05
 -14  -2  -5   82.45    5.86
  15   2   5  246.62   11.05
 -15  -2  -5  269.93   13.47
  16   2   5    8.35    3.50
 -16  -2  -5    8.82    5.86
  17   2   5   87.30    7.14
 -17  -2  -5   64.74    7.28
 -17   2   6   27.82    4.31
  17  -2  -6   26.47    2.63
 -16   2   6   42.57    5.39
  16  -2  -6   40.08    3.10
 -15   2   6   36.65    3.37
  15  -2  -6   33.21    5.25
 -14   2   6   60.22    7.54
  14  -2  -6   47.69    4.92
 -13   2   6   10.04    2.02
  13  -2  -6    9.90    1.55
  12  -2  -6  102.12    4.78
 -11   2   6    2.36    1.41
  11  -2  -6    2.76    1.01
 -10   2   6  260.77   15.83
  10  -2  -6  255.11   10.51
  -9   2   6   67.23    5.32
   9  -2  -6   67.70    3.37
   8  -2  -6  640.43   19.87
  -7   2   6   80.84    5.59
   7  -2  -6   78.75    3.57
  -2   2   6  438.95   20.82
  -1   2   6  150.15    5.73
   1  -2  -6  146.25    8.35
   0   2   6 3198.11   84.95
   1   2   6  147.80    5.73
  -1  -2  -6  167.74    9.09
   2   2   6  464.27   24.05
  -2  -2  -6  484.08   14.82
   3   2   6   69.72    3.71
  -3  -2  -6   67.50    3.17
   4   2   6  602.64   19.20
  -4  -2  -6  632.82   25.80
   5   2   6   89.12    3.77
  -5  -2  -6   91.82    3.97
   6   2   6  289.94   10.58
  -6  -2  -6  298.09    9.77
   7   2   6  118.83    5.25
  -7  -2  -6  119.64    5.59
   8   2   6 1007.16   30.45
  -8  -2  -6  925.04   26.88
   9   2   6  113.85    5.39
  -9  -2  -6  107.65    5.32
  10   2   6  434.90   15.43
 -10  -2  -6  450.94   18.59
  11   2   6    3.77    2.22
 -11  -2  -6    7.41    2.56
  12   2   6  169.69    9.97
 -12  -2  -6  193.81    8.89
  13   2   6   25.80    3.64
 -13  -2  -6   25.67    3.44
  14   2   6  132.30    6.94
 -14  -2  -6  117.28    8.62
  15   2   6  111.76   11.45
 -15  -2  -6  109.74    9.50
  16   2   6  125.70    8.56
  17   2   6   75.31   10.51
 -17   2   7   42.71    4.78
  17  -2  -7   47.83    4.38
 -16   2   7    5.79    2.29
  16  -2  -7    4.78    2.02
 -15   2   7   20.14    2.16
  15  -2  -7   19.74    2.43
 -14   2   7    3.71    1.75
  14  -2  -7    1.75    1.55
  13  -2  -7   66.22    4.51
 -12   2   7   18.19    2.02
  12  -2  -7   15.43    1.55
  11  -2  -7  126.58    6.06
 -10   2   7   35.10    2.43
  10  -2  -7   35.37    2.29
  -9   2   7  333.79   16.23
   9  -2  -7  299.70   11.38
   8  -2  -7  144.16    5.66
  -3   2   7  341.81   11.65
  -2   2   7   48.77    2.49
   2  -2  -7   50.19    3.57
  -1   2   7  863.07   36.11
   1  -2  -7  861.25   25.46
   0   2   7    0.27    0.67
   0  -2  -7    0.07    0.74
   1   2   7  928.41   28.43
  -1  -2  -7  928.08   27.08
   2   2   7   54.77    3.03
  -2  -2  -7   59.15    3.10
   3   2   7  414.69   13.67
  -3  -2  -7  478.08   15.70
   4   2   7   11.12    1.48
  -4  -2  -7   11.45    1.95
   5   2   7  286.30    9.70
  -5  -2  -7  305.90   10.04
   6   2   7    5.59    1.95
  -6  -2  -7    6.26    1.95
   7   2   7  427.29   14.35
  -7  -2  -7  463.60   14.62
   8   2   7  238.60    9.70
  -8  -2  -7  236.45   14.21
   9   2   7  566.26   20.14
  -9  -2  -7  555.42   19.20
  10   2   7   64.27    4.38
 -10  -2  -7   74.03    5.05
  11   2   7  243.18    9.90
 -11  -2  -7  228.36   14.75
  12   2   7   38.87    3.77
 -12  -2  -7   38.13    3.97
  13   2   7  133.99    7.68
 -13  -2  -7  145.78    8.89
  14   2   7   13.14    3.37
 -14  -2  -7   15.02    3.77
  15   2   7   76.46    6.47
 -15  -2  -7   74.10    9.09
  16   2   7   19.81    6.80
 -16  -2  -7   15.36    6.87
  16  -2  -8   25.87    2.36
 -15   2   8    5.86    1.75
  15  -2  -8    7.34    2.49
 -14   2   8   15.22    2.49
  14  -2  -8   19.40    1.95
 -13   2   8    8.29    2.22
  13  -2  -8    6.80    1.35
 -12   2   8   70.40    5.39
  12  -2  -8   56.59    4.78
  11  -2  -8   16.57    1.48
 -10   2   8   79.15    6.06
  10  -2  -8   71.68    4.38
  -4   2   8   90.13    5.73
  -3   2   8   45.94    3.37
  -2   2   8  302.80   15.70
   2  -2  -8  323.21   15.63
  -1   2   8   20.48    1.28
   1  -2  -8   22.10    1.89
   0   2   8  541.07   16.98
   0  -2  -8  572.12   17.51
   1   2   8   27.28    2.76
  -1  -2  -8   23.24    2.02
   2   2   8  327.93   11.05
  -2  -2  -8  309.40   10.44
   3   2   8   53.62    3.10
  -3  -2  -8   51.74    3.10
   4   2   8  123.48    5.05
  -4  -2  -8  104.75    4.65
   5   2   8   29.77    2.96
  -5  -2  -8   28.83    2.63
   6   2   8  256.05    9.36
  -6  -2  -8  246.55    9.77
   7   2   8   95.05    4.85
  -7  -2  -8   96.47    5.12
   8   2   8  446.56   13.34
  -8  -2  -8  450.33   16.50
   9   2   8    6.20    2.49
  -9  -2  -8    8.49    2.29
  10   2   8  216.37    9.70
 -10  -2  -8  176.63   12.66
  11   2   8   35.30    3.77
 -11  -2  -8   34.83    3.91
  12   2   8  165.38    8.69
 -12  -2  -8  165.18    9.23
  13   2   8   20.48    3.23
 -13  -2  -8   23.11    3.84
  14   2   8   72.55    5.86
 -14  -2  -8   70.73    5.79
  15   2   8   30.04    4.92
 -15  -2  -8   27.96    8.08
 -15   2   9   12.46    2.56
  15  -2  -9   21.56    1.82
  14  -2  -9    2.49    0.74
  13  -2  -9   11.52    1.55
   4  -2  -9    3.37    0.88
  -3   2   9  327.79   10.78
   3  -2  -9  296.00   10.51
  -2   2   9   35.97    2.16
  -1   2   9  442.72   14.62
   1  -2  -9  437.13   14.82
   0   2   9   -0.54    1.01
   0  -2  -9   -0.20    1.35
   1   2   9  431.13   14.62
  -1  -2  -9  455.58   22.70
   2   2   9   32.40    2.36
  -2  -2  -9   30.11    2.69
   3   2   9  323.62   11.65
  -3  -2  -9  326.99   11.38
   4   2   9    5.46    1.55
  -4  -2  -9    1.55    1.55
   5   2   9  169.49    7.07
  -5  -2  -9  171.71    7.21
   6   2   9    7.88    1.95
  -6  -2  -9   11.05    2.16
   7   2   9  478.89   16.64
  -7  -2  -9  442.25   25.33
   8   2   9   20.34    3.17
  -8  -2  -9   21.96    3.10
   9   2   9  173.87    8.29
  -9  -2  -9  191.92   10.24
  10   2   9   26.20    3.30
 -10  -2  -9   23.85    3.30
  11   2   9  239.75   10.51
 -11  -2  -9  246.22   11.05
  12   2   9   25.26    3.71
 -12  -2  -9   19.74    3.50
  13   2   9   91.62    6.47
 -13  -2  -9   81.98    6.80
  14   2   9   14.95    5.05
 -14  -2  -9   14.55    5.73
  15   2   9  126.71    8.56
 -15  -2  -9  121.79    7.95
  -4   2  10  153.05    9.70
  -3   2  10    4.11    0.94
   3  -2 -10    4.98    1.21
  -2   2  10  260.77   10.64
   2  -2 -10  247.50   12.73
  -1   2  10  124.69    5.12
   1  -2 -10  110.81    5.39
   0   2  10  126.71    5.66
   0  -2 -10  123.01    5.79
   1   2  10  127.12    5.25
  -1  -2 -10  116.94    5.46
   2   2  10  244.67   13.54
  -2  -2 -10  215.83    9.03
   3   2  10    2.29    1.55
  -3  -2 -10    1.21    1.68
   4   2  10  157.63    8.49
  -4  -2 -10  153.39    7.75
   5   2  10    2.69    1.82
  -5  -2 -10    2.16    2.16
   6   2  10  155.68    6.94
  -6  -2 -10  169.76    8.96
   7   2  10   48.30    3.84
  -7  -2 -10   51.33    5.05
   8   2  10  121.59    7.07
  -8  -2 -10  111.08    5.73
   9   2  10   28.97    3.71
  -9  -2 -10   29.24    5.52
  10   2  10  339.31   13.74
 -10  -2 -10  346.66   13.61
  11   2  10    1.01    3.84
 -11  -2 -10    0.74    4.38
  12   2  10  132.37    8.62
 -12  -2 -10  116.27    7.28
  13   2  10   10.04    4.58
 -13  -2 -10    6.13    4.72
  14   2  10   73.02    6.40
 -14  -2 -10   68.78    5.79
  -4   2  11    0.34    0.74
   4  -2 -11   -0.40    1.21
  -3   2  11  173.66   10.51
   3  -2 -11  163.16    6.94
  -2   2  11   17.51    1.95
   2  -2 -11   20.28    2.49
  -1   2  11  192.39   11.79
   1  -2 -11  181.34    7.54
   0   2  11    0.34    1.08
   0  -2 -11    0.20    1.48
   1   2  11  181.95    7.68
   2   2  11   18.12    1.82
  -2  -2 -11   16.64    3.37
   3   2  11  200.61   11.32
  -3  -2 -11  180.27    7.75
   4   2  11    0.00    2.02
  -4  -2 -11   -0.13    3.17
   5   2  11  195.15    8.15
  -5  -2 -11  196.97   10.58
   6   2  11    3.44    2.43
  -6  -2 -11    4.78    3.10
   7   2  11   25.67    2.83
  -7  -2 -11   23.85    3.37
   8   2  11   53.69    4.31
  -8  -2 -11   65.41    5.32
   9   2  11  324.56   12.73
  -9  -2 -11  309.54   11.92
  10   2  11    8.69    3.17
 -10  -2 -11    8.82    3.10
  11   2  11  174.61    8.96
 -11  -2 -11  152.71    8.29
  12   2  11    4.92    3.71
 -12  -2 -11    1.15    3.23
  13   2  11   55.24    5.46
 -13  -2 -11   58.74    6.26
  -4   2  12   72.75    3.77
  -3   2  12   10.31    1.41
   3  -2 -12    9.90    2.22
  -2   2  12   97.75    4.78
   2  -2 -12   91.01    7.41
  -1   2  12  122.00    5.66
   1  -2 -12  119.57    7.14
   0   2  12  244.60   10.37
   1   2  12  123.01    7.81
  -1  -2 -12  129.27    5.93
   2   2  12  118.36    5.46
  -2  -2 -12  111.69    5.05
   3   2  12   16.64    2.69
   4   2  12  118.02    5.59
  -4  -2 -12  112.16    4.92
   5   2  12    6.40    2.22
  -5  -2 -12   11.05    2.56
   6   2  12   53.29    3.97
  -6  -2 -12   45.34    3.44
   7   2  12   14.75    2.96
  -7  -2 -12   11.59    3.30
   8   2  12  217.11   10.10
  -8  -2 -12  248.10   11.59
   9   2  12   33.75    4.11
  -9  -2 -12   37.05    8.76
  10   2  12  173.06    9.77
 -10  -2 -12  174.34    8.82
  11   2  12   10.64    3.84
 -11  -2 -12   11.18    4.78
  12   2  12   47.36    4.92
 -12  -2 -12   44.26    5.52
  -4   2  13    7.68    1.01
   4  -2 -13    6.94    1.62
  -3   2  13   40.62    2.69
  -2   2  13   57.12    3.50
   2  -2 -13   53.89    3.64
  -1   2  13  163.76   10.24
   1  -2 -13  170.57    7.34
   0   2  13   -0.07    1.35
   0  -2 -13   -0.20    1.82
   1   2  13  196.57    8.82
  -1  -2 -13  180.94    9.70
   2   2  13   81.51    5.25
  -2  -2 -13   80.97    8.56
   3   2  13   58.81    3.64
  -3  -2 -13   50.93    4.04
   4   2  13   14.62    2.49
  -4  -2 -13   15.83    2.76
   5   2  13   52.21    4.65
  -5  -2 -13   41.09    4.65
   6   2  13    8.22    2.96
  -6  -2 -13    4.65    2.56
   7   2  13  234.56   12.93
  -7  -2 -13  251.67   12.13
   8   2  13    5.93    3.64
  -8  -2 -13    7.21    3.37
   9   2  13  141.73    9.90
  -9  -2 -13  125.63    8.49
  10   2  13   31.93    4.45
 -10  -2 -13   33.08    5.12
  11   2  13   45.13    4.72
 -11  -2 -13   48.43    5.59
  -4   2  14    8.42    1.08
  -3   2  14   22.36    1.89
   3  -2 -14   19.06    3.03
  -2   2  14   60.49    5.05
   2  -2 -14   53.02    4.04
  -1   2  14    6.40    1.35
   1  -2 -14    7.68    2.63
   0   2  14   68.11    4.31
   0  -2 -14   80.90    6.13
   1   2  14    6.94    2.69
  -1  -2 -14    6.53    2.36
   2   2  14   79.22    4.85
  -2  -2 -14   92.22    4.85
   3   2  14   44.12    4.04
  -3  -2 -14   46.01    4.92
   4   2  14   19.94    2.90
  -4  -2 -14   15.70    3.03
   5   2  14    8.02    2.49
  -5  -2 -14    9.70    2.63
   6   2  14  136.41    7.75
  -6  -2 -14  125.50   11.18
   7   2  14   13.81    3.44
  -7  -2 -14   15.90    4.04
   8   2  14   90.20    6.94
  -8  -2 -14   84.68    5.73
   9   2  14    3.10    3.44
  -9  -2 -14    0.61    3.44
  10   2  14   33.08    4.58
 -10  -2 -14   40.42    4.65
  -4   2  15    2.29    1.01
  -3   2  15   27.22    2.22
   3  -2 -15   23.38    2.76
  -2   2  15    0.61    1.21
   2  -2 -15    0.00    1.62
  -1   2  15   24.25    2.63
   1  -2 -15   26.54    3.64
   0   2  15    0.07    3.30
   0  -2 -15    0.07    3.50
   1   2  15   36.71    4.04
   2   2  15    0.81    2.56
  -2  -2 -15    0.07    2.90
   3   2  15   58.54    4.45
  -3  -2 -15   54.43    4.51
   4   2  15   13.20    2.96
  -4  -2 -15   12.93    2.76
   5   2  15   88.52    5.73
  -5  -2 -15   98.96   10.10
   6   2  15    8.08    3.23
  -6  -2 -15    6.33    4.18
   7   2  15   72.82    5.59
  -7  -2 -15   76.73    5.25
   8   2  15    4.72    3.57
  -8  -2 -15   -0.34    4.38
   9   2  15   19.67    3.91
  -9  -2 -15   28.70    4.38
  -2   2  16    4.45    1.89
  -1   2  16    0.47    1.55
   1  -2 -16    2.56    2.16
   0   2  16   20.61    2.56
   1   2  16    1.41    1.82
  -1  -2 -16    2.96    2.09
   2   2  16   14.75    2.56
  -2  -2 -16   21.02    4.24
   3   2  16    0.34    2.76
  -3  -2 -16    2.43    3.37
   4   2  16   98.35    6.00
  -4  -2 -16   86.56    6.87
   5   2  16    0.94    2.43
  -5  -2 -16    4.24    3.10
   6   2  16   39.74    4.18
  -6  -2 -16   33.14    3.97
   7   2  16    3.17    3.57
  -7  -2 -16    2.36    3.57
   8   2  16   22.23    3.97
  -8  -2 -16   19.81    3.84
  -3  -2 -17   17.51    5.39
   4   2  17   -1.21    3.84
  -4  -2 -17   -2.56    6.00
   5   2  17   47.90    6.33
   6   2  17    1.82    3.44
  -6  -2 -17   -0.07    3.44
   0   3 -17   49.04    4.98
   0  -3  17   45.61    4.51
   1   3 -17   23.17    3.91
  -1  -3  17   24.66    3.77
   2   3 -17   27.69    6.94
  -2  -3  17   35.16    5.25
   3   3 -17   -1.08    4.11
  -3  -3  17    2.56    3.30
   4   3 -17   19.94    5.32
  -4  -3  17   14.15    4.51
   5   3 -17   -1.08    5.86
  -4   3 -16    3.71    3.84
   4  -3  16   -2.09    3.64
  -3   3 -16  106.77    7.21
   3  -3  16  116.88    8.02
  -2   3 -16   -3.10    3.17
   2  -3  16    0.40    3.30
  -1   3 -16   21.42    4.78
   1  -3  16   11.59    3.97
   0   3 -16   -1.08    3.17
   0  -3  16   -0.54    3.37
   1   3 -16   24.32    4.78
  -1  -3  16   12.40    3.97
   2   3 -16   -0.07    4.04
  -2  -3  16   -0.47    3.30
   3   3 -16   79.15    7.54
  -3  -3  16   83.80    6.53
   4   3 -16    1.75    3.57
  -4  -3  16   -1.01    3.84
   5   3 -16   58.14    5.12
  -5  -3  16   59.21    5.25
   6   3 -16    5.39    4.72
  -6  -3  16    4.18    3.50
   7   3 -16   21.42    3.30
  -7  -3  16   18.19    3.37
  -6   3 -15   61.98    6.40
   6  -3  15   51.60    6.20
  -5   3 -15   11.99    4.04
   5  -3  15   15.16    4.18
  -4   3 -15  223.51   10.58
   4  -3  15  249.58   12.46
  -3   3 -15   25.46    4.31
   3  -3  15   21.49    3.91
  -2   3 -15   63.79    5.39
   2  -3  15   61.77    5.66
  -1   3 -15   25.60    3.84
   1  -3  15   35.37    4.38
   0   3 -15   14.28    4.78
   0  -3  15   38.20    6.74
   1   3 -15   28.76    3.57
  -1  -3  15   30.11    3.77
   2   3 -15   58.20    5.39
  -2  -3  15   48.70    4.18
   3   3 -15   17.99    3.84
  -3  -3  15   17.25    3.71
   4   3 -15  151.50    8.22
  -4  -3  15  176.09    8.62
   5   3 -15    8.82    3.57
  -5  -3  15    9.57    3.64
   6   3 -15   43.25    4.31
  -6  -3  15   49.04    4.78
   7   3 -15    1.48    3.57
  -7  -3  15   -2.09    3.37
   8   3 -15    9.70    3.44
  -8  -3  15   13.20    4.11
   9   3 -15    6.80    3.71
  -9  -3  15    2.43    3.50
  -8   3 -14    3.10    4.85
   8  -3  14    2.83    4.24
  -7   3 -14   64.87    6.40
   7  -3  14   60.36    5.66
  -6   3 -14    9.57    3.57
   6  -3  14   11.38    3.77
  -5   3 -14  134.93    8.49
   5  -3  14  134.19    9.36
  -4   3 -14    8.56    4.51
   4  -3  14   15.76    4.24
  -3   3 -14  150.02   11.65
   3  -3  14  152.45   11.65
  -2   3 -14    0.20    4.58
   2  -3  14    0.07    3.97
  -1   3 -14   63.52    7.07
   1  -3  14   64.00   10.10
   0   3 -14   -1.15    3.64
   0  -3  14   -3.44    2.96
   1   3 -14   60.83    5.19
  -1  -3  14   70.73    6.13
   2   3 -14   -0.34    2.83
  -2  -3  14    1.08    3.17
   3   3 -14  107.31    6.53
  -3  -3  14  110.75    6.06
   4   3 -14    8.56    3.10
  -4  -3  14   15.97    5.19
   5   3 -14   90.54    5.86
  -5  -3  14   99.09    6.26
   6   3 -14    6.33    3.44
  -6  -3  14    6.20    2.90
   7   3 -14   37.25    3.91
  -7  -3  14   48.70    5.19
   8   3 -14    0.74    2.76
  -8  -3  14    0.61    2.83
   9   3 -14   29.84    4.98
  -9  -3  14   27.28    5.19
  10   3 -14    3.57    4.24
 -10  -3  14    3.64    3.97
  11   3 -14   29.51    4.24
 -11  -3  14   24.12    4.24
 -10   3 -13   98.69    7.21
  10  -3  13  113.78   12.33
  -9   3 -13    0.67    4.58
   9  -3  13    3.44    4.11
  -8   3 -13  128.13    8.15
   8  -3  13  107.24    7.81
  -7   3 -13   27.08    5.12
   7  -3  13   33.95    4.85
  -6   3 -13   88.31    7.34
   6  -3  13   80.63    6.40
  -5   3 -13   13.81    4.11
   5  -3  13   24.66    3.77
  -4   3 -13   60.96    5.79
   4  -3  13   46.68    4.58
  -3   3 -13   11.99    3.64
   3  -3  13   10.37    2.96
  -2   3 -13  165.11    8.22
   2  -3  13  198.86    9.57
  -1   3 -13   11.99    3.44
   1  -3  13    7.41    2.83
   0   3 -13  113.91    5.46
   0  -3  13  108.19    6.60
   1   3 -13   10.10    3.77
  -1  -3  13    8.89    2.56
   2   3 -13  171.31    9.70
  -2  -3  13  170.43    8.56
   3   3 -13   12.40    3.77
  -3  -3  13    8.49    2.96
   4   3 -13   50.12    4.24
  -4  -3  13   33.88    4.58
   5   3 -13   16.17    2.76
  -5  -3  13   17.25    3.23
   6   3 -13   54.56    4.98
  -6  -3  13   70.13    6.00
   7   3 -13   21.42    3.44
  -7  -3  13   22.30    3.23
   8   3 -13   76.93    6.00
  -8  -3  13   72.28    5.46
   9   3 -13    2.49    2.96
  -9  -3  13    1.28    3.23
  10   3 -13   51.33    5.66
 -10  -3  13   56.59    5.52
  11   3 -13   12.33    3.30
 -11  -3  13   10.98    3.03
  12   3 -13   23.58    3.77
 -12  -3  13   26.88    5.12
  13   3 -13   -0.67    3.77
 -11   3 -12  108.25    7.48
  11  -3  12  108.52    7.81
 -10   3 -12   21.02    4.24
  10  -3  12   15.09    3.84
  -9   3 -12  299.30   17.45
   9  -3  12  273.23   13.61
  -8   3 -12   60.90    5.25
   8  -3  12   59.82    4.92
  -7   3 -12  101.05    6.60
   7  -3  12  101.45    6.47
  -6   3 -12   -0.20    3.03
   6  -3  12   -0.61    2.63
  -5   3 -12   85.55    5.46
   5  -3  12   76.86    5.39
  -4   3 -12    8.22    3.10
   4  -3  12    5.59    2.49
  -3   3 -12   97.14    5.52
   3  -3  12   97.34    5.59
  -2   3 -12    0.61    3.10
   2  -3  12    1.35    3.03
  -1   3 -12  324.36   20.82
   1  -3  12  308.86   11.72
   0   3 -12   -0.47    2.83
   0  -3  12    2.09    2.63
   1   3 -12  289.67   11.99
  -1  -3  12  301.32   11.18
   2   3 -12    0.88    2.63
  -2  -3  12    4.51    2.36
   3   3 -12   83.94    7.34
  -3  -3  12   75.31    4.72
   4   3 -12    4.24    2.56
  -4  -3  12    7.01    2.43
   5   3 -12   63.59    4.98
  -5  -3  12   68.58    4.31
   6   3 -12    0.67    3.17
  -6  -3  12   -0.94    3.17
   7   3 -12   65.81    5.32
  -7  -3  12   69.92    5.05
   8   3 -12   39.54    3.50
  -8  -3  12   36.85    3.84
   9   3 -12  155.14    8.02
  -9  -3  12  171.37    7.88
  10   3 -12   16.37    3.77
 -10  -3  12   14.01    3.57
  11   3 -12   59.62    4.92
 -11  -3  12   56.65    4.78
  12   3 -12   10.04    5.73
 -12  -3  12    5.66    4.18
  13   3 -12   32.13    3.77
 -13  -3  12   31.80    3.97
  14   3 -12   -0.07    3.17
 -14  -3  12    5.25    3.44
 -12   3 -11  115.06   13.27
  12  -3  11  116.74   13.14
 -11   3 -11   49.04    5.59
  11  -3  11   55.58    5.46
 -10   3 -11  211.32   10.24
  10  -3  11  186.73    9.36
  -9   3 -11    3.97    3.64
   9  -3  11    2.36    3.23
  -8   3 -11  267.37   12.53
   8  -3  11  283.60   12.87
  -7   3 -11   70.53    5.86
   7  -3  11   63.32    5.39
  -6   3 -11   82.52    6.00
   6  -3  11   92.36    5.79
  -5   3 -11   12.46    3.37
   5  -3  11   15.56    3.03
  -4   3 -11  136.55    7.61
   4  -3  11  141.26    6.87
  -3   3 -11   89.93    7.07
   3  -3  11   85.01    6.00
  -2   3 -11  143.89    7.68
   2  -3  11  159.72    6.60
  -1   3 -11   40.62    4.65
   1  -3  11   31.39    3.17
   0   3 -11  591.19   25.19
   0  -3  11  597.86   18.79
   1   3 -11   37.52    3.37
  -1  -3  11   32.40    2.96
   2   3 -11  124.29    6.06
  -2  -3  11  131.76    6.67
   3   3 -11   70.80    4.58
  -3  -3  11   78.88    4.24
   4   3 -11  100.44    5.12
  -4  -3  11   93.91    5.52
   5   3 -11    9.63    2.90
  -5  -3  11   12.46    4.24
   6   3 -11   60.83    5.05
  -6  -3  11   67.03    4.65
   7   3 -11   43.38    3.50
  -7  -3  11   44.66    4.04
   8   3 -11  171.51    7.95
  -8  -3  11  206.20    8.42
   9   3 -11    0.67    2.69
  -9  -3  11   -0.61    3.37
  10   3 -11  119.98    6.60
 -10  -3  11  100.57    8.96
  11   3 -11   23.24    3.17
 -11  -3  11   24.79    3.50
  12   3 -11   54.50    5.19
 -12  -3  11   71.81   10.17
  13   3 -11    0.81    2.83
 -13  -3  11    3.77    3.30
  14   3 -11   14.48    3.71
 -14  -3  11   24.05    4.18
  15   3 -11    7.75    2.96
 -15  -3  11    6.00    3.30
 -13   3 -10  103.88    8.29
  13  -3  10  109.94    7.54
 -12   3 -10   38.73    5.19
  12  -3  10   26.07    5.93
 -11   3 -10  198.86   11.38
  11  -3  10  160.26   12.66
 -10   3 -10   12.66    9.03
  10  -3  10   12.80    4.45
  -9   3 -10  154.67    8.69
   9  -3  10  157.36    7.68
  -8   3 -10   13.61    3.44
   8  -3  10   17.72    3.37
  -7   3 -10  494.59   19.00
   7  -3  10  528.88   20.01
  -6   3 -10  185.72    8.29
   6  -3  10  189.43    9.30
  -5   3 -10   90.40    4.72
   5  -3  10   92.96    4.85
  -4   3 -10   42.78    3.84
   4  -3  10   36.78    3.71
  -3   3 -10  188.96    8.49
   3  -3  10  184.78    8.56
  -2   3 -10   95.66    4.51
   2  -3  10   95.79    5.19
  -1   3 -10  492.97   19.40
   1  -3  10  477.61   16.98
   0   3 -10   -1.28    1.95
   0  -3  10   -2.09    1.89
   1   3 -10  442.11   15.97
  -1  -3  10  448.78   16.10
   2   3 -10   89.26    5.39
  -2  -3  10   82.05    4.31
   3   3 -10  158.84    8.08
  -3  -3  10  156.55    6.60
   4   3 -10   30.04    3.17
  -4  -3  10   27.89    2.90
   5   3 -10   66.96    4.51
  -5  -3  10   71.00    3.91
   6   3 -10  145.44    7.54
  -6  -3  10  123.41    6.40
   7   3 -10  363.09   12.80
  -7  -3  10  372.93   15.09
   8   3 -10   14.48    2.49
  -8  -3  10   12.13    2.49
   9   3 -10  110.21    5.86
  -9  -3  10  102.93    6.47
  10   3 -10   12.80    3.71
 -10  -3  10   11.45    3.50
  11   3 -10  110.61    5.93
 -11  -3  10  109.13    7.07
  12   3 -10   12.80    3.57
 -12  -3  10   21.76    3.84
  13   3 -10   58.67    5.05
 -13  -3  10   62.92    4.98
  14   3 -10   11.86    3.64
 -14  -3  10   14.62    5.93
  15   3 -10   53.35    5.12
 -15  -3  10   51.33    4.65
  16   3 -10    3.03    3.57
 -16  -3  10    6.47    4.18
 -14   3  -9  240.62   13.07
  14  -3   9  248.71   12.46
 -13   3  -9   17.99    3.91
  13  -3   9   15.09    3.64
 -12   3  -9   43.25    5.52
  12  -3   9   21.29    4.04
 -11   3  -9   85.35    9.77
  11  -3   9   87.98    6.67
 -10   3  -9  163.76    8.76
  10  -3   9  144.50    7.61
  -9   3  -9    7.21    2.56
   9  -3   9    7.88    3.44
  -8   3  -9  295.39   19.81
   8  -3   9  266.90   13.14
  -7   3  -9   40.55    4.98
   7  -3   9   43.72    4.11
  -6   3  -9  595.97   22.50
   6  -3   9  572.66   19.13
  -5   3  -9   73.16    4.58
   5  -3   9   69.05    4.72
  -4   3  -9   48.37    3.64
   4  -3   9   76.73    4.51
  -3   3  -9   60.02    4.11
   3  -3   9   62.72    4.45
  -2   3  -9  390.17   13.88
   2  -3   9  368.35   14.21
  -1   3  -9   69.18    4.51
   1  -3   9   63.86    4.45
   0   3  -9  301.05   11.65
   0  -3   9  282.32   10.58
   1   3  -9   64.80    6.87
  -1  -3   9   60.83    3.91
   2   3  -9  374.41   13.74
  -2  -3   9  326.78   10.64
   3   3  -9   52.54    3.77
  -3  -3   9   43.45    2.96
   4   3  -9   37.66    3.30
  -4  -3   9   55.98    4.92
   5   3  -9   59.28    4.38
  -5  -3   9   63.05    3.50
   6   3  -9  432.81   14.95
  -6  -3   9  415.10   13.81
   7   3  -9   27.22    3.17
  -7  -3   9   24.86    3.50
   8   3  -9  208.09    9.90
  -8  -3   9  211.12    9.97
   9   3  -9    2.63    2.83
  -9  -3   9    4.45    3.03
  10   3  -9   97.07    5.52
 -10  -3   9   97.14    5.73
  11   3  -9   50.66    5.79
 -11  -3   9   50.19    4.51
  12   3  -9   25.26    3.44
 -12  -3   9   15.76    3.44
  13   3  -9   15.70    5.32
 -13  -3   9   17.58    5.79
  14   3  -9  128.60    6.67
 -14  -3   9  154.06    8.42
  15   3  -9    3.97    3.03
 -15  -3   9    4.18    3.23
  16   3  -9   44.60    5.19
 -16  -3   9   43.11    5.05
  17   3  -9    7.54    3.71
 -17  -3   9    1.48    3.77
 -15   3  -8  232.95   13.67
  15  -3   8  231.87   13.20
 -14   3  -8   45.13    5.12
  14  -3   8   38.94    4.65
 -13   3  -8   95.25    7.81
  13  -3   8   79.15    6.13
 -12   3  -8   22.10    4.72
  12  -3   8   18.26    4.58
 -11   3  -8   91.82    6.94
  11  -3   8  107.04    6.47
 -10   3  -8   17.72    3.23
  10  -3   8   17.18    3.03
  -9   3  -8  423.45   17.11
   9  -3   8  397.52   15.22
  -8   3  -8   12.46    2.56
   8  -3   8   11.79    2.56
  -7   3  -8  373.06   22.10
   7  -3   8  357.70   19.94
  -6   3  -8  156.55    8.02
   6  -3   8  141.80    7.07
  -5   3  -8  555.28   19.00
   5  -3   8  516.62   19.06
  -4   3  -8   41.56    3.37
   4  -3   8   33.14    2.76
  -3   3  -8  318.03   11.99
   3  -3   8  317.08   12.53
  -2   3  -8   77.54    4.18
   2  -3   8   79.62    4.18
  -1   3  -8  640.90   21.69
   0   3  -8   -0.13    1.89
   0  -3   8   -0.61    1.95
   1   3  -8  680.92   27.42
  -1  -3   8  612.61   19.47
   2   3  -8   69.39    3.77
  -2  -3   8   73.83    3.57
   3   3  -8  269.66    8.69
  -3  -3   8  277.07   10.31
   4   3  -8   30.52    2.83
  -4  -3   8   28.29    2.49
   5   3  -8  436.86   14.48
  -5  -3   8  439.82   13.74
   6   3  -8  110.95    5.19
  -6  -3   8  122.06    5.59
   7   3  -8  293.78   11.12
  -7  -3   8  271.14    9.03
   8   3  -8    8.15    3.03
  -8  -3   8    6.06    2.96
   9   3  -8  282.86   10.78
  -9  -3   8  294.11   11.32
  10   3  -8    8.62    2.43
 -10  -3   8   12.06    2.63
  11   3  -8   66.62    4.65
 -11  -3   8   87.24    8.02
  12   3  -8   15.16    3.10
 -12  -3   8   11.12    3.10
  13   3  -8   62.72    5.25
 -13  -3   8   60.36    5.25
  14   3  -8   28.63    3.77
 -14  -3   8   41.36    5.93
  15   3  -8  150.22    8.22
 -15  -3   8  146.79   10.04
  16   3  -8    1.15    4.72
 -16  -3   8   -1.68    3.97
  17   3  -8   53.82    6.74
 -17  -3   8   54.23    6.06
 -16   3  -7  232.68   13.54
  16  -3   7  197.24    9.84
 -15   3  -7   33.68    5.32
  15  -3   7   24.25    4.65
 -14   3  -7   66.56    6.53
  14  -3   7   36.85    4.85
 -13   3  -7   28.43    4.58
  13  -3   7   31.93    4.11
 -12   3  -7  239.68   10.85
  12  -3   7  259.28   10.91
 -11   3  -7   70.80    5.66
  11  -3   7   66.08    5.32
 -10   3  -7  199.73    9.90
  10  -3   7  214.15    9.30
  -9   3  -7   73.22    5.12
   9  -3   7   76.26    4.78
  -8   3  -7  551.71   19.60
   8  -3   7  502.67   18.73
  -7   3  -7   22.23    2.69
   7  -3   7   19.81    2.49
  -6   3  -7  190.03    8.35
   6  -3   7  183.77    9.97
  -5   3  -7   50.12    5.52
   5  -3   7   43.99    3.03
  -4   3  -7  724.23   22.03
   4  -3   7  691.02   28.83
  -3   3  -7  217.38    9.09
   3  -3   7  213.95    9.09
  -2   3  -7  299.50   11.79
   2  -3   7  336.42   13.47
  -1   3  -7   60.16    4.31
   1  -3   7   49.98    4.45
   0   3  -7  325.10   12.13
   0  -3   7  313.18   10.51
   1   3  -7   67.03    3.57
  -1  -3   7   64.27    3.44
   2   3  -7  299.70   10.78
  -2  -3   7  314.32   11.59
   3   3  -7  198.72    8.29
  -3  -3   7  183.03    8.82
   4   3  -7  681.05   24.39
  -4  -3   7  638.61   25.46
   5   3  -7   45.00    3.03
  -5  -3   7   38.73    2.69
   6   3  -7  157.97    6.80
  -6  -3   7  145.04    6.13
   7   3  -7   17.38    2.83
  -7  -3   7   20.48    3.77
   8   3  -7  443.26   14.82
  -8  -3   7  448.58   15.02
   9   3  -7   58.61    4.04
  -9  -3   7   55.98    3.91
  10   3  -7  141.53    6.94
 -10  -3   7  160.87    7.21
  11   3  -7   41.97    3.91
 -11  -3   7   45.00    3.77
  12   3  -7  165.38    8.08
 -12  -3   7  200.07    8.89
  13   3  -7   24.32    3.37
 -13  -3   7   24.52    3.64
  14   3  -7   48.10    4.51
 -14  -3   7   26.74    4.18
  15   3  -7   20.82    3.91
 -15  -3   7   18.86    3.91
  16   3  -7  153.86    8.15
 -16  -3   7  169.62    9.70
  17   3  -7    3.23    3.44
 -17  -3   7   -0.07    4.11
 -17   3  -6  137.83   10.31
  17  -3   6  145.10    9.70
 -16   3  -6   30.99    6.06
  16  -3   6   22.63    4.72
 -15   3  -6   75.65    6.47
  15  -3   6   65.28    8.15
 -14   3  -6   45.27    4.85
  14  -3   6   47.63    4.58
 -13   3  -6  140.18    7.54
  13  -3   6  137.63    7.61
 -12   3  -6    2.16    2.63
  12  -3   6    1.41    2.36
 -11   3  -6  302.20   11.99
  11  -3   6  328.67   12.73
 -10   3  -6   20.55    3.10
  10  -3   6   18.12    2.90
  -9   3  -6  407.15   14.21
   9  -3   6  458.95   16.23
  -8   3  -6   50.99    3.50
   8  -3   6   41.43    3.17
  -7   3  -6  342.82   12.53
   7  -3   6  298.89   11.79
  -6   3  -6    8.96    2.83
   6  -3   6    7.07    2.43
  -5   3  -6  465.15   17.25
   5  -3   6  418.94   15.02
  -4   3  -6    9.09    1.89
   4  -3   6    9.90    2.29
  -3   3  -6  971.93   43.32
   3  -3   6  857.28   25.67
  -2   3  -6   29.17    2.49
   2  -3   6   28.63    2.29
  -1   3  -6  532.45   18.86
   1  -3   6  542.82   17.18
   0   3  -6    0.00    1.89
   0  -3   6   -0.54    3.17
   1   3  -6  511.70   15.02
  -1  -3   6  550.63   22.43
   2   3  -6   26.27    2.29
  -2  -3   6   28.70    2.09
   3   3  -6  914.40   26.88
  -3  -3   6  872.10   25.46
   4   3  -6    6.47    1.89
  -4  -3   6    6.74    1.68
   5   3  -6  419.68   13.14
  -5  -3   6  351.57   12.19
   6   3  -6   10.64    1.95
  -6  -3   6    7.81    1.89
   7   3  -6  300.65    9.63
  -7  -3   6  251.61    9.23
   8   3  -6   39.00    2.76
  -8  -3   6   40.82    3.57
   9   3  -6  340.66   10.91
  -9  -3   6  360.74   12.53
  10   3  -6   15.36    4.51
 -10  -3   6   13.27    2.90
  11   3  -6  254.23    9.50
 -11  -3   6  244.87    9.70
  12   3  -6    3.03    2.63
 -12  -3   6    4.18    3.84
  13   3  -6  107.24    6.00
 -13  -3   6   98.15    6.20
  14   3  -6   33.35    3.71
 -14  -3   6   36.78    3.91
  15   3  -6   57.06    4.92
 -15  -3   6   47.76    5.25
  16   3  -6   19.47    4.11
 -16  -3   6   18.93    4.58
  17   3  -6  134.86    7.81
 -17  -3   6  140.05   11.99
  18   3  -6   -0.40    5.39
 -18  -3   6    0.40    5.86
 -17   3  -5   30.45    6.06
  17  -3   5   36.92    5.32
 -16   3  -5   16.44    4.51
  16  -3   5   22.36    4.45
 -15   3  -5   28.50    4.72
  15  -3   5   21.83    3.77
 -14   3  -5  207.68   10.71
  14  -3   5  186.87    8.62
 -13   3  -5    7.07    3.97
  13  -3   5    5.05    3.03
 -12   3  -5  195.49    9.16
  12  -3   5  197.92   10.31
 -11   3  -5   11.18    2.76
  11  -3   5   10.71    3.30
 -10   3  -5  735.89   25.33
  10  -3   5  726.66   24.79
  -9   3  -5   62.72    4.04
   9  -3   5   69.25    4.04
  -8   3  -5  308.26   11.52
   8  -3   5  326.51   12.19
  -7   3  -5   23.98    2.76
   7  -3   5   25.80    2.49
  -6   3  -5  522.01   17.92
   6  -3   5  484.69   17.65
  -5   3  -5   11.25    1.75
   5  -3   5   11.59    1.75
  -4   3  -5  591.66   18.32
   4  -3   5  505.90   15.56
  -3   3  -5   20.55    2.02
   3  -3   5   17.72    1.82
  -2   3  -5  937.04   42.98
   2  -3   5  913.46   38.67
  -1   3  -5   65.61    3.03
   1  -3   5   59.15    4.04
   0   3  -5 1291.98   34.02
   0  -3   5 1342.43   36.92
   1   3  -5   63.86    3.44
  -1  -3   5   67.36    3.10
   2   3  -5  916.15   26.61
  -2  -3   5  869.74   28.36
   3   3  -5   16.10    1.68
  -3  -3   5   19.40    1.75
   4   3  -5  572.60   17.45
  -4  -3   5  516.48   14.89
   5   3  -5   11.18    1.75
  -5  -3   5   10.24    1.68
   6   3  -5  497.48   15.16
  -6  -3   5  470.94   16.44
   7   3  -5   21.35    2.22
  -7  -3   5   27.15    2.56
   8   3  -5  265.55    9.77
  -8  -3   5  297.08   10.58
   9   3  -5   55.04    4.18
  -9  -3   5   64.53    4.24
  10   3  -5  642.32   19.33
 -10  -3   5  651.68   28.56
  11   3  -5    5.79    2.49
 -11  -3   5    6.60    2.76
  12   3  -5  176.76    7.34
 -12  -3   5  179.80    8.35
  13   3  -5    6.26    2.49
 -13  -3   5    8.69    3.71
  14   3  -5  167.20    8.15
 -14  -3   5  157.03   11.92
  15   3  -5   23.24    4.24
 -15  -3   5   26.81    4.24
  16   3  -5    9.70    3.84
 -16  -3   5   10.64    4.58
  17   3  -5   34.56    4.31
 -17  -3   5   32.07    4.78
  18   3  -5   85.75    6.33
 -18  -3   5  113.64    8.49
 -18   3  -4    5.52    8.29
  18  -3   4    2.49    3.64
 -17   3  -4   16.64    6.26
  17  -3   4   23.17    4.65
 -16   3  -4    5.32    3.77
  16  -3   4    3.97    3.44
 -15   3  -4   68.51    5.46
  15  -3   4   82.39    6.00
 -14   3  -4    9.97    3.03
  14  -3   4    4.85    2.69
 -13   3  -4  257.74   12.13
  13  -3   4  233.08   10.58
 -12   3  -4   37.72    3.77
  12  -3   4   38.26    3.30
 -11   3  -4  526.38   20.88
  11  -3   4  503.08   17.25
 -10   3  -4    2.49    2.29
  10  -3   4    4.45    2.36
  -9   3  -4  224.59    9.23
   9  -3   4  238.74   10.10
  -8   3  -4   79.56    4.58
   8  -3   4   80.37    3.97
  -7   3  -4  390.64   17.92
   7  -3   4  437.13   19.20
  -6   3  -4   11.86    2.09
   6  -3   4   10.04    2.02
  -5   3  -4  581.35   16.84
   5  -3   4  495.87   16.23
  -4   3  -4   58.34    3.30
   4  -3   4   63.12    3.37
  -3   3  -4  842.19   25.53
   3  -3   4  828.24   24.25
  -2   3  -4   63.93    3.37
   2  -3   4   67.57    3.17
  -1   3  -4 1047.38   30.11
   1  -3   4 1072.51   30.52
   0  -3   4   -0.61    1.82
   1   3  -4 1085.24   31.32
  -1  -3   4 1058.96   28.29
   2   3  -4   74.30    3.44
  -2  -3   4   74.03    3.64
   3   3  -4  837.13   24.45
  -3  -3   4  815.58   23.31
   4   3  -4   66.83    3.23
  -4  -3   4   64.20    3.64
   5   3  -4  595.43   17.18
  -5  -3   4  507.79   16.64
   6   3  -4   13.67    1.82
  -6  -3   4   10.10    1.68
   7   3  -4  404.93   16.50
  -7  -3   4  403.04   17.04
   8   3  -4   83.19    4.24
  -8  -3   4   78.68    3.97
   9   3  -4  239.41    8.42
  -9  -3   4  253.02   10.17
  10   3  -4    2.49    1.89
 -10  -3   4    1.95    2.09
  11   3  -4  487.25   24.18
 -11  -3   4  505.84   19.60
  12   3  -4   36.24    3.23
 -12  -3   4   39.00    3.50
  13   3  -4  238.00    9.36
 -13  -3   4  208.16    9.57
  14   3  -4    9.30    2.69
 -14  -3   4    7.48    3.10
  15   3  -4   74.64    4.78
 -15  -3   4   81.31    6.06
  16   3  -4    7.07    3.44
 -16  -3   4    2.49    3.84
  17   3  -4   27.69    4.51
 -17  -3   4   28.63    5.86
  18   3  -4    5.93    5.19
 -18   3  -3   47.22    5.39
  18  -3   3   47.29    4.85
 -17   3  -3    3.77    4.11
  17  -3   3    4.65    3.10
 -16   3  -3   66.89    5.66
  16  -3   3   69.25    5.93
 -15   3  -3    2.90    3.03
  15  -3   3    5.52    4.18
 -14   3  -3  110.61    7.48
  14  -3   3  127.92    7.07
 -13   3  -3   44.93    4.24
  13  -3   3   39.68    3.50
 -12   3  -3  624.26   22.16
  12  -3   3  560.47   18.93
 -11   3  -3  119.98    5.86
  11  -3   3  123.41    5.59
 -10   3  -3  306.44   11.99
  10  -3   3  329.61   12.33
  -9   3  -3   29.30    2.83
   9  -3   3   26.07    2.76
  -8   3  -3  274.98   10.31
   8  -3   3  283.81    9.70
  -7   3  -3   64.06    3.23
   7  -3   3   66.56    3.50
  -6   3  -3  532.99   16.44
   6  -3   3  571.38   26.07
  -5   3  -3   24.99    2.29
   5  -3   3   24.59    2.09
  -4   3  -3  940.00   25.46
   4  -3   3  935.15   27.62
  -3   3  -3  175.21    7.14
   3  -3   3  161.61    6.87
  -2   3  -3 1189.05   32.67
   2  -3   3 1186.42   34.89
  -1   3  -3  249.05    8.82
   1  -3   3  241.37    8.96
   0   3  -3  467.51   15.49
   0  -3   3  530.63   17.25
   1   3  -3  249.72   13.74
  -1  -3   3  255.04   12.46
   2   3  -3 1245.77   52.14
  -2  -3   3 1228.45   35.30
   3   3  -3  172.05    6.40
  -3  -3   3  167.74    6.80
   4   3  -3  976.98   26.95
  -4  -3   3  902.21   25.73
   5   3  -3   31.53    2.36
  -5  -3   3   29.71    2.36
   6   3  -3  558.99   16.71
  -6  -3   3  581.08   18.26
   7   3  -3   60.90    4.11
  -7  -3   3   59.55    3.50
   8   3  -3  299.03   10.71
  -8  -3   3  301.79   10.85
   9   3  -3   27.75    3.23
  -9  -3   3   25.40    3.23
  10   3  -3  355.08   12.19
 -10  -3   3  343.49   11.45
  11   3  -3  137.15    6.53
 -11  -3   3  131.49    5.86
  12   3  -3  636.86   23.71
 -12  -3   3  582.90   29.17
  13   3  -3   54.23    4.38
 -13  -3   3   48.17    3.97
  14   3  -3  116.14    6.20
 -14  -3   3  136.35    7.48
  15   3  -3    4.78    3.71
 -15  -3   3    8.89    4.45
  16   3  -3   68.11    5.25
 -16  -3   3   74.71    5.39
  17   3  -3    5.05    3.57
 -17  -3   3    3.44    3.71
  18   3  -3   43.52    5.12
 -18  -3   3   53.69    5.73
 -19   3  -2   37.99    5.79
  19  -3   2   38.80    4.18
 -18   3  -2   17.31    4.58
  18  -3   2   19.74    4.31
 -17   3  -2   77.06    6.47
  17  -3   2   82.05    5.19
 -16   3  -2   14.82    3.10
  16  -3   2   12.87    2.90
 -15   3  -2  107.38    5.93
  15  -3   2  121.52    6.53
 -14   3  -2   41.29    3.84
  14  -3   2   44.26    3.57
 -13   3  -2  287.71   10.85
  13  -3   2  279.49   12.06
 -12   3  -2   53.55    4.04
  12  -3   2   52.34    4.78
 -11   3  -2  316.75   11.32
  11  -3   2  266.43   10.04
 -10   3  -2   68.44    4.24
  10  -3   2   63.05    4.24
  -9   3  -2  321.19   12.26
   9  -3   2  330.83   12.87
  -8   3  -2   45.61    2.83
   8  -3   2   41.83    2.76
  -7   3  -2  170.97    6.53
   7  -3   2  215.36    7.54
  -6   3  -2  202.70    7.75
   6  -3   2  201.96    7.41
  -5   3  -2 1380.63   37.59
   5  -3   2 1428.05   38.33
  -4   3  -2  153.46    5.66
   4  -3   2  152.98    5.73
  -3   3  -2 1376.25   37.72
   3  -3   2 1230.00   33.82
  -2   3  -2   37.52    2.29
   2  -3   2   37.39    2.16
  -1   3  -2  891.36   25.87
   1  -3   2  832.89   23.98
   0   3  -2    0.61    1.35
   0  -3   2    0.40    1.35
   1   3  -2  879.24   26.00
  -1  -3   2  830.13   24.25
   2   3  -2   41.83    2.56
  -2  -3   2   40.89    2.49
   3   3  -2 1393.43   55.71
  -3  -3   2 1250.89   45.54
   4   3  -2  163.09    6.53
  -4  -3   2  162.68    6.13
   5   3  -2 1507.48   40.55
  -5  -3   2 1469.15   38.46
   6   3  -2  227.29    8.15
  -6  -3   2  219.94   10.78
   7   3  -2  194.68    7.75
  -7  -3   2  217.65    8.15
   8   3  -2   49.38    5.05
  -8  -3   2   43.52    3.23
   9   3  -2  387.88   12.60
  -9  -3   2  365.38   20.41
  10   3  -2   77.33    4.04
 -10  -3   2   80.50    6.20
  11   3  -2  398.19   18.26
 -11  -3   2  323.82   11.59
  12   3  -2   63.19    5.12
 -12  -3   2   68.11    4.98
  13   3  -2  360.20   13.47
 -13  -3   2  358.11   13.81
  14   3  -2   48.10    4.24
 -14  -3   2   49.24    3.84
  15   3  -2  122.67    7.01
 -15  -3   2  134.73    9.70
  16   3  -2   16.30    3.97
 -16  -3   2   14.89    4.51
  17   3  -2   69.99    6.33
 -17  -3   2   85.75    7.01
  18   3  -2   19.13    3.91
 -18  -3   2   27.15    4.65
 -19   3  -1    1.68    3.91
  19  -3   1    4.58    3.03
 -18   3  -1   56.65    6.60
  18  -3   1   49.04    6.80
 -17   3  -1   16.91    3.84
  17  -3   1   19.94    2.83
 -16   3  -1  175.48    9.03
  16  -3   1  189.36    9.30
 -15   3  -1  116.74    8.49
  15  -3   1  111.69    6.60
 -14   3  -1  328.40   12.66
  14  -3   1  329.68   13.74
 -13   3  -1   43.58    4.18
  13  -3   1   42.78    3.84
 -12   3  -1  155.27    8.62
  12  -3   1  163.09    8.56
 -11   3  -1  121.05    6.60
  11  -3   1  114.05    4.98
 -10   3  -1  364.10   14.69
  10  -3   1  330.22   11.32
  -9   3  -1   39.41    2.43
   9  -3   1   37.05    2.43
  -8   3  -1  695.06   20.68
   8  -3   1  775.29   22.97
  -7   3  -1  254.64   10.17
   7  -3   1  256.46    8.69
  -6   3  -1 1351.39   40.55
   6  -3   1 1375.37   37.59
  -5   3  -1   93.64    4.24
   5  -3   1  102.06    4.58
  -4   3  -1 1656.42   63.66
   4  -3   1 1753.56   47.42
  -3   3  -1  684.49   21.42
   3  -3   1  668.59   20.01
  -2   3  -1  735.48   22.63
   2  -3   1  668.39   20.41
  -1   3  -1   83.06    3.77
   1  -3   1   81.24    3.64
   0   3  -1 1245.43   34.89
   0  -3   1 1332.94   37.93
   1   3  -1   79.09    3.57
  -1  -3   1   79.76    4.11
   2   3  -1  756.97   28.50
  -2  -3   1  693.11   21.42
   3   3  -1  732.11   22.84
  -3  -3   1  704.97   26.68
   4   3  -1 1782.39   47.83
  -4  -3   1 1809.74   48.37
   5   3  -1  106.97    6.00
  -5  -3   1  100.44    5.32
   6   3  -1 1486.19   39.61
  -6  -3   1 1459.38   39.27
   7   3  -1  274.91   12.06
  -7  -3   1  266.16    8.69
   8   3  -1  766.00   29.44
  -8  -3   1  862.94   46.08
   9   3  -1   48.97    3.17
  -9  -3   1   54.36    3.71
  10   3  -1  544.50   17.04
 -10  -3   1  448.17   15.76
  11   3  -1  158.84    7.75
 -11  -3   1  145.44   10.37
  12   3  -1  227.02   10.85
 -12  -3   1  233.55   15.02
  13   3  -1   58.61    4.78
 -13  -3   1   58.47    5.12
  14   3  -1  376.57   15.36
 -14  -3   1  428.30   18.66
  15   3  -1  139.85    8.08
 -15  -3   1  141.80    7.34
  16   3  -1  232.81    9.97
 -16  -3   1  260.70   20.28
  17   3  -1   19.06    4.78
 -17  -3   1   25.46    7.81
  18   3  -1   63.79    6.47
 -18  -3   1   60.49    6.06
  20  -3   0    2.69    6.26
 -19   3   0   13.54    6.06
  19  -3   0    4.58    4.45
 -18   3   0   10.51    3.64
  18  -3   0    2.49    2.96
 -17   3   0   65.48    5.59
  17  -3   0   65.48    5.52
 -16   3   0    7.75    4.92
  16  -3   0    2.36    3.57
 -15   3   0  315.40   12.80
  15  -3   0  312.70   17.92
 -14   3   0   26.95    3.37
  14  -3   0   29.84    2.63
 -13   3   0  118.70    6.20
  13  -3   0  122.54    5.93
 -12   3   0    9.09    2.43
  12  -3   0   10.51    1.82
 -11   3   0   56.45    7.14
  11  -3   0   55.44    4.04
 -10   3   0  262.52   10.71
  10  -3   0  284.88    9.30
  -9   3   0   55.44    3.44
   9  -3   0   52.41    2.90
  -8   3   0  382.76   13.07
   8  -3   0  385.73   12.53
  -7   3   0 1098.17   33.35
   7  -3   0 1066.17   32.47
  -6   3   0  108.46    5.52
   6  -3   0  101.38    3.77
  -5   3   0  513.58   16.71
   5  -3   0  502.74   16.84
  -4   3   0    4.85    1.15
   4  -3   0    6.74    1.28
  -3   3   0  797.79   23.91
   3  -3   0  819.01   23.98
  -2   3   0 1369.18   37.19
   2  -3   0 1378.68   36.92
  -1   3   0  644.68   26.95
   1  -3   0  620.22   18.05
   0   3   0   -0.20    0.94
   0  -3   0    1.01    1.01
   1   3   0  663.07   20.28
  -1  -3   0  630.93   19.00
   2   3   0 1431.89   38.94
  -2  -3   0 1431.83   54.56
   3   3   0  880.79   33.68
  -3  -3   0  857.21   25.06
   4   3   0    4.04    1.68
  -4  -3   0    7.01    1.35
   5   3   0  547.94   17.04
  -5  -3   0  538.85   15.63
   6   3   0  106.91    6.87
  -6  -3   0  101.72    4.98
   7   3   0 1230.27   47.42
  -7  -3   0 1256.61   49.71
   8   3   0  489.20   34.02
  -8  -3   0  446.83   20.82
   9   3   0   78.75    4.04
  -9  -3   0   74.24    6.60
  10   3   0  397.58   14.28
 -10  -3   0  400.61   12.46
  11   3   0   97.21    4.98
 -11  -3   0   87.57    5.46
  12   3   0   13.94    2.76
 -12  -3   0   14.62    2.90
  13   3   0  172.86    8.15
 -13  -3   0  177.84    8.56
  14   3   0   32.47    4.04
 -14  -3   0   36.38    6.33
  15   3   0  449.66   21.49
 -15  -3   0  445.55   17.99
  16   3   0    8.42    3.30
 -16  -3   0    3.30    3.10
  17   3   0   81.58    6.47
 -17  -3   0   96.06    7.28
  18   3   0    5.46    4.11
 -18  -3   0    5.05    4.78
 -19   3   1    1.41    2.83
  19  -3  -1    0.81    2.90
 -18   3   1   30.92    3.50
  18  -3  -1   41.56    3.64
 -17   3   1   12.33    3.03
  17  -3  -1   13.81    2.83
 -16   3   1  171.58    9.16
  16  -3  -1  139.51    7.41
 -15   3   1   97.34    5.32
  15  -3  -1   99.36    5.46
 -14   3   1  288.12   10.71
  14  -3  -1  289.26   11.59
 -13   3   1   36.51    2.83
  13  -3  -1   42.30    2.83
 -12   3   1  146.52    7.95
  12  -3  -1  135.07    6.33
 -11   3   1   92.63    4.51
  11  -3  -1   89.80    4.65
 -10   3   1  297.28   17.11
  10  -3  -1  329.95   11.86
  -9   3   1   30.99    2.56
   9  -3  -1   38.53    2.22
  -8   3   1  706.99   20.68
   8  -3  -1  666.77   20.82
  -7   3   1  239.14    8.56
   7  -3  -1  241.64    8.96
  -6   3   1 1255.53   37.52
   6  -3  -1 1269.75   35.10
  -5   3   1   96.47    5.46
   5  -3  -1   98.96    4.24
  -4   3   1 1625.16   62.24
   4  -3  -1 1622.74   44.80
  -3   3   1  667.98   20.34
   3  -3  -1  649.46   18.39
  -2   3   1  694.32   22.43
   2  -3  -1  712.85   20.61
  -1   3   1   77.27    3.50
   1  -3  -1   78.14    3.37
   0   3   1 1347.89   51.33
   0  -3  -1 1178.20   31.86
   1   3   1   78.41    5.39
  -1  -3  -1   74.77    3.03
   2   3   1  679.70   20.55
  -2  -3  -1  715.21   21.69
   3   3   1  723.69   21.96
  -3  -3  -1  696.01   20.55
   4   3   1 1827.19   49.51
  -4  -3  -1 1778.75   65.61
   5   3   1  116.00    4.78
  -5  -3  -1  105.56    4.72
   6   3   1 1473.86   40.01
  -6  -3  -1 1469.15   42.30
   7   3   1  278.01    8.56
  -7  -3  -1  277.81    9.43
   8   3   1  924.03   29.37
  -8  -3  -1  791.87   42.78
   9   3   1   55.37    5.25
  -9  -3  -1   46.82    3.37
  10   3   1  471.08   15.22
 -10  -3  -1  538.91   19.47
  11   3   1  154.20    6.87
 -11  -3  -1  153.52    7.48
  12   3   1  262.86   10.24
 -12  -3  -1  238.67   11.32
  13   3   1   63.19    4.85
 -13  -3  -1   59.28    4.51
  14   3   1  436.39   16.98
 -14  -3  -1  441.57   19.20
  15   3   1  154.60    7.54
 -15  -3  -1  159.18    8.96
  16   3   1  274.17   10.24
 -16  -3  -1  266.09   11.86
  17   3   1   22.23    4.72
 -17  -3  -1   20.21    6.74
  18   3   1   53.62    5.93
 -18  -3  -1   70.87    6.26
  19  -3  -2   32.60    4.65
 -18   3   2   10.98    4.38
  18  -3  -2   14.08    2.83
 -17   3   2   46.95    5.32
  17  -3  -2   42.44    3.97
 -16   3   2    9.30    2.83
  16  -3  -2   11.72    2.63
 -15   3   2   89.59    5.12
  15  -3  -2   79.42    3.91
 -14   3   2   36.17    2.90
  14  -3  -2   29.37    2.63
 -13   3   2  226.41    7.88
  13  -3  -2  223.92    8.62
 -12   3   2   40.62    2.96
  12  -3  -2   38.20    2.49
 -11   3   2  220.08    7.88
  11  -3  -2  250.19    8.96
 -10   3   2   60.16    4.78
  10  -3  -2   52.61    2.96
  -9   3   2  267.97    9.09
   9  -3  -2  262.65   12.19
  -8   3   2   37.32    2.56
   8  -3  -2   38.33    2.29
  -7   3   2  187.54    7.28
   7  -3  -2  161.00    5.79
  -6   3   2  182.96    6.67
   6  -3  -2  186.40    6.80
  -5   3   2 1296.15   37.72
   5  -3  -2 1281.87   36.04
  -4   3   2  144.77    5.32
   4  -3  -2  137.42    4.92
  -3   3   2 1182.38   33.01
   3  -3  -2 1262.27   32.81
  -2   3   2   36.38    2.16
   2  -3  -2   38.73    2.69
  -1   3   2  787.62   23.78
   1  -3  -2  802.24   30.65
   0   3   2    0.13    0.88
   0  -3  -2    0.00    1.15
   1   3   2  817.60   23.85
  -1  -3  -2  826.15   24.18
   2   3   2   38.73    2.36
  -2  -3  -2   38.67    1.95
   3   3   2 1322.63   52.48
  -3  -3  -2 1285.17   33.48
   4   3   2  159.59    7.41
  -4  -3  -2  156.02    6.33
   5   3   2 1472.72   40.08
  -5  -3  -2 1471.23   41.77
   6   3   2  210.18    6.87
  -6  -3  -2  220.01    8.82
   7   3   2  229.91    7.88
  -7  -3  -2  199.13   10.78
   8   3   2   47.96    3.23
  -8  -3  -2   48.30    3.23
   9   3   2  415.23   13.54
  -9  -3  -2  395.70   13.81
  10   3   2   94.31    7.01
 -10  -3  -2   80.77    6.60
  11   3   2  359.32   13.41
 -11  -3  -2  425.94   17.11
  12   3   2   72.35    4.51
 -12  -3  -2   71.61    4.04
  13   3   2  399.87   14.48
 -13  -3  -2  371.92   15.49
  14   3   2   49.45    4.85
 -14  -3  -2   41.56    4.85
  15   3   2  156.55    7.41
 -15  -3  -2  133.18    8.02
  16   3   2   16.17    3.84
 -16  -3  -2   18.79    4.11
  17   3   2  104.21    7.21
 -17  -3  -2  107.85    7.34
 -18   3   3   23.98    5.86
  18  -3  -3   23.11    3.17
 -17   3   3    1.48    3.17
  17  -3  -3    0.81    1.82
 -16   3   3   39.88    3.77
  16  -3  -3   33.01    3.03
 -15   3   3    4.18    1.89
  15  -3  -3    1.82    1.68
 -14   3   3   84.54    5.19
  14  -3  -3   69.99    3.44
 -13   3   3   27.82    2.69
  13  -3  -3   25.87    2.02
 -12   3   3  373.00   16.64
  12  -3  -3  405.06   14.21
 -11   3   3   85.49    6.33
  11  -3  -3   92.29    5.93
 -10   3   3  259.42   13.74
  10  -3  -3  234.16    8.42
   9  -3  -3   20.75    1.62
  -8   3   3  260.50   14.48
   8  -3  -3  248.91    9.43
  -7   3   3   52.95    2.49
   7  -3  -3   50.86    2.43
  -6   3   3  479.50   16.17
   6  -3  -3  430.79   19.33
  -5   3   3   23.98    1.48
   5  -3  -3   24.39    1.62
  -4   3   3  796.92   32.00
   4  -3  -3  817.06   21.69
  -3   3   3  144.23    7.41
   3  -3  -3  143.89    5.19
  -2   3   3 1080.12   30.85
   2  -3  -3 1036.80   39.41
  -1   3   3  214.49   10.85
   1  -3  -3  223.58    8.29
   0   3   3  481.45   14.42
   0  -3  -3  434.36   16.98
   1   3   3  233.75    8.76
  -1  -3  -3  224.19    7.34
   2   3   3 1128.62   47.02
  -2  -3  -3 1153.21   33.35
   3   3   3  172.18    6.94
  -3  -3  -3  166.32    6.33
   4   3   3  921.74   27.62
  -4  -3  -3  976.71   42.17
   5   3   3   29.44    2.16
  -5  -3  -3   29.98    2.22
   6   3   3  598.87   17.58
  -6  -3  -3  540.33   16.03
   7   3   3   64.87    3.84
  -7  -3  -3   66.22    3.37
   8   3   3  334.19   11.65
  -8  -3  -3  325.84   11.59
   9   3   3   34.42    2.83
  -9  -3  -3   29.17    3.64
  10   3   3  383.98   13.81
 -10  -3  -3  374.48   15.16
  11   3   3  148.40    7.61
 -11  -3  -3  141.87   11.12
  12   3   3  702.14   30.31
 -12  -3  -3  712.92   25.06
  13   3   3   54.63    4.72
 -13  -3  -3   60.63    4.72
  14   3   3  155.81    7.95
 -14  -3  -3  119.50   11.72
  15   3   3    8.49    3.10
 -15  -3  -3    8.29    3.57
  16   3   3   88.18    6.74
 -16  -3  -3   78.34    6.06
  17   3   3    5.59    4.38
 -17  -3  -3    4.51    4.58
 -18   3   4    5.05    3.37
  18  -3  -4    2.76    2.43
 -17   3   4    9.97    2.63
  17  -3  -4   11.45    2.09
 -16   3   4    2.43    2.02
  16  -3  -4    1.55    2.36
 -15   3   4   43.11    5.73
  15  -3  -4   33.88    2.63
 -14   3   4    4.98    2.22
  14  -3  -4    3.37    1.89
 -13   3   4  135.40    6.26
  13  -3  -4  145.51    8.96
 -12   3   4   23.51    2.16
  12  -3  -4   26.47    2.02
 -11   3   4  347.80   19.13
  11  -3  -4  347.53   12.19
 -10   3   4    2.83    1.15
  10  -3  -4    2.69    0.88
  -9   3   4  172.72   10.91
   9  -3  -4  170.50    7.01
  -8   3   4   60.22    3.17
   8  -3  -4   61.84    2.76
   7  -3  -4  294.72   10.58
   6  -3  -4    8.69    0.94
  -2   3   4   59.55    3.50
  -1   3   4  937.04   26.81
   1  -3  -4  898.71   35.43
   0   3   4    0.74    0.67
   0  -3  -4   -0.40    0.81
   1   3   4  958.39   26.07
  -1  -3  -4  953.14   27.96
   2   3   4   67.77    3.37
  -2  -3  -4   62.51    4.31
   3   3   4  785.13   23.51
  -3  -3  -4  759.06   33.08
   4   3   4   57.93    3.17
  -4  -3  -4   60.90    3.23
   5   3   4  505.16   15.22
  -5  -3  -4  591.39   17.78
   6   3   4   11.92    1.55
  -6  -3  -4   14.35    1.75
  -7  -3  -4  302.13   12.66
   8   3   4   87.03    5.05
  -8  -3  -4   93.43    4.72
   9   3   4  264.94   10.44
  -9  -3  -4  255.98    9.57
  10   3   4   -0.88    2.36
 -10  -3  -4    1.82    2.56
  11   3   4  569.77   18.53
 -11  -3  -4  544.77   21.35
  12   3   4   42.44    4.18
 -12  -3  -4   43.32    4.18
  13   3   4  261.91    9.77
 -13  -3  -4  286.30   18.59
  14   3   4   10.91    5.86
 -14  -3  -4   10.04    4.45
  15   3   4   93.57    5.79
 -15  -3  -4   89.53    6.47
  16   3   4    7.68    3.71
 -16  -3  -4    9.63    3.97
  17   3   4   31.19    4.85
 -17  -3  -4   28.02    5.39
 -17   3   5   11.05    2.02
  17  -3  -5   13.07    1.82
 -16   3   5    6.53    2.36
  16  -3  -5    6.26    2.16
 -15   3   5    6.00    3.23
  15  -3  -5    7.81    1.62
 -14   3   5   73.16    7.21
  14  -3  -5   85.62    4.85
 -13   3   5    1.82    1.35
  13  -3  -5    2.43    1.55
 -12   3   5  111.76    5.46
  12  -3  -5  110.95    4.58
 -11   3   5    5.25    1.62
  11  -3  -5    4.72    1.01
  10  -3  -5  432.01   14.82
   9  -3  -5   41.97    2.49
   8  -3  -5  189.43   10.98
  -2   3   5  759.53   29.10
  -1   3   5   54.83    2.56
   1  -3  -5   54.63    2.43
   0   3   5 1205.35   33.28
   0  -3  -5 1111.17   42.57
   1   3   5   56.18    2.69
  -1  -3  -5   57.87    2.90
   2   3   5  862.94   25.73
  -2  -3  -5  809.85   23.78
   3   3   5   17.31    1.62
  -3  -3  -5   19.20    1.75
   4   3   5  489.20   14.95
  -4  -3  -5  564.11   17.51
   5   3   5    8.76    1.41
  -5  -3  -5   12.60    1.75
   6   3   5  455.79   14.42
  -6  -3  -5  503.61   22.57
   7   3   5   26.41    2.29
  -7  -3  -5   25.67    2.16
   8   3   5  322.07   11.59
  -8  -3  -5  277.94   11.25
   9   3   5   71.41    4.24
  10   3   5  780.75   25.26
 -10  -3  -5  728.61   32.60
  11   3   5    9.63    2.56
 -11  -3  -5   10.64    2.76
  12   3   5  223.31    9.57
 -12  -3  -5  221.09   13.34
  13   3   5    5.66    2.83
 -13  -3  -5    8.08    2.96
  14   3   5  214.82   10.85
 -14  -3  -5  233.75   11.38
  15   3   5   29.64    3.71
 -15  -3  -5   22.90    6.47
  16   3   5   30.85    4.92
 -16  -3  -5   15.70    6.80
 -16   3   6    4.38    3.10
  16  -3  -6    5.73    1.48
 -15   3   6   14.15    3.84
  15  -3  -6   24.05    2.02
 -14   3   6   14.95    3.44
  14  -3  -6   14.82    1.62
 -13   3   6   55.84    5.59
  13  -3  -6   47.96    2.76
  12  -3  -6    0.81    0.88
  11  -3  -6  137.49    6.53
  10  -3  -6    7.01    0.88
  -2   3   6   20.14    1.01
  -1   3   6  452.69   13.81
   1  -3  -6  448.17   20.82
   0   3   6   -0.34    0.67
   0  -3  -6    0.13    0.94
   1   3   6  464.27   14.89
  -1  -3  -6  449.72   14.28
   2   3   6   26.07    1.75
  -2  -3  -6   25.80    2.96
   3   3   6  780.75   22.63
  -3  -3  -6  809.85   33.61
   4   3   6    8.22    1.41
  -4  -3  -6    7.61    1.55
   5   3   6  362.35   13.67
  -5  -3  -6  416.65   12.87
   6   3   6    7.41    1.82
  -6  -3  -6    7.28    2.02
   7   3   6  285.76   10.64
  -7  -3  -6  295.19   10.78
   8   3   6   47.56    3.30
  -8  -3  -6   43.25    4.65
   9   3   6  424.06   15.70
  -9  -3  -6  375.29   15.02
  10   3   6   15.02    2.43
 -10  -3  -6   16.98    2.90
  11   3   6  317.08   12.87
 -11  -3  -6  314.73   19.74
  12   3   6    0.47    2.49
 -12  -3  -6    0.74    2.56
  13   3   6  142.68    7.54
 -13  -3  -6  136.14    7.48
  14   3   6   44.66    4.72
 -14  -3  -6   58.20    6.20
  15   3   6   72.08    5.86
 -15  -3  -6   93.37    6.87
  16   3   6   13.27    4.38
 -16  -3  -6   25.26    6.67
 -16   3   7   35.70    3.10
 -15   3   7    6.67    1.62
  15  -3  -7    7.07    1.28
 -14   3   7    9.16    1.89
  14  -3  -7   16.50    1.35
  13  -3  -7    8.42    1.48
  -2   3   7  235.30    9.70
  -1   3   7   50.32    2.63
   0   3   7  259.96    9.16
   0  -3  -7  268.92    9.97
   1   3   7   54.50    2.63
   2   3   7  287.58    9.36
  -2  -3  -7  253.56    9.50
   3   3   7  183.23    6.53
  -3  -3  -7  183.90    7.28
   4   3   7  613.22   18.19
  -4  -3  -7  568.96   16.71
   5   3   7   33.75    2.49
  -5  -3  -7   36.92    2.69
   6   3   7  127.92    4.98
  -6  -3  -7  149.68    6.53
   7   3   7   17.72    3.10
  -7  -3  -7   18.59    2.90
   8   3   7  487.25   18.19
  -8  -3  -7  472.02   24.25
   9   3   7   53.96    3.91
  -9  -3  -7   69.12    4.72
  10   3   7  211.93    8.56
 -10  -3  -7  173.40   11.18
  11   3   7   60.36    4.85
 -11  -3  -7   58.67    4.24
  12   3   7  249.18   11.52
 -12  -3  -7  237.32   11.25
  13   3   7   29.91    3.77
  14   3   7   42.98    4.85
 -14  -3  -7   74.03    6.33
  15   3   7   33.55    6.20
 -15  -3  -7   41.43    8.62
  16   3   7  219.88   22.84
 -16  -3  -7  247.29   20.68
  -2   3   8   50.86    2.63
  -1   3   8  461.92   16.03
   1  -3  -8  483.54   25.06
   0   3   8   -0.34    0.74
   1   3   8  451.14   14.35
  -1  -3  -8  506.71   16.37
   2   3   8   57.53    3.23
  -2  -3  -8   58.67    4.18
   3   3   8  228.63    8.42
   4   3   8   25.60    2.83
  -4  -3  -8   22.36    3.71
   5   3   8  366.46   13.88
  -5  -3  -8  342.34   14.01
   6   3   8  104.15    5.93
  -6  -3  -8  104.35    5.32
   7   3   8  309.67   11.52
  -7  -3  -8  325.44   10.51
   8   3   8   10.58    2.29
  -8  -3  -8   14.48    2.69
   9   3   8  383.03   14.28
  -9  -3  -8  359.52   15.83
  10   3   8   13.00    2.96
 -10  -3  -8   12.66    2.76
  11   3   8  105.56    5.79
  12   3   8   14.21    3.57
 -12  -3  -8   17.65    3.91
  13   3   8   86.16    6.33
 -13  -3  -8   94.31    5.93
  14   3   8   43.72    4.31
 -14  -3  -8   43.18    4.65
  15   3   8  233.82   15.70
 -15  -3  -8  243.59   16.71
  -2   3   9  237.59    9.57
  -1   3   9   48.43    2.90
   1  -3  -9   45.88    4.04
   0   3   9  210.11    8.22
   0  -3  -9  209.44    7.88
   1   3   9   46.28    2.69
  -1  -3  -9   47.83    3.71
   2   3   9  259.49    8.89
  -2  -3  -9  268.99    9.70
   3   3   9   38.94    2.56
  -3  -3  -9   37.79    2.76
   4   3   9   38.46    2.63
  -4  -3  -9   26.07    2.69
   5   3   9   42.57    3.17
  -5  -3  -9   47.49    3.17
   6   3   9  385.26   14.42
  -6  -3  -9  438.61   20.68
   7   3   9   31.05    3.10
  -7  -3  -9   29.84    3.57
   8   3   9  228.03   10.37
  -8  -3  -9  238.40   10.51
   9   3   9   11.72    2.63
  -9  -3  -9    5.52    2.83
  10   3   9  128.53    7.21
 -10  -3  -9  134.73    6.87
  11   3   9   63.25    5.32
 -11  -3  -9   73.56    5.66
  12   3   9   26.14    4.38
 -12  -3  -9   34.69    5.05
  13   3   9   16.17    3.91
 -13  -3  -9   15.36    3.64
  14   3   9  224.46   10.98
 -14  -3  -9  218.53   11.86
  -2   3  10   53.76    4.11
  -1   3  10  309.67   12.80
   1  -3 -10  331.50   12.80
   0   3  10   -0.34    1.15
   0  -3 -10    1.28    1.89
   1   3  10  336.89   11.52
  -1  -3 -10  349.89   11.99
   2   3  10   58.34    3.71
  -2  -3 -10   62.18    4.24
   3   3  10  104.75    4.92
  -3  -3 -10  112.16    7.01
   4   3  10   21.08    2.43
  -4  -3 -10   21.08    3.30
   5   3  10   61.03    3.44
  -5  -3 -10   54.77    3.71
   6   3  10  141.33    6.47
  -6  -3 -10  137.63    5.93
   7   3  10  377.44   14.82
  -7  -3 -10  349.82   12.73
   8   3  10   12.46    3.50
  -8  -3 -10    9.84    3.91
   9   3  10  122.54    6.00
  -9  -3 -10  110.88    6.74
  10   3  10   15.43    3.44
 -10  -3 -10   17.72    5.52
  11   3  10  133.38    8.22
 -11  -3 -10  161.54    8.42
  12   3  10   27.82    4.04
 -12  -3 -10   30.65    4.18
  13   3  10   96.06    7.21
 -13  -3 -10   92.36    6.87
  14   3  10   20.34    4.98
 -14  -3 -10   15.76    5.32
  -2   3  11   74.64    3.64
  -1   3  11   23.24    1.95
   1  -3 -11   25.53    2.90
   0   3  11  383.84   14.28
   0  -3 -11  398.66   22.63
   1   3  11   21.89    1.95
  -1  -3 -11   22.77    2.56
   2   3  11   93.10    4.58
  -2  -3 -11   93.30    4.31
   3   3  11   57.73    3.50
  -3  -3 -11   56.72    4.78
   4   3  11  103.00    5.52
  -4  -3 -11   88.52    5.32
   5   3  11   13.20    2.36
  -5  -3 -11   13.61    3.37
   6   3  11   75.52    4.31
  -6  -3 -11   59.55    4.24
   7   3  11   52.95    4.72
  -7  -3 -11   49.78    4.38
   8   3  11  190.57   10.98
  -8  -3 -11  200.81   10.31
   9   3  11    2.56    2.76
  -9  -3 -11    1.48    2.83
  10   3  11  147.73    8.35
 -10  -3 -11  159.92    8.08
  11   3  11   29.98    4.45
 -11  -3 -11   33.41    8.69
  12   3  11   90.34    7.01
 -12  -3 -11   95.93    7.07
  13   3  11    3.23    4.58
 -13  -3 -11    3.17    5.93
  -2   3  12    0.74    0.74
  -1   3  12  184.51    8.29
   0   3  12    0.34    1.28
   0  -3 -12   -0.74    2.83
   1   3  12  202.43    8.42
  -1  -3 -12  202.29    9.23
   2   3  12    2.36    2.02
  -2  -3 -12   -0.94    2.16
   3   3  12   61.64    4.04
  -3  -3 -12   62.78    3.97
   4   3  12    4.92    2.49
  -4  -3 -12    3.44    2.76
   5   3  12   54.03    3.97
  -5  -3 -12   59.75    4.65
   6   3  12    1.28    2.02
  -6  -3 -12    3.03    2.76
   7   3  12   71.61    4.51
  -7  -3 -12   72.21    4.72
   8   3  12   43.85    5.19
  -8  -3 -12   50.59    5.32
   9   3  12  215.77   10.04
  -9  -3 -12  207.21    9.50
  10   3  12   13.54    3.37
 -10  -3 -12   17.78    3.77
  11   3  12   91.55    6.53
 -11  -3 -12   82.32    9.09
  12   3  12   15.29    3.97
 -12  -3 -12    6.80    3.97
  -2   3  13   73.43    3.10
  -1   3  13    5.25    1.28
   1  -3 -13    3.44    1.75
   0   3  13   66.83    4.45
   0  -3 -13   56.32    5.52
   1   3  13    5.79    1.55
  -1  -3 -13    4.04    1.89
   2   3  13  119.03    7.14
  -2  -3 -13  108.46    7.61
   3   3  13    4.92    1.82
  -3  -3 -13    6.33    2.90
   4   3  13   29.77    3.30
  -4  -3 -13   44.53    5.79
   5   3  13   15.09    2.43
  -5  -3 -13   11.92    2.49
   6   3  13   63.32    4.58
  -6  -3 -13   58.47    5.46
   7   3  13   23.85    3.64
  -7  -3 -13   23.44    3.50
   8   3  13   80.03    5.73
  -8  -3 -13   96.33    6.87
   9   3  13    0.88    3.03
  -9  -3 -13    3.30    3.23
  10   3  13   97.61    6.87
 -10  -3 -13   78.28   12.19
  11   3  13   22.30    4.58
 -11  -3 -13   15.09    4.11
  -2   3  14   -0.13    0.61
  -1   3  14   25.67    3.23
   1  -3 -14   27.82    5.19
   0   3  14    0.20    1.15
   0  -3 -14    1.08    2.29
   1   3  14   33.21    3.50
   2   3  14    0.81    1.95
  -2  -3 -14   -0.67    2.22
   3   3  14   85.96    5.19
  -3  -3 -14   82.86    4.51
   4   3  14    7.01    2.16
  -4  -3 -14    5.46    2.29
   5   3  14   84.07    5.19
  -5  -3 -14   79.96    5.12
   6   3  14    9.90    2.56
  -6  -3 -14    4.85    2.56
   7   3  14   45.74    4.72
  -7  -3 -14   42.78    4.92
   8   3  14    2.22    2.90
  -8  -3 -14    0.34    3.44
   9   3  14   48.30    4.98
  -9  -3 -14   39.07    4.65
  10   3  14    5.46    3.97
 -10  -3 -14    2.90    4.24
  -2   3  15    8.69    1.15
  -1   3  15    9.63    1.68
   1  -3 -15    8.96    2.36
   0   3  15    8.49    1.62
   0  -3 -15    9.16    2.83
   1   3  15   13.00    2.02
  -1  -3 -15   12.40    2.43
   2   3  15   23.71    2.69
  -2  -3 -15   29.44    3.37
   3   3  15    7.54    2.83
  -3  -3 -15   12.13    4.45
   4   3  15  119.91    6.33
  -4  -3 -15   90.81   11.99
   5   3  15    7.21    4.85
  -5  -3 -15    5.39    3.71
   6   3  15   33.55    3.23
  -6  -3 -15   34.29    4.72
   7   3  15    2.43    2.49
  -7  -3 -15    1.08    3.10
   8   3  15   13.94    2.69
  -8  -3 -15   17.78    4.45
   9   3  15    6.13    3.44
  -9  -3 -15    8.56    6.47
   0  -3 -16   -1.01    2.83
   1   3  16    4.24    1.55
  -1  -3 -16    5.52    3.30
   2   3  16    0.34    2.09
  -2  -3 -16   -1.08    4.45
   3   3  16   49.04    3.50
  -3  -3 -16   44.46    3.84
   4   3  16   -0.88    2.29
  -4  -3 -16    1.62    2.69
   5   3  16   49.38    4.24
  -5  -3 -16   39.41    5.32
   6   3  16    5.12    2.90
  -6  -3 -16    8.76    3.84
   7   3  16   19.54    4.04
   8   3  16    7.54    3.10
  -8  -3 -16    7.21    6.94
   0   4 -16   33.28    5.59
   0  -4  16   38.80    5.79
   1   4 -16   28.16    4.24
  -1  -4  16   28.29    4.24
   2   4 -16   39.21    7.61
  -2  -4  16   38.33    5.52
   3   4 -16    3.84    5.46
  -3  -4  16    5.52    8.15
   4   4 -16   36.85    4.58
  -4  -4  16   36.98    4.38
   5   4 -16   -0.61    4.85
  -5  -4  16    2.63    3.23
  -6  -4  16    2.76    8.22
  -4   4 -15    3.57    5.05
   4  -4  15    6.00    4.58
  -3   4 -15   84.07    7.88
   3  -4  15   70.53    5.86
  -2   4 -15   27.69    3.77
   2  -4  15   31.46    4.51
  -1   4 -15   52.27    5.39
   1  -4  15   66.62    6.06
   0   4 -15    2.02    5.79
   0  -4  15    0.81    4.51
   1   4 -15   44.73    5.86
  -1  -4  15   65.55    6.00
   2   4 -15   29.03    4.51
  -2  -4  15   28.29    4.18
   3   4 -15   59.95    5.52
  -3  -4  15   58.61    5.39
   4   4 -15   -0.40    6.13
  -4  -4  15    2.16    5.12
   5   4 -15   73.36    5.59
  -5  -4  15   70.19    6.33
   6   4 -15   10.10    3.71
  -6  -4  15   10.51    3.57
   7   4 -15   13.74    5.25
  -7  -4  15   15.76    4.45
   8   4 -15   -0.07    3.77
  -8  -4  15    3.17    3.37
   9   4 -15   40.01    6.47
  -9  -4  15   43.05    8.62
  -7   4 -14    6.60    5.25
   7  -4  14   15.63    6.80
  -6   4 -14   81.58    6.00
   6  -4  14   91.01    6.33
  -5   4 -14   38.40    4.92
   5  -4  14   44.86    4.85
  -4   4 -14   93.16    6.67
   4  -4  14   76.80    6.60
  -3   4 -14   47.83    4.78
   3  -4  14   56.59    5.39
  -2   4 -14  109.00   10.04
   2  -4  14  122.60    7.68
  -1   4 -14   20.14    3.97
   1  -4  14   22.43    4.11
   0   4 -14   31.19    5.46
   0  -4  14   39.95    4.78
   1   4 -14   20.88    4.58
  -1  -4  14   19.27    4.38
   2   4 -14   88.99    8.02
  -2  -4  14  111.76    7.07
   3   4 -14   42.91    4.92
  -3  -4  14   48.17    4.65
   4   4 -14   86.29    5.79
  -4  -4  14   79.56    5.39
   5   4 -14   31.39    4.45
  -5  -4  14   35.50    7.34
   6   4 -14   54.23    5.79
  -6  -4  14   58.88    5.19
   7   4 -14    7.41    4.18
  -7  -4  14    8.22    4.18
   8   4 -14   17.65    5.73
  -8  -4  14   32.40    4.78
   9   4 -14    0.88    4.51
  -9  -4  14    0.54    4.18
  10   4 -14   54.30    5.12
 -10  -4  14   59.55    5.79
  11   4 -14    1.28    5.05
 -11  -4  14    2.56    4.58
  -8   4 -13    7.75    3.77
   8  -4  13    8.89    3.91
  -7   4 -13  158.04    8.49
   7  -4  13  132.37    8.76
  -6   4 -13   35.23    6.13
   6  -4  13   35.64    5.52
  -5   4 -13   63.25    5.86
   5  -4  13   55.31    5.12
  -4   4 -13   17.04    4.31
   4  -4  13   17.18    4.31
  -3   4 -13  160.87    8.89
   3  -4  13  132.64    8.15
  -2   4 -13   22.10    4.51
   2  -4  13   21.49    3.97
  -1   4 -13  136.01    6.13
   1  -4  13  140.39    7.75
   0   4 -13    5.73    5.39
   0  -4  13    1.62    4.04
   1   4 -13  130.42    7.75
  -1  -4  13  127.72    7.75
   2   4 -13   19.33    4.11
  -2  -4  13   27.35    4.04
   3   4 -13  126.17    9.50
  -3  -4  13  146.85    8.49
   4   4 -13   11.12    3.37
  -4  -4  13   13.20    3.30
   5   4 -13   52.61    4.72
  -5  -4  13   49.65    4.38
   6   4 -13   27.75    4.18
  -6  -4  13   27.35    3.71
   7   4 -13  106.64    6.87
  -7  -4  13  100.78    7.34
   8   4 -13    5.86    3.84
  -8  -4  13    5.52    3.37
   9   4 -13   38.40    4.85
  -9  -4  13   54.50    5.05
  10   4 -13    8.76    4.04
 -10  -4  13    4.38    3.50
  11   4 -13   50.52    5.79
 -11  -4  13   63.52    6.40
  12   4 -13    0.00    4.38
 -12  -4  13    2.69    3.71
 -10   4 -12  111.76   10.37
  10  -4  12   99.56    7.61
  -9   4 -12   18.39    4.38
   9  -4  12   19.27    4.51
  -8   4 -12  112.97    7.95
   8  -4  12  111.56    7.88
  -7   4 -12   47.36    4.98
   7  -4  12   46.62    4.65
  -6   4 -12  142.27    7.48
   6  -4  12  108.79    8.56
  -5   4 -12   18.93    4.11
   5  -4  12   19.13    3.37
  -4   4 -12  117.48    7.88
   4  -4  12  131.49   10.71
  -3   4 -12   51.13    5.46
   3  -4  12   57.12    4.92
  -2   4 -12  113.91    7.07
   2  -4  12  118.70    6.26
  -1   4 -12   17.58    3.10
   1  -4  12   12.60    3.44
   0   4 -12  242.31    9.84
   0  -4  12  241.97   11.18
   1   4 -12   16.23    2.96
  -1  -4  12   15.56    3.37
   2   4 -12  107.78    7.21
  -2  -4  12  108.73    5.59
   3   4 -12   49.65    4.24
  -3  -4  12   46.21    3.97
   4   4 -12   89.46    6.00
  -4  -4  12   98.96    6.53
   5   4 -12    7.28    3.57
  -5  -4  12   12.53    3.37
   6   4 -12   98.69    6.60
  -6  -4  12   88.31    6.67
   7   4 -12   37.93    4.38
  -7  -4  12   43.18    3.97
   8   4 -12   67.84    5.46
  -8  -4  12   74.77    7.95
   9   4 -12    9.50    3.97
  -9  -4  12    6.20    4.45
  10   4 -12   64.80    6.40
 -10  -4  12   74.10    6.33
  11   4 -12    1.82    4.11
 -11  -4  12    2.22    4.78
  12   4 -12   44.19    5.59
 -12  -4  12   57.39    4.92
  13   4 -12    3.84    3.64
 -13  -4  12    2.22    3.77
 -11   4 -11    0.74    4.51
  11  -4  11  177.30   14.28
 -10   4 -11   85.89   11.38
  10  -4  11   65.68    8.15
  -9   4 -11   96.40    7.68
   9  -4  11   86.70    7.01
  -8   4 -11   12.46    4.24
   8  -4  11   19.00    3.77
  -7   4 -11  143.55    8.35
   7  -4  11  150.42    7.81
  -6   4 -11   38.87    4.24
   6  -4  11   27.22    3.50
  -5   4 -11  165.24    8.62
   5  -4  11  150.76    7.81
  -4   4 -11    6.94    2.96
   4  -4  11    5.93    2.49
  -3   4 -11  120.25    6.53
   3  -4  11  133.04    8.15
  -2   4 -11   49.38    4.45
   2  -4  11   48.10    5.79
  -1   4 -11  216.37   12.33
   1  -4  11  233.69   10.04
   0   4 -11   -1.01    2.63
   0  -4  11    0.40    2.36
   1   4 -11  237.80   11.52
  -1  -4  11  214.96    9.50
   2   4 -11   43.99    4.98
  -2  -4  11   43.58    4.18
   3   4 -11  114.32    5.73
  -3  -4  11  112.70    7.01
   4   4 -11    1.89    3.23
  -4  -4  11    3.71    2.96
   5   4 -11  123.61    6.87
  -5  -4  11  118.36    6.26
   6   4 -11   25.26    3.71
  -6  -4  11   26.00    3.77
   7   4 -11  115.46    7.01
  -7  -4  11  113.24    6.60
   8   4 -11    9.97    3.23
  -8  -4  11   12.80    3.17
   9   4 -11   63.86    4.31
  -9  -4  11   63.79    5.39
  10   4 -11   52.68    5.59
 -10  -4  11   51.80    5.19
  11   4 -11   86.02    5.79
 -11  -4  11  109.60    7.41
  12   4 -11    2.22    4.85
 -12  -4  11   -1.08    4.38
  13   4 -11   48.91    5.25
 -13  -4  11   50.99    5.32
  14   4 -11    5.86    3.84
 -14  -4  11    5.12    4.92
 -13   4 -10   17.31    7.48
  13  -4  10   14.15    8.56
 -12   4 -10  201.76   11.86
  12  -4  10  232.34   12.26
 -11   4 -10   71.61    7.07
  11  -4  10   74.77    6.33
 -10   4 -10   60.96    6.33
  10  -4  10   37.66    4.72
  -9   4 -10    3.03    2.96
   9  -4  10    3.50    3.91
   8  -4  10  153.66    7.41
  -7   4 -10   31.46    3.97
   7  -4  10   30.11    3.77
  -6   4 -10  219.61    8.96
   6  -4  10  254.03   11.38
  -5   4 -10   30.11    4.45
   5  -4  10   35.03    3.71
  -4   4 -10  215.70    8.89
   4  -4  10  215.36   10.58
  -3   4 -10   22.50    3.44
   3  -4  10   19.20    2.96
  -2   4 -10  207.35    9.43
   2  -4  10  198.32    8.96
  -1   4 -10   25.53    3.57
   1  -4  10   25.80    3.23
   0   4 -10  175.15    9.77
   0  -4  10  203.57    8.15
   1   4 -10   32.54    3.50
  -1  -4  10   25.19    3.03
   2   4 -10  204.65    9.43
  -2  -4  10  191.79    9.57
   3   4 -10   19.74    2.76
  -3  -4  10   14.82    2.76
   4   4 -10  215.43   10.58
  -4  -4  10  181.61    8.49
   5   4 -10   25.67    3.23
  -5  -4  10   26.95    3.03
   6   4 -10  187.34    8.82
  -6  -4  10  210.18    9.23
   7   4 -10   22.10    2.96
  -7  -4  10   23.51    3.30
   8   4 -10  121.93    6.80
  -8  -4  10  118.76    6.67
   9   4 -10    3.30    4.72
  -9  -4  10    4.24    2.90
  10   4 -10   41.97    4.24
 -10  -4  10   25.94    3.71
  11   4 -10   43.72    5.52
 -11  -4  10   54.43    5.52
  12   4 -10  141.67    7.68
 -12  -4  10  157.30    9.30
  13   4 -10   18.32    4.38
 -13  -4  10   22.03    6.13
  14   4 -10   22.90    8.49
 -14  -4  10   36.98    5.93
  15   4 -10    9.50    3.77
 -15  -4  10   14.42    4.11
 -14   4  -9    2.83    5.32
  14  -4   9   -0.47    6.74
 -13   4  -9  235.37   12.53
  13  -4   9  223.99   11.86
 -12   4  -9   93.43    7.34
  12  -4   9   92.83    7.21
 -11   4  -9  104.28    7.48
  11  -4   9   78.55    5.86
 -10   4  -9   11.79    3.64
  10  -4   9   14.08    3.50
  -9   4  -9  119.57    6.94
   9  -4   9  130.08    7.14
  -8   4  -9   17.11    3.10
   8  -4   9   17.85    2.96
  -7   4  -9  154.33    9.36
   7  -4   9  157.30   10.58
  -6   4  -9   52.34    6.53
   6  -4   9   61.44    4.31
  -5   4  -9  560.07   17.04
   5  -4   9  586.07   19.87
  -4   4  -9   59.48    4.45
   4  -4   9   61.64    4.24
  -3   4  -9  402.77   14.62
   3  -4   9  357.37   13.88
  -2   4  -9   11.32    2.83
   2  -4   9   15.16    2.90
  -1   4  -9  187.34    9.09
   1  -4   9  188.22    7.81
   0   4  -9    1.55    1.82
   0  -4   9    0.34    1.89
   1   4  -9  177.17    7.88
  -1  -4   9  194.41    8.02
   2   4  -9   12.80    2.96
  -2  -4   9   11.25    3.17
   3   4  -9  344.16   11.99
  -3  -4   9  313.51   12.60
   4   4  -9   51.26    3.77
  -4  -4   9   53.96    4.24
   5   4  -9  485.97   17.11
  -5  -4   9  511.56   17.31
   6   4  -9   43.85    3.64
  -6  -4   9   47.90    4.04
   7   4  -9  129.61    7.75
  -7  -4   9  119.98    7.41
   8   4  -9   13.67    3.23
  -8  -4   9   16.57    3.10
   9   4  -9  107.04    6.53
  -9  -4   9   98.08    6.40
  10   4  -9    9.50    3.03
 -10  -4   9   14.42    2.96
  11   4  -9   71.61    5.52
 -11  -4   9   60.49    5.86
  12   4  -9   62.99    4.85
 -12  -4   9   60.90    5.59
  13   4  -9  138.43    9.50
 -13  -4   9  171.58    9.16
  14   4  -9    0.34    3.44
 -14  -4   9    0.67    3.50
  15   4  -9   43.32    5.46
 -15  -4   9   48.64    7.68
 -15   4  -8    2.83    5.93
 -14   4  -8  203.64   12.40
  14  -4   8  191.04   11.12
 -13   4  -8  125.36    8.69
  13  -4   8  123.68    8.15
 -12   4  -8   42.30    6.40
  12  -4   8   42.24    5.79
 -11   4  -8   75.78    5.32
  11  -4   8   76.05    5.73
 -10   4  -8  173.73    8.69
  10  -4   8  160.93    7.75
  -9   4  -8   16.84    2.83
   9  -4   8   11.92    2.63
  -8   4  -8   71.27    4.98
   8  -4   8   54.90    4.58
  -7   4  -8   12.80    2.90
   7  -4   8   13.47    2.29
  -6   4  -8  357.37   12.19
   6  -4   8  374.54   12.80
  -5   4  -8  152.71   12.73
   5  -4   8  155.88    9.77
  -4   4  -8  851.75   28.36
   4  -4   8  797.66   26.14
  -3   4  -8  316.88   12.66
   3  -4   8  310.62   13.27
  -2   4  -8  164.10    7.75
   2  -4   8  205.39    8.49
  -1   4  -8   44.60    4.72
   1  -4   8   44.73    3.37
   0   4  -8   65.28    3.50
   0  -4   8   49.45    3.30
   1   4  -8   50.46    3.64
  -1  -4   8   45.20    3.50
   2   4  -8  187.27   10.64
  -2  -4   8  200.81    8.76
   3   4  -8  295.32   10.58
  -3  -4   8  300.51   12.53
   4   4  -8  777.65   25.67
  -4  -4   8  757.17   25.46
   5   4  -8  148.34    8.02
  -5  -4   8  145.10    7.14
   6   4  -8  308.33   12.93
  -6  -4   8  351.84   17.31
   7   4  -8   14.48    2.69
  -7  -4   8    9.36    2.49
   8   4  -8   67.36    5.66
  -8  -4   8   51.67    4.58
   9   4  -8    9.03    2.63
  -9  -4   8   13.00    2.83
  10   4  -8  118.63    6.40
 -10  -4   8  124.49   10.24
  11   4  -8   65.88    4.38
 -11  -4   8   69.32    5.25
  12   4  -8   30.04    5.59
 -12  -4   8   35.03    4.58
  13   4  -8   85.15    5.73
 -13  -4   8   78.28    7.75
  14   4  -8  140.59    8.02
 -14  -4   8  170.50    8.69
  15   4  -8    0.81    4.51
 -15  -4   8    0.54    4.51
  16   4  -8   32.67    4.65
 -16  -4   8   34.76    5.05
 -15   4  -7  138.57   11.59
  15  -4   7  120.58    7.41
 -14   4  -7   48.37    6.40
  14  -4   7   59.21    4.58
 -13   4  -7   87.24    6.20
  13  -4   7   72.89    4.51
 -12   4  -7   12.87    3.71
  12  -4   7   15.56    3.44
 -11   4  -7  244.73   14.15
  11  -4   7  242.92   11.65
 -10   4  -7   74.37    5.73
  10  -4   7   70.33    4.72
  -9   4  -7  121.26    6.60
   9  -4   7  104.75    5.59
  -8   4  -7    3.10    2.36
   8  -4   7    0.67    2.29
  -7   4  -7  211.73    9.77
   7  -4   7  222.03    9.84
  -6   4  -7   45.34    4.04
   6  -4   7   54.83    5.52
  -5   4  -7  567.61   18.79
   5  -4   7  524.63   18.66
  -4   4  -7   32.81    3.03
   4  -4   7   35.10    3.17
  -3   4  -7 1019.15   48.70
   3  -4   7  946.74   46.28
  -2   4  -7  216.31    7.75
   2  -4   7  207.82    9.09
  -1   4  -7  163.56    9.36
   1  -4   7  122.60    5.66
   0   4  -7   -0.94    1.68
   0  -4   7   -1.28    1.68
   1   4  -7  154.67    6.60
  -1  -4   7  121.93    5.59
   2   4  -7  223.85    8.82
  -2  -4   7  205.73    7.95
   3   4  -7 1000.09   40.55
  -3  -4   7  944.58   29.30
   4   4  -7   33.75    3.17
  -4  -4   7   34.63    3.03
   5   4  -7  545.65   17.51
  -5  -4   7  488.59   17.25
   6   4  -7   47.09    3.91
  -6  -4   7   49.24    3.84
   7   4  -7  200.27    8.82
  -7  -4   7  203.57    8.49
   8   4  -7    1.35    2.29
  -8  -4   7    1.82    2.36
   9   4  -7  107.65    8.42
  -9  -4   7   82.72    7.34
  10   4  -7   57.93    4.78
 -10  -4   7   59.75    4.45
  11   4  -7  171.31   11.18
 -11  -4   7  223.38   10.04
  12   4  -7   10.10    3.10
 -12  -4   7   13.00    3.23
  13   4  -7   64.67    4.85
 -13  -4   7   63.66    5.66
  14   4  -7   45.00    5.52
 -14  -4   7   49.45    8.22
  15   4  -7  108.52    8.35
 -15  -4   7  109.60    7.95
  16   4  -7    4.38    4.18
 -16  -4   7    4.51    4.65
 -16   4  -6  100.31    8.96
  16  -4   6   85.22    6.80
 -15   4  -6   20.48    4.24
  15  -4   6   21.08    3.91
 -14   4  -6   94.78    6.53
  14  -4   6   85.75    5.66
 -13   4  -6   30.25    6.13
  13  -4   6   24.45    3.57
 -12   4  -6  190.44    9.43
  12  -4   6  178.11    8.02
 -11   4  -6    9.09    3.50
  11  -4   6    7.07    3.30
 -10   4  -6  235.03   10.85
  10  -4   6  238.27   10.10
  -9   4  -6   31.66    3.44
   9  -4   6   37.79    3.77
  -8   4  -6  197.24    8.76
   8  -4   6  201.49    9.70
  -7   4  -6   16.77    2.49
   7  -4   6   16.77    2.49
  -6   4  -6  532.99   19.33
   6  -4   6  514.73   18.46
  -5   4  -6   18.39    2.63
   5  -4   6   29.10    2.56
  -4   4  -6  448.78   13.67
   4  -4   6  472.63   14.55
  -3   4  -6   75.11    4.11
   3  -4   6   76.66    3.84
  -2   4  -6  771.19   25.40
   2  -4   6  718.64   36.11
  -1   4  -6  183.70   12.53
   1  -4   6  178.58    7.68
   0   4  -6   91.21    5.25
   0  -4   6  131.56    5.86
   1   4  -6  184.38    7.07
  -1  -4   6  182.29    7.07
   2   4  -6  799.61   24.05
  -2  -4   6  740.33   23.44
   3   4  -6   75.31    4.38
  -3  -4   6   77.81    3.50
   4   4  -6  398.32   18.26
  -4  -4   6  470.61   16.03
   5   4  -6   22.97    3.03
  -5  -4   6   23.24    3.17
   6   4  -6  503.08   27.15
  -6  -4   6  467.37   15.83
   7   4  -6   15.90    2.83
  -7  -4   6   17.65    3.44
   8   4  -6  182.15    8.22
  -8  -4   6  183.63   12.80
   9   4  -6   27.75    2.96
  -9  -4   6   37.93    3.44
  10   4  -6  203.64    9.36
 -10  -4   6  225.60   14.69
  11   4  -6    7.75    2.96
 -11  -4   6    4.78    2.49
  12   4  -6  159.45   10.64
 -12  -4   6  147.53    7.81
  13   4  -6   18.59    3.97
 -13  -4   6   15.09    3.77
  14   4  -6   73.49    5.05
 -14  -4   6   80.37    6.06
  15   4  -6   19.13    3.84
 -15  -4   6   23.44    4.24
  16   4  -6   87.57    8.49
 -16  -4   6   88.58    8.42
 -17   4  -5   37.52    4.65
  17  -4   5   26.20    4.11
 -16   4  -5   16.50    4.38
  16  -4   5   19.87    3.84
 -15   4  -5   92.83    8.69
  15  -4   5   85.96    6.40
 -14   4  -5   17.78    4.18
  14  -4   5   18.12    3.97
 -13   4  -5  156.89    8.42
  13  -4   5  167.20    8.82
 -12   4  -5    2.96    2.56
  12  -4   5    1.68    2.29
 -11   4  -5  131.56    6.60
  11  -4   5  129.14    7.01
 -10   4  -5   14.89    2.83
  10  -4   5   14.08    2.56
  -9   4  -5  309.27   13.88
   9  -4   5  305.03   12.60
  -8   4  -5   14.35    2.43
   8  -4   5   12.26    2.29
  -7   4  -5  391.92   13.88
   7  -4   5  369.90   13.34
  -6   4  -5    0.88    1.95
   6  -4   5    2.43    1.75
  -5   4  -5  330.83   12.06
   5  -4   5  317.62   11.59
  -4   4  -5    5.66    1.95
   4  -4   5    7.07    1.68
  -3   4  -5  174.94    9.43
   3  -4   5  194.55   10.04
  -2   4  -5   24.92    2.76
   2  -4   5   25.87    2.36
  -1   4  -5  817.67   24.52
   1  -4   5  769.57   21.56
   0   4  -5    1.68    1.48
   0  -4   5    1.89    1.68
   1   4  -5  845.69   38.06
  -1  -4   5  773.21   22.43
   2   4  -5   29.51    2.63
  -2  -4   5   31.66    2.49
   3   4  -5  186.87    9.70
  -3  -4   5  192.73    8.76
   4   4  -5    7.41    2.36
  -4  -4   5    5.73    2.02
   5   4  -5  351.17   12.06
  -5  -4   5  344.50   11.86
   6   4  -5    2.16    1.89
  -6  -4   5    3.17    1.89
   7   4  -5  416.71   14.42
  -7  -4   5  359.46   14.21
   8   4  -5   11.52    2.36
  -8  -4   5   12.93    2.56
   9   4  -5  309.61   10.85
  -9  -4   5  305.03   13.07
  10   4  -5   17.99    2.76
 -10  -4   5   13.07    2.49
  11   4  -5  135.67    7.14
 -11  -4   5  124.83    7.21
  12   4  -5    1.82    2.63
 -12  -4   5    0.94    2.29
  13   4  -5  158.91    7.61
 -13  -4   5  168.34    8.69
  14   4  -5   19.13    4.11
 -14  -4   5   21.35    4.04
  15   4  -5   90.87    6.47
 -15  -4   5   85.82    8.02
  16   4  -5    9.30    3.64
 -16  -4   5    9.63    5.52
  17   4  -5   30.38    4.65
 -17  -4   5   31.93    4.78
 -17   4  -4    5.19    8.49
  17  -4   4    3.91    4.92
 -16   4  -4   52.14    7.28
  16  -4   4   54.43    5.39
 -15   4  -4    8.42    3.37
  15  -4   4   10.37    3.23
 -14   4  -4  126.31    6.87
  14  -4   4  120.18    7.54
 -13   4  -4   13.27    3.50
  13  -4   4   10.91    3.23
 -12   4  -4  235.17   10.51
  12  -4   4  254.37   10.24
 -11   4  -4   11.79    2.43
  11  -4   4   13.61    2.63
 -10   4  -4  172.92    8.15
  10  -4   4  165.78    9.03
  -9   4  -4    3.84    1.95
   9  -4   4    4.18    1.75
  -8   4  -4  648.25   20.61
   8  -4   4  632.28   32.13
  -7   4  -4    0.61    1.95
   7  -4   4    1.48    1.68
  -6   4  -4  350.09   11.72
   6  -4   4  340.12   13.00
  -5   4  -4   32.67    3.03
   5  -4   4   39.27    2.83
  -4   4  -4  244.26    9.03
   4  -4   4  288.99   10.64
  -3   4  -4   71.61    3.44
   3  -4   4   68.51    3.77
  -2   4  -4  406.14   13.88
   2  -4   4  377.98   12.66
  -1   4  -4   58.00    4.92
   1  -4   4   64.20    3.44
   0   4  -4 2386.31   62.78
   0  -4   4 2164.41   56.65
   1   4  -4   58.34    3.57
  -1  -4   4   50.99    3.23
   2   4  -4  336.42   17.04
  -2  -4   4  393.47   17.25
   3   4  -4   64.67    4.31
  -3  -4   4   67.23    3.84
   4   4  -4  255.44   14.08
  -4  -4   4  281.65   14.62
   5   4  -4   39.00    2.96
  -5  -4   4   37.39    2.76
   6   4  -4  386.87   12.73
  -6  -4   4  356.96   13.14
   7   4  -4    3.64    2.09
  -7  -4   4    3.91    2.16
   8   4  -4  703.89   19.81
  -8  -4   4  680.98   21.76
   9   4  -4    5.59    2.36
  -9  -4   4    5.66    2.16
  10   4  -4  185.66    8.29
 -10  -4   4  167.94    7.34
  11   4  -4   18.32    3.84
 -11  -4   4   16.77    3.17
  12   4  -4  242.85   11.05
 -12  -4   4  285.42   14.01
  13   4  -4   15.29    3.23
 -13  -4   4   17.11    3.84
  14   4  -4  130.96    7.54
 -14  -4   4  116.47    7.07
  15   4  -4    9.03    3.44
 -15  -4   4    9.63    3.97
  16   4  -4   63.25    6.67
 -16  -4   4   53.35    6.53
  17   4  -4    3.50    5.19
 -17  -4   4    9.23    6.06
 -18   4  -3   15.56    5.32
  18  -4   3    8.89    4.51
 -17   4  -3   63.79    6.06
  17  -4   3   63.25    5.46
 -16   4  -3   -0.74    2.96
  16  -4   3    3.91    2.90
 -15   4  -3   59.95    5.12
  15  -4   3   62.85    4.78
 -14   4  -3   23.24    3.30
  14  -4   3   24.18    3.10
 -13   4  -3  162.68    8.35
  13  -4   3  176.36   12.19
 -12   4  -3   24.18    3.37
  12  -4   3   22.57    3.10
 -11   4  -3  228.30    9.36
  11  -4   3  234.02   10.17
 -10   4  -3   10.58    2.56
  10  -4   3   12.53    2.16
  -9   4  -3  326.92   11.32
   9  -4   3  307.99   11.05
  -8   4  -3   24.72    3.10
   8  -4   3   23.17    3.84
  -7   4  -3  471.21   19.27
   7  -4   3  517.02   19.54
  -6   4  -3  145.71    6.74
   6  -4   3  152.18    5.79
  -5   4  -3  256.25    8.42
   5  -4   3  308.39    9.84
  -4   4  -3   38.20    2.76
   4  -4   3   35.50    2.69
  -3   4  -3  252.48    9.03
   3  -4   3  265.95    9.57
  -2   4  -3  116.88    4.85
   2  -4   3  113.17    4.38
  -1   4  -3 1431.83   38.33
   1  -4   3 1347.22   49.78
   0   4  -3    0.54    1.21
   0  -4   3    0.47    1.35
   1   4  -3 1468.14   42.51
  -1  -4   3 1309.69   36.51
   2   4  -3  118.22    5.12
  -2  -4   3  114.79    4.58
   3   4  -3  269.86    9.97
  -3  -4   3  252.14   11.38
   4   4  -3   41.02    4.78
  -4  -4   3   39.68    4.24
   5   4  -3  270.33   10.51
  -5  -4   3  322.00   11.65
   6   4  -3  166.46    6.00
  -6  -4   3  155.48    6.47
   7   4  -3  652.96   29.57
  -7  -4   3  571.52   19.27
   8   4  -3   32.20    2.90
  -8  -4   3   28.16    3.30
   9   4  -3  389.36   13.41
  -9  -4   3  366.87   12.46
  10   4  -3   21.02    2.83
 -10  -4   3   16.57    3.71
  11   4  -3  283.81   11.25
 -11  -4   3  259.76   17.04
  12   4  -3   30.11    3.84
 -12  -4   3   33.55    3.97
  13   4  -3  177.50    8.96
 -13  -4   3  196.50   10.51
  14   4  -3   33.48    3.84
 -14  -4   3   29.71    3.91
  15   4  -3   71.61    4.72
 -15  -4   3   72.89    5.93
  16   4  -3    0.47    3.64
 -16  -4   3    1.55    4.24
  17   4  -3   73.70    6.00
 -17  -4   3   80.37    6.26
 -19   4  -2    1.01    6.60
 -18   4  -2   72.15    7.07
  18  -4   2   72.75    5.19
 -17   4  -2   18.05    4.04
  17  -4   2   17.85    3.37
 -16   4  -2   64.27    5.12
  16  -4   2   68.31    4.45
 -15   4  -2   12.66    2.90
  15  -4   2   15.90    2.76
 -14   4  -2  154.74    8.08
  14  -4   2  170.23    8.22
 -13   4  -2   10.64    2.56
  13  -4   2   10.10    2.36
 -12   4  -2  125.57    6.13
  12  -4   2  120.72    5.93
 -11   4  -2  114.59    8.15
  11  -4   2  106.70    8.82
 -10   4  -2  369.02   14.75
  10  -4   2  358.65   13.20
  -9   4  -2   78.55    5.25
   9  -4   2   73.63    3.71
  -8   4  -2  440.36   16.64
   8  -4   2  410.32   13.94
  -7   4  -2  119.98    6.67
   7  -4   2  108.79    5.19
  -6   4  -2  513.18   16.57
   6  -4   2  577.85   17.25
  -5   4  -2   31.46    3.17
   5  -4   2   23.85    1.95
  -4   4  -2  818.14   23.51
   4  -4   2  821.51   23.04
  -3   4  -2   59.62    3.23
   3  -4   2   59.62    3.23
  -2   4  -2  314.93   10.10
   2  -4   2  343.83   10.85
  -1   4  -2  117.01    4.65
   1  -4   2  108.59    4.24
   0   4  -2 1750.46   49.98
   0  -4   2 1675.89   44.93
   1   4  -2  110.41    4.65
  -1  -4   2  103.00    6.33
   2   4  -2  347.53   10.78
  -2  -4   2  342.82   11.05
   3   4  -2   64.06    3.30
  -3  -4   2   58.74    3.30
   4   4  -2  872.16   24.12
  -4  -4   2  846.23   24.99
   5   4  -2   32.87    2.56
  -5  -4   2   27.62    3.10
  -6  -4   2  556.50   23.51
   7   4  -2  143.01    6.60
  -7  -4   2  136.68    6.60
   8   4  -2  599.74   25.87
  -8  -4   2  544.57   17.38
   9   4  -2  111.35    4.92
  -9  -4   2  106.57    6.13
  10   4  -2  532.38   18.26
 -10  -4   2  496.61   17.85
  11   4  -2  176.22    7.07
 -11  -4   2  168.61    7.61
  12   4  -2  174.14   10.78
 -12  -4   2  166.52    8.76
  13   4  -2   11.25    3.10
 -13  -4   2   11.38    3.57
  14   4  -2  169.42    8.69
 -14  -4   2  217.72   10.31
  15   4  -2   17.04    4.04
 -15  -4   2   14.35    5.19
  16   4  -2   81.78    6.00
 -16  -4   2   86.63    9.16
  17   4  -2   20.88    5.05
 -17  -4   2   21.15    6.06
 -19   4  -1   36.78    8.22
  19  -4   1   30.79    6.53
 -18   4  -1   10.51    4.04
  18  -4   1    9.57    3.10
 -17   4  -1   84.81    6.60
  17  -4   1   71.68    5.05
 -16   4  -1   18.46    3.30
  16  -4   1   19.27    3.37
 -15   4  -1  102.53    6.33
  15  -4   1  109.33    6.06
 -14   4  -1   34.76    5.12
  14  -4   1   32.94    3.57
 -13   4  -1   66.02    4.45
  13  -4   1   69.52    4.11
 -12   4  -1   19.00    2.36
  12  -4   1   17.92    2.49
 -11   4  -1  153.52    6.80
  11  -4   1  141.20    9.23
 -10   4  -1   61.30    3.57
  10  -4   1   56.11    3.30
  -9   4  -1  352.25   12.26
   9  -4   1  316.68   10.04
  -8   4  -1  232.54   11.72
   8  -4   1  220.69    8.49
  -7   4  -1  308.39   11.05
   7  -4   1  352.65   11.38
  -6   4  -1  195.49    7.34
   6  -4   1  188.96    7.28
  -5   4  -1  456.59   14.48
   5  -4   1  420.29   13.27
  -4   4  -1   31.46    1.95
   4  -4   1   30.85    1.82
  -3   4  -1  774.35   24.12
   3  -4   1  758.52   22.43
  -2   4  -1  310.48   10.58
   2  -4   1  298.49    9.70
  -1   4  -1  600.55   19.54
   1  -4   1  555.55   17.51
   0   4  -1    0.13    1.01
   0  -4   1   -0.07    1.01
   1   4  -1  607.49   18.59
  -1  -4   1  567.68   17.99
   2   4  -1  312.57   15.90
  -2  -4   1  301.59   11.99
   3   4  -1  830.13   33.08
  -3  -4   1  800.49   24.12
   4   4  -1   32.74    2.29
  -4  -4   1   34.02    2.56
   5   4  -1  497.96   14.69
  -5  -4   1  486.64   15.02
   6   4  -1  211.66    9.16
  -6  -4   1  200.07    8.35
  -7  -4   1  414.22   22.36
   8   4  -1  283.94   14.15
  -8  -4   1  286.23   10.78
   9   4  -1  576.50   18.32
  -9  -4   1  469.39   15.63
  10   4  -1  105.22    4.85
 -10  -4   1  100.44    5.86
  11   4  -1  224.46   10.24
 -11  -4   1  200.68    8.82
  12   4  -1   33.48    6.00
 -12  -4   1   25.60    4.31
  13   4  -1   84.95    6.80
 -13  -4   1  108.19    8.02
  14   4  -1   42.51    4.98
 -14  -4   1   47.83    6.13
  15   4  -1  133.99   10.31
 -15  -4   1  143.49   16.37
  16   4  -1   30.72    4.65
 -16  -4   1   29.30    4.38
  17   4  -1  113.31    7.21
 -17  -4   1  122.13    8.29
 -19   4   0    0.34    3.64
  19  -4   0    8.56    4.11
 -18   4   0   36.98    6.87
  18  -4   0   38.67    3.97
 -17   4   0   39.88    5.66
  17  -4   0   40.35    4.18
 -16   4   0  143.76    8.42
  16  -4   0  148.61    7.54
 -15   4   0   86.36    5.73
  15  -4   0   79.29    4.92
 -14   4   0   71.34    4.65
  14  -4   0   74.10    4.45
 -13   4   0    0.20    3.30
  13  -4   0    2.83    2.22
 -12   4   0  137.83    6.67
  12  -4   0  143.69    6.06
 -11   4   0    0.81    1.95
  11  -4   0    2.69    2.36
 -10   4   0  275.25   10.51
  10  -4   0  262.32    9.77
  -9   4   0  252.95   10.64
   9  -4   0  262.38   10.24
  -8   4   0  291.75   10.64
   8  -4   0  294.04   10.91
  -7   4   0  378.38   12.87
   7  -4   0  390.78   13.14
  -6   4   0  866.37   26.20
   6  -4   0  882.94   26.20
  -5   4   0   97.68    4.04
   5  -4   0   92.63    4.11
  -4   4   0  449.72   14.55
   4  -4   0  452.08   13.81
  -3   4   0   83.46    4.98
   3  -4   0   75.78    3.37
  -2   4   0 2151.95   61.57
   2  -4   0 2166.30   56.72
  -1   4   0  450.73   15.22
   1  -4   0  429.92   13.67
   0   4   0   26.88    1.82
   0  -4   0   26.47    2.69
   1   4   0  443.59   19.67
  -1  -4   0  452.08   14.08
   2   4   0 2337.60   60.83
  -2  -4   0 2401.13   64.33
   3   4   0   79.36    3.37
  -3  -4   0   78.75    3.91
   4   4   0  493.85   15.63
  -4  -4   0  448.44   21.22
   5   4   0  106.03    4.58
  -5  -4   0   99.50    4.65
   6   4   0 1012.96   27.28
  -6  -4   0 1004.80   27.96
   7   4   0  465.96   14.21
  -7  -4   0  428.64   16.23
   8   4   0  396.98   13.34
  -8  -4   0  401.56   14.62
   9   4   0  443.53   21.29
  -9  -4   0  410.72   22.43
  10   4   0  531.71   23.91
 -10  -4   0  492.10   18.26
  11   4   0    1.08    2.36
 -11  -4   0    0.34    2.69
  12   4   0  202.36    8.22
 -12  -4   0  217.92    8.89
  13   4   0   -1.55    3.17
 -13  -4   0    4.38    3.17
  14   4   0  107.31    6.80
 -14  -4   0  119.64    7.75
  15   4   0  145.44    7.81
 -15  -4   0  146.58    8.22
  16   4   0  263.19   11.38
 -16  -4   0  270.13   11.86
  17   4   0   61.91    5.86
 -17  -4   0   73.29    6.87
 -18   4   1    3.64    3.71
  18  -4  -1    4.04    2.69
 -17   4   1   67.50    5.32
  17  -4  -1   68.51    4.11
 -16   4   1   14.95    2.90
  16  -4  -1   19.67    2.56
 -15   4   1   83.87    4.65
  15  -4  -1   77.94    4.38
 -14   4   1   29.84    4.18
  14  -4  -1   26.81    2.69
 -13   4   1   55.58    4.31
  13  -4  -1   54.36    3.77
 -12   4   1   14.08    2.29
  12  -4  -1   14.48    1.95
 -11   4   1  135.40    6.60
  11  -4  -1  134.59    6.53
 -10   4   1   64.67    3.37
  10  -4  -1   65.28    4.04
  -9   4   1  328.27   10.71
   9  -4  -1  340.05   11.99
  -8   4   1  199.20   10.37
   8  -4  -1  199.80    7.07
  -7   4   1  324.70   11.86
   7  -4  -1  276.60   13.14
  -6   4   1  185.59    6.67
   6  -4  -1  178.38    6.80
  -5   4   1  402.77   14.08
   5  -4  -1  411.60   19.47
  -4   4   1   31.12    1.89
   4  -4  -1   32.74    1.82
  -3   4   1  732.72   24.66
   3  -4  -1  712.71   20.34
  -2   4   1  300.24   14.69
   2  -4  -1  285.62   14.35
  -1   4   1  528.14   17.31
   1  -4  -1  591.66   18.59
   0   4   1   -1.01    0.94
   0  -4  -1    1.08    0.81
   1   4   1  559.59   16.50
  -1  -4  -1  576.84   16.17
   2   4   1  307.05   10.44
  -2  -4  -1  298.56   10.64
   3   4   1  787.29   23.04
  -3  -4  -1  781.56   24.52
   4   4   1   31.93    3.71
  -4  -4  -1   33.95    2.56
   5   4   1  463.47   13.94
  -5  -4  -1  462.25   14.35
   6   4   1  191.04    9.70
  -6  -4  -1  222.37   10.37
   7   4   1  403.44   14.08
  -7  -4  -1  346.99   12.73
   8   4   1  290.54   15.09
  -8  -4  -1  293.03   10.24
   9   4   1  470.67   16.37
  -9  -4  -1  565.52   20.75
  10   4   1   97.95    5.79
 -10  -4  -1  105.02    8.49
  11   4   1  217.92   12.13
 -11  -4  -1  240.56   10.44
  12   4   1   31.39    3.64
 -12  -4  -1   27.69    3.57
  13   4   1   88.58    5.79
 -13  -4  -1  103.00    6.33
  14   4   1   54.97    4.58
 -14  -4  -1   56.45    7.07
  15   4   1  153.46    8.15
 -15  -4  -1  150.29    9.09
  16   4   1   28.50    4.24
 -16  -4  -1   36.24    4.92
  17   4   1  133.65    7.61
 -17  -4  -1  141.73    8.35
 -18   4   2   49.51    5.59
  18  -4  -2   39.07    4.04
 -17   4   2   11.38    2.76
  17  -4  -2   13.54    2.43
 -16   4   2   38.06    3.44
  16  -4  -2   46.28    3.37
 -15   4   2    8.29    3.37
  15  -4  -2    9.77    2.09
 -14   4   2  126.38    9.43
  14  -4  -2  101.45    4.92
 -13   4   2    5.59    2.43
  13  -4  -2    7.68    2.09
 -12   4   2  104.82    6.80
  12  -4  -2  100.17    5.19
 -11   4   2   96.87    7.34
  11  -4  -2  107.04    4.72
 -10   4   2  307.05   11.18
  10  -4  -2  303.00   11.45
  -9   4   2   77.60    4.18
   9  -4  -2   70.80    3.37
  -8   4   2  357.30   15.22
   8  -4  -2  371.78   18.59
  -7   4   2   97.88    6.13
   7  -4  -2   98.15    4.11
  -6   4   2  498.29   15.43
   6  -4  -2  445.48   14.42
  -5   4   2   25.13    1.68
   5  -4  -2   25.60    1.62
  -4   4   2  737.23   23.85
   4  -4  -2  739.73   28.70
  -3   4   2   56.11    2.76
   3  -4  -2   55.64    2.49
  -2   4   2  325.84   12.93
   2  -4  -2  291.69   10.58
  -1   4   2  100.31    3.84
   1  -4  -2  103.81    4.18
   0   4   2 1576.32   44.33
   0  -4  -2 1648.47   61.30
   1   4   2  110.68    4.98
  -1  -4  -2  108.66    4.72
   2   4   2  341.67   11.59
  -2  -4  -2  307.05   10.44
   3   4   2   61.30    4.72
  -3  -4  -2   60.56    3.10
   4   4   2  819.69   25.67
  -4  -4  -2  825.82   22.70
   5   4   2   31.80    2.22
  -5  -4  -2   27.55    2.02
   6   4   2  594.83   17.65
  -6  -4  -2  538.24   17.85
   7   4   2  132.71    5.59
  -7  -4  -2  118.76    9.77
   8   4   2  551.11   16.77
  -8  -4  -2  599.88   19.06
   9   4   2  124.89    5.86
  -9  -4  -2  113.71    5.25
  10   4   2  479.30   19.06
 -10  -4  -2  494.99   18.26
  11   4   2  159.32    7.28
 -11  -4  -2  182.02    8.56
  12   4   2  168.61    8.08
 -12  -4  -2  171.04   12.13
  13   4   2   13.74    6.26
 -13  -4  -2   11.79    3.57
  14   4   2  231.53   11.05
 -14  -4  -2  193.07   10.64
  15   4   2   20.41    3.57
 -15  -4  -2   21.69    3.91
  16   4   2   89.26    6.06
 -16  -4  -2   98.69    6.60
  17   4   2   31.39    5.32
 -17  -4  -2   30.45    6.47
 -17   4   3   25.60    3.03
  17  -4  -3   29.37    2.69
 -16   4   3    0.40    3.50
  16  -4  -3    0.27    2.02
 -15   4   3   31.19    4.85
  15  -4  -3   28.90    2.69
 -14   4   3   15.16    3.64
  14  -4  -3   15.22    1.95
 -13   4   3   95.19    4.51
  13  -4  -3   95.72    4.78
 -12   4   3   22.03    1.95
  12  -4  -3   19.20    1.89
 -11   4   3  159.11   10.44
  11  -4  -3  169.02    7.21
 -10   4   3   12.60    1.68
  10  -4  -3   11.65    1.62
   9  -4  -3  258.81    9.43
  -8   4   3   19.81    2.36
   8  -4  -3   20.28    1.68
  -7   4   3  438.07   15.49
   7  -4  -3  426.95   13.54
  -6   4   3  129.34    7.68
   6  -4  -3  124.42    7.01
  -5   4   3  263.53    9.97
   5  -4  -3  209.77   10.91
  -4   4   3   34.22    2.09
   4  -4  -3   31.80    2.29
  -3   4   3  220.95    9.43
   3  -4  -3  219.74    7.68
  -2   4   3  105.69    4.58
   2  -4  -3  101.05    3.97
  -1   4   3 1178.87   47.56
   1  -4  -3 1183.72   45.61
   0   4   3    0.40    1.08
   0  -4  -3   -0.67    1.41
   1   4   3 1238.76   36.11
  -1  -4  -3 1348.97   54.36
   2   4   3  104.89    4.98
  -2  -4  -3  103.94    3.91
   3   4   3  245.54    9.70
  -3  -4  -3  253.02    8.76
   4   4   3   41.83    2.83
  -4  -4  -3   41.70    2.56
   5   4   3  314.99   11.59
  -5  -4  -3  264.81   12.60
   6   4   3  143.08    6.80
  -6  -4  -3  156.89    6.40
   7   4   3  575.02   17.04
  -7  -4  -3  569.97   26.20
   8   4   3   31.12    2.83
  -8  -4  -3   31.05    2.63
   9   4   3  369.96   11.99
  -9  -4  -3  403.71   13.61
  10   4   3   17.99    2.90
 -10  -4  -3   19.00    2.96
  11   4   3  280.84   12.13
 -11  -4  -3  300.58   12.13
  12   4   3   34.76    3.64
 -12  -4  -3   32.40    3.37
  13   4   3  227.76   11.38
 -13  -4  -3  203.78   14.48
  14   4   3   35.50    4.04
 -14  -4  -3   38.67    5.46
  15   4   3   79.69    8.22
 -15  -4  -3   85.96    6.13
  16   4   3    0.67    3.50
 -16  -4  -3    1.35    3.84
 -17   4   4    1.08    2.22
  17  -4  -4    1.35    1.82
 -16   4   4   19.00    2.76
  16  -4  -4   23.58    2.29
 -15   4   4    3.17    2.02
  15  -4  -4    6.13    1.75
 -14   4   4   52.68    4.65
  14  -4  -4   59.15    3.44
 -13   4   4    8.49    2.69
  13  -4  -4    7.61    1.48
  12  -4  -4  131.76    5.79
  11  -4  -4    8.76    1.35
 -10   4   4  106.57    8.22
  10  -4  -4  103.07    6.87
  -9   4   4    3.97    1.55
   9  -4  -4    3.03    0.74
  -8   4   4  424.60   25.06
   8  -4  -4  450.26   14.48
   7  -4  -4    2.43    0.61
  -6   4   4  238.87   14.21
   6  -4  -4  249.85    9.16
   5  -4  -4   25.67    1.35
  -4   4   4  217.38   12.46
   4  -4  -4  194.75   10.58
  -3   4   4   48.43    2.96
   3  -4  -4   54.43    2.63
  -2   4   4  324.96   10.78
   2  -4  -4  323.68   14.55
  -1   4   4   47.02    2.43
   1  -4  -4   52.01    2.49
   0   4   4 1897.92   50.52
   0  -4  -4 1992.16   51.53
   1   4   4   53.02    2.69
  -1  -4  -4   52.81    3.97
   2   4   4  365.05   11.86
  -2  -4  -4  356.69   17.38
   3   4   4   67.84    3.57
  -3  -4  -4   63.19    3.30
   4   4   4  276.93    9.43
  -4  -4  -4  229.91    7.54
   5   4   4   39.95    2.36
  -5  -4  -4   32.74    2.29
   6   4   4  242.04   11.18
  -6  -4  -4  283.27   11.72
   7   4   4    3.44    1.89
  -7  -4  -4    0.67    1.82
   8   4   4  673.30   23.64
  -8  -4  -4  655.99   21.29
   9   4   4    2.43    2.22
  -9  -4  -4    2.22    2.02
  10   4   4  186.80    8.76
 -10  -4  -4  180.74    8.22
  11   4   4   15.16    3.03
 -11  -4  -4   15.36    3.03
  12   4   4  305.97   12.66
 -12  -4  -4  276.66   15.97
  13   4   4   19.27    3.44
 -13  -4  -4   19.27    3.71
  14   4   4  145.91    7.61
 -14  -4  -4  141.87    8.29
  15   4   4    7.41    3.77
 -15  -4  -4    8.02    5.59
  16   4   4   69.72    7.81
 -16  -4  -4   80.37   10.37
  16  -4  -5    4.72    1.62
 -15   4   5   29.84    3.17
  15  -4  -5   29.71    2.09
 -14   4   5    6.40    2.36
  14  -4  -5    8.08    1.41
 -13   4   5   66.49    5.46
  13  -4  -5   68.98    3.97
 -12   4   5   -0.07    1.62
  11  -4  -5   54.23    3.10
  10  -4  -5    6.53    1.21
  -2   4   5   22.50    1.35
   2  -4  -5   21.49    1.55
  -1   4   5  639.62   26.07
   1  -4  -5  660.51   20.34
   0   4   5   -0.20    0.94
   0  -4  -5    0.81    1.41
   1   4   5  678.96   19.74
  -1  -4  -5  671.35   21.15
   2   4   5   25.33    1.75
  -2  -4  -5   27.35    1.95
   3   4   5  174.27    6.67
  -3  -4  -5  152.58    8.76
   4   4   5    6.26    1.68
  -4  -4  -5    3.97    1.68
   5   4   5  280.71    9.50
  -5  -4  -5  294.04   10.10
   6   4   5    1.75    2.43
  -6  -4  -5    0.74    2.49
   7   4   5  341.33   11.99
  -7  -4  -5  376.57   12.60
   8   4   5   13.88    2.49
  -8  -4  -5    9.70    3.23
   9   4   5  316.68   12.13
  -9  -4  -5  308.60   11.86
  10   4   5   14.48    3.17
 -10  -4  -5   18.53    4.18
  11   4   5  148.94    8.35
 -11  -4  -5  119.91   10.98
  12   4   5   -0.74    3.64
 -12  -4  -5   -0.07    3.84
  13   4   5  184.04    9.70
 -13  -4  -5  202.16    9.03
  14   4   5   24.05    4.51
 -14  -4  -5   28.70    4.51
  15   4   5  111.76    7.95
 -15  -4  -5  126.98    8.56
  16   4   5    7.48    3.64
 -16  -4  -5   17.92    4.51
  15  -4  -6    4.72    1.28
  14  -4  -6   18.39    2.22
  -2   4   6  498.76   16.84
  -1   4   6  147.12    5.79
   0   4   6  100.91    4.11
   0  -4  -6   68.64    4.85
   1   4   6  144.23    5.39
  -1  -4  -6  140.18    5.46
   2   4   6  584.99   17.11
  -2  -4  -6  599.47   25.60
   3   4   6   60.16    3.03
  -3  -4  -6   61.91    4.38
   4   4   6  365.99   11.65
   5   4   6   17.65    2.22
  -5  -4  -6   17.25    2.36
   6   4   6  389.50   13.07
  -6  -4  -6  424.73   15.63
   7   4   6   15.02    2.49
  -7  -4  -6   13.67    3.30
   8   4   6  194.21    8.15
  -8  -4  -6  173.33   11.12
   9   4   6   35.97    3.77
  -9  -4  -6   33.41    3.77
  10   4   6  243.45   10.44
 -10  -4  -6  232.74   11.79
  11   4   6    6.80    2.83
 -11  -4  -6    6.26    2.90
  12   4   6  191.65    9.03
 -12  -4  -6  193.54    8.69
  13   4   6   23.58    3.64
 -13  -4  -6   24.59    3.84
  14   4   6  100.17    7.88
 -14  -4  -6  105.83    7.41
  15   4   6   27.42    4.31
 -15  -4  -6   25.94    4.51
  -1   4   7   89.19    4.24
   0   4   7    0.00    0.67
   0  -4  -7    1.01    1.68
   1   4   7   92.22    3.97
  -1  -4  -7  101.92    4.72
   2   4   7  142.48    5.86
  -2  -4  -7  148.27    5.79
   3   4   7  643.26   20.55
  -3  -4  -7  664.95   21.15
   4   4   7   21.42    2.22
  -4  -4  -7   21.83    2.90
   5   4   7  349.08   14.15
  -5  -4  -7  345.58   13.27
   6   4   7   34.83    2.90
  -6  -4  -7   37.99    3.30
   7   4   7  173.80    7.48
  -7  -4  -7  177.91    7.68
   8   4   7    0.20    2.29
  -8  -4  -7    1.21    3.17
   9   4   7   93.77    5.25
  -9  -4  -7  104.48    5.79
  10   4   7   72.35    5.52
 -10  -4  -7   63.12    4.92
  11   4   7  240.62   11.12
 -11  -4  -7  214.08   10.51
  12   4   7   16.71    3.77
 -12  -4  -7   17.51    4.04
  13   4   7   95.66    6.80
 -13  -4  -7   93.37    6.94
  14   4   7   63.05    5.59
 -14  -4  -7   57.73    5.59
  15   4   7  157.23   10.17
 -15  -4  -7  148.81   10.44
  -1   4   8   24.99    1.95
   1  -4  -8   24.12    2.83
   0   4   8   32.20    2.09
   0  -4  -8   41.36    2.69
   1   4   8   28.16    1.95
  -1  -4  -8   24.25    2.90
   2   4   8  133.85    5.46
  -2  -4  -8  111.35    5.32
   3   4   8  191.58    7.68
  -3  -4  -8  188.28    7.07
   4   4   8  440.29   16.71
  -4  -4  -8  460.37   23.17
   5   4   8   85.22    4.31
  -5  -4  -8   80.23    6.13
   6   4   8  250.26   10.71
  -6  -4  -8  239.08    8.82
   7   4   8    8.96    2.29
  -7  -4  -8   10.04    2.83
   8   4   8   49.65    3.50
  -8  -4  -8   62.51    4.24
   9   4   8   10.37    2.49
  -9  -4  -8   13.27    3.84
  10   4   8  143.42    6.87
 -10  -4  -8  140.99    7.41
  11   4   8   79.62    5.46
 -11  -4  -8   77.87    5.25
  12   4   8   46.48    4.72
 -12  -4  -8   49.04    4.98
  13   4   8  104.01    7.34
 -13  -4  -8  122.47   13.00
  14   4   8  216.04   10.64
 -14  -4  -8  200.21   10.85
  -1   4   9  117.48    5.19
   0   4   9   -0.47    0.94
   0  -4  -9    0.00    1.28
   1   4   9  115.39    4.85
  -1  -4  -9  128.46    6.06
   2   4   9    8.08    1.48
  -2  -4  -9    8.62    2.22
   3   4   9  215.30    8.02
  -3  -4  -9  233.08   10.44
   4   4   9   35.37    2.76
  -4  -4  -9   36.85    3.23
   5   4   9  389.50   14.15
  -5  -4  -9  360.13   13.61
   6   4   9   39.61    2.83
  -6  -4  -9   43.18    3.71
   7   4   9  117.48    6.47
  -7  -4  -9  108.52    6.00
   8   4   9   13.00    3.17
  -8  -4  -9   15.43    4.11
   9   4   9  100.04    5.86
  -9  -4  -9  100.78    8.08
  10   4   9   16.98    3.50
 -10  -4  -9    9.50    3.23
  11   4   9   60.16    5.32
 -11  -4  -9   84.34    6.67
  12   4   9   76.80    5.32
 -12  -4  -9   75.72    5.93
  13   4   9  192.53   10.04
 -13  -4  -9  192.39   10.10
  14   4   9   -4.45    4.51
 -14  -4  -9   -0.20    5.32
  -1   4  10   16.71    1.48
   0   4  10  109.53    7.81
   0  -4 -10  107.45    5.86
   1   4  10   13.34    1.62
  -1  -4 -10   14.48    2.02
   2   4  10  127.45    5.32
  -2  -4 -10  128.87    6.20
   3   4  10   11.99    1.62
  -3  -4 -10   10.17    1.95
   4   4  10  143.55    6.20
  -4  -4 -10  137.89    6.20
   5   4  10   21.08    2.56
  -5  -4 -10   20.34    2.90
   6   4  10  172.18    8.08
  -6  -4 -10  158.91   10.58
   7   4  10   20.14    3.37
   8   4  10  116.74    6.74
  -8  -4 -10  111.49    6.47
   9   4  10    3.91    2.56
  -9  -4 -10    3.03    3.57
  10   4  10   34.83    3.57
 -10  -4 -10   41.70    4.72
  11   4  10   52.14    5.05
 -11  -4 -10   56.25    5.32
  12   4  10  174.07   11.45
 -12  -4 -10  192.12   10.44
  13   4  10   16.91    4.11
 -13  -4 -10   22.84    4.24
  -1   4  11   96.47    5.12
   0   4  11    0.34    1.08
   0  -4 -11    0.34    1.89
   1   4  11  133.04    6.67
  -1  -4 -11  138.37    8.82
   2   4  11   21.15    2.02
  -2  -4 -11   26.47    2.29
   3   4  11   78.82    4.04
  -3  -4 -11   76.05    6.20
   4   4  11    2.02    1.75
  -4  -4 -11    5.32    2.49
   5   4  11  104.08    5.39
  -5  -4 -11  110.28    9.30
   6   4  11   24.59    3.03
  -6  -4 -11   20.34    3.30
   7   4  11   95.86    6.06
  -7  -4 -11  101.85    5.93
   8   4  11   12.13    2.96
  -8  -4 -11   15.76    4.72
   9   4  11   60.02    5.32
  -9  -4 -11   67.84    6.47
  10   4  11   60.36    5.73
 -10  -4 -11   56.32    5.12
  11   4  11  110.01    7.14
 -11  -4 -11  124.49    8.82
  12   4  11   -1.62    4.85
 -12  -4 -11   -3.44    8.22
  -1   4  12    5.46    0.94
   0   4  12  107.51    4.45
   1   4  12   12.53    2.83
  -1  -4 -12    8.29    2.02
   2   4  12   59.95    4.18
   3   4  12   32.67    2.90
  -3  -4 -12   26.27    3.23
   4   4  12   81.78    4.92
  -4  -4 -12   66.49    6.20
   5   4  12    7.34    2.09
  -5  -4 -12   11.32    3.57
   6   4  12   77.67    5.25
  -6  -4 -12   91.88    5.86
   7   4  12   23.91    2.96
  -7  -4 -12   35.10    3.84
   8   4  12   74.91    5.79
  -8  -4 -12   73.90   10.17
   9   4  12    7.21    3.17
  -9  -4 -12   10.85    4.18
  10   4  12   88.65    6.40
 -10  -4 -12   72.75    5.46
  11   4  12    4.11    3.50
 -11  -4 -12    1.75    3.77
  12   4  12   54.09    7.68
  -1   4  13   29.71    2.90
   0   4  13   -0.20    1.01
   0  -4 -13   -0.07    2.16
   1   4  13   54.36    4.18
  -1  -4 -13   54.09    3.10
   2   4  13    9.84    2.16
  -2  -4 -13    9.36    2.63
   3   4  13   69.25    4.45
  -3  -4 -13   69.99    4.58
   4   4  13    9.03    2.63
  -4  -4 -13    7.81    2.63
   5   4  13   32.40    3.37
  -5  -4 -13   46.48    7.48
   6   4  13   17.51    2.96
  -6  -4 -13   20.07    4.78
   7   4  13   89.86    8.56
  -7  -4 -13   73.90   10.04
   8   4  13    4.18    2.90
  -8  -4 -13    4.18    4.38
   9   4  13   57.66    5.25
  -9  -4 -13   44.19    5.39
  10   4  13    9.23    4.11
 -10  -4 -13    6.06    4.51
  11   4  13   64.94    6.53
 -11  -4 -13   58.07    5.32
   0   4  14   12.40    1.28
   1   4  14    6.33    1.55
   2   4  14   41.70    3.03
  -2  -4 -14   36.71    3.37
   3   4  14   23.51    2.63
  -3  -4 -14   23.85    5.59
   4   4  14   37.45    3.44
  -4  -4 -14   50.46    5.93
   5   4  14   21.22    3.17
  -5  -4 -14   21.15    3.50
   6   4  14   41.70    5.12
  -6  -4 -14   43.18    4.38
   7   4  14    4.31    3.84
  -7  -4 -14    2.29    5.52
   8   4  14   26.68    4.18
  -8  -4 -14   21.08    4.11
   9   4  14   -0.94    3.44
  10   4  14   59.95    4.92
 -10  -4 -14   50.52    5.32
   1   4  15   13.34    1.82
  -1  -4 -15   15.63    2.49
   2   4  15    9.03    1.89
  -2  -4 -15   10.98    3.97
   3   4  15   27.35    2.43
  -3  -4 -15   29.37    3.84
   4   4  15    1.28    2.22
   5   4  15   46.89    4.04
  -5  -4 -15   48.70    4.58
   6   4  15    5.52    2.49
  -6  -4 -15    6.87    3.50
   7   4  15    8.96    2.02
   8   4  15    1.55    3.44
  -8  -4 -15    5.93    4.72
   9   4  15   44.93    4.45
  -9  -4 -15   39.95    5.66
   1   5 -15    2.69    4.92
  -1  -5  15   -0.34    6.40
   2   5 -15   36.04    5.66
  -2  -5  15   39.41    6.33
   3   5 -15    6.67    7.48
  -3  -5  15   -2.16    8.08
  -4   5 -14    4.18    4.04
   4  -5  14    2.90    3.64
  -3   5 -14  111.42    6.94
   3  -5  14  112.09    7.88
  -2   5 -14    0.88    4.92
   2  -5  14    2.96    4.04
  -1   5 -14   37.93    6.26
   1  -5  14   49.58    6.20
   0   5 -14    3.44    3.77
   0  -5  14    0.34    3.84
   1   5 -14   38.80    5.05
  -1  -5  14   43.65    4.58
   2   5 -14    5.66    3.91
  -2  -5  14    3.97    3.64
   3   5 -14   95.05    8.49
  -3  -5  14  108.05    7.48
   4   5 -14    5.39    5.19
  -4  -5  14    5.25    4.11
   5   5 -14   45.27    4.98
  -5  -5  14   34.42    4.78
   6   5 -14    9.84    4.18
  -6  -5  14   15.02    4.11
   7   5 -14   35.84    6.20
  -7  -5  14   35.23    6.06
  -8  -5  14    2.49    6.67
  -7   5 -13   29.37    8.82
   7  -5  13   34.36    9.63
  -6   5 -13   72.35    6.40
   6  -5  13   61.23    6.67
  -5   5 -13   29.98    5.39
   5  -5  13   36.92    5.12
  -4   5 -13  154.74    9.30
   4  -5  13  180.60   10.24
  -3   5 -13   41.02    7.61
   3  -5  13   48.57    5.59
  -2   5 -13   62.38    6.26
   2  -5  13   50.79    7.88
  -1   5 -13   12.80    4.24
   1  -5  13   19.47    4.11
   0   5 -13   59.68    5.52
   0  -5  13   61.71    5.25
   1   5 -13   14.08    3.71
  -1  -5  13   21.56    3.97
   2   5 -13   53.82    4.92
  -2  -5  13   47.69    5.32
   3   5 -13   38.26    4.98
  -3  -5  13   32.47    4.38
   4   5 -13  133.45   10.98
  -4  -5  13  147.26    9.30
   5   5 -13   33.35    6.06
  -5  -5  13   29.51    4.78
   6   5 -13   57.73    5.19
  -6  -5  13   48.43    4.78
   7   5 -13   18.46    5.19
  -7  -5  13   26.68    4.98
   8   5 -13   42.84    5.46
  -8  -5  13   52.68    7.07
   9   5 -13   16.17    4.18
  -9  -5  13   21.15    4.11
  -8   5 -12   53.89    5.39
  -7   5 -12  112.09    8.29
   7  -5  12   87.37    7.01
  -6   5 -12   52.27    5.73
   6  -5  12   49.85    5.86
  -5   5 -12  242.98   13.61
   5  -5  12  229.64   10.64
  -4   5 -12    4.72    3.37
   4  -5  12    4.85    3.37
  -3   5 -12   80.63    5.66
   3  -5  12   86.56    5.32
  -2   5 -12   25.33    3.71
   2  -5  12   32.33    4.04
  -1   5 -12  110.61    7.21
   1  -5  12   92.90    6.40
   0   5 -12    1.41    2.83
   0  -5  12   -1.68    3.10
   1   5 -12  120.04   10.24
  -1  -5  12   97.95    6.94
   2   5 -12   28.50    3.91
  -2  -5  12   34.69    3.97
   3   5 -12   68.58    5.05
  -3  -5  12   84.41    5.79
   4   5 -12    6.13    3.30
  -4  -5  12    5.93    3.30
   5   5 -12  171.31    9.23
  -5  -5  12  186.80    8.96
   6   5 -12   29.24    5.19
  -6  -5  12   39.68    5.19
   7   5 -12   92.09    6.74
  -7  -5  12   77.27    5.73
   8   5 -12   37.93    4.92
  -8  -5  12   42.71    4.78
   9   5 -12   59.48    5.86
  -9  -5  12   74.30    8.29
  10   5 -12    6.33    5.12
 -10  -5  12    6.67    4.92
  11   5 -12   17.04    4.78
 -11  -5  12   23.11    6.00
 -10   5 -11  122.00    8.96
  10  -5  11  123.41    7.95
   9  -5  11   69.92    8.02
  -8   5 -11   40.35    5.52
   8  -5  11   21.76    5.52
  -7   5 -11   25.33    9.57
   7  -5  11   23.24    5.52
  -6   5 -11  291.15   11.99
   6  -5  11  305.50   13.20
  -5   5 -11   28.09    4.24
   5  -5  11   28.70    3.91
  -4   5 -11   93.70    6.13
   4  -5  11   83.06    5.86
  -3   5 -11    7.28    3.30
   3  -5  11    4.31    2.76
  -2   5 -11  191.11    8.08
   2  -5  11  199.13    9.50
  -1   5 -11   27.96    3.97
   1  -5  11   30.31    4.04
   0   5 -11  152.45    8.82
   0  -5  11  121.93    6.80
   1   5 -11   26.41    3.50
  -1  -5  11   29.71    3.44
   2   5 -11  163.76    8.08
  -2  -5  11  185.72    8.62
   3   5 -11    4.11    2.90
  -3  -5  11    4.18    2.69
   4   5 -11   81.91    5.32
  -4  -5  11   68.91    5.05
   5   5 -11   27.35    4.11
  -5  -5  11   26.41    4.24
   6   5 -11  217.72    9.57
  -6  -5  11  242.65    9.50
   7   5 -11   19.94    3.57
  -7  -5  11   17.11    3.91
   8   5 -11   26.00    4.72
  -8  -5  11   19.94    3.84
   9   5 -11   41.29    4.31
  -9  -5  11   49.58    4.98
  10   5 -11   74.37    7.28
 -10  -5  11   85.69   10.91
  11   5 -11   14.69    3.91
 -11  -5  11   15.09    3.91
  12   5 -11   15.36    4.18
 -12  -5  11   23.71    3.97
 -11   5 -10  105.29    8.08
  11  -5  10  120.38    8.49
 -10   5 -10   28.29    4.98
  10  -5  10   24.45    5.25
  -9   5 -10   81.91    6.60
   9  -5  10   64.00    5.19
  -8   5 -10   59.62    5.66
   8  -5  10   43.79    4.45
  -7   5 -10  242.85   11.52
   7  -5  10  268.45   15.56
  -6   5 -10   23.64    5.59
   6  -5  10   13.14    3.23
  -5   5 -10  191.52    8.69
   5  -5  10  184.11   10.24
  -4   5 -10   11.52    5.32
   4  -5  10    3.71    3.84
  -3   5 -10  159.79   10.31
   3  -5  10  158.78    7.81
  -2   5 -10   31.32    4.78
   2  -5  10   29.37    3.91
  -1   5 -10  138.30    7.14
   1  -5  10  133.18    7.34
   0   5 -10    2.83    2.49
   0  -5  10    0.13    2.22
   1   5 -10  128.33    7.81
  -1  -5  10  123.48    7.68
   2   5 -10   32.07    6.00
  -2  -5  10   32.94    4.58
   3   5 -10  159.45    7.95
  -3  -5  10  148.87    8.89
   4   5 -10    4.18    3.37
  -4  -5  10   10.98    3.17
   5   5 -10  167.80    9.70
  -5  -5  10  157.50   10.91
   6   5 -10   11.12    2.96
  -6  -5  10   16.30    3.10
   7   5 -10  173.19    9.77
  -7  -5  10  205.06   10.04
   8   5 -10   50.39    4.38
  -8  -5  10   42.30    4.38
   9   5 -10   55.98    4.51
  -9  -5  10   40.76    4.38
  10   5 -10   17.25    4.18
 -10  -5  10   19.20    3.84
  11   5 -10   80.57    5.73
 -11  -5  10   95.93    6.67
  12   5 -10    4.78    4.85
 -12  -5  10   10.10    4.51
  13   5 -10   45.47    5.79
 -13  -5  10   61.57    5.79
 -13   5  -9    1.75    5.93
  13  -5   9   -0.61    6.20
 -12   5  -9  162.55   10.10
  12  -5   9  176.09   10.37
 -11   5  -9   19.67    5.66
  11  -5   9   15.16    5.93
 -10   5  -9   81.44    6.80
  10  -5   9   57.46    5.25
  -9   5  -9   25.26    5.25
   9  -5   9   23.38    3.50
  -8   5  -9  118.22    7.28
   8  -5   9  138.23    7.14
  -7   5  -9   15.90    4.65
   7  -5   9   13.14    3.91
  -6   5  -9  144.36    7.88
   6  -5   9  138.64    7.95
  -5   5  -9    2.02    2.83
   5  -5   9    6.40    3.30
  -4   5  -9  358.65   18.53
   4  -5   9  377.71   14.75
  -3   5  -9   38.26    4.38
   3  -5   9   33.61    3.64
  -2   5  -9  198.39    8.96
   2  -5   9  181.07    7.41
  -1   5  -9   10.31    3.10
   1  -5   9    8.62    2.90
   0   5  -9  190.03    8.15
   0  -5   9  216.85   10.31
   1   5  -9   10.64    3.03
  -1  -5   9    8.96    2.76
   2   5  -9  202.03    9.77
  -2  -5   9  165.51    9.90
   3   5  -9   34.09    3.30
  -3  -5   9   29.57    3.17
   4   5  -9  357.43   12.26
  -4  -5   9  343.29   11.79
   5   5  -9    8.76    3.44
  -5  -5   9    3.97    2.56
   6   5  -9  130.08    6.74
  -6  -5   9  131.97    6.20
   7   5  -9   11.25    3.84
  -7  -5   9   16.64    4.11
   8   5  -9  100.78    5.73
  -8  -5   9  123.07    6.60
   9   5  -9   20.41    3.57
  -9  -5   9   14.35    3.97
  10   5  -9   64.47    5.32
 -10  -5   9   46.35    5.32
  11   5  -9   12.46    3.77
 -11  -5   9   12.13    3.77
  12   5  -9  124.96    8.29
 -12  -5   9  131.76    7.75
  13   5  -9    5.19    4.38
 -13  -5   9    4.51    4.51
  14   5  -9   32.94    4.51
 -14  -5   9   33.68    5.86
 -14   5  -8   14.21    5.46
  14  -5   8    6.80    5.12
 -13   5  -8   98.49    7.81
  13  -5   8  108.86    7.07
 -12   5  -8    1.95    4.18
  12  -5   8    4.24    3.84
 -11   5  -8  187.61   10.98
  11  -5   8  182.96   10.64
 -10   5  -8    6.00    3.44
  10  -5   8    5.86    3.64
  -9   5  -8   95.46    6.26
   9  -5   8   97.14    6.00
  -8   5  -8   10.24    4.11
   8  -5   8    5.79    3.50
  -7   5  -8   98.42    6.60
   7  -5   8   98.28    5.05
  -6   5  -8    8.42    3.10
   6  -5   8   16.44    2.69
  -5   5  -8  332.91   15.02
   5  -5   8  347.20   13.00
  -4   5  -8    5.19    2.29
   4  -5   8    4.51    2.22
  -3   5  -8  619.68   21.08
   3  -5   8  592.47   24.86
  -2   5  -8   37.59    6.26
   2  -5   8   30.31    3.03
  -1   5  -8   71.88    6.33
   1  -5   8   82.39    4.85
   0   5  -8    1.35    2.36
   0  -5   8   -1.95    2.49
   1   5  -8   78.88    5.93
  -1  -5   8   73.90    4.85
   2   5  -8   30.92    3.30
  -2  -5   8   27.55    3.17
   3   5  -8  608.70   19.60
  -3  -5   8  571.92   19.33
   4   5  -8    4.98    2.69
  -4  -5   8    2.43    2.90
   5   5  -8  321.33   11.79
  -5  -5   8  334.80   13.14
   6   5  -8   13.07    3.10
  -6  -5   8    9.50    3.03
   7   5  -8   84.21    5.39
  -7  -5   8   95.25    5.66
   8   5  -8    9.36    5.52
  -8  -5   8    5.32    3.71
   9   5  -8   80.57    4.92
  -9  -5   8   87.51    5.25
  10   5  -8    2.90    2.83
 -10  -5   8    4.38    3.37
  11   5  -8  145.44    8.02
 -11  -5   8  153.19    9.16
  12   5  -8    0.88    5.32
 -12  -5   8    3.57    4.04
  13   5  -8   76.59    5.86
 -13  -5   8  101.65    6.80
  14   5  -8    7.88    4.24
 -14  -5   8    4.31    5.05
 -15   5  -7    8.08    5.93
  15  -5   7    5.12    5.25
 -14   5  -7   64.13    5.79
  14  -5   7   73.83    6.20
 -13   5  -7    0.61    3.84
  13  -5   7    1.62    3.23
 -12   5  -7  129.00    7.88
  12  -5   7  133.45    8.22
 -11   5  -7    8.35    3.97
  11  -5   7    4.45    3.10
 -10   5  -7  161.88    7.61
  10  -5   7  156.55    7.54
  -9   5  -7   -0.61    3.10
   9  -5   7    3.10    4.51
  -8   5  -7   68.98    4.78
   8  -5   7   78.68    5.46
  -7   5  -7    8.49    2.56
   7  -5   7    6.87    2.36
  -6   5  -7  161.54    7.41
   6  -5   7  170.09    7.34
  -5   5  -7   14.28    2.90
   5  -5   7   11.52    2.22
  -4   5  -7  548.28   19.81
   4  -5   7  598.13   22.84
  -3   5  -7    8.29    2.43
   3  -5   7    8.56    2.29
  -2   5  -7  364.64   14.42
   2  -5   7  340.66   14.08
  -1   5  -7   36.17    7.07
   1  -5   7   31.26    4.24
   0   5  -7   25.33    2.83
   0  -5   7   49.92    6.13
   1   5  -7   33.61    3.44
  -1  -5   7   32.20    3.03
   2   5  -7  347.20   12.80
  -2  -5   7  335.68   12.53
   3   5  -7    8.76    2.43
  -3  -5   7    7.68    2.09
   4   5  -7  563.84   19.00
  -4  -5   7  567.61   20.07
   5   5  -7   20.95    4.85
  -5  -5   7   12.19    2.76
   6   5  -7  163.29    7.41
  -6  -5   7  174.81    7.54
   7   5  -7    4.85    3.17
  -7  -5   7   14.55    2.63
   8   5  -7   63.12    4.38
  -8  -5   7   68.85    4.72
   9   5  -7    1.55    2.43
  -9  -5   7    0.00    3.37
  10   5  -7  135.07    6.80
 -10  -5   7  133.11    6.47
  11   5  -7    5.93    3.03
 -11  -5   7    6.40    4.38
  12   5  -7  121.26    6.47
 -12  -5   7  118.76    7.28
  13   5  -7    6.26    3.91
 -13  -5   7    0.20    4.24
  14   5  -7   61.23    5.93
 -14  -5   7   66.15    6.87
  15   5  -7    2.36    4.11
 -15  -5   7    3.10    4.85
 -15   5  -6   94.04    7.88
  15  -5   6   83.53    7.54
 -14   5  -6    6.67    4.45
  14  -5   6    2.90    3.77
 -13   5  -6  102.80    7.34
  13  -5   6   96.40    5.66
 -12   5  -6   -0.07    3.03
  12  -5   6    2.36    2.76
 -11   5  -6  128.06    9.50
  11  -5   6  119.37    7.01
 -10   5  -6   49.65    4.11
  10  -5   6   48.77    3.97
  -9   5  -6  171.85    7.88
   9  -5   6  173.60    8.42
  -8   5  -6   34.42    3.50
   8  -5   6   32.13    3.17
  -7   5  -6  187.14    9.09
   7  -5   6  157.90    9.43
  -6   5  -6   67.16    5.59
   6  -5   6   65.61    4.45
  -5   5  -6  385.05   13.20
   5  -5   6  408.29   15.43
  -4   5  -6   -0.81    2.02
   4  -5   6    2.22    1.82
  -3   5  -6  340.46   13.47
   3  -5   6  331.36   11.99
  -2   5  -6  328.54   11.86
   2  -5   6  324.83   11.59
  -1   5  -6  307.85   14.75
   1  -5   6  262.38    9.43
   0   5  -6    0.47    2.29
   0  -5   6   -0.81    2.22
   1   5  -6  305.70   19.54
  -1  -5   6  263.46   10.51
   2   5  -6  311.22   11.38
  -2  -5   6  298.89   10.51
   3   5  -6  348.00   11.59
  -3  -5   6  341.54   12.53
   4   5  -6    2.76    2.22
  -4  -5   6    1.55    1.89
   5   5  -6  404.39   14.55
  -5  -5   6  427.49   15.09
   6   5  -6   60.63    4.58
  -6  -5   6   70.13    4.51
   7   5  -6  205.53    8.49
  -7  -5   6  169.22    7.34
   8   5  -6   29.64    5.79
  -8  -5   6   36.31    6.13
   9   5  -6  160.73    7.41
  -9  -5   6  179.59    8.29
  10   5  -6   49.98    4.51
 -10  -5   6   51.06    4.31
  11   5  -6  117.08    6.20
 -11  -5   6  125.10    7.21
  12   5  -6    2.76    3.50
 -12  -5   6    3.50    4.04
  13   5  -6   95.39    6.13
 -13  -5   6  106.10    8.69
  14   5  -6    1.15    3.71
 -14  -5   6    5.46    3.91
  15   5  -6   73.76    7.01
 -15  -5   6   86.63    8.08
 -16   5  -5   38.13    5.39
  16  -5   5   34.83    4.65
 -15   5  -5    5.66    3.71
  15  -5   5    6.33    3.37
 -14   5  -5  150.69    8.96
  14  -5   5  153.93    8.89
 -13   5  -5    7.34    3.84
  13  -5   5    7.21    3.64
 -12   5  -5   87.44    5.59
  12  -5   5   88.04    5.39
 -11   5  -5   47.63    4.45
  11  -5   5   49.92    4.98
 -10   5  -5  106.10    6.13
  10  -5   5  121.73    6.87
  -9   5  -5    5.46    2.36
   9  -5   5    4.98    2.63
  -8   5  -5  469.33   16.91
   8  -5   5  405.53   14.75
  -7   5  -5   92.42    7.61
   7  -5   5   96.87    5.59
  -6   5  -5  294.52   11.32
   6  -5   5  315.60   11.25
  -5   5  -5   88.04    6.53
   5  -5   5   85.82    4.65
  -4   5  -5  433.02   14.42
   4  -5   5  409.57   19.94
  -3   5  -5  258.41    9.63
   3  -5   5  249.25    9.30
  -2   5  -5  222.77   11.92
   2  -5   5  254.84    9.84
  -1   5  -5  330.02   12.53
   1  -5   5  331.03   11.59
   0   5  -5 1785.08   49.24
   0  -5   5 1600.30   45.13
   1   5  -5  340.46   12.40
  -1  -5   5  320.65   11.86
   2   5  -5  208.29    8.82
  -2  -5   5  260.63   14.28
  -3  -5   5  250.53   10.24
   4   5  -5  439.75   14.35
  -4  -5   5  431.00   14.21
   5   5  -5   94.18    4.72
  -5  -5   5   91.14    5.12
   6   5  -5  314.86   12.66
  -6  -5   5  323.68   13.00
   7   5  -5  115.33    6.53
  -7  -5   5  107.18    6.06
   8   5  -5  506.58   16.37
  -8  -5   5  445.95   15.83
   9   5  -5    3.30    3.50
  -9  -5   5    5.86    3.57
  10   5  -5  123.88    7.21
 -10  -5   5  130.82    7.54
  11   5  -5   55.10    4.85
 -11  -5   5   52.14    4.98
  12   5  -5  108.79    7.41
 -12  -5   5   92.56    5.46
  13   5  -5    4.78    3.37
 -13  -5   5    6.94    3.84
  14   5  -5  165.58    7.68
 -14  -5   5  178.38    9.50
  15   5  -5    0.07    3.71
 -15  -5   5    2.16    4.11
 -17   5  -4   38.06    4.92
  17  -5   4   43.05    4.18
 -16   5  -4   23.17    6.80
  16  -5   4   15.29    3.97
 -15   5  -4   62.38    5.59
  15  -5   4   58.14    4.78
 -14   5  -4    0.27    3.03
  14  -5   4    1.28    2.90
 -13   5  -4  129.68    7.14
  13  -5   4  131.43    6.67
 -12   5  -4   32.00    4.11
  12  -5   4   30.92    4.18
 -11   5  -4   64.06    4.72
  11  -5   4   78.82    4.72
 -10   5  -4    4.78    3.37
  10  -5   4    6.60    2.76
  -9   5  -4  278.28   11.38
   9  -5   4  249.11   10.58
  -8   5  -4    0.40    2.02
   8  -5   4    1.82    1.95
  -7   5  -4  512.44   22.43
   7  -5   4  498.16   26.34
  -6   5  -4   75.72    5.46
   6  -5   4   83.46    4.78
  -5   5  -4  151.57    6.74
   5  -5   4  154.13    6.20
  -4   5  -4   62.65    3.71
   4  -5   4   58.81    3.10
  -3   5  -4  172.38    6.87
   3  -5   4  205.66    7.68
  -2   5  -4   51.13    3.37
   2  -5   4   40.62    2.63
  -1   5  -4  825.01   25.13
   1  -5   4  803.12   24.92
   0   5  -4    1.48    2.09
   0  -5   4    0.47    1.62
   1   5  -4  856.94   25.06
  -1  -5   4  767.55   24.39
   2   5  -4   50.32    3.64
  -2  -5   4   45.67    3.17
   3   5  -4  172.92    7.28
  -3  -5   4  231.80    9.63
   4   5  -4   70.93    5.93
  -4  -5   4   69.79    6.00
   5   5  -4  176.22   11.59
  -5  -5   4  171.37    7.88
   6   5  -4   89.06    4.92
  -6  -5   4   83.13    4.51
   7   5  -4  593.88   18.93
  -7  -5   4  571.25   29.17
   8   5  -4    0.34    2.02
  -8  -5   4   -0.74    2.49
   9   5  -4  321.60   12.26
  -9  -5   4  283.60   10.37
  10   5  -4    7.28    3.44
 -10  -5   4    9.63    3.57
  11   5  -4   80.90    5.39
 -11  -5   4  103.20    6.40
  12   5  -4   30.85    3.91
 -12  -5   4   39.41    3.84
  13   5  -4  160.46    7.68
 -13  -5   4  156.55    8.56
  14   5  -4   -2.69    5.66
 -14  -5   4   -2.22    6.74
  15   5  -4   70.19    6.87
 -15  -5   4   73.43    7.41
  16   5  -4   16.03    6.26
 -16  -5   4   20.01    6.74
 -17   5  -3    1.55    4.24
  17  -5   3    2.16    3.71
 -16   5  -3   73.09    6.67
  16  -5   3   68.44    4.78
 -15   5  -3    2.90    2.96
  15  -5   3    3.30    2.56
 -14   5  -3   74.71    5.12
  14  -5   3   78.01    5.12
 -13   5  -3   42.17    4.45
  13  -5   3   40.42    3.71
 -12   5  -3   93.10    5.79
  12  -5   3  107.11    5.39
 -11   5  -3   13.67    3.30
  11  -5   3   12.33    2.56
 -10   5  -3  211.66    9.84
  10  -5   3  177.91    7.81
  -9   5  -3   17.31    2.49
   9  -5   3   15.36    2.29
  -8   5  -3  281.65   10.10
   8  -5   3  273.43   14.75
  -7   5  -3   10.98    2.43
   7  -5   3    6.60    1.95
  -6   5  -3  656.87   21.83
   6  -5   3  660.03   20.28
  -5   5  -3   93.03    4.58
   5  -5   3   88.99    4.65
  -4   5  -3  103.81    7.07
   4  -5   3  144.23    8.02
  -3   5  -3  100.71    4.65
   3  -5   3   94.38    5.39
  -2   5  -3 1109.02   30.79
   2  -5   3 1082.61   30.04
  -1   5  -3  176.16    6.00
   1  -5   3  176.09    6.47
   0   5  -3  454.17   13.88
   0  -5   3  475.93   15.63
   1   5  -3  177.03    8.22
  -1  -5   3  153.25    7.41
   2   5  -3 1308.62   39.34
  -2  -5   3 1172.88   38.26
   3   5  -3  107.58    5.25
  -3  -5   3  108.93    4.92
   4   5  -3  119.17    5.32
  -4  -5   3  167.60    6.80
   5   5  -3   99.97    4.92
  -5  -5   3   96.13    4.78
   6   5  -3  806.28   36.17
  -6  -5   3  741.28   34.36
   7   5  -3    9.36    2.63
  -7  -5   3   12.93    2.56
   8   5  -3  346.72   13.34
  -8  -5   3  363.56   15.49
   9   5  -3   25.19    3.17
  -9  -5   3   20.01    4.31
  10   5  -3  274.51   14.15
 -10  -5   3  246.49   10.71
  11   5  -3   20.21    3.23
 -11  -5   3   13.34    2.96
  12   5  -3  113.24    5.93
 -12  -5   3  147.19   10.78
  13   5  -3   45.67    4.78
 -13  -5   3   53.82    5.46
  14   5  -3   94.04    6.20
 -14  -5   3   85.75    6.33
  15   5  -3    2.02    3.37
 -15  -5   3   10.04    4.85
  16   5  -3   82.59    7.28
 -16  -5   3   87.37    7.41
 -18   5  -2    2.09    5.39
  18  -5   2    1.62    3.44
 -17   5  -2   58.14    6.40
  17  -5   2   60.16    6.06
 -16   5  -2   -0.40    2.96
  16  -5   2    0.54    2.56
 -15   5  -2   63.52    5.39
  15  -5   2   65.61    4.72
 -14   5  -2    3.10    2.90
  14  -5   2    4.31    2.90
 -13   5  -2   41.56    3.84
  13  -5   2   64.94    4.18
 -12   5  -2    8.29    5.79
  12  -5   2   12.87    3.23
 -11   5  -2  177.98    7.68
  11  -5   2  165.11    7.28
 -10   5  -2   23.17    3.57
  10  -5   2   16.71    4.45
  -9   5  -2  216.44   10.37
   9  -5   2  221.16    9.70
  -8   5  -2   -0.94    1.75
   8  -5   2   -0.07    1.62
  -7   5  -2  289.33   10.58
   7  -5   2  291.69   12.73
  -6   5  -2  178.78    7.28
   6  -5   2  176.49    7.21
  -5   5  -2  114.05    7.07
   5  -5   2  140.66    5.19
  -4   5  -2   63.12    3.37
   4  -5   2   61.50    3.37
  -3   5  -2  323.89   11.32
   3  -5   2  290.68   10.44
  -2   5  -2  213.07    7.95
   2  -5   2  201.35    7.34
  -1   5  -2  629.79   21.15
   1  -5   2  603.31   18.79
   0   5  -2    0.47    1.21
   0  -5   2    0.34    1.35
   1   5  -2  647.24   18.59
  -1  -5   2  634.44   19.67
   2   5  -2  215.23   11.52
  -2  -5   2  216.17    8.02
   3   5  -2  292.16   12.60
  -3  -5   2  251.74   11.59
   4   5  -2   74.84    4.24
  -4  -5   2   76.59    4.45
   5   5  -2  140.39    8.08
  -5  -5   2  163.43    6.80
   6   5  -2  236.99    8.89
  -6  -5   2  237.73   10.51
   7   5  -2  421.36   16.10
  -7  -5   2  388.42   19.27
   8   5  -2   -1.62    3.37
  -8  -5   2    3.50    2.09
   9   5  -2  349.62   13.07
  -9  -5   2  334.53   12.87
  10   5  -2   30.11    4.31
 -10  -5   2   28.29    3.64
  11   5  -2  254.77   11.05
 -11  -5   2  219.88   11.52
  12   5  -2   15.70    4.31
 -12  -5   2   13.67    3.37
  13   5  -2   56.18    4.45
 -13  -5   2   81.85    5.32
  14   5  -2    6.00    3.57
 -14  -5   2    5.79    3.71
  15   5  -2   94.58    6.60
 -15  -5   2  103.40    7.61
  16   5  -2    2.90    3.84
 -16  -5   2    5.19    5.73
 -18   5  -1   45.40    3.97
  18  -5   1   39.27    3.97
 -17   5  -1   -1.28    3.30
  17  -5   1    2.96    2.90
 -16   5  -1   69.92    5.93
  16  -5   1   62.38    4.11
 -15   5  -1    3.23    2.56
  15  -5   1    1.89    2.22
 -14   5  -1   39.61    3.91
  14  -5   1   48.37    3.91
 -13   5  -1   16.57    2.76
  13  -5   1   17.25    2.36
 -12   5  -1  111.02    8.96
  12  -5   1  119.84    6.60
 -11   5  -1    2.36    2.02
  11  -5   1    4.38    1.89
 -10   5  -1  281.65   13.47
  10  -5   1  263.80   11.25
  -9   5  -1    0.47    2.43
   9  -5   1   -0.20    2.76
  -8   5  -1  239.55   10.98
   8  -5   1  263.53   14.35
  -7   5  -1   40.49    3.37
   7  -5   1   42.17    2.90
  -6   5  -1   90.67    3.97
   6  -5   1  117.21    4.31
  -5   5  -1    2.36    1.89
   5  -5   1   -0.27    1.68
  -4   5  -1  755.83   23.64
   4  -5   1  757.71   20.48
  -3   5  -1  123.34    5.05
   3  -5   1  130.55    7.21
  -2   5  -1  338.64   11.05
   2  -5   1  321.26   10.91
  -1   5  -1   23.85    2.69
   1  -5   1   22.50    2.63
   0   5  -1  921.54   26.47
   0  -5   1  905.78   25.53
   1   5  -1   28.63    2.43
  -1  -5   1   24.12    1.89
   2   5  -1  350.23   10.64
  -2  -5   1  357.70   11.86
   3   5  -1  141.53    5.86
  -3  -5   1  142.54    6.20
   4   5  -1  779.88   28.97
  -4  -5   1  755.35   26.95
   5   5  -1    0.94    1.68
  -5  -5   1    1.62    1.82
   6   5  -1  135.67    5.66
  -6  -5   1  146.25    6.67
   7   5  -1   62.18    3.64
  -7  -5   1   59.08    3.97
   8   5  -1  460.03   16.57
  -8  -5   1  456.39   17.04
   9   5  -1    2.76    1.95
  -9  -5   1    0.67    2.83
  10   5  -1  433.69   21.83
 -10  -5   1  405.40   21.15
  11   5  -1    3.17    2.76
 -11  -5   1    2.22    3.71
  12   5  -1  175.28    8.22
 -12  -5   1  193.74   10.58
  13   5  -1   23.85    4.18
 -13  -5   1   25.33    4.11
  14   5  -1   71.81    6.06
 -14  -5   1   72.82    5.93
  15   5  -1    4.51    3.91
 -15  -5   1    7.21    4.58
  16   5  -1  113.78   10.04
 -16  -5   1  116.00    8.42
 -18   5   0    4.24    3.17
  18  -5   0    1.75    2.76
 -17   5   0   47.15    4.31
  17  -5   0   58.88    4.31
 -16   5   0   -1.55    2.90
  16  -5   0   -1.35    2.63
 -15   5   0   24.59    3.50
  15  -5   0   27.08    2.96
 -14   5   0    2.29    2.43
  14  -5   0    1.75    1.95
 -13   5   0   43.99    4.11
  13  -5   0   39.48    4.65
 -12   5   0   17.11    2.29
  12  -5   0   21.22    2.22
 -11   5   0  151.03    6.60
  11  -5   0  157.56    6.47
 -10   5   0   14.21    2.36
  10  -5   0   12.26    2.29
  -9   5   0  242.78    9.57
   9  -5   0  216.17   13.81
  -8   5   0   19.87    2.16
   8  -5   0   17.45    2.29
  -7   5   0   26.95    2.29
   7  -5   0   32.94    2.49
  -6   5   0    4.65    1.48
   6  -5   0    4.38    1.55
  -5   5   0  256.39   11.65
   5  -5   0  254.17    8.76
  -4   5   0   12.40    1.75
   4  -5   0    9.43    1.55
  -3   5   0  543.36   18.53
   3  -5   0  526.92   15.83
  -2   5   0    0.27    1.21
   2  -5   0    0.54    1.35
  -1   5   0  255.31   10.31
   1  -5   0  244.40   11.25
   0   5   0   -0.13    1.35
   0  -5   0    0.20    1.21
   1   5   0  247.23    8.35
  -1  -5   0  252.82   11.52
   2   5   0    0.07    1.35
  -2  -5   0    0.61    1.35
   3   5   0  563.84   21.29
  -3  -5   0  602.10   19.87
   4   5   0   12.66    2.09
  -4  -5   0   10.85    2.09
   5   5   0  299.70   10.17
  -5  -5   0  301.39   11.18
   6   5   0    4.72    2.16
  -6  -5   0    5.73    2.16
   7   5   0   42.91    3.17
  -7  -5   0   52.07    3.37
   8   5   0   37.19    4.45
  -8  -5   0   31.46    2.96
   9   5   0  418.87   14.55
  -9  -5   0  406.81   15.97
  10   5   0   22.97    3.77
 -10  -5   0   19.06    3.77
  11   5   0  252.82   10.98
 -11  -5   0  245.34   16.77
  12   5   0   29.77    5.93
 -12  -5   0   35.70    4.24
  13   5   0   73.09    5.73
 -13  -5   0   83.67    6.33
  14   5   0    9.30    4.04
 -14  -5   0    5.52    3.84
  15   5   0   50.19    5.93
 -15  -5   0   52.27    5.73
  16   5   0   -1.95    3.91
 -16  -5   0    1.01    4.45
 -17   5   1    1.55    2.90
  17  -5  -1    0.61    3.03
 -16   5   1   47.22    4.51
  16  -5  -1   55.04    3.64
 -15   5   1    1.08    2.22
  15  -5  -1    1.35    2.02
 -14   5   1   38.20    5.19
  14  -5  -1   37.79    3.50
 -13   5   1   13.88    2.36
  13  -5  -1   15.90    1.95
 -12   5   1   90.13    5.32
  12  -5  -1  103.94    5.52
 -11   5   1    2.43    1.68
  11  -5  -1    2.63    1.55
 -10   5   1  244.73    8.49
  10  -5  -1  246.89    8.89
  -9   5   1    1.95    1.35
   9  -5  -1    1.82    1.21
  -8   5   1  245.34   13.81
   8  -5  -1  283.87   10.98
  -7   5   1   42.37    3.30
   7  -5  -1   35.37    2.49
  -6   5   1  110.88    5.05
   6  -5  -1   92.90    5.25
  -5   5   1    3.10    1.41
   5  -5  -1    1.41    1.21
  -4   5   1  674.72   21.15
   4  -5  -1  708.74   19.81
  -3   5   1  120.92    4.85
   3  -5  -1  127.66    4.98
  -2   5   1  324.43   15.70
   2  -5  -1  320.32   10.78
  -1   5   1   23.98    2.56
   1  -5  -1   20.48    2.29
   0   5   1  869.33   35.03
   0  -5  -1  826.96   24.18
   1   5   1   23.44    1.95
  -1  -5  -1   26.20    1.95
   2   5   1  336.42   10.58
  -2  -5  -1  329.82   11.12
   3   5   1  124.89    7.14
  -3  -5  -1  136.82    5.93
   4   5   1  795.71   22.50
  -4  -5  -1  765.19   22.03
   5   5   1    0.88    2.16
  -5  -5  -1    0.67    1.55
   6   5   1  148.40    5.79
  -6  -5  -1  120.58    5.59
   7   5   1   59.82    3.64
  -7  -5  -1   57.66    3.77
   8   5   1  424.33   14.48
  -8  -5  -1  439.62   13.74
   9   5   1    1.15    2.49
  -9  -5  -1    3.84    2.49
  10   5   1  411.93   16.77
 -10  -5  -1  399.74   18.86
  11   5   1    1.55    2.63
 -11  -5  -1    4.24    2.36
  12   5   1  179.39    8.89
 -12  -5  -1  180.87   14.69
  13   5   1   31.73    7.07
 -13  -5  -1   25.33    4.11
  14   5   1   80.23    6.00
 -14  -5  -1   62.92    6.74
  15   5   1    4.78    3.50
 -15  -5  -1    5.86    5.46
  16   5   1   99.36    7.88
 -16  -5  -1  119.17    9.50
 -17   5   2   23.71    5.66
  17  -5  -2   36.04    4.51
 -16   5   2   -0.34    2.29
  16  -5  -2   -1.21    1.89
 -15   5   2   43.05    3.91
  15  -5  -2   40.69    3.17
 -14   5   2    1.35    3.50
  14  -5  -2    2.16    2.22
 -13   5   2   33.55    3.97
  13  -5  -2   29.37    2.76
 -12   5   2    5.79    3.64
  12  -5  -2    9.57    2.16
 -11   5   2  124.02    6.20
  11  -5  -2  139.24    6.00
 -10   5   2   15.49    2.16
  10  -5  -2   16.57    1.68
  -9   5   2  204.79    8.22
   9  -5  -2  214.76    7.54
  -8   5   2   -0.07    1.68
   8  -5  -2    1.35    1.08
  -7   5   2  257.47   13.41
   7  -5  -2  266.76    8.89
  -6   5   2  157.97    7.28
   6  -5  -2  159.25    6.53
  -5   5   2  126.85    5.19
   5  -5  -2  101.79    3.84
  -4   5   2   55.10    2.90
   4  -5  -2   55.51    2.96
  -3   5   2  249.38    9.03
   3  -5  -2  287.71    9.57
  -2   5   2  183.30    8.76
   2  -5  -2  178.38    6.40
  -1   5   2  590.11   26.34
   1  -5  -2  591.26   23.78
   0   5   2    0.88    1.35
   0  -5  -2    1.28    2.02
   1   5   2  586.07   16.91
  -1  -5  -2  570.37   18.19
   2   5   2  200.27    8.29
  -2  -5  -2  206.81    7.95
   3   5   2  294.52   10.44
  -3  -5  -2  318.70   10.31
   4   5   2   64.40    3.30
  -4  -5  -2   62.72    3.50
   5   5   2  155.61    6.67
  -5  -5  -2  126.44    5.66
   6   5   2  200.48    7.34
  -6  -5  -2  212.87    7.61
   7   5   2  379.33   13.27
  -7  -5  -2  379.87   17.18
   8   5   2    0.81    1.95
  -8  -5  -2    1.48    2.02
   9   5   2  328.33   13.47
  -9  -5  -2  335.88   13.88
  10   5   2   29.84    3.37
 -10  -5  -2   29.44    3.50
  11   5   2  220.69   10.24
 -11  -5  -2  244.20    9.70
  12   5   2   11.92    2.69
 -12  -5  -2   13.74    2.96
  13   5   2   89.39    6.47
 -13  -5  -2   76.19    7.68
  14   5   2    6.53    3.97
 -14  -5  -2   -1.15    7.34
  15   5   2  107.65   11.79
 -15  -5  -2  111.29    9.97
  16   5   2    4.24    4.18
 -16  -5  -2   -0.34    5.52
 -16   5   3   20.28    6.13
  16  -5  -3   32.20    3.30
 -15   5   3    2.49    2.29
  15  -5  -3    2.16    3.03
 -14   5   3   41.29    5.39
  14  -5  -3   40.76    3.03
 -13   5   3   20.34    2.63
  13  -5  -3   19.87    2.09
  12  -5  -3   52.75    3.50
 -11   5   3    8.62    2.22
  11  -5  -3    9.70    1.35
 -10   5   3  129.61    7.01
  10  -5  -3  141.80    8.08
  -9   5   3   13.41    2.29
   9  -5  -3   13.47    2.16
   8  -5  -3  218.80    8.22
  -7   5   3    6.26    1.28
   7  -5  -3    6.33    1.15
  -6   5   3  533.59   18.86
  -5   5   3   76.80    4.58
   5  -5  -3   74.10    3.17
  -4   5   3  124.96    5.46
   4  -5  -3   81.71    3.71
  -3   5   3   80.63    3.23
   3  -5  -3   85.89    3.71
  -2   5   3  917.30   27.42
   2  -5  -3  983.38   35.37
  -1   5   3  146.99    5.79
   1  -5  -3  146.99    6.20
   0   5   3  415.64   19.87
   0  -5  -3  396.91   12.66
   1   5   3  150.09    5.46
  -1  -5  -3  155.88    5.93
   2   5   3 1031.21   29.71
  -2  -5  -3 1041.92   28.83
   3   5   3   95.59    4.72
  -3  -5  -3   98.22    3.71
   4   5   3  148.87    6.26
  -4  -5  -3  101.18    4.65
   5   5   3   85.28    4.58
  -5  -5  -3   81.17    4.24
   6   5   3  682.67   20.14
  -6  -5  -3  673.57   18.93
   7   5   3    8.56    2.16
  -7  -5  -3    9.84    2.16
   8   5   3  335.61   12.87
  -8  -5  -3  328.13   13.00
   9   5   3   19.87    3.17
  -9  -5  -3   19.33    3.44
  10   5   3  238.81    8.96
 -10  -5  -3  261.58   14.35
  11   5   3   18.39    3.10
 -11  -5  -3   18.73    3.17
  12   5   3  147.46    7.28
 -12  -5  -3  126.44    6.20
  13   5   3   47.02    4.51
 -13  -5  -3   49.85    7.07
  14   5   3  101.32    7.41
 -14  -5  -3  104.95    8.22
  15   5   3    2.56    3.71
 -15  -5  -3    5.39    3.77
 -16   5   4    0.54    2.22
  16  -5  -4    4.31    1.62
 -15   5   4   16.17    2.09
  15  -5  -4   19.81    1.89
 -14   5   4   -0.81    2.90
  14  -5  -4    0.54    1.08
 -13   5   4   71.88    7.75
  13  -5  -4   50.46    4.31
 -12   5   4   19.13    3.30
  12  -5  -4   10.98    2.02
  11  -5  -4   37.59    2.69
  10  -5  -4    4.31    1.01
  -9   5   4  138.64    9.63
   9  -5  -4  169.22    8.15
  -8   5   4    0.07    0.67
   8  -5  -4    0.34    0.67
  -7   5   4  329.07   17.99
   7  -5  -4  354.94   12.46
  -6   5   4   54.63    4.31
   6  -5  -4   52.41    3.50
  -5   5   4  107.72    5.12
   5  -5  -4  107.85    4.11
  -4   5   4   39.41    2.22
   4  -5  -4   40.96    2.16
  -3   5   4  157.56    9.50
   3  -5  -4  126.58    7.28
  -2   5   4   34.63    2.22
   2  -5  -4   38.60    2.09
  -1   5   4  622.38   19.33
   1  -5  -4  633.02   20.07
   0   5   4    0.13    1.01
   0  -5  -4    1.01    1.15
   1   5   4  649.12   20.82
  -1  -5  -4  672.90   20.14
   2   5   4   37.25    2.16
  -2  -5  -4   39.54    2.43
   3   5   4  179.73    7.01
  -3  -5  -4  133.31    5.39
   4   5   4   42.78    2.69
  -4  -5  -4   49.85    4.04
   5   5   4  130.21    6.00
  -5  -5  -4  130.28    8.69
   6   5   4   72.89    3.97
  -6  -5  -4   73.09    4.11
   7   5   4  515.94   15.49
  -7  -5  -4  522.61   17.38
   8   5   4   -0.07    2.09
  -8  -5  -4   -0.67    2.36
   9   5   4  278.96   11.32
  -9  -5  -4  298.89   11.79
  10   5   4    6.47    2.96
 -10  -5  -4   10.98    3.50
  11   5   4   97.54    6.67
 -11  -5  -4   84.68    5.66
  12   5   4   35.84    4.31
 -12  -5  -4   32.81    4.51
  13   5   4  168.28    8.69
 -13  -5  -4  179.66   13.81
  14   5   4   -1.01    3.71
 -14  -5  -4    0.81    3.71
  15   5   4   85.69    6.74
 -15  -5  -4   78.95    6.74
  15  -5  -5    0.61    0.88
  13  -5  -5    1.68    1.01
  -3   5   5  160.93    9.70
   3  -5  -5  158.71    8.62
  -2   5   5  180.94    7.41
   2  -5  -5  141.33    5.39
  -1   5   5  235.30    9.16
   1  -5  -5  217.52    9.70
   0   5   5 1201.71   33.88
   0  -5  -5 1240.65   51.20
   1   5   5  225.33    7.81
  -1  -5  -5  229.51    7.88
   2   5   5  181.61    6.80
  -2  -5  -5  150.22    5.59
   3   5   5  174.20    9.70
  -3  -5  -5  141.13    9.03
   4   5   5  296.67   11.05
  -4  -5  -5  289.26    9.84
   5   5   5   58.54    5.46
  -5  -5  -5   60.63    5.73
   6   5   5  266.63   10.51
  -6  -5  -5  253.96   12.40
   7   5   5   96.80    5.19
  -7  -5  -5   91.68    4.78
   8   5   5  404.99   14.28
  -8  -5  -5  437.80   16.23
   9   5   5    3.03    2.29
  -9  -5  -5    6.94    2.69
  10   5   5  142.27    8.08
 -10  -5  -5  115.39    6.06
  11   5   5   54.43    4.51
 -11  -5  -5   57.66    5.19
  12   5   5  104.75    7.07
 -12  -5  -5  104.55    6.60
  13   5   5   10.85    3.44
 -13  -5  -5    5.86    3.71
  14   5   5  203.37   10.04
 -14  -5  -5  207.89   11.86
  15   5   5    4.98    4.65
 -15  -5  -5    4.65    4.92
  -2   5   6  207.41    7.88
  -1   5   6  168.68    8.49
   1  -5  -6  198.32    8.22
   0   5   6   -0.54    0.88
   0  -5  -6    0.61    1.08
   1   5   6  169.02    6.33
  -1  -5  -6  188.08    7.88
   2   5   6  201.62    7.34
  -2  -5  -6  196.97    7.48
   3   5   6  200.68    8.42
  -3  -5  -6  214.96   14.28
   4   5   6    1.01    1.95
  -4  -5  -6    2.09    1.75
   5   5   6  279.22   11.65
  -5  -5  -6  258.41   12.87
   6   5   6   52.27    3.50
  -6  -5  -6   48.50    3.64
   7   5   6  146.38    6.94
  -7  -5  -6  145.78    8.02
   8   5   6   29.57    3.17
  -8  -5  -6   29.77    3.37
   9   5   6  150.02    7.14
  -9  -5  -6  162.62   11.32
  10   5   6   52.07    4.98
 -10  -5  -6   55.04    4.31
  11   5   6  118.09    7.07
 -11  -5  -6  127.59    7.01
  12   5   6    1.55    3.23
 -12  -5  -6    4.72    3.10
  13   5   6  119.71    7.28
 -13  -5  -6  132.51    8.76
  14   5   6    3.64    3.97
 -14  -5  -6    4.45    5.39
  15   5   6   93.23   15.76
 -15  -5  -6  101.59   10.31
  -2   5   7  129.61    8.69
  -1   5   7   22.23    1.62
   1  -5  -7   19.47    2.56
   0   5   7   30.11    2.22
   0  -5  -7   16.30    1.68
   1   5   7   23.17    1.68
  -1  -5  -7   20.88    2.76
   2   5   7  210.58    8.29
  -2  -5  -7  206.34    7.68
   3   5   7    3.97    1.89
   4   5   7  335.61   12.93
  -4  -5  -7  337.16   18.73
   5   5   7   10.78    2.02
  -5  -5  -7    8.89    2.56
   6   5   7  121.39    6.80
  -6  -5  -7  122.40    5.46
   7   5   7    9.90    2.63
  -7  -5  -7    4.45    2.69
   8   5   7   58.34    4.18
  -8  -5  -7   54.30    4.45
   9   5   7   -1.28    2.63
  -9  -5  -7    0.67    3.17
  10   5   7  130.15    7.14
 -10  -5  -7  140.99    8.29
  11   5   7    3.97    2.69
 -11  -5  -7    2.96    3.44
  12   5   7  120.99    8.08
 -12  -5  -7  131.43    7.54
  13   5   7    0.13    3.71
 -13  -5  -7    2.90    4.38
  14   5   7   80.03    6.74
 -14  -5  -7   70.67    6.80
  -1   5   8   41.50    2.36
   1  -5  -8   39.61    2.29
   0   5   8   -0.20    1.01
   0  -5  -8    0.74    1.21
   1   5   8   49.11    2.63
  -1  -5  -8   45.74    2.63
   2   5   8   18.66    1.62
  -2  -5  -8   14.62    1.95
   3   5   8  339.18   11.65
  -3  -5  -8  346.59   12.40
   4   5   8    1.62    1.62
  -4  -5  -8    1.55    2.43
   5   5   8  210.38    8.62
  -5  -5  -8  213.88    9.50
   6   5   8   10.51    2.83
  -6  -5  -8   11.25    4.24
   7   5   8   65.75    4.45
   8   5   8    4.58    2.76
  -8  -5  -8    4.04    2.96
   9   5   8   73.49    5.12
  -9  -5  -8   78.95    5.93
  10   5   8    1.35    2.83
 -10  -5  -8    4.92    3.23
  11   5   8  145.44    8.89
 -11  -5  -8  158.84    8.82
  12   5   8    3.23    3.50
 -12  -5  -8    6.47    7.54
  13   5   8   99.36    7.07
 -13  -5  -8   89.39    7.07
  14   5   8    2.76    6.53
 -14  -5  -8   11.38    6.40
  -1   5   9    4.65    0.74
   0   5   9  122.33    5.73
   0  -5  -9  101.92    7.61
   1   5   9    5.86    1.35
  -1  -5  -9    5.86    2.36
   2   5   9   88.99    4.04
  -2  -5  -9  117.69    9.36
   3   5   9   16.03    1.75
  -3  -5  -9   19.20    2.29
   4   5   9  218.66    7.81
  -4  -5  -9  215.57    8.69
   5   5   9    1.08    1.89
  -5  -5  -9    3.77    2.96
   6   5   9   93.43    5.19
  -6  -5  -9  105.83    5.46
   7   5   9   11.38    2.36
  -7  -5  -9   10.58    2.76
   8   5   9   96.26    5.59
  -8  -5  -9   79.89    8.49
   9   5   9   15.49    2.83
  -9  -5  -9   16.77    3.97
  10   5   9   49.04    4.45
 -10  -5  -9   66.02    6.13
  11   5   9   13.47    3.50
 -11  -5  -9   13.27    4.31
  12   5   9  147.73    9.50
 -12  -5  -9  137.15    7.75
  13   5   9    3.64    3.84
 -13  -5  -9    5.32    4.24
  -1   5  10   42.78    2.69
   0   5  10   -0.27    0.88
   0  -5 -10   -0.67    1.21
   1   5  10   68.71    3.37
  -1  -5 -10   67.16    3.77
   2   5  10   16.64    1.75
  -2  -5 -10   17.11    2.56
   3   5  10   80.70    4.31
  -3  -5 -10   87.98    5.59
   4   5  10    3.10    1.89
  -4  -5 -10    3.30    2.96
   5   5  10  108.32    5.59
  -5  -5 -10  125.77    6.87
   6   5  10   12.93    2.69
  -6  -5 -10   11.18    2.96
   7   5  10  179.80    8.15
  -7  -5 -10  165.51    8.49
   8   5  10   38.67    3.97
  -8  -5 -10   35.23    4.65
   9   5  10   41.09    4.31
  -9  -5 -10   50.19    6.87
  10   5  10   17.45    3.91
 -10  -5 -10   22.63    4.45
  11   5  10   87.98    5.73
 -11  -5 -10   84.88    6.87
  12   5  10    8.35    3.57
 -12  -5 -10    7.34    4.18
   0   5  11   46.01    2.83
   0  -5 -11   61.23    3.37
   1   5  11   12.26    1.35
  -1  -5 -11    9.77    3.03
   2   5  11   95.52    4.98
  -2  -5 -11   85.96    5.12
   3   5  11    0.94    1.62
  -3  -5 -11    1.82    2.63
   4   5  11   47.09    3.37
  -4  -5 -11   52.54    3.97
   5   5  11   15.09    2.29
  -5  -5 -11   15.02    2.69
   6   5  11  181.82    9.43
  -6  -5 -11  180.06   10.78
   7   5  11   16.77    2.96
  -7  -5 -11   15.76    4.38
   8   5  11   16.71    2.90
  -8  -5 -11   21.49    5.25
   9   5  11   48.70    4.31
  -9  -5 -11   53.35    8.22
  10   5  11   94.65    6.87
 -10  -5 -11  106.44   11.65
  11   5  11   11.72    5.25
 -11  -5 -11   13.54    5.52
  12   5  11   23.91    4.92
 -12  -5 -11   26.07    6.60
   0   5  12   -0.13    0.61
   0  -5 -12    0.74    1.75
   1   5  12   39.61    2.56
  -1  -5 -12   39.88    4.11
   2   5  12   12.06    1.89
  -2  -5 -12   12.40    2.96
   3   5  12   40.55    3.10
  -3  -5 -12   32.40    5.79
   4   5  12    3.57    1.75
  -4  -5 -12    1.95    2.90
   5   5  12  124.62    6.47
  -5  -5 -12  109.20    6.47
   6   5  12   28.90    4.11
  -6  -5 -12   28.43    4.51
   7   5  12   49.24    4.85
  -7  -5 -12   68.71    8.42
   8   5  12   31.73    4.11
  -8  -5 -12   32.54    4.58
   9   5  12   70.93    5.19
  -9  -5 -12   53.22    4.98
  10   5  12    1.35    3.03
 -10  -5 -12    3.44    4.92
  11   5  12   29.37    4.18
 -11  -5 -12   20.68    5.52
   0   5  13    7.61    1.15
   1   5  13    5.52    1.89
   2   5  13   18.46    2.49
  -2  -5 -13   22.63    2.90
   3   5  13   15.63    2.56
  -3  -5 -13   15.43    4.45
   4   5  13   73.16    4.98
  -4  -5 -13   66.35    6.94
   5   5  13   19.13    2.76
  -5  -5 -13   17.51    3.17
   6   5  13   28.43    4.04
  -6  -5 -13   45.81    7.48
   7   5  13   18.39    3.37
  -7  -5 -13   11.65    4.92
   8   5  13   41.90    4.38
  -8  -5 -13   40.55    6.13
   9   5  13   16.30    3.30
  -9  -5 -13   19.94    6.06
  10   5  13   26.14    4.31
 -10  -5 -13   11.86    6.33
   1   5  14    9.84    1.28
  -1  -5 -14   12.19    2.36
   2   5  14    1.01    1.48
  -2  -5 -14   -0.88    2.96
   3   5  14   36.38    2.43
  -3  -5 -14   36.58    5.66
   4   5  14    1.35    1.89
  -4  -5 -14    0.54    3.23
   5   5  14   19.00    2.96
   6   5  14    6.60    2.69
  -6  -5 -14    7.14    4.04
   7   5  14   27.28    6.06
  -7  -5 -14   27.89    5.25
   8   5  14    7.61    3.17
  -8  -5 -14    5.46    5.05
   9   5  14   29.37    3.77
  -9  -5 -14   22.90    6.53
  -3   6 -13  102.73    6.74
   3  -6  13  105.63    6.87
  -2   6 -13   16.10    4.31
   2  -6  13   23.04    4.31
  -1   6 -13   36.24    4.92
   1  -6  13   22.70    4.58
   0   6 -13    0.07    3.91
   0  -6  13   -0.27    3.97
   1   6 -13   30.45    5.52
  -1  -6  13   24.52    4.78
   2   6 -13   18.26    5.25
  -2  -6  13   15.43    4.38
   3   6 -13   82.79    6.74
  -3  -6  13   97.61    6.74
   4   6 -13    0.34    4.11
  -4  -6  13    1.21    3.97
   5   6 -13  115.46   11.38
  -5  -6  13  124.29    8.56
   6   6 -13   23.98    5.73
  -6  -6  13   30.11    7.54
  -6   6 -12  144.16    8.76
  -5   6 -12    4.65    4.04
   5  -6  12    6.00    3.97
  -4   6 -12   75.52    5.19
   4  -6  12   67.03    6.33
  -3   6 -12   14.21    4.58
   3  -6  12   15.63    4.92
  -2   6 -12   83.26    6.80
   2  -6  12   69.32    6.40
  -1   6 -12    9.57    4.38
   1  -6  12   12.60    4.18
   0   6 -12   28.90    4.58
   0  -6  12   17.72    5.25
   1   6 -12    8.96    5.46
  -1  -6  12   13.74    5.46
   2   6 -12   71.27    7.61
  -2  -6  12   69.05    6.47
   3   6 -12   11.32    4.04
  -3  -6  12    6.67    3.84
   4   6 -12   68.17    5.46
  -4  -6  12   76.46    6.33
   5   6 -12    4.11    4.04
  -5  -6  12    4.04    4.04
   6   6 -12  126.17   12.13
  -6  -6  12  127.05    8.82
   7   6 -12   17.45    5.46
  -7  -6  12   23.51    4.65
   8   6 -12   21.29    5.93
  -8  -6  12   26.54    4.51
  -8   6 -11   51.60    6.67
   8  -6  11   46.35    5.05
   7  -6  11  322.61   16.37
  -6   6 -11    0.94    6.40
   6  -6  11    0.00    5.12
  -5   6 -11   49.98   10.10
   5  -6  11   40.22    4.98
  -4   6 -11    8.15    6.53
   4  -6  11    6.40    4.92
  -3   6 -11   64.47    4.92
   3  -6  11   66.02    5.86
  -2   6 -11    5.39    4.31
   2  -6  11    2.36    3.57
  -1   6 -11  124.49    7.61
   1  -6  11  139.31    8.15
   0   6 -11    1.55    3.97
   0  -6  11   -0.54    3.37
   1   6 -11  124.62    9.50
  -1  -6  11  131.56    7.54
   2   6 -11    4.38    4.92
  -2  -6  11    8.62    4.31
   3   6 -11   58.07    5.66
  -3  -6  11   59.89    7.68
   4   6 -11    8.08    3.50
  -4  -6  11    4.11    3.44
   5   6 -11   34.49    4.11
  -5  -6  11   32.67    4.31
   6   6 -11    1.68    4.31
  -6  -6  11    2.69    4.38
   7   6 -11  228.36   15.83
  -7  -6  11  264.13   13.41
   8   6 -11   42.64    5.25
  -8  -6  11   35.50    4.85
   9   6 -11    8.76    4.98
  -9  -6  11   13.34    4.38
  10   6 -11    1.62    4.98
 -10  -6  11   -1.89    6.40
 -10   6 -10   19.60    4.51
  10  -6  10   24.99    4.45
  -9   6 -10   13.20    4.58
   9  -6  10   17.85    3.84
  -8   6 -10  279.09   12.80
   8  -6  10  264.88   11.99
  -7   6 -10    3.91    4.65
   7  -6  10    6.06    4.45
  -6   6 -10   95.19    6.67
   6  -6  10  109.26    6.94
  -5   6 -10    3.64    3.50
   5  -6  10    3.03    3.23
  -4   6 -10   54.56    5.32
   4  -6  10   30.58    5.39
  -3   6 -10   11.18    3.97
   3  -6  10   13.61    3.30
  -2   6 -10   57.60    5.05
   2  -6  10   52.75    4.51
  -1   6 -10    8.82    3.91
   1  -6  10   11.38    3.37
   0   6 -10  444.27   17.72
   0  -6  10  484.48   17.78
   1   6 -10    9.84    3.91
  -1  -6  10    9.50    3.30
   2   6 -10   56.72    6.00
  -2  -6  10   54.30    5.32
   3   6 -10    9.36    3.71
  -3  -6  10   10.78    3.91
   4   6 -10   47.69    4.98
  -4  -6  10   28.16    3.91
   5   6 -10    5.66    3.37
  -5  -6  10    8.76    3.50
   6   6 -10   88.58    6.33
  -6  -6  10   95.72    6.87
   7   6 -10    7.07    3.50
  -7  -6  10    6.67    3.84
   8   6 -10  215.70   11.05
  -8  -6  10  215.36   13.81
   9   6 -10    9.70    4.85
  -9  -6  10   13.14    4.24
  10   6 -10   14.48    6.00
 -10  -6  10   29.71    7.07
  11   6 -10   -1.28    3.91
 -11  -6  10    0.40    4.04
 -11   6  -9   20.14    5.39
  11  -6   9   16.44    4.78
 -10   6  -9   18.19    4.72
  10  -6   9   14.69    4.31
  -9   6  -9  256.72   16.30
   9  -6   9  274.71   18.19
  -8   6  -9   13.74    3.91
   8  -6   9    7.41    3.57
  -7   6  -9   75.52    6.67
   7  -6   9   83.33    6.00
  -6   6  -9   21.15    3.23
   6  -6   9   21.83    3.91
  -5   6  -9  104.62    7.28
   5  -6   9   99.70    6.26
  -4   6  -9   16.57    3.50
   4  -6   9   18.46    3.30
  -3   6  -9   62.65    4.31
   3  -6   9   46.21    4.98
  -2   6  -9    8.42    4.92
   2  -6   9   12.06    2.63
  -1   6  -9  322.47   13.07
   1  -6   9  326.51   13.41
   0   6  -9   -1.95    3.17
   0  -6   9    0.13    2.56
   1   6  -9  315.74   12.46
  -1  -6   9  322.54   12.46
   2   6  -9   14.15    3.37
  -2  -6   9    8.76    4.98
   3   6  -9   58.27    4.38
  -3  -6   9   44.06    5.25
   4   6  -9   13.41    4.04
  -4  -6   9   14.15    3.77
   5   6  -9   95.79    9.84
  -5  -6   9  103.47    6.80
   6   6  -9   19.33    4.92
  -6  -6   9   24.79    3.57
   7   6  -9   77.40    5.25
  -7  -6   9   78.41    5.79
   8   6  -9   10.04    3.57
  -8  -6   9    8.35    4.31
   9   6  -9  230.18   10.44
  -9  -6   9  250.59   11.86
  10   6  -9   12.93    4.24
 -10  -6   9   12.33    3.97
  11   6  -9   18.59    4.45
 -11  -6   9   21.35    4.78
  12   6  -9    2.02    7.61
 -12  -6   9    3.84    6.13
 -12   6  -8   25.94    4.58
  12  -6   8   27.42    4.65
 -11   6  -8   26.00    4.38
  11  -6   8   22.30    4.58
 -10   6  -8  214.55   12.66
  10  -6   8  197.44   12.80
  -9   6  -8   26.61    4.18
   9  -6   8   27.01    3.91
  -8   6  -8   84.47    6.26
   8  -6   8  100.64    6.53
  -7   6  -8   23.04    4.24
   7  -6   8   17.11    3.23
  -6   6  -8   62.58    4.85
   6  -6   8   49.24    4.45
  -5   6  -8   10.31    3.10
   5  -6   8   10.58    2.83
  -4   6  -8  112.30    6.87
   4  -6   8  102.87    6.67
  -3   6  -8   19.20    2.69
   3  -6   8   23.38    3.23
  -2   6  -8  205.12    8.49
   2  -6   8  209.84    8.76
  -1   6  -8  124.15    6.20
   1  -6   8  127.66    8.89
   0   6  -8  224.73   17.31
   0  -6   8  234.02    8.49
   1   6  -8  116.61    7.41
  -1  -6   8  117.69    8.69
   2   6  -8  209.10    9.03
  -2  -6   8  201.76    8.69
   3   6  -8   23.44    3.64
  -3  -6   8   22.63    3.30
   4   6  -8  106.44    6.47
  -4  -6   8   95.93    5.32
   5   6  -8   10.37    3.17
  -5  -6   8    8.89    3.17
   6   6  -8   56.59    5.39
  -6  -6   8   43.72    4.65
   7   6  -8   18.66    3.30
  -7  -6   8   16.37    3.50
   8   6  -8   81.44    5.79
  -8  -6   8   90.00    6.13
   9   6  -8   21.35    4.24
  -9  -6   8   23.91    4.72
  10   6  -8  194.21    9.23
 -10  -6   8  226.14   10.24
  11   6  -8   19.20    7.54
 -11  -6   8   22.36    5.86
  12   6  -8   27.89    5.05
 -12  -6   8   26.00    4.65
 -13  -6   8    7.14    7.14
 -13   6  -7   32.20    4.78
  13  -6   7   28.29    3.97
 -12   6  -7   14.01    4.31
  12  -6   7   15.16    4.72
 -11   6  -7  186.33    9.84
  11  -6   7  180.60    9.36
 -10   6  -7    4.45    3.64
  10  -6   7    8.29    3.10
  -9   6  -7  161.88    9.09
   9  -6   7  153.86    8.02
  -8   6  -7    0.88    4.11
   8  -6   7    3.44    4.24
  -7   6  -7   66.02    4.65
   7  -6   7   59.62    4.45
  -6   6  -7   46.82    4.11
   6  -6   7   45.47    4.04
  -5   6  -7  129.41    7.48
   5  -6   7  123.95    6.20
  -4   6  -7   17.58    2.96
   4  -6   7   18.26    2.76
  -3   6  -7  327.86   12.19
   3  -6   7  356.42   12.87
  -2   6  -7    6.20    2.43
   2  -6   7    9.50    2.56
  -1   6  -7  203.44    8.29
   1  -6   7  161.47    6.33
   0   6  -7    1.28    4.31
   0  -6   7   -0.74    2.63
   1   6  -7  194.21   11.32
  -1  -6   7  174.27    9.09
   2   6  -7    6.94    4.18
  -2  -6   7    7.34    2.43
   3   6  -7  328.13   12.26
  -3  -6   7  331.84   12.33
   4   6  -7   24.59    4.24
  -4  -6   7   14.62    2.76
   5   6  -7  125.70    6.00
  -5  -6   7  131.70    7.01
   6   6  -7   44.12    5.59
  -6  -6   7   46.55    4.24
   7   6  -7   61.10    7.07
  -7  -6   7   72.89    5.19
   8   6  -7    1.68    2.83
  -8  -6   7    4.11    2.90
   9   6  -7  168.75    8.22
  -9  -6   7  153.73    7.28
  10   6  -7    3.57    3.91
 -10  -6   7    3.77    6.33
  11   6  -7  193.34    9.16
 -11  -6   7  200.54    9.63
  12   6  -7   16.44    4.18
 -12  -6   7   14.69    4.18
  13   6  -7   30.18    5.79
 -13  -6   7   24.05    7.07
 -14   6  -6   30.65    5.52
  14  -6   6   23.51    4.31
 -13   6  -6    8.69    3.91
  13  -6   6    7.41    3.57
 -12   6  -6  110.75    7.54
  12  -6   6  118.56    7.14
 -11   6  -6   -2.63    5.32
  11  -6   6    2.09    3.50
 -10   6  -6  152.71    8.49
  10  -6   6  164.97    8.42
  -9   6  -6   23.31    3.57
   9  -6   6   22.43    3.17
  -8   6  -6   58.40    5.59
   8  -6   6   45.20    6.47
  -7   6  -6   86.43    5.73
   7  -6   6   84.68    5.19
  -6   6  -6  174.20    9.03
   6  -6   6  172.65    7.07
  -5   6  -6   15.49    2.76
   5  -6   6   13.07    2.56
  -4   6  -6  263.60   10.58
   4  -6   6  273.77   10.71
  -3   6  -6   39.34    3.03
   3  -6   6   38.87    3.23
  -2   6  -6  426.68   17.58
   2  -6   6  462.32   17.85
  -1   6  -6  254.64    9.84
   1  -6   6  246.28    9.97
   0   6  -6  191.72    8.89
   0  -6   6  137.42    8.35
   1   6  -6  247.36   10.71
  -1  -6   6  250.19    9.63
   2   6  -6  482.53   21.22
  -2  -6   6  418.26   12.80
   3   6  -6   41.97    5.93
  -3  -6   6   36.85    4.58
   4   6  -6  262.38   10.24
  -4  -6   6  280.30   10.44
   5   6  -6   18.93    3.50
  -5  -6   6   17.38    3.23
   6   6  -6  184.85    7.48
  -6  -6   6  188.75    9.30
   7   6  -6   90.54    5.46
  -7  -6   6   89.46    5.52
   8   6  -6   64.74    5.12
  -8  -6   6   50.52    4.72
   9   6  -6   28.02    3.50
  -9  -6   6   27.55    3.71
  10   6  -6  185.79    9.09
 -10  -6   6  165.99   14.21
  11   6  -6    1.35    3.23
 -11  -6   6    0.27    3.64
  12   6  -6  109.20    7.81
 -12  -6   6  123.61   12.13
  13   6  -6    7.68    4.04
 -13  -6   6   10.44    4.24
  14   6  -6   24.32    4.78
 -14  -6   6   21.29    4.98
 -15   6  -5   17.51    4.58
  15  -6   5   17.65    4.04
 -14   6  -5    1.41    3.50
  14  -6   5   -1.75    3.03
 -13   6  -5   79.89    6.67
  13  -6   5   94.18    6.06
 -12   6  -5    1.41    3.10
  12  -6   5    0.94    3.03
 -11   6  -5  134.80   10.17
  11  -6   5  119.37    6.74
 -10   6  -5   39.00    3.77
  10  -6   5   32.27    3.37
  -9   6  -5   49.71    4.38
   9  -6   5   43.92    3.71
  -8   6  -5   18.66    3.50
   8  -6   5   17.25    3.44
  -7   6  -5  221.02    8.69
   7  -6   5  210.31    8.96
  -6   6  -5   73.29    4.72
   6  -6   5   66.96    4.45
  -5   6  -5  222.30   10.10
   5  -6   5  231.87    9.70
  -4   6  -5    1.35    2.16
   4  -6   5    0.20    2.16
  -3   6  -5  343.69   10.51
   3  -6   5  376.16   12.60
  -2   6  -5  270.80   10.71
   2  -6   5  271.75    9.43
  -1   6  -5  188.82    8.42
   1  -6   5  151.57    6.20
   0   6  -5   -0.40    1.89
   0  -6   5    0.27    1.89
   1   6  -5  189.23    9.63
  -1  -6   5  159.25    7.34
   2   6  -5  274.78   11.32
  -2  -6   5  281.85   11.38
   3   6  -5  386.13   14.01
  -3  -6   5  387.41   14.21
   4   6  -5   -1.01    2.22
  -4  -6   5   -1.28    2.96
   5   6  -5  228.23   13.67
  -5  -6   5  224.73   12.87
   6   6  -5   76.80    4.92
  -6  -6   5   67.84    4.92
   7   6  -5  252.95    9.77
  -7  -6   5  228.03   11.12
   8   6  -5   23.78    3.57
  -8  -6   5   16.23    3.23
   9   6  -5   53.89    5.05
  -9  -6   5   60.09    7.61
  10   6  -5   41.50    5.93
 -10  -6   5   38.60    4.78
  11   6  -5  149.41    7.75
 -11  -6   5  154.26    9.16
  12   6  -5   -2.29    3.84
 -12  -6   5    1.21    4.04
  13   6  -5   98.96    6.53
 -13  -6   5  100.10    8.82
  14   6  -5   -0.07    3.91
 -14  -6   5    3.23    4.31
 -16   6  -4   41.43    6.06
  16  -6   4   37.72    4.58
 -15   6  -4    4.58    8.02
  15  -6   4    5.73    4.31
 -14   6  -4   40.08    5.86
  14  -6   4   50.99    4.58
 -13   6  -4   10.10    3.10
  13  -6   4    9.84    2.83
 -12   6  -4  121.86    7.14
  12  -6   4  134.32    7.07
 -11   6  -4   10.64    4.11
  11  -6   4    9.09    3.23
 -10   6  -4   26.81    3.84
  10  -6   4   30.18    3.71
  -9   6  -4   -0.13    2.49
   9  -6   4    0.54    2.36
  -8   6  -4  203.84    8.02
   8  -6   4  208.42   10.37
  -7   6  -4   21.02    3.03
   7  -6   4   25.67    3.17
  -6   6  -4  186.73    8.96
   6  -6   4  173.19    7.28
  -5   6  -4    3.44    2.83
   5  -6   4    1.55    1.89
  -4   6  -4  511.77   27.28
   4  -6   4  492.97   15.83
  -3   6  -4   53.08    4.04
   3  -6   4   48.84    3.44
  -2   6  -4  162.21    6.87
   2  -6   4  119.64    5.93
  -1   6  -4    4.85    3.64
   1  -6   4    3.03    2.49
   0   6  -4  498.70   15.43
   0  -6   4  507.45   15.90
   1   6  -4    2.29    1.95
  -1  -6   4    3.23    2.02
   2   6  -4  163.09    9.97
  -2  -6   4  129.14    5.93
   3   6  -4   54.90    3.84
  -3  -6   4   53.96    4.31
   4   6  -4  524.70   17.72
  -4  -6   4  517.15   17.72
   5   6  -4    3.77    2.16
  -5  -6   4    2.09    2.90
   6   6  -4  224.66    9.03
  -6  -6   4  204.32   12.66
   7   6  -4   23.24    6.60
  -7  -6   4   21.83    4.72
   8   6  -4  263.19   12.06
  -8  -6   4  272.08   11.45
   9   6  -4   -0.20    2.56
  -9  -6   4    5.19    3.23
  10   6  -4   34.15    5.46
 -10  -6   4   38.40    3.97
  11   6  -4   16.17    4.65
 -11  -6   4   17.99    5.05
  12   6  -4  168.07    8.69
 -12  -6   4  152.24    8.49
  13   6  -4    9.30    3.71
 -13  -6   4   12.26    4.04
  14   6  -4   49.51    5.12
 -14  -6   4   64.47    5.93
 -17   6  -3   22.16    5.39
  17  -6   3   18.93    5.79
 -16   6  -3    7.48    7.34
  16  -6   3    1.08    4.31
 -15   6  -3   59.68    5.59
  15  -6   3   62.24    5.46
 -14   6  -3    2.63    3.03
  14  -6   3    1.89    2.56
 -13   6  -3   56.65    5.73
  13  -6   3   64.33    4.72
 -12   6  -3   11.45    3.30
  12  -6   3   14.82    2.76
 -11   6  -3   53.02    4.78
  11  -6   3   51.26    4.51
 -10   6  -3   12.33    3.10
  10  -6   3    7.81    2.56
  -9   6  -3  161.54    7.95
   9  -6   3  170.63    7.41
  -8   6  -3   19.27    3.30
   8  -6   3   14.28    2.69
  -7   6  -3  183.57   10.51
   7  -6   3  180.00    7.21
  -6   6  -3   17.72    3.03
   6  -6   3   19.33    2.49
  -5   6  -3  329.68   11.32
   5  -6   3  322.34   11.18
  -4   6  -3    9.70    2.09
   4  -6   3   11.32    2.16
  -3   6  -3  182.76    9.77
   3  -6   3  139.85    6.06
  -2   6  -3   60.83    3.91
   2  -6   3   67.77    5.05
  -1   6  -3  363.97   13.07
   1  -6   3  398.19   13.00
   0   6  -3    1.21    2.09
   0  -6   3    2.16    2.43
   1   6  -3  401.42   13.47
  -1  -6   3  411.46   14.75
   2   6  -3   64.67    4.11
  -2  -6   3   66.35    3.84
   3   6  -3  198.12    8.08
  -3  -6   3  163.69    6.40
   4   6  -3   12.33    2.83
  -4  -6   3   11.18    2.76
   5   6  -3  415.10   13.81
  -5  -6   3  385.12   14.69
   6   6  -3   20.01    2.83
  -6  -6   3   26.07    3.10
   7   6  -3  226.95   10.17
  -7  -6   3  234.56   10.64
   8   6  -3   31.66    3.44
  -8  -6   3   20.88    4.98
   9   6  -3  216.10   14.42
  -9  -6   3  235.10   10.31
  10   6  -3   12.60    3.37
 -10  -6   3   14.28    3.37
  11   6  -3   78.28    5.59
 -11  -6   3   72.15    7.48
  12   6  -3   13.20    4.11
 -12  -6   3   15.56    4.18
  13   6  -3   85.28    7.07
 -13  -6   3   82.93    6.74
  14   6  -3    9.09    4.31
 -14  -6   3    1.95    4.85
  15   6  -3   88.58    9.70
 -15  -6   3   87.91   15.09
 -17   6  -2    0.81    4.65
  17  -6   2   -1.55    3.23
 -16   6  -2   23.71    6.33
  16  -6   2   26.41    4.45
 -15   6  -2    2.16    3.30
  15  -6   2    0.27    2.69
 -14   6  -2  100.57    9.03
  14  -6   2  105.29    5.52
 -13   6  -2   11.99    2.90
  13  -6   2    9.36    2.56
 -12   6  -2   31.66    3.71
  12  -6   2   25.80    4.11
 -11   6  -2    9.16    2.69
  11  -6   2    9.23    2.29
 -10   6  -2  133.65    8.49
  10  -6   2  140.45    7.21
  -9   6  -2    5.86    3.10
   9  -6   2    9.36    2.49
  -8   6  -2  141.06    6.47
   8  -6   2  163.49    6.40
  -7   6  -2    7.48    2.16
   7  -6   2    4.92    1.82
  -6   6  -2  238.40    9.50
   6  -6   2  275.92   10.37
  -5   6  -2   85.42    6.13
   5  -6   2   90.54    4.38
  -4   6  -2  433.35   14.62
   4  -6   2  355.95   12.60
  -3   6  -2  147.12    6.40
   3  -6   2  152.04    6.60
  -2   6  -2  319.37   14.08
   2  -6   2  350.50   17.65
  -1   6  -2   17.11    2.29
   1  -6   2   17.04    2.02
   0   6  -2  532.85   22.90
   0  -6   2  535.48   15.56
   1   6  -2   16.77    2.36
  -1  -6   2   18.39    2.29
   2   6  -2  370.23   20.41
  -2  -6   2  390.85   13.67
   3   6  -2  163.43    6.26
  -3  -6   2  171.37    7.21
   4   6  -2  557.91   17.78
  -4  -6   2  443.80   14.08
   5   6  -2  109.94    5.39
  -5  -6   2  109.20    5.39
   6   6  -2  387.01   14.28
  -6  -6   2  374.41   16.10
   7   6  -2   12.93    3.17
  -7  -6   2   10.51    3.10
   8   6  -2  214.76   10.04
  -8  -6   2  235.84    9.43
   9   6  -2    8.69    2.76
  -9  -6   2   14.42    3.50
  10   6  -2  179.19   13.74
 -10  -6   2  187.68    8.15
  11   6  -2   18.39    3.71
 -11  -6   2   11.79    2.96
  12   6  -2   45.00    4.85
 -12  -6   2   41.50    4.31
  13   6  -2   15.36    3.77
 -13  -6   2   14.69    3.71
  14   6  -2  165.31    9.57
 -14  -6   2  166.73   10.04
  15   6  -2    4.65    4.04
 -15  -6   2    3.23    4.18
 -17   6  -1   11.92    2.90
  17  -6   1   19.06    2.76
 -16   6  -1    2.63    3.44
  16  -6   1    3.50    3.03
 -15   6  -1   32.67    3.44
  15  -6   1   35.16    3.44
 -14   6  -1    1.95    3.97
  14  -6   1    3.23    2.49
 -13   6  -1   71.07    5.46
  13  -6   1   67.30    4.72
 -12   6  -1   13.14    2.90
  12  -6   1    8.56    2.43
 -11   6  -1   87.91    4.85
  11  -6   1   99.23    5.25
 -10   6  -1    1.28    1.89
  10  -6   1    3.97    1.95
  -9   6  -1  115.53    5.52
   9  -6   1  104.01    4.78
  -8   6  -1   33.82    2.76
   8  -6   1   33.01    2.69
  -7   6  -1  140.79    6.80
   7  -6   1  143.96    6.47
  -6   6  -1   24.32    2.43
   6  -6   1   25.87    2.29
  -5   6  -1  182.42    8.76
   5  -6   1  162.48    7.41
  -4   6  -1   11.38    2.29
   4  -6   1    8.08    1.89
  -3   6  -1  230.25    8.49
   3  -6   1  232.68    8.08
  -2   6  -1   14.42    1.95
   2  -6   1   14.21    1.95
  -1   6  -1  190.64    8.29
   1  -6   1  211.19    8.42
   0   6  -1    0.54    1.62
   0  -6   1    0.67    1.75
   1   6  -1  194.28    7.68
  -1  -6   1  229.85    9.16
   2   6  -1   20.95    2.49
  -2  -6   1   21.89    2.49
   3   6  -1  316.88   11.79
  -3  -6   1  306.17   10.58
   4   6  -1   11.25    2.02
  -4  -6   1    9.90    2.02
   5   6  -1  293.71   10.37
  -5  -6   1  243.25    9.90
   6   6  -1   44.26    3.64
  -6  -6   1   36.04    3.50
   7   6  -1  245.74   12.33
  -7  -6   1  269.66   11.18
   8   6  -1   57.60    4.04
  -8  -6   1   59.08    5.79
   9   6  -1  166.79    7.48
  -9  -6   1  171.44    7.07
  10   6  -1    1.62    3.50
 -10  -6   1    1.15    3.30
  11   6  -1  137.09    7.54
 -11  -6   1  140.25   10.44
  12   6  -1   18.12    6.00
 -12  -6   1   12.06    3.71
  13   6  -1  118.29    6.80
 -13  -6   1  117.35    7.28
  14   6  -1    3.30    3.64
 -14  -6   1    4.04    3.50
  15   6  -1   65.68    5.73
 -15  -6   1   72.89    6.53
 -16   6   0   34.63    3.64
  16  -6   0   33.21    3.50
 -15   6   0    1.82    3.17
  15  -6   0    4.18    2.90
 -14   6   0   34.22    3.37
  14  -6   0   31.26    3.30
 -13   6   0    7.48    2.69
  13  -6   0    7.81    2.76
 -12   6   0  126.78    7.07
  12  -6   0  130.21    6.94
 -11   6   0   14.42    2.29
  11  -6   0   13.20    2.09
 -10   6   0   95.59    5.32
  10  -6   0   96.53    4.92
  -9   6   0    5.66    1.89
   9  -6   0    5.32    1.75
  -8   6   0  112.09    5.39
   8  -6   0  113.51    5.59
  -7   6   0   47.42    2.90
   7  -6   0   53.62    3.37
  -6   6   0  114.52    4.78
   6  -6   0  113.58    7.88
  -5   6   0  109.20    6.94
   5  -6   0  109.94    5.05
  -4   6   0  243.12   10.44
   4  -6   0  257.33   12.06
  -3   6   0   22.10    1.95
   3  -6   0   18.19    1.95
  -2   6   0  470.20   15.09
   2  -6   0  449.79   13.67
  -1   6   0   89.26    4.18
   1  -6   0   93.57    4.04
   0   6   0  154.06    6.67
   0  -6   0  147.19    5.73
   1   6   0   85.35    4.85
  -1  -6   0   91.41    4.72
   2   6   0  516.28   16.64
  -2  -6   0  506.71   24.18
   3   6   0   25.53    2.69
  -3  -6   0   24.59    2.76
   4   6   0  368.68   12.06
  -4  -6   0  361.27   12.46
   5   6   0  186.67    8.02
  -5  -6   0  176.43    7.54
   6   6   0  208.09    8.08
  -6  -6   0  201.55    7.95
   7   6   0  106.23    5.32
  -7  -6   0   92.22    5.59
   8   6   0  197.04    8.35
  -8  -6   0  180.94    7.81
   9   6   0    6.87    2.69
  -9  -6   0    6.87    2.63
  10   6   0  169.08    8.35
 -10  -6   0  167.33   11.59
  11   6   0   23.04    3.84
 -11  -6   0   25.40    3.77
  12   6   0  248.03   10.91
 -12  -6   0  231.53   10.85
  13   6   0   14.69    3.71
 -13  -6   0   12.40    5.39
  14   6   0   64.20    8.89
 -14  -6   0   67.09    8.96
  15   6   0    5.93    4.31
 -15  -6   0    0.88    3.97
 -16   6   1    3.30    4.85
  16  -6  -1    0.74    2.16
 -15   6   1   26.61    3.30
  15  -6  -1   26.20    2.63
 -14   6   1   -1.15    3.97
  14  -6  -1    1.08    2.56
 -13   6   1   43.65    3.97
  13  -6  -1   55.84    3.64
 -12   6   1    7.61    2.63
  12  -6  -1    9.63    3.37
 -11   6   1   70.46    4.04
  11  -6  -1   69.72    3.77
 -10   6   1    3.23    2.29
  10  -6  -1    5.05    1.75
  -9   6   1   81.04    4.65
   9  -6  -1  100.10    4.65
  -8   6   1   32.13    2.29
   8  -6  -1   34.02    2.36
  -7   6   1  157.77    5.79
   7  -6  -1  140.66    5.93
  -6   6   1   24.79    1.89
   6  -6  -1   27.08    2.09
  -5   6   1  158.64    6.33
   5  -6  -1  188.15    8.29
  -4   6   1    9.09    1.89
   4  -6  -1    7.81    1.62
   3  -6  -1  227.22    8.02
  -2   6   1   15.90    1.89
   2  -6  -1   14.95    2.76
  -1   6   1  195.56    7.14
   1  -6  -1  174.47    6.47
   0   6   1   -0.94    1.48
   0  -6  -1   -0.88    1.55
   1   6   1  190.10    7.28
  -1  -6  -1  180.87    7.07
   2   6   1   18.26    2.16
  -2  -6  -1   14.89    2.16
   3   6   1  269.73   14.28
  -3  -6  -1  285.35    9.84
   4   6   1    9.63    2.36
  -4  -6  -1   13.27    2.22
   5   6   1  234.70    8.96
  -5  -6  -1  264.07   14.01
   6   6   1   45.13    3.71
  -6  -6  -1   37.66    3.64
   7   6   1  255.58   10.10
  -7  -6  -1  224.12    9.03
   8   6   1   54.36    4.24
  -8  -6  -1   60.56    4.58
   9   6   1  166.25    7.54
  -9  -6  -1  164.71    7.48
  10   6   1    6.53    3.10
 -10  -6  -1    1.95    4.11
  11   6   1  138.03    6.60
 -11  -6  -1  150.76    8.29
  12   6   1   18.66    3.57
 -12  -6  -1   15.36    3.84
  13   6   1  100.98    6.53
 -13  -6  -1  124.35    7.28
  14   6   1    3.03    3.37
 -14  -6  -1    9.23    5.66
  15   6   1   62.78   10.24
 -15  -6  -1   57.19    9.63
 -15   6   2    1.21    2.69
  15  -6  -2    2.02    1.95
  14  -6  -2   56.92    4.11
 -13   6   2    5.86    2.36
  13  -6  -2    4.98    1.55
 -12   6   2   15.49    3.77
  12  -6  -2   17.25    2.29
  11  -6  -2    7.81    2.09
 -10   6   2  107.04    7.21
  10  -6  -2   92.36    4.45
  -9   6   2    5.86    2.43
   9  -6  -2    5.73    2.43
  -8   6   2  132.71    6.40
   8  -6  -2  125.36    5.59
  -7   6   2    8.42    1.62
   7  -6  -2    6.94    1.62
  -6   6   2  242.98    9.03
   6  -6  -2  225.67    7.95
  -5   6   2   71.41    3.44
   5  -6  -2   74.84    3.17
  -4   6   2  328.33   16.30
   4  -6  -2  373.80   12.40
  -3   6   2  122.67    5.19
   3  -6  -2  109.00    5.52
  -2   6   2  268.11   10.17
   2  -6  -2  263.53    9.16
  -1   6   2   14.15    1.95
   1  -6  -2   13.14    3.44
   0   6   2  425.47   13.88
   0  -6  -2  386.81   13.14
   1   6   2   11.25    1.75
  -1  -6  -2   13.88    1.89
   2   6   2  297.95   11.52
  -2  -6  -2  282.73    9.50
   3   6   2  132.44    7.21
  -3  -6  -2  134.05    6.80
   4   6   2  411.39   12.93
  -4  -6  -2  455.38   19.87
   5   6   2   97.81    4.92
  -5  -6  -2   98.62    4.72
   6   6   2  358.92   13.94
  -6  -6  -2  340.19   15.43
   7   6   2    8.02    2.63
  -7  -6  -2    9.63    2.36
   8   6   2  229.24    8.49
  -8  -6  -2  214.02    8.22
   9   6   2    9.23    3.03
  -9  -6  -2   10.31    3.23
  10   6   2  192.80    9.70
 -10  -6  -2  179.32    8.96
  11   6   2   17.85    3.17
 -11  -6  -2   11.45    3.37
  12   6   2   34.96    4.31
 -12  -6  -2   49.31    4.65
  13   6   2   13.81    3.37
 -13  -6  -2   15.63    3.91
  14   6   2  158.64    8.69
 -14  -6  -2  161.94   10.58
  15   6   2   -2.69    4.38
 -15  -6  -2    3.03    5.52
 -15   6   3   24.05    2.69
  15  -6  -3   24.12    2.83
 -14   6   3    3.84    3.03
  14  -6  -3    2.56    1.75
 -13   6   3   22.23    2.90
  13  -6  -3   24.18    2.22
 -12   6   3    5.39    2.29
  12  -6  -3    7.95    1.75
  11  -6  -3   33.41    2.69
 -10   6   3    7.07    1.62
  10  -6  -3    6.40    1.35
  -9   6   3  115.93    6.06
   9  -6  -3  109.06    7.68
  -8   6   3   12.87    1.68
   8  -6  -3   18.53    1.55
  -7   6   3  140.93    9.16
   7  -6  -3  139.92    8.15
  -6   6   3   14.95    1.41
   6  -6  -3   15.22    1.68
  -5   6   3  236.92    8.76
   5  -6  -3  249.11    8.96
  -4   6   3    8.69    1.95
   4  -6  -3    5.59    1.41
  -3   6   3  102.53    7.21
   3  -6  -3  132.77    5.52
  -2   6   3   43.05    2.29
   2  -6  -3   44.12    3.57
  -1   6   3  296.00   10.91
   1  -6  -3  254.57    9.16
   0   6   3    0.34    1.62
   0  -6  -3    1.62    2.43
   1   6   3  275.59   14.75
  -1  -6  -3  261.84    9.43
   2   6   3   46.08    4.11
  -2  -6  -3   45.27    2.83
   3   6   3  107.78    5.79
  -3  -6  -3  149.14    7.75
   4   6   3    8.15    2.02
  -4  -6  -3    7.21    1.95
   5   6   3  285.83   13.88
  -5  -6  -3  323.89   12.13
   6   6   3   21.49    3.03
  -6  -6  -3   20.88    4.24
   7   6   3  211.05    8.76
  -7  -6  -3  208.90    8.22
   8   6   3   27.75    2.96
  -8  -6  -3   18.66    3.10
   9   6   3  218.60    9.50
  -9  -6  -3  206.00    9.36
  10   6   3   15.22    3.23
 -10  -6  -3   12.19    3.64
  11   6   3   75.04    5.93
 -11  -6  -3   71.14    5.93
  12   6   3   13.81    3.64
 -12  -6  -3   11.18    4.65
  13   6   3   83.46    5.39
 -13  -6  -3   81.58   10.17
  14   6   3    4.65    4.72
 -14  -6  -3    4.04    4.85
  14  -6  -4   11.12    1.55
 -13   6   4    0.67    1.95
  13  -6  -4    1.62    1.01
 -12   6   4   42.57    3.50
  12  -6  -4   57.39    3.50
  11  -6  -4    4.58    1.55
  10  -6  -4   13.27    1.21
  -9   6   4    0.27    1.62
   9  -6  -4   -0.34    1.15
  -8   6   4  134.86    8.69
   8  -6  -4  111.15    7.61
  -7   6   4   11.79    1.95
   7  -6  -4   11.52    1.21
  -6   6   4  110.88    8.89
   6  -6  -4  118.36    6.20
  -5   6   4    3.30    0.88
   5  -6  -4    2.83    1.95
  -4   6   4  344.03   11.59
   4  -6  -4  338.57   11.99
  -3   6   4   32.07    2.36
   3  -6  -4   31.19    3.50
  -2   6   4   88.99    5.73
   2  -6  -4  109.13    4.38
  -1   6   4    0.27    1.82
   1  -6  -4    3.50    1.68
   0   6   4  352.05   16.23
   0  -6  -4  326.92   15.43
   1   6   4    2.83    1.41
  -1  -6  -4    2.36    1.62
   2   6   4   75.78    4.45
  -2  -6  -4   86.02    4.92
   3   6   4   28.02    2.96
  -3  -6  -4   31.46    2.83
   4   6   4  357.84   13.14
  -4  -6  -4  327.93   17.45
   5   6   4    2.02    2.83
  -5  -6  -4    3.91    2.43
   6   6   4  165.51    8.29
  -6  -6  -4  166.25    7.34
   7   6   4   23.04    2.83
  -7  -6  -4   19.06    2.90
   8   6   4  239.88   10.31
  -8  -6  -4  228.03   13.81
   9   6   4    0.61    2.76
  -9  -6  -4    0.47    3.17
  10   6   4   31.32    3.30
 -10  -6  -4   29.77    3.44
  11   6   4   16.10    3.37
 -11  -6  -4   10.98    3.44
  12   6   4  155.95    8.29
 -12  -6  -4  172.52   11.86
  13   6   4   11.79    3.64
 -13  -6  -4   10.71    6.13
  14   6   4   58.34    5.32
 -14  -6  -4   53.89    5.93
   5  -6  -5  115.19    7.01
  -4   6   5    0.27    0.67
   4  -6  -5   -0.27    0.81
  -3   6   5  232.14    8.69
   3  -6  -5  227.76   11.25
  -2   6   5  169.49    6.60
   2  -6  -5  182.96   10.17
  -1   6   5  100.91    6.67
   1  -6  -5  127.32    7.28
   0   6   5    1.08    1.15
   0  -6  -5   -0.54    1.35
   1   6   5  107.04    5.79
  -1  -6  -5  111.42    6.47
   2   6   5  172.18    7.14
  -2  -6  -5  154.67   10.04
   3   6   5  225.06   10.98
  -3  -6  -5  186.73    8.22
   4   6   5    0.74    2.29
  -4  -6  -5   -1.21    2.83
   5   6   5  163.29    6.47
  -5  -6  -5  148.47   11.52
   6   6   5   55.10    3.71
  -6  -6  -5   55.04    4.18
   7   6   5  170.50    7.81
  -7  -6  -5  193.74    8.96
   8   6   5   15.76    2.90
  -8  -6  -5   15.29    3.97
   9   6   5   46.41    3.57
  -9  -6  -5   46.62    5.46
  10   6   5   46.28    3.97
 -10  -6  -5   44.66    4.85
  11   6   5  136.14    7.34
 -11  -6  -5  148.34    8.42
  12   6   5    0.34    3.03
 -12  -6  -5    1.41    3.03
  13   6   5  106.84    7.61
 -13  -6  -5  109.67   10.78
  14   6   5    1.62    3.77
 -14  -6  -5    1.28    4.18
  -3   6   6   12.26    2.09
   3  -6  -6   15.49    1.82
  -2   6   6  269.12   15.16
   2  -6  -6  286.43   16.98
  -1   6   6  144.36    6.40
   1  -6  -6  151.43    6.74
   0   6   6   89.73    4.11
   0  -6  -6  117.55    7.81
   1   6   6  160.12    5.86
  -1  -6  -6  150.42    6.13
   2   6   6  266.43   10.58
  -2  -6  -6  284.21   15.90
   3   6   6   17.65    2.22
  -3  -6  -6   18.39    2.43
   4   6   6  183.50    7.34
  -4  -6  -6  155.88    8.22
   5   6   6    9.97    2.29
  -5  -6  -6    8.82    2.49
   6   6   6  119.77    6.06
  -6  -6  -6  129.34    6.00
   7   6   6   67.03    4.31
  -7  -6  -6   59.62    6.74
   8   6   6   41.02    3.57
  -8  -6  -6   53.55    4.24
   9   6   6   23.17    3.77
  -9  -6  -6   20.55    3.77
  10   6   6  138.77    7.88
 -10  -6  -6  150.29    9.50
  11   6   6    5.32    4.45
 -11  -6  -6   -0.61    4.18
  12   6   6  119.57    8.76
 -12  -6  -6  121.39    8.22
  13   6   6    5.52    4.72
 -13  -6  -6    7.48    6.20
  -2   6   7    2.49    0.74
   2  -6  -7    2.49    1.48
  -1   6   7   91.41    4.92
   1  -6  -7  105.16    4.78
   0   6   7    0.20    0.88
   0  -6  -7   -0.07    2.22
   1   6   7  100.71    4.65
  -1  -6  -7  106.64    4.98
   2   6   7    4.38    1.35
  -2  -6  -7    3.57    1.89
   3   6   7  186.13    7.07
  -3  -6  -7  193.60    9.50
   4   6   7   12.60    2.09
  -4  -6  -7   13.14    2.29
   5   6   7   83.53    4.31
  -5  -6  -7   88.18    4.58
   6   6   7   34.15    2.90
  -6  -6  -7   31.39    4.58
   7   6   7   44.19    3.50
  -7  -6  -7   46.95    4.04
   8   6   7    3.91    2.63
  -8  -6  -7    3.03    3.91
   9   6   7  138.23    7.01
  -9  -6  -7  149.75    8.82
  10   6   7    4.58    3.37
 -10  -6  -7    8.08    3.97
  11   6   7  175.21    9.43
 -11  -6  -7  173.60    9.97
  12   6   7   17.51    4.51
 -12  -6  -7   21.89    5.52
  13   6   7   26.00    4.72
 -13  -6  -7   35.97    5.05
  -1   6   8   57.60    3.03
   1  -6  -8   56.79    3.84
   0   6   8  113.37    4.85
   0  -6  -8  119.84    5.79
   1   6   8   57.46    3.10
  -1  -6  -8   59.68    5.12
   2   6   8  114.45    5.05
  -2  -6  -8  105.83    4.92
   3   6   8   12.93    1.82
  -3  -6  -8   14.69    2.96
   4   6   8   65.48    4.58
  -4  -6  -8   74.10    6.47
   5   6   8    9.16    2.76
  -5  -6  -8    7.88    4.11
   6   6   8   34.22    3.50
  -6  -6  -8   42.10    5.39
   7   6   8   15.49    2.63
  -7  -6  -8    9.63    5.59
   8   6   8   72.28    4.72
  -8  -6  -8   66.35    5.39
   9   6   8   22.30    3.17
  -9  -6  -8   24.12    3.71
  10   6   8  181.14    9.23
 -10  -6  -8  186.67    9.84
  11   6   8   15.90    4.38
 -11  -6  -8   12.60    5.32
  12   6   8   24.86    4.04
 -12  -6  -8   20.55    4.72
  13   6   8    6.33    5.66
 -13  -6  -8   11.38    6.87
   0   6   9    0.27    0.88
   0  -6  -9    0.27    1.28
   1   6   9  149.89    6.87
  -1  -6  -9  151.97    6.87
   2   6   9    6.26    1.62
  -2  -6  -9    7.21    3.84
   3   6   9   18.32    2.29
  -3  -6  -9   29.98    2.96
   4   6   9    7.81    1.82
  -4  -6  -9    8.56    2.16
   5   6   9   55.71    3.64
  -5  -6  -9   62.31    5.25
   6   6   9   13.67    3.03
   7   6   9   52.48    4.18
  -7  -6  -9   58.88    4.51
   8   6   9    9.09    3.50
  -8  -6  -9    8.96    6.40
   9   6   9  218.87   11.25
  -9  -6  -9  221.16   16.10
  10   6   9   12.19    3.23
 -10  -6  -9   12.53    7.54
  11   6   9   14.75    3.64
 -11  -6  -9   18.05    7.07
  12   6   9   -0.47    3.44
 -12  -6  -9    6.06    6.74
   0   6  10  147.93   10.51
   0  -6 -10  159.38   10.91
   1   6  10    4.04    1.21
  -1  -6 -10    4.51    2.22
   2   6  10   25.26    2.49
  -2  -6 -10   25.67    2.69
   3   6  10    3.57    1.75
  -3  -6 -10    5.46    3.57
   4   6  10   19.81    2.96
  -4  -6 -10   32.54    4.85
   5   6  10    2.96    1.95
  -5  -6 -10    4.92    2.76
   6   6  10   60.96    4.65
  -6  -6 -10   54.50    4.45
   7   6  10    3.30    2.43
  -7  -6 -10    9.84    5.73
   8   6  10  167.13    8.15
  -8  -6 -10  175.75   13.54
   9   6  10   10.71    3.10
  -9  -6 -10    9.97    3.44
  10   6  10   23.98    3.64
 -10  -6 -10   15.70    3.91
  11   6  10    3.44    3.57
 -11  -6 -10    5.05    4.98
   0   6  11   -0.27    0.74
   1   6  11   42.30    2.83
  -1  -6 -11   43.79    5.52
   2   6  11    1.75    1.48
  -2  -6 -11    1.75    2.96
   3   6  11   26.54    2.43
  -3  -6 -11   30.11    3.30
   4   6  11    3.71    1.95
  -4  -6 -11    3.50    2.43
   5   6  11   16.17    2.83
  -5  -6 -11   18.39    3.37
   6   6  11   -1.62    2.22
  -6  -6 -11   -0.47    2.90
   7   6  11  165.99    8.22
  -7  -6 -11  176.49    8.02
   8   6  11   23.04    3.10
  -8  -6 -11   28.76    3.77
   9   6  11    8.82    2.69
  -9  -6 -11    8.42    3.37
  10   6  11    3.17    2.69
 -10  -6 -11    1.62    3.57
  11   6  11   18.93    3.30
 -11  -6 -11   23.71    3.77
   1   6  12    2.02    1.41
  -1  -6 -12    2.63    1.75
   2   6  12   22.43    2.29
  -2  -6 -12   26.14    2.96
   3   6  12    3.44    2.16
  -3  -6 -12    2.16    2.56
   4   6  12   35.30    3.17
  -4  -6 -12   27.35    4.72
   5   6  12    1.08    2.56
  -5  -6 -12    3.17    4.31
   6   6  12   69.39    4.51
  -6  -6 -12   68.31    4.85
   7   6  12   11.52    2.96
  -7  -6 -12   12.13    3.50
   8   6  12   17.18    3.10
  -8  -6 -12   13.54    3.17
   9   6  12    2.56    3.23
  -9  -6 -12    0.61    4.11
  10   6  12   14.28    3.57
 -10  -6 -12   15.22    3.91
   1   6  13    1.21    0.81
   2   6  13    5.19    1.15
  -2  -6 -13    2.36    2.76
   3   6  13   31.19    2.56
   4   6  13    1.48    2.09
  -4  -6 -13    1.28    3.03
   5   6  13   55.84    4.31
  -5  -6 -13   59.62    5.12
   6   6  13   11.65    2.49
  -6  -6 -13   14.62    2.96
   7   6  13    7.88    2.96
  -7  -6 -13    2.36    3.57
   8   6  13    1.62    2.56
  -8  -6 -13    0.88    6.60
   9   6  13   11.45    2.83
  -9  -6 -13   15.36    4.04
  -2   7 -12    0.67    5.46
   2  -7  12    1.89    7.14
  -1   7 -12   58.94    5.66
   1  -7  12   48.57    5.66
   0   7 -12    1.68    4.24
   0  -7  12   -2.02    4.18
   1   7 -12   61.23    9.50
  -1  -7  12   40.96    5.59
   2   7 -12    2.56    5.59
  -2  -7  12    1.95    4.31
   3   7 -12   31.53    6.74
  -3  -7  12   40.55    8.29
  -5   7 -11    4.98    4.38
   5  -7  11   15.70    5.12
  -4   7 -11   23.24    8.42
   4  -7  11   40.15    7.61
  -3   7 -11    5.25    8.02
   3  -7  11    2.69    4.65
  -2   7 -11   41.63    5.32
  -1   7 -11    3.30    4.11
   1  -7  11    4.92    4.51
   0   7 -11  138.37    9.09
   0  -7  11  131.90    8.49
   1   7 -11    0.00    6.06
  -1  -7  11    7.81    5.46
   2   7 -11   39.88    6.67
  -2  -7  11   34.42    5.39
   3   7 -11    9.43    4.45
  -3  -7  11    7.81    4.24
   4   7 -11   27.82    4.98
  -4  -7  11   40.76    5.19
   5   7 -11   14.15    4.92
  -5  -7  11   16.77    4.58
   6   7 -11   47.36    6.26
  -6  -7  11   45.88    5.86
  -8   7 -10    1.55    5.46
   8  -7  10    1.01    6.87
  -7   7 -10   58.47    6.06
   7  -7  10   57.60    5.59
  -6   7 -10    9.84    5.39
   6  -7  10    8.42    4.04
  -5   7 -10   50.25    4.51
   5  -7  10   50.73    5.25
  -4   7 -10    5.32    3.97
   4  -7  10    1.75    3.64
  -3   7 -10   18.39    4.92
   3  -7  10   15.76    4.51
  -2   7 -10   16.10    5.52
   2  -7  10    8.96    6.13
  -1   7 -10  183.70   19.81
   1  -7  10  187.14   11.05
   0   7 -10    1.95    4.85
   0  -7  10   -5.79    4.78
   1   7 -10  177.50   10.85
  -1  -7  10  189.63   11.38
   2   7 -10   10.71    5.52
  -2  -7  10    8.08    4.45
   3   7 -10   12.46    4.24
  -3  -7  10   20.82    4.04
   4   7 -10    0.13    3.50
  -4  -7  10   -0.20    3.23
   5   7 -10   52.41    5.66
  -5  -7  10   45.27    5.05
   6   7 -10    5.59    4.45
  -6  -7  10    5.46    4.72
   7   7 -10   53.02    5.46
  -7  -7  10   55.84    5.66
   8   7 -10    7.48    4.72
  -8  -7  10    4.98    5.39
  -9   7  -9   -0.13    5.66
   9  -7   9   -0.13    4.04
  -8   7  -9   99.83    7.21
   8  -7   9  104.55    7.34
  -7   7  -9   18.39    5.32
   7  -7   9   13.81    5.39
  -6   7  -9   40.28    5.79
   6  -7   9   27.42    5.59
  -5   7  -9   66.76    5.19
   5  -7   9   58.88    4.85
  -4   7  -9   55.91    5.39
   4  -7   9   32.81    4.18
  -3   7  -9   23.51    4.18
   3  -7   9   28.76    5.39
  -2   7  -9  166.86    9.57
   2  -7   9  168.48    9.36
  -1   7  -9    1.01    3.50
   1  -7   9    7.41    4.31
   0   7  -9  154.53    8.89
   0  -7   9  163.43   10.78
   1   7  -9    7.34    4.72
  -1  -7   9    8.35    4.38
   2   7  -9  149.28    8.08
  -2  -7   9  150.42    8.62
   3   7  -9   26.20    4.11
  -3  -7   9   34.76    5.73
   4   7  -9   49.11    5.05
  -4  -7   9   33.61    4.31
   5   7  -9   60.96    5.73
  -5  -7   9   65.34    5.73
   6   7  -9   26.81    5.93
  -6  -7   9   30.79    3.97
   7   7  -9   18.39    5.66
  -7  -7   9   12.33    5.59
   8   7  -9   95.39    7.48
  -8  -7   9  109.60    7.88
   9   7  -9    2.56    5.19
  -9  -7   9    0.20    4.85
 -11   7  -8  111.22    7.88
  11  -7   8  123.41    7.68
 -10   7  -8    7.68    4.18
  10  -7   8    8.42    4.04
  -9   7  -8   75.52    6.87
   9  -7   8   95.93    7.14
  -8   7  -8    4.45    4.65
   8  -7   8    2.29    3.97
  -7   7  -8  121.79    7.95
   7  -7   8  127.86    7.61
  -6   7  -8    7.75    3.10
   6  -7   8    5.52    3.30
  -5   7  -8   27.62    3.50
   5  -7   8   11.59    3.64
  -4   7  -8   18.93    4.38
   4  -7   8   21.56    4.11
  -3   7  -8  226.48   10.85
   3  -7   8  206.61    9.90
  -2   7  -8   58.00    5.46
   2  -7   8   59.48    4.78
  -1   7  -8  169.22    9.36
   1  -7   8  189.43    9.84
   0   7  -8   -1.41    3.30
   0  -7   8    0.00    2.96
   1   7  -8  167.60    7.95
  -1  -7   8  174.14   11.86
   2   7  -8   71.41    9.57
  -2  -7   8   56.99    5.05
   3   7  -8  215.50    9.63
  -3  -7   8  211.93   13.88
   4   7  -8   16.84    3.50
  -4  -7   8   20.34    3.57
   5   7  -8   23.04    4.85
  -5  -7   8   16.84    4.38
   6   7  -8    6.00    3.77
  -6  -7   8   11.45    4.65
   7   7  -8  126.24    8.29
  -7  -7   8  134.73    8.62
   8   7  -8    0.47    3.64
  -8  -7   8    4.92    4.04
   9   7  -8   76.26    7.28
  -9  -7   8   94.85    7.28
  10   7  -8   12.60    5.32
 -10  -7   8   13.54    4.78
 -12   7  -7   76.05    7.54
  12  -7   7   75.31    5.46
 -11   7  -7   21.08    4.38
  11  -7   7   19.87    4.11
 -10   7  -7   88.04    6.06
  10  -7   7   97.88    6.47
  -9   7  -7   12.93    4.45
   9  -7   7   11.12    4.24
  -8   7  -7   87.64    7.07
   8  -7   7   89.73    6.40
  -7   7  -7   17.11    4.45
   7  -7   7   13.61    3.44
  -6   7  -7   30.18    4.85
   6  -7   7   31.59    4.18
  -5   7  -7   23.91    3.30
   5  -7   7   22.43    3.50
  -4   7  -7  102.66    6.53
   4  -7   7   99.29    5.52
  -3   7  -7   20.14    4.18
   3  -7   7   23.58    3.97
  -2   7  -7  118.02    6.80
   2  -7   7  117.21    6.06
  -1   7  -7   34.29    4.04
   1  -7   7   40.82    3.84
   0   7  -7  272.02   11.18
   0  -7   7  309.54   12.46
   1   7  -7   38.53    3.91
  -1  -7   7   35.64    4.11
   2   7  -7  118.02    7.21
  -2  -7   7  117.08    9.63
   3   7  -7   18.86    5.39
  -3  -7   7   24.45    5.39
   4   7  -7  102.39   11.18
  -4  -7   7   94.92   10.51
   5   7  -7   26.74    3.77
  -5  -7   7   23.51    3.97
   6   7  -7   27.96    3.97
  -6  -7   7   24.12    4.04
   7   7  -7   14.42    3.57
  -7  -7   7   15.90    3.84
   8   7  -7  112.57    7.81
  -8  -7   7   86.83    7.54
   9   7  -7   13.34    5.19
  -9  -7   7   15.29    5.12
  10   7  -7  106.03    7.07
 -10  -7   7  120.11   10.58
  11   7  -7   28.23    4.45
 -11  -7   7   28.02    5.05
 -13   7  -6   46.28    5.79
  13  -7   6   44.80    4.98
 -12   7  -6    8.82    4.98
  12  -7   6   11.86    4.18
 -11   7  -6   44.06    5.19
  11  -7   6   36.11    4.85
 -10   7  -6    8.22    4.04
  10  -7   6    4.04    3.91
  -9   7  -6  123.34    7.61
   9  -7   6  132.91    9.50
  -8   7  -6    2.76    3.17
   8  -7   6    0.61    2.69
  -7   7  -6   40.35    5.05
   7  -7   6   43.05    4.92
  -6   7  -6   12.06    3.37
   6  -7   6   12.06    2.83
  -5   7  -6  181.48    7.54
   5  -7   6  191.72    9.50
  -4   7  -6   17.38    3.57
   4  -7   6   20.01    3.44
  -3   7  -6   57.33    4.72
   3  -7   6   70.06    4.92
  -2   7  -6   11.59    3.44
   2  -7   6   12.93    3.10
  -1   7  -6  176.09    9.36
   1  -7   6  163.49    6.94
   0   7  -6   -0.07    2.43
   0  -7   6    0.07    2.36
   1   7  -6  174.94   11.86
  -1  -7   6  175.08    8.02
   2   7  -6   18.86    3.57
  -2  -7   6    5.19    4.45
   3   7  -6   78.88    5.59
  -3  -7   6   69.32    4.98
   4   7  -6   23.38    4.04
  -4  -7   6   21.22    3.37
   5   7  -6  203.57    8.69
  -5  -7   6  206.88   14.01
   6   7  -6    3.17    6.80
  -6  -7   6   13.14    4.04
   7   7  -6   45.40    5.79
  -7  -7   6   47.63    4.78
   8   7  -6   -0.27    4.18
  -8  -7   6    0.88    3.97
   9   7  -6  163.96    8.15
  -9  -7   6  154.80    9.63
  10   7  -6    8.69    4.31
 -10  -7   6    7.48    4.51
  11   7  -6   53.22    7.41
 -11  -7   6   41.77    5.39
  12   7  -6   15.56    4.98
 -12  -7   6   13.88    5.46
 -14   7  -5   42.17    5.39
  14  -7   5   36.92    3.91
 -13   7  -5    3.71    4.18
  13  -7   5    7.81    4.04
 -12   7  -5   41.36    7.88
  12  -7   5   37.25    4.98
 -11   7  -5    7.68    3.37
  11  -7   5    4.98    3.37
 -10   7  -5   58.61    6.33
  10  -7   5   51.80    4.92
  -9   7  -5   13.00    4.04
   9  -7   5   14.75    4.18
  -8   7  -5   64.53    5.66
   8  -7   5   74.50    5.39
  -7   7  -5   17.31    3.97
   7  -7   5   10.98    5.19
  -6   7  -5  165.85   11.18
   6  -7   5  176.43   11.65
  -5   7  -5   31.19    3.23
   5  -7   5   25.26    3.23
  -4   7  -5  124.15    6.47
   4  -7   5  148.94    6.40
  -3   7  -5    7.41    3.44
   3  -7   5    3.44    2.43
  -2   7  -5  156.02    9.23
   2  -7   5  159.79    7.07
  -1   7  -5   15.63    3.91
   1  -7   5   15.63    3.50
   0   7  -5  156.69   10.10
   0  -7   5  124.56    6.67
   1   7  -5   27.08    3.57
  -1  -7   5   16.84    2.96
   2   7  -5  170.63    8.29
  -2  -7   5  163.56   11.05
   3   7  -5   11.52    5.19
  -3  -7   5    2.43    3.03
   4   7  -5  145.24    8.76
  -4  -7   5  165.65    8.02
   5   7  -5   31.66    4.65
  -5  -7   5   30.38    4.11
   6   7  -5  196.50    8.76
  -6  -7   5  200.48   11.38
   7   7  -5   16.98    5.59
  -7  -7   5   15.97    3.23
   8   7  -5   74.77    6.06
  -8  -7   5   79.02    6.80
   9   7  -5   16.91    4.24
  -9  -7   5    9.23    4.31
  10   7  -5   75.85    6.00
 -10  -7   5   67.23    9.03
  11   7  -5    7.01    3.77
 -11  -7   5    4.45    4.04
  12   7  -5   51.53    5.59
 -12  -7   5   55.37    8.29
 -15   7  -4   34.42    3.97
  15  -7   4   30.52    3.71
 -14   7  -4    4.24    3.50
  14  -7   4    4.98    3.23
 -13   7  -4   43.99    5.52
  13  -7   4   24.39    6.26
 -12   7  -4    2.36    3.03
  12  -7   4    3.10    3.17
 -11   7  -4   32.87    4.72
  11  -7   4   34.56    4.18
 -10   7  -4    3.30    3.17
  10  -7   4    3.37    2.76
  -9   7  -4   51.67    5.19
   9  -7   4   37.05    6.67
  -8   7  -4    6.40    2.76
   8  -7   4    3.44    2.63
  -7   7  -4  143.01    7.01
   7  -7   4  153.66    7.48
  -6   7  -4    4.85    2.09
   6  -7   4    8.08    2.69
  -5   7  -4  183.43   11.65
   5  -7   4  170.09    7.34
  -4   7  -4    6.47    3.03
   4  -7   4    3.23    3.10
  -3   7  -4  121.26    5.73
   3  -7   4  122.13    5.86
  -2   7  -4   19.87    2.96
   2  -7   4   18.19    2.69
  -1   7  -4  121.26    6.00
   1  -7   4  126.98    6.20
   0   7  -4    0.94    2.09
   0  -7   4    0.34    2.29
   1   7  -4  131.49    6.80
  -1  -7   4  123.21    7.01
   2   7  -4   25.73    3.30
  -2  -7   4   20.21    2.76
   3   7  -4  127.99    6.40
  -3  -7   4  137.76    6.47
   4   7  -4    4.11    3.23
  -4  -7   4    5.05    2.83
   5   7  -4  216.44    9.84
  -5  -7   4  207.89    9.77
   6   7  -4   11.05    3.44
  -6  -7   4    8.15    3.77
   7   7  -4  202.03    9.30
  -7  -7   4  195.90    8.08
   8   7  -4   13.41    3.44
  -8  -7   4    8.69    4.24
   9   7  -4   70.87    8.89
  -9  -7   4   72.15    5.93
  10   7  -4    8.96    5.12
 -10  -7   4    3.71    4.11
  11   7  -4   37.45    4.98
 -11  -7   4   42.51    5.52
  12   7  -4    2.83    5.59
 -12  -7   4    7.68    6.06
  13   7  -4   58.40    5.86
 -13  -7   4   45.47   10.64
 -16   7  -3   25.94    4.51
  16  -7   3   27.96    4.11
 -15   7  -3    1.82    3.77
  15  -7   3    1.08    3.10
 -14   7  -3   47.83    5.73
  14  -7   3   44.46    6.60
 -13   7  -3    1.89    3.10
  13  -7   3    5.12    3.30
 -12   7  -3   24.45    3.97
  12  -7   3   30.04    4.51
 -11   7  -3    5.39    2.90
  11  -7   3   10.37    3.37
 -10   7  -3   33.95    3.77
  10  -7   3   44.86    3.97
  -9   7  -3    6.53    2.96
   9  -7   3   11.45    3.03
  -8   7  -3  127.45    6.26
   8  -7   3  151.43    6.94
  -7   7  -3   -2.16    2.76
   7  -7   3    2.83    2.29
  -6   7  -3  172.18    6.26
   6  -7   3  170.30    7.68
  -5   7  -3    5.73    2.43
   5  -7   3   10.24    2.36
  -4   7  -3  177.84    8.82
   4  -7   3  162.21    7.01
  -3   7  -3    1.08    2.29
   3  -7   3    3.03    2.43
  -2   7  -3  165.51    9.77
   2  -7   3  167.87    7.48
  -1   7  -3   50.66    3.77
   1  -7   3   50.05    3.84
   0   7  -3  197.65    8.82
   0  -7   3  233.21    9.09
   1   7  -3   47.96    4.38
  -1  -7   3   50.46    3.64
   2   7  -3  173.26   10.98
  -2  -7   3  176.22    8.62
   3   7  -3   -1.28    2.90
  -3  -7   3    2.43    2.63
   4   7  -3  226.95    9.50
  -4  -7   3  195.56    8.42
   5   7  -3    7.61    4.72
  -5  -7   3   13.14    3.50
   6   7  -3  238.27   11.12
  -6  -7   3  227.15   13.14
   7   7  -3    3.91    2.83
  -7  -7   3    1.95    3.03
   8   7  -3  180.67    8.42
  -8  -7   3  194.35    8.62
   9   7  -3   12.73    3.64
  -9  -7   3   12.46    4.65
  10   7  -3   44.73    4.85
 -10  -7   3   66.76    8.42
  11   7  -3   11.92    5.93
 -11  -7   3   15.43    3.97
  12   7  -3   47.49    6.13
 -12  -7   3   31.05    5.52
  13   7  -3    3.37    4.38
 -13  -7   3    7.28    4.72
 -16   7  -2    1.68    3.37
  16  -7   2    3.44    3.23
 -15   7  -2   24.66    5.73
  15  -7   2   24.92    4.78
 -14   7  -2    3.97    3.03
  14  -7   2    5.79    2.83
 -13   7  -2   53.55    5.12
  13  -7   2   52.95    4.98
 -12   7  -2    0.74    3.10
  12  -7   2    0.94    2.96
 -11   7  -2   47.15    4.72
  11  -7   2   55.04    5.46
 -10   7  -2   10.44    3.44
  10  -7   2   15.09    3.50
  -9   7  -2   48.17    4.11
   9  -7   2   73.56    4.65
  -8   7  -2   13.81    2.63
   8  -7   2   13.41    2.69
  -7   7  -2  156.08    6.40
   7  -7   2  190.03   12.33
  -6   7  -2   13.54    2.63
   6  -7   2   17.31    2.69
  -5   7  -2  137.63    7.34
   5  -7   2  111.15    6.20
  -4   7  -2   -0.13    2.16
   4  -7   2    1.82    2.16
  -3   7  -2  209.97   10.17
   3  -7   2  183.97    7.61
  -2   7  -2    5.19    2.29
   2  -7   2    5.12    2.56
  -1   7  -2  140.93    7.34
   1  -7   2  178.65   10.17
   0   7  -2   -0.40    2.02
   0  -7   2   -1.35    1.89
   1   7  -2  162.62    7.21
  -1  -7   2  181.82    7.54
   2   7  -2    4.92    2.96
  -2  -7   2    7.21    2.76
   3   7  -2  249.45   10.91
  -3  -7   2  223.65    9.70
   4   7  -2    3.71    3.03
  -4  -7   2    3.77    2.29
   5   7  -2  176.90   11.32
  -5  -7   2  150.96    8.56
   6   7  -2   20.61    4.11
  -6  -7   2   19.94    3.97
   7   7  -2  239.48   14.55
  -7  -7   2  235.24   10.17
   8   7  -2   18.66    3.23
  -8  -7   2   20.68    3.64
   9   7  -2   79.83    5.66
  -9  -7   2   85.62    6.60
  10   7  -2   23.11    4.11
 -10  -7   2   14.42    3.50
  11   7  -2   80.97    6.06
 -11  -7   2   92.15    6.33
  12   7  -2   -0.07    4.92
 -12  -7   2    5.46    5.52
  13   7  -2   84.21   10.85
 -13  -7   2   81.44    9.90
 -15   7  -1    4.18    4.45
  15  -7   1    4.72    2.83
 -14   7  -1   33.55    3.84
  14  -7   1   33.61    3.84
 -13   7  -1    2.49    4.18
  13  -7   1   -0.61    3.44
 -12   7  -1   79.02    5.19
  12  -7   1   90.20    5.93
 -11   7  -1   10.58    3.50
  11  -7   1   13.67    3.03
 -10   7  -1   83.80    5.32
  10  -7   1  102.80    6.80
  -9   7  -1   39.68    3.77
   9  -7   1   44.80    3.64
  -8   7  -1   34.56    2.56
   8  -7   1   34.15    3.57
  -7   7  -1   28.29    3.10
   7  -7   1   35.03    3.17
  -6   7  -1  108.52    5.46
   6  -7   1  102.80    5.39
  -5   7  -1    8.49    2.43
   5  -7   1    9.23    2.22
  -4   7  -1  279.29   10.31
   4  -7   1  279.63   10.71
  -3   7  -1    4.38    2.76
   3  -7   1    6.06    2.83
  -2   7  -1  183.90   11.25
   2  -7   1  176.09    7.75
  -1   7  -1   48.64    3.23
   1  -7   1   48.64    4.38
   0   7  -1  197.71   10.17
   0  -7   1  230.79    8.82
   1   7  -1   59.62    4.38
  -1  -7   1   54.90    5.66
   2   7  -1  227.42    9.43
  -2  -7   1  223.58    8.69
   3   7  -1    4.92    2.56
  -3  -7   1    4.58    2.49
   4   7  -1  375.56   13.67
  -4  -7   1  379.33   19.06
   5   7  -1   13.00    3.50
  -5  -7   1   11.52    4.92
   6   7  -1  174.41   13.00
  -6  -7   1  147.66    7.68
   7   7  -1   38.40    3.64
  -7  -7   1   47.36    4.24
   8   7  -1   50.19    4.38
  -8  -7   1   55.37    4.92
   9   7  -1   67.97    5.39
  -9  -7   1   63.79    5.79
  10   7  -1  143.89    8.29
 -10  -7   1  169.49    8.56
  11   7  -1   13.14    3.84
 -11  -7   1   17.04    3.84
  12   7  -1  180.40    9.23
 -12  -7   1  171.04    9.63
  13   7  -1    1.15    6.26
 -13  -7   1   -4.38    5.39
 -15   7   0   11.38    2.49
  15  -7   0   11.52    2.36
 -14   7   0    1.68    3.10
  14  -7   0    1.41    2.69
 -13   7   0   56.11    4.85
  13  -7   0   69.65    4.98
 -12   7   0   -0.40    2.02
  12  -7   0    0.67    2.16
 -11   7   0   93.30    7.34
  11  -7   0   96.53    5.66
 -10   7   0    0.34    3.71
  10  -7   0    1.95    1.95
  -9   7   0   41.77    3.64
   9  -7   0   55.91    4.18
  -8   7   0   32.60    3.17
   8  -7   0   34.76    2.90
  -7   7   0   -0.61    1.68
   7  -7   0    0.40    1.68
  -6   7   0   50.66    3.23
   6  -7   0   56.65    3.37
  -5   7   0  278.69   15.43
   5  -7   0  288.92   10.85
  -4   7   0    0.94    2.83
   4  -7   0    0.67    3.03
  -3   7   0  158.98    6.40
   3  -7   0  156.55    6.40
  -2   7   0   43.85    2.90
   2  -7   0   42.24    3.30
  -1   7   0   30.25    2.76
   1  -7   0   33.82    3.10
   0   7   0    0.54    1.82
   0  -7   0    0.00    1.82
   1   7   0   38.33    3.30
  -1  -7   0   41.43    3.17
   2   7   0   65.34    3.91
  -2  -7   0   64.06    3.91
   3   7   0  226.21    8.89
  -3  -7   0  221.36   10.98
   4   7   0   -0.34    3.84
  -4  -7   0   -1.28    3.23
   5   7   0  435.58   14.82
  -5  -7   0  411.66   17.78
   6   7   0   87.03    5.25
  -6  -7   0   86.43    5.93
   7   7   0    1.95    2.63
  -7  -7   0    1.15    2.69
   8   7   0   62.11    4.72
  -8  -7   0   62.11    4.92
   9   7   0   83.94    5.66
  -9  -7   0   81.24    7.41
  10   7   0    4.72    3.17
 -10  -7   0    3.64    3.17
  11   7   0  159.52    8.96
 -11  -7   0  167.13    7.88
  12   7   0    0.81    3.44
 -12  -7   0   -1.01    3.71
  13   7   0  143.08    8.82
 -13  -7   0  141.33    8.56
 -14   7   1   24.39    3.30
  14  -7  -1   22.43    3.44
 -13   7   1    1.68    3.44
  13  -7  -1   -0.13    3.91
 -12   7   1   67.63    7.28
  12  -7  -1   74.91    4.72
 -11   7   1    3.10    3.10
  11  -7  -1    7.54    2.02
  10  -7  -1   67.30    4.31
  -9   7   1   29.91    3.03
   9  -7  -1   37.12    3.23
  -8   7   1   26.14    2.96
   8  -7  -1   22.77    3.71
  -7   7   1   29.84    3.17
   7  -7  -1   23.98    2.56
  -6   7   1   90.27    5.93
   6  -7  -1  101.25    7.07
  -5   7   1    8.42    1.89
   5  -7  -1    8.62    1.82
  -4   7   1  240.02    9.57
   4  -7  -1  235.57    9.36
  -3   7   1    3.37    1.95
   3  -7  -1    3.50    1.95
  -2   7   1  155.61    6.33
   2  -7  -1  155.61    7.61
  -1   7   1   35.84    3.17
   1  -7  -1   37.72    3.64
   0   7   1  168.21    7.01
   0  -7  -1  153.86    6.87
   1   7   1   42.30    4.11
  -1  -7  -1   41.50    3.03
   2   7   1  184.91    7.07
  -2  -7  -1  189.63    7.75
   3   7   1    3.23    2.02
  -3  -7  -1    4.78    2.09
   4   7   1  349.49   13.67
  -4  -7  -1  343.02   13.00
   5   7   1   10.44    3.03
  -5  -7  -1    8.62    2.90
   6   7   1  140.93    7.28
  -6  -7  -1  155.61    7.14
   7   7   1   41.77    3.57
  -7  -7  -1   39.48    3.84
   8   7   1   50.32    4.31
  -8  -7  -1   37.66    3.57
   9   7   1   59.08    4.51
  -9  -7  -1   65.21    5.05
  10   7   1  148.40    7.41
 -10  -7  -1  138.70   11.05
  11   7   1   12.87    3.23
 -11  -7  -1   17.51    3.57
  12   7   1  154.60    8.69
 -12  -7  -1  182.76    8.69
  13   7   1   -0.27    4.72
 -13  -7  -1   -0.20    3.91
 -14   7   2    1.89    1.82
  14  -7  -2    1.08    1.82
 -13   7   2   22.43    2.63
  13  -7  -2   28.56    2.76
 -12   7   2    1.21    2.29
  12  -7  -2    1.28    1.68
  11  -7  -2   31.39    3.23
 -10   7   2    6.33    2.02
  10  -7  -2    7.48    2.02
  -9   7   2   41.23    3.50
   9  -7  -2   34.09    2.76
   8  -7  -2    9.84    2.09
  -7   7   2  131.90    7.54
   7  -7  -2  134.12    5.66
  -6   7   2   13.34    1.89
   6  -7  -2   10.98    2.16
  -5   7   2   94.58    4.78
   5  -7  -2  110.95    4.51
  -4   7   2    2.02    1.89
   4  -7  -2    2.16    2.02
  -3   7   2  136.68    5.32
   3  -7  -2  154.13    6.47
  -2   7   2    3.77    1.89
   2  -7  -2    6.13    2.29
  -1   7   2  118.16    5.12
   1  -7  -2   92.29    5.12
   0   7   2   -0.88    1.89
   0  -7  -2   -0.13    2.02
   1   7   2  140.93    8.96
  -1  -7  -2   96.60    5.46
   2   7   2    3.10    2.49
  -2  -7  -2    3.44    2.09
   3   7   2  172.45    7.07
  -3  -7  -2  200.00    8.76
   4   7   2   -0.54    2.49
  -4  -7  -2    3.30    2.49
   5   7   2  123.82    6.40
  -5  -7  -2  153.32    7.95
   6   7   2   19.33    2.90
  -6  -7  -2   19.54    4.38
   7   7   2  208.56    8.89
  -7  -7  -2  209.30   10.37
   8   7   2   17.18    3.57
  -8  -7  -2   16.71    5.93
   9   7   2   86.90    5.52
  -9  -7  -2   72.62    5.93
  10   7   2   15.22    3.77
 -10  -7  -2   23.91    4.45
  11   7   2   81.38    6.13
 -11  -7  -2   87.51    6.00
  12   7   2    3.71    3.50
 -12  -7  -2    4.04    3.91
  13   7   2   72.21    5.39
 -13  -7  -2   89.73   10.31
  13  -7  -3   -0.67    2.43
  12  -7  -3   12.13    1.82
 -11   7   3    2.22    2.29
  11  -7  -3    3.03    1.62
 -10   7   3   22.03    2.43
  10  -7  -3   16.77    2.56
  -9   7   3    5.52    1.35
   9  -7  -3    3.64    1.68
  -8   7   3   88.38    6.00
   8  -7  -3   86.97    3.84
  -7   7   3    0.67    1.41
   7  -7  -3    2.43    1.62
  -6   7   3  115.93    9.57
   6  -7  -3  127.99    5.66
  -5   7   3    8.29    1.68
   5  -7  -3    9.36    3.10
  -4   7   3  109.40    5.46
   4  -7  -3  133.38    5.19
  -3   7   3    1.21    1.48
   3  -7  -3    0.74    1.48
  -2   7   3  112.09    6.53
   2  -7  -3  106.37    6.26
  -1   7   3   33.75    2.43
   1  -7  -3   31.26    2.63
   0   7   3  137.56    5.59
   0  -7  -3  132.77    9.77
   1   7   3   33.01    2.49
  -1  -7  -3   32.13    3.91
   2   7   3  123.01    5.46
  -2  -7  -3  111.22    5.52
   3   7   3    0.47    2.63
  -3  -7  -3   -0.13    1.89
   4   7   3  123.95    6.06
  -4  -7  -3  161.54    8.29
   5   7   3    7.07    2.63
  -5  -7  -3    6.33    2.83
   6   7   3  191.65    7.34
  -6  -7  -3  177.98    8.35
   7   7   3    3.91    2.43
  -7  -7  -3    3.97    2.76
   8   7   3  170.57    9.03
  -8  -7  -3  170.97    8.96
   9   7   3    8.96    4.18
  -9  -7  -3    6.33    3.37
  10   7   3   58.34    5.05
 -10  -7  -3   45.81    5.25
  11   7   3   11.86    4.38
 -11  -7  -3    9.16    3.97
  12   7   3   34.56    4.98
 -12  -7  -3   36.51    6.94
  13   7   3    4.98    4.04
 -13  -7  -3    6.87    4.11
  12  -7  -4    0.27    0.94
  11  -7  -4    7.81    1.08
 -10   7   4    0.34    1.08
  10  -7  -4   -0.34    0.74
  -9   7   4   12.60    2.43
   9  -7  -4   22.50    1.75
   8  -7  -4    4.72    1.41
  -7   7   4   70.26    3.91
   7  -7  -4   79.96    5.52
  -6   7   4    2.69    1.15
   6  -7  -4    3.23    1.82
  -5   7   4   89.93    4.65
   5  -7  -4   97.41    7.28
  -4   7   4    0.88    1.41
   4  -7  -4    1.95    2.22
  -3   7   4   70.19    3.30
   3  -7  -4   78.55    3.84
  -2   7   4   15.49    1.89
   2  -7  -4   12.53    2.36
  -1   7   4   74.98    5.19
   1  -7  -4   85.42    5.59
   0   7   4   -0.47    1.41
   0  -7  -4   -1.62    2.22
   1   7   4   77.06    4.18
  -1  -7  -4   85.62    7.01
   2   7   4   13.81    2.09
  -2  -7  -4   13.27    2.29
   3   7   4   87.57    4.58
  -3  -7  -4   90.40    4.51
   4   7   4    2.29    2.16
  -4  -7  -4    5.59    2.69
   5   7   4  141.73    7.01
  -5  -7  -4  145.84    7.28
   6   7   4    8.15    2.29
  -6  -7  -4    4.38    2.56
   7   7   4  136.75    6.40
  -7  -7  -4  140.12    8.35
   8   7   4    4.11    2.96
  -8  -7  -4    3.03    2.90
   9   7   4   56.59    5.66
  -9  -7  -4   51.26    6.74
  10   7   4    1.21    3.30
 -10  -7  -4    1.62    3.17
  11   7   4   43.79    5.19
 -11  -7  -4   32.20    4.72
  12   7   4    3.37    3.71
 -12  -7  -4    5.39    4.38
  13   7   4   45.94    5.32
 -13  -7  -4   54.30    5.73
  -5   7   5   10.04    1.48
   5  -7  -5   12.73    1.75
  -4   7   5   69.25    5.59
   4  -7  -5   70.19    4.98
  -3   7   5    2.02    1.62
   3  -7  -5    1.75    1.41
  -2   7   5   84.07    3.91
   2  -7  -5   84.54    4.58
  -1   7   5   11.92    1.82
   1  -7  -5   10.37    2.09
   0   7   5   79.29    5.19
   0  -7  -5   97.61    5.93
   1   7   5   10.10    1.62
  -1  -7  -5   10.78    1.82
   2   7   5  105.42    7.07
  -2  -7  -5   97.75    5.79
   3   7   5    2.36    2.09
  -3  -7  -5    3.03    2.29
   4   7   5  102.53    6.87
  -4  -7  -5  101.65    5.86
   5   7   5   16.50    2.56
  -5  -7  -5   21.29    2.96
   6   7   5  149.48    7.54
  -6  -7  -5  155.48   10.91
   7   7   5   11.38    2.90
  -7  -7  -5    6.06    4.04
   8   7   5   61.64    4.58
  -8  -7  -5   62.72    5.12
   9   7   5   13.67    3.57
  -9  -7  -5   11.65    3.71
  10   7   5   48.64    5.05
 -10  -7  -5   49.98    5.12
  11   7   5    9.90    3.57
 -11  -7  -5    6.33    5.66
  12   7   5   47.02    5.52
 -12  -7  -5   44.12    4.92
  13   7   5    3.91    5.86
 -13  -7  -5    3.10    6.00
  -4   7   6    3.23    0.47
  -3   7   6   25.40    2.02
   3  -7  -6   31.73    2.22
  -2   7   6    6.20    1.35
   2  -7  -6    7.14    2.02
  -1   7   6   80.77    4.04
   1  -7  -6   92.76    6.67
   0   7   6    0.27    1.08
   0  -7  -6   -0.47    1.41
   1   7   6   89.66    4.31
  -1  -7  -6  100.31    4.92
   2   7   6    6.67    2.22
  -2  -7  -6    7.68    2.29
   3   7   6   48.17    3.30
  -3  -7  -6   47.56    3.84
   4   7   6   13.74    2.22
  -4  -7  -6   14.35    2.69
   5   7   6  129.07    6.26
  -5  -7  -6  147.12    7.48
   6   7   6    9.84    2.56
  -6  -7  -6    8.15    3.10
   7   7   6   34.02    3.71
  -7  -7  -6   31.32    3.71
   8   7   6   -1.35    3.71
  -8  -7  -6    1.21    3.97
   9   7   6  111.22    6.74
  -9  -7  -6  121.32    7.41
  10   7   6    7.48    3.71
 -10  -7  -6    6.33    4.11
  11   7   6   30.58    4.38
 -11  -7  -6   39.34    4.72
  12   7   6   16.44    4.24
 -12  -7  -6    4.72    8.29
  -2   7   7   36.71    3.30
   2  -7  -7   49.71    3.37
  -1   7   7   16.57    1.68
   1  -7  -7   18.53    2.29
   0   7   7  139.85    6.00
   0  -7  -7  135.67    6.13
   1   7   7   18.73    2.36
   2   7   7   57.39    3.23
  -2  -7  -7   62.99    3.64
   3   7   7   10.78    2.29
  -3  -7  -7    8.76    2.29
   4   7   7   61.64    3.57
  -4  -7  -7   74.91    4.78
   5   7   7   15.70    2.83
  -5  -7  -7   13.61    4.04
   6   7   7   22.43    2.90
  -6  -7  -7   19.13    3.30
   7   7   7   11.38    2.76
  -7  -7  -7   13.88    3.50
   8   7   7   76.80    4.72
  -8  -7  -7   66.42    4.72
   9   7   7   16.50    3.17
  -9  -7  -7    9.23    4.11
  10   7   7   89.66    7.81
 -10  -7  -7   90.87    6.87
  11   7   7   24.79    4.78
 -11  -7  -7   23.98    9.09
  12   7   7   68.64    6.47
 -12  -7  -7   73.70    7.01
  -1   7   8   57.87    3.23
   0   7   8    0.07    1.21
   0  -7  -8   -0.74    2.22
   1   7   8   76.86    3.64
  -1  -7  -8   79.56    6.20
   2   7   8   32.20    2.49
  -2  -7  -8   29.57    2.96
   3   7   8  100.44    5.05
  -3  -7  -8  112.30    5.32
   4   7   8    8.56    1.95
  -4  -7  -8   10.51    3.17
   5   7   8    5.93    2.56
  -5  -7  -8   14.15    3.71
   6   7   8    2.36    2.16
  -6  -7  -8    4.11    3.03
   7   7   8   78.75    5.46
  -7  -7  -8   85.01    5.86
   8   7   8    3.30    2.76
  -8  -7  -8   -3.91    4.72
   9   7   8   66.35    5.32
  -9  -7  -8   69.99    8.35
  10   7   8   10.04    4.11
 -10  -7  -8   13.07    4.58
  11   7   8  119.91    7.95
 -11  -7  -8  127.32    8.69
  -1   7   9    0.47    0.27
   0   7   9   40.82    4.04
   0  -7  -9   55.04    4.58
   1   7   9    1.15    1.48
  -1  -7  -9    1.62    2.49
   2   7   9   57.66    3.71
  -2  -7  -9   62.92    6.94
   3   7   9   12.87    2.22
  -3  -7  -9   12.66    2.96
   4   7   9   16.77    2.36
  -4  -7  -9   24.45    4.04
   5   7   9   31.05    3.10
  -5  -7  -9   39.95    5.46
   6   7   9   14.55    2.83
  -6  -7  -9   19.20    3.97
   7   7   9   11.79    2.56
  -7  -7  -9    9.50    3.30
   8   7   9   67.84    5.66
  -8  -7  -9   70.73    8.62
   9   7   9    2.02    2.83
  -9  -7  -9    2.63    3.23
  10   7   9   79.02    6.00
 -10  -7  -9   78.34    6.33
  11   7   9    3.91    4.11
   0   7  10   -0.61    0.88
   1   7  10   59.42    3.30
  -1  -7 -10   58.00    6.20
   2   7  10    2.90    2.22
  -2  -7 -10    3.23    2.29
   3   7  10    8.69    1.89
  -3  -7 -10    3.91    4.04
   4   7  10    0.61    2.49
  -4  -7 -10   -2.16    4.85
   5   7  10   24.45    2.76
  -5  -7 -10   19.40    2.76
   6   7  10    5.66    2.63
  -6  -7 -10    4.18    3.44
   7   7  10   33.08    3.37
  -7  -7 -10   32.81    4.85
   8   7  10    5.79    2.63
  -8  -7 -10    6.13    6.94
   9   7  10   98.22    6.13
  -9  -7 -10   87.91    7.28
  10   7  10    4.45    3.23
 -10  -7 -10    2.49    4.31
   1   7  11    1.15    0.94
  -1  -7 -11    2.09    2.02
   2   7  11    8.29    1.48
  -2  -7 -11   11.86    2.49
   3   7  11    0.61    1.62
  -3  -7 -11    2.22    3.37
   4   7  11   13.88    2.69
  -4  -7 -11    8.96    3.17
   5   7  11    0.67    2.36
  -5  -7 -11    6.00    2.56
   6   7  11   26.47    3.03
  -6  -7 -11   25.94    4.58
   7   7  11    1.62    2.29
  -7  -7 -11    1.82    4.11
   8   7  11   54.77    4.11
  -8  -7 -11   41.90    4.58
   9   7  11   -0.67    3.50
  -9  -7 -11    1.01    5.32
  10   7  11   17.04    5.05
 -10  -7 -11   21.29    7.48
   2   7  12    0.67    1.75
  -2  -7 -12    1.55    1.75
   3   7  12    9.36    2.36
   4   7  12   -0.40    1.68
  -4  -7 -12    0.13    3.97
   5   7  12   32.40    3.37
  -5  -7 -12   29.10    4.38
   6   7  12    0.88    2.36
  -6  -7 -12   -1.15    4.11
   7   7  12   20.21    3.10
  -7  -7 -12   17.99    4.24
   8   7  12    1.41    3.03
  -8  -7 -12    2.90    4.04
   9   7  12   11.72    3.17
  -9  -7 -12   10.17    3.17
  -3   8 -10   20.75    5.25
   3  -8  10   24.05    5.32
  -2   8 -10   63.66    6.87
   2  -8  10   59.89    6.53
  -1   8 -10   -2.16    4.38
   1  -8  10    0.61    5.93
   0   8 -10   36.38    9.03
   0  -8  10   42.10    6.67
   1   8 -10    2.36    6.60
  -1  -8  10    5.32    5.59
   2   8 -10   69.05    6.40
   3   8 -10   19.54    4.92
  -3  -8  10   23.51    5.05
  -6   8  -9    3.10    4.24
   6  -8   9    5.39    4.58
  -5   8  -9   43.25    6.00
   5  -8   9   38.94    5.19
  -4   8  -9    8.89    4.98
   4  -8   9    8.02    4.72
  -3   8  -9   80.37    6.94
   3  -8   9   70.53    6.13
  -2   8  -9    6.80    4.24
   2  -8   9    5.39    3.84
  -1   8  -9   59.48    5.52
   1  -8   9   64.53    6.47
   0   8  -9    0.94    3.71
   0  -8   9   -1.95    3.71
   1   8  -9   34.42    5.12
  -1  -8   9   73.16    6.13
   2   8  -9    1.82    6.26
  -2  -8   9    2.36    5.46
   3   8  -9   74.24    9.57
  -3  -8   9   78.34    9.23
   4   8  -9    9.57    4.24
  -4  -8   9    0.81    3.91
   5   8  -9   51.47    6.67
  -5  -8   9   40.01    5.59
   6   8  -9    3.91    5.66
  -6  -8   9    4.31    7.34
  -8   8  -8   27.42    3.97
   8  -8   8   37.72    4.65
  -7   8  -8    3.84    4.72
   7  -8   8    4.31    4.24
  -6   8  -8   33.48    5.39
   6  -8   8   36.51    4.78
  -5   8  -8    4.24    4.58
   5  -8   8   -0.88    3.71
  -4   8  -8   72.01    8.08
   4  -8   8   66.76    7.01
  -3   8  -8    4.38    3.97
   3  -8   8    8.29    3.91
  -2   8  -8   65.48    5.52
   2  -8   8   65.81    5.05
  -1   8  -8   13.20    3.77
   1  -8   8   15.22    4.38
   0   8  -8   67.70    5.86
   0  -8   8   83.87    6.13
   1   8  -8   19.60    4.11
  -1  -8   8   14.95    4.04
   2   8  -8   66.02    5.66
  -2  -8   8   72.01    6.00
   3   8  -8    5.05    4.11
  -3  -8   8    1.41    3.50
   4   8  -8   75.92    9.03
  -4  -8   8   67.90    7.54
   5   8  -8    1.28    7.14
  -5  -8   8    0.34    4.45
   6   8  -8   42.91    6.80
  -6  -8   8   46.95    5.05
   7   8  -8    4.18    4.65
  -7  -8   8   16.50    5.66
 -10   8  -7    4.51    4.78
  10  -8   7    9.77    4.51
  -9   8  -7   44.80    5.32
   9  -8   7   52.14    5.59
  -8   8  -7    2.22    3.23
   8  -8   7    3.03    3.84
  -7   8  -7   30.45    6.53
   7  -8   7   42.57    5.19
  -6   8  -7   15.29    4.72
   6  -8   7   14.15    4.11
  -5   8  -7  118.02    8.42
   5  -8   7  112.30    7.01
  -4   8  -7   12.13    4.85
   4  -8   7   12.60    3.30
  -3   8  -7   42.71    5.52
   3  -8   7   36.38    4.78
  -2   8  -7    2.56    4.92
   2  -8   7    0.88    3.17
  -1   8  -7  101.92    7.34
   1  -8   7  134.66    9.90
   0   8  -7   -2.09    3.30
   0  -8   7    1.68    3.37
   1   8  -7  104.89    7.81
  -1  -8   7  122.60    7.81
   2   8  -7    4.65    4.85
  -2  -8   7    0.13    3.30
   3   8  -7   51.06    5.46
  -3  -8   7   46.75    5.46
   4   8  -7   15.90    5.25
  -4  -8   7   12.33    5.32
   5   8  -7  134.59    9.43
  -5  -8   7  135.60   11.92
   6   8  -7   20.28    7.41
  -6  -8   7   14.75    6.13
   7   8  -7   48.84    5.05
  -7  -8   7   26.07    4.98
   8   8  -7   -0.54    4.92
  -8  -8   7   -4.58    5.59
 -11   8  -6   21.49    5.32
  11  -8   6   25.94    4.78
 -10   8  -6   22.36    4.65
  10  -8   6   16.50    4.45
  -9   8  -6   28.56    5.59
   9  -8   6   23.17    4.31
  -8   8  -6   71.20    5.39
   8  -8   6   79.62    5.52
  -7   8  -6    7.41    4.92
   7  -8   6    6.06    4.72
  -6   8  -6   46.68    4.85
   6  -8   6   65.07    5.12
  -5   8  -6    3.23    3.44
   5  -8   6   -1.15    3.30
  -4   8  -6   82.79    6.40
   4  -8   6   94.04    6.40
  -3   8  -6   33.08    4.51
   3  -8   6   33.61    3.91
  -2   8  -6   42.10    4.51
   2  -8   6   41.43    3.97
  -1   8  -6   13.61    4.38
   1  -8   6   10.91    4.65
   0   8  -6  154.26   11.72
   0  -8   6  157.70    7.54
   1   8  -6    7.88    3.84
  -1  -8   6    7.88    4.18
   2   8  -6   42.17    5.46
  -2  -8   6   37.52    3.97
   3   8  -6   41.36    4.45
  -3  -8   6   37.79    5.39
   4   8  -6   93.43    7.01
  -4  -8   6  101.25    7.21
   5   8  -6    0.40    4.24
  -5  -8   6    0.74    3.77
   6   8  -6   69.32    5.59
  -6  -8   6   80.43    6.74
   7   8  -6   12.40    4.38
  -7  -8   6    7.14    5.93
  -8  -8   6  104.89   10.24
   9   8  -6   29.91    5.39
  -9  -8   6   11.52    5.19
 -12   8  -5    7.48    4.24
  12  -8   5    5.59    3.64
 -11   8  -5   55.37    7.68
  11  -8   5   49.51    5.46
 -10   8  -5   10.98    4.38
  10  -8   5   15.49    4.11
  -9   8  -5    7.61    4.98
   9  -8   5    6.67    4.45
  -8   8  -5   41.83    3.71
   8  -8   5   36.44    4.38
  -7   8  -5  137.36    8.35
   7  -8   5  144.90    8.08
  -6   8  -5   -1.82    3.57
   6  -8   5   -0.74    3.77
  -5   8  -5   31.32    5.12
   5  -8   5   49.11    6.06
  -4   8  -5    9.30    2.96
   4  -8   5    7.54    3.17
  -3   8  -5  137.56    7.14
   3  -8   5  141.60    6.80
  -2   8  -5   15.22    3.30
   2  -8   5    8.15    3.30
  -1   8  -5   69.18    5.25
   1  -8   5   56.99    5.05
   0   8  -5   -0.13    3.03
   0  -8   5   -0.61    2.83
   1   8  -5   71.41    5.59
  -1  -8   5   65.95    5.73
   2   8  -5   16.03    5.73
  -2  -8   5   14.48    3.71
   3   8  -5  147.80    7.81
  -3  -8   5  166.12    8.42
   4   8  -5   12.93    4.92
  -4  -8   5    9.03    4.58
   5   8  -5   50.99    5.46
  -5  -8   5   54.03    8.56
   6   8  -5    2.90    3.37
  -6  -8   5   -1.08    3.30
   7   8  -5  169.22    8.29
  -7  -8   5  185.86    8.89
   8   8  -5   52.21    5.66
  -8  -8   5   48.50    5.46
   9   8  -5   18.32    6.53
  -9  -8   5   17.18    6.20
  10   8  -5   15.29    7.68
 -10  -8   5   17.99    5.86
 -13   8  -4    2.76    3.50
  13  -8   4    6.74    3.30
 -12   8  -4   28.16    9.16
  12  -8   4   16.03    4.98
 -11   8  -4    5.32    3.71
  11  -8   4    5.19    3.44
 -10   8  -4   61.71    6.80
  10  -8   4   96.40    6.74
  -9   8  -4   19.40    3.10
   9  -8   4   21.62    3.91
  -8   8  -4   39.74    4.04
   8  -8   4   36.17    4.92
  -7   8  -4   13.74    3.23
   7  -8   4   10.98    3.30
  -6   8  -4  102.93    6.47
   6  -8   4  116.41    6.74
  -5   8  -4    3.30    2.90
   5  -8   4    1.41    2.96
  -4   8  -4   48.97    4.85
   4  -8   4   57.12    5.52
  -3   8  -4   10.51    2.90
   3  -8   4    9.09    2.76
  -2   8  -4  155.41   12.26
   2  -8   4  150.96    7.41
  -1   8  -4   24.05    3.57
   1  -8   4   25.67    4.51
   0   8  -4   44.93    4.38
   0  -8   4   52.01    4.51
   1   8  -4   21.42    3.17
  -1  -8   4   21.02    3.37
   2   8  -4  150.02    7.81
  -2  -8   4  159.59   12.40
   3   8  -4    8.29    3.50
  -3  -8   4    8.89    3.30
   4   8  -4   56.25    4.85
  -4  -8   4   66.08    5.52
   5   8  -4    3.84    3.37
  -5  -8   4    4.85    3.30
   6   8  -4  140.45   10.44
  -6  -8   4  142.48    7.75
   7   8  -4   22.70    4.85
  -7  -8   4   19.33    4.65
   8   8  -4   65.55    6.47
  -8  -8   4   45.81    6.13
   9   8  -4   29.77    5.19
  -9  -8   4   34.15    5.66
 -10  -8   4  119.03   13.41
 -14   8  -3    7.21    3.23
  14  -8   3    5.66    3.37
 -13   8  -3   17.31    4.98
  13  -8   3   19.47    4.72
 -12   8  -3    2.83    3.30
  12  -8   3    3.37    3.50
 -11   8  -3    7.28    6.47
  11  -8   3   10.04    3.17
 -10   8  -3    5.39    2.63
  10  -8   3    6.47    3.03
  -9   8  -3  107.24    7.48
   9  -8   3  110.28    8.89
  -8   8  -3    4.45    3.03
   8  -8   3    7.41    2.83
  -7   8  -3   26.74    3.23
   7  -8   3   36.92    3.57
  -6   8  -3   16.57    5.12
   6  -8   3   15.16    4.04
  -5   8  -3  130.55    7.48
   5  -8   3  109.20    6.87
  -4   8  -3    6.53    3.03
   4  -8   3    9.09    3.37
  -3   8  -3   31.19    3.77
   3  -8   3   36.04    3.77
  -2   8  -3   19.27    3.50
   2  -8   3   19.06    3.30
  -1   8  -3  139.92    7.61
   1  -8   3  138.84    7.07
   0   8  -3    0.88    2.90
   0  -8   3    1.82    4.11
   1   8  -3  143.82    9.23
  -1  -8   3  146.32    6.87
   2   8  -3   22.43    3.37
  -2  -8   3   20.21    3.03
   3   8  -3   39.74    4.18
  -3  -8   3   40.08    4.58
   4   8  -3    5.32    3.03
  -4  -8   3    8.62    3.17
   5   8  -3  142.68    8.29
  -5  -8   3  135.81    7.34
   6   8  -3   24.86    3.91
  -6  -8   3   24.39    3.91
   7   8  -3   38.20    4.51
  -7  -8   3   46.89    4.72
   8   8  -3    8.02    4.04
  -8  -8   3    8.56    4.58
   9   8  -3  180.06   11.45
  -9  -8   3  180.00    9.03
  10   8  -3    6.33    6.26
 -10  -8   3    4.45    4.92
  11   8  -3    2.83    5.79
 -11  -8   3   20.21    4.51
 -14   8  -2   21.69    4.65
  14  -8   2   19.54    2.76
 -13   8  -2    4.85    3.77
  13  -8   2    3.03    2.96
 -12   8  -2   26.54    5.46
  12  -8   2   35.43    5.05
 -11   8  -2    3.03    2.43
  11  -8   2    3.97    2.63
 -10   8  -2   24.99    4.51
  10  -8   2   31.12    5.46
  -9   8  -2   14.01    2.96
   9  -8   2    8.89    3.10
  -8   8  -2   90.07    6.53
   8  -8   2  100.91    6.20
  -7   8  -2    6.00    2.90
   7  -8   2    9.77    2.96
  -6   8  -2   70.46    6.13
   6  -8   2   57.33    4.38
  -5   8  -2    2.63    2.63
   5  -8   2    5.32    2.63
  -4   8  -2   81.24    5.79
   4  -8   2   78.01    5.39
  -3   8  -2    1.28    2.43
   3  -8   2    4.72    3.37
  -2   8  -2   69.18    4.45
   2  -8   2   74.91    6.87
  -1   8  -2    7.75    3.03
   1  -8   2    5.93    2.96
   0   8  -2  160.33    7.41
   0  -8   2  154.40   11.79
   1   8  -2    8.56    3.77
  -1  -8   2    3.91    3.23
   2   8  -2   82.52    4.98
  -2  -8   2   87.64    5.05
   3   8  -2   -1.08    2.56
  -3  -8   2    4.31    3.10
   4   8  -2   97.48    5.79
  -4  -8   2   99.56    5.86
   5   8  -2    5.59    3.10
  -5  -8   2    7.61    2.83
   6   8  -2   94.18    6.13
  -6  -8   2   81.24    5.79
   7   8  -2    8.22    3.57
  -7  -8   2    9.23    3.57
   8   8  -2  155.27    8.56
  -8  -8   2  168.01    7.81
   9   8  -2   15.43    4.04
  -9  -8   2   16.57    4.24
  10   8  -2   36.58    4.92
 -10  -8   2   42.51    5.39
  11   8  -2    8.15    4.38
 -11  -8   2    5.86    5.32
  14  -8   1    2.83    4.72
 -13   8  -1   20.82    2.96
  13  -8   1   25.33    3.71
 -12   8  -1    1.68    2.69
  12  -8   1    4.78    2.76
 -11   8  -1   40.22    4.65
  11  -8   1   57.33    4.98
 -10   8  -1    2.02    2.56
  10  -8   1    1.41    2.43
  -9   8  -1   22.84    3.30
   9  -8   1   27.35    3.23
  -8   8  -1    9.84    4.38
   8  -8   1   10.37    4.72
  -7   8  -1   65.88    5.25
   7  -8   1   57.33    4.85
  -6   8  -1    3.30    3.23
   6  -8   1    3.30    5.66
  -5   8  -1   76.19    5.05
   5  -8   1   66.62    4.45
  -4   8  -1    0.27    2.36
   4  -8   1   -0.74    2.22
  -3   8  -1  123.07    6.26
   3  -8   1  119.37    5.73
  -2   8  -1   18.26    3.10
   2  -8   1   21.62    3.30
  -1   8  -1   44.80    4.24
   1  -8   1   46.95    4.65
   0   8  -1   -0.47    2.96
   0  -8   1   -0.13    2.76
   1   8  -1   46.75    4.38
  -1  -8   1   54.56    4.45
   2   8  -1   21.15    3.37
  -2  -8   1   18.66    3.44
   3   8  -1  147.19    6.74
  -3  -8   1  158.10    7.14
   4   8  -1    1.01    2.63
  -4  -8   1    0.54    2.63
   5   8  -1   94.11    5.59
  -5  -8   1   98.55    5.86
   6   8  -1    1.82    3.03
  -6  -8   1    5.39    3.03
   7   8  -1   84.41    6.20
  -7  -8   1   90.87    6.13
   8   8  -1   20.07    3.84
  -8  -8   1   12.19    3.77
   9   8  -1   38.20    4.58
  -9  -8   1   49.04    4.98
  10   8  -1    1.68    3.71
 -10  -8   1    3.71    3.71
  11   8  -1   94.78    7.21
 -11  -8   1   92.02    7.95
 -13   8   0    0.61    3.03
  13  -8   0    1.62    3.44
 -12   8   0   54.83    8.02
  12  -8   0   47.15    4.38
 -11   8   0    4.51    2.22
  11  -8   0    3.23    2.63
 -10   8   0   38.46    3.50
  10  -8   0   43.92    3.50
  -9   8   0   11.18    2.29
   9  -8   0   13.47    2.63
  -8   8   0    7.54    2.29
   8  -8   0    6.53    2.43
  -7   8   0   -0.34    1.95
   7  -8   0    0.27    1.95
  -6   8   0   71.00    6.33
   6  -8   0   71.74    4.65
  -5   8   0   11.25    2.69
   5  -8   0   11.38    3.03
  -4   8   0  156.89    8.08
   4  -8   0  162.42    7.14
  -3   8   0   30.31    3.50
   3  -8   0   30.38    2.76
  -2   8   0  110.48    5.05
   2  -8   0  117.15    5.79
  -1   8   0   14.62    2.63
   1  -8   0   12.06    2.49
   0   8   0   29.71    3.44
   0  -8   0   20.95    3.17
   1   8   0   12.60    2.69
  -1  -8   0   15.43    2.90
   2   8   0  111.29    5.86
  -2  -8   0  125.50    6.40
   3   8   0   29.44    3.44
  -3  -8   0   32.67    3.84
   4   8   0  197.51    8.76
  -4  -8   0  226.41    9.09
   5   8   0   11.05    3.03
  -5  -8   0   11.65    3.10
   6   8   0  103.47    6.26
  -6  -8   0   97.14    6.06
   7   8   0   -1.68    3.57
  -7  -8   0   -0.47    3.50
   8   8   0   13.88    3.84
  -8  -8   0   13.81    3.64
   9   8   0   21.83    4.45
  -9  -8   0   25.46    4.45
  10   8   0   81.44    6.13
 -10  -8   0   90.81    7.21
  11   8   0   10.10    4.11
 -11  -8   0    3.17    4.04
  12   8   0  100.04   14.62
 -12  -8   0   99.29   11.99
  13  -8  -1   12.93    3.37
 -12   8   1    0.00    3.44
  12  -8  -1    1.89    2.29
 -11   8   1   33.95    3.71
  11  -8  -1   38.53    3.10
 -10   8   1    0.67    1.95
  10  -8  -1    2.09    1.82
  -9   8   1   21.89    3.10
   9  -8  -1   19.67    2.76
  -8   8   1   10.24    2.36
   8  -8  -1    8.49    2.49
  -7   8   1   43.99    3.71
   7  -8  -1   50.79    3.91
  -6   8   1    2.56    2.69
   6  -8  -1    3.57    2.76
  -5   8   1   57.39    3.84
   5  -8  -1   62.92    3.57
  -4   8   1    1.35    2.02
   4  -8  -1    0.67    2.09
  -3   8   1  107.58    5.52
   3  -8  -1  110.88    5.73
  -2   8   1   12.80    2.76
   2  -8  -1   14.95    3.23
  -1   8   1   42.71    3.37
   1  -8  -1   50.86    4.18
   0   8   1   -0.61    1.95
   0  -8  -1   -0.47    2.56
   1   8   1   51.47    4.85
  -1  -8  -1   49.24    4.04
   2   8   1   14.62    3.37
  -2  -8  -1   16.17    3.44
   3   8   1  125.97    8.76
  -3  -8  -1  135.07    7.54
   4   8   1    2.63    3.44
  -4  -8  -1    2.02    5.46
   5   8   1   83.53    5.46
  -5  -8  -1   90.07    9.57
   6   8   1    4.58    3.97
  -6  -8  -1    3.91    4.04
   7   8   1   72.15    5.52
  -7  -8  -1   87.24    5.79
   8   8   1   11.65    3.71
  -8  -8  -1   15.36    3.44
   9   8   1   56.32    5.25
  -9  -8  -1   32.67    6.40
  10   8   1    3.03    3.37
 -10  -8  -1    2.96    3.64
  11   8   1   92.22    7.01
 -11  -8  -1   94.78    8.02
  12   8   1    1.62    4.04
 -12  -8  -1    3.10    4.31
 -12   8   2   18.59    3.03
  12  -8  -2   14.69    3.37
 -11   8   2    1.08    2.16
  11  -8  -2    1.35    2.96
 -10   8   2   14.28    2.09
  10  -8  -2   13.94    2.02
   9  -8  -2    6.40    2.36
  -8   8   2   59.08    5.25
   8  -8  -2   61.23    3.77
  -7   8   2    2.29    2.02
   7  -8  -2    5.25    2.36
  -6   8   2   35.91    2.90
   6  -8  -2   54.03    3.84
  -5   8   2    6.06    2.36
   5  -8  -2    1.62    2.63
  -4   8   2   61.37    3.91
   4  -8  -2   60.76    3.71
  -3   8   2    1.95    2.02
   3  -8  -2    2.43    2.63
  -2   8   2   64.60    4.31
   2  -8  -2   64.27    4.45
  -1   8   2    4.65    2.69
   1  -8  -2    6.94    4.11
   0   8   2  138.77    7.95
   0  -8  -2  134.59    6.20
   1   8   2    7.68    2.56
  -1  -8  -2    5.05    2.49
   2   8   2   68.31    4.38
  -2  -8  -2   70.53    4.45
   3   8   2    0.47    2.22
  -3  -8  -2   -0.88    2.36
   4   8   2   85.62    5.19
  -4  -8  -2   74.84    5.19
   5   8   2    6.06    2.76
  -5  -8  -2    5.59    3.17
   6   8   2   66.08    4.45
  -6  -8  -2   87.24    6.00
   7   8   2   10.58    3.91
  -7  -8  -2    7.54    3.23
   8   8   2  122.13    8.69
  -8  -8  -2  111.56    7.54
   9   8   2   12.93    3.84
  -9  -8  -2   19.27    3.97
  10   8   2   40.76    4.92
 -10  -8  -2   38.60    5.52
  11   8   2    4.72    4.31
 -11  -8  -2    1.08    3.91
  12   8   2   45.81    7.34
 -12  -8  -2   49.71    7.75
 -11   8   3    3.84    1.75
  11  -8  -3    3.57    1.55
 -10   8   3    0.47    2.22
  10  -8  -3    2.29    2.63
  -9   8   3   43.45    3.71
   9  -8  -3   49.65    3.23
  -8   8   3    4.38    2.36
   8  -8  -3    4.98    2.36
  -7   8   3   16.37    2.02
   7  -8  -3   14.82    3.23
  -6   8   3   12.53    2.29
  -5   8   3   63.19    4.18
   5  -8  -3   77.60    4.11
  -4   8   3    4.45    1.62
   4  -8  -3    3.91    1.95
  -3   8   3   21.29    2.09
   3  -8  -3   23.85    2.43
  -2   8   3   19.40    3.44
   2  -8  -3   14.08    2.69
  -1   8   3   91.14    5.19
   1  -8  -3   91.62    5.05
   0   8   3   -1.21    2.16
   0  -8  -3    0.27    2.56
   1   8   3  106.57    5.25
  -1  -8  -3  110.81    5.19
   2   8   3   21.69    3.10
  -2  -8  -3   17.38    3.03
   3   8   3   30.25    3.23
  -3  -8  -3   34.83    3.64
   4   8   3    5.46    2.56
  -4  -8  -3    6.00    2.83
   5   8   3  110.75    6.06
  -5  -8  -3  131.83    8.15
   6   8   3   16.17    3.23
  -6  -8  -3   21.22    3.44
   7   8   3   31.46    4.11
  -7  -8  -3   34.02    5.93
   8   8   3    8.22    3.03
  -8  -8  -3    4.98    3.50
   9   8   3  120.31    7.01
  -9  -8  -3  136.68    8.82
  10   8   3    7.01    3.77
 -10  -8  -3    1.01    4.04
  11   8   3   13.54    4.65
 -11  -8  -3   14.42    4.65
  10  -8  -4   17.78    2.22
  -9   8   4    5.66    1.55
   9  -8  -4    5.12    1.08
  -8   8   4   10.17    1.35
   8  -8  -4   13.67    2.76
  -7   8   4    3.57    1.35
   7  -8  -4    4.78    1.89
  -6   8   4   48.64    2.83
   6  -8  -4   50.25    2.96
  -5   8   4    1.48    1.35
   5  -8  -4    2.22    1.75
  -4   8   4   27.15    2.49
   4  -8  -4   27.48    2.76
  -3   8   4    4.45    1.68
   3  -8  -4    4.58    1.89
  -2   8   4   76.12    5.73
   2  -8  -4   79.49    4.58
  -1   8   4   13.27    2.09
   1  -8  -4   12.46    2.16
   0   8   4   27.55    2.63
   0  -8  -4   29.77    2.83
   1   8   4   13.88    2.96
  -1  -8  -4   14.28    2.90
   2   8   4   98.89    4.98
  -2  -8  -4  113.78    5.79
   3   8   4    7.68    3.44
  -3  -8  -4    7.54    2.83
   4   8   4   44.19    4.45
  -4  -8  -4   46.48    6.67
   5   8   4    3.84    2.90
  -5  -8  -4    3.77    4.24
   6   8   4  101.79    5.86
  -6  -8  -4  109.06    7.21
   7   8   4    7.95    3.17
  -7  -8  -4   14.21    4.31
   8   8   4   44.53    4.18
  -8  -8  -4   50.12    4.98
   9   8   4   24.25    4.04
  -9  -8  -4   17.04    4.78
  10   8   4   94.98    6.67
 -10  -8  -4   86.56    7.61
  11   8   4    4.65    3.84
 -11  -8  -4   10.44    4.51
   6  -8  -5   -0.74    1.21
  -5   8   5   16.91    2.63
   5  -8  -5   15.63    1.68
  -4   8   5    3.37    1.75
   4  -8  -5    2.90    2.02
  -3   8   5   78.28    6.13
   3  -8  -5   57.26    4.85
  -2   8   5    5.05    1.35
   2  -8  -5    4.31    1.55
  -1   8   5   28.23    2.43
   1  -8  -5   36.51    2.76
   0   8   5   -1.15    2.69
   0  -8  -5   -0.13    2.56
   1   8   5   34.29    3.17
  -1  -8  -5   43.79    3.64
   2   8   5    8.62    3.91
  -2  -8  -5    8.08    4.24
   3   8   5   88.52    4.85
  -3  -8  -5  102.06    5.25
   4   8   5    8.89    2.63
  -4  -8  -5    4.38    2.96
   5   8   5   37.93    3.44
  -5  -8  -5   30.72    3.64
   6   8   5    2.02    3.44
  -6  -8  -5    1.08    3.44
   7   8   5  113.98    6.26
  -7  -8  -5  138.84    7.07
   8   8   5   35.16    4.18
  -8  -8  -5   36.98    5.05
   9   8   5   14.01    3.57
  -9  -8  -5   17.25    4.04
  10   8   5   12.06    3.64
 -10  -8  -5    9.23    3.97
  11   8   5   44.39    6.53
 -11  -8  -5   53.35    6.67
  -4   8   6   12.06    1.68
  -3   8   6    9.77    1.82
   3  -8  -6   11.18    2.29
  -2   8   6   16.23    1.48
   2  -8  -6   14.08    1.75
  -1   8   6    5.66    2.36
   1  -8  -6    3.91    3.50
   0   8   6   66.62    5.12
   0  -8  -6   74.98    4.45
   1   8   6    4.18    1.82
  -1  -8  -6    4.98    3.23
   2   8   6   24.39    2.69
  -2  -8  -6   23.58    3.91
   3   8   6   23.85    2.76
  -3  -8  -6   27.01    3.30
   4   8   6   71.41    6.26
  -4  -8  -6   56.52    7.21
   5   8   6   -1.55    2.29
  -5  -8  -6   -1.21    3.97
   6   8   6   42.30    4.98
  -6  -8  -6   44.86    8.15
   7   8   6    7.88    2.69
  -7  -8  -6   11.52    4.18
   8   8   6   62.92    5.12
  -8  -8  -6   67.09    6.00
   9   8   6   22.70    3.71
  -9  -8  -6   29.24    8.08
  10   8   6   10.78    3.64
 -10  -8  -6   20.01    4.78
  11   8   6   23.31    4.18
 -11  -8  -6   18.86    4.78
  -2   8   7   -0.13    0.94
   2  -8  -7    0.47    1.35
  -1   8   7   36.11    2.43
   1  -8  -7   38.26    4.11
   0   8   7   -0.20    1.21
   0  -8  -7   -0.20    3.57
   1   8   7   45.27    3.23
  -1  -8  -7   45.20    4.58
   2   8   7    0.94    1.28
  -2  -8  -7   -0.13    2.36
   3   8   7   20.95    2.96
  -3  -8  -7   21.83    3.71
   4   8   7    7.48    2.22
  -4  -8  -7    4.92    2.76
   5   8   7   80.84    5.19
  -5  -8  -7   76.53    5.19
   6   8   7    5.73    3.17
  -6  -8  -7    7.81    4.72
   7   8   7   36.04    3.84
  -7  -8  -7   33.75    7.61
   8   8   7    1.82    2.83
  -8  -8  -7    3.23    4.18
   9   8   7   51.67    5.39
  -9  -8  -7   51.80    7.61
  10   8   7   11.32    3.57
 -10  -8  -7    4.04    3.84
  -1   8   8    2.69    0.94
   1  -8  -8    2.90    1.95
   0   8   8   30.18    2.49
   0  -8  -8   24.92    3.77
   1   8   8    4.18    1.82
   2   8   8   25.73    2.29
  -2  -8  -8   28.29    3.23
   3   8   8    2.29    2.36
   4   8   8   29.51    2.83
  -4  -8  -8   40.89    4.11
   5   8   8    1.35    2.63
  -5  -8  -8    0.81    2.96
   6   8   8   26.41    3.50
  -6  -8  -8   21.22    5.93
   7   8   8    1.01    2.90
  -7  -8  -8    3.37    3.64
   8   8   8   20.14    3.64
  -8  -8  -8   19.54    7.28
   9   8   8    1.82    3.10
  -9  -8  -8    3.84    3.91
  10   8   8   30.38    5.19
 -10  -8  -8   29.10    6.60
   0   8   9    0.00    0.94
   0  -8  -9    0.61    2.43
   1   8   9   17.38    1.55
  -1  -8  -9   19.27    2.69
   2   8   9    2.16    1.55
  -2  -8  -9    0.54    4.04
   3   8   9   24.99    2.63
  -3  -8  -9   30.79    4.38
   4   8   9    5.25    3.03
  -4  -8  -9    5.73    3.44
   5   8   9   23.11    3.57
  -5  -8  -9   26.20    4.24
   6   8   9    3.44    3.30
  -6  -8  -9    5.73    5.79
   7   8   9   19.06    3.57
  -7  -8  -9   10.37    6.26
   8   8   9    1.28    3.64
  -8  -8  -9    5.12    3.97
   9   8   9   26.88    3.71
  -9  -8  -9   24.39    8.22
   0   8  10    3.84    0.61
   1   8  10   -0.20    1.55
  -1  -8 -10    1.15    2.43
   2   8  10   13.74    1.89
   3   8  10    5.52    2.09
  -3  -8 -10    6.20    2.63
   4   8  10   12.53    2.22
  -4  -8 -10   11.79    4.85
   5   8  10    0.81    2.22
  -5  -8 -10    1.89    5.46
   6   8  10   14.21    3.84
  -6  -8 -10   16.17    5.39
   7   8  10    4.72    3.23
  -7  -8 -10    7.01    5.39
   8   8  10   13.27    3.30
  -8  -8 -10   14.15    3.37
   9   8  10    1.41    5.59
  -3   9  -8   35.97    5.52
   3  -9   8   32.94    5.66
  -2   9  -8   -0.61    5.39
   2  -9   8   -3.03    4.78
  -1   9  -8   24.79    7.75
   1  -9   8   29.10    4.98
   0   9  -8    1.15    6.33
   0  -9   8    3.10    6.47
   1   9  -8   19.94    6.26
  -1  -9   8   22.77    4.98
   2   9  -8   -0.54    4.85
  -2  -9   8    4.51    7.07
  -6   9  -7   52.75    5.93
   6  -9   7   63.32    6.40
  -5   9  -7    1.82    5.05
   5  -9   7    2.43    5.79
  -4   9  -7   39.07    6.20
   4  -9   7   39.34    5.86
  -3   9  -7   -0.88    4.18
   3  -9   7   -1.08    4.24
  -2   9  -7   15.97    4.72
   2  -9   7   24.39    4.51
  -1   9  -7    1.62    4.65
   1  -9   7   -0.47    4.24
   0   9  -7   32.67    4.92
   0  -9   7   38.60    5.12
   1   9  -7    2.83    5.39
  -1  -9   7    0.07    3.84
   2   9  -7   25.87    5.79
  -2  -9   7   19.81    5.32
   3   9  -7    2.83    4.31
  -3  -9   7    0.54    5.12
   4   9  -7   48.30    6.13
  -4  -9   7   44.39    6.06
  -8   9  -6   22.36    4.51
   8  -9   6   20.88    4.38
  -7   9  -6   31.05    7.68
   7  -9   6   31.12    4.98
  -6   9  -6    0.54    4.11
   6  -9   6   -0.07    3.84
  -5   9  -6   65.95    6.00
   5  -9   6   67.70    5.73
  -4   9  -6    3.23    3.91
   4  -9   6    5.39    3.71
  -3   9  -6   38.20    6.20
   3  -9   6   46.75    6.67
  -2   9  -6    9.97    5.66
   2  -9   6   11.05    5.46
  -1   9  -6   33.75    4.85
   1  -9   6   31.80    4.45
   0   9  -6    1.21    3.71
   0  -9   6   -3.03    3.71
   1   9  -6   37.66    4.98
  -1  -9   6   32.67    4.51
   2   9  -6   11.86    4.31
  -2  -9   6   10.98    4.24
   3   9  -6   46.82    5.05
  -3  -9   6   51.33    5.39
   4   9  -6    1.68    3.97
  -4  -9   6   -0.13    5.19
   5   9  -6   84.21    7.41
  -5  -9   6   88.58    7.54
   6   9  -6   -0.13    3.97
  -6  -9   6   -3.77    4.45
 -10   9  -5   41.50    5.79
  10  -9   5   50.32    4.98
  -9   9  -5   11.25    3.57
   9  -9   5    7.21    3.71
  -8   9  -5    5.86    4.31
   8  -9   5    3.50    4.65
  -7   9  -5   15.29    4.38
   7  -9   5   19.60    4.72
  -6   9  -5   27.35    5.05
   6  -9   5   36.11    4.78
  -5   9  -5   -2.36    4.11
   5  -9   5    3.30    3.64
  -4   9  -5   78.01    6.87
   4  -9   5   95.86    7.81
  -3   9  -5    5.59    3.50
   3  -9   5    9.50    3.64
  -2   9  -5   81.51    6.94
   2  -9   5   71.94    5.66
  -1   9  -5    3.84    3.57
   1  -9   5   11.79    4.18
   0   9  -5   -0.40    6.26
   0  -9   5    1.55    4.92
   1   9  -5    3.57    5.52
  -1  -9   5    7.75    6.80
   2   9  -5   82.12    7.81
  -2  -9   5   91.01    9.57
   3   9  -5   -0.20    5.19
  -3  -9   5    8.42    5.73
   4   9  -5  101.65    7.88
  -4  -9   5  135.27    8.56
   5   9  -5    2.49    4.18
  -5  -9   5    3.03    4.72
   6   9  -5   35.97    5.39
  -6  -9   5   38.40    5.52
   7   9  -5   19.20    5.46
  -7  -9   5   18.73    7.54
 -11   9  -4   42.17    4.92
  11  -9   4   31.19    3.64
 -10   9  -4    8.35    3.64
  10  -9   4    8.49    4.45
  -9   9  -4   43.45    4.98
   9  -9   4   46.41    5.05
  -8   9  -4    9.16    3.97
   8  -9   4    9.50    4.04
  -7   9  -4    0.34    4.78
   7  -9   4    3.30    4.24
  -6   9  -4   30.04    4.45
   6  -9   4   28.76    4.31
  -5   9  -4   34.69    5.32
   5  -9   4   45.88    5.12
  -4   9  -4   11.45    4.38
   4  -9   4   11.25    3.77
  -3   9  -4   87.78    6.13
   3  -9   4   86.77    7.41
  -2   9  -4   -1.35    3.37
   2  -9   4   -1.28    5.25
  -1   9  -4   34.22    4.45
   1  -9   4   29.17    4.24
   0   9  -4   -0.27    3.17
   0  -9   4    0.13    3.03
   1   9  -4   42.17    4.51
  -1  -9   4   35.91    4.38
   2   9  -4    3.71    3.71
  -2  -9   4    0.00    4.04
   3   9  -4   99.90    6.67
  -3  -9   4  107.85    8.35
   4   9  -4   15.16    3.64
  -4  -9   4   13.88    3.91
   5   9  -4   39.21    4.51
  -5  -9   4   45.47    5.12
   6   9  -4   38.80    5.05
  -6  -9   4   35.57    4.98
   7   9  -4    7.34    5.05
  -7  -9   4    3.17    4.65
   8   9  -4   15.43    4.45
  -8  -9   4    8.29    3.91
 -12   9  -3    9.77    3.97
  12  -9   3   14.42    3.30
 -11   9  -3    8.69    3.97
  11  -9   3    5.73    3.77
 -10   9  -3   29.71    4.31
  10  -9   3   30.99    4.18
  -9   9  -3    3.77    4.04
   9  -9   3   -0.47    3.77
  -8   9  -3   78.68    6.26
   8  -9   3   72.21    6.20
  -7   9  -3    5.05    3.77
   7  -9   3    5.25    3.44
  -6   9  -3    9.30    3.30
   6  -9   3   17.51    3.64
  -5   9  -3    7.01    3.57
   5  -9   3    9.70    3.84
  -4   9  -3   75.18    5.93
   4  -9   3   75.99    5.79
  -3   9  -3    4.92    3.30
   3  -9   3    4.18    2.96
  -2   9  -3   32.67    3.84
   2  -9   3   42.98    4.24
  -1   9  -3    5.79    3.91
   1  -9   3    4.78    3.64
   0   9  -3  147.66    7.95
   0  -9   3  127.86    6.74
   1   9  -3    4.31    3.50
  -1  -9   3    3.71    3.17
   2   9  -3   33.14    3.97
  -2  -9   3   44.53    4.38
   3   9  -3    3.77    3.30
  -3  -9   3    2.29    3.44
   4   9  -3   88.72    6.20
  -4  -9   3   81.24    5.93
   5   9  -3    9.03    3.44
  -5  -9   3   11.05    3.64
   6   9  -3    7.21    3.84
  -6  -9   3   26.07    5.79
   7   9  -3    7.81    4.11
  -7  -9   3    7.28    5.05
   8   9  -3   98.55    7.21
  -8  -9   3  111.35    8.08
 -12   9  -2    2.36    2.43
  12  -9   2    2.29    2.36
 -11   9  -2   11.38    3.84
  11  -9   2   11.25    3.37
 -10   9  -2    1.15    3.57
  10  -9   2    3.37    4.04
  -9   9  -2   28.09    4.85
   9  -9   2   34.09    5.05
  -8   9  -2   -0.20    2.69
   8  -9   2    3.10    2.56
  -7   9  -2   59.42    5.32
   7  -9   2   66.29    7.28
  -6   9  -2   15.83    3.97
   6  -9   2   21.35    4.04
  -5   9  -2    7.54    3.30
   5  -9   2    3.71    3.30
  -4   9  -2   14.21    3.44
   4  -9   2   16.17    3.77
  -3   9  -2   19.60    3.50
   3  -9   2   28.70    4.04
  -2   9  -2    1.21    3.23
   2  -9   2    3.71    3.37
  -1   9  -2   98.69    5.59
   1  -9   2  106.10    6.20
   0   9  -2    1.89    2.96
   0  -9   2    2.29    3.03
   1   9  -2  100.71    6.47
  -1  -9   2  101.45    6.47
   2   9  -2    1.48    2.83
  -2  -9   2   -0.27    3.37
   3   9  -2   24.12    3.84
  -3  -9   2   30.11    4.11
   4   9  -2   20.14    3.84
  -4  -9   2   17.11    3.91
   5   9  -2    7.28    3.50
  -5  -9   2    9.23    4.85
   6   9  -2   23.11    7.54
  -6  -9   2   25.26    4.72
   7   9  -2  103.74    8.96
  -7  -9   2   97.68    7.01
   8   9  -2   -2.29    4.31
  -8  -9   2   -0.81    4.85
   9   9  -2   53.96    5.93
  -9  -9   2   59.95    6.26
 -11   9  -1    0.81    2.56
  11  -9   1   -0.34    2.90
 -10   9  -1   15.16    2.76
  10  -9   1   17.85    2.69
  -9   9  -1    0.67    3.03
   9  -9   1   -0.07    3.03
  -8   9  -1   34.29    4.78
   8  -9   1   30.65    4.78
  -7   9  -1    2.02    3.64
   7  -9   1    0.27    2.76
  -6   9  -1   71.88    6.47
   6  -9   1   76.66    5.93
  -5   9  -1    5.73    2.96
   5  -9   1    6.53    3.30
  -4   9  -1    8.15    3.57
   4  -9   1   15.09    4.04
  -3   9  -1   15.76    2.83
   3  -9   1   15.29    3.17
  -2   9  -1   65.61    4.38
   2  -9   1   64.33    4.65
  -1   9  -1    0.81    2.63
   1  -9   1    0.94    3.17
   0   9  -1   77.74    5.19
   0  -9   1   74.98    4.98
   1   9  -1    1.41    2.83
  -1  -9   1   -2.36    3.37
   2   9  -1   69.59    5.52
  -2  -9   1   75.38    5.32
   3   9  -1   17.38    3.77
  -3  -9   1   20.88    4.24
   4   9  -1   17.45    4.04
  -4  -9   1   14.75    4.31
   5   9  -1    6.60    4.11
  -5  -9   1   12.73    4.31
   6   9  -1  113.04    8.49
  -6  -9   1  101.25    6.74
   7   9  -1    2.29    4.18
  -7  -9   1    5.25    4.65
   8   9  -1   54.09    6.87
  -8  -9   1   42.30    9.90
   9   9  -1    0.20    4.72
  -9  -9   1    3.84    5.05
 -11   9   0    4.85    1.68
  11  -9   0    5.32    2.29
 -10   9   0    0.27    2.29
  10  -9   0   -1.01    2.16
  -9   9   0   11.25    3.30
   9  -9   0   18.66    2.83
  -8   9   0   -0.13    2.49
   8  -9   0   -0.40    2.69
  -7   9   0   24.05    3.50
   7  -9   0   28.90    3.17
  -6   9   0    0.94    2.22
   6  -9   0    1.82    2.56
  -5   9   0   52.48    4.11
   5  -9   0   58.61    4.51
  -4   9   0   -0.67    3.97
   4  -9   0    2.43    4.45
  -3   9   0   11.92    3.57
   3  -9   0   19.47    4.04
  -2   9   0   -1.95    2.69
   2  -9   0    2.76    3.17
  -1   9   0   59.01    4.65
   1  -9   0   59.89    4.45
   0   9   0    0.54    2.36
   0  -9   0    3.77    2.83
   1   9   0   58.20    4.24
  -1  -9   0   68.85    5.19
   2   9   0    3.23    2.90
  -2  -9   0    1.68    2.90
   3   9   0   16.30    3.64
  -3  -9   0   16.71    3.71
   4   9   0   -0.67    3.03
  -4  -9   0    1.48    3.30
   5   9   0   65.07    5.05
  -5  -9   0   73.83    5.73
   6   9   0    3.71    4.92
  -6  -9   0    4.24    3.71
   7   9   0   40.89    6.67
  -7  -9   0   44.06    8.82
   8   9   0    3.50    4.45
  -8  -9   0    1.48    4.98
   9   9   0   31.05    4.58
  -9  -9   0   26.14    4.92
 -10   9   1    8.69    2.09
  10  -9  -1   13.34    2.56
  -9   9   1    0.61    2.56
   9  -9  -1    0.94    2.56
  -8   9   1   21.02    2.90
   8  -9  -1   22.84    2.63
  -7   9   1    0.34    1.75
   7  -9  -1    0.88    2.49
   6  -9  -1   58.00    4.85
  -5   9   1    6.00    2.90
   5  -9  -1    1.41    3.37
  -4   9   1   12.53    3.17
   4  -9  -1   11.59    3.10
  -3   9   1   13.00    3.17
   3  -9  -1   16.71    3.10
  -2   9   1   56.45    4.11
   2  -9  -1   62.45    4.38
  -1   9   1   -0.13    2.36
   1  -9  -1    1.55    2.63
   0   9   1   62.31    6.94
   0  -9  -1   76.46    6.60
   1   9   1    2.43    3.50
  -1  -9  -1   -3.44    3.44
   2   9   1   66.49    5.39
  -2  -9  -1   73.16    5.93
   3   9   1   15.97    3.50
  -3  -9  -1   17.04    3.44
   4   9   1   17.25    3.37
  -4  -9  -1   13.07    3.37
   5   9   1    6.60    3.37
  -5  -9  -1    3.10    3.37
   6   9   1   83.87    5.93
  -6  -9  -1   80.77    8.96
   7   9   1    0.13    3.84
  -7  -9  -1    8.49    5.25
   8   9   1   35.84    5.39
  -8  -9  -1   39.88    5.66
   9   9   1    6.06    5.73
  -9  -9  -1    2.16    4.58
  10   9   1   23.71    6.20
  10  -9  -2   -1.08    3.30
  -9   9   2   13.14    3.57
   9  -9  -2   16.30    2.83
  -8   9   2   -0.27    2.36
   8  -9  -2    0.61    3.37
  -7   9   2   27.35    2.83
   7  -9  -2   36.44    3.23
  -6   9   2   10.98    3.91
   6  -9  -2   10.24    4.18
  -5   9   2    2.29    2.09
   5  -9  -2    0.13    2.29
  -4   9   2   12.40    2.49
   4  -9  -2   13.00    2.76
  -3   9   2   19.94    2.43
   3  -9  -2   20.41    2.96
  -2   9   2    0.81    3.17
   2  -9  -2   -0.47    2.49
  -1   9   2   75.18    6.33
   1  -9  -2   75.11    5.52
   0   9   2   -0.54    2.36
   0  -9  -2   -1.35    2.90
   1   9   2   78.61    5.19
  -1  -9  -2   90.74    6.13
   2   9   2    0.13    2.63
  -2  -9  -2    1.62    3.17
   3   9   2   31.32    3.64
  -3  -9  -2   22.84    3.64
   4   9   2   18.93    5.19
  -4  -9  -2   15.70    4.51
   5   9   2    9.03    6.47
  -5  -9  -2    9.63    6.53
   6   9   2   19.94    3.71
  -6  -9  -2   17.92    4.11
   7   9   2   68.78    5.46
  -7  -9  -2   83.40    6.20
   8   9   2    3.71    4.24
  -8  -9  -2    1.95    4.72
   9   9   2   44.33    6.06
  -9  -9  -2   45.61    6.40
  10   9   2    1.62    8.56
   9  -9  -3   -0.34    1.62
  -8   9   3   19.54    2.22
   8  -9  -3   24.86    2.90
  -7   9   3    0.88    2.83
   7  -9  -3    1.68    2.09
  -6   9   3    5.25    2.16
   6  -9  -3    6.00    2.49
  -5   9   3    4.11    1.82
   5  -9  -3    4.18    1.75
  -4   9   3   38.87    4.92
   4  -9  -3   43.85    5.52
  -3   9   3    3.23    2.22
   3  -9  -3    1.21    2.09
  -2   9   3   25.26    2.43
   2  -9  -3   23.11    3.17
  -1   9   3    5.05    2.96
   1  -9  -3    5.32    3.37
   0   9   3  102.19    5.25
   0  -9  -3  112.77    5.59
   1   9   3    2.96    2.22
  -1  -9  -3    2.96    2.63
   2   9   3   33.14    5.66
  -2  -9  -3   26.00    4.04
   3   9   3    3.30    2.69
  -3  -9  -3    1.62    3.57
   4   9   3   58.07    4.45
  -4  -9  -3   75.65    6.13
   5   9   3    7.81    3.17
  -5  -9  -3    7.68    3.64
   6   9   3   16.98    4.65
  -6  -9  -3   10.85    4.11
   7   9   3    4.04    3.97
  -7  -9  -3    8.69    4.24
   8   9   3   96.94    6.94
  -8  -9  -3   88.85    6.40
   9   9   3   -2.43    3.64
  -9  -9  -3    3.50    4.18
  10   9   3   21.49    6.13
   8  -9  -4    2.36    1.35
  -7   9   4    0.40    1.55
   7  -9  -4    1.28    1.55
  -6   9   4    7.88    1.68
   6  -9  -4    9.36    1.55
  -5   9   4   14.01    2.02
   5  -9  -4   12.13    2.63
  -4   9   4    2.96    2.83
   4  -9  -4    7.81    3.23
  -3   9   4   39.27    3.57
   3  -9  -4   43.58    3.84
  -2   9   4    0.67    1.95
   2  -9  -4    3.91    2.36
  -1   9   4   17.51    2.16
   1  -9  -4   20.55    2.83
   0   9   4    1.35    2.16
   0  -9  -4    0.54    3.17
   1   9   4   24.72    2.69
  -1  -9  -4   23.58    3.03
   2   9   4    0.74    2.96
  -2  -9  -4    1.08    2.96
   3   9   4   72.28    5.05
  -3  -9  -4   73.70    5.19
   4   9   4    3.57    4.98
  -4  -9  -4    7.41    5.12
   5   9   4   24.99    4.85
  -5  -9  -4   25.87    5.93
   6   9   4   27.55    3.77
  -6  -9  -4   24.99    4.24
   7   9   4    1.75    2.96
  -7  -9  -4    1.62    3.64
   8   9   4   12.40    4.11
  -8  -9  -4    7.28    3.97
   9   9   4   48.50    5.25
  -9  -9  -4   61.71    6.06
  -6   9   5    2.63    1.35
   6  -9  -5    6.20    2.09
  -5   9   5   -0.07    1.35
   5  -9  -5   -0.27    2.16
  -4   9   5   26.68    2.83
   4  -9  -5   31.59    2.96
  -3   9   5    2.09    1.82
   3  -9  -5    2.43    2.29
  -2   9   5   33.21    3.84
   2  -9  -5   41.77    3.71
  -1   9   5    5.79    1.68
   1  -9  -5    5.46    2.49
   0   9   5    2.56    1.82
   0  -9  -5    2.63    2.69
   1   9   5    5.39    2.29
  -1  -9  -5    6.26    3.50
   2   9   5   47.15    3.50
  -2  -9  -5   61.64    3.97
   3   9   5    3.03    3.03
  -3  -9  -5    4.92    3.23
   4   9   5   62.45    4.38
  -4  -9  -5   63.46    5.25
   5   9   5    1.62    2.56
  -5  -9  -5    2.09    3.03
   6   9   5   30.18    3.84
  -6  -9  -5   32.47    4.65
   7   9   5   12.19    3.84
  -7  -9  -5    9.30    4.65
   8   9   5    6.20    3.50
  -8  -9  -5    9.70    4.04
   9   9   5    5.05    4.98
  -4   9   6    0.07    1.01
  -3   9   6    9.30    1.41
  -2   9   6    4.04    1.68
   2  -9  -6    4.11    2.22
  -1   9   6   11.86    2.16
   1  -9  -6   11.05    2.09
   0   9   6   -0.40    1.55
   0  -9  -6    0.88    2.43
   1   9   6   13.20    1.95
  -1  -9  -6   16.71    2.83
   2   9   6    4.78    2.22
  -2  -9  -6    6.94    2.69
   3   9   6   25.46    3.50
  -3  -9  -6   24.66    5.79
   4   9   6    0.81    2.43
  -4  -9  -6   -2.29    2.96
   5   9   6   49.45    3.97
  -5  -9  -6   52.68    4.65
   6   9   6    1.82    3.03
  -6  -9  -6    1.28    3.97
   7   9   6   20.21    3.64
  -7  -9  -6   21.62    4.18
   8   9   6   19.06    4.78
  -8  -9  -6   17.58    7.54
   9   9   6   13.61    4.45
  -9  -9  -6   19.00    4.31
  -2   9   7    2.02    1.41
   2  -9  -7    3.71    2.29
  -1   9   7    0.67    1.41
   1  -9  -7    1.35    2.09
   0   9   7    8.96    2.02
   1   9   7    0.54    1.62
  -1  -9  -7    0.67    2.09
   2   9   7    8.29    2.09
  -2  -9  -7    6.53    2.83
   3   9   7   -0.94    1.89
  -3  -9  -7    1.28    2.90
   4   9   7   21.35    2.90
  -4  -9  -7   25.26    3.64
   5   9   7    0.20    2.83
  -5  -9  -7    1.95    3.37
   6   9   7   39.95    7.48
  -6  -9  -7   44.19    8.49
   7   9   7    2.29    2.96
  -7  -9  -7    2.02    4.18
   8   9   7    4.24    2.63
  -8  -9  -7   13.94    3.84
   9   9   7    3.97    3.71
  -9  -9  -7    6.20    7.81
  -1   9   8    3.03    0.94
   1  -9  -8    4.11    2.76
   0   9   8    1.01    1.28
   1   9   8    6.20    2.09
   2   9   8    0.54    1.62
  -2  -9  -8    0.20    2.43
   3   9   8   27.55    4.11
   4   9   8   -0.40    2.09
  -4  -9  -8    0.34    2.83
   5   9   8   21.35    3.84
  -5  -9  -8   20.34    3.84
   6   9   8   -1.35    3.97
  -6  -9  -8    0.94    3.64
   7   9   8   31.53    4.65
  -7  -9  -8   22.84    5.32
   8   9   8    1.28    4.18
  -8  -9  -8    3.23    3.64
   3   9   9    0.88    1.95
  -3  -9  -9    1.15    2.22
   4   9   9    8.82    2.43
   5   9   9    2.16    3.23
   6   9   9   15.16    3.77
  -6  10  -5    4.18    6.74
  -5  10  -5   19.81    8.69
   5 -10   5   20.82    4.45
  -4  10  -5    1.01    5.19
   4 -10   5    2.69    3.64
  -3  10  -5   26.54    4.58
   3 -10   5   19.67    4.11
  -2  10  -5    2.22    5.73
   2 -10   5   -3.91    6.13
  -1  10  -5   20.21    5.25
   1 -10   5   21.22    5.79
   0  10  -5    1.68    4.38
   0 -10   5   -1.48    6.26
   1  10  -5   22.57    4.11
  -1 -10   5   21.96    4.72
   2  10  -5    0.40    5.05
  -2 -10   5   -2.29    5.86
  -8  10  -4    4.65    3.57
   8 -10   4   11.86    3.57
  -7  10  -4    2.76    4.04
   7 -10   4    0.20    4.38
  -6  10  -4    3.23    3.23
   6 -10   4    4.92    3.64
  -5  10  -4    1.28    2.36
   5 -10   4    0.47    3.57
  -4  10  -4   23.78    4.85
   4 -10   4   17.85    5.86
  -3  10  -4    2.83    7.01
   3 -10   4    0.13    3.84
  -2  10  -4   38.40    4.78
   2 -10   4   41.50    4.78
  -1  10  -4   -1.35    3.84
   1 -10   4    1.55    3.84
   0  10  -4   25.26    6.53
   0 -10   4   21.22    4.45
   1  10  -4   -0.07    4.72
  -1 -10   4    6.06    4.92
   2  10  -4   39.27    5.79
  -2 -10   4   40.62    6.00
   3  10  -4    0.34    3.71
  -3 -10   4    3.10    4.65
   4  10  -4   14.89    4.85
  -4 -10   4   14.75    5.73
  -9  10  -3   15.22    3.10
   9 -10   3   18.59    3.97
  -8  10  -3    1.28    2.96
   8 -10   3    0.20    3.23
  -7  10  -3   14.08    3.30
   7 -10   3   14.82    3.64
  -6  10  -3    3.71    2.96
   6 -10   3    9.77    3.57
  -5  10  -3    1.95    4.51
   5 -10   3    3.50    4.51
  -4  10  -3    3.97    4.78
   4 -10   3    6.74    4.98
  -3  10  -3   21.02    3.97
   3 -10   3   23.71    3.97
  -2  10  -3    8.49    3.44
   2 -10   3    4.24    3.77
  -1  10  -3   52.81    9.30
   1 -10   3   52.68    6.26
   0  10  -3   -1.15    4.18
   0 -10   3   -0.40    5.05
   1  10  -3   45.27    4.78
  -1 -10   3   42.44    4.85
   2  10  -3    9.50    3.64
  -2 -10   3    9.97    4.45
   3  10  -3   24.45    4.31
  -3 -10   3   19.33    4.92
   4  10  -3    1.15    3.97
  -4 -10   3    0.07    4.31
   5  10  -3    0.88    3.91
  -5 -10   3    1.15    4.51
  -9  10  -2    0.74    2.63
   9 -10   2    2.09    2.76
  -8  10  -2   16.98    4.72
   8 -10   2   17.31    6.47
  -7  10  -2    2.63    2.69
   7 -10   2    3.64    3.10
  -6  10  -2   26.54    4.31
   6 -10   2   26.74    3.84
  -5  10  -2   10.64    3.57
   5 -10   2   11.92    4.85
  -4  10  -2   17.99    3.71
   4 -10   2   24.05    3.97
  -3  10  -2   14.55    3.57
   3 -10   2   15.29    3.77
  -2  10  -2   45.74    7.75
   2 -10   2   39.21    6.26
  -1  10  -2   21.56    4.51
   1 -10   2   26.68    4.72
   0  10  -2   44.19    5.19
   0 -10   2   52.41    4.85
   1  10  -2   32.67    4.31
  -1 -10   2   29.57    4.72
   2  10  -2   41.09    5.39
  -2 -10   2   44.46    5.46
   3  10  -2   17.72    4.85
  -3 -10   2   19.87    5.12
   4  10  -2   17.85    4.24
  -4 -10   2   29.37    5.73
   5  10  -2   21.69    5.05
  -5 -10   2   17.85    4.85
   6  10  -2   40.62    7.41
  -6 -10   2   29.10    7.28
  -9  10  -1    2.63    2.63
   9 -10   1    6.53    2.69
  -8  10  -1    0.61    3.71
   8 -10   1    1.89    3.64
  -7  10  -1   16.10    3.44
   7 -10   1   18.46    3.10
  -6  10  -1    1.01    3.50
   6 -10   1    3.37    3.77
  -5  10  -1   24.12    3.91
   5 -10   1   27.55    4.45
  -4  10  -1    7.88    3.10
   4 -10   1    3.37    3.37
  -3  10  -1   17.72    5.19
   3 -10   1   24.99    4.04
  -2  10  -1   15.36    3.50
   2 -10   1   15.36    3.50
  -1  10  -1   30.31    4.38
   1 -10   1   23.51    4.45
   0  10  -1    1.95    4.65
   0 -10   1    0.20    4.24
   1  10  -1   32.60    3.84
  -1 -10   1   30.72    4.92
   2  10  -1   16.23    3.64
  -2 -10   1   21.22    4.31
   3  10  -1   23.31    3.84
  -3 -10   1   26.34    4.65
   4  10  -1    4.85    5.39
  -4 -10   1    7.48    4.04
   5  10  -1   35.70    5.05
  -5 -10   1   33.61    6.00
   6  10  -1    3.71    6.33
  -6 -10   1   -2.09    6.33
  -8  10   0   12.66    2.96
   8 -10   0   12.87    3.37
  -7  10   0   -0.20    4.58
   7 -10   0   -1.21    4.04
  -6  10   0   13.54    3.23
   6 -10   0   14.82    3.37
  -5  10   0    7.68    2.69
   5 -10   0    7.34    3.03
  -4  10   0   50.19    4.65
   4 -10   0   61.98    4.85
  -3  10   0   29.37    4.58
   3 -10   0   25.80    3.84
  -2  10   0    2.49    2.96
   2 -10   0    5.46    3.30
  -1  10   0   15.56    4.04
   1 -10   0   21.83    3.91
   0  10   0   39.41    5.32
   0 -10   0   40.42    4.98
   1  10   0   14.55    3.97
  -1 -10   0   18.19    4.11
   2  10   0    5.19    3.37
  -2 -10   0   10.04    4.24
   3  10   0   26.74    4.72
  -3 -10   0   41.56    5.73
   4  10   0   77.20    6.47
  -4 -10   0   76.32    7.48
   5  10   0   11.45    7.48
  -5 -10   0   13.54    6.40
   6  10   0   23.17    5.05
  -6 -10   0   20.14    5.19
   7  10   0   -0.94    5.79
  -7 -10   0    0.27    6.06
  -7  10   1   11.92    3.77
   7 -10  -1    9.43    3.30
  -6  10   1   -0.61    2.43
   6 -10  -1   -1.21    2.63
  -5  10   1   19.27    3.57
   5 -10  -1   19.94    3.71
  -4  10   1    3.64    2.83
   4 -10  -1    3.64    3.97
  -3  10   1   19.47    3.44
   3 -10  -1   13.61    3.44
  -2  10   1   12.80    3.50
   2 -10  -1   16.77    4.04
  -1  10   1   19.47    3.97
   1 -10  -1   30.65    4.31
   0  10   1    0.74    2.76
   0 -10  -1    1.28    3.10
   1  10   1   24.18    6.40
  -1 -10  -1   30.31    4.98
   2  10   1   20.41    3.84
  -2 -10  -1   24.52    4.72
   3  10   1   15.90    3.71
  -3 -10  -1   23.11    4.38
   4  10   1    6.80    3.71
  -4 -10  -1    5.93    3.97
   5  10   1   25.60    4.11
  -5 -10  -1   27.28    4.58
   6  10   1    2.69    4.18
  -6 -10  -1    3.10    4.51
   7  10   1   30.99    5.39
  -7 -10  -1   28.23    5.52
  -6  10   2   12.06    2.09
   6 -10  -2   12.26    2.16
  -5  10   2    9.23    2.22
   5 -10  -2    7.54    2.63
  -4  10   2    9.09    2.29
   4 -10  -2    5.59    2.76
  -3  10   2   12.66    3.50
   3 -10  -2   12.19    3.57
  -2  10   2   23.24    3.44
   2 -10  -2   27.08    3.44
  -1  10   2   19.13    2.90
   1 -10  -2   18.26    3.44
   0  10   2   29.91    4.45
   0 -10  -2   43.11    5.05
   1  10   2   17.04    4.51
  -1 -10  -2   24.86    3.84
   2  10   2   31.93    3.64
  -2 -10  -2   34.96    4.11
   3  10   2   13.27    6.47
  -3 -10  -2   17.11    5.19
   4  10   2   27.08    5.12
  -4 -10  -2   17.51    4.51
   5  10   2    8.96    4.31
  -5 -10  -2   19.06    5.12
   6  10   2   31.86    4.38
  -6 -10  -2   37.66    7.48
   7  10   2   10.85    4.78
  -7 -10  -2   10.91    4.85
  -5  10   3    1.82    2.49
   5 -10  -3    2.69    2.16
  -4  10   3    1.08    2.49
   4 -10  -3   -0.94    3.03
  -3  10   3   10.37    3.97
   3 -10  -3   13.41    2.49
  -2  10   3    3.03    2.69
   2 -10  -3    2.90    2.63
  -1  10   3   24.66    3.03
   1 -10  -3   25.73    3.71
   0  10   3    2.16    3.57
   0 -10  -3   -3.57    3.97
   1  10   3   26.61    3.50
  -1 -10  -3   38.73    4.11
   2  10   3    5.73    4.04
  -2 -10  -3    9.16    4.51
   3  10   3   18.05    3.37
  -3 -10  -3   23.11    4.04
   4  10   3    1.15    3.37
  -4 -10  -3   -0.07    3.64
   5  10   3   -0.20    3.77
  -5 -10  -3    2.16    4.45
   6  10   3   12.73    3.97
  -6 -10  -3    6.00    3.57
   7  10   3    3.64    4.11
  -7 -10  -3   10.98    6.13
  -4  10   4    4.85    1.82
   4 -10  -4    6.33    1.82
  -3  10   4    0.94    1.82
   3 -10  -4    0.67    2.69
  -2  10   4   19.13    4.31
   2 -10  -4   19.47    3.50
  -1  10   4    0.40    2.36
   1 -10  -4   -0.74    3.37
   0  10   4   13.47    3.71
   0 -10  -4   13.34    4.04
   1  10   4    1.01    2.56
  -1 -10  -4   -0.67    2.83
   2  10   4   38.26    4.78
  -2 -10  -4   27.82    5.93
   3  10   4   -0.07    2.83
  -3 -10  -4   -1.21    3.30
   4  10   4   14.35    3.77
  -4 -10  -4   17.85    4.18
   5  10   4    0.07    2.43
  -5 -10  -4    0.67    3.03
   6  10   4    3.50    3.57
  -6 -10  -4    2.36    3.37
   7  10   4    1.01    4.31
  -7 -10  -4    1.15    2.22
   3 -10  -5    6.40    3.97
  -2  10   5    0.47    3.30
  -1  10   5   12.80    4.98
   1 -10  -5   14.35    4.98
   0  10   5   -0.67    1.75
   0 -10  -5   -0.20    2.90
   1  10   5   11.65    2.02
  -1 -10  -5   12.93    2.76
   2  10   5   -1.21    2.49
  -2 -10  -5    3.77    3.17
   3  10   5   15.16    2.43
  -3 -10  -5   21.22    3.23
   4  10   5    2.90    2.49
  -4 -10  -5   -1.55    3.50
   5  10   5    6.87    6.80
  -5 -10  -5    9.70    4.38
   6  10   5    0.47    3.30
  -6 -10  -5    1.21    4.31
   7  10   5    5.93    4.04
  -7 -10  -5    1.68    3.37
   0  10   6    5.79    2.22
   0 -10  -6    9.03    2.96
   1  10   6    1.75    2.36
  -1 -10  -6    2.22    2.43
   2  10   6    4.51    4.65
  -2 -10  -6    7.28    4.04
   3  10   6    1.89    2.36
  -3 -10  -6    2.69    2.96
   4  10   6   13.41    3.77
  -4 -10  -6   14.42    4.04
   5  10   6    3.03    3.37
  -5 -10  -6    1.68    5.79
   6  10   6   13.47    5.79
  -6 -10  -6   16.37    8.82
   7  10   6    2.02    3.03
  -7 -10  -6    2.36    3.37
  -5 -10  -7    4.85    4.31
  -4  11  -2    1.41    4.78
   4 -11   2    1.95    5.66
  -3  11  -2    3.50    4.72
   3 -11   2    9.50    3.57
  -2  11  -2    0.00    3.97
   2 -11   2   -1.89    4.38
  -1  11  -2   12.13    4.98
   1 -11   2   14.35    3.17
   0  11  -2    0.74    3.37
   0 -11   2    0.27    5.73
  -4  11  -1   14.95    3.91
   4 -11   1   13.94    3.44
  -3  11  -1    2.09    3.17
   3 -11   1   -1.01    3.64
  -2  11  -1    9.09    3.30
   2 -11   1   17.38    3.77
  -1  11  -1    8.89    3.44
   1 -11   1    8.49    3.57
   0  11  -1   28.36    5.46
   0 -11   1   18.73    5.05
   1  11  -1    0.34    4.85
  -1 -11   1    6.06    4.92
   2  11  -1   15.09    5.79
  -4  11   0    0.27    3.03
   4 -11   0    0.07    4.04
  -3  11   0   15.97    3.44
   3 -11   0   18.79    3.91
  -2  11   0   16.64    3.77
   2 -11   0    7.41    3.91
  -1  11   0    2.63    3.64
   1 -11   0    1.01    3.17
   0  11   0   -1.21    3.84
   0 -11   0   -1.89    3.50
   1  11   0    0.54    4.31
  -1 -11   0    3.03    4.38
   2  11   0   16.98    4.31
  -2 -11   0   13.27    2.83
   3  11   0   12.40    4.85
  -3  11   1    2.83    3.10
   3 -11  -1   -0.34    3.37
  -2  11   1   12.73    2.76
   2 -11  -1   13.81    2.96
  -1  11   1    3.71    4.18
   1 -11  -1    7.07    4.45
   0  11   1   17.38    3.97
   0 -11  -1   18.32    5.39
   1  11   1    7.21    3.03
  -1 -11  -1    8.08    3.30
   2  11   1   15.90    5.05
  -2 -11  -1   11.99    3.44
   3  11   1    2.49    4.45
  -3 -11  -1    1.35    3.50
  -2  11   2    1.35    4.58
   2 -11  -2    0.81    3.10
  -1  11   2    7.95    3.91
   1 -11  -2    1.55    4.24
   0  11   2    1.82    2.63
   0 -11  -2   -0.34    2.96
   1  11   2   11.79    3.71
  -1 -11  -2   12.40    3.64
   2  11   2    1.01    6.13
  -2 -11  -2   -0.20    3.37
  -3 -11  -2    1.08    5.66
   0  11   3    6.60    3.50
   0 -11  -3    8.42    3.37
   1  11   3   11.25    4.51
  -1 -11  -3    7.88    2.83
   2  11   3   12.06    5.19
  -2 -11  -3   11.38    7.21
   3  11   3    0.27    3.64
  -3 -11  -3   -1.35    2.22
  -4 -11  -3   -0.07    2.76
  -3 -11  -4   -0.27    3.57
  -4 -11  -4   -0.94    4.11
   0   0   0    0.00    0.00

_computing_structure_solution     'SHELXT 2018/2 (Sheldrick, 2018)'
;
_shelx_hkl_checksum              20800
_shelx_fab_file
;
    2    0    0     54.73     -1.48
    4    0    0      4.14     -1.98
    6    0    0     -4.93     -0.34
    8    0    0      2.21      0.34
   10    0    0      2.38     -0.23
   12    0    0      1.13      0.00
   14    0    0      1.43      0.47
   16    0    0      0.72      0.09
   18    0    0     -0.11     -0.35
   19    0    1      0.17      0.03
   17    0    1      0.20      0.37
   15    0    1     -0.27      0.85
   13    0    1     -1.03      0.48
   11    0    1     -1.55      0.54
    9    0    1     -1.23      2.25
    7    0    1      0.80      0.24
    5    0    1      0.19     -2.96
    3    0    1     -9.14     16.89
    1    0    1    -19.93     55.63
   20    0    2      0.14      0.07
   18    0    2     -0.03     -0.15
   16    0    2     -0.39     -0.05
   14    0    2     -0.16     -0.31
   12    0    2      0.58     -1.27
   10    0    2      0.18     -1.80
    8    0    2     -0.48     -1.07
    6    0    2      1.73     -1.26
    4    0    2      1.97     -4.92
    0    0    2    -20.68     -8.93
   19    0    3     -0.02      0.10
   17    0    3      0.10      0.05
   15    0    3     -0.05     -0.11
   13    0    3      0.33      0.21
   11    0    3      1.05      0.63
    9    0    3      0.94      0.74
    7    0    3      0.68      1.45
    5    0    3      1.62      2.42
    3    0    3      0.76      0.56
    1    0    3     -3.68     -4.73
   20    0    4      0.03     -0.07
   18    0    4      0.01     -0.05
   16    0    4     -0.15      0.05
   14    0    4      0.33      0.07
   12    0    4      0.38      0.16
   10    0    4     -0.39      0.46
    8    0    4     -0.90      0.99
    6    0    4     -0.05      1.61
    4    0    4      1.78      1.59
    2    0    4      3.58      0.48
    0    0    4      4.51     -0.85
   19    0    5      0.20      0.18
   17    0    5      0.22     -0.16
   15    0    5     -0.28     -0.17
   13    0    5     -0.43      0.75
   11    0    5     -0.02      0.54
    9    0    5     -0.49     -0.88
    7    0    5     -2.18     -1.22
    5    0    5     -3.09      0.82
    3    0    5     -4.59      2.85
    1    0    5     -7.12      3.12
   18    0    6     -0.35      0.42
   16    0    6      0.21     -0.03
   14    0    6      0.39     -0.31
   12    0    6      0.03      0.15
   10    0    6      0.59      0.50
    8    0    6      1.65     -0.14
    6    0    6      1.40     -1.38
    4    0    6      0.11     -3.05
    2    0    6      0.14     -6.44
    0    0    6      0.89     -8.64
   17    0    7      0.15     -0.21
   15    0    7      0.11      0.57
   13    0    7     -1.05      0.48
   11    0    7     -1.46      0.50
    9    0    7     -1.48      1.21
    7    0    7     -1.23      1.78
    5    0    7      0.10      1.57
    3    0    7      1.40      1.26
    1    0    7      1.73      1.58
   16    0    8     -0.27      0.27
   14    0    8      0.09     -0.76
   12    0    8      0.55     -1.39
   10    0    8     -0.31     -1.31
    8    0    8     -1.35     -2.44
    6    0    8     -1.48     -2.89
    4    0    8     -0.56     -1.57
    2    0    8      0.47     -1.42
    0    0    8      0.81     -1.95
   15    0    9     -0.16      0.38
   13    0    9      0.04      0.98
   11    0    9     -0.05      0.29
    9    0    9      1.12     -1.12
    7    0    9      2.98     -1.04
    5    0    9      2.72      0.77
    3    0    9      1.50      1.64
    1    0    9      1.35      0.67
   14    0   10     -0.23     -0.60
   12    0   10     -0.09     -0.55
   10    0   10      0.55      0.13
    8    0   10      1.12      1.40
    6    0   10      0.13      1.61
    4    0   10     -1.68      0.85
    2    0   10     -0.90      0.78
    0    0   10      0.34      0.98
   13    0   11     -0.13      0.01
   11    0   11     -0.10     -0.29
    9    0   11     -0.09     -0.02
    7    0   11     -0.50      0.57
    5    0   11     -0.78     -0.14
    3    0   11     -0.44     -0.82
    1    0   11      0.03     -0.19
   12    0   12      0.72     -0.13
   10    0   12      0.52      0.19
    8    0   12      0.01      0.29
    6    0   12      0.09     -0.24
    4    0   12      0.58     -0.58
    2    0   12      0.10      0.10
    0    0   12     -0.25      0.48
   11    0   13      0.03      0.29
    9    0   13      0.25      0.27
    7    0   13      0.05      0.25
    5    0   13     -0.01      0.41
    3    0   13      0.06      0.22
    1    0   13      0.27     -0.16
   10    0   14     -0.18      0.46
    8    0   14     -0.38      0.60
    6    0   14     -0.23      0.33
    4    0   14     -0.36      0.04
    2    0   14     -0.16      0.21
    0    0   14      0.18      0.58
    7    0   15     -0.62     -0.34
    5    0   15     -0.13     -0.41
    3    0   15      0.15     -0.45
    1    0   15     -0.48      0.36
    9    0   15     -0.48     -0.24
    6    0   16      0.10     -0.17
    4    0   16      0.10      0.05
    2    0   16      0.06     -0.07
    0    0   16     -0.29     -0.31
    1    0   17     -0.40     -0.26
    3    0   17      0.23      0.08
    5    0   17      0.39      0.02
    1    1   18      0.24      0.21
    5    1   17      0.17     -0.20
    4    1   17      0.29     -0.06
    3    1   17      0.22     -0.04
    2    1   17      0.17     -0.15
    1    1   17      0.12      0.12
    0    1   17      0.00     -0.17
    7    1   16      0.18     -0.01
    6    1   16     -0.20     -0.02
    5    1   16      0.07     -0.16
    4    1   16     -0.40     -0.19
    3    1   16     -0.22     -0.19
    2    1   16      0.03     -0.24
    1    1   16     -0.18     -0.24
    8    1   15     -0.06     -0.23
    7    1   15     -0.02     -0.16
    6    1   15     -0.31     -0.38
    5    1   15      0.04      0.08
    4    1   15     -0.31     -0.08
    3    1   15     -0.07      0.17
    2    1   15     -0.11      0.07
    1    1   15      0.00     -0.03
    0    1   15     -0.14      0.06
    9    1   15     -0.13      0.17
   10    1   14      0.38     -0.04
    9    1   14     -0.55      0.10
    8    1   14      0.06      0.28
    7    1   14     -0.49      0.13
    6    1   14     -0.35      0.26
    5    1   14     -0.07      0.44
    4    1   14     -0.22      0.11
    3    1   14      0.10      0.36
    2    1   14     -0.02     -0.05
    1    1   14     -0.44      0.10
   11    1   13     -0.12      0.06
   10    1   13      0.13      0.65
    9    1   13      0.22     -0.21
    8    1   13      0.01      0.49
    7    1   13      0.28      0.03
    6    1   13      0.10      0.25
    5    1   13      0.06      0.27
    4    1   13      0.37     -0.12
    3    1   13      0.14      0.04
    2    1   13      0.15      0.16
    1    1   13      0.01     -0.16
    0    1   13      0.01      0.73
   12    1   13     -0.08      0.42
   12    1   12      0.12     -0.04
   11    1   12      0.90     -0.22
   10    1   12     -0.11     -0.25
    9    1   12      0.45      0.28
    8    1   12     -0.17     -0.14
    7    1   12     -0.14      0.22
    6    1   12      0.15      0.30
    5    1   12     -0.12     -0.46
    4    1   12      0.11      0.27
    3    1   12      0.11     -0.36
    2    1   12     -0.23     -0.07
    1    1   12      0.62      0.21
   13    1   12      0.60     -0.33
   13    1   11      0.02     -0.02
   12    1   11     -0.58     -0.14
   11    1   11      0.05      0.05
   10    1   11     -0.11     -0.44
    9    1   11      0.08      0.20
    8    1   11      0.15      0.18
    7    1   11      0.30      0.13
    6    1   11     -0.18      0.54
    5    1   11      0.41      0.08
    4    1   11     -0.47     -0.14
    3    1   11      0.01     -0.05
    2    1   11     -0.39     -0.63
    1    1   11     -0.17      0.03
    0    1   11     -0.39     -0.68
   14    1   11     -0.33      0.07
   15    1   11     -0.18     -0.09
   14    1   10      0.08      0.02
   13    1   10      0.30     -0.07
   12    1   10     -0.11     -0.16
   11    1   10      0.29      0.00
   10    1   10     -0.20     -0.25
    9    1   10      0.36      0.37
    8    1   10      0.14     -0.40
    7    1   10      0.39      0.82
    6    1   10      0.56     -0.35
    5    1   10     -0.58      0.82
    4    1   10      0.35     -0.01
    3    1   10     -1.07      0.90
    2    1   10     -0.18      0.32
    1    1   10     -0.30      1.27
   15    1   10     -0.01     -0.17
   16    1   10      0.05      0.24
   15    1    9     -0.01     -0.06
   14    1    9      0.02      0.07
   13    1    9     -0.18      0.02
   12    1    9      0.03     -0.12
   11    1    9     -0.05      0.37
   10    1    9      0.31     -0.30
    9    1    9     -0.21      0.09
    8    1    9      1.55     -0.17
    7    1    9     -0.19     -0.47
    6    1    9      2.41      0.31
    5    1    9      0.29     -0.57
    4    1    9      2.12      0.79
    3    1    9      0.50      0.12
    2    1    9      1.72      0.85
    1    1    9      0.29      0.25
    0    1    9      1.64      0.73
   16    1    9      0.03      0.00
   17    1    9      0.09      0.18
   16    1    8      0.30     -0.14
   15    1    8     -0.29     -0.09
   14    1    8      0.11      0.18
   13    1    8     -0.21     -0.50
   12    1    8      0.31      0.04
   11    1    8     -0.40     -0.76
   10    1    8      0.10      0.02
    9    1    8     -0.28     -1.65
    8    1    8     -0.54      0.02
    7    1    8     -0.29     -2.63
    6    1    8     -0.73     -0.80
    5    1    8     -0.93     -2.23
    4    1    8     -0.29     -1.47
    3    1    8     -0.48     -1.78
    2    1    8      0.16     -1.07
    1    1    8      0.99     -2.14
   17    1    8     -0.21     -0.10
   16    1    7      0.09      0.23
   15    1    7     -0.13     -0.31
   14    1    7     -0.01      0.27
   13    1    7      0.02     -0.20
   12    1    7     -0.38      0.47
   11    1    7      0.03     -0.12
   10    1    7     -0.93      0.92
    9    1    7      0.13      0.47
    8    1    7     -1.33      0.83
    7    1    7     -0.44      0.98
    6    1    7     -0.77      0.99
    5    1    7     -1.50      0.98
    4    1    7      0.06      1.40
    3    1    7     -1.82      0.60
    2    1    7      0.45      1.21
    1    1    7     -0.85      0.19
    0    1    7      0.59      0.99
   17    1    7     -0.23     -0.45
   18    1    7     -0.15     -0.01
   17    1    6     -0.06      0.12
   16    1    6     -0.41      0.34
   15    1    6     -0.01     -0.10
   14    1    6     -0.16      0.09
   13    1    6     -0.35     -0.36
   12    1    6     -0.07     -0.08
   11    1    6      0.19     -0.12
   10    1    6      0.17     -0.17
    9    1    6      0.99     -0.17
    8    1    6      0.48      0.05
    7    1    6      0.79     -0.94
    6    1    6      0.75      0.54
    5    1    6      0.33     -1.22
    4    1    6      0.65      1.25
    3    1    6      0.27     -2.83
    2    1    6      0.28      1.40
    1    1    6      1.01     -6.00
   18    1    6     -0.25      0.14
   19    1    6     -0.17     -0.08
   18    1    5     -0.13      0.27
   17    1    5      0.28      0.14
   16    1    5      0.07     -0.08
   15    1    5      0.31      0.23
   14    1    5     -0.18      0.45
   13    1    5      0.11      0.15
   12    1    5     -0.34      0.70
   11    1    5     -0.02     -0.05
   10    1    5     -0.46     -0.30
    9    1    5      0.10      0.06
    8    1    5     -1.55     -0.43
    7    1    5      0.44      0.12
    6    1    5     -1.85      0.76
    5    1    5      0.64     -0.36
    4    1    5     -1.89      1.71
    3    1    5      0.99     -0.56
    2    1    5     -4.65      1.49
    1    1    5      0.55     -0.20
    0    1    5     -6.81      0.71
   19    1    5     -0.04     -0.09
   18    1    4     -0.16      0.01
   17    1    4      0.20      0.11
   16    1    4      0.03     -0.22
   15    1    4     -0.02      0.02
   14    1    4      0.11     -0.36
   13    1    4      0.21      0.37
   12    1    4     -0.05     -0.29
   11    1    4     -0.14      0.68
   10    1    4     -0.03     -0.18
    9    1    4     -0.44      0.59
    8    1    4      0.27     -0.60
    7    1    4      0.46      0.16
    6    1    4     -0.56     -0.76
    5    1    4      1.49     -0.02
    4    1    4     -1.96      0.24
    3    1    4      1.78      0.63
    2    1    4     -1.93      1.06
    1    1    4      0.84      0.75
   19    1    4      0.41      0.10
   19    1    3      0.06      0.16
   18    1    3     -0.01     -0.16
   17    1    3      0.02      0.16
   16    1    3      0.00     -0.18
   15    1    3     -0.06      0.03
   14    1    3      0.30     -0.04
   13    1    3     -0.30     -0.02
   12    1    3      1.11      0.07
   11    1    3     -0.31      0.16
   10    1    3      0.80      0.50
    9    1    3     -0.08      0.39
    8    1    3     -0.47      1.08
    7    1    3     -0.26      1.25
    6    1    3     -0.10      1.09
    5    1    3      0.73      3.31
    4    1    3      1.35      0.53
    3    1    3      2.93      5.02
    2    1    3     -1.21      0.25
    1    1    3      2.18      2.81
    0    1    3     -4.16      0.53
   19    1    2      0.24     -0.02
   18    1    2      0.17     -0.02
   17    1    2     -0.28     -0.01
   16    1    2      0.11     -0.28
   15    1    2     -0.42      0.16
   14    1    2     -0.19      0.03
   13    1    2     -0.27     -0.62
   12    1    2     -0.10      0.42
   11    1    2      0.01     -1.24
   10    1    2      0.57     -0.18
    9    1    2      0.40     -0.75
    8    1    2      1.56     -0.97
    7    1    2     -0.05     -1.03
    6    1    2      3.50     -1.15
    5    1    2     -1.20     -4.03
    4    1    2      7.72     -2.33
    3    1    2     -2.95     -6.05
    2    1    2      9.17     -3.42
    1    1    2     -5.09     -3.94
   19    1    1      0.05     -0.04
   18    1    1      0.00      0.15
   17    1    1     -0.29     -0.01
   16    1    1      0.28      0.48
   15    1    1     -0.19      0.15
   14    1    1     -0.06      0.62
   13    1    1      0.36      0.16
   12    1    1     -0.90      0.74
   11    1    1      0.14     -0.19
   10    1    1     -1.20      1.06
    9    1    1     -0.89     -1.14
    8    1    1     -0.71      2.13
    7    1    1     -1.22     -2.55
    6    1    1     -1.01      3.63
    5    1    1     -1.20     -7.18
    4    1    1     -4.96      8.96
    3    1    1     -1.94    -14.29
    1    1    1     -1.54     -9.03
    2    1    1    -10.63     22.26
   20    1    0     -0.05     -0.06
   19    1    0      0.01     -0.03
   18    1    0      0.10      0.03
   17    1    0      0.25     -0.04
   16    1    0      0.17      0.05
   15    1    0      0.59      0.06
   14    1    0      0.12     -0.06
   13    1    0      1.11      0.05
   12    1    0     -0.07     -0.05
   11    1    0      1.66     -0.08
   10    1    0     -0.57      0.06
    9    1    0      2.68     -0.07
    8    1    0     -1.71      0.06
    7    1    0      3.20     -0.01
    6    1    0     -4.58      0.15
    5    1    0      5.98     -0.38
    4    1    0    -12.49     -0.13
    3    1    0     22.18     -0.49
    2    1    0    -16.16     -0.11
    1    1    0     45.57     -0.21
   20    1    1     -0.08     -0.24
   20    1    2      0.09      0.01
   20    1    3     -0.17      0.06
    8    1   16      0.09     -0.02
    6    1   17      0.09      0.12
    3    2   17      0.27     -0.15
    2    2   17     -0.04      0.09
    1    2   17      0.33      0.02
    4    2   17      0.16      0.05
    6    2   16      0.16      0.04
    5    2   16     -0.26     -0.32
    4    2   16     -0.24      0.01
    3    2   16      0.13     -0.24
    2    2   16     -0.35     -0.31
    1    2   16      0.18     -0.03
    0    2   16     -0.22     -0.53
    7    2   16     -0.38     -0.12
    7    2   15      0.00     -0.42
    6    2   15     -0.18      0.26
    5    2   15      0.14     -0.34
    4    2   15     -0.31      0.03
    3    2   15      0.01      0.06
    2    2   15     -0.05     -0.16
    1    2   15     -0.42      0.16
    8    2   15      0.04      0.13
    9    2   15      0.00     -0.02
    9    2   14      0.13     -0.16
    8    2   14     -0.52      0.11
    7    2   14      0.15      0.21
    6    2   14     -0.83      0.00
    5    2   14     -0.06      0.30
    4    2   14     -0.51      0.00
    3    2   14     -0.29      0.01
    2    2   14     -0.10      0.41
    1    2   14     -0.12     -0.18
    0    2   14     -0.04      0.63
   10    2   14     -0.03      0.13
   11    2   14      0.38     -0.32
   11    2   13      0.22      0.03
   10    2   13     -0.29      0.02
    9    2   13      0.30      0.18
    8    2   13     -0.09     -0.02
    7    2   13      0.24      0.62
    6    2   13      0.02     -0.01
    5    2   13      0.23      0.80
    4    2   13      0.04      0.41
    3    2   13      0.26      0.41
    2    2   13     -0.02      0.20
    1    2   13      0.36      0.13
   12    2   13     -0.09     -0.02
   12    2   12      0.19     -0.39
   11    2   12     -0.17      0.05
   10    2   12      0.12     -0.09
    9    2   12      0.14      0.23
    8    2   12      0.08     -0.01
    7    2   12      0.18      0.23
    6    2   12      0.14     -0.32
    5    2   12      0.23      0.22
    4    2   12      0.32     -0.28
    3    2   12      0.14     -0.08
    2    2   12      0.39     -0.23
    1    2   12     -0.13     -0.10
    0    2   12      0.37     -0.25
   13    2   12     -0.07     -0.25
   14    2   12      0.46     -0.31
   13    2   11     -0.24      0.10
   12    2   11      0.31      0.17
   11    2   11     -0.04     -0.15
   10    2   11      0.46     -0.02
    9    2   11     -0.12     -0.27
    8    2   11      0.30     -0.23
    7    2   11     -0.41      0.40
    6    2   11      0.19      0.25
    5    2   11     -0.18      0.19
    4    2   11      0.09      0.35
    3    2   11     -0.10     -0.37
    2    2   11     -0.20      0.19
    1    2   11     -0.72     -0.28
   14    2   11      0.06      0.03
   15    2   11     -0.15     -0.12
   14    2   10      0.13     -0.27
   13    2   10     -0.41     -0.43
   12    2   10     -0.17     -0.19
   11    2   10     -0.35     -0.36
   10    2   10     -0.40      0.33
    9    2   10     -0.28     -0.38
    8    2   10      0.54      0.83
    7    2   10      0.38     -0.28
    6    2   10      0.51      0.68
    5    2   10      1.03     -0.26
    4    2   10     -0.63      0.50
    3    2   10      0.54     -0.06
    2    2   10     -0.45      1.11
    1    2   10      0.05      0.12
    0    2   10      0.30      1.65
   15    2   10     -0.06     -0.35
   16    2   10     -0.01     -0.08
   15    2    9     -0.11      0.00
   14    2    9     -0.34      0.58
   13    2    9      0.16      0.20
   12    2    9      0.01      0.64
   11    2    9      0.77      0.31
   10    2    9     -0.11      0.15
    9    2    9      1.02     -0.14
    8    2    9     -0.25     -0.36
    7    2    9      1.14     -0.40
    6    2    9      0.16     -0.71
    5    2    9      1.52      0.37
    4    2    9      0.20     -0.62
    3    2    9      2.07      0.65
    2    2    9      0.15     -0.18
    1    2    9      2.30     -0.04
   16    2    9     -0.30      0.24
   17    2    9      0.03      0.03
   16    2    8     -0.25     -0.21
   15    2    8      0.33     -0.04
   14    2    8     -0.31     -0.55
   13    2    8      0.59     -0.18
   12    2    8     -0.49     -1.07
   11    2    8      0.27      0.08
   10    2    8     -0.54     -1.11
    9    2    8     -0.62      0.50
    8    2    8     -0.22     -1.10
    7    2    8     -0.72     -0.47
    6    2    8      0.09     -1.54
    5    2    8     -0.50     -1.55
    4    2    8      0.06     -2.31
    3    2    8     -0.70     -1.21
    2    2    8     -0.20     -2.78
    1    2    8     -0.36     -0.44
    0    2    8     -0.36     -2.90
   17    2    8      0.28     -0.11
   18    2    8     -0.11     -0.16
   16    2    7     -0.20     -0.02
   15    2    7     -0.18      0.57
   14    2    7     -0.42      0.03
   13    2    7     -0.39      0.81
   12    2    7     -0.04     -0.44
   11    2    7     -0.29      0.78
   10    2    7      0.72      0.03
    9    2    7      0.11      0.53
    8    2    7      0.04      0.79
    7    2    7     -0.25      0.23
    6    2    7     -1.62      0.75
    5    2    7     -1.41      0.19
    4    2    7     -1.99      1.27
    3    2    7     -1.75      0.68
    2    2    7     -1.32      1.49
    1    2    7     -0.88      1.64
   17    2    7     -0.01      0.19
   18    2    7     -0.04     -0.15
   17    2    6     -0.18     -0.04
   16    2    6     -0.08     -0.18
   15    2    6      0.32      0.26
   14    2    6      0.15     -0.39
   13    2    6      0.04      0.23
   12    2    6     -0.13     -0.28
   11    2    6     -0.54     -0.29
   10    2    6     -0.26     -0.69
    9    2    6      0.13      0.01
    8    2    6      0.18     -1.63
    7    2    6      0.52      0.71
    6    2    6      0.69     -0.62
    5    2    6      0.57      1.05
    4    2    6      0.68      0.76
    3    2    6      1.15      1.42
    2    2    6      0.80     -1.55
    1    2    6      0.73      0.90
    0    2    6      1.09     -3.93
   18    2    6     -0.25     -0.01
   19    2    6     -0.14     -0.05
   18    2    5     -0.12      0.10
   17    2    5     -0.01      0.38
   16    2    5      0.02      0.04
   15    2    5     -0.24      0.44
   14    2    5      0.26     -0.20
   13    2    5     -0.22      0.58
   12    2    5      0.09      0.12
   11    2    5      0.02      0.69
   10    2    5      0.40      0.04
    9    2    5     -1.38      0.40
    8    2    5      0.54     -0.08
    7    2    5     -2.48      0.08
    6    2    5      0.10      0.54
    5    2    5     -0.68     -0.29
    4    2    5      0.92      0.05
    3    2    5     -0.58     -0.08
    2    2    5      1.69     -0.42
    1    2    5     -3.66      0.61
   19    2    5     -0.06      0.20
   18    2    4      0.23      0.05
   17    2    4      0.08      0.13
   16    2    4      0.26      0.05
   15    2    4      0.04     -0.16
   14    2    4      0.16      0.16
   13    2    4     -0.22     -0.08
   12    2    4      0.23      0.14
   11    2    4     -0.37     -0.11
   10    2    4      0.31      0.39
    9    2    4     -0.23     -0.37
    8    2    4      0.63      1.16
    7    2    4      0.57      0.06
    6    2    4      0.82      0.30
    5    2    4      0.02     -0.10
    4    2    4     -0.03     -0.80
    3    2    4     -1.45     -0.64
    2    2    4     -0.78      0.18
    1    2    4     -0.75     -0.37
    0    2    4     -0.91      1.23
   19    2    4     -0.12      0.14
   19    2    3     -0.08      0.09
   18    2    3      0.03      0.07
   17    2    3      0.02     -0.14
   16    2    3      0.04     -0.04
   15    2    3      0.18     -0.08
   14    2    3      0.18     -0.03
   13    2    3      0.42     -0.20
   12    2    3      0.33      0.16
   11    2    3      0.37     -0.63
   10    2    3      0.13      0.36
    9    2    3      0.08     -0.34
    8    2    3      0.62      0.34
    7    2    3     -0.32      0.02
    6    2    3      0.89      1.01
    5    2    3     -0.57      0.28
    4    2    3      1.14      3.42
    3    2    3     -0.57      1.92
    2    2    3      1.77      3.46
    1    2    3     -0.82      4.00
   19    2    2      0.01      0.03
   18    2    2      0.02     -0.01
   17    2    2      0.14     -0.13
   16    2    2     -0.33      0.01
   15    2    2     -0.14     -0.32
   14    2    2     -0.41     -0.05
   13    2    2     -0.42     -0.24
   12    2    2     -0.83     -0.15
   11    2    2     -0.06     -0.08
   10    2    2     -1.04     -0.10
    9    2    2      0.76     -0.91
    8    2    2     -0.83     -0.71
    7    2    2      1.63     -1.90
    6    2    2     -1.90     -1.65
    5    2    2      4.45     -1.95
    4    2    2     -1.42     -2.33
    3    2    2      7.49     -2.97
    2    2    2      2.65     -2.15
    1    2    2      3.94     -2.03
    0    2    2      5.35     -2.01
   19    2    1     -0.14     -0.08
   18    2    1     -0.14      0.19
   17    2    1      0.07      0.46
   16    2    1     -0.39      0.13
   15    2    1      0.15      0.63
   14    2    1     -0.06      0.33
   13    2    1     -0.11      0.96
   12    2    1      0.25      0.28
   11    2    1     -0.33      1.64
   10    2    1     -0.31     -0.47
    9    2    1     -0.78      2.72
    8    2    1     -1.38     -1.62
    7    2    1     -1.40      4.90
    6    2    1     -1.53     -3.74
    5    2    1     -2.10      7.07
    4    2    1     -1.97     -8.81
    3    2    1     -3.65      5.77
    2    2    1     -2.58     -9.78
    1    2    1     -5.72      3.06
   20    2    0     -0.04      0.01
   19    2    0      0.46     -0.03
   18    2    0      0.38      0.03
   17    2    0      0.40      0.04
   16    2    0      0.60     -0.05
   15    2    0      0.26      0.01
   14    2    0      1.00     -0.04
   13    2    0      0.16     -0.05
   12    2    0      1.74      0.03
   11    2    0     -0.10      0.01
   10    2    0      3.09      0.06
    9    2    0     -1.15      0.07
    8    2    0      5.09      0.04
    7    2    0     -2.76      0.06
    6    2    0      7.85      0.06
    5    2    0     -6.72     -0.03
    4    2    0      9.38      0.00
    3    2    0    -11.53     -0.07
    2    2    0      9.66     -0.03
    1    2    0     -6.57      0.01
    0    2    0      9.78      0.03
   20    2    1      0.00      0.26
   20    2    2      0.42      0.07
    8    2   16      0.11      0.04
    5    2   17      0.12     -0.10
    6    2   17      0.36     -0.14
    0    3   17      0.26      0.08
    1    3   17     -0.05      0.18
    2    3   17      0.08      0.13
    3    3   17     -0.15      0.13
    4    3   17     -0.02      0.07
    5    3   17     -0.16     -0.22
    4    3   16      0.12     -0.05
    3    3   16     -0.05      0.07
    2    3   16      0.56      0.09
    1    3   16      0.02     -0.25
    5    3   16     -0.15      0.12
    6    3   16     -0.20     -0.02
    7    3   16     -0.11      0.03
    6    3   15      0.31      0.05
    5    3   15     -0.54      0.21
    4    3   15      0.31     -0.02
    3    3   15     -0.21     -0.42
    2    3   15     -0.25     -0.32
    1    3   15      0.06     -0.43
    0    3   15     -0.59     -0.48
    7    3   15     -0.14      0.13
    8    3   15      0.15      0.06
    9    3   15      0.08      0.13
    8    3   14      0.16      0.01
    7    3   14     -0.51     -0.31
    6    3   14      0.48      0.49
    5    3   14     -0.51     -0.39
    4    3   14      0.13      0.37
    3    3   14     -0.48      0.26
    2    3   14     -0.43     -0.12
    1    3   14     -0.38      1.00
    9    3   14     -0.06     -0.03
   10    3   14      0.12     -0.29
   11    3   14      0.19     -0.03
   10    3   13      0.34     -0.06
    9    3   13     -0.16      0.08
    8    3   13      0.19      0.37
    7    3   13     -0.08     -0.21
    6    3   13      0.10      0.69
    5    3   13      0.04     -0.23
    4    3   13      0.27      0.66
    3    3   13     -0.08      0.23
    2    3   13      0.59      0.35
    1    3   13     -0.05      0.16
    0    3   13      0.63      0.05
   11    3   13     -0.02      0.39
   12    3   13      0.12      0.12
   13    3   13      0.20      0.52
   11    3   12      0.10     -0.31
   10    3   12     -0.02     -0.24
    9    3   12     -0.06     -0.19
    8    3   12      0.30      0.16
    7    3   12      0.03     -0.25
    6    3   12      0.18      0.28
    5    3   12      0.10     -0.34
    4    3   12      0.04      0.10
    3    3   12      0.28     -0.28
    2    3   12     -0.02     -0.14
    1    3   12      0.21     -0.35
   12    3   12      0.28     -0.63
   13    3   12      0.32     -0.17
   14    3   12      0.29     -0.28
   12    3   11     -0.05     -0.51
   11    3   11     -0.23      0.46
   10    3   11      0.07     -0.36
    9    3   11      0.04     -0.11
    8    3   11     -0.20      0.24
    7    3   11      0.25     -0.43
    6    3   11     -0.49      0.55
    5    3   11      0.29      0.22
    4    3   11     -0.15      0.13
    3    3   11     -0.05      0.39
    2    3   11     -0.16     -0.10
    1    3   11     -0.26      0.13
    0    3   11     -0.48      0.08
   13    3   11     -0.22     -0.09
   14    3   11     -0.14     -0.08
   15    3   11      0.14     -0.15
   13    3   10     -0.45      0.11
   12    3   10     -0.01     -0.08
   11    3   10     -1.21      0.09
   10    3   10      0.07     -0.09
    9    3   10     -0.39      0.13
    8    3   10     -0.44     -0.28
    7    3   10      0.86      0.45
    6    3   10      0.25     -0.34
    5    3   10      0.71      0.81
    4    3   10      0.76     -0.24
    3    3   10     -0.07      0.81
    2    3   10      0.30      0.27
    1    3   10     -0.01      0.99
   14    3   10     -0.39     -0.31
   15    3   10      0.34      0.08
   16    3   10     -0.11     -0.38
   14    3    9      0.42     -0.09
   13    3    9     -0.04      0.36
   12    3    9      0.84      0.67
   11    3    9      0.18      0.20
   10    3    9      0.86      0.91
    9    3    9     -0.22      0.22
    8    3    9      0.38      0.18
    7    3    9     -0.22     -0.26
    6    3    9      0.71     -0.64
    5    3    9      0.00     -1.00
    4    3    9      1.76     -0.71
    3    3    9      0.14     -0.76
    2    3    9      2.30     -0.33
    1    3    9      0.22     -0.13
    0    3    9      2.51     -0.25
   15    3    9     -0.34      0.32
   16    3    9      0.19     -0.07
   17    3    9     -0.35      0.23
   15    3    8     -0.30     -1.16
   14    3    8     -0.14     -0.01
   13    3    8     -0.66     -1.10
   12    3    8      0.19     -0.41
   11    3    8     -0.43     -0.95
   10    3    8      0.02     -0.04
    9    3    8      0.16     -0.67
    8    3    8     -0.60      0.46
    7    3    8      0.16     -0.59
    6    3    8     -1.13     -0.25
    5    3    8     -0.54     -1.31
    4    3    8     -1.19     -0.41
    3    3    8     -1.02     -2.37
    2    3    8     -0.63     -0.16
    1    3    8     -1.17     -3.35
   16    3    8      0.08      0.19
   17    3    8      0.06     -0.57
   16    3    7     -1.06      0.44
   15    3    7      0.12      0.53
   14    3    7     -0.95      1.33
   13    3    7     -0.35      0.37
   12    3    7      0.02      1.32
   11    3    7     -0.13     -0.06
   10    3    7      0.59      0.39
    9    3    7      0.67      0.50
    8    3    7      0.33      0.08
    7    3    7      0.06      0.99
    6    3    7     -0.51      0.34
    5    3    7     -0.76      1.14
    4    3    7     -1.47      0.46
    3    3    7     -0.37      0.98
    2    3    7     -1.93      1.60
    1    3    7     -0.01      0.35
    0    3    7     -2.22      2.53
   17    3    7      0.25     -0.19
   17    3    6     -0.17      0.34
   16    3    6      0.06     -0.31
   15    3    6      0.44      0.15
   14    3    6      0.61      0.12
   13    3    6      0.79     -0.64
   12    3    6      0.04      0.15
   11    3    6     -0.23     -1.14
   10    3    6     -0.16     -0.38
    9    3    6     -0.39     -1.39
    8    3    6      0.45     -0.21
    7    3    6      0.89     -1.09
    6    3    6      0.72      0.47
    5    3    6      0.86      0.40
    4    3    6      0.67      0.50
    3    3    6      0.48      0.59
    2    3    6      0.33      0.29
    1    3    6      1.46     -0.96
   18    3    6     -0.46     -0.13
   17    3    5     -0.23      0.23
   16    3    5      0.18      0.56
   15    3    5     -0.06     -0.04
   14    3    5     -0.29      0.34
   13    3    5      0.18     -0.14
   12    3    5     -0.42      0.47
   11    3    5      0.00      0.18
   10    3    5     -0.72      0.76
    9    3    5      0.07      0.06
    8    3    5     -1.94     -0.35
    7    3    5      0.00      0.00
    6    3    5     -1.72     -1.29
    5    3    5      0.04      0.17
    4    3    5      0.00     -0.47
    3    3    5      0.57      0.15
    2    3    5     -0.85      0.46
    1    3    5      0.44      0.00
    0    3    5     -2.31      0.86
   18    3    5      0.19      0.13
   18    3    4      0.00      0.27
   17    3    4      0.15     -0.16
   16    3    4      0.25      0.17
   15    3    4      0.27     -0.13
   14    3    4      0.17     -0.12
   13    3    4     -0.01     -0.01
   12    3    4     -0.13      0.05
   11    3    4      0.17      0.18
   10    3    4     -0.04      0.11
    9    3    4      0.30      0.98
    8    3    4      0.33      0.14
    7    3    4     -0.09      1.86
    6    3    4      0.66      0.37
    5    3    4     -0.18      0.57
    4    3    4      0.36     -0.10
    3    3    4     -0.20     -0.55
    2    3    4     -0.25     -0.38
    1    3    4      0.23      0.61
   18    3    3     -0.09      0.06
   17    3    3      0.18     -0.19
   16    3    3      0.03      0.04
   15    3    3      0.05     -0.31
   14    3    3      0.19      0.12
   13    3    3      0.21     -0.08
   12    3    3      0.30     -0.07
   11    3    3      0.45      0.06
   10    3    3      0.20     -0.70
    9    3    3      0.46     -0.16
    8    3    3      0.63     -0.67
    7    3    3      0.86     -0.09
    6    3    3      0.63     -0.27
    5    3    3      0.87      0.01
    4    3    3     -0.55      0.63
    3    3    3      0.86      0.63
    2    3    3     -0.19      1.91
    1    3    3      0.51      0.64
    0    3    3      0.84      2.23
   19    3    2      0.15      0.17
   18    3    2     -0.24     -0.03
   17    3    2      0.04      0.17
   16    3    2     -0.18     -0.12
   15    3    2     -0.28     -0.16
   14    3    2     -0.24     -0.19
   13    3    2     -0.47     -0.27
   12    3    2     -0.24     -0.30
   11    3    2     -0.93      0.16
   10    3    2     -0.13     -0.54
    9    3    2     -1.60      0.20
    8    3    2      0.38     -1.24
    7    3    2     -1.86     -1.15
    6    3    2      0.52     -1.80
    5    3    2     -1.52     -1.37
    4    3    2      0.49     -1.91
    3    3    2      1.09     -0.81
    2    3    2      1.37     -1.74
    1    3    2      3.52     -1.82
   19    3    1      0.03      0.38
   18    3    1      0.14     -0.15
   17    3    1     -0.15      0.42
   16    3    1      0.12      0.40
   15    3    1     -0.16      0.13
   14    3    1     -0.19      1.16
   13    3    1      0.02      0.17
   12    3    1     -0.21      1.26
   11    3    1     -0.20      0.32
   10    3    1      0.29      1.79
    9    3    1     -0.78     -0.10
    8    3    1     -0.27      3.40
    7    3    1     -1.38     -0.77
    6    3    1     -1.44      5.15
    5    3    1     -1.64      0.04
    4    3    1     -1.55      3.77
    3    3    1     -1.82     -0.81
    2    3    1     -2.15     -0.57
    1    3    1     -1.03     -1.23
    0    3    1     -2.87     -2.50
   20    3    0      0.27      0.00
   19    3    0     -0.04      0.10
   18    3    0      0.65      0.01
   17    3    0      0.11      0.03
   16    3    0      0.45      0.02
   15    3    0      1.07     -0.08
   14    3    0     -0.04     -0.02
   13    3    0      1.81     -0.03
   12    3    0      0.19      0.00
   11    3    0      1.82      0.12
   10    3    0      0.36     -0.01
    9    3    0      2.95      0.03
    8    3    0     -0.54     -0.05
    7    3    0      5.43     -0.11
    6    3    0     -0.34      0.07
    5    3    0      6.69     -0.14
    4    3    0      0.35      0.09
    3    3    0      3.45      0.05
    2    3    0     -1.29     -0.01
    1    3    0     -0.25      0.07
    8    3   16     -0.11      0.06
    0    4   16     -0.49      0.05
    1    4   16     -0.06      0.09
    2    4   16     -0.54      0.11
    3    4   16     -0.03      0.01
    4    4   16      0.03      0.12
    5    4   16      0.05     -0.18
    6    4   16      0.73      0.05
    4    4   15     -0.29     -0.03
    3    4   15      0.15      0.23
    2    4   15      0.06     -0.05
    1    4   15      0.27     -0.02
    5    4   15      0.12     -0.23
    6    4   15     -0.29     -0.12
    7    4   15      0.01     -0.19
    8    4   15     -0.01     -0.05
    9    4   15      0.03      0.37
    7    4   14     -0.02      0.18
    6    4   14     -0.46     -0.35
    5    4   14      0.02      0.28
    4    4   14     -0.30      0.05
    3    4   14      0.04      0.05
    2    4   14     -0.28      0.19
    1    4   14      0.01     -0.02
    0    4   14     -0.40      0.13
    8    4   14     -0.08     -0.32
    9    4   14      0.19     -0.04
   10    4   14      0.10     -0.12
   11    4   14      0.14     -0.16
    8    4   13      0.03     -0.09
    7    4   13     -0.08      0.52
    6    4   13      0.09      0.15
    5    4   13      0.28      0.54
    4    4   13     -0.05      0.11
    3    4   13      0.53      0.44
    2    4   13     -0.07     -0.09
    1    4   13      0.21      0.37
    9    4   13      0.03      0.24
   10    4   13     -0.26     -0.07
   11    4   13      0.27      0.06
   12    4   13     -0.16      0.34
   10    4   12     -0.07     -0.39
    9    4   12     -0.02      0.00
    8    4   12      0.04     -0.34
    7    4   12      0.25     -0.10
    6    4   12      0.10     -0.41
    5    4   12      0.26      0.01
    4    4   12      0.14     -0.39
    3    4   12     -0.01      0.14
    2    4   12      0.11     -0.30
    1    4   12     -0.08      0.04
    0    4   12      0.10     -0.23
   11    4   12      0.17     -0.06
   12    4   12     -0.09     -0.21
   13    4   12      0.38     -0.39
   11    4   11     -0.05     -0.06
   10    4   11     -0.10      0.16
    9    4   11     -0.29      0.45
    8    4   11     -0.04     -0.26
    7    4   11     -0.62      0.50
    6    4   11      0.16     -0.25
    5    4   11     -0.31      0.13
    4    4   11      0.37     -0.03
    3    4   11      0.26      0.03
    2    4   11      0.23     -0.09
    1    4   11      0.07      0.46
   12    4   11     -0.24      0.05
   13    4   11      0.16     -0.20
   14    4   11     -0.26     -0.05
   13    4   10     -0.09     -0.01
   12    4   10     -0.69      0.05
   11    4   10      0.17      0.00
   10    4   10     -0.20      0.14
    9    4   10     -0.20     -0.22
    8    4   10      0.58      0.29
    7    4   10     -0.47     -0.42
    6    4   10      0.50      0.47
    5    4   10     -0.19     -0.50
    4    4   10      0.02      0.20
    3    4   10     -0.32     -0.24
    2    4   10      0.03      0.00
    1    4   10     -0.32     -0.01
    0    4   10      0.29      0.22
   14    4   10     -0.08      0.00
   15    4   10     -0.08     -0.04
   14    4    9      0.05      0.12
   13    4    9      0.21      0.31
   12    4    9      0.09      0.02
   11    4    9      0.66      0.47
   10    4    9     -0.12      0.30
    9    4    9      0.67      0.14
    8    4    9     -0.55      0.59
    7    4    9      0.34      0.11
    6    4    9     -0.46      0.11
    5    4    9      0.58     -0.22
    4    4    9     -0.08     -0.25
    3    4    9      0.98     -0.56
    2    4    9      0.23      0.16
    1    4    9      1.59     -0.46
   15    4    9     -0.03     -0.15
   15    4    8      0.00     -0.17
   14    4    8      0.01     -0.53
   13    4    8     -0.26     -0.16
   12    4    8     -0.28     -0.51
   11    4    8      0.02     -0.23
   10    4    8     -0.42     -0.81
    9    4    8      0.26      0.22
    8    4    8      0.03     -0.74
    7    4    8     -0.03      0.62
    6    4    8      0.04     -0.52
    5    4    8     -0.73      0.51
    4    4    8     -0.97     -0.72
    3    4    8     -0.61      0.16
    2    4    8     -1.51     -1.78
    1    4    8     -0.04     -0.01
    0    4    8     -1.58     -2.72
   16    4    8      0.06     -0.33
   15    4    7     -0.73      0.34
   14    4    7     -0.28      0.32
   13    4    7     -0.26      0.95
   12    4    7     -0.04      0.35
   11    4    7      0.31      0.93
   10    4    7      0.31      0.17
    9    4    7      0.19      0.63
    8    4    7      0.64      0.08
    7    4    7      0.11      0.41
    6    4    7      0.62      0.36
    5    4    7      0.17      0.53
    4    4    7      0.46      0.71
    3    4    7     -0.43      1.32
    2    4    7      0.25      0.16
    1    4    7     -1.96      2.34
   16    4    7     -0.13     -0.09
   16    4    6     -0.11      0.06
   15    4    6      0.08      0.40
   14    4    6      0.59     -0.45
   13    4    6      0.31      0.17
   12    4    6      0.64     -1.13
   11    4    6     -0.12     -0.49
   10    4    6      0.16     -1.18
    9    4    6     -0.40     -0.50
    8    4    6      0.47     -0.99
    7    4    6     -0.16     -0.24
    6    4    6      0.45     -0.83
    5    4    6      0.62     -0.38
    4    4    6      0.26     -0.66
    3    4    6      0.40     -0.29
    2    4    6      1.31     -0.13
    1    4    6     -0.12     -0.06
    0    4    6      2.29      0.35
   17    4    5      0.13      0.28
   16    4    5      0.21     -0.03
   15    4    5     -0.37      0.46
   14    4    5      0.33     -0.04
   13    4    5     -0.94      0.28
   12    4    5     -0.03      0.16
   11    4    5     -0.93      0.46
   10    4    5     -0.01      0.59
    9    4    5     -0.94      0.06
    8    4    5      0.32      0.57
    7    4    5     -1.13     -0.44
    6    4    5     -0.40     -0.04
    5    4    5     -1.14      0.00
    4    4    5     -0.63     -0.28
    3    4    5     -0.98      0.28
    2    4    5     -0.07      0.28
    1    4    5     -0.91     -0.39
   17    4    4     -0.16      0.09
   16    4    4      0.07      0.07
   15    4    4      0.10     -0.12
   14    4    4      0.16      0.34
   13    4    4      0.09     -0.28
   12    4    4      0.28      0.28
   11    4    4     -0.05     -0.14
   10    4    4      0.14      0.20
    9    4    4      0.20     -0.32
    8    4    4     -0.12      0.55
    7    4    4      0.47      0.14
    6    4    4      0.29      1.05
    5    4    4      0.39      0.56
    4    4    4      0.86      0.98
    3    4    4      0.60     -0.17
    2    4    4      0.53      0.59
    1    4    4      0.37     -0.32
    0    4    4     -0.01      0.54
   18    4    3     -0.01     -0.18
   17    4    3      0.12      0.19
   16    4    3      0.04     -0.04
   15    4    3      0.44      0.25
   14    4    3     -0.10     -0.12
   13    4    3      0.35      0.07
   12    4    3     -0.04      0.35
   11    4    3     -0.01     -0.08
   10    4    3      0.28      0.38
    9    4    3      0.14      0.02
    8    4    3      0.31     -0.24
    7    4    3      0.68     -0.23
    6    4    3      0.41     -0.45
    5    4    3      0.77     -0.85
    4    4    3     -0.24     -0.64
    3    4    3      0.29     -0.87
    2    4    3     -0.67     -0.59
    1    4    3      0.43      0.56
   19    4    2     -0.32      0.44
   18    4    2      0.12      0.18
   17    4    2     -0.01      0.30
   16    4    2      0.02     -0.25
   15    4    2     -0.01     -0.06
   14    4    2     -0.14     -0.47
   13    4    2      0.07     -0.07
   12    4    2     -0.36     -0.05
   11    4    2      0.35     -0.55
   10    4    2     -0.71      0.03
    9    4    2     -0.02     -0.84
    8    4    2     -1.15     -0.87
    7    4    2     -0.20     -0.76
    6    4    2     -1.19     -1.56
    5    4    2     -0.64     -0.38
    4    4    2     -1.37     -0.81
    3    4    2     -1.12      0.26
    2    4    2     -0.13     -0.44
    1    4    2     -0.49      0.24
    0    4    2      1.42     -0.90
   19    4    1      0.17     -0.17
   18    4    1      0.46     -0.20
   17    4    1      0.08      0.02
   16    4    1      0.07     -0.16
   15    4    1     -0.22      0.62
   14    4    1     -0.05      0.00
   13    4    1     -0.27      0.84
   12    4    1     -0.22      0.07
   11    4    1      0.05      1.12
   10    4    1     -0.77      0.40
    9    4    1     -0.20      2.18
    8    4    1     -0.84      0.49
    7    4    1     -1.14      2.94
    6    4    1     -0.71      0.71
    5    4    1     -1.36      2.89
    4    4    1     -0.32      2.04
    3    4    1     -0.73      2.19
    2    4    1      0.01      1.67
    1    4    1     -0.79     -0.51
   19    4    0     -0.44      0.02
   18    4    0     -0.17      0.02
   17    4    0     -0.27     -0.01
   16    4    0      0.51     -0.01
   15    4    0     -0.11      0.00
   14    4    0      1.15     -0.02
   13    4    0      0.03      0.00
   12    4    0      1.34      0.01
   11    4    0      0.47      0.02
   10    4    0      1.92      0.05
    9    4    0      0.95     -0.01
    8    4    0      3.28      0.00
    7    4    0      0.73      0.01
    6    4    0      3.73     -0.07
    5    4    0      1.91      0.08
    4    4    0      3.75      0.02
    3    4    0      2.76     -0.05
    2    4    0      1.61      0.01
    1    4    0      1.09      0.00
    0    4    0     -0.69     -0.01
    1    5   15     -0.08     -0.34
    2    5   15      0.02      0.18
    3    5   15     -0.13     -0.58
    4    5   14     -0.22      0.15
    3    5   14      0.00     -0.21
    2    5   14     -0.40      0.48
    1    5   14     -0.12     -0.11
    5    5   14      0.03     -0.33
    6    5   14      0.13     -0.17
    7    5   14     -0.17     -0.10
    8    5   14     -0.07     -0.12
    7    5   13     -0.12      0.08
    6    5   13      0.04      0.13
    5    5   13     -0.09     -0.13
    4    5   13     -0.19      0.29
    3    5   13      0.30     -0.03
    2    5   13     -0.10      0.57
    1    5   13      0.24      0.00
    0    5   13      0.01      0.61
    8    5   13      0.35      0.28
    9    5   13     -0.07      0.18
    8    5   12      0.31     -0.12
    7    5   12     -0.13     -0.55
    6    5   12     -0.07     -0.08
    5    5   12      0.11     -0.15
    4    5   12     -0.29     -0.02
    3    5   12      0.44     -0.01
    2    5   12     -0.13      0.00
    1    5   12      0.37     -0.53
    9    5   12     -0.27     -0.52
   10    5   12      0.14     -0.11
   11    5   12     -0.36     -0.41
   10    5   11     -0.26      0.63
    9    5   11     -0.30     -0.12
    8    5   11     -0.48      0.72
    7    5   11     -0.21     -0.15
    6    5   11     -0.58      0.32
    5    5   11      0.07      0.25
    4    5   11     -0.05     -0.16
    3    5   11      0.37      0.10
    2    5   11      0.08      0.18
    1    5   11      0.25     -0.04
    0    5   11     -0.18      0.50
   11    5   11     -0.24      0.08
   12    5   11     -0.14      0.20
   11    5   10      0.04      0.33
   10    5   10      0.08     -0.02
    9    5   10      0.53      0.21
    8    5   10     -0.25     -0.13
    7    5   10      0.52      0.17
    6    5   10     -0.28     -0.19
    5    5   10      0.02      0.20
    4    5   10     -0.28     -0.46
    3    5   10     -0.03     -0.22
    2    5   10     -0.39     -0.48
    1    5   10      0.32     -0.39
   12    5   10      0.00      0.00
   13    5   10      0.05      0.16
   13    5    9      0.12     -0.08
   12    5    9      0.29     -0.02
   11    5    9     -0.10      0.18
   10    5    9      0.75      0.08
    9    5    9     -0.26      0.63
    8    5    9      0.32      0.10
    7    5    9     -0.26      0.79
    6    5    9      0.13      0.47
    5    5    9     -0.30      0.63
    4    5    9      0.27      0.34
    3    5    9     -0.38      0.51
    2    5    9      0.15     -0.36
    1    5    9     -0.12      0.24
    0    5    9      0.07     -0.70
   14    5    9     -0.12     -0.36
   14    5    8     -0.37     -0.16
   13    5    8     -0.09      0.07
   12    5    8     -0.08      0.04
   11    5    8      0.08     -0.58
   10    5    8      0.50     -0.25
    9    5    8     -0.02     -0.91
    8    5    8      0.61     -0.22
    7    5    8      0.05     -0.54
    6    5    8      0.60      0.19
    5    5    8      0.25     -0.63
    4    5    8      0.50      0.52
    3    5    8     -0.42     -0.58
    2    5    8      0.30      0.31
    1    5    8     -1.28     -0.29
   15    5    7     -0.18      0.17
   14    5    7     -0.08      0.12
   13    5    7      0.06      0.12
   12    5    7     -0.20      0.20
   11    5    7      0.03     -0.12
   10    5    7     -0.51      0.20
    9    5    7     -0.15     -0.01
    8    5    7     -0.13      0.87
    7    5    7      0.20     -0.13
    6    5    7      0.18      0.81
    5    5    7      0.48     -0.47
    4    5    7     -0.02      0.49
    3    5    7      0.37     -0.38
    2    5    7     -0.19      1.17
    1    5    7      0.07     -0.14
    0    5    7     -0.12      1.79
   15    5    6     -0.19     -0.18
   14    5    6      0.02      0.29
   13    5    6      0.21     -0.26
   12    5    6     -0.24     -0.04
   11    5    6      0.42     -0.18
   10    5    6     -0.46     -0.27
    9    5    6      0.86     -0.56
    8    5    6     -0.30     -0.33
    7    5    6      1.10     -1.08
    6    5    6     -0.34     -0.38
    5    5    6      0.18     -1.05
    4    5    6     -0.11     -0.36
    3    5    6      0.28     -0.69
    2    5    6      0.07     -0.22
    1    5    6      1.39     -0.67
   16    5    5     -0.10      0.49
   15    5    5      0.20     -0.02
   14    5    5     -0.35      0.54
   13    5    5      0.37      0.05
   12    5    5     -0.37     -0.10
   11    5    5      0.10      0.60
   10    5    5     -0.87     -0.43
    9    5    5      0.07      0.65
    8    5    5     -1.29     -0.55
    7    5    5     -0.07      0.32
    6    5    5     -1.11      0.17
    5    5    5     -0.30      0.26
    4    5    5     -0.86      0.60
    3    5    5     -0.50      0.10
    2    5    5     -1.09      0.13
    1    5    5     -0.27      0.08
    0    5    5     -1.47     -0.22
   17    5    4      0.24     -0.03
   16    5    4     -0.09      0.10
   15    5    4      0.55      0.23
   14    5    4     -0.12     -0.34
   13    5    4      0.15      0.23
   12    5    4     -0.07     -0.39
   11    5    4     -0.35      0.34
   10    5    4      0.21     -0.23
    9    5    4     -0.10      0.70
    8    5    4      0.07      0.04
    7    5    4      0.54      0.57
    6    5    4      0.36      0.02
    5    5    4      0.76      0.59
    4    5    4      0.64     -0.23
    3    5    4      0.51      0.55
    2    5    4      0.54     -0.15
    1    5    4      0.84      0.84
   17    5    3      0.11      0.10
   16    5    3      0.15     -0.37
   15    5    3     -0.02      0.10
   14    5    3      0.48     -0.37
   13    5    3     -0.15      0.33
   12    5    3      0.28      0.15
   11    5    3      0.04      0.35
   10    5    3      0.30      0.40
    9    5    3      0.24      0.05
    8    5    3      0.24     -0.13
    7    5    3      0.07     -0.33
    6    5    3      0.49     -0.53
    5    5    3     -0.66     -0.57
    4    5    3      0.55     -0.30
    3    5    3     -0.99     -0.48
    2    5    3      0.22     -0.59
    1    5    3     -0.46     -0.29
    0    5    3      0.21     -1.12
   18    5    2      0.09      0.16
   17    5    2     -0.25      0.06
   16    5    2      0.22      0.05
   15    5    2     -0.53     -0.21
   14    5    2     -0.03     -0.01
   13    5    2     -0.48     -0.22
   12    5    2      0.14     -0.22
   11    5    2     -0.16     -0.16
   10    5    2      0.09     -0.29
    9    5    2     -0.27     -0.57
    8    5    2     -0.25     -0.11
    7    5    2     -0.55     -1.08
    6    5    2     -0.57      0.23
    5    5    2     -0.38     -1.30
    4    5    2     -0.62      0.54
    3    5    2     -0.59     -0.57
    2    5    2     -0.67      0.58
    1    5    2     -1.25     -0.13
   18    5    1      0.06      0.07
   17    5    1      0.14     -0.55
   16    5    1      0.06      0.43
   15    5    1      0.07     -0.12
   14    5    1     -0.03      0.58
   13    5    1      0.04      0.24
   12    5    1      0.06      0.67
   11    5    1     -0.06      0.02
   10    5    1     -0.17      0.90
    9    5    1     -0.06      0.12
    8    5    1     -0.76      1.42
    7    5    1     -0.12      0.76
    6    5    1     -1.32      1.28
    5    5    1     -0.20      1.41
    4    5    1     -1.04      1.37
    3    5    1      0.05      1.71
    2    5    1     -0.46      2.04
    1    5    1      0.15      0.89
    0    5    1     -0.35      2.39
   18    5    0     -0.54      0.02
   17    5    0      0.23      0.00
   16    5    0     -0.49      0.05
   15    5    0      0.53      0.01
   14    5    0      0.12     -0.02
   13    5    0      0.70      0.03
   12    5    0      0.04     -0.05
   11    5    0      0.93     -0.01
   10    5    0     -0.05     -0.02
    9    5    0      1.49      0.01
    8    5    0      0.58      0.03
    7    5    0      1.84      0.02
    6    5    0      1.66      0.02
    5    5    0      1.78      0.00
    4    5    0      2.30      0.01
    3    5    0      2.44     -0.03
    2    5    0      1.98     -0.01
    1    5    0      3.07      0.03
   10    5   13      0.37      0.11
    9    5   14     -0.21      0.08
    3    6   13     -0.06      0.09
    2    6   13     -0.01      0.20
    1    6   13     -0.08      0.37
    4    6   13      0.09     -0.16
    5    6   13     -0.13     -0.25
    6    6   13      0.04     -0.20
    6    6   12     -0.10      0.03
    5    6   12     -0.21     -0.54
    4    6   12     -0.13      0.02
    3    6   12      0.13     -0.14
    2    6   12      0.06     -0.31
    1    6   12      0.21      0.18
    0    6   12      0.05     -0.45
    7    6   12      0.00     -0.24
    8    6   12     -0.13     -0.15
    8    6   11     -0.30      0.07
    7    6   11     -0.34      0.19
    6    6   11     -0.86      0.16
    5    6   11     -0.36      0.18
    4    6   11     -0.78      0.05
    3    6   11     -0.16      0.20
    2    6   11      0.05     -0.19
    1    6   11      0.02      0.17
    9    6   11     -0.39      0.53
   10    6   11     -0.04      0.03
   10    6   10      0.52      0.52
    9    6   10      0.14     -0.09
    8    6   10      0.54      0.31
    7    6   10      0.18      0.40
    6    6   10      0.33      0.20
    5    6   10      0.05      0.81
    4    6   10      0.28      0.16
    3    6   10     -0.16      0.25
    2    6   10     -0.11     -0.06
    1    6   10     -0.07     -0.18
    0    6   10     -0.44     -0.11
   11    6   10     -0.06     -0.24
   11    6    9      0.40     -0.18
   10    6    9     -0.20      0.35
    9    6    9      0.51     -0.25
    8    6    9      0.06      0.34
    7    6    9      0.03      0.15
    6    6    9      0.40      0.32
    5    6    9      0.01      0.42
    4    6    9      0.24      0.44
    3    6    9      0.04      0.20
    2    6    9     -0.22      0.38
    1    6    9      0.35     -0.08
   12    6    9     -0.07      0.06
   12    6    8     -0.08     -0.01
   11    6    8      0.08     -0.16
   10    6    8      0.19     -0.51
    9    6    8      0.46     -0.54
    8    6    8      0.21     -0.63
    7    6    8      0.37     -0.68
    6    6    8      0.43     -0.63
    5    6    8      0.40     -0.32
    4    6    8      0.50     -0.51
    3    6    8      0.78      0.23
    2    6    8     -0.24     -0.11
    1    6    8      0.49      0.16
    0    6    8     -0.90     -0.15
   13    6    8     -0.23     -0.20
   13    6    7     -0.02      0.28
   12    6    7     -0.20      0.28
   11    6    7     -0.26     -0.17
   10    6    7     -0.32      0.12
    9    6    7     -0.76     -0.19
    8    6    7     -0.54      0.02
    7    6    7     -0.63      0.60
    6    6    7     -0.25      0.23
    5    6    7     -0.31      0.49
    4    6    7      0.21     -0.25
    3    6    7      0.07      0.21
    2    6    7      0.17     -0.82
    1    6    7      0.12      0.82
   14    6    6      0.25      0.05
   13    6    6      0.12      0.24
   12    6    6      0.39      0.06
   11    6    6      0.19     -0.11
   10    6    6      0.16      0.31
    9    6    6     -0.21     -0.09
    8    6    6      0.81      0.25
    7    6    6     -0.09      0.04
    6    6    6      0.99     -0.52
    5    6    6      0.19     -0.34
    4    6    6      0.06     -1.01
    3    6    6     -0.21     -0.60
    2    6    6      0.23     -0.80
    1    6    6     -0.29     -0.18
    0    6    6      0.83     -0.54
   15    6    5     -0.13      0.01
   14    6    5      0.25      0.05
   13    6    5      0.03     -0.38
   12    6    5     -0.06      0.09
   11    6    5     -0.13     -0.56
   10    6    5     -0.23      0.37
    9    6    5     -0.35     -0.42
    8    6    5      0.24      0.36
    7    6    5     -0.64     -0.48
    6    6    5      0.31     -0.02
    5    6    5     -0.95      0.33
    4    6    5     -0.54      0.17
    3    6    5     -0.92      0.82
    2    6    5     -0.74      0.32
    1    6    5     -0.97      0.14
   16    6    4      0.24      0.31
   15    6    4     -0.09     -0.28
   14    6    4      0.03      0.31
   13    6    4      0.04     -0.16
   12    6    4     -0.66      0.14
   11    6    4      0.25      0.01
   10    6    4     -0.38      0.30
    9    6    4      0.10     -0.05
    8    6    4      0.30      0.23
    7    6    4     -0.32     -0.46
    6    6    4      0.44      0.25
    5    6    4      0.09     -0.30
    4    6    4      0.60      0.22
    3    6    4      0.46      0.16
    2    6    4      0.63      0.39
    1    6    4      0.15      0.18
    0    6    4      0.55      0.78
   17    6    3      0.06     -0.31
   16    6    3     -0.15      0.22
   15    6    3      0.46     -0.56
   14    6    3     -0.05      0.21
   13    6    3      0.42     -0.16
   12    6    3      0.11      0.12
   11    6    3      0.31      0.56
   10    6    3      0.09      0.07
    9    6    3      0.01      0.23
    8    6    3     -0.12      0.16
    7    6    3     -0.13     -0.10
    6    6    3     -0.43      0.02
    5    6    3      0.21      0.01
    4    6    3     -0.34     -0.24
    3    6    3      0.27     -0.21
    2    6    3     -0.18      0.09
    1    6    3      0.43     -0.71
   17    6    2      0.17      0.07
   16    6    2     -0.49     -0.03
   15    6    2      0.13      0.04
   14    6    2     -0.78     -0.04
   13    6    2      0.02     -0.30
   12    6    2     -0.36     -0.06
   11    6    2      0.01     -0.33
   10    6    2      0.37     -0.43
    9    6    2     -0.07      0.05
    8    6    2      0.35     -0.63
    7    6    2     -0.15      0.44
    6    6    2      0.17     -0.87
    5    6    2     -0.28      0.11
    4    6    2     -0.33     -0.79
    3    6    2     -0.16     -0.08
    2    6    2     -1.13     -0.52
    1    6    2      0.12     -0.04
    0    6    2     -1.53     -0.45
   17    6    1      0.11      0.22
   16    6    1      0.08     -0.19
   15    6    1      0.26      0.21
   14    6    1     -0.01      0.01
   13    6    1      0.43      0.47
   12    6    1     -0.16      0.12
   11    6    1     -0.03      0.27
   10    6    1      0.00      0.17
    9    6    1     -0.78      0.20
    8    6    1      0.29      0.31
    7    6    1     -1.13      0.46
    6    6    1     -0.02      0.58
    5    6    1     -0.92      0.82
    4    6    1     -0.43      0.96
    3    6    1     -0.56      1.78
    2    6    1     -0.18      0.53
    1    6    1     -0.44      2.59
   16    6    0     -0.06      0.02
   15    6    0     -0.14      0.01
   14    6    0     -0.05     -0.01
   13    6    0      0.00     -0.01
   12    6    0      0.28     -0.05
   11    6    0      0.06      0.00
   10    6    0      0.41      0.01
    9    6    0      0.23     -0.02
    8    6    0      0.87      0.07
    7    6    0      0.66     -0.03
    6    6    0      1.11     -0.02
    5    6    0      1.26      0.03
    4    6    0      1.68     -0.04
    3    6    0      1.30      0.01
    2    6    0      2.85      0.04
    1    6    0      0.36      0.02
    0    6    0      3.40     -0.01
   11    6   11     -0.30      0.31
    9    6   12      0.08      0.05
   10    6   12     -0.30     -0.33
    7    6   13      0.03     -0.04
    8    6   13     -0.11      0.08
    9    6   13      0.25     -0.01
    2    7   12      0.11     -0.11
    1    7   12     -0.71     -0.85
    3    7   12     -0.45     -0.31
    5    7   11     -0.41      0.18
    4    7   11     -0.38      0.01
    3    7   11     -0.39      0.21
    2    7   11     -0.29      0.54
    1    7   11     -0.15     -0.03
    0    7   11      0.00      0.79
    6    7   11     -0.15     -0.34
    8    7   10      0.04      0.24
    7    7   10      0.13      0.49
    6    7   10      0.03      0.10
    5    7   10      0.09      0.80
    4    7   10      0.26      0.32
    3    7   10      0.07      0.63
    2    7   10      0.22      0.33
    1    7   10     -0.14      0.02
    9    7    9      0.36      0.11
    8    7    9      0.11     -0.09
    7    7    9      0.13      0.24
    6    7    9      0.44     -0.09
    5    7    9      0.03      0.22
    4    7    9      0.70     -0.10
    3    7    9      0.24     -0.12
    2    7    9      0.35     -0.05
    1    7    9      0.09     -0.08
    0    7    9      0.15      0.09
   11    7    8      0.19     -0.21
   10    7    8      0.01     -0.22
    9    7    8      0.34     -0.19
    8    7    8      0.12     -0.57
    7    7    8      0.21     -0.39
    6    7    8      0.15     -0.37
    5    7    8     -0.02     -0.76
    4    7    8      0.04     -0.30
    3    7    8     -0.20     -0.44
    2    7    8      0.12      0.01
    1    7    8     -0.11      0.18
   12    7    7     -0.09      0.20
   11    7    7      0.00      0.15
   10    7    7     -0.28     -0.15
    9    7    7     -0.17      0.09
    8    7    7     -0.48     -0.07
    7    7    7     -0.14      0.27
    6    7    7     -0.56      0.35
    5    7    7     -0.12      0.59
    4    7    7     -0.40      0.70
    3    7    7      0.11      0.19
    2    7    7     -0.02      0.32
    1    7    7      0.18     -0.21
    0    7    7      0.11     -0.11
   13    7    6      0.34     -0.05
   12    7    6      0.12      0.12
   11    7    6      0.21     -0.13
   10    7    6      0.27     -0.20
    9    7    6      0.30      0.09
    8    7    6     -0.15     -0.35
    7    7    6      0.48      0.15
    6    7    6      0.18     -0.31
    5    7    6      0.64     -0.31
    4    7    6      0.51     -0.52
    3    7    6      0.58     -0.45
    2    7    6      0.03     -0.71
    1    7    6      0.09     -0.06
   14    7    5      0.13     -0.18
   13    7    5      0.15      0.13
   12    7    5     -0.19     -0.20
   11    7    5     -0.21     -0.32
   10    7    5     -0.51     -0.19
    9    7    5     -0.47      0.01
    8    7    5     -0.41     -0.24
    7    7    5      0.08      0.30
    6    7    5     -0.36     -0.08
    5    7    5      0.08     -0.04
    4    7    5     -0.58      0.05
    3    7    5     -0.70     -0.04
    2    7    5     -0.27      0.07
    1    7    5     -0.54      0.11
    0    7    5     -0.05      0.11
   15    7    4      0.00     -0.27
   14    7    4      0.06     -0.08
   13    7    4     -0.18     -0.17
   12    7    4     -0.09     -0.01
   11    7    4     -0.08      0.35
   10    7    4     -0.22      0.28
    9    7    4      0.30      0.61
    8    7    4     -0.10      0.05
    7    7    4      0.48      0.13
    6    7    4     -0.21     -0.43
    5    7    4      0.21     -0.02
    4    7    4     -0.23     -0.13
    3    7    4      0.06      0.03
    2    7    4      0.01      0.25
    1    7    4     -0.04      0.03
   16    7    3     -0.27      0.07
   15    7    3      0.00      0.05
   14    7    3     -0.28      0.11
   13    7    3      0.17      0.05
   12    7    3      0.11      0.23
   11    7    3      0.00      0.38
   10    7    3      0.40     -0.05
    9    7    3      0.00      0.41
    8    7    3     -0.03     -0.47
    7    7    3     -0.05      0.17
    6    7    3     -0.36     -0.15
    5    7    3      0.02      0.28
    4    7    3      0.15      0.16
    3    7    3     -0.03      0.39
    2    7    3      0.33     -0.02
    1    7    3     -0.07      0.15
    0    7    3      0.43      0.02
   16    7    2     -0.02      0.14
   15    7    2      0.00      0.19
   14    7    2     -0.08     -0.14
   13    7    2      0.00      0.01
   12    7    2      0.22     -0.26
   11    7    2      0.17     -0.40
   10    7    2      0.54     -0.11
    9    7    2      0.16     -0.49
    8    7    2      0.19      0.07
    7    7    2     -0.04     -0.09
    6    7    2     -0.07     -0.15
    5    7    2     -0.07     -0.24
    4    7    2      0.21     -0.28
    3    7    2     -0.66     -0.50
    2    7    2      0.19      0.06
    1    7    2     -0.80     -0.45
   15    7    1      0.13      0.01
   14    7    1      0.17      0.07
   13    7    1     -0.12     -0.12
   12    7    1     -0.07      0.05
   11    7    1     -0.26     -0.18
   10    7    1     -0.60     -0.05
    9    7    1     -0.09     -0.07
    8    7    1     -0.77      0.34
    7    7    1     -0.02      0.18
    6    7    1     -0.38      0.59
    5    7    1     -0.29      0.08
    4    7    1     -0.20      0.84
    3    7    1     -0.09     -0.02
    2    7    1     -0.12      1.48
    1    7    1      0.10      0.07
    0    7    1     -0.20      1.39
   15    7    0     -0.06      0.01
   14    7    0     -0.19      0.03
   13    7    0     -0.01      0.00
   12    7    0     -0.12      0.03
   11    7    0      0.05     -0.05
   10    7    0      0.09      0.02
    9    7    0      0.50      0.02
    8    7    0      0.23     -0.02
    7    7    0      1.11      0.01
    6    7    0      0.24      0.00
    5    7    0      0.85      0.01
    4    7    0      0.03     -0.01
    3    7    0      1.29      0.03
    2    7    0      0.09      0.02
    1    7    0      1.67      0.04
   10    7    9      0.01      0.07
   11    7    9     -0.11      0.06
    9    7   10      0.19      0.13
   10    7   10     -0.05      0.06
    7    7   11     -0.20     -0.02
    8    7   11      0.02     -0.18
    9    7   11     -0.12      0.03
   10    7   11      0.05      0.05
    4    7   12     -0.13     -0.30
    5    7   12     -0.18      0.42
    6    7   12     -0.02     -0.22
    7    7   12     -0.01      0.54
    8    7   12     -0.02      0.03
    9    7   12      0.02      0.37
    3    8   10     -0.13      0.21
    2    8   10     -0.35      0.53
    1    8   10     -0.13      0.37
    0    8   10     -0.69      0.46
    6    8    9     -0.43      0.07
    5    8    9      0.72     -0.25
    4    8    9     -0.04      0.08
    3    8    9      0.76     -0.14
    2    8    9      0.60     -0.06
    1    8    9      0.33      0.12
    8    8    8      0.21      0.07
    7    8    8      0.01     -0.10
    6    8    8     -0.10     -0.14
    5    8    8      0.09      0.05
    4    8    8     -0.32     -0.61
    3    8    8      0.01     -0.23
    2    8    8     -0.22     -0.14
    1    8    8     -0.03     -0.14
    0    8    8      0.09      0.40
   10    8    7      0.01     -0.09
    9    8    7     -0.22     -0.09
    8    8    7     -0.01      0.06
    7    8    7     -0.04     -0.07
    6    8    7      0.11      0.33
    5    8    7     -0.27      0.21
    4    8    7      0.06      0.05
    3    8    7     -0.43      0.44
    2    8    7      0.04     -0.17
    1    8    7      0.20      0.04
   11    8    6      0.20     -0.27
   10    8    6      0.13      0.27
    9    8    6     -0.04     -0.33
    8    8    6      0.27      0.20
    7    8    6      0.09     -0.33
    6    8    6      0.28      0.02
    5    8    6      0.01     -0.26
    4    8    6      0.42      0.22
    3    8    6     -0.24     -0.25
    2    8    6      0.38      0.06
    1    8    6     -0.11     -0.11
    0    8    6      0.08     -0.30
   12    8    5     -0.38     -0.34
   11    8    5      0.20      0.09
   10    8    5     -0.67     -0.09
    9    8    5      0.20     -0.42
    8    8    5     -0.39      0.05
    7    8    5     -0.11     -0.63
    6    8    5      0.23      0.06
    5    8    5     -0.19     -0.31
    4    8    5      0.10      0.21
    3    8    5      0.03     -0.09
    2    8    5     -0.13      0.09
    1    8    5     -0.15      0.07
   13    8    4     -0.19      0.33
   12    8    4      0.28     -0.17
   11    8    4      0.02      0.52
   10    8    4     -0.03     -0.09
    9    8    4      0.18      0.42
    8    8    4     -0.49      0.30
    7    8    4     -0.17     -0.13
    6    8    4     -0.45      0.38
    5    8    4     -0.35     -0.45
    4    8    4      0.05      0.06
    3    8    4     -0.28     -0.06
    2    8    4      0.12     -0.14
    1    8    4     -0.15     -0.05
    0    8    4      0.13     -0.03
   14    8    3      0.22     -0.12
   13    8    3     -0.14      0.04
   12    8    3      0.18     -0.02
   11    8    3     -0.13     -0.21
   10    8    3     -0.08      0.04
    9    8    3      0.17     -0.12
    8    8    3     -0.04      0.12
    7    8    3      0.29      0.20
    6    8    3     -0.02      0.30
    5    8    3      0.23      0.13
    4    8    3      0.22      0.50
    3    8    3      0.02     -0.12
    2    8    3      0.10      0.35
    1    8    3     -0.02     -0.14
   14    8    2      0.19     -0.24
   13    8    2     -0.04      0.05
   12    8    2     -0.10     -0.03
   11    8    2      0.46     -0.03
   10    8    2     -0.13      0.03
    9    8    2      0.47     -0.05
    8    8    2      0.00     -0.06
    7    8    2      0.15     -0.05
    6    8    2      0.02     -0.11
    5    8    2      0.12     -0.19
    4    8    2     -0.29     -0.18
    3    8    2      0.16     -0.29
    2    8    2     -0.48      0.02
    1    8    2     -0.04      0.01
    0    8    2     -0.53      0.07
   14    8    1      0.23     -0.09
   13    8    1     -0.15      0.29
   12    8    1     -0.18     -0.31
   11    8    1     -0.01      0.10
   10    8    1     -0.47     -0.22
    9    8    1     -0.17     -0.01
    8    8    1     -0.24     -0.16
    7    8    1     -0.13      0.18
    6    8    1      0.06     -0.19
    5    8    1      0.02      0.33
    4    8    1     -0.01     -0.26
    3    8    1      0.13      0.51
    2    8    1      0.07      0.11
    1    8    1      0.20      0.73
   13    8    0     -0.25      0.02
   12    8    0      0.25     -0.01
   11    8    0      0.09      0.03
   10    8    0      0.05      0.01
    9    8    0      0.23      0.00
    8    8    0      0.31      0.02
    7    8    0     -0.20     -0.03
    6    8    0      0.40     -0.02
    5    8    0     -0.47     -0.03
    4    8    0      0.30      0.02
    3    8    0     -0.29      0.01
    2    8    0      0.58      0.03
    1    8    0      0.14     -0.03
    0    8    0      0.84      0.02
    9    8    8      0.07     -0.31
   10    8    8      0.23      0.02
    7    8    9      0.20     -0.26
    8    8    9      0.15     -0.02
    9    8    9     -0.16     -0.03
    4    8   10     -0.09      0.75
    5    8   10      0.13     -0.44
    6    8   10      0.07      0.69
    7    8   10      0.23     -0.18
    8    8   10      0.21      0.34
    9    8   10      0.11      0.16
    3    9    8     -0.12     -0.07
    2    9    8     -0.13     -0.30
    1    9    8      0.06      0.32
    6    9    7      0.06     -0.43
    5    9    7     -0.06      0.11
    4    9    7     -0.11     -0.21
    3    9    7     -0.31     -0.09
    2    9    7     -0.02      0.00
    1    9    7     -0.13     -0.07
    0    9    7      0.13      0.07
    8    9    6     -0.03      0.01
    7    9    6     -0.21      0.23
    6    9    6     -0.10     -0.08
    5    9    6     -0.11      0.42
    4    9    6     -0.15      0.04
    3    9    6      0.10      0.36
    2    9    6     -0.04      0.22
    1    9    6      0.24      0.02
   10    9    5      0.22     -0.07
    9    9    5     -0.14     -0.09
    8    9    5      0.34     -0.13
    7    9    5      0.25      0.12
    6    9    5      0.16     -0.36
    5    9    5      0.27      0.20
    4    9    5      0.07     -0.35
    3    9    5      0.05      0.05
    2    9    5      0.00     -0.16
    1    9    5      0.01     -0.15
    0    9    5      0.01     -0.18
   11    9    4     -0.06     -0.10
   10    9    4      0.11      0.24
    9    9    4     -0.24     -0.13
    8    9    4      0.05     -0.06
    7    9    4     -0.43      0.18
    6    9    4     -0.15     -0.51
    5    9    4     -0.24      0.35
    4    9    4     -0.20     -0.16
    3    9    4      0.11      0.25
    2    9    4     -0.23      0.11
    1    9    4     -0.07      0.02
   12    9    3     -0.08      0.12
   11    9    3     -0.15     -0.16
   10    9    3      0.07      0.05
    9    9    3     -0.05     -0.12
    8    9    3      0.32      0.00
    7    9    3     -0.18      0.04
    6    9    3      0.40     -0.04
    5    9    3     -0.09      0.39
    4    9    3      0.21     -0.24
    3    9    3      0.17      0.37
    2    9    3      0.08     -0.13
    1    9    3      0.04      0.19
    0    9    3     -0.07      0.11
   12    9    2      0.24      0.23
   11    9    2      0.05      0.01
   10    9    2      0.31      0.00
    9    9    2     -0.08     -0.06
    8    9    2      0.08     -0.07
    7    9    2     -0.35     -0.10
    6    9    2      0.09      0.04
    5    9    2     -0.41     -0.08
    4    9    2      0.37     -0.08
    3    9    2     -0.23     -0.08
    2    9    2      0.34     -0.02
    1    9    2      0.01      0.04
   11    9    1     -0.35     -0.23
   10    9    1     -0.01     -0.15
    9    9    1     -0.44     -0.12
    8    9    1      0.00      0.14
    7    9    1     -0.05     -0.07
    6    9    1      0.10      0.51
    5    9    1      0.20     -0.38
    4    9    1      0.05      0.42
    3    9    1      0.16     -0.60
    2    9    1     -0.04      0.17
    1    9    1      0.07     -0.31
    0    9    1      0.02      0.17
   11    9    0     -0.03      0.00
   10    9    0      0.25      0.03
    9    9    0     -0.08      0.01
    8    9    0      0.04      0.01
    7    9    0      0.40      0.01
    6    9    0     -0.37     -0.06
    5    9    0      0.49     -0.01
    4    9    0     -0.80     -0.14
    3    9    0      0.29      0.03
    2    9    0     -0.71     -0.03
    1    9    0      0.28     -0.03
    9    9    6      0.07      0.15
    7    9    7     -0.06      0.02
    8    9    7     -0.06     -0.15
    9    9    7     -0.17     -0.05
    4    9    8     -0.08     -0.35
    5    9    8     -0.06     -0.07
    6    9    8      0.07     -0.12
    7    9    8      0.13      0.09
    8    9    8      0.15     -0.24
    3    9    9      0.52     -0.15
    4    9    9      0.53     -0.05
    5    9    9      0.07      0.01
    6    9    9      0.39     -0.07
    6   10    5      0.08      0.28
    5   10    5     -0.01     -0.24
    4   10    5     -0.17      0.07
    3   10    5      0.03     -0.12
    2   10    5     -0.17     -0.35
    1   10    5      0.25     -0.19
    8   10    4      0.03      0.19
    7   10    4     -0.03     -0.22
    6   10    4     -0.30      0.16
    5   10    4      0.13     -0.09
    4   10    4     -0.09      0.19
    3   10    4     -0.11      0.31
    2   10    4      0.30      0.08
    1   10    4     -0.17      0.23
    0   10    4      0.16      0.01
    9   10    3      0.32     -0.39
    8   10    3      0.13      0.16
    7   10    3      0.33     -0.07
    6   10    3     -0.13      0.09
    5   10    3      0.10      0.32
    4   10    3      0.07      0.06
    3   10    3     -0.06     -0.02
    2   10    3      0.21      0.08
    1   10    3     -0.12     -0.37
    9   10    2      0.23     -0.26
    8   10    2     -0.38     -0.06
    7   10    2      0.17     -0.12
    6   10    2     -0.01     -0.11
    5   10    2      0.11      0.00
    4   10    2      0.35     -0.26
    3   10    2      0.12     -0.08
    2   10    2      0.07     -0.05
    1   10    2      0.04     -0.03
    0   10    2     -0.15      0.15
    9   10    1      0.09      0.07
    8   10    1     -0.27     -0.28
    7   10    1      0.13      0.09
    6   10    1     -0.01     -0.12
    5   10    1     -0.18      0.08
    4   10    1      0.00     -0.08
    3   10    1     -0.36      0.06
    2   10    1     -0.01     -0.08
    1   10    1     -0.12      0.14
    8   10    0     -0.09     -0.02
    7   10    0     -0.25     -0.01
    6   10    0      0.12      0.00
    5   10    0     -0.08     -0.05
    4   10    0      0.30      0.01
    3   10    0     -0.09     -0.05
    2   10    0      0.34     -0.02
    1   10    0     -0.05      0.03
    0   10    0      0.30      0.01
    7   10    5      0.10     -0.06
    0   10    6      0.44      0.61
    1   10    6      0.14      0.13
    2   10    6      0.10      0.49
    3   10    6      0.12      0.09
    4   10    6     -0.31      0.10
    5   10    6     -0.12     -0.16
    6   10    6     -0.42      0.03
    7   10    6     -0.11     -0.13
    5   10    7      0.70     -0.65
    4   11    2      0.39     -0.25
    3   11    2      0.41     -0.09
    2   11    2      0.24     -0.18
    1   11    2      0.20     -0.04
    4   11    1     -0.19     -0.17
    3   11    1     -0.28     -0.12
    2   11    1     -0.30     -0.09
    1   11    1     -0.08     -0.05
    0   11    1     -0.16      0.01
    4   11    0      0.09      0.01
    3   11    0      0.03     -0.01
    2   11    0      0.03     -0.02
    1   11    0      0.17     -0.04
    0   11    3     -0.02     -0.05
    1   11    3      0.06      0.07
    2   11    3     -0.16     -0.19
    3   11    3      0.19      0.33
    4   11    3     -0.41      0.01
    3   11    4      0.70      0.15
    4   11    4     -0.16      0.21
    0    1    1    -12.94     30.99
    2    0    2    -10.10     -8.67
    0    0    0      0.00      0.00
# SQUEEZE RESULTS (Version = 290617)
# Note: Data are Listed for all Voids in the P1 Unit Cell
# i.e. Centre of Gravity, Solvent Accessible Volume,
# Recovered number of Electrons in the Void and
# Details about the Squeezed Material
loop_
  _platon_squeeze_void_nr
  _platon_squeeze_void_average_x
  _platon_squeeze_void_average_y
  _platon_squeeze_void_average_z
  _platon_squeeze_void_volume
  _platon_squeeze_void_count_electrons
  _platon_squeeze_void_content
   1  0.000 -0.017  0.318       161        43 ' '
   2  0.500 -0.057  0.818       161        43 ' '
# Missing Reflections Below sin(th)/lambda = 0.25
loop_
  _platon_missing_refln_index_h
  _platon_missing_refln_index_k
  _platon_missing_refln_index_l
  _platon_missing_refln_theta
    0    1    1     3.502
    2    0    2     4.990
_platon_squeeze_void_probe_radius                  1.20
_platon_squeeze_details
)
TITL Co_0_5_a.res in Pnn2
CELL   12.2000    6.7830   10.7070     90.00     90.00     90.00
SPGR Pnn2
# Solvent Accessible Volume =       321
# Electrons Found in S.A.V. =        85
# Note: Atoms in Void are Labelled as Cxxx and Qxxx for all Others
C101 1.000 0.994 0.328 !       5.90 eA-3
C102 1.000 0.995 0.469 !       3.72 eA-3
C103 0.948 0.845 0.268 !       3.33 eA-3
C104 1.000 0.998 0.234 !       3.15 eA-3
C105 0.949 0.872 0.138 !       2.32 eA-3
C106 1.000 0.994 0.109 !       1.99 eA-3
Q107 1.001 0.596 0.721 !       1.40 eA-3
Q108 0.499 0.898 0.342 !       1.26 eA-3
Q109 0.438 1.008 0.328 !       1.22 eA-3
Q110 0.944 0.511 0.718 !       1.05 eA-3
Q111 0.919 0.166 0.384 !       0.98 eA-3
Q112 0.427 0.396 0.007 !       0.96 eA-3
Q113 0.413 0.655 0.886 !       0.95 eA-3
Q114 0.442 0.091 0.282 !       0.90 eA-3
Q115 0.442 0.905 0.281 !       0.81 eA-3
Q116 0.859 0.900 0.106 !       0.75 eA-3
Q117 0.500 1.000 0.281 !       0.72 eA-3
Q118 0.878 0.032 0.113 !       0.70 eA-3
C119 0.869 0.991 0.307 !       0.63 eA-3
Q120 0.125 0.029 0.195 !       0.63 eA-3
Q121 0.595 0.383 0.008 !       0.60 eA-3
Q122 0.890 0.753 0.392 !       0.54 eA-3
Q123 0.924 0.849 0.547 !       0.53 eA-3
Q124 0.923 0.218 0.512 !       0.53 eA-3
Q125 0.438 0.785 0.280 !       0.52 eA-3
Q126 0.500 1.005 0.437 !       0.50 eA-3
)
;
_shelx_fab_checksum              47355
loop_
_space_group_symop_operation_xyz
'x, y, z'
'-x, -y, z'
'x+1/2, -y+1/2, z+1/2'
'-x+1/2, y+1/2, z+1/2'
loop_
_atom_site_label
_atom_site_type_symbol
_atom_site_fract_x
_atom_site_fract_y
_atom_site_fract_z
_atom_site_U_iso_or_equiv
_atom_site_adp_type
_atom_site_occupancy
_atom_site_site_symmetry_order
_atom_site_calc_flag
_atom_site_refinement_flags_posn
_atom_site_refinement_flags_adp
_atom_site_refinement_flags_occupancy
_atom_site_disorder_assembly
_atom_site_disorder_group
N2 N 0.7477(3) 0.3926(5) 0.4264(3) 0.0390(8) Uani 1 1 d . . . . .
H2A H 0.797698 0.333988 0.469086 0.047 Uiso 1 1 calc R U . . .
H3B H 0.718473 0.334549 0.363230 0.047 Uiso 1 1 calc R U . . .
C2 C 0.7170(3) 0.8722(5) 0.5832(3) 0.0285(6) Uani 1 1 d . . . . .
H2 H 0.744176 0.944573 0.650192 0.034 Uiso 1 1 calc R U . . .
C3 C 0.7575(2) 0.6840(4) 0.5603(3) 0.0227(4) Uani 1 1 d . . . . .
C4 C 0.7149(3) 0.5762(4) 0.4586(3) 0.0254(5) Uani 1 1 d . . . . .
C5 C 0.6344(2) 0.6712(5) 0.3851(3) 0.0258(5) Uani 1 1 d . . . . .
H5 H 0.605513 0.603377 0.317134 0.031 Uiso 1 1 calc R U . . .
C6 C 0.8453(2) 0.6029(5) 0.6422(3) 0.0233(5) Uani 1 1 d . . . . .
Co1 Co 0.500000 1.000000 0.27944(12) 0.02059(15) Uani 1 2 d S T P . .
O1 O 0.88738(17) 0.7148(4) 0.7258(2) 0.0259(4) Uani 1 1 d . . . . .
N1 N 0.59773(19) 0.8528(4) 0.4078(2) 0.0247(4) Uani 1 1 d . . . . .
C1 C 0.6369(3) 0.9532(6) 0.5076(3) 0.0279(6) Uani 1 1 d . . . . .
H1 H 0.609671 1.078083 0.525487 0.033 Uiso 1 1 calc R U . . .
O2 O 0.8800(2) 0.4295(4) 0.6286(2) 0.0289(5) Uani 1 1 d . . . . .
loop_
_atom_site_aniso_label
_atom_site_aniso_U_11
_atom_site_aniso_U_22
_atom_site_aniso_U_33
_atom_site_aniso_U_23
_atom_site_aniso_U_13
_atom_site_aniso_U_12
N2 0.0469(18) 0.0329(12) 0.0373(15) -0.0156(12) -0.0198(14) 0.0102(13)
C2 0.0277(12) 0.0301(12) 0.0275(12) -0.0100(11) -0.0112(11) 0.0061(10)
C3 0.0185(9) 0.0282(11) 0.0215(10) -0.0041(9) -0.0069(8) 0.0037(8)
C4 0.0228(11) 0.0302(14) 0.0233(11) -0.0054(10) -0.0075(9) 0.0023(9)
C5 0.0226(11) 0.0318(12) 0.0231(10) -0.0047(10) -0.0083(9) 0.0009(9)
C6 0.0202(10) 0.0311(11) 0.0186(9) -0.0024(9) -0.0023(9) 0.0032(9)
Co1 0.0143(2) 0.0287(3) 0.0189(2) 0.000 0.000 0.00010(14)
O1 0.0219(8) 0.0323(9) 0.0235(9) -0.0061(8) -0.0057(7) 0.0025(7)
N1 0.0181(8) 0.0326(11) 0.0235(10) -0.0015(9) -0.0064(8) 0.0028(8)
C1 0.0260(13) 0.0338(12) 0.0238(12) -0.0068(12) -0.0096(10) 0.0108(12)
O2 0.0279(11) 0.0321(12) 0.0268(10) -0.0066(9) -0.0087(9) 0.0074(9)
loop_
_atom_type_symbol
_atom_type_description
_atom_type_scat_dispersion_real
_atom_type_scat_dispersion_imag
_atom_type_scat_source
C C 0.0033 0.0016 'International Tables Vol C Tables 4.2.6.8 and 6.1.1.4'
H H 0.0000 0.0000 'International Tables Vol C Tables 4.2.6.8 and 6.1.1.4'
N N 0.0064 0.0033 'International Tables Vol C Tables 4.2.6.8 and 6.1.1.4'
O O 0.0110 0.0060 'International Tables Vol C Tables 4.2.6.8 and 6.1.1.4'
Co Co 0.3496 0.9547 'International Tables Vol C Tables 4.2.6.8 and 6.1.1.4'
loop_
_geom_angle_atom_site_label_1
_geom_angle_atom_site_label_2
_geom_angle_atom_site_label_3
_geom_angle
_geom_angle_site_symmetry_1
_geom_angle_site_symmetry_3
_geom_angle_publ_flag
C1 C2 C3 120.8(3) . . ?
C2 C3 C4 118.8(2) . . ?
C2 C3 C6 119.4(2) . . ?
C4 C3 C6 121.9(2) . . ?
N2 C4 C3 124.4(3) . . ?
N2 C4 C5 118.9(2) . . ?
C3 C4 C5 116.7(2) . . ?
N1 C5 C4 123.5(2) . . ?
O2 C6 O1 120.0(3) . . ?
O2 C6 C3 121.3(2) . . ?
O1 C6 C3 118.7(3) . . ?
O2 C6 Co1 63.35(17) . 3_565 ?
O1 C6 Co1 56.64(15) . 3_565 ?
C3 C6 Co1 174.4(2) . 3_565 ?
N1 Co1 N1 97.05(15) . 2_675 ?
N1 Co1 O1 103.01(10) . 3_464 ?
N1 Co1 O1 98.07(10) 2_675 3_464 ?
N1 Co1 O1 98.07(10) . 4_654 ?
N1 Co1 O1 103.01(10) 2_675 4_654 ?
O1 Co1 O1 147.97(14) 3_464 4_654 ?
N1 Co1 O2 163.58(10) . 3_464 ?
N1 Co1 O2 89.97(11) 2_675 3_464 ?
O1 Co1 O2 61.15(9) 3_464 3_464 ?
O1 Co1 O2 94.77(10) 4_654 3_464 ?
N1 Co1 O2 89.97(11) . 4_654 ?
N1 Co1 O2 163.58(10) 2_675 4_654 ?
O1 Co1 O2 94.77(10) 3_464 4_654 ?
O1 Co1 O2 61.15(9) 4_654 4_654 ?
O2 Co1 O2 87.28(16) 3_464 4_654 ?
N1 Co1 C6 133.71(10) . 3_464 ?
N1 Co1 C6 95.17(10) 2_675 3_464 ?
O1 Co1 C6 30.90(9) 3_464 3_464 ?
O1 Co1 C6 122.19(11) 4_654 3_464 ?
O2 Co1 C6 30.27(10) 3_464 3_464 ?
O2 Co1 C6 90.59(10) 4_654 3_464 ?
N1 Co1 C6 95.17(10) . 4_654 ?
N1 Co1 C6 133.71(11) 2_675 4_654 ?
O1 Co1 C6 122.19(11) 3_464 4_654 ?
O1 Co1 C6 30.90(9) 4_654 4_654 ?
O2 Co1 C6 90.59(10) 3_464 4_654 ?
O2 Co1 C6 30.27(10) 4_654 4_654 ?
C6 Co1 C6 107.73(14) 3_464 4_654 ?
C6 O1 Co1 92.46(18) . 3_565 ?
C5 N1 C1 119.4(2) . . ?
C5 N1 Co1 121.07(18) . . ?
C1 N1 Co1 118.9(2) . . ?
N1 C1 C2 120.8(3) . . ?
C6 O2 Co1 86.38(18) . 3_565 ?
loop_
_geom_bond_atom_site_label_1
_geom_bond_atom_site_label_2
_geom_bond_distance
_geom_bond_site_symmetry_2
_geom_bond_publ_flag
N2 C4 1.352(4) . ?
C2 C1 1.382(4) . ?
C2 C3 1.391(4) . ?
C3 C4 1.410(4) . ?
C3 C6 1.490(4) . ?
C4 C5 1.414(4) . ?
C5 N1 1.333(4) . ?
C6 O2 1.258(4) . ?
C6 O1 1.281(4) . ?
C6 Co1 2.492(3) 3_565 ?
Co1 N1 2.076(3) . ?
Co1 N1 2.076(3) 2_675 ?
Co1 O1 2.083(2) 3_464 ?
Co1 O1 2.083(2) 4_654 ?
Co1 O2 2.232(3) 3_464 ?
Co1 O2 2.232(3) 4_654 ?
N1 C1 1.354(4) . ?
