#------------------------------------------------------------------------------
#$Date: 2022-03-04 00:45:08 +0200 (Fri, 04 Mar 2022) $
#$Revision: 273284 $
#$URL: file:///home/coder/svn-repositories/cod/cif/4/00/40/4004070.cif $
#------------------------------------------------------------------------------
#
# This file is available in the Crystallography Open Database (COD),
# http://www.crystallography.net/
#
# All data on this site have been placed in the public domain by the
# contributors.
#
data_4004070
loop_
_publ_author_name
'Ma, Chuang'
'Gao, Lili'
'Xu, Zhuo'
'Li, Xiaotong'
'Song, Xin'
'Liu, Yucheng'
'Yang, Tinghuan'
'Li, Haojin'
'Du, Yachao'
'Zhao, Guangtao'
'Liu, Xinmei'
'Kanatzidis, Mercouri G.'
'Liu, Shengzhong Frank'
'Zhao, Kui'
_publ_section_title
;
 Centimeter-Sized 2D Perovskitoid Single Crystals for Efficient X-ray
 Photoresponsivity
;
_journal_issue                   4
_journal_name_full               'Chemistry of Materials'
_journal_page_first              1699
_journal_page_last               1709
_journal_paper_doi               10.1021/acs.chemmater.1c03832
_journal_volume                  34
_journal_year                    2022
_chemical_formula_moiety         'Cl4 Pb, C6 H9 N3'
_chemical_formula_sum            'C6 H9 Cl4 N3 Pb'
_chemical_formula_weight         472.15
_space_group_crystal_system      triclinic
_space_group_IT_number           2
_space_group_name_Hall           '-P 1'
_space_group_name_H-M_alt        'P -1'
_atom_sites_solution_hydrogens   geom
_atom_sites_solution_primary     dual
_audit_creation_date             2020-10-19
_audit_creation_method
;
Olex2 1.3
(compiled 2020.07.31 svn.rc2a77460 for OlexSys, GUI svn.r6145)
;
_cell_angle_alpha                105.050(5)
_cell_angle_beta                 96.330(5)
_cell_angle_gamma                115.707(5)
_cell_formula_units_Z            2
_cell_length_a                   8.7977(16)
_cell_length_b                   8.8461(16)
_cell_length_c                   9.5142(17)
_cell_measurement_reflns_used    7169
_cell_measurement_temperature    190(2)
_cell_measurement_theta_max      53.80
_cell_measurement_theta_min      4.33
_cell_volume                     622.8(2)
_computing_cell_refinement       'Bruker SAINT'
_computing_data_collection       'Bruker APEX2'
_computing_data_reduction        'Bruker SAINT'
_computing_molecular_graphics    'Olex2 1.3 (Dolomanov et al., 2009)'
_computing_publication_material  'Olex2 1.3 (Dolomanov et al., 2009)'
_computing_structure_refinement  'SHELXL 2018/3 (Sheldrick, 2015)'
_computing_structure_solution    'SHELXT 2014/5 (Sheldrick, 2014)'
_diffrn_ambient_temperature      189.99
_diffrn_measured_fraction_theta_full 0.988
_diffrn_measured_fraction_theta_max 0.987
_diffrn_measurement_device_type  'Bruker D8 VENTURE'
_diffrn_measurement_method       '\f and \w scans'
_diffrn_radiation_type           GaK\a
_diffrn_radiation_wavelength     1.34139
_diffrn_reflns_av_R_equivalents  0.0544
_diffrn_reflns_av_unetI/netI     0.0587
_diffrn_reflns_Laue_measured_fraction_full 0.988
_diffrn_reflns_Laue_measured_fraction_max 0.987
_diffrn_reflns_limit_h_max       10
_diffrn_reflns_limit_h_min       -10
_diffrn_reflns_limit_k_max       9
_diffrn_reflns_limit_k_min       -10
_diffrn_reflns_limit_l_max       11
_diffrn_reflns_limit_l_min       -11
_diffrn_reflns_number            6312
_diffrn_reflns_point_group_measured_fraction_full 0.988
_diffrn_reflns_point_group_measured_fraction_max 0.987
_diffrn_reflns_theta_full        53.594
_diffrn_reflns_theta_max         53.801
_diffrn_reflns_theta_min         4.331
_exptl_absorpt_coefficient_mu    23.442
_exptl_absorpt_correction_type   none
_exptl_crystal_density_diffrn    2.518
_exptl_crystal_description       block
_exptl_crystal_F_000             432
_exptl_crystal_size_max          0.2
_exptl_crystal_size_mid          0.18
_exptl_crystal_size_min          0.16
_refine_diff_density_max         6.286
_refine_diff_density_min         -6.357
_refine_diff_density_rms         0.548
_refine_ls_extinction_coef       0.0150(14)
_refine_ls_extinction_expression Fc^*^=kFc[1+0.001xFc^2^\l^3^/sin(2\q)]^-1/4^
_refine_ls_extinction_method     'SHELXL-2018/3 (Sheldrick 2018)'
_refine_ls_goodness_of_fit_ref   1.128
_refine_ls_hydrogen_treatment    constr
_refine_ls_matrix_type           full
_refine_ls_number_parameters     131
_refine_ls_number_reflns         2259
_refine_ls_number_restraints     72
_refine_ls_restrained_S_all      1.113
_refine_ls_R_factor_all          0.0758
_refine_ls_R_factor_gt           0.0751
_refine_ls_shift/su_max          0.000
_refine_ls_shift/su_mean         0.000
_refine_ls_structure_factor_coef Fsqd
_refine_ls_weighting_details
'w=1/[\s^2^(Fo^2^)+(0.1619P)^2^+2.5206P] where P=(Fo^2^+2Fc^2^)/3'
_refine_ls_weighting_scheme      calc
_refine_ls_wR_factor_gt          0.2028
_refine_ls_wR_factor_ref         0.2048
_reflns_Friedel_coverage         0.000
_reflns_number_gt                2210
_reflns_number_total             2259
_reflns_threshold_expression     'I > 2\s(I)'
_cod_data_source_file            cm1c03832_si_002.cif
_cod_data_source_block           a_a
_cod_database_code               4004070
_shelx_shelxl_version_number     2018/3
_shelx_space_group_comment
;
The symmetry employed for this shelxl refinement is uniquely defined
by the following loop, which should always be used as a source of
symmetry information in preference to the above space-group names.
They are only intended as comments.
;
_shelx_estimated_absorpt_t_max   0.117
_shelx_estimated_absorpt_t_min   0.089
_olex2_refinement_description
;
1. Fixed Uiso
 At 1.2 times of:
  All C(H) groups, All N(H) groups, All N(H,H) groups
2. Uiso/Uaniso restraints and constraints
Uanis(C5) \\sim Ueq, Uanis(C4) \\sim Ueq: with sigma of 0.005 and sigma for
terminal atoms of 0.01
3. Rigid body (RIGU) restrains
 N1, N2, N3, C1, C2, C3, C4, C5, C6
 with sigma for 1-2 distances of 0.001 and sigma for 1-3 distances of 0.001
4.a Aromatic/amide H refined with riding coordinates:
 N3(H3), C1(H1), C2(H2), C3(H3A), C5(H5)
4.b X=CH2 refined with riding coordinates:
 N1(H1A,H1B), N2(H2A,H2B)
;
_shelx_res_file
;
TITL A_a.res in P-1
    a_a.res
    created by SHELXL-2018/3 at 15:58:13 on 19-Oct-2020
CELL 1.34139 8.7977 8.8461 9.5142 105.05 96.33 115.707
ZERR 2 0.0016 0.0016 0.0017 0.005 0.005 0.005
LATT 1
SFAC C H Cl N Pb
DISP C 0.0148 0.007 57.7477
DISP Cl 0.3294 0.5404 4086.1782
DISP H -0 0 0.6481
DISP N 0.0253 0.0136 110.5121
DISP Pb -4.2614 7.2057 55967.372
UNIT 12 18 8 6 2
ISOR 0.005 0.01 C5 C4
RIGU 0.001 0.001 N1 > C6

L.S. 10
PLAN  5
SIZE 0.2 0.18 0.16
TEMP -83.16
CONF
BOND $H
MORE -1
fmap 2
acta
REM <olex2.extras>
REM <HklSrc "%.\\A_a.hkl">
REM </olex2.extras>

WGHT    0.161900    2.520600
EXTI    0.014972
FVAR       0.55895
PB1   5    0.765509    0.648104    0.491561    11.00000    0.01904    0.01807 =
         0.01171   -0.00009   -0.00008    0.00735
CL1   3    0.470785    0.702703    0.503239    11.00000    0.02650    0.02445 =
         0.01790    0.00287    0.00284    0.01486
CL2   3    0.909265    0.790675    0.828494    11.00000    0.03069    0.02431 =
         0.01895    0.00313    0.00616    0.01072
CL3   3    0.647973    0.488949    0.180228    11.00000    0.02896    0.03524 =
         0.01232    0.00054    0.00006    0.01716
CL5   3    1.000000    0.500000    0.500000    10.50000    0.02032    0.02779 =
         0.02727   -0.00649   -0.00385    0.01249
CL6   3    1.000000    1.000000    0.500000    10.50000    0.06824    0.02523 =
         0.04220    0.01225    0.02915    0.01180
N1    4    0.709553    1.122749    0.256655    11.00000    0.01920    0.02259 =
         0.03824   -0.00674   -0.00257    0.00462
AFIX  93
H1A   2    0.819521    1.185518    0.257477    11.00000   -1.20000
H1B   2    0.661136    1.172151    0.315661    11.00000   -1.20000
AFIX   0
N2    4    0.677891    0.875354    0.079693    11.00000    0.02518    0.02135 =
         0.02182    0.00430    0.00639    0.00826
AFIX  93
H2A   2    0.787189    0.932300    0.076317    11.00000   -1.20000
H2B   2    0.610862    0.762922    0.022031    11.00000   -1.20000
AFIX   0
N3    4    0.201359    0.589112    0.172961    11.00000    0.02126    0.01587 =
         0.01079   -0.00321    0.00057    0.00442
AFIX  43
H3    2    0.160991    0.477904    0.169881    11.00000   -1.20000
AFIX   0
C1    1    0.094856    0.660727    0.185427    11.00000    0.02744    0.02730 =
         0.00934    0.00042    0.00179    0.01336
AFIX  43
H1    2   -0.021759    0.591400    0.189000    11.00000   -1.20000
AFIX   0
C2    1    0.153830    0.831082    0.192849    11.00000    0.02489    0.02808 =
         0.01605    0.00224   -0.00017    0.01455
AFIX  43
H2    2    0.078701    0.882373    0.201776    11.00000   -1.20000
AFIX   0
C3    1    0.322570    0.931561    0.187573    11.00000    0.02583    0.02343 =
         0.01264    0.00056   -0.00091    0.01349
AFIX  43
H3A   2    0.364880    1.052634    0.194411    11.00000   -1.20000
AFIX   0
C4    1    0.431297    0.854141    0.172075    11.00000    0.01932    0.01777 =
         0.01301    0.00304   -0.00050    0.00699
C5    1    0.365406    0.677753    0.164983    11.00000    0.02140    0.01755 =
         0.01570    0.00266    0.00133    0.00672
AFIX  43
H5    2    0.435979    0.621224    0.154627    11.00000   -1.20000
AFIX   0
C6    1    0.617385    0.954781    0.167065    11.00000    0.02012    0.01930 =
         0.01878    0.00148    0.00139    0.00534
HKLF 4




REM  A_a.res in P-1
REM wR2 = 0.2048, GooF = S = 1.128, Restrained GooF = 1.113 for all data
REM R1 = 0.0751 for 2210 Fo > 4sig(Fo) and 0.0758 for all 2259 data
REM 131 parameters refined using 72 restraints

END

WGHT      0.1620      2.5094

REM Highest difference peak  6.286,  deepest hole -6.357,  1-sigma level  0.548
Q1    1   0.7915  0.6895  0.5948  11.00000  0.05    6.29
Q2    1   0.7360  0.6056  0.3786  11.00000  0.05    6.07
Q3    1   0.6762  0.5724  0.5041  11.00000  0.05    2.57
Q4    1   0.6416  0.5589  0.3341  11.00000  0.05    2.55
Q5    1   0.9111  0.7433  0.6541  11.00000  0.05    2.53
;
_shelx_res_checksum              48746
_shelx_hkl_file
;
  -1   0   0    6.30    1.00
   1   0   0    7.20    0.90
  -2   0   0 2951.50  228.18
   2   0   0 2685.03  227.58
  -3   0   0   10.40    1.90
   3   0   0    6.50    1.60
  -4   0   0 2268.47  174.68
  -4   0   0 2140.59  175.98
  -4   0   0 2153.58  174.18
   4   0   0 2069.09  173.88
   4   0   0 2054.99  174.08
   4   0   0 2150.28  174.18
  -5   0   0  406.06   35.20
  -5   0   0  386.56   38.10
   5   0   0  398.46   34.80
   5   0   0  417.06   35.10
  -6   0   0  682.03   71.59
  -6   0   0  803.32   66.69
   6   0   0  843.52   65.99
   6   0   0  779.02   66.09
  -7   0   0  945.01   80.19
  -7   0   0  903.51   79.29
   7   0   0  941.31   78.49
   7   0   0  938.81   79.49
  -8   0   0  726.13   72.49
   8   0   0  727.03   63.39
   8   0   0  748.33   67.19
  -9   0   0  791.12   79.99
   9   0   0  798.02   70.49
   9  -1   0  105.59   14.10
  -9   1   0  104.19   14.40
   8  -1   0 1549.45  132.19
   8  -1   0 1621.04  133.49
  -8   1   0 1620.74  134.49
   7  -1   0  176.28   16.70
   7  -1   0  169.78   17.10
  -7   1   0  165.68   16.70
   6  -1   0 1695.13  140.99
   6  -1   0 1852.01  140.89
  -6   1   0 1686.43  141.49
  -6   1   0 1640.54  145.79
  -6   1   0 1708.53  141.09
   5  -1   0  207.68   17.10
   5  -1   0  176.98   16.90
  -5   1   0  182.78   17.30
  -5   1   0  180.48   19.30
  -5   1   0  187.08   17.20
   4  -1   0 1244.68  109.09
   4  -1   0 1395.96  112.09
   4  -1   0 1373.76  109.19
   4  -1   0 1367.26  109.59
  -4   1   0 1348.77  110.89
  -4   1   0 1308.87  109.39
   3  -1   0 1457.65  133.39
   3  -1   0 1603.84  131.19
   3  -1   0 1722.33  130.59
   3  -1   0 1651.33  130.89
  -3   1   0 1610.14  130.69
  -3   1   0 1613.04  131.49
   0  -1   0 1271.37  102.49
   0   1   0 1265.67  102.89
  -1  -1   0 1933.31  153.78
   1   1   0 1866.11  153.88
  -2  -1   0  202.08   17.30
  -2  -1   0  183.88   18.20
  -2  -1   0  196.18   17.20
   2   1   0  176.58   16.40
   2   1   0  195.08   16.30
   2   1   0  194.68   16.60
  -3  -1   0 3237.88  251.57
  -3  -1   0 3066.99  252.07
  -3  -1   0 3143.09  250.67
   3   1   0 3162.28  250.67
   3   1   0 2916.71  250.17
   3   1   0 3040.80  250.47
  -4  -1   0  749.42   61.29
  -4  -1   0  679.43   63.39
   4   1   0  750.02   60.99
   4   1   0  725.63   60.69
   4   1   0  744.83   61.09
  -5  -1   0 2596.94  205.18
   5   1   0 2459.85  203.78
   5   1   0 2428.16  203.78
  -6  -1   0   84.99   10.90
  -6  -1   0   75.09   10.50
   6   1   0   85.79    9.90
   6   1   0   95.09   10.70
  -7  -1   0 2429.36  206.18
  -7  -1   0 2544.65  206.38
   7   1   0 2587.24  205.98
   7   1   0 2386.36  204.28
  -8  -1   0   -1.70    8.20
  -8  -1   0   -5.40    7.00
  10  -2   0  551.64   60.99
   9  -2   0  469.35   43.70
   9  -2   0  450.45   42.00
  -9   2   0  520.65   45.10
   8  -2   0  151.98   15.50
   8  -2   0  155.38   16.50
  -8   2   0  158.68   16.90
   7  -2   0 1772.52  141.09
   7  -2   0 1787.92  140.59
  -7   2   0 1702.63  156.88
  -7   2   0 1575.44  141.39
   6  -2   0   58.09    6.40
   6  -2   0   46.50    5.80
  -6   2   0   40.70    7.90
  -6   2   0   55.69    6.60
   5  -2   0  978.20   81.89
   5  -2   0 1066.29   81.99
  -5   2   0  936.51   83.89
  -5   2   0 1000.30   82.19
   4  -2   0  120.29   10.00
   4  -2   0  101.29    9.70
   4  -2   0  110.69   10.90
   4  -2   0  105.09   13.30
  -4   2   0  101.39   10.90
  -4   2   0  103.49    9.90
   2  -2   0    6.00    1.00
  -2   2   0    7.40    1.30
   1  -2   0 2295.87  188.68
   0   2   0  117.79   11.20
  -1  -2   0 2606.04  229.68
   1   2   0 3022.60  226.38
   1   2   0 2788.52  227.98
  -2  -2   0  443.46   36.60
  -2  -2   0  427.56   38.50
   2   2   0  398.46   34.40
   2   2   0  425.96   35.60
   2   2   0  409.46   35.20
  -3  -2   0 1012.70   75.59
  -3  -2   0  871.31   77.89
   3   2   0  869.51   73.59
   3   2   0  943.81   73.89
   3   2   0  761.62   73.09
  -4  -2   0  998.70   77.89
  -4  -2   0  776.82   77.79
  -4  -2   0  866.91   77.09
   4   2   0  939.11   75.99
   4   2   0  953.30   75.99
  -5  -2   0 2375.16  182.78
  -5  -2   0 2044.10  176.68
   5   2   0 2037.60  177.68
   5   2   0 2158.38  176.98
  -6  -2   0 1618.74  131.69
  -6  -2   0 1457.25  129.59
   6   2   0 1573.64  130.09
  -7  -2   0  239.28   26.40
   7   2   0  286.57   26.80
   7   2   0  225.38   24.40
   8   2   0  163.38   19.40
  10  -3   0   77.59   15.00
 -10   3   0   78.59   11.50
   9  -3   0 1020.70   92.59
   9  -3   0 1091.59  111.89
  -9   3   0 1219.18   96.79
   8  -3   0  277.87   37.10
   8  -3   0  339.97   31.80
   8  -3   0  364.16   31.70
  -8   3   0  361.36   31.80
   7  -3   0 1154.88   92.79
   7  -3   0 1167.38   92.39
  -7   3   0 1134.49   93.19
  -7   3   0  976.40   99.89
   6  -3   0 1322.87  101.49
   6  -3   0 1216.68  101.39
  -6   3   0 1253.07  101.79
  -6   3   0 1134.19  104.19
   5  -3   0 1794.02  157.28
   5  -3   0 2090.49  153.58
   5  -3   0 1945.41  153.28
  -5   3   0 1581.04  157.48
  -5   3   0 1993.40  153.58
   4  -3   0 2354.46  185.98
   4  -3   0 1985.10  188.48
   4  -3   0 2424.56  187.58
   4  -3   0 2322.97  190.68
  -4   3   0 2366.56  185.88
  -4   3   0 2305.77  187.28
   3  -3   0 2808.62  221.58
   3  -3   0 2741.33  222.58
   3  -3   0 2587.94  224.78
  -3   3   0 2821.92  222.48
   2  -3   0 2641.14  228.18
   2  -3   0 2943.81  225.78
   1  -3   0   89.19    8.00
   1  -3   0   65.99    7.10
  -1   3   0   77.99    7.00
   0  -3   0 2327.17  171.38
   0   3   0 2048.40  169.18
   0   3   0 1929.71  169.48
  -1  -3   0  153.58   19.10
  -1  -3   0  196.28   17.10
   1   3   0  190.88   15.50
   1   3   0  153.08   16.70
  -2  -3   0 1297.87  115.49
  -2  -3   0 1133.49  115.49
  -2  -3   0 1555.54  112.79
   2   3   0 1235.98  112.39
   2   3   0 1483.05  110.29
  -3  -3   0   42.90    9.40
  -3  -3   0   51.39    7.50
  -3  -3   0   38.50   11.40
   3   3   0   45.60    6.00
   3   3   0   52.39    6.40
  -4  -3   0 2869.51  255.77
  -4  -3   0 3059.89  257.57
   4   3   0 3168.98  247.68
  -5  -3   0   44.60    8.00
  -5  -3   0   27.70   11.60
   5   3   0   28.40    6.20
   5   3   0   34.90    6.30
   6   3   0 1059.29   92.69
   6   3   0  908.91   83.09
  -7  -3   0  190.98   22.60
   7   3   0  181.58   21.10
  10  -4   0  881.51   85.99
 -10   4   0  943.81   79.39
   9  -4   0   37.20    5.90
  -9   4   0   50.79    8.30
   8  -4   0  253.47   22.90
   8  -4   0  211.88   29.20
  -8   4   0  247.88   23.20
   7  -4   0   13.00    3.00
   7  -4   0   11.80    6.10
  -7   4   0   13.20    3.30
   6  -4   0 4456.65  353.36
  -6   4   0 4583.44  353.66
  -6   4   0 4044.80  355.86
   5  -4   0    4.90    3.10
   5  -4   0    3.60    1.50
   5  -4   0    6.50    3.40
  -5   4   0    4.00    1.80
  -5   4   0    1.50    1.40
   4  -4   0 3962.50  321.77
  -4   4   0 3935.11  322.97
  -4   4   0 4039.40  321.37
   3  -4   0  349.57   31.70
   3  -4   0  365.76   34.20
   3  -4   0  391.06   31.10
  -3   4   0  365.16   31.60
   2  -4   0 4496.55  351.26
   2  -4   0 4197.18  353.86
   1  -4   0 1170.58   85.99
   1  -4   0  991.40   86.99
   1  -4   0  882.41   84.59
  -1   4   0 1088.79   84.09
   0  -4   0 1366.26  108.69
   0  -4   0 1196.88  109.19
   0   4   0 1363.36  107.29
  -1  -4   0  746.73   59.59
  -1  -4   0  678.83   60.19
   1   4   0  700.43   56.89
   1   4   0  607.84   58.49
  -2  -4   0 2539.45  222.98
  -2  -4   0 2785.12  222.48
   2   4   0 2777.12  219.38
   2   4   0 2666.73  220.08
  -3  -4   0 2695.03  209.88
  -3  -4   0 2340.47  209.58
   3   4   0 2497.05  207.78
   3   4   0 2536.45  206.18
  -4  -4   0  309.27   31.00
   4   4   0  297.97   28.00
   4   4   0  270.57   27.00
  -5  -4   0  556.94   53.39
   5   4   0  540.35   49.99
  -6  -4   0  117.49   16.50
   6   4   0  116.09   14.90
  10  -5   0  546.75   53.59
 -10   5   0  461.05   44.40
   9  -5   0  603.64   45.40
   9  -5   0  376.56   65.89
  -9   5   0  477.85   49.50
   8  -5   0  683.73   68.09
   8  -5   0  683.93   59.29
  -8   5   0  717.93   59.79
   7  -5   0  732.93   60.39
   7  -5   0  645.04   66.89
   7  -5   0  761.02   71.79
   6  -5   0 1830.12  165.28
   6  -5   0 2108.99  159.28
  -6   5   0 1891.31  161.78
   5  -5   0 1249.97  114.89
   5  -5   0 1285.27  114.99
   5  -5   0 1465.55  109.59
  -5   5   0 1337.87  109.09
  -5   5   0 1317.07  111.19
   4  -5   0  270.07   21.80
   4  -5   0  246.58   25.10
   4  -5   0  189.68   25.20
  -4   5   0  258.57   22.80
   3  -5   0 2219.18  199.98
   3  -5   0 2517.65  197.18
  -3   5   0 2534.95  197.58
   2  -5   0  122.29   11.90
   2  -5   0  112.59   11.00
   2  -5   0  107.39   13.00
  -2   5   0  112.09   10.60
   1  -5   0  435.26   38.00
  -1   5   0  487.05   36.30
  -1   5   0  388.16   39.10
   0  -5   0   59.29    8.70
   0  -5   0   60.99    9.00
   0   5   0   77.99    7.30
  -1  -5   0 3762.22  298.27
   1   5   0 3137.79  297.07
   1   5   0 4023.10  295.97
  -2  -5   0    1.50    4.90
   2   5   0    6.80    3.20
   2   5   0    3.20    2.90
   3   5   0 2475.95  203.78
  -4  -5   0  207.78   24.50
   4   5   0  199.98   22.00
  -5  -5   0  620.94   62.19
   5   5   0  678.93   59.09
  10  -6   0  125.29   19.10
 -10   6   0   86.89   11.20
  -9   6   0 1563.14  129.89
   8  -6   0    5.80    2.70
   8  -6   0    5.50    6.30
  -8   6   0    9.80    2.80
   7  -6   0 1636.24  141.89
   7  -6   0 1556.54  133.19
  -7   6   0 1656.43  133.09
   6  -6   0   76.99   12.70
   6  -6   0   71.99    8.20
   6  -6   0   80.49   20.30
  -6   6   0   73.09    7.80
  -6   6   0   64.19    9.90
   5  -6   0 2937.11  232.28
   5  -6   0 2587.84  238.98
  -5   6   0 2860.91  234.08
  -5   6   0 3005.40  231.38
   4  -6   0  395.96   37.70
   4  -6   0  322.77   35.10
   4  -6   0  325.37   38.80
   4  -6   0  441.56   34.40
  -4   6   0  414.76   35.10
  -4   6   0  431.46   33.20
   3  -6   0  225.68   24.00
   3  -6   0  245.28   22.80
  -3   6   0  234.88   21.50
   2  -6   0  473.35   45.20
   2  -6   0  544.05   44.80
  -2   6   0  489.45   41.90
   1  -6   0 1986.80  157.38
  -1   6   0 1665.93  156.88
  -1   6   0 2005.10  153.88
   0  -6   0 1349.36  126.29
   0  -6   0 1306.57  128.29
   0   6   0 1644.24  122.69
  -1  -6   0  920.91   76.69
   1   6   0  861.01   71.79
   1   6   0  781.42   73.19
  -2  -6   0  687.93   63.39
   2   6   0  645.44   57.49
  -3  -6   0  111.69   17.10
   3   6   0  132.79   14.70
  -4  -6   0  709.33   67.59
   4   6   0  714.13   62.99
 -10   7   0  312.97   29.20
   9  -7   0  949.60   86.19
   9  -7   0 1117.69   93.09
  -9   7   0  870.51   81.29
   8  -7   0  836.82   76.99
   8  -7   0 1021.40   87.69
  -8   7   0  901.41   76.79
   7  -7   0  366.46   32.80
   7  -7   0  327.87   38.90
   7  -7   0  420.86   41.70
  -7   7   0  354.96   32.00
   6  -7   0 1948.51  154.88
   6  -7   0 1653.83  150.68
   6  -7   0 1764.42  145.59
  -6   7   0 1716.73  144.49
   5  -7   0   27.10    8.90
   5  -7   0   23.60    6.10
   5  -7   0   25.10    4.60
  -5   7   0   28.60    6.70
   4  -7   0  698.83   69.09
   4  -7   0  614.44   63.29
   4  -7   0  742.13   64.99
   4  -7   0  744.53   61.79
  -4   7   0  810.12   62.79
   3  -7   0  128.59   14.60
   3  -7   0  173.38   17.00
   3  -7   0  156.18   17.00
   3  -7   0  147.29   21.70
  -3   7   0  111.49   16.00
   2  -7   0 2118.89  185.38
   2  -7   0 2342.87  186.48
  -2   7   0 2259.47  186.88
   1  -7   0   17.20    7.40
   1  -7   0   31.50    6.80
  -1   7   0   38.00    8.70
   0  -7   0 1582.34  136.99
   0   7   0 1601.24  130.89
  -1  -7   0  323.47   34.50
   1   7   0  318.47   29.30
  -2  -7   0  637.94   65.19
   2   7   0  739.93   60.19
  -3  -7   0   81.69   14.50
   3   7   0   83.49   14.00
   9  -8   0   11.60    8.30
   8  -8   0 1144.39   98.49
  -8   8   0 1193.28   97.79
   7  -8   0  320.37   35.00
   7  -8   0  325.67   30.10
  -7   8   0  315.87   29.10
   6  -8   0  321.47   34.10
   6  -8   0  273.17   26.40
   6  -8   0  260.97   29.80
   5  -8   0  533.75   49.10
   5  -8   0  539.45   52.09
   5  -8   0  620.34   58.29
   4  -8   0  968.40   83.39
   4  -8   0 1039.40   85.79
   4  -8   0 1144.19   94.39
   4  -8   0  850.01   85.59
  -4   8   0  915.31   86.09
   3  -8   0 1150.48   92.89
   3  -8   0  982.70  100.49
   3  -8   0 1076.89   94.29
   2  -8   0  641.94   73.49
   2  -8   0  830.42   68.79
   1  -8   0  762.42   66.49
   1  -8   0  637.44   71.39
   0  -8   0  198.58   24.40
   0  -8   0  189.98   28.80
  -1  -8   0 1002.50   88.79
  -1  -8   0  935.91   92.89
   8  -9   0  163.58   22.30
   7  -9   0  693.73   67.29
   6  -9   0   61.09   10.80
   6  -9   0   63.39    9.70
  -6   9   0   74.39   15.70
   5  -9   0  709.93   62.09
  -5   9   0  654.33   63.69
   4  -9   0    1.30    5.40
   4  -9   0   12.70    9.10
   3  -9   0 1011.80   91.99
   3  -9   0  874.11   84.79
   2  -9   0  151.18   25.10
   2  -9   0  166.38   21.20
   1  -9   0  926.41   84.39
   1  -9   0  908.41   88.59
   0  -9   0  143.79   26.70
   0  -9   0  113.39   23.60
   7 -10   0  329.17   36.20
   6 -10   0  695.03   67.49
   5 -10   0  486.85   50.89
   4 -10   0  312.37   37.30
   3 -10   0  145.29   22.90
   3 -10   0  176.28   30.60
   2 -10   1  863.61   80.49
   3 -10   1   89.79   20.10
   4 -10   1  479.75   50.59
   5 -10   1   23.50    8.20
   5 -10   1   22.70    7.80
   6 -10   1  660.93   61.19
   7 -10   1  177.48   28.60
   0  -9   1  156.88   20.40
   0  -9   1  128.19   22.50
   1  -9   1  891.61   76.99
   1  -9   1  749.42   80.79
   2  -9   1  124.29   17.00
   2  -9   1  112.39   21.50
   3  -9   1  447.96   55.29
   4  -9   1   23.40    8.00
   4  -9   1   23.90    6.50
   4  -9   1   19.40   10.00
   5  -9   1 1208.38  109.99
   5  -9   1 1145.79   97.59
   5  -9   1  932.81   92.09
   6  -9   1   33.90    8.70
   6  -9   1   42.60    8.90
   6  -9   1   37.10    9.70
   7  -9   1  894.31   89.69
   7  -9   1 1050.49   90.29
   7  -9   1 1035.50   88.09
   8  -9   1  469.75   46.60
   2   8  -1   49.40    9.30
  -2  -8   1   58.09   10.80
  -1  -8   1 1613.44  159.78
  -1  -8   1 1954.10  154.88
   0  -8   1  327.17   51.99
   1  -8   1  627.54   69.99
   1  -8   1  748.03   65.09
   2  -8   1   82.99   12.30
   2  -8   1   73.69   11.80
   2  -8   1   87.99   17.20
  -3   8  -1 1063.99   90.19
   3  -8   1  909.31   94.99
   3  -8   1 1004.90   90.29
   3  -8   1 1103.69   90.19
  -4   8  -1  206.68   25.60
   4  -8   1  261.77   24.20
   4  -8   1  284.37   28.50
   4  -8   1  251.67   30.70
   4  -8   1  219.58   26.10
   5  -8   1  176.18   23.00
   5  -8   1  210.18   26.00
   5  -8   1  206.58   21.90
   6  -8   1  871.71   81.39
   6  -8   1  879.81   81.19
   6  -8   1  869.21   74.59
  -7   8  -1  189.58   18.10
   7  -8   1  173.48   25.20
   7  -8   1  202.08   24.40
   7  -8   1  188.88   19.40
  -8   8  -1 1519.65  130.19
   8  -8   1 1588.24  142.29
   8  -8   1 1537.15  131.89
   8  -8   1 1677.93  138.09
  -9   8  -1  184.98   18.60
   9  -8   1  193.58   23.70
   3   7  -1  287.87   26.80
  -3  -7   1  277.47   31.40
   2   7  -1 1736.83  151.58
  -2  -7   1 1952.80  159.18
   1   7  -1  336.77   29.40
  -1  -7   1  344.77   35.00
  -1  -7   1  288.17   39.10
   0   7  -1  902.51   71.59
   0  -7   1  840.22   75.69
   0  -7   1  810.32   82.89
   0  -7   1  863.61   76.29
   1  -7   1   22.90    9.60
   1  -7   1   14.70    5.70
  -2   7  -1 1354.56  118.09
   2  -7   1 1434.26  119.89
   2  -7   1 1485.95  119.79
   2  -7   1 1273.57  125.29
  -3   7  -1   90.79   12.10
   3  -7   1   75.39    9.60
   3  -7   1   82.69   14.80
   3  -7   1   78.69   12.40
   3  -7   1   92.89   11.20
  -4   7  -1 2323.97  167.18
   4  -7   1 2193.28  165.98
   4  -7   1 1815.12  167.78
   4  -7   1 1711.13  171.68
  -5   7  -1  709.33   61.29
   5  -7   1  746.23   59.69
   5  -7   1  675.53   65.39
   5  -7   1  645.44   65.39
  -6   7  -1 2101.89  167.58
   6  -7   1 1953.50  175.68
   6  -7   1 2096.89  169.08
   6  -7   1 2054.79  177.18
  -7   7  -1  187.48   17.20
   7  -7   1  173.08   18.00
   7  -7   1  165.08   25.00
   7  -7   1  190.38   24.20
  -8   7  -1  653.33   57.29
   8  -7   1  669.33   58.29
   8  -7   1  758.72   66.39
   8  -7   1  608.54   69.39
  -9   7  -1  229.08   23.80
   9  -7   1  294.47   31.60
 -10   7  -1  424.16   40.90
   4   6  -1 1769.82  152.28
  -4  -6   1 1899.41  157.18
   3   6  -1  333.07   32.00
  -3  -6   1  369.36   36.60
   2   6  -1 1176.28   95.39
  -2  -6   1 1185.18  100.99
  -2  -6   1 1053.99  106.19
   1   6  -1  363.16   31.70
  -1  -6   1  355.36   36.30
  -1  -6   1  339.87   40.90
  -1  -6   1  391.36   36.10
   0   6  -1 1561.14  138.19
   0   6  -1 1741.43  136.99
   0  -6   1 1871.31  141.79
   0  -6   1 1605.94  146.99
   0  -6   1 1619.44  142.59
  -1   6  -1  849.41   66.69
   1  -6   1  815.42   72.69
   1  -6   1  765.62   75.49
  -2   6  -1  967.00   71.69
   2  -6   1  701.73   77.29
   2  -6   1  739.73   71.69
   2  -6   1  950.30   73.79
   2  -6   1  921.31   76.89
  -3   6  -1 1022.10   85.09
   3  -6   1 1075.69   86.69
   3  -6   1  971.60   84.69
  -4   6  -1  905.01   71.19
   4  -6   1  674.33   71.29
   4  -6   1  880.81   76.29
   4  -6   1  893.61   71.19
  -5   6  -1 4089.09  304.37
  -5   6  -1 3684.83  306.97
   5  -6   1 3279.67  311.27
   5  -6   1 3958.60  305.37
  -6   6  -1  247.88   23.80
  -6   6  -1  251.57   27.50
   6  -6   1  312.97   31.80
   6  -6   1  286.47   33.10
   6  -6   1  270.87   24.70
  -7   6  -1  626.74   56.29
   7  -6   1  694.33   69.59
   7  -6   1  641.24   56.89
   7  -6   1  709.23   64.49
   8  -6   1  138.79   15.40
   8  -6   1  159.48   21.90
  -9   6  -1 1198.58  101.49
   9  -6   1 1214.88  101.89
 -10   6  -1    8.50    3.40
  10  -6   1    7.40    5.80
   5   5  -1 1192.08   97.69
  -5  -5   1 1095.49  100.39
   4   5  -1  500.55   44.90
  -4  -5   1  505.75   48.00
   3   5  -1  847.62   74.19
  -3  -5   1  863.71   80.19
  -3  -5   1  931.71   78.09
   2   5  -1   19.90    3.60
   2   5  -1   25.90    5.00
  -2  -5   1   30.00    7.80
   1   5  -1 1397.86  122.69
   1   5  -1 1517.65  122.69
  -1  -5   1 1532.55  130.99
  -1  -5   1 1442.36  129.19
  -1  -5   1 1624.14  126.29
   0   5  -1  185.98   16.20
   0   5  -1  195.98   16.90
   0   5  -1  175.18   18.50
   0   5  -1  210.58   16.70
   0  -5   1  198.28   22.20
   0  -5   1  190.08   19.40
   0  -5   1  203.38   23.70
  -1   5  -1 1857.51  143.39
   1  -5   1 1866.11  145.49
   1  -5   1 1518.05  148.69
   1  -5   1 1791.92  148.99
  -2   5  -1  804.72   66.89
   2  -5   1  874.91   68.29
   2  -5   1  735.93   66.59
   2  -5   1  815.22   71.69
  -3   5  -1 4248.17  351.86
   3  -5   1 4344.87  352.86
   3  -5   1 4434.56  351.26
  -4   5  -1  847.12   67.69
  -4   5  -1  821.52   69.59
   4  -5   1  724.63   73.19
   4  -5   1  897.51   68.59
  -5   5  -1 1817.92  157.48
  -5   5  -1 1963.50  155.28
   5  -5   1 2066.99  155.98
   5  -5   1 1873.61  163.88
   5  -5   1 1809.62  161.18
  -6   5  -1  502.15   44.20
   6  -5   1  469.85   49.50
   6  -5   1  573.44   44.90
   6  -5   1  531.65   54.79
  -7   5  -1 1244.58  105.89
   7  -5   1 1319.27  106.19
   7  -5   1 1462.65  123.79
   7  -5   1 1095.59  111.39
  -8   5  -1  312.57   27.50
   8  -5   1  280.07   33.10
   8  -5   1  267.07   26.70
  -9   5  -1  672.63   59.69
   9  -5   1  689.03   59.99
 -10   5  -1  674.23   59.89
   6   4  -1  247.08   25.30
  -6  -4   1  253.27   26.90
   5   4  -1 1253.97  108.89
  -5  -4   1 1336.57  111.69
   4   4  -1  945.11   82.19
  -4  -4   1  943.21   91.89
  -4  -4   1 1042.40   85.29
   3   4  -1 2070.49  189.08
   3   4  -1 2448.85  190.38
  -3  -4   1 2637.84  193.38
  -3  -4   1 2164.68  200.68
   2   4  -1 1083.89   95.19
   2   4  -1 1157.18   95.69
  -2  -4   1 1263.07   98.39
  -2  -4   1 1229.38  102.39
  -2  -4   1 1096.09  105.19
   1   4  -1  763.42   58.39
   1   4  -1  682.03   58.69
   1   4  -1  662.43   58.99
  -1  -4   1  777.02   61.29
  -1  -4   1  711.33   64.09
  -1  -4   1  681.23   66.49
   0   4  -1  305.37   26.80
   0   4  -1  312.37   27.80
  -1   4  -1  980.20   80.79
   1  -4   1  861.01   80.79
   1  -4   1 1136.49   86.79
   2  -4   1 2368.66  196.08
  -3   4  -1  170.88   15.80
   3  -4   1  144.59   17.60
   3  -4   1  189.78   20.20
   3  -4   1  176.48   15.10
  -4   4  -1 1132.09   88.99
  -4   4  -1 1113.49   90.79
   4  -4   1 1219.48   89.59
   4  -4   1  908.91   92.59
   4  -4   1 1063.79   98.89
  -5   4  -1   53.79    5.80
  -5   4  -1   49.40    7.00
   5  -4   1   36.50    7.50
   5  -4   1   54.69    6.00
   5  -4   1   56.39   10.40
  -6   4  -1 2103.59  177.48
  -6   4  -1 2224.38  174.58
   6  -4   1 2097.49  185.28
   6  -4   1 1803.12  178.68
   6  -4   1 2435.76  174.98
  -7   4  -1   64.09    8.60
   7  -4   1   80.59    8.80
  -8   4  -1  772.92   66.59
   8  -4   1  798.32   65.99
   8  -4   1  725.13   72.89
  -9   4  -1  213.78   22.60
   9  -4   1  193.38   21.70
   9  -4   1  248.38   28.90
 -10   4  -1 1266.77  125.59
  10  -4   1 1726.53  131.19
   7   3  -1  485.85   44.60
  -7  -3   1  481.55   45.30
   6   3  -1 1342.07  105.39
   6   3  -1 1198.48  103.19
  -6  -3   1 1309.67  106.59
  -6  -3   1 1109.29  114.49
   5   3  -1   17.00    4.10
  -5  -3   1   11.50    4.20
  -5  -3   1   13.50   10.40
   4   3  -1 1446.06  120.69
   4   3  -1 1524.65  121.69
  -4  -3   1 1618.24  123.79
  -4  -3   1 1286.67  134.59
   3   3  -1   58.29    6.90
   3   3  -1   56.39    5.80
   3   3  -1   53.39    6.30
   2   3  -1 1461.55  113.49
   2   3  -1 1286.77  113.19
   2   3  -1 1330.87  113.59
  -2  -3   1 1390.56  117.79
  -2  -3   1 1500.65  115.49
   1   3  -1  823.32   64.29
   1   3  -1  753.22   63.79
   1   3  -1  733.93   63.69
  -1  -3   1  790.22   65.09
  -1  -3   1  799.82   67.09
   0  -3   1 6140.29  488.15
   0  -3   1 5894.81  491.75
   1  -3   1 1606.54  117.69
   1  -3   1 1279.07  116.49
   1  -3   1 1431.56  121.59
   2  -3   1 3773.22  309.27
  -3   3  -1 1935.01  164.98
   3  -3   1 2070.09  169.58
   3  -3   1 2073.59  164.18
  -4   3  -1 2276.97  186.18
  -4   3  -1 2301.67  184.68
   4  -3   1 1953.00  187.28
   4  -3   1 2607.54  185.08
   4  -3   1 2241.58  190.98
  -5   3  -1  546.05   48.00
  -5   3  -1  548.55   49.90
   5  -3   1  646.94   48.50
   5  -3   1  567.04   47.90
   5  -3   1  551.14   55.69
  -6   3  -1 1008.20   93.49
  -6   3  -1 1070.99   90.59
   6  -3   1 1192.08   90.79
   6  -3   1 1087.29   90.19
  -7   3  -1 1399.36  121.19
   7  -3   1 1550.44  121.09
   7  -3   1 1420.66  120.59
  -8   3  -1    6.60    2.80
   8  -3   1    8.10    3.10
   8  -3   1    1.20    5.20
   8  -3   1    5.00    4.00
  -9   3  -1 1598.04  132.19
   9  -3   1 1658.63  138.09
   9  -3   1 1417.66  129.49
 -10   3  -1  151.28   19.60
  10  -3   1  191.18   26.10
   8   2  -1  877.71   76.69
   7   2  -1  307.97   30.80
  -7  -2   1  234.68   51.09
   6   2  -1 1501.65  120.69
   6   2  -1 1495.35  119.29
  -6  -2   1 1338.47  120.49
  -5  -2   1  979.90   80.69
  -5  -2   1  917.21   79.59
   4   2  -1  398.66   33.60
   4   2  -1  378.96   33.10
   4   2  -1  386.36   33.60
  -4  -2   1  382.46   33.60
  -4  -2   1  396.66   34.60
   3   2  -1  382.06   34.40
   3   2  -1  421.16   34.70
   3   2  -1  389.16   34.10
  -3  -2   1  404.06   34.60
  -3  -2   1  446.36   35.70
   2   2  -1 1565.54  132.19
   2   2  -1 1527.95  132.39
   2   2  -1 1846.32  133.19
  -2  -2   1 1591.34  134.69
  -2  -2   1 1630.94  133.39
   0   2  -1  557.24   52.19
   0  -2   1  723.23   52.19
   1  -2   1 3193.38  261.07
  -2   2  -1  510.95   48.80
   2  -2   1  674.13   48.50
  -3   2  -1 3654.43  307.67
  -3   2  -1 3561.74  308.47
   3  -2   1 4005.30  308.17
   3  -2   1 4019.60  307.77
  -4   2  -1  271.77   24.40
  -4   2  -1  276.77   25.70
   4  -2   1  326.97   24.80
   4  -2   1  248.78   28.80
   4  -2   1  294.97   25.10
  -5   2  -1  859.81   76.39
  -5   2  -1  880.11   74.19
   5  -2   1  978.90   74.39
   5  -2   1  824.32   73.69
   5  -2   1  922.61   74.79
  -6   2  -1  337.17   34.10
  -6   2  -1  337.17   30.60
   6  -2   1  318.77   29.80
   6  -2   1  361.86   30.40
  -7   2  -1 3562.24  289.47
  -7   2  -1 3509.65  290.17
   7  -2   1 3501.75  289.07
   7  -2   1 3601.54  289.97
   8  -2   1  601.04   54.09
   8  -2   1  622.84   53.89
  -9   2  -1  535.55   48.30
   9  -2   1  470.95   46.20
   8   1  -1    7.00    3.30
  -8  -1   1   12.10    6.10
   7   1  -1 1463.35  117.99
   7   1  -1 1370.46  116.49
  -7  -1   1 1406.16  117.49
  -7  -1   1 1390.76  118.39
   6   1  -1   12.60    3.10
   6   1  -1   11.00    2.70
  -6  -1   1   17.50    4.00
  -6  -1   1    7.30    8.90
  -6  -1   1   10.10    3.30
   5   1  -1  661.63   56.39
  -5  -1   1  683.03   56.89
  -5  -1   1  661.43   56.59
   4   1  -1  466.95   37.50
   4   1  -1  452.55   36.60
   4   1  -1  420.36   36.70
  -4  -1   1  450.45   37.30
  -4  -1   1  433.76   36.90
  -4  -1   1  365.96   39.10
   3   1  -1 3195.28  263.27
   3   1  -1 3330.47  263.17
   3   1  -1 3556.14  264.07
  -3  -1   1 2781.62  265.07
  -3  -1   1 3411.06  263.97
   2   1  -1  612.34   53.29
   2   1  -1  670.33   53.19
   2   1  -1  747.23   54.19
  -2  -1   1  575.54   54.59
  -1  -1   1 2130.29  173.28
   0   1  -1 1678.73  122.79
   0   1  -1 1470.35  122.89
   0  -1   1 1422.76  122.79
  -2   1  -1 1253.97  108.19
   2  -1   1 1404.76  108.19
  -3   1  -1 1748.72  141.79
  -3   1  -1 1772.22  142.59
   3  -1   1 1609.94  141.59
   3  -1   1 1851.31  142.29
  -4   1  -1 2406.26  195.68
  -4   1  -1 2466.25  197.08
   4  -1   1 2292.37  195.28
   4  -1   1 2459.65  195.98
  -5   1  -1  539.35   47.70
  -5   1  -1  555.64   50.29
   5  -1   1  599.24   48.20
   5  -1   1  524.65   47.20
   5  -1   1  570.74   47.70
  -6   1  -1 3072.49  251.17
  -6   1  -1 3146.79  251.87
  -6   1  -1 2686.03  255.37
   6  -1   1 3221.68  250.77
   6  -1   1 3144.09  250.37
   6  -1   1 3124.79  251.17
  -7   1  -1  314.37   29.30
  -7   1  -1  283.87   29.30
   7  -1   1  289.07   28.20
   7  -1   1  300.07   28.20
  -8   1  -1  989.50   89.29
  -8   1  -1 1091.19   91.69
   8  -1   1  987.80   88.59
   8  -1   1 1103.29   90.09
  -9   1  -1   14.70    6.80
   9  -1   1    3.00    5.70
   9   0  -1  935.91   76.59
  -9   0   1  818.52   76.99
   8   0  -1  872.31   74.29
   8   0  -1  855.41   72.39
  -8   0   1  862.81   75.19
   7   0  -1  220.08   19.80
   7   0  -1  184.58   18.10
  -7   0   1  195.78   19.80
  -7   0   1  192.98   18.80
   6   0  -1  573.44   48.60
   6   0  -1  596.04   49.20
  -6   0   1  601.64   48.90
  -6   0   1  601.94   49.60
  -6   0   1  481.65   53.69
   5   0  -1  693.73   57.39
   5   0  -1  708.93   56.79
  -5   0   1  681.63   57.39
  -5   0   1  657.73   60.89
   4   0  -1 6190.68  525.65
   4   0  -1 6773.82  526.75
  -4   0   1 6670.83  526.05
  -4   0   1 6305.57  528.05
  -4   0   1 6624.94  525.75
   3   0  -1 2212.38  168.68
   3   0  -1 1864.31  167.58
  -3   0   1 2138.39  169.48
   1   0  -1  101.19    8.00
   1   0  -1   98.49    9.00
  -1   0   1  102.19    8.10
  -1   0   1   86.39    8.90
   0   0   1 1957.60  158.58
  -1   0  -1  182.18   16.30
   1   0   1  206.28   16.90
  -2   0  -1  102.79    9.70
   2   0   1  108.89   10.00
  -3   0  -1   56.89    7.60
  -3   0  -1   68.69    6.90
   3   0   1   67.39    6.90
   3   0   1   75.79    7.50
  -4   0  -1 5421.46  431.46
  -4   0  -1 5536.65  429.46
   4   0   1 4942.11  427.16
   4   0   1 5238.48  427.96
  -5   0  -1 1136.49   94.79
  -5   0  -1 1152.38   96.19
  -5   0  -1 1122.29   98.09
   5   0   1 1107.29   94.19
   5   0   1 1142.89   94.89
  -6   0  -1 1175.88  101.49
  -6   0  -1 1271.17  101.99
   6   0   1 1173.88  100.29
   6   0   1 1120.89   99.69
   6   0   1 1192.68   99.79
  -7   0  -1  404.66   37.90
   7   0   1  357.26   35.90
   7   0   1  398.36   36.70
  -8   0  -1  689.23   59.99
  -8   0  -1  650.53   60.99
   8   0   1  573.24   57.59
   8   0   1  710.03   60.19
   9  -1  -1   48.40    8.70
  -9   1   1   46.80    8.60
   8  -1  -1  583.14   52.79
   8  -1  -1  665.63   54.79
  -8   1   1  633.24   55.29
   7  -1  -1  461.55   39.70
   7  -1  -1  464.75   38.60
  -7   1   1  427.16   39.90
   6  -1  -1 2109.29  166.88
   6  -1  -1 2151.68  166.18
  -6   1   1 1922.41  171.08
  -6   1   1 2161.98  167.28
  -6   1   1 1862.51  165.98
   5  -1  -1  151.68   16.70
   5  -1  -1  197.58   15.30
  -5   1   1  183.48   18.30
  -5   1   1  176.88   16.00
  -5   1   1  150.58   15.70
   4  -1  -1 3629.44  304.17
   4  -1  -1 3658.93  303.87
   4  -1  -1 3870.11  305.57
  -4   1   1 3861.41  306.27
  -4   1   1 3801.12  304.47
   3  -1  -1 2538.05  212.78
   3  -1  -1 2814.82  214.28
  -3   1   1 2718.63  214.48
  -3   1   1 2477.05  213.18
   0   1   1 1480.45  120.79
  -1  -1  -1 1546.85  108.69
   1   1   1 1131.29  110.19
  -2  -1  -1  450.25   40.20
  -2  -1  -1  493.85   40.30
   2   1   1  548.65   41.60
   2   1   1  442.96   40.40
  -3  -1  -1 4702.13  376.46
  -3  -1  -1 4819.72  375.66
  -3  -1  -1 4519.85  377.16
   3   1   1 4602.24  376.36
   3   1   1 4563.24  375.66
  -4  -1  -1  201.98   22.40
  -4  -1  -1  239.58   21.40
  -4  -1  -1  239.68   23.00
   4   1   1  228.78   21.10
   4   1   1  226.88   21.70
  -5  -1  -1 2637.44  218.48
   5   1   1 2681.13  218.18
  -6  -1  -1   58.89    9.50
   6   1   1   60.29    8.70
   6   1   1   40.20    7.90
  -7  -1  -1 1081.29  100.49
  -7  -1  -1 1245.18  102.59
   7   1   1 1038.20   98.89
   7   1   1 1280.67  101.19
  -8  -1  -1   54.49   12.50
   8   1   1   69.09   10.90
  10  -2  -1  142.59   22.20
 -10   2   1  176.38   18.70
   9  -2  -1  298.07   28.20
   9  -2  -1  298.27   27.50
   9  -2  -1  239.08   33.60
  -9   2   1  313.87   28.70
   8  -2  -1  225.98   22.50
   8  -2  -1  229.58   21.40
  -8   2   1  246.58   23.00
   7  -2  -1 1786.82  144.79
   7  -2  -1 1750.32  143.89
  -7   2   1 1772.82  145.09
  -7   2   1 1730.43  152.28
   6  -2  -1  768.72   61.39
   6  -2  -1  757.22   61.99
  -6   2   1  692.33   64.99
   5  -2  -1 2572.04  207.28
  -5   2   1 2502.85  209.58
  -5   2   1 2584.34  207.48
   4  -2  -1  264.47   21.70
   4  -2  -1  261.37   23.40
   4  -2  -1  271.27   25.50
   4  -2  -1  251.67   21.90
  -4   2   1  244.38   23.40
  -4   2   1  246.98   22.00
   3  -2  -1 7913.71  640.34
   2  -2  -1   31.00    2.90
   2  -2  -1   25.70    3.30
  -2   2   1   24.00    3.20
   1  -2  -1  211.28   18.60
   1  -2  -1  233.98   18.70
  -1   2   1  217.28   18.60
   0  -2  -1   43.20    6.70
   0   2   1   58.09    6.40
  -1  -2  -1 3403.66  296.87
   1   2   1 3857.91  295.97
  -2  -2  -1 1197.18   98.69
  -2  -2  -1 1186.58   96.49
   2   2   1 1247.98   97.19
   2   2   1 1077.69   98.19
  -3  -2  -1 2847.81  229.08
   3   2   1 2767.82  230.48
   3   2   1 2828.02  229.48
  -4  -2  -1  779.02   68.89
  -4  -2  -1  794.52   71.49
   4   2   1  830.82   69.49
   4   2   1  848.52   70.29
  -5  -2  -1 1094.59   97.69
  -5  -2  -1 1241.48  101.79
   5   2   1 1113.49   98.59
   5   2   1 1188.28   98.69
  -6  -2  -1  548.15   50.69
  -6  -2  -1  452.45   46.70
   6   2   1  531.75   47.90
   6   2   1  511.05   47.40
  -7  -2  -1  260.67   28.90
   7   2   1  235.18   26.90
  10  -3  -1  204.58   29.20
 -10   3   1  244.98   23.50
   9  -3  -1  623.54   54.09
   9  -3  -1  561.84   66.69
  -9   3   1  713.63   58.59
   8  -3  -1  142.49   21.40
   8  -3  -1  128.19   21.00
   8  -3  -1  168.68   15.10
  -8   3   1  160.68   16.10
   7  -3  -1 1671.63  133.99
   7  -3  -1 1471.95  140.99
   7  -3  -1 1631.24  133.19
  -7   3   1 1673.03  141.39
  -7   3   1 1675.83  134.29
   6  -3  -1  876.71   79.29
   6  -3  -1  956.50   74.29
   6  -3  -1  915.31   74.69
  -6   3   1  842.32   77.29
   5  -3  -1 2461.45  210.88
   5  -3  -1 2589.64  207.08
   5  -3  -1 2687.23  212.98
   5  -3  -1 2484.15  207.38
   4  -3  -1  944.61   89.19
   4  -3  -1 1062.29   90.29
   4  -3  -1 1133.59   88.79
   4  -3  -1 1069.09   86.69
  -4   3   1 1100.69   88.49
   3  -3  -1  887.21   68.09
   3  -3  -1  843.92   66.69
   3  -3  -1  796.12   68.99
  -3   3   1  751.52   66.39
  -3   3   1  799.62   67.59
   2  -3  -1  674.83   60.59
   2  -3  -1  765.02   59.99
  -2   3   1  725.93   59.59
   1  -3  -1  124.19   11.40
   1  -3  -1   96.69   10.50
  -1   3   1  127.59   10.40
   0  -3  -1 1980.80  188.28
   0   3   1 2389.46  187.18
   0   3   1 2472.05  186.28
  -1  -3  -1  356.16   35.90
   1   3   1  378.36   34.00
  -3  -3  -1   30.50    6.80
   3   3   1   45.10    6.40
   3   3   1   41.30    7.10
  -4  -3  -1 2404.46  217.38
   4   3   1 2812.32  215.38
   4   3   1 2599.24  215.48
  -5  -3  -1  131.99   18.60
   5   3   1  146.59   16.90
   5   3   1  130.09   16.60
  -6  -3  -1  568.44   57.39
   6   3   1  596.74   54.69
  -7  -3  -1   50.79   11.10
   7   3   1   61.89   12.40
  10  -4  -1  853.71   84.19
 -10   4   1  907.81   76.19
   9  -4  -1  105.09   19.10
   9  -4  -1  114.19   12.20
  -9   4   1  127.19   13.60
   8  -4  -1 1284.07  121.79
   8  -4  -1 1381.46  113.39
  -8   4   1 1447.16  114.59
   7  -4  -1  271.57   31.20
   7  -4  -1  301.77   25.90
  -7   4   1  296.97   26.50
   6  -4  -1 4229.68  382.76
   6  -4  -1 4761.92  377.96
  -6   4   1 5109.29  378.46
  -6   4   1 4572.44  381.06
   5  -4  -1   17.60    2.60
   5  -4  -1   24.60    5.40
   5  -4  -1   16.10    4.90
  -5   4   1   11.70    2.50
  -5   4   1   17.00    3.80
   4  -4  -1  511.85   44.70
   4  -4  -1  538.85   41.50
   4  -4  -1  407.56   44.40
  -4   4   1  524.85   42.90
  -4   4   1  485.35   41.10
   3  -4  -1  232.58   23.10
   3  -4  -1  257.97   21.30
  -3   4   1  230.48   21.70
  -3   4   1  258.47   21.10
   2  -4  -1 3483.05  284.67
   2  -4  -1 3728.63  285.27
   2  -4  -1 3202.28  285.97
  -2   4   1 3649.93  284.47
   1  -4  -1  772.02   61.09
   1  -4  -1  796.52   64.99
  -1   4   1  632.54   61.89
   0  -4  -1 1690.43  154.38
   0   4   1 2092.29  150.88
   0   4   1 1711.53  151.58
  -1  -4  -1 1057.99   92.49
   1   4   1 1114.99   90.79
  -2  -4  -1 1774.32  133.49
   2   4   1 1359.56  130.99
  -3  -4  -1  724.53   67.59
   3   4   1  809.42   64.59
   3   4   1  669.03   64.59
  -4  -4  -1  106.89   16.70
   4   4   1  121.99   15.60
   4   4   1  131.59   15.40
  -5  -4  -1  165.28   23.20
   5   4   1  174.98   20.30
  -6  -4  -1  152.38   22.20
   6   4   1  161.38   19.80
  10  -5  -1  872.91   80.59
 -10   5   1  768.32   69.59
   9  -5  -1  258.37   24.20
   9  -5  -1  320.17   42.60
  -9   5   1  245.58   27.60
   8  -5  -1 1159.28   98.59
   8  -5  -1 1191.48  108.19
  -8   5   1 1217.68   99.49
   7  -5  -1  886.11   86.39
   7  -5  -1  979.10   79.59
  -7   5   1  990.90   79.99
   6  -5  -1  828.92   79.19
   6  -5  -1  953.90   79.49
   6  -5  -1  906.61   73.49
  -6   5   1  815.42   76.89
  -6   5   1  905.51   73.49
   5  -5  -1 1160.28  104.59
   5  -5  -1 1152.28  107.09
  -5   5   1 1381.66  101.89
  -5   5   1 1251.37  104.09
   4  -5  -1   32.90    6.40
   4  -5  -1   46.10    5.30
   4  -5  -1   41.30    6.90
   4  -5  -1   42.50    8.50
  -4   5   1   43.70    5.90
  -4   5   1   48.30    5.10
   3  -5  -1 2463.65  188.08
   3  -5  -1 2431.16  188.68
  -3   5   1 2332.87  188.08
  -3   5   1 2008.70  187.18
   2  -5  -1  709.43   61.09
   2  -5  -1  835.12   62.39
   2  -5  -1  693.43   64.99
   2  -5  -1  825.72   62.59
  -2   5   1  607.14   60.39
  -2   5   1  632.04   62.39
  -2   5   1  788.92   60.49
   1  -5  -1 2821.32  217.98
  -1   5   1 2548.45  213.88
  -1   5   1 2441.46  212.18
   0  -5  -1   10.20    5.20
   0  -5  -1   16.80    5.10
   0   5   1   18.50    5.60
  -1  -5  -1 2527.55  240.48
  -1  -5  -1 2845.52  256.57
   1   5   1 3211.08  235.38
  -2  -5  -1    9.10    6.00
  -2  -5  -1    5.00    3.60
   2   5   1    4.70    2.40
   2   5   1   17.20    5.60
  -3  -5  -1  531.85   51.39
   3   5   1  550.64   46.80
   3   5   1  432.06   46.20
  -4  -5  -1  198.28   26.30
   4   5   1  209.38   22.90
  -5  -5  -1  625.54   62.79
   5   5   1  646.64   58.69
  10  -6  -1  139.09   22.10
 -10   6   1  121.49   13.80
   9  -6  -1 2159.68  169.08
   9  -6  -1 1752.22  155.98
  -9   6   1 1806.92  156.18
   8  -6  -1   57.19   13.00
   8  -6  -1   54.09    6.90
  -8   6   1   59.49    7.50
   7  -6  -1  446.46   40.60
   7  -6  -1  490.65   48.90
  -7   6   1  478.15   40.90
   6  -6  -1  240.98   26.30
   6  -6  -1  224.18   27.10
   6  -6  -1  254.37   21.80
  -6   6   1  209.18   24.10
  -6   6   1  238.38   21.40
   5  -6  -1 2025.00  154.48
   5  -6  -1 1669.23  160.08
   5  -6  -1 1912.91  158.08
  -5   6   1 1779.72  156.08
  -5   6   1 2010.00  153.98
   4  -6  -1  719.23   55.29
   4  -6  -1  567.64   56.09
   4  -6  -1  586.14   59.79
   4  -6  -1  683.43   57.79
  -4   6   1  682.53   56.19
   3  -6  -1 1945.81  157.18
   3  -6  -1 2071.59  158.88
   3  -6  -1 2038.00  158.38
   3  -6  -1 1960.60  162.98
  -3   6   1 1724.13  159.18
  -3   6   1 1634.74  155.98
  -3   6   1 2017.50  156.88
   2  -6  -1  499.95   42.30
   2  -6  -1  548.85   48.50
  -2   6   1  390.56   43.20
   1  -6  -1 2356.96  207.98
   1  -6  -1 2588.64  203.58
  -1   6   1 2510.55  202.98
  -1   6   1 2328.67  200.18
   0  -6  -1 1363.36  124.49
   0  -6  -1 1478.75  129.49
   0   6   1 1524.75  121.19
  -1  -6  -1  226.58   26.10
  -1  -6  -1  218.18   29.00
   1   6   1  222.78   22.30
  -2  -6  -1  216.58   27.70
  -2  -6  -1  179.28   24.20
   2   6   1  207.18   21.30
  -3  -6  -1  207.28   27.00
   3   6   1  221.88   23.20
  -4  -6  -1  749.23   68.49
   4   6   1  653.13   65.49
  10  -7  -1  392.96   42.10
 -10   7   1  338.07   34.20
   9  -7  -1  791.72   70.09
  -9   7   1  608.84   58.39
   8  -7  -1  792.62   74.19
   8  -7  -1  971.40   85.29
  -8   7   1  899.21   74.59
   7  -7  -1   13.30    7.00
   7  -7  -1    8.40    2.90
  -7   7   1    8.90    2.80
   6  -7  -1  937.01   85.69
   6  -7  -1  937.81   81.89
   6  -7  -1 1103.69   90.69
  -6   7   1  945.11   81.39
   5  -7  -1  396.26   35.60
   5  -7  -1  387.16   38.20
   5  -7  -1  420.66   42.20
   4  -7  -1  801.12   65.39
   4  -7  -1  627.34   64.79
   4  -7  -1  844.82   71.29
   4  -7  -1  768.12   63.49
  -4   7   1  671.63   65.99
   3  -7  -1   15.50    4.60
   3  -7  -1   18.50    7.90
   2  -7  -1 2901.31  225.08
   2  -7  -1 2584.94  218.28
  -2   7   1 2402.26  214.08
  -2   7   1 2646.34  218.08
   1  -7  -1    8.70    6.40
   1  -7  -1    2.30    3.50
  -1   7   1    3.60    4.40
  -1   7   1    8.90    3.70
   0  -7  -1  690.83   71.49
   0  -7  -1  875.71   76.79
   0   7   1  778.02   66.49
  -1  -7  -1  141.79   21.00
  -1  -7  -1  202.38   25.20
   1   7   1  162.88   17.60
  -2  -7  -1  549.54   56.49
   2   7   1  600.34   51.59
  -9   8   1  121.29   13.90
   8  -8  -1  931.91   79.09
  -8   8   1  862.51   75.69
   7  -8  -1  325.97   32.80
   7  -8  -1  445.26   49.40
   6  -8  -1  660.23   56.99
   6  -8  -1  566.04   53.39
   5  -8  -1  333.87   30.90
   5  -8  -1  343.77   32.60
  -5   8   1  305.87   33.80
   4  -8  -1 1171.38  113.99
  -4   8   1 1489.85  118.39
   3  -8  -1 1359.46  122.99
  -3   8   1 1358.66  117.29
   2  -8  -1  367.76   39.40
   2  -8  -1  254.37   32.30
  -2   8   1  339.47   33.30
   1  -8  -1  173.28   22.60
   0  -8  -1   79.39   14.90
   0  -8  -1   52.59   11.60
  -1  -8  -1  497.55   49.60
   1   8   1  477.85   46.60
   8  -9  -1  118.89   18.20
   7  -9  -1  796.62   75.59
   6  -9  -1    3.30    4.20
  -6   9   1   -8.10    6.50
   5  -9  -1 2390.36  180.88
  -5   9   1 1754.92  173.18
   4  -9  -1   46.50   12.50
   3  -9  -1  476.65   48.40
   2  -9  -1  185.18   23.70
   1  -9  -1  527.55   54.09
   2 -10   2  897.41   79.89
   2 -10   2  714.73   73.29
   3 -10   2   -2.40    5.40
   3 -10   2    4.80    5.20
   4 -10   2  340.77   35.50
   5 -10   2  164.78   21.30
   6 -10   2  662.63   57.09
   6 -10   2  550.84   58.19
   7 -10   2  902.51   72.59
   7 -10   2  707.43   74.89
   0  -9   2  189.28   26.80
   0  -9   2  221.48   24.80
   1  -9   2  503.85   51.19
   1  -9   2  553.94   54.79
   2  -9   2  559.54   51.49
   2  -9   2  468.05   47.30
   2  -9   2  438.36   46.40
   3  -9   2  714.33   67.19
   4  -9   2    5.10    5.50
   4  -9   2    6.20    5.20
   4  -9   2   12.40    5.80
   4  -9   2   -1.50    5.10
   5  -9   2 1551.84  151.18
   5  -9   2 1825.52  158.38
   5  -9   2 2085.59  157.18
   6  -9   2    2.10    4.50
   6  -9   2    0.40    4.20
   6  -9   2    4.50    5.50
   7  -9   2  687.13   68.69
   7  -9   2  686.83   62.49
   7  -9   2  659.83   63.29
   8  -9   2   18.50   10.70
   8  -9   2   33.70    8.70
   2   8  -2   43.80    7.80
  -2  -8   2   34.50    9.50
  -1  -8   2 1306.07  114.19
   0  -8   2   24.00    7.30
   0  -8   2   11.80    6.20
   0  -8   2   28.50    8.40
   1  -8   2  388.06   42.20
   1  -8   2  427.96   41.10
   1  -8   2  436.56   44.80
   2  -8   2  152.38   22.00
   2  -8   2  191.18   20.20
   2  -8   2  135.79   20.30
   3  -8   2 1563.14  141.39
   3  -8   2 1522.55  137.39
   3  -8   2 1785.42  141.79
   4  -8   2 1108.39  104.09
   4  -8   2 1381.26  113.29
   5  -8   2  645.54   59.19
   5  -8   2  680.83   67.29
   5  -8   2  715.83   63.89
   6  -8   2  499.05   45.70
   6  -8   2  530.25   55.49
   6  -8   2  512.65   49.50
  -7   8  -2  585.44   47.60
   7  -8   2  524.85   52.19
   7  -8   2  578.84   61.09
   7  -8   2  530.25   49.50
  -8   8  -2  776.42   65.39
   8  -8   2  762.62   69.49
   8  -8   2  751.82   67.29
   8  -8   2  790.42   81.59
  -9   8  -2  202.78   20.40
   9  -8   2  216.78   24.10
   3   7  -2  240.68   23.70
  -3  -7   2  266.47   28.30
   2   7  -2  754.42   62.69
  -2  -7   2  712.73   67.99
   1   7  -2  311.57   28.90
  -1  -7   2  359.06   34.80
  -1  -7   2  323.17   35.80
  -1  -7   2  326.87   37.30
   0   7  -2  682.63   58.09
   0  -7   2  700.13   66.79
   0  -7   2  698.63   63.19
   0  -7   2  722.93   67.09
   1  -7   2   34.10    9.80
   1  -7   2   40.30   10.30
   1  -7   2   33.50    6.60
  -2   7  -2 3215.08  257.87
   2  -7   2 2995.00  263.37
   2  -7   2 3272.77  260.67
  -3   7  -2    2.50    2.50
   3  -7   2    2.40    3.10
   3  -7   2    6.70    2.30
   3  -7   2    4.70    3.50
   3  -7   2   14.00    5.50
  -4   7  -2 1275.97  103.59
   4  -7   2 1120.49  124.99
   4  -7   2 1259.57  107.39
   4  -7   2 1231.18  102.39
   5  -7   2  396.76   36.20
   5  -7   2  399.26   40.40
   5  -7   2  429.86   46.00
  -6   7  -2 1560.24  125.09
   6  -7   2 1547.05  126.59
   6  -7   2 1510.15  138.89
   6  -7   2 1469.35  130.79
  -7   7  -2   22.30    4.30
   7  -7   2   37.80    9.60
   7  -7   2   29.80   12.40
   7  -7   2   23.60    5.50
   8  -7   2 1017.00  111.19
   8  -7   2 1202.18  101.09
   8  -7   2 1180.78   96.89
  -9   7  -2  272.37   27.90
   9  -7   2  334.17   32.20
   5   6  -2   42.20    8.80
  -5  -6   2   25.70    9.70
   4   6  -2 1768.22  148.99
  -4  -6   2 1829.02  152.88
   3   6  -2  220.58   22.00
  -3  -6   2  241.68   29.00
  -3  -6   2  239.28   25.60
   2   6  -2  667.93   57.49
  -2  -6   2  710.23   61.89
  -2  -6   2  730.83   66.19
  -2  -6   2  616.04   65.89
   1   6  -2   54.69    6.40
  -1  -6   2   38.30   10.70
  -1  -6   2   57.39   12.70
  -1  -6   2   71.89   11.00
   0   6  -2 2387.16  195.58
   0  -6   2 2358.56  197.68
   0  -6   2 2411.66  204.48
   0  -6   2 2404.86  200.78
  -1   6  -2 1650.13  145.39
  -1   6  -2 1769.52  144.79
   1  -6   2 1809.12  150.18
   1  -6   2 1865.41  154.28
  -2   6  -2  845.42   72.09
   2  -6   2  741.33   71.69
   2  -6   2  818.72   75.99
   2  -6   2  942.01   80.69
   2  -6   2  978.70   74.49
  -3   6  -2 1663.13  131.59
   3  -6   2 1435.76  134.49
   3  -6   2 1642.74  130.79
   3  -6   2 1624.24  139.59
  -4   6  -2  905.21   81.29
  -4   6  -2 1003.00   78.69
   4  -6   2 1008.50   80.19
   4  -6   2  886.61   84.09
   4  -6   2 1011.70   90.79
  -5   6  -2 1727.93  136.49
  -5   6  -2 1534.75  139.19
   5  -6   2 1739.33  137.69
   5  -6   2 1648.64  142.69
   5  -6   2 1712.73  149.29
  -6   6  -2  409.46   37.30
   6  -6   2  509.85   44.10
   6  -6   2  408.56   38.20
   6  -6   2  424.26   51.59
  -7   6  -2  477.35   40.50
   7  -6   2  418.56   53.49
   7  -6   2  473.35   41.30
  -8   6  -2    7.20    2.80
   8  -6   2    4.20    2.70
   8  -6   2   -2.40    4.40
   8  -6   2    6.50   10.40
 -10   6  -2   46.40    8.60
   6   5  -2  238.38   24.90
  -6  -5   2  267.87   27.40
   5   5  -2  823.72   69.99
  -5  -5   2  800.22   72.29
   4   5  -2  368.86   33.80
  -4  -5   2  395.66   43.70
  -4  -5   2  360.26   36.40
   3   5  -2  441.96   37.60
  -3  -5   2  414.36   40.20
   2   5  -2   66.79    7.70
  -2  -5   2   73.29   10.00
  -2  -5   2   80.79   16.80
  -2  -5   2   70.09   11.80
   1   5  -2 4106.79  318.37
   1   5  -2 3924.81  317.67
  -1  -5   2 3582.34  329.67
  -1  -5   2 4078.39  323.07
   0   5  -2    4.80    2.50
   0  -5   2    8.50    3.10
   0  -5   2    6.00    2.50
   0  -5   2   -0.40    4.70
  -1   5  -2 4221.58  347.37
   1  -5   2 4361.86  350.66
  -2   5  -2  595.84   48.80
   2  -5   2  630.74   58.09
   2  -5   2  511.05   50.79
   2  -5   2  569.94   48.00
  -3   5  -2 3180.28  266.07
   3  -5   2 3023.10  266.97
   3  -5   2 3516.25  274.87
   3  -5   2 3369.26  264.97
  -4   5  -2   12.50    2.10
  -4   5  -2   15.80    3.90
   4  -5   2   10.70    2.40
   4  -5   2    7.10    3.50
   4  -5   2   10.60    4.40
   4  -5   2   14.00    5.70
  -5   5  -2 1760.72  143.79
  -5   5  -2 1702.73  146.49
   5  -5   2 1853.21  144.59
   5  -5   2 1727.93  156.48
  -6   5  -2  476.75   46.60
  -6   5  -2  502.85   43.40
   6  -5   2  486.25   57.29
   6  -5   2  548.45   44.20
  -7   5  -2 1159.08   97.89
   7  -5   2 1178.08   98.39
  -8   5  -2  823.02   73.39
   8  -5   2  878.01   73.69
   9  -5   2  377.66   36.10
   6   4  -2  122.49   13.70
  -6  -4   2  113.39   21.10
  -6  -4   2  111.29   14.30
   5   4  -2  362.76   33.70
  -5  -4   2  380.96   46.50
  -5  -4   2  370.16   35.30
   4   4  -2   56.79    7.40
  -4  -4   2   64.79    9.00
  -4  -4   2   56.39   23.70
   3   4  -2 1229.18   96.59
  -3  -4   2  962.80  110.89
  -3  -4   2 1277.97   98.89
   2   4  -2 1755.72  150.38
   2   4  -2 1964.40  151.28
  -2  -4   2 1822.02  154.18
   1   4  -2 1395.66  120.89
   1   4  -2 1528.65  119.39
  -1  -4   2 1320.17  131.69
  -1  -4   2 1612.44  122.89
   0   4  -2 1936.21  164.78
   0  -4   2 2233.18  166.98
   0  -4   2 1877.61  175.58
   0  -4   2 2097.59  167.88
   1  -4   2 1802.12  158.18
   1  -4   2 1900.41  160.68
   1  -4   2 2170.98  168.68
  -2   4  -2 3140.19  290.27
   2  -4   2 3741.73  298.97
   2  -4   2 3873.91  291.57
  -3   4  -2  892.71   80.09
  -3   4  -2  962.40   81.79
   3  -4   2 1109.99   90.39
   3  -4   2  985.50   80.49
  -4   4  -2  266.87   24.00
  -4   4  -2  263.57   25.80
   4  -4   2  283.17   27.50
   4  -4   2  318.17   24.60
   4  -4   2  261.17   31.90
  -5   4  -2  223.08   22.50
  -5   4  -2  216.78   20.00
   5  -4   2  253.97   20.80
   5  -4   2  189.48   24.70
   5  -4   2  218.38   28.40
  -6   4  -2 3874.21  318.57
  -6   4  -2 3661.13  322.67
   6  -4   2 4269.87  319.17
   6  -4   2 3865.81  322.67
  -7   4  -2  122.39   13.80
   7  -4   2  132.29   17.60
   7  -4   2  117.49   13.70
  -8   4  -2 1430.96  118.59
   8  -4   2 1358.26  117.59
   9  -4   2  106.39   14.90
   9  -4   2  141.89   18.50
   7   3  -2  220.58   22.10
  -7  -3   2  206.78   22.00
  -7  -3   2  222.08   32.90
   6   3  -2  549.25   45.80
  -6  -3   2  473.45   61.29
  -6  -3   2  505.75   46.10
   5   3  -2    6.90    2.10
   5   3  -2   11.20    3.00
  -5  -3   2   15.30    8.70
  -5  -3   2    3.80    2.60
   4   3  -2 2681.93  218.48
   3   3  -2  216.38   18.60
   3   3  -2  182.98   17.40
  -3  -3   2  198.98   18.60
  -3  -3   2  171.48   19.20
   2   3  -2 3739.13  314.17
   2   3  -2 4094.99  315.77
  -2  -3   2 3830.52  316.57
   1   3  -2  844.62   72.99
  -1  -3   2  925.81   74.29
  -1  -3   2  920.41   74.89
   0   3  -2 3144.69  241.58
   0  -3   2 2845.92  242.08
   1  -3   2  284.17   24.00
   1  -3   2  297.67   31.60
   2  -3   2 1394.26  103.99
   2  -3   2 1262.87  111.59
   2  -3   2 1174.78  105.59
  -3   3  -2 1022.30   84.49
  -3   3  -2 1086.29   85.39
   3  -3   2  861.01   84.99
   3  -3   2 1121.39   83.29
   3  -3   2  982.00   90.29
  -4   3  -2 2077.09  181.18
  -4   3  -2 2115.69  179.58
   4  -3   2 2320.97  180.48
   4  -3   2 2315.67  179.78
  -5   3  -2 1975.20  172.58
  -5   3  -2 2043.50  170.28
   5  -3   2 2286.37  170.58
   5  -3   2 2022.10  169.48
  -6   3  -2 1546.25  136.09
  -6   3  -2 1611.64  132.09
   6  -3   2 1503.05  130.79
   6  -3   2 1706.23  132.19
  -7   3  -2 1329.67  110.89
   7  -3   2 1292.07  109.29
   7  -3   2 1302.27  110.19
  -8   3  -2  339.67   35.20
   8  -3   2  379.26   38.20
   8  -3   2  350.46   33.90
   8  -3   2  350.46   34.50
   9  -3   2  601.84   56.99
   8   2  -2  399.76   37.00
  -8  -2   2  392.26   50.39
   7   2  -2  249.78   24.50
  -7  -2   2  251.07   24.20
  -7  -2   2  253.87   41.40
   6   2  -2  911.01   75.09
   6   2  -2  825.22   72.99
  -6  -2   2  856.01   75.29
  -6  -2   2  952.30   75.49
   5   2  -2 1107.99   95.19
   5   2  -2 1217.48   96.79
  -5  -2   2 1110.29   96.79
  -5  -2   2 1226.58   97.39
   4   2  -2 1556.74  126.89
  -4  -2   2 1582.34  127.59
  -4  -2   2 1510.05  127.09
   3   2  -2 2714.93  227.38
   3   2  -2 3193.18  229.18
  -3  -2   2 2730.03  228.08
  -3  -2   2 2593.74  227.48
   2   2  -2 3047.50  256.17
   2   2  -2 3284.87  257.87
  -2  -2   2 3181.08  256.97
   1   2  -2 4078.69  331.37
   0   2  -2  783.92   67.49
   0   2  -2  960.00   67.49
   0  -2   2  760.12   67.49
   1  -2   2  147.09   12.40
   1  -2   2  146.29   12.60
   2  -2   2  199.28   17.60
   2  -2   2  212.68   18.00
  -3   2  -2 5789.62  469.25
  -3   2  -2 5601.14  470.25
   3  -2   2 6035.10  469.15
  -4   2  -2  108.69   12.20
   4  -2   2  119.79   11.60
   4  -2   2  100.09   10.30
   4  -2   2  107.69   11.00
  -5   2  -2 2666.23  210.88
  -5   2  -2 2530.25  213.28
   5  -2   2 2374.46  209.88
   5  -2   2 2680.53  211.38
   5  -2   2 2628.94  210.88
  -6   2  -2  586.54   57.99
  -6   2  -2  638.64   53.99
   6  -2   2  612.74   53.49
   6  -2   2  620.74   54.19
   6  -2   2  586.94   52.39
  -7   2  -2 2216.88  179.58
  -7   2  -2 2237.18  178.68
   7  -2   2 1996.40  176.58
   7  -2   2 2071.99  176.18
  -8   2  -2  120.29   17.20
  -8   2  -2  135.09   18.40
   8  -2   2  138.49   16.40
   8  -2   2  176.38   18.00
  -9   2  -2  396.86   41.20
   9  -2   2  404.66   39.50
   9   1  -2  325.27   35.30
  -9  -1   2  347.07   45.70
   8   1  -2    7.40    3.30
  -8  -1   2   -2.70    4.50
   7   1  -2 1048.90   85.19
   7   1  -2  962.70   82.89
  -7  -1   2 1009.10   85.49
   6   1  -2  134.09   13.30
   6   1  -2  131.19   11.90
  -6  -1   2  120.79   13.20
  -6  -1   2   94.59   20.90
  -6  -1   2  133.99   13.10
   5   1  -2 2044.80  160.48
   5   1  -2 2088.29  161.78
  -5  -1   2 1658.93  165.48
  -5  -1   2 2103.39  161.98
   4   1  -2  155.38   14.60
   4   1  -2  158.88   13.90
  -4  -1   2  165.58   14.70
   3   1  -2 5027.40  415.86
   3   1  -2 5509.95  417.56
  -3  -1   2 5158.08  416.06
  -3  -1   2 4916.91  415.96
   2   1  -2  466.05   41.10
   2   1  -2  510.95   40.60
   2   1  -2  525.35   42.90
   1   1  -2 2000.20  163.98
   0  -1   2 2308.57  186.78
  -1   1  -2 4698.33  391.36
   1  -1   2 4588.24  386.46
  -2   1  -2 2208.68  200.58
  -2   1  -2 2494.25  201.28
   2  -1   2 2714.13  201.08
  -3   1  -2 3321.27  263.37
  -3   1  -2 3265.77  262.57
   3  -1   2 2982.90  261.97
   3  -1   2 3370.36  263.07
  -4   1  -2 3213.98  252.37
  -4   1  -2 3076.59  253.57
   4  -1   2 3201.68  252.87
   4  -1   2 2893.21  251.37
  -5   1  -2  348.87   31.70
  -5   1  -2  349.67   34.70
   5  -1   2  339.67   31.80
   5  -1   2  330.27   30.60
  -6   1  -2 1399.26  139.69
  -6   1  -2 1719.13  138.39
  -6   1  -2 1742.23  135.89
   6  -1   2 1665.63  134.09
   6  -1   2 1416.16  133.99
   6  -1   2 1697.43  135.79
  -7   1  -2  732.73   67.09
  -7   1  -2  788.92   68.59
   7  -1   2  643.24   64.39
   7  -1   2  771.62   65.29
  -8   1  -2  527.95   49.70
   8  -1   2  535.45   47.80
   8  -1   2  442.26   47.40
  -9   1  -2   13.70    8.60
   9  -1   2   19.00    7.20
   9   0  -2  381.16   34.90
  -9   0   2  365.66   35.90
   8   0  -2  562.84   48.70
  -8   0   2  537.75   49.10
   7   0  -2  559.04   48.50
   7   0  -2  597.14   50.29
  -7   0   2  585.74   50.59
   6   0  -2  951.60   79.69
   6   0  -2  946.11   78.39
  -6   0   2  917.21   78.89
  -6   0   2 1010.50   80.09
   5   0  -2 1889.91  149.49
   5   0  -2 1871.41  150.48
  -5   0   2 1974.10  150.88
  -5   0   2 1687.13  154.08
  -5   0   2 1788.92  149.99
   4   0  -2 5019.00  430.16
   4   0  -2 5229.28  430.96
   4   0  -2 5786.32  432.96
  -4   0   2 5016.50  433.76
  -4   0   2 5635.54  431.36
   3   0  -2  340.97   31.20
   3   0  -2  423.86   33.00
   3   0  -2  381.46   30.60
  -3   0   2  367.86   33.30
  -3   0   2  360.36   31.40
   2   0  -2  120.49   11.90
  -2   0   2  118.89   12.00
   1   0  -2  503.55   39.90
   1   0  -2  475.75   37.50
  -1   0   2  391.66   38.90
  -1   0   2  477.65   37.50
   0   0   2 2343.57  190.38
   1   0   2   89.69    9.60
  -2   0  -2 3811.22  304.87
  -2   0  -2 3995.50  304.87
   2   0   2 3566.64  305.57
   2   0   2 3673.63  304.77
  -3   0  -2  741.63   61.89
  -3   0  -2  743.63   62.19
   3   0   2  724.53   62.79
   3   0   2  732.43   61.69
  -4   0  -2 6021.20  478.85
  -4   0  -2 6057.69  477.45
   4   0   2 5726.83  476.95
   4   0   2 5739.03  478.15
  -5   0  -2  283.37   31.80
  -5   0  -2  290.27   29.50
  -5   0  -2  278.27   31.50
   5   0   2  340.87   31.50
   5   0   2  352.26   29.60
  -6   0  -2  650.23   59.59
  -6   0  -2  571.74   56.29
   6   0   2  633.64   55.69
   6   0   2  618.74   56.69
  -7   0  -2  100.19   15.60
   7   0   2   92.49   13.70
   7   0   2   88.79   13.00
  -8   0  -2  812.02   70.09
  -8   0  -2  648.94   67.39
   8   0   2  759.02   67.59
   9  -1  -2    8.60    4.20
  -9   1   2    2.40    2.70
   8  -1  -2 1003.10   85.29
   8  -1  -2  991.10   84.29
  -8   1   2 1039.80   85.99
   7  -1  -2  115.19   11.80
   7  -1  -2  121.49   12.90
  -7   1   2  145.79   13.70
   6  -1  -2 3333.17  264.57
   6  -1  -2 3230.58  263.47
  -6   1   2 3442.56  264.97
  -6   1   2 3010.70  268.67
   5  -1  -2  203.98   17.90
   5  -1  -2  194.88   17.10
  -5   1   2  194.08   21.10
  -5   1   2  204.68   18.10
   4  -1  -2 2188.18  186.78
   4  -1  -2 2535.25  189.48
   4  -1  -2 2244.28  187.48
  -4   1   2 2260.37  187.58
  -4   1   2 2336.67  189.88
   3  -1  -2  884.11   77.49
   3  -1  -2  931.21   78.09
   3  -1  -2 1061.69   79.79
  -3   1   2  946.21   78.09
  -3   1   2  959.80   79.79
   2  -1  -2 1221.48   91.69
   2  -1  -2 1105.39   89.79
  -2   1   2 1002.30   91.19
   1  -1  -2 1917.41  149.88
  -1   1   2 1787.82  150.78
   0  -1  -2 1371.96  104.39
   0   1   2 1164.58  104.29
  -1  -1  -2 2423.86  223.08
   1   1   2 3048.60  223.88
  -2  -1  -2 1085.49   89.49
  -2  -1  -2 1103.29   88.79
   2   1   2 1056.89   89.99
  -3  -1  -2 3511.95  280.97
  -3  -1  -2 3608.64  281.17
   3   1   2 3195.68  282.57
   3   1   2 3493.95  281.47
  -4  -1  -2 1041.60   81.99
  -4  -1  -2  812.82   81.39
   4   1   2 1021.00   83.59
   4   1   2  980.90   81.99
  -5  -1  -2  638.64   60.19
  -5  -1  -2  617.74   56.49
   5   1   2  610.64   57.59
   5   1   2  652.53   56.69
  -6  -1  -2   71.79   13.10
   6   1   2   65.99   11.70
   6   1   2   63.69   11.20
  -7  -1  -2  839.32   72.89
  -7  -1  -2  670.73   67.29
   7   1   2  886.11   69.69
   7   1   2  604.44   65.29
  -8  -1  -2   12.60    7.40
   8   1   2   20.10    7.40
  10  -2  -2  144.09   21.40
 -10   2   2  151.38   16.70
   9  -2  -2  366.36   36.90
   9  -2  -2  414.46   44.20
   9  -2  -2  427.26   38.30
  -9   2   2  438.76   38.00
   8  -2  -2  802.72   71.59
   8  -2  -2  886.61   73.49
  -8   2   2  911.51   73.89
   7  -2  -2 3892.81  315.07
   7  -2  -2 3670.93  313.77
  -7   2   2 4071.09  315.47
   6  -2  -2  911.51   73.59
   6  -2  -2  888.01   72.59
  -6   2   2  808.22   76.59
  -6   2   2  922.81   73.79
   5  -2  -2 1116.39   95.09
   5  -2  -2 1170.58   95.89
  -5   2   2 1199.48   95.99
  -5   2   2 1187.88   98.69
   4  -2  -2   44.80    6.20
   4  -2  -2   40.40    4.20
  -4   2   2   42.40    6.00
  -4   2   2   38.70    4.50
   3  -2  -2 3033.00  236.88
   3  -2  -2 2588.34  238.48
  -3   2   2 3131.49  238.78
  -3   2   2 2975.00  237.18
   2  -2  -2    8.80    2.70
   2  -2  -2    7.90    1.40
  -2   2   2    9.40    1.70
   1  -2  -2 2056.69  162.48
  -1   2   2 1958.20  162.78
  -1   2   2 1997.10  163.78
   0  -2  -2  141.99   14.70
   0   2   2  137.89   14.30
   0   2   2  158.18   17.00
  -1  -2  -2 4783.72  406.16
   1   2   2 4786.02  404.56
   1   2   2 5391.46  405.86
  -2  -2  -2  845.52   75.69
  -2  -2  -2  899.01   73.19
   2   2   2  889.31   74.69
  -3  -2  -2  418.86   41.00
  -3  -2  -2  454.85   37.70
  -3  -2  -2  382.06   40.70
   3   2   2  358.86   39.20
   3   2   2  502.65   39.50
  -4  -2  -2  203.18   33.60
  -4  -2  -2  218.58   24.30
   4   2   2  265.97   27.10
   4   2   2  307.47   26.70
  -5  -2  -2  822.82   78.19
   5   2   2  764.12   74.59
   5   2   2  914.01   75.09
  -6  -2  -2  671.93   91.89
   6   2   2  773.22   71.69
   6   2   2  861.81   76.89
  -7  -2  -2  287.27   33.70
   7   2   2  282.67   30.50
  10  -3  -2   51.39   10.90
 -10   3   2   39.20    7.30
   9  -3  -2 1255.17  106.69
   9  -3  -2 1105.79  124.69
  -9   3   2 1490.15  111.59
   8  -3  -2   22.00    3.60
   8  -3  -2   19.80    6.90
  -8   3   2   24.20    4.70
   7  -3  -2 1256.57  109.49
   7  -3  -2 1230.98  104.19
   7  -3  -2 1221.18  103.09
  -7   3   2 1322.47  104.49
   6  -3  -2  739.63   62.49
   6  -3  -2  735.53   63.39
   6  -3  -2  790.92   67.39
  -6   3   2  724.23   66.19
  -6   3   2  795.62   63.49
   5  -3  -2  640.74   57.89
   5  -3  -2  705.13   60.89
   5  -3  -2  713.73   57.29
  -5   3   2  706.33   57.79
  -5   3   2  710.63   60.29
   4  -3  -2 1718.03  157.78
   4  -3  -2 2001.60  155.28
  -4   3   2 1994.80  157.38
  -4   3   2 1933.81  155.48
   3  -3  -2 2476.15  196.68
   3  -3  -2 2449.66  198.28
   3  -3  -2 2589.64  198.98
  -3   3   2 2249.18  197.68
  -3   3   2 2375.66  196.78
   2  -3  -2 3660.33  268.17
   2  -3  -2 3421.36  267.37
  -2   3   2 2804.22  267.27
  -2   3   2 3331.67  267.97
   1  -3  -2 1442.26  116.09
   1  -3  -2 1496.35  118.19
  -1   3   2 1319.87  117.29
  -1   3   2 1419.26  116.09
   0  -3  -2 5274.97  460.85
   0  -3  -2 6318.87  460.65
   0   3   2 5413.56  459.95
  -1  -3  -2 1269.47  103.89
  -1  -3  -2 1288.17  105.09
   1   3   2 1182.28  102.99
   1   3   2 1147.29  102.29
  -2  -3  -2 1069.99   98.19
  -2  -3  -2 1142.59   97.39
   2   3   2 1163.18   95.89
  -3  -3  -2    4.90    4.90
  -3  -3  -2   10.70    5.20
   3   3   2    0.50    4.10
  -4  -3  -2  884.71   83.39
   4   3   2 1064.89   81.29
   4   3   2  769.22   79.69
  -5  -3  -2   17.10    6.90
   5   3   2    5.90    4.90
   5   3   2    7.80    6.10
  -6  -3  -2  793.02   76.79
   6   3   2  782.62   72.09
  10  -4  -2 1103.39  103.59
 -10   4   2 1157.98   95.89
   9  -4  -2  444.96   40.80
   9  -4  -2  472.45   52.19
  -9   4   2  517.85   44.00
   8  -4  -2  778.62   65.79
   8  -4  -2  787.32   73.59
  -8   4   2  796.02   67.19
   7  -4  -2   14.70    3.10
   7  -4  -2   10.00    4.60
  -7   4   2   19.30    4.20
   6  -4  -2 1878.11  150.08
   6  -4  -2 1697.73  154.68
  -6   4   2 1786.62  153.68
  -6   4   2 1991.70  150.78
   5  -4  -2   -1.30    1.80
   5  -4  -2    4.80    1.40
  -5   4   2    3.10    1.80
  -5   4   2    2.40    1.00
   4  -4  -2  834.52   71.99
   4  -4  -2  858.11   69.29
  -4   4   2  800.32   70.69
  -4   4   2  865.51   69.49
   3  -4  -2   33.10    5.70
   3  -4  -2   42.10    5.80
   3  -4  -2   45.60    5.80
   3  -4  -2   35.90    4.60
   3  -4  -2   30.70    6.40
  -3   4   2   32.50    5.00
  -3   4   2   48.10    5.10
   2  -4  -2 6145.79  464.85
   2  -4  -2 6296.87  465.25
   2  -4  -2 5603.54  464.35
  -2   4   2 5693.63  464.35
  -2   4   2 4972.00  465.95
   1  -4  -2  461.45   39.80
   1  -4  -2  468.85   38.40
  -1   4   2  356.06   37.70
  -1   4   2  421.96   36.90
   0  -4  -2  722.43   64.69
   0  -4  -2  729.73   63.39
   0   4   2  718.83   62.79
  -1  -4  -2  186.08   22.10
  -1  -4  -2  241.68   24.60
   1   4   2  204.28   21.60
   1   4   2  197.58   21.20
  -2  -4  -2 1181.48   95.29
  -2  -4  -2  932.21   92.69
  -3  -4  -2  987.30   93.69
   3   4   2 1032.00   88.89
  -4  -4  -2  640.54   62.99
   4   4   2  504.35   57.19
   4   4   2  745.13   59.69
  -5  -4  -2  461.55   52.19
   5   4   2  531.35   48.70
  10  -5  -2  914.81   81.29
 -10   5   2  768.12   70.89
   9  -5  -2  467.55   49.10
   9  -5  -2  427.06   38.70
  -9   5   2  452.95   40.70
   8  -5  -2  448.56   40.30
   8  -5  -2  481.75   48.60
  -8   5   2  482.15   41.60
   7  -5  -2  716.23   71.09
   7  -5  -2  759.62   64.69
  -7   5   2  837.02   65.69
   6  -5  -2  534.35   57.99
   6  -5  -2  536.95   46.30
  -6   5   2  523.35   49.50
  -6   5   2  588.94   46.90
   5  -5  -2 1240.18   96.49
   5  -5  -2 1233.98  100.09
   5  -5  -2  987.30  100.39
  -5   5   2 1115.59   98.49
  -5   5   2 1255.77   96.69
   4  -5  -2  851.21   69.19
  -4   5   2  745.13   67.79
  -4   5   2  805.72   66.99
   3  -5  -2 3539.95  258.57
   3  -5  -2 3157.18  257.77
   3  -5  -2 2732.33  259.97
   3  -5  -2 3209.28  257.37
  -3   5   2 3171.08  257.67
   2  -5  -2  828.12   70.79
   2  -5  -2  813.92   68.49
  -2   5   2  759.72   66.89
   1  -5  -2 1814.72  151.08
   1  -5  -2 1924.91  153.28
  -1   5   2 1690.13  150.38
   0  -5  -2   28.30    6.50
   0  -5  -2   43.20    9.10
   0   5   2   31.60    9.90
   0   5   2   24.20    6.00
  -1  -5  -2 1233.18  103.59
   1   5   2 1143.59  100.29
   1   5   2 1140.49  100.79
  -2  -5  -2   74.99   13.30
   2   5   2   81.89   11.70
   2   5   2   54.49   10.70
  -3  -5  -2  697.53   67.79
   3   5   2  616.44   60.79
  -4  -5  -2  114.09   18.70
   4   5   2  117.49   16.00
  10  -6  -2   50.39   12.50
 -10   6   2   47.20    7.00
   9  -6  -2 1202.08  111.59
   9  -6  -2 1549.94  123.89
  -9   6   2 1342.07  112.99
   8  -6  -2   26.70    4.80
   8  -6  -2   28.50   10.10
  -8   6   2   42.30    5.90
   7  -6  -2  663.43   58.39
   7  -6  -2  670.83   64.39
  -7   6   2  680.03   57.59
   6  -6  -2   34.30    5.00
   6  -6  -2   35.90    9.60
  -6   6   2   37.30    5.60
   5  -6  -2 3442.46  292.67
   5  -6  -2 3715.03  287.07
  -5   6   2 3648.73  287.27
  -5   6   2 3306.67  288.87
   4  -6  -2  316.37   27.70
   4  -6  -2  289.67   28.70
   4  -6  -2  273.87   31.30
  -4   6   2  350.16   34.00
   3  -6  -2  951.00   84.99
   3  -6  -2 1100.09   92.39
   3  -6  -2 1005.50   84.89
   3  -6  -2 1051.99   86.49
  -3   6   2  877.21   87.29
  -3   6   2 1103.29   84.79
   2  -6  -2  309.07   30.00
   2  -6  -2  350.36   33.10
  -2   6   2  290.27   29.70
  -2   6   2  269.17   27.70
   1  -6  -2  874.51   75.19
   1  -6  -2  746.23   72.29
  -1   6   2  820.82   71.29
   0  -6  -2  601.44   61.09
   0   6   2  596.44   57.59
   0   6   2  754.12   59.69
  -1  -6  -2  195.48   25.30
   1   6   2  216.68   22.80
   1   6   2  204.48   30.60
  -2  -6  -2  496.95   51.39
   2   6   2  501.95   47.10
  -3  -6  -2  150.38   22.20
   3   6   2  169.68   19.50
  -9   7   2  193.88   19.50
   8  -7  -2  428.36   42.50
   8  -7  -2  569.94   52.09
  -8   7   2  476.05   42.80
   7  -7  -2  206.48   23.90
   7  -7  -2  162.48   16.80
  -7   7   2  154.28   16.90
   6  -7  -2 1876.41  141.99
   6  -7  -2 1595.34  133.69
  -6   7   2 1412.66  133.49
   5  -7  -2  773.72   67.69
   4  -7  -2 1651.83  138.89
  -4   7   2 1695.13  142.79
   3  -7  -2   21.20    7.30
  -3   7   2   20.70    5.10
  -3   7   2   13.90    4.70
   2  -7  -2 1663.83  135.29
   2  -7  -2 1317.27  130.99
  -2   7   2 1648.14  131.09
   1  -7  -2   21.30    8.00
   1  -7  -2   27.70    8.50
  -1   7   2   33.90    9.00
  -1   7   2   21.40    5.50
   0   7   2  717.13   58.99
   0   7   2  528.95   61.39
  -1  -7  -2   78.89   14.10
   1   7   2   80.69   11.70
  -2  -7  -2  709.13   68.99
   2   7   2  739.53   64.99
   9  -8  -2   87.29   14.40
  -9   8   2   61.79    9.50
  -8   8   2 1191.28  100.09
   7  -8  -2   56.99    7.80
  -7   8   2   42.60    8.30
   6  -8  -2  709.53   61.89
  -6   8   2  716.73   66.29
   5  -8  -2   69.29    9.70
  -5   8   2   72.89   12.30
   4  -8  -2  520.25   48.20
  -4   8   2  395.56   43.10
   3  -8  -2  870.71   93.59
  -3   8   2  891.21   78.69
   2  -8  -2  174.88   22.60
  -2   8   2  146.89   21.30
   1  -8  -2  267.67   31.70
   0  -8  -2  342.57   37.60
   8  -9  -2  883.51   83.39
   7  -9  -2 1127.59  101.29
   6  -9  -2    8.90    5.40
   5  -9  -2 1409.26  124.89
   4  -9  -2   12.10    6.80
   3  -9  -2  499.45   50.89
   2  -9  -2   95.09   14.60
   2  -9  -2   61.19   14.30
   2 -10   3  801.92   71.29
   2 -10   3  729.73   71.19
   3 -10   3  108.59   16.70
   3 -10   3   77.29   13.70
   4 -10   3  355.66   42.10
   4 -10   3  446.66   39.20
   5 -10   3  308.47   37.00
   6 -10   3  690.53   69.69
   7 -10   3  180.18   26.70
  -1  -9   3  170.68   21.30
   0  -9   3  356.36   37.10
   1  -9   3  909.51   87.99
   1  -9   3  899.21   85.89
   1  -9   3 1057.59   85.89
   2  -9   3  392.16   41.60
   2  -9   3  301.27   36.10
   2  -9   3  350.86   45.30
   3  -9   3 1168.78  115.99
   3  -9   3 1364.46  109.99
   4  -9   3    6.60    4.80
   4  -9   3    6.00    6.50
   4  -9   3   19.10    6.60
   5  -9   3  945.51   75.79
   5  -9   3  848.82   84.89
   5  -9   3  763.42   74.39
   6  -9   3  194.38   20.30
   6  -9   3  136.19   21.40
   6  -9   3  184.28   27.40
   7  -9   3  558.44   62.79
   8  -9   3   14.00    9.20
   2   8  -3   36.80    7.10
  -2  -8   3   37.50    8.20
  -1  -8   3 1600.94  139.29
  -1  -8   3 1556.14  136.09
   0  -8   3   52.89    9.60
   0  -8   3   49.99   10.60
   0  -8   3   55.69   13.60
   1  -8   3  966.10   94.89
   1  -8   3 1047.80   88.69
   1  -8   3  981.50   87.99
   2  -8   3  604.94   53.69
   2  -8   3  512.55   53.39
   2  -8   3  619.74   61.69
   3  -8   3 1120.09  112.09
   3  -8   3 1351.56  115.29
   3  -8   3 1329.67  123.49
   3  -8   3 1528.85  114.89
   4  -8   3  956.20   77.09
   4  -8   3  816.72   86.29
   4  -8   3  840.02   75.09
   5  -8   3  738.63   64.09
   5  -8   3  749.42   75.99
   5  -8   3  675.23   63.19
   6  -8   3  237.18   23.30
   6  -8   3  214.68   33.70
   6  -8   3  234.08   24.00
   7  -8   3  399.96   37.70
   7  -8   3  399.46   54.69
   7  -8   3  398.26   37.30
   8  -8   3  885.11   93.79
  -9   8  -3   23.90    8.00
   4   7  -3  149.29   15.10
  -4  -7   3  130.99   17.30
   3   7  -3  185.68   18.30
  -3  -7   3  197.98   22.00
  -3  -7   3  170.68   24.40
   2   7  -3  933.71   78.99
  -2  -7   3  869.31   89.49
  -2  -7   3 1017.50   84.69
   1   7  -3  532.95   47.80
  -1  -7   3  555.24   53.09
  -1  -7   3  619.24   62.09
   0   7  -3 1812.92  163.18
   0  -7   3 2075.99  168.78
   0  -7   3 2190.28  169.58
   0  -7   3 1961.10  178.28
   1  -7   3    9.90    7.10
   1  -7   3    8.80    3.70
   1  -7   3   16.20    5.50
  -2   7  -3 2873.41  242.48
   2  -7   3 3203.88  265.37
   2  -7   3 2846.42  243.98
  -3   7  -3  456.95   40.70
   3  -7   3  439.36   42.40
   3  -7   3  469.75   41.60
   3  -7   3  427.66   39.70
  -4   7  -3  760.32   71.29
   4  -7   3  827.32   71.59
   4  -7   3  900.81   84.79
   4  -7   3  827.22   70.09
  -5   7  -3   54.19    6.40
   5  -7   3   46.50    8.30
   5  -7   3   65.59   16.10
   5  -7   3   58.79    7.30
  -6   7  -3 1586.44  124.79
   6  -7   3 1582.94  126.49
   6  -7   3 1361.26  127.09
   6  -7   3 1530.35  144.49
  -7   7  -3   81.99    9.20
   7  -7   3   53.99   10.80
   7  -7   3   87.49   10.90
   7  -7   3   73.69   18.40
  -8   7  -3  791.62   63.19
   8  -7   3  679.53   70.19
   8  -7   3  633.24   77.29
   8  -7   3  772.42   65.09
   5   6  -3   -1.70    2.50
  -5  -6   3   -0.80    2.60
   4   6  -3  973.40   83.49
  -4  -6   3  920.21   86.09
  -4  -6   3 1080.09   95.39
   3   6  -3    8.80    3.00
  -3  -6   3    8.50    7.30
  -3  -6   3    9.30    4.30
   2   6  -3  629.94   55.39
  -2  -6   3  689.63   71.89
   1   6  -3  603.84   51.99
  -1  -6   3  608.54   55.69
  -1  -6   3  677.13   56.89
  -1  -6   3  588.44   66.99
   0   6  -3 2561.64  217.88
   0  -6   3 2635.34  221.48
   0  -6   3 2857.81  222.08
   0  -6   3 2708.73  234.98
  -1   6  -3 1552.34  138.79
  -1   6  -3 1713.03  141.19
   1  -6   3 1706.63  142.29
   1  -6   3 1887.71  143.29
  -2   6  -3  728.93   64.39
   2  -6   3  866.81   66.69
   2  -6   3  672.43   63.29
   2  -6   3  795.42   77.19
   2  -6   3  736.53   64.89
  -3   6  -3  231.58   22.50
  -3   6  -3  211.58   19.80
   3  -6   3  242.98   21.30
   3  -6   3  247.18   32.20
   3  -6   3  237.98   24.00
  -4   6  -3  700.83   61.79
  -4   6  -3  729.93   58.49
   4  -6   3  628.94   60.79
   4  -6   3  744.23   59.79
   4  -6   3  733.33   73.89
  -5   6  -3 2153.88  183.18
  -5   6  -3 2302.77  179.28
   5  -6   3 2229.98  180.28
   5  -6   3 1989.10  181.78
   5  -6   3 2328.57  200.08
   6  -6   3  253.77   23.40
   6  -6   3  198.48   33.30
   6  -6   3  261.87   25.40
  -7   6  -3 1230.98  109.59
   7  -6   3 1469.65  113.09
   7  -6   3 1235.68  112.29
  -8   6  -3   22.40    5.70
   8  -6   3   20.20    6.70
   8  -6   3   37.90    8.10
   8  -6   3   23.90   13.00
  -9   6  -3 1239.68  119.19
   9  -6   3 1572.94  120.29
   6   5  -3   84.39   10.90
  -6  -5   3   96.09   14.50
   5   5  -3  700.23   62.49
  -5  -5   3  797.42   77.79
  -5  -5   3  698.63   64.29
   4   5  -3  404.86   37.90
  -4  -5   3  487.55   55.59
  -4  -5   3  416.96   40.10
   3   5  -3 2655.43  209.38
  -3  -5   3 2566.04  211.78
  -3  -5   3 2454.15  229.78
   2   5  -3  112.29   10.70
  -2  -5   3  109.09   12.70
  -2  -5   3   84.49   21.20
   1   5  -3 4691.93  366.96
  -1  -5   3 3866.21  383.56
  -1  -5   3 4539.45  369.66
  -1  -5   3 5018.90  369.96
   0   5  -3  175.68   16.30
   0  -5   3  223.78   19.50
   0  -5   3  159.58   26.90
   0  -5   3  191.08   18.60
  -1   5  -3  737.73   59.19
  -1   5  -3  629.84   59.39
   1  -5   3  711.53   60.19
   1  -5   3  794.02   73.79
   1  -5   3  760.92   61.29
  -2   5  -3   13.30    2.80
   2  -5   3   19.40    4.00
   2  -5   3   13.80    2.60
   2  -5   3   15.40    3.50
  -3   5  -3 1986.30  180.48
  -3   5  -3 2383.16  183.58
   3  -5   3 2454.05  181.08
   3  -5   3 1948.21  181.78
   3  -5   3 2368.36  195.48
  -4   5  -3   38.50    5.00
  -4   5  -3   43.20    7.00
   4  -5   3   26.20    5.80
   4  -5   3   32.10   11.50
   4  -5   3   33.40    6.30
   4  -5   3   46.50    5.40
  -5   5  -3 1697.83  138.29
  -5   5  -3 1628.74  141.89
   5  -5   3 1719.23  138.69
  -6   5  -3 1543.45  128.79
   6  -5   3 1560.94  129.29
  -7   5  -3  899.21   79.69
   7  -5   3  959.90   80.39
  -8   5  -3  376.46   36.20
   8  -5   3  364.16   35.80
   7   4  -3  658.83   55.19
  -7  -4   3  584.74   64.79
   6   4  -3   45.60    6.50
  -6  -4   3   46.40   16.90
  -6  -4   3   34.90    7.20
   5   4  -3  633.54   55.29
  -5  -4   3  687.83   75.79
  -5  -4   3  616.14   56.29
   4   4  -3  132.09   13.50
  -4  -4   3  148.29   14.90
  -4  -4   3  101.39   24.30
   3   4  -3 3542.25  279.47
  -3  -4   3 3340.87  280.87
   2   4  -3 1973.00  172.48
   2   4  -3 2139.59  170.28
  -2  -4   3 2165.78  172.08
   1   4  -3 1249.28  107.29
  -1  -4   3 1308.67  108.99
  -1  -4   3 1399.96  109.39
   0   4  -3  606.44   52.49
   0  -4   3  638.74   52.49
  -1   4  -3 1317.37  109.39
   1  -4   3 1283.07  120.59
   1  -4   3 1424.86  109.39
   2  -4   3 2465.05  214.78
   2  -4   3 2583.34  206.38
   2  -4   3 2480.25  203.88
  -3   4  -3  318.77   29.40
   3  -4   3  320.77   40.40
   3  -4   3  373.06   30.80
  -4   4  -3 3077.09  255.17
   4  -4   3 3129.99  252.27
  -5   4  -3    4.90    3.10
   5  -4   3    9.90    3.00
   5  -4   3    1.10    4.60
   5  -4   3    4.80    3.00
  -6   4  -3 4379.86  348.77
  -6   4  -3 4175.48  353.76
   6  -4   3 4252.17  348.37
  -7   4  -3   51.49    8.40
   7  -4   3   52.19   15.40
   7  -4   3   33.30    7.60
   7  -4   3   42.30    8.60
  -8   4  -3  443.86   40.80
   8  -4   3  361.26   38.10
  -9   4  -3   18.20    6.20
   9  -4   3    2.20    4.10
   7   3  -3  270.07   26.50
  -7  -3   3  290.87   43.80
   6   3  -3  880.51   70.49
  -6  -3   3  846.72   70.79
  -6  -3   3  703.53   90.59
   5   3  -3   78.79    8.90
  -5  -3   3   49.70   20.20
  -5  -3   3   72.19    9.10
   4   3  -3 3884.01  293.87
   4   3  -3 3745.13  292.17
  -4  -3   3 3044.40  294.57
  -4  -3   3 3785.42  294.77
   3   3  -3   68.89    7.00
  -3  -3   3   62.19    7.60
   2   3  -3 2035.00  158.48
   2   3  -3 1866.01  161.18
   1   3  -3   58.69    5.60
   1   3  -3   67.79    6.30
  -1  -3   3   72.49    7.30
  -1  -3   3   60.29   12.70
  -1  -3   3   75.89    7.50
   0  -3   3 3117.69  251.67
   1  -3   3   77.59    7.30
   1  -3   3   87.99    9.60
   2  -3   3 2657.63  216.18
   2  -3   3 2612.74  222.48
  -3   3  -3 1164.18  103.69
   3  -3   3 1324.67  102.19
   3  -3   3 1211.18  101.19
  -4   3  -3 2506.05  213.98
  -4   3  -3 2562.14  216.48
   4  -3   3 2586.44  213.48
   4  -3   3 2829.32  214.78
   4  -3   3 2382.26  212.38
   4  -3   3 2842.92  214.98
  -5   3  -3  985.00   87.59
  -5   3  -3 1050.39   84.79
   5  -3   3  956.10   83.89
   5  -3   3  960.70   82.69
   5  -3   3 1020.90   85.19
  -6   3  -3 1199.78  114.59
  -6   3  -3 1386.96  112.89
   6  -3   3 1298.47  107.99
   6  -3   3 1251.77  109.29
   6  -3   3 1399.16  111.19
   6  -3   3 1230.58  116.09
  -7   3  -3  755.82   63.99
   7  -3   3  630.54   61.39
  -8   3  -3  497.55   46.20
  -8   3  -3  440.56   45.50
   8  -3   3  413.06   42.20
   9  -3   3  917.71   79.69
   8   2  -3  278.37   28.20
  -8  -2   3  340.57   47.50
   7   2  -3   94.49   11.30
  -7  -2   3   83.79   28.30
  -7  -2   3  102.89   14.50
   6   2  -3 2109.69  163.08
  -6  -2   3 1844.92  163.08
  -6  -2   3 1982.30  162.78
   5   2  -3 1533.35  121.39
   5   2  -3 1388.46  118.79
  -5  -2   3 1542.75  121.09
  -5  -2   3 1401.26  120.99
   4   2  -3 1396.06  111.39
   4   2  -3 1285.77  109.79
  -4  -2   3 1441.96  111.79
  -4  -2   3 1303.67  111.59
   3   2  -3  453.85   38.10
   3   2  -3  433.96   36.00
   3   2  -3  407.86   34.20
  -3  -2   3  433.26   35.90
  -3  -2   3  375.96   35.60
   2   2  -3  493.15   44.10
   2   2  -3  494.75   41.00
  -2  -2   3  568.44   41.90
  -2  -2   3  422.46   41.30
   1   2  -3 1255.07  101.19
  -1  -2   3 1109.19  103.59
   0   2  -3  193.98   17.70
   0  -2   3  199.18   16.10
  -1   2  -3 1243.98  108.59
   1  -2   3 1424.26  111.19
  -2   2  -3   11.70    2.70
   2  -2   3   13.40    4.00
   2  -2   3   10.70    4.90
  -3   2  -3 9999.00  741.53
  -3   2  -3 8344.47  739.23
   3  -2   3 9105.69  738.23
  -4   2  -3    7.20    3.40
   4  -2   3    4.80    2.40
   4  -2   3    5.90    4.10
  -5   2  -3 1364.46  103.39
  -5   2  -3 1281.47  106.19
   5  -2   3 1036.90  101.29
   5  -2   3 1086.59  105.99
   5  -2   3 1309.27  103.49
   5  -2   3 1181.58  100.79
  -6   2  -3   99.09   13.80
  -6   2  -3   61.89   16.90
   6  -2   3   87.89   12.00
   6  -2   3  112.19   14.00
  -7   2  -3 1491.65  114.89
  -7   2  -3 1183.48  114.69
   7  -2   3 1357.66  110.39
   7  -2   3 1148.79  109.89
  -8   2  -3   23.20    9.40
  -8   2  -3   28.80    7.30
   8  -2   3   32.20    8.70
   8  -2   3   49.40   10.10
   9  -2   3  591.44   53.19
   9   1  -3  373.56   39.40
  -9  -1   3  505.25   61.89
   8   1  -3    5.70    3.10
  -8  -1   3    9.80    5.00
   7   1  -3 2656.23  206.28
  -7  -1   3 2367.56  206.28
   6   1  -3  179.18   17.00
   6   1  -3  164.78   15.10
  -6  -1   3  176.28   17.30
  -6  -1   3  176.98   16.50
   5   1  -3 2630.24  225.28
   5   1  -3 2886.11  226.98
  -5  -1   3 2830.42  227.28
  -5  -1   3 2813.82  226.68
   4   1  -3  260.07   22.70
   4   1  -3  278.67   24.00
  -4  -1   3  267.77   24.20
  -4  -1   3  293.57   24.00
   3   1  -3 3824.82  294.57
   3   1  -3 3347.87  290.57
   3   1  -3 3518.45  291.67
  -3  -1   3 3511.95  292.07
  -3  -1   3 3843.62  291.97
   2   1  -3   42.00    6.50
  -2  -1   3   37.00    4.40
   1   1  -3 1557.04  120.59
  -1  -1   3 1303.67  116.49
   0   1  -3  856.41   75.89
   0  -1   3  998.90   76.79
  -1   1  -3 2045.50  166.88
   1  -1   3 2043.70  167.78
   1  -1   3 2064.29  168.58
   2  -1   3 2860.41  240.68
   2  -1   3 3035.90  239.98
  -3   1  -3 2051.79  179.18
  -3   1  -3 2363.96  180.68
   3  -1   3 2124.09  179.78
   3  -1   3 2181.18  178.48
  -4   1  -3  997.20   81.99
  -4   1  -3  978.90   83.09
   4  -1   3  925.11   82.09
   4  -1   3  911.91   80.29
  -5   1  -3  613.14   53.79
  -5   1  -3  550.14   55.49
   5  -1   3  600.04   52.09
   5  -1   3  579.04   53.79
  -6   1  -3  925.31   81.89
   6  -1   3  925.11   79.39
   6  -1   3  875.11   81.29
  -7   1  -3  354.76   37.40
  -7   1  -3  347.47   38.90
   7  -1   3  390.56   35.50
   7  -1   3  271.47   33.00
   7  -1   3  355.96   37.00
  -8   1  -3  810.92   79.99
   8  -1   3  900.71   76.69
   9   0  -3  875.21   74.29
  -9   0   3  857.61   75.09
   8   0  -3  525.45   45.70
  -8   0   3  506.65   46.00
   7   0  -3 1136.69   98.49
   7   0  -3 1252.07  100.69
  -7   0   3 1235.68  101.09
   6   0  -3  699.23   58.29
   6   0  -3  717.53   59.99
  -6   0   3  712.03   60.19
   5   0  -3  894.11   68.69
   5   0  -3  819.02   67.19
  -5   0   3  692.53   71.89
  -5   0   3  880.21   68.89
   4   0  -3 1502.75  127.79
   4   0  -3 1659.63  128.99
  -4   0   3 1680.43  129.29
  -4   0   3 1478.65  132.09
   3   0  -3  234.88   18.60
   3   0  -3  239.58   19.60
   3   0  -3  179.38   23.70
  -3   0   3  247.28   19.80
  -3   0   3  204.28   21.60
   2   0  -3 1194.48   95.19
   2   0  -3 1071.79   91.29
   1   0  -3  285.57   24.30
  -1   0   3  250.97   24.20
  -1   0   3  312.97   24.70
  -1   0  -3   43.30    5.50
   1   0   3   30.10    5.30
   1   0   3   40.40    5.90
  -2   0  -3 2090.49  164.98
  -2   0  -3 1853.71  158.28
   2   0   3 1839.82  158.28
  -3   0  -3   16.10    4.30
  -3   0  -3   10.60    4.00
   3   0   3   17.10    4.50
   3   0   3   23.30    4.80
  -4   0  -3 1783.52  154.18
  -4   0  -3 1998.60  154.38
   4   0   3 1641.94  154.08
   4   0   3 1937.51  153.48
  -5   0  -3  172.48   24.20
  -5   0  -3  176.98   22.90
   5   0   3  243.48   24.60
  -6   0  -3  745.33   68.19
  -6   0  -3  710.23   71.69
   6   0   3  747.93   66.69
   6   0   3  718.43   68.29
  -7   0  -3  408.16   45.00
  -7   0  -3  482.15   49.50
   7   0   3  528.05   45.60
   7   0   3  375.36   44.90
   7   0   3  450.95   46.40
  -8   0  -3  516.45   62.09
  -8   0  -3  667.03   59.49
   8   0   3  647.44   56.69
   9  -1  -3  173.58   22.10
   9  -1  -3  165.48   17.80
  -9   1   3  179.28   18.50
   8  -1  -3 1374.06  112.09
   8  -1  -3 1307.97  110.99
  -8   1   3 1349.16  112.49
   7  -1  -3   41.20    5.90
   7  -1  -3   39.00    4.60
  -7   1   3   37.00    5.90
   6  -1  -3 1653.63  131.49
   6  -1  -3 1567.64  129.89
  -6   1   3 1454.75  135.59
  -6   1   3 1715.73  131.79
   5  -1  -3   91.69    9.20
   5  -1  -3   85.89    8.10
  -5   1   3   99.99    9.40
  -5   1   3   82.49   11.70
   4  -1  -3 1308.67  102.69
   4  -1  -3 1180.88  101.49
  -4   1   3 1261.47  105.29
  -4   1   3 1261.97  102.59
   3  -1  -3 1394.46  116.09
   3  -1  -3 1415.16  116.99
   3  -1  -3 1453.25  115.09
  -3   1   3 1380.56  117.99
  -3   1   3 1462.95  116.09
   2  -1  -3 3108.09  276.27
   2  -1  -3 3526.95  276.87
  -2   1   3 3608.04  277.97
   1  -1  -3 2034.70  165.48
   0   1   3 3178.58  258.97
   0   1   3 3202.48  259.67
  -1  -1  -3 1136.09  106.59
  -1  -1  -3 1259.97  107.09
   1   1   3 1475.15  108.19
  -2  -1  -3  941.91   71.29
  -2  -1  -3  820.72   72.89
  -2  -1  -3  910.71   72.69
   2   1   3  722.83   72.39
  -3  -1  -3 1248.08  101.49
  -3  -1  -3 1256.47  103.29
   3   1   3 1149.78  103.39
  -4  -1  -3  714.73   75.69
   4   1   3 1013.80   74.59
   4   1   3  755.72   73.69
  -5  -1  -3  790.82   88.59
  -5  -1  -3 1008.70   86.19
   5   1   3 1146.79   87.39
   5   1   3  930.61   86.99
  -6  -1  -3   17.90    7.80
  -6  -1  -3   18.70    8.20
   6   1   3   21.00    6.20
   6   1   3   17.90    7.30
  -7  -1  -3 1000.10  105.69
  -7  -1  -3 1310.57  102.49
   7   1   3 1184.48  102.49
  10  -2  -3  724.33   68.19
 -10   2   3  728.83   63.29
   9  -2  -3  384.96   39.70
   9  -2  -3  358.76   34.70
  -9   2   3  401.06   35.30
   8  -2  -3  454.55   42.00
   8  -2  -3  469.25   40.40
   8  -2  -3  496.35   47.10
  -8   2   3  495.55   42.60
   7  -2  -3 1316.97  111.89
   7  -2  -3 1323.47  107.79
   7  -2  -3 1220.68  106.09
  -7   2   3 1340.77  108.09
   6  -2  -3   26.90    4.60
   6  -2  -3   29.60    3.50
  -6   2   3   39.00    7.10
   5  -2  -3  346.87   30.40
   5  -2  -3  318.97   26.80
   5  -2  -3  311.27   27.90
  -5   2   3  294.07   30.30
  -5   2   3  328.97   27.90
   4  -2  -3  191.78   18.60
   4  -2  -3  197.48   16.20
   4  -2  -3  179.68   17.10
  -4   2   3  187.58   18.90
  -4   2   3  184.58   17.30
   3  -2  -3 5182.18  420.16
   2  -2  -3   22.80    3.80
  -2   2   3   15.60    2.80
   1  -2  -3 2102.29  157.78
  -1   2   3 1900.91  158.08
  -1   2   3 1769.12  156.78
   0  -2  -3  113.79   12.20
   0  -2  -3  110.29   12.90
   0  -2  -3  144.49   11.60
   0   2   3  125.89   13.20
   0   2   3  114.09   12.30
  -1  -2  -3 2835.02  237.58
  -1  -2  -3 2768.62  235.88
   1   2   3 3080.09  237.68
  -2  -2  -3  135.19   15.50
  -2  -2  -3  146.39   14.20
  -2  -2  -3  110.09   15.40
   2   2   3  102.09   14.10
   2   2   3  125.29   14.90
  -3  -2  -3  645.84   60.59
   3   2   3  536.75   56.69
   3   2   3  704.03   57.79
  -4  -2  -3  432.86   37.90
  -4  -2  -3  357.86   41.80
   4   2   3  464.05   40.30
   4   2   3  313.97   38.10
  -5  -2  -3 1190.78  108.19
   5   2   3  976.00  101.79
   5   2   3 1333.97  103.79
  -6  -2  -3  578.94   58.19
   6   2   3  466.95   52.39
   6   2   3  599.54   53.29
  10  -3  -3   25.10    8.10
 -10   3   3   28.10    6.00
   9  -3  -3 1082.59   99.99
   9  -3  -3 1073.29   92.49
  -9   3   3 1208.48   95.19
   8  -3  -3  147.69   14.00
   8  -3  -3  138.89   17.20
   8  -3  -3  165.98   19.80
   7  -3  -3 1153.78   96.09
   7  -3  -3 1062.39   97.39
   7  -3  -3 1197.98  101.69
  -7   3   3 1275.97   97.89
   6  -3  -3  521.25   51.49
   6  -3  -3  621.64   50.59
   6  -3  -3  642.14   55.09
  -6   3   3  585.14   54.79
  -6   3   3  677.03   51.99
   5  -3  -3 2068.99  165.18
   5  -3  -3 1948.21  168.48
  -5   3   3 1996.60  168.58
  -5   3   3 2120.39  166.08
   4  -3  -3 1407.46  108.09
   4  -3  -3 1225.48  110.79
  -4   3   3 1273.47  110.29
  -4   3   3 1385.66  108.79
   3  -3  -3 2781.82  211.68
   3  -3  -3 2678.23  217.18
  -3   3   3 2344.57  212.98
  -3   3   3 2638.04  212.38
   2  -3  -3 2091.39  153.88
   2  -3  -3 1942.01  152.98
  -2   3   3 1912.71  155.08
  -2   3   3 1560.64  153.38
   1  -3  -3  396.26   34.60
   1  -3  -3  383.16   32.00
   1  -3  -3  362.66   34.10
  -1   3   3  373.16   32.80
   0  -3  -3 1693.73  129.09
   0  -3  -3 1361.46  128.59
   0   3   3 1469.45  127.09
   0   3   3 1627.34  128.39
  -1  -3  -3  351.86   35.30
  -2  -3  -3  730.43   64.49
   2   3   3  631.84   60.79
  -3  -3  -3    3.20    5.10
  -3  -3  -3    5.80    4.20
   3   3   3    7.10    4.50
   3   3   3    1.50    3.70
  -4  -3  -3 1368.46  117.89
   4   3   3 1062.19  111.49
   4   3   3 1426.36  112.99
  -5  -3  -3   -2.00    3.80
   5   3   3    3.40    3.80
   5   3   3   -2.50    7.60
  -6  -3  -3  513.55   53.29
   6   3   3  500.15   48.20
  10  -4  -3  770.32   71.19
 -10   4   3  732.23   64.69
   9  -4  -3   74.39    8.80
   9  -4  -3   74.79   13.70
  -9   4   3   84.99   10.40
   8  -4  -3  167.88   20.70
   8  -4  -3  155.38   15.60
  -8   4   3  164.08   16.70
   7  -4  -3   10.50    4.70
   7  -4  -3    9.60    2.30
  -7   4   3    6.30    2.10
   6  -4  -3 3196.58  274.07
   6  -4  -3 3392.66  269.07
  -6   4   3 3147.08  273.17
  -6   4   3 3536.65  270.17
   5  -4  -3   82.09   11.40
   5  -4  -3   82.99    8.20
  -5   4   3   77.29   10.30
  -5   4   3   80.69    8.80
   4  -4  -3 3094.19  238.48
  -4   4   3 2626.24  239.98
  -4   4   3 3095.69  239.38
   3  -4  -3   15.20    3.40
   3  -4  -3    7.90    3.20
   3  -4  -3   13.40    3.10
  -3   4   3   18.60    3.60
  -3   4   3   12.60    3.30
   2  -4  -3 3279.07  238.28
   2  -4  -3 2922.61  238.68
  -2   4   3 2788.32  236.48
  -2   4   3 2635.04  238.68
   1  -4  -3  230.78   22.50
   1  -4  -3  203.78   22.10
  -1   4   3  216.28   20.40
  -1   4   3  215.58   21.90
   0  -4  -3  817.72   64.99
   0  -4  -3  612.04   63.99
   0   4   3  642.14   62.09
   0   4   3  819.62   63.79
  -1  -4  -3  286.87   32.70
   1   4   3  320.17   30.20
  -2  -4  -3 1198.58  103.09
   2   4   3 1081.09   98.99
  -3  -4  -3  988.80  101.19
   3   4   3 1041.90   97.39
   3   4   3 1290.07   98.89
  -4  -4  -3  174.08   25.70
   4   4   3  178.38   22.50
   4   4   3  223.18   31.00
  -5  -4  -3  325.27   36.70
   5   4   3  291.47   31.50
  10  -5  -3  452.55   44.20
 -10   5   3  385.76   37.30
   9  -5  -3  361.16   37.50
   9  -5  -3  316.87   29.70
  -9   5   3  340.77   31.40
   8  -5  -3  581.14   56.39
   8  -5  -3  549.74   49.10
  -8   5   3  610.74   50.89
   7  -5  -3  482.25   42.20
   7  -5  -3  449.76   47.80
  -7   5   3  546.95   43.80
   6  -5  -3 1755.82  135.29
   6  -5  -3 1530.45  140.29
  -6   5   3 1493.15  146.69
  -6   5   3 1789.12  136.39
   5  -5  -3  997.10  102.99
   5  -5  -3 1219.18   94.89
  -5   5   3 1259.17   95.99
  -5   5   3 1093.09   97.29
   4  -5  -3  468.25   46.10
   4  -5  -3  559.24   43.30
  -4   5   3  503.75   43.60
  -4   5   3  468.45   44.40
   3  -5  -3 1929.91  152.98
   3  -5  -3 1936.01  155.18
   3  -5  -3 1796.52  151.98
  -3   5   3 1637.74  151.78
  -3   5   3 1958.90  155.78
   2  -5  -3  470.55   44.30
   2  -5  -3  522.05   45.60
  -2   5   3  428.46   44.40
  -2   5   3  524.95   42.60
   1  -5  -3  546.05   54.79
  -1   5   3  622.04   52.79
  -1   5   3  633.64   54.09
   0  -5  -3   12.30    6.70
   0  -5  -3   24.80    6.50
   0   5   3   27.30    7.00
   0   5   3   15.30    5.50
  -1  -5  -3 2901.61  235.58
   1   5   3 2728.13  232.78
  -2  -5  -3   56.79   12.70
   2   5   3   81.89   11.40
   2   5   3   46.40   10.30
  -3  -5  -3  834.92   75.29
   3   5   3  700.03   68.99
  -4  -5  -3   18.80    7.80
   4   5   3   24.30    6.40
  10  -6  -3    5.50    4.50
 -10   6   3   14.50    4.00
   9  -6  -3 1425.56  121.59
  -9   6   3 1307.77  113.99
   8  -6  -3   29.70    8.80
   8  -6  -3   32.40    5.00
  -8   6   3   32.50    5.70
   7  -6  -3 1050.99   95.39
   7  -6  -3 1050.89   88.59
  -7   6   3 1090.79   89.89
   6  -6  -3    9.90    2.90
  -6   6   3    9.40    3.30
   5  -6  -3 1984.80  157.68
   5  -6  -3 2013.30  162.58
  -5   6   3 1755.12  157.88
   4  -6  -3  119.39   13.40
   4  -6  -3  143.99   17.10
  -4   6   3  126.19   16.40
  -4   6   3  129.19   14.10
   3  -6  -3  145.79   17.40
   3  -6  -3  113.59   14.80
  -3   6   3  118.29   16.00
  -3   6   3  148.89   14.60
   2  -6  -3  217.38   26.50
   2  -6  -3  287.27   28.80
  -2   6   3  269.67   25.00
  -2   6   3  256.77   26.90
  -1   6   3 1340.27  126.29
  -1   6   3 1671.23  128.09
   0  -6  -3 1968.60  161.78
   0   6   3 1815.22  158.28
  -1  -6  -3 1137.79   95.19
   1   6   3  970.70   91.29
  -2  -6  -3  350.06   36.00
   2   6   3  254.07   29.70
  -9   7   3  742.53   64.19
   8  -7  -3  554.54   49.60
  -8   7   3  592.44   50.79
   7  -7  -3  529.25   47.80
   7  -7  -3  645.84   60.29
  -7   7   3  514.55   49.00
   6  -7  -3 1142.99   91.19
  -6   7   3  964.60   91.29
  -6   7   3 1150.28   96.49
   5  -7  -3  185.98   21.50
   5  -7  -3  131.49   16.20
  -5   7   3  182.38   17.30
  -5   7   3  163.98   20.50
   4  -7  -3  676.93   65.29
  -4   7   3  729.13   60.69
   3  -7  -3   36.70   10.40
  -3   7   3   45.50    8.10
  -3   7   3   26.50    7.20
  -2   7   3 1416.96  119.39
   1  -7  -3  172.08   23.00
  -1   7   3  159.98   19.00
   0   7   3  688.33   61.39
  -1  -7  -3   87.49   14.90
   1   7   3   90.69   12.40
  -8   8   3  950.50   84.79
  -7   8   3  117.59   21.70
  -7   8   3  121.19   13.50
   6  -8  -3  354.26   35.90
  -6   8   3  319.37   30.40
  -5   8   3  176.08   25.20
  -5   8   3  207.68   22.90
   4  -8  -3 1343.87  114.49
  -4   8   3 1237.78  119.49
   3  -8  -3  827.42   77.09
  -3   8   3  844.82   74.59
   2  -8  -3  763.52   78.39
   2  -8  -3  979.20   80.39
   1  -8  -3  542.45   54.89
   6  -9  -3   46.70    9.80
   5  -9  -3 1014.90   90.99
   4  -9  -3   99.59   15.10
   2 -10   4  876.31   80.19
   3 -10   4   31.60    9.60
   4 -10   4  163.98   21.20
   5 -10   4   -3.80    5.50
   5 -10   4    5.90    5.70
   6 -10   4  659.03   71.09
   7 -10   4  122.59   23.20
  -1  -9   4  403.76   40.80
   0  -9   4  329.27   35.50
   0  -9   4  348.27   40.10
   1  -9   4  977.80   94.89
   1  -9   4 1172.48  104.69
   2  -9   4  283.57   36.90
   2  -9   4  267.27   30.50
   2  -9   4  204.38   26.90
   3  -9   4  224.68   25.70
   3  -9   4  264.07   28.30
   4  -9   4  212.48   33.70
   4  -9   4  155.38   29.60
   5  -9   4  970.90   82.49
   5  -9   4  913.51   96.79
   6  -9   4  197.88   31.90
   6  -9   4  177.28   21.10
   7  -9   4  611.34   69.99
   8  -9   4  184.58   29.80
   2   8  -4   12.90    4.10
  -2  -8   4   12.70    9.10
  -1  -8   4 2335.37  203.28
  -1  -8   4 2239.88  194.38
   0  -8   4  376.36   47.00
   0  -8   4  332.67   36.00
   1  -8   4  850.21   75.39
   1  -8   4  796.02   86.69
   1  -8   4  834.22   71.59
   2  -8   4   92.49   11.80
   2  -8   4   93.99   20.20
   3  -8   4 1023.50  103.49
   3  -8   4 1329.17  119.89
   3  -8   4 1345.07  100.49
   3  -8   4 1074.29  101.19
   4  -8   4  208.98   22.40
   4  -8   4  225.28   26.50
   4  -8   4  213.98   34.40
   5  -8   4  290.07   43.60
   5  -8   4  318.37   30.00
  -6   8  -4  716.63   55.59
   6  -8   4  631.84   57.49
   6  -8   4  575.84   72.89
  -7   8  -4  303.67   26.80
   7  -8   4  252.27   39.90
  -8   8  -4 1041.60   85.19
   8  -8   4  949.40   99.89
   4   7  -4  254.97   26.50
  -4  -7   4  271.87   27.90
   3   7  -4  624.64   60.09
  -3  -7   4  705.73   64.19
  -3  -7   4  817.32   75.69
   2   7  -4 1795.12  153.78
  -2  -7   4 1959.10  173.68
   1   7  -4  585.04   56.39
  -1  -7   4  725.93   76.89
  -1  -7   4  732.33   61.79
   0   7  -4  613.54   59.69
   0  -7   4  715.13   62.49
   0  -7   4  785.92   81.49
   0  -7   4  808.02   66.79
  -1   7  -4  139.49   16.90
   1  -7   4  182.08   19.20
   1  -7   4  154.28   28.40
   1  -7   4  160.98   16.50
  -2   7  -4 1002.90  100.19
   2  -7   4 1171.48   93.79
   2  -7   4 1146.89   97.59
   2  -7   4 1212.28  112.99
   2  -7   4 1070.79   94.59
  -3   7  -4  274.57   27.80
   3  -7   4  295.77   26.30
   3  -7   4  280.57   25.30
   3  -7   4  294.87   40.00
   3  -7   4  228.28   28.20
  -4   7  -4 1741.53  134.89
   4  -7   4 1797.72  137.19
   4  -7   4 1608.24  135.89
   4  -7   4 1414.56  153.68
  -5   7  -4  342.37   28.10
   5  -7   4  294.77   29.10
   5  -7   4  283.87   44.40
   6  -7   4  855.61   96.59
   6  -7   4 1251.67  111.09
  -7   7  -4   82.79    9.70
   7  -7   4   52.39   18.20
   7  -7   4   62.59   10.20
  -8   7  -4  635.84   53.19
   8  -7   4  544.85   53.09
   8  -7   4  574.84   64.39
  -9   7  -4  107.79   13.60
   5   6  -4    4.90    2.80
  -5  -6   4   -2.40    8.20
  -5  -6   4    5.30    3.40
   4   6  -4 1886.41  155.88
   3   6  -4  183.68   18.50
  -3  -6   4  196.18   21.10
  -3  -6   4  187.08   32.50
   2   6  -4 1333.77  112.09
  -2  -6   4 1204.98  132.89
  -2  -6   4 1505.05  116.19
   1   6  -4  208.28   20.00
  -1  -6   4  194.98   34.90
  -1  -6   4  256.57   23.90
   0   6  -4 1910.71  158.48
   0  -6   4 1980.90  160.08
   1  -6   4  503.75   56.59
   1  -6   4  431.56   41.80
  -2   6  -4  983.50   87.69
  -2   6  -4 1014.10   90.99
   2  -6   4 1091.69   88.49
   2  -6   4 1175.38   89.09
   2  -6   4  904.01  102.59
   2  -6   4 1217.08   92.89
  -3   6  -4  543.05   46.50
   3  -6   4  584.74   43.50
   3  -6   4  414.16   45.80
   3  -6   4  491.75   42.50
   3  -6   4  448.96   56.59
  -4   6  -4  842.12   68.29
  -4   6  -4  840.82   72.79
   4  -6   4  763.12   85.59
   4  -6   4  787.22   72.09
  -5   6  -4 2967.80  232.08
   5  -6   4 2705.23  231.98
  -6   6  -4  345.57   28.60
   6  -6   4  290.77   28.20
   6  -6   4  238.08   37.70
  -7   6  -4  618.74   52.89
   7  -6   4  592.24   63.79
   7  -6   4  537.35   52.29
  -8   6  -4  247.68   25.30
   8  -6   4  180.68   26.00
   8  -6   4  249.38   32.10
  -9   6  -4  865.51   77.29
   6   5  -4  423.96   38.20
  -6  -5   4  390.86   38.90
  -6  -5   4  484.95   62.49
   5   5  -4 1217.68  104.99
  -5  -5   4 1301.87  127.09
   4   5  -4  608.44   51.29
  -4  -5   4  565.44   52.69
  -4  -5   4  597.74   72.29
   3   5  -4  967.10   79.39
  -3  -5   4 1030.40   81.89
  -3  -5   4  806.52   99.89
   2   5  -4    7.60    2.20
  -2  -5   4    0.30    6.20
  -2  -5   4   10.40    3.40
   1   5  -4 1603.24  130.99
   0   5  -4  585.24   49.10
   0  -5   4  593.54   49.90
   1  -5   4 1591.94  134.49
   1  -5   4 1703.63  134.69
  -2   5  -4   96.69    9.20
   2  -5   4   61.49   16.30
   2  -5   4   96.99   12.30
   2  -5   4   88.79    8.90
  -3   5  -4 3648.44  307.27
   3  -5   4 3829.22  303.37
  -4   5  -4  169.58   19.90
  -4   5  -4  159.78   16.60
   4  -5   4  169.58   16.20
  -5   5  -4 1540.65  134.19
  -5   5  -4 1649.44  129.49
   5  -5   4 1452.45  128.19
  -6   5  -4  217.58   22.50
   6  -5   4  194.98   28.70
   6  -5   4  187.98   21.20
   6  -5   4  241.08   22.70
  -7   5  -4 1030.30   86.99
   7  -5   4  832.52   84.79
   7  -5   4 1099.39   95.29
  -8   5  -4  106.09   15.50
   8  -5   4  106.99   14.70
  -9   5  -4  468.05   46.50
   7   4  -4 1039.90   93.39
  -7  -4   4 1198.18  112.79
   6   4  -4   52.09    7.90
  -6  -4   4   56.89    8.40
  -6  -4   4   84.99   19.90
   5   4  -4 1384.26  111.69
  -5  -4   4 1342.97  112.49
  -5  -4   4 1270.47  135.19
   4   4  -4  489.35   40.10
  -4  -4   4  477.15   41.20
  -4  -4   4  369.16   56.09
   3   4  -4 2714.73  219.18
  -3  -4   4 2669.43  220.58
   2   4  -4  578.94   50.79
  -2  -4   4  639.54   52.59
   1   4  -4  551.24   45.30
  -1  -4   4  447.26   57.49
  -1  -4   4  598.84   47.30
   0   4  -4  369.16   33.90
   0  -4   4  457.55   36.50
   0  -4   4  442.16   35.00
   0  -4   4  329.07   43.70
   1  -4   4  670.53   69.29
   1  -4   4  732.73   57.99
  -2   4  -4 4924.51  406.76
   2  -4   4 5217.38  418.96
   2  -4   4 4238.28  409.56
   2  -4   4 5739.73  406.66
  -3   4  -4  151.68   15.90
   3  -4   4  172.88   18.50
  -4   4  -4 1389.46  127.79
  -4   4  -4 1693.23  132.59
  -5   4  -4  280.77   31.10
  -5   4  -4  256.97   25.00
   5  -4   4  208.48   28.70
   5  -4   4  223.88   23.00
  -6   4  -4 1918.01  154.28
   6  -4   4 1604.64  151.58
   6  -4   4 1941.61  160.18
  -7   4  -4  330.67   35.60
   7  -4   4  394.46   32.90
   7  -4   4  282.47   32.60
   8  -4   4  265.87   30.30
  -9   4  -4   12.30    5.70
   7   3  -4  522.95   47.80
  -7  -3   4  578.34   71.89
   6   3  -4 1530.35  119.39
  -6  -3   4 1310.57  143.69
  -6  -3   4 1417.96  119.19
   5   3  -4  111.29   11.60
  -5  -3   4   72.69   25.20
  -5  -3   4  107.09   11.90
  -4  -3   4 1443.86  115.29
  -4  -3   4 1323.97  133.49
   3   3  -4  353.96   31.60
  -3  -3   4  383.96   32.70
   2   3  -4 1205.18   99.89
  -2  -3   4 1239.88  103.49
   1   3  -4   24.30    3.30
  -1  -3   4   28.50    4.40
   0   3  -4 5452.35  479.95
   0  -3   4 5875.01  482.05
   0  -3   4 6643.14  478.85
   0  -3   4 5801.22  489.45
   1  -3   4  246.18   21.90
   1  -3   4  287.77   22.70
   1  -3   4  242.18   29.30
  -2   3  -4 2547.34  203.28
   2  -3   4 2448.96  210.98
  -3   3  -4 1009.30   86.09
   3  -3   4 1041.00   81.49
   3  -3   4 1114.69   83.59
   3  -3   4  907.81   81.49
   3  -3   4  836.22   87.49
  -4   3  -4 1999.20  155.88
  -4   3  -4 1593.24  151.38
   4  -3   4 1694.73  156.28
   4  -3   4 1971.10  149.88
   4  -3   4 2061.49  152.98
   4  -3   4 1620.44  150.08
  -5   3  -4  210.08   23.20
  -5   3  -4  220.88   26.10
   5  -3   4  216.58   21.10
   5  -3   4  169.48   20.90
   5  -3   4  230.38   26.20
   5  -3   4  222.28   23.70
  -6   3  -4 1120.59   94.99
   6  -3   4 1028.80   90.79
   6  -3   4 1056.39   94.59
  -7   3  -4  825.42   72.59
   7  -3   4  787.12   67.79
   7  -3   4  691.33   67.79
  -8   3  -4   19.20    7.10
  -8   3  -4   26.50   10.70
   8  -3   4   34.90    8.50
   8  -3   4   42.70    9.50
  -9   3  -4  532.65   51.99
   8   2  -4  783.42   71.69
  -8  -2   4  937.21  101.29
   7   2  -4  107.19   11.50
  -7  -2   4   89.89   28.60
  -7  -2   4   67.19   12.80
   6   2  -4 1763.02  133.59
  -6  -2   4 1667.43  132.99
  -6  -2   4 1395.96  133.09
   5   2  -4  600.44   50.79
  -5  -2   4  522.85   50.79
  -5  -2   4  655.53   51.09
   4   2  -4  426.76   39.40
  -4  -2   4  492.85   40.10
  -4  -2   4  470.45   40.10
   3   2  -4  157.98   15.20
  -3  -2   4  179.88   16.00
   2   2  -4 1595.24  125.19
   2   2  -4 1459.55  137.39
   1   2  -4 5783.22  475.55
   1   2  -4 6369.76  468.75
  -1  -2   4 6260.67  467.95
  -1  -2   4 4774.92  474.55
   0  -2   4 1248.78   91.09
   0  -2   4  958.50   93.79
   0  -2   4 1145.99   98.59
   0  -2   4 1138.19   92.69
  -1   2  -4 3492.95  295.57
   1  -2   4 3983.40  301.97
   1  -2   4 3274.77  296.27
   1  -2   4 3860.91  296.97
  -2   2  -4  570.94   50.99
   2  -2   4  649.54   52.79
   2  -2   4  607.04   51.59
   2  -2   4  589.34   55.49
  -3   2  -4 3038.30  241.78
   3  -2   4 2925.01  239.78
   3  -2   4 2845.62  242.18
   3  -2   4 2850.01  237.98
  -4   2  -4  428.86   40.40
  -4   2  -4  324.87   37.10
   4  -2   4  401.26   38.30
   4  -2   4  392.36   36.10
   4  -2   4  442.76   40.20
  -5   2  -4  631.74   61.79
  -5   2  -4  637.54   59.59
   5  -2   4  704.13   57.29
   5  -2   4  597.04   59.09
  -6   2  -4   53.39   12.30
   6  -2   4   59.59    9.30
   6  -2   4   56.29   10.20
   6  -2   4   61.89   14.10
  -7   2  -4 2100.59  183.08
   7  -2   4 2061.79  178.38
   7  -2   4 2134.49  183.18
   7  -2   4 2243.28  179.28
  -8   2  -4  124.69   19.70
  -8   2  -4  136.19   19.20
   9   1  -4  592.94   55.59
  -9  -1   4  611.14  112.99
   8   1  -4   86.19   10.60
  -8  -1   4   86.39   11.70
   7   1  -4 1442.46  117.29
  -7  -1   4 1371.06  117.59
   6   1  -4   88.69    9.60
  -6  -1   4   73.19   10.10
   5   1  -4  590.74   49.99
  -5  -1   4  555.64   50.29
  -5  -1   4  617.64   49.99
   4   1  -4  141.59   12.80
  -4  -1   4  124.39   13.00
  -3  -1   4 2785.42  253.27
  -3  -1   4 3458.85  253.87
   2   1  -4  289.97   23.30
  -2  -1   4  243.88   23.30
   1   1  -4 3632.34  273.17
  -1  -1   4 2913.91  276.97
  -1  -1   4 3551.84  271.57
   0   1  -4  616.84   55.59
   0  -1   4  676.33   56.09
   0  -1   4  593.94   52.09
   0  -1   4  602.34   52.59
   1  -1   4 2192.88  177.38
   1  -1   4 2137.99  177.88
  -2   1  -4  105.59   11.20
   2  -1   4  111.39   12.60
   2  -1   4   77.19   15.90
   2  -1   4  110.69   11.90
   3  -1   4 1535.75  122.79
   3  -1   4 1395.56  123.79
  -4   1  -4  940.51   74.89
  -4   1  -4  726.53   71.09
   4  -1   4  733.83   71.39
   4  -1   4  817.52   70.29
  -5   1  -4  331.47   38.10
  -5   1  -4  383.46   37.10
   5  -1   4  317.17   42.10
   5  -1   4  359.96   36.70
  -6   1  -4 1310.27  124.39
   6  -1   4 1330.67  124.69
   6  -1   4 1490.55  121.19
   6  -1   4 1564.34  123.29
  -7   1  -4  134.39   21.10
  -7   1  -4  144.59   22.70
   7  -1   4  177.88   22.70
   7  -1   4  181.78   20.70
   7  -1   4  212.98   23.90
  -8   1  -4  348.87   44.20
   9   0  -4  992.30   90.99
   9   0  -4 1051.79   87.69
  -9   0   4 1061.99   88.49
   8   0  -4  549.74   47.90
  -8   0   4  539.85   48.40
   7   0  -4  424.76   37.10
  -7   0   4  407.96   37.40
   6   0  -4  178.78   17.80
   6   0  -4  150.68   13.60
  -6   0   4  171.58   16.00
  -6   0   4  131.79   19.40
   5   0  -4  716.73   61.79
   5   0  -4  784.72   63.69
  -5   0   4  782.22   63.99
   4   0  -4 3506.65  279.77
   4   0  -4 3415.46  278.27
  -4   0   4 3429.86  280.07
   3   0  -4 1201.98   96.49
   3   0  -4 1247.18   97.89
  -3   0   4 1124.79   97.99
   2   0  -4 2515.45  205.78
   2   0  -4 2622.34  205.98
  -2   0   4 2408.16  205.98
  -2   0   4 2588.84  206.18
   1   0  -4   15.50    3.00
  -1   0   4   13.50    3.00
  -1   0   4   21.20    3.40
   0   0  -4 5831.72  456.85
   0   0  -4 6411.66  461.25
   0   0   4 5523.15  457.75
   0   0   4 4859.31  456.95
  -1   0  -4   53.49    6.40
   1   0   4   46.90    6.90
   1   0   4   40.60    6.30
   2   0   4  462.45   48.00
   2   0   4  638.44   49.90
   3   0   4   24.00    6.00
  -4   0  -4 3086.19  247.48
  -4   0  -4 2839.12  245.88
   4   0   4 3319.87  247.08
   4   0   4 2655.73  246.68
  -5   0  -4  236.08   26.70
   5   0   4  191.58   25.50
   5   0   4  260.77   26.40
  -6   0  -4  696.43   71.89
  -6   0  -4  863.71   78.29
   6   0   4  894.31   72.59
   6   0   4  690.03   72.39
  -7   0  -4   77.79   13.60
  -7   0  -4   85.19   15.40
   7   0   4   90.89   13.50
   9  -1  -4   80.09   12.20
   9  -1  -4   76.29    9.90
  -9   1   4   72.49    9.50
   8  -1  -4  638.44   58.39
   8  -1  -4  616.24   54.79
  -8   1   4  647.94   55.49
   7  -1  -4  215.98   18.60
   7  -1  -4  209.18   20.50
  -7   1   4  217.58   20.90
   6  -1  -4 2445.06  183.78
   6  -1  -4 2256.37  181.68
  -6   1   4 1931.31  187.68
  -6   1   4 2331.07  183.88
   5  -1  -4   22.70    3.20
   5  -1  -4   16.70    2.20
   5  -1  -4   16.50    4.20
  -5   1   4   18.40    5.40
  -5   1   4   18.10    3.50
   4  -1  -4 3379.66  271.47
   4  -1  -4 3569.54  273.97
   4  -1  -4 3355.36  274.37
  -4   1   4 2995.90  275.17
  -4   1   4 3476.75  272.47
   3  -1  -4  663.23   60.29
   3  -1  -4  704.73   60.89
   3  -1  -4  793.82   59.39
  -3   1   4  799.02   60.79
  -3   1   4  656.73   62.29
   2  -1  -4 2100.69  184.98
   2  -1  -4 2176.28  185.48
  -2   1   4 2551.04  185.78
   1  -1  -4  536.95   46.20
  -1   1   4  575.54   47.40
  -1   1   4  532.45   46.40
   0  -1  -4 2301.87  186.28
   0   1   4 2236.68  186.18
   0   1   4 2304.87  187.08
  -1  -1  -4  420.96   38.90
   1   1   4  510.25   40.40
   1   1   4  403.96   39.10
  -2  -1  -4  375.46   38.80
  -2  -1  -4  465.85   40.30
  -2  -1  -4  478.15   39.70
   2   1   4  474.45   41.40
   3   1   4 2560.54  213.28
  -4  -1  -4  189.18   27.10
  -4  -1  -4  218.28   27.40
   4   1   4  169.98   22.60
   4   1   4  234.48   24.60
  -5  -1  -4 1036.70  103.79
   5   1   4 1250.37  105.39
   5   1   4 1297.77  106.89
  -6  -1  -4    2.40    5.90
  -6  -1  -4   -5.30    5.10
   6   1   4    6.20    6.80
   6   1   4   -1.10    3.40
   7   1   4  835.82   75.19
  10  -2  -4  222.88   24.20
 -10   2   4  204.98   21.50
   9  -2  -4  112.19   14.90
   9  -2  -4   83.19   12.10
  -9   2   4  104.39   12.10
   8  -2  -4  207.68   22.00
   8  -2  -4  226.48   25.10
  -8   2   4  259.27   22.90
   7  -2  -4  929.61   77.69
   7  -2  -4  974.40   82.79
  -7   2   4  938.61   79.89
   6  -2  -4  587.44   48.70
   6  -2  -4  508.55   45.90
   6  -2  -4  538.75   44.40
  -6   2   4  452.75   49.10
  -6   2   4  584.44   46.30
   5  -2  -4 1760.02  137.39
   5  -2  -4 1700.93  133.89
   5  -2  -4 1582.44  135.29
  -5   2   4 1470.15  137.99
  -5   2   4 1724.53  135.39
   4  -2  -4  375.16   29.50
   4  -2  -4  351.46   31.90
  -4   2   4  362.46   30.70
  -4   2   4  308.27   32.30
   3  -2  -4 5965.20  459.35
   3  -2  -4 5991.50  458.45
  -3   2   4 5921.21  459.75
  -3   2   4 4835.12  460.65
   2  -2  -4   42.70    6.10
  -2   2   4   48.20    6.60
  -2   2   4   42.50    6.60
   1  -2  -4  493.95   45.20
   1  -2  -4  592.14   45.30
  -1   2   4  492.25   46.10
  -1   2   4  530.75   45.50
   0  -2  -4    6.60    2.50
   0  -2  -4    5.20    2.10
   0  -2  -4    4.50    2.80
   0   2   4    7.50    2.90
  -1  -2  -4 5227.08  423.46
   1   2   4 4767.12  422.86
   1   2   4 5617.34  423.96
  -2  -2  -4  393.16   32.90
   2   2   4  276.77   31.90
  -3  -2  -4 1709.03  135.89
  -3  -2  -4 1382.16  124.99
   3   2   4 1378.06  126.09
  -4  -2  -4  344.87   38.50
  -4  -2  -4  295.87   31.40
   4   2   4  248.18   31.50
   4   2   4  359.36   34.20
  -5  -2  -4  755.52   76.89
   5   2   4  819.22   72.49
   5   2   4  760.62   71.09
  -6  -2  -4  187.48   26.30
   6   2   4  209.38   22.60
  10  -3  -4   77.89   12.00
 -10   3   4   85.59   10.60
   9  -3  -4  646.04   63.59
  -9   3   4  744.43   60.89
   8  -3  -4   44.30    6.40
   8  -3  -4   48.20    9.00
  -8   3   4   40.90    6.80
   7  -3  -4 1376.86  116.39
   7  -3  -4 1328.47  111.29
  -7   3   4 1381.86  113.39
   6  -3  -4  488.85   36.90
   6  -3  -4  365.76   37.80
   6  -3  -4  467.95   41.70
  -6   3   4  421.46   41.50
   5  -3  -4 2226.68  175.78
   5  -3  -4 2164.38  179.58
   5  -3  -4 2239.18  176.88
  -5   3   4 2272.37  177.18
  -5   3   4 1916.41  179.28
   4  -3  -4  580.34   43.70
   4  -3  -4  473.15   46.20
  -4   3   4  442.06   45.80
  -4   3   4  585.04   45.20
   3  -3  -4  999.90   74.19
  -3   3   4  786.42   75.69
  -3   3   4  892.91   75.09
   2  -3  -4  400.66   32.00
   2  -3  -4  314.37   31.00
   2  -3  -4  369.06   31.90
  -2   3   4  295.47   31.70
  -2   3   4  336.17   30.50
   1  -3  -4  458.25   38.20
   1  -3  -4  366.26   38.80
   1  -3  -4  345.97   38.20
   1  -3  -4  378.66   35.50
  -1   3   4  479.45   37.00
  -1   3   4  491.95   39.20
   0  -3  -4 1821.62  152.08
   0   3   4 1789.02  150.88
   0   3   4 1873.91  152.08
  -1  -3  -4 1073.89   89.59
   1   3   4  919.61   88.19
   1   3   4 1119.09   89.29
  -2  -3  -4 2803.72  226.58
   2   3   4 2657.83  226.08
  -3  -3  -4    7.00    5.10
   3   3   4   11.00    4.80
  -4  -3  -4 1388.76  129.19
   4   3   4 1205.28  121.79
   4   3   4 1556.04  121.19
  -5  -3  -4  157.48   22.50
   5   3   4  150.38   18.50
  10  -4  -4  606.44   56.99
 -10   4   4  598.34   52.89
   9  -4  -4  196.38   23.80
  -9   4   4  211.18   20.90
   8  -4  -4  793.12   73.59
   8  -4  -4  797.82   67.69
  -8   4   4  844.02   69.79
   7  -4  -4  437.96   43.10
   7  -4  -4  439.26   37.90
  -7   4   4  456.85   39.70
   6  -4  -4 2881.11  253.77
   6  -4  -4 3118.19  249.28
  -6   4   4 3213.58  250.97
   5  -4  -4   15.60    2.60
  -5   4   4    9.60    3.50
  -5   4   4   21.10    3.90
   4  -4  -4  340.37   26.70
   4  -4  -4  279.37   29.20
  -4   4   4  326.97   28.00
  -4   4   4  256.47   28.10
   3  -4  -4   91.49   10.80
   3  -4  -4   81.89    9.90
   3  -4  -4   79.69   12.40
  -3   4   4   61.99    9.10
  -3   4   4   88.29   15.20
   2  -4  -4 2429.06  194.28
   2  -4  -4 2234.48  194.38
  -2   4   4 2116.69  195.48
  -2   4   4 2611.54  192.78
   1  -4  -4  639.84   55.89
  -1   4   4  603.04   55.59
  -1   4   4  628.34   53.89
   0   4   4 2539.45  216.48
   0   4   4 2716.03  220.58
  -1  -4  -4  856.31   70.59
   1   4   4  701.23   68.59
   1   4   4  790.82   68.99
  -2  -4  -4 2478.25  202.58
   2   4   4 2357.66  203.18
  -3  -4  -4  272.87   33.60
   3   4   4  236.58   28.70
   3   4   4  319.67   30.30
  -4  -4  -4  249.88   30.20
   4   4   4  214.38   24.40
  10  -5  -4  699.53   63.09
 -10   5   4  646.44   58.19
   9  -5  -4  194.08   23.40
  -9   5   4  196.08   20.00
   8  -5  -4 1319.17  112.29
   8  -5  -4 1268.37  115.09
  -8   5   4 1373.56  111.09
   7  -5  -4  490.45   49.80
   7  -5  -4  496.95   44.50
  -7   5   4  584.04   46.80
   6  -5  -4 1060.69   88.39
   6  -5  -4  990.00   93.09
  -6   5   4 1146.69   90.39
   5  -5  -4  479.75   41.70
   5  -5  -4  484.25   45.80
  -5   5   4  492.05   43.30
   4  -5  -4  170.48   17.80
   4  -5  -4  202.38   21.10
  -4   5   4  193.08   21.60
   3  -5  -4  855.71   80.79
   3  -5  -4 1020.50   82.79
  -3   5   4 1079.49   80.59
  -3   5   4  832.12   82.49
   2  -5  -4  888.61   78.79
  -2   5   4  911.51   76.39
  -2   5   4  899.51   79.09
   1  -5  -4 2059.89  174.68
  -1   5   4 2041.00  173.78
  -1   5   4 2147.59  172.48
   0  -5  -4   47.30   10.70
   0  -5  -4   69.89   11.00
   0   5   4   67.99    9.90
   0   5   4   70.49   10.20
   1   5   4 2025.80  180.88
   1   5   4 2299.77  180.98
  -2  -5  -4    8.00    6.40
  -2  -5  -4   29.10    7.90
   2   5   4   12.80    5.00
   2   5   4   12.00    7.30
  -3  -5  -4  387.76   43.20
   3   5   4  432.56   39.80
   9  -6  -4 1351.76  113.89
  -9   6   4 1235.58  108.39
   8  -6  -4   80.49    9.40
   8  -6  -4   89.99   13.80
  -8   6   4   81.09   10.50
   7  -6  -4  285.67   27.90
   7  -6  -4  343.97   33.90
  -7   6   4  317.67   29.80
   6  -6  -4   75.69    8.60
   6  -6  -4   76.19   11.90
  -6   6   4   67.49    9.60
  -6   6   4   73.39   11.60
   5  -6  -4 1147.19  103.19
  -5   6   4 1169.08  104.29
  -5   6   4 1421.96  109.09
   4  -6  -4  322.77   31.50
  -4   6   4  329.87   28.50
  -4   6   4  243.88   30.30
   3  -6  -4 2092.89  178.88
  -3   6   4 2280.87  175.68
  -3   6   4 2003.70  178.78
   2  -6  -4  316.97   32.80
  -2   6   4  316.27   30.00
   1  -6  -4 2922.91  238.28
  -1   6   4 2856.61  235.38
  -1   6   4 2780.12  236.08
   0  -6  -4  710.03   74.69
   0   6   4  881.21   70.59
   0   6   4  772.62   69.89
  -1  -6  -4  260.57   33.10
  -1  -6  -4  359.26   32.60
   1   6   4  287.57   30.40
  -2  -6  -4   91.39   14.50
   2   6   4   80.79   15.40
  -9   7   4  394.36   40.10
  -8   7   4  399.76   36.80
   7  -7  -4   36.60    6.40
   7  -7  -4   55.29    9.90
  -7   7   4   40.40    6.90
  -7   7   4   21.40    8.00
   6  -7  -4  677.63   56.09
  -6   7   4  588.04   51.49
  -6   7   4  490.85   54.09
   5  -7  -4  547.15   52.89
  -5   7   4  502.45   46.10
   4  -7  -4  683.43   61.89
  -4   7   4  582.84   60.39
  -4   7   4  710.53   57.69
   3  -7  -4   58.99   13.00
  -3   7   4   68.39   11.70
   2  -7  -4 2510.45  201.38
   2  -7  -4 2180.18  200.68
  -2   7   4 2286.37  197.08
  -2   7   4 2571.44  200.78
   1  -7  -4   40.60   11.70
   1  -7  -4   58.19   10.30
  -1   7   4   65.89    9.60
   0  -7  -4  712.73   66.29
   0  -7  -4  778.22   64.59
   0   7   4  613.64   62.19
   7  -8  -4  145.39   18.00
  -7   8   4  118.59   14.70
   6  -8  -4  535.35   52.99
  -6   8   4  584.54   49.00
   5  -8  -4  263.37   28.90
  -5   8   4  268.37   25.10
   4  -8  -4 1992.60  163.78
  -4   8   4 1857.71  158.68
  -3   8   4  682.63   60.09
  -2   8   4  303.97   28.70
   2 -10   5  587.84   56.69
   3 -10   5    5.30    4.50
   3 -10   5   -5.50    6.00
   4 -10   5  169.38   21.70
   5 -10   5   43.40   11.20
   6 -10   5  501.45   59.09
  -1  -9   5  303.67   33.90
  -1  -9   5  344.27   40.60
   0  -9   5  441.36   50.79
   0  -9   5  360.76   39.80
   1  -9   5  311.47   42.40
   1  -9   5  242.18   29.50
   2  -9   5  433.16   47.30
   2  -9   5  552.74   63.49
   3  -9   5  211.88   25.80
   4  -9   5    9.70    5.70
   4  -9   5   19.60   10.00
   5  -9   5  612.74   58.69
   6  -9   5   -0.10    6.00
   7  -9   5  360.46   46.50
   2   8  -5   17.80    5.30
  -2  -8   5   29.50   12.60
  -2  -8   5   30.60    8.00
   0  -8   5    4.40    3.80
   0  -8   5   -3.00    6.70
   1  -8   5  576.04   56.09
   1  -8   5  608.84   72.29
   2  -8   5   31.60   14.10
   2  -8   5   27.80    7.80
   3  -8   5 1472.25  143.99
   4  -8   5  347.67   39.40
   4  -8   5  451.45   54.99
  -5   8  -5  713.23   59.79
   5  -8   5  710.33   58.69
   5  -8   5  541.05   72.79
   6  -8   5  235.58   24.30
  -7   8  -5  505.75   45.90
   7  -8   5  522.05   58.99
  -8   8  -5  402.26   41.90
   8  -8   5  520.05   52.69
   4   7  -5  457.15   39.90
  -4  -7   5  352.96   49.10
  -4  -7   5  519.45   54.29
   3   7  -5  400.56   37.30
  -3  -7   5  483.05   56.09
  -3  -7   5  398.16   40.30
   2   7  -5  494.65   45.00
  -2  -7   5  543.05   49.90
  -2  -7   5  511.75   65.39
   1   7  -5  376.86   35.10
  -1  -7   5  382.46   54.39
  -1  -7   5  438.46   39.90
   0   7  -5  289.17   25.50
   0  -7   5  270.47   43.90
  -1   7  -5   76.69    9.00
   1  -7   5  106.69   23.30
   2  -7   5 1816.22  170.08
   2  -7   5 1776.42  152.98
  -3   7  -5   13.20    3.40
   3  -7   5    7.20    5.30
   3  -7   5   16.00    9.90
  -4   7  -5  972.00   76.29
   4  -7   5  792.12   92.19
  -5   7  -5  184.78   17.80
   5  -7   5  157.78   28.70
   5  -7   5  162.58   17.80
  -6   7  -5 1172.38   93.89
   6  -7   5 1091.69  108.19
   6  -7   5 1030.50   93.09
  -7   7  -5   83.69   11.80
   7  -7   5   72.69   11.80
   7  -7   5   95.39   18.60
  -8   7  -5  712.23   73.19
   8  -7   5  976.40   82.99
   5   6  -5    6.80    3.00
  -5  -6   5    5.60    5.80
  -5  -6   5   19.50   16.20
   4   6  -5 1955.70  166.78
  -4  -6   5 1895.11  168.78
  -4  -6   5 2258.87  192.48
   3   6  -5   85.89   10.00
  -3  -6   5   90.19   22.00
  -3  -6   5   74.69   11.30
   2   6  -5  713.03   58.39
  -2  -6   5  736.13   61.59
  -2  -6   5  564.54   76.59
  -1  -6   5    6.90    3.10
  -1  -6   5    3.70    7.20
   0   6  -5 1662.73  151.68
   0  -6   5 1788.02  172.78
   0  -6   5 2125.09  156.68
   1  -6   5  926.81   97.29
   1  -6   5  988.20   84.49
  -2   6  -5  927.51   79.39
   2  -6   5  871.41   95.19
   2  -6   5 1058.09   80.29
  -3   6  -5 1061.99   88.39
   3  -6   5  796.42   86.19
   3  -6   5 1138.39  105.29
  -4   6  -5  760.22   65.39
  -5   6  -5  959.40   84.49
   5  -6   5  974.80   83.49
   5  -6   5 1024.80   97.49
  -6   6  -5  591.84   56.69
   6  -6   5  671.93   66.59
  -7   6  -5  243.18   24.90
   7  -6   5  190.78   22.40
  -8   6  -5   32.30    8.60
   6   5  -5  406.16   38.40
  -6  -5   5  471.35   61.09
   5   5  -5  839.62   71.19
  -5  -5   5  813.22   72.29
  -5  -5   5  844.92   94.29
   4   5  -5  662.53   55.19
  -4  -5   5  581.24   76.29
  -4  -5   5  641.74   56.69
   3   5  -5  238.48   22.40
  -3  -5   5  252.07   24.40
  -3  -5   5  214.48   38.30
   2   5  -5  384.26   32.60
  -2  -5   5  359.56   34.50
  -2  -5   5  360.06   50.09
   1   5  -5 2433.06  190.58
  -1  -5   5 2225.88  209.08
   0   5  -5  161.38   16.80
   0  -5   5  194.68   19.60
   0  -5   5  215.28   31.90
   1  -5   5 2945.51  242.28
   1  -5   5 2904.51  252.97
  -2   5  -5  294.37   25.50
   2  -5   5  300.77   25.50
   2  -5   5  256.77   35.50
  -3   5  -5 1861.11  159.88
  -3   5  -5 1772.32  164.88
   3  -5   5 2085.99  159.78
   3  -5   5 2083.09  173.48
  -4   5  -5   16.30    4.60
  -4   5  -5   20.90    7.10
   4  -5   5   14.30    7.50
  -5   5  -5 1106.19   97.29
   5  -5   5 1151.08   95.49
  -6   5  -5  212.38   24.40
   6  -5   5  184.48   21.80
   6  -5   5  253.27   29.40
  -7   5  -5  769.82   68.99
   7  -5   5  711.13   65.49
  -8   5  -5  326.97   35.10
   7   4  -5 1365.96  114.19
  -6  -4   5   26.20    5.80
  -6  -4   5   36.80   18.90
   5   4  -5  352.26   31.80
  -5  -4   5  324.67   34.90
  -5  -4   5  369.36   52.19
   4   4  -5   40.50    5.80
  -4  -4   5   41.20    6.40
  -4  -4   5   47.00   17.30
   3   4  -5 1262.07  100.29
  -3  -4   5 1083.59  115.49
   2   4  -5 1188.98   99.69
  -2  -4   5 1271.17  101.59
  -2  -4   5 1159.78  116.79
   1   4  -5 1664.03  135.69
  -1  -4   5 1641.54  150.58
  -1  -4   5 1666.63  137.69
   0   4  -5 1342.27  115.69
   0  -4   5 1479.05  118.79
   1  -4   5 2451.05  214.98
   1  -4   5 2881.51  227.78
  -2   4  -5 2124.09  177.38
   2  -4   5 2361.36  188.48
   2  -4   5 2060.19  177.08
  -3   4  -5 1400.26  121.59
   3  -4   5 1268.37  120.69
   3  -4   5 1632.24  123.29
   3  -4   5 1595.54  130.89
  -4   4  -5   94.99   15.80
   4  -4   5  109.19   13.60
   4  -4   5  101.09   11.60
   4  -4   5  106.89   16.80
  -5   4  -5  262.57   31.70
   5  -4   5  354.86   34.20
   5  -4   5  284.57   29.90
   5  -4   5  385.86   36.90
  -6   4  -5 1507.65  131.49
   6  -4   5 1526.35  128.19
  -7   4  -5    8.40    4.90
   7  -4   5   -0.40    4.40
  -8   4  -5  598.34   58.09
   7   3  -5  369.56   33.90
   6   3  -5  309.67   29.20
  -6  -3   5  326.47   49.00
   5   3  -5   73.09    9.00
  -5  -3   5   70.59   19.40
  -5  -3   5   75.19    9.40
   4   3  -5 1741.93  139.19
  -4  -3   5 1474.95  155.78
  -4  -3   5 1823.32  140.29
   3   3  -5  377.76   32.30
  -3  -3   5  297.87   42.80
  -3  -3   5  415.26   33.70
   2   3  -5 2254.77  173.98
  -2  -3   5 1871.21  177.08
  -2  -3   5 2084.99  186.88
  -2  -3   5 2302.47  175.58
   1   3  -5  366.66   34.50
  -1  -3   5  424.16   36.50
  -1  -3   5  409.36   43.80
  -1  -3   5  420.46   36.50
   0  -3   5 2786.92  252.37
   0  -3   5 3392.86  266.67
   1  -3   5   85.09    8.90
   1  -3   5  103.79   10.30
   1  -3   5  101.79   14.60
  -2   3  -5 1610.84  126.69
   2  -3   5 1606.24  133.79
   2  -3   5 1412.36  128.09
  -3   3  -5  257.47   28.60
  -3   3  -5  273.97   25.30
   3  -3   5  307.77   30.40
   3  -3   5  263.07   26.90
   3  -3   5  296.87   25.60
   3  -3   5  219.38   24.10
  -4   3  -5 1395.46  131.69
   4  -3   5 1585.74  130.39
   4  -3   5 1585.54  127.49
  -5   3  -5  566.64   60.39
  -5   3  -5  640.84   65.39
   5  -3   5  732.73   63.09
   5  -3   5  599.04   58.19
   5  -3   5  778.22   59.39
   6  -3   5 1020.90   86.39
   6  -3   5 1017.00   82.79
   6  -3   5  825.52   85.59
   7  -3   5  727.33   64.49
  -8   3  -5  197.08   25.00
  -8   3  -5  244.38   26.10
   8   2  -5  431.86   38.80
   7   2  -5  120.39   13.70
  -7  -2   5  130.79   27.80
  -6  -2   5  791.52   66.69
  -6  -2   5  750.02   86.29
   5   2  -5  593.04   49.00
  -5  -2   5  508.15   49.10
  -5  -2   5  600.04   49.40
   4   2  -5 1394.16  101.79
  -4  -2   5 1137.49  119.09
  -4  -2   5 1135.09  101.89
   3   2  -5 1481.25  105.69
  -3  -2   5 1082.49  105.59
   2   2  -5 2613.64  210.08
  -2  -2   5 2649.43  208.98
  -2  -2   5 2483.55  211.38
   1   2  -5 4092.99  321.37
  -1  -2   5 3933.31  317.27
  -1  -2   5 3625.84  316.77
  -1  -2   5 4017.00  324.67
   0   2  -5  491.25   45.60
   0  -2   5  528.55   48.30
   0  -2   5  602.04   46.70
   1  -2   5   95.69   12.00
   1  -2   5  138.99   15.70
   1  -2   5  107.59   11.90
   2  -2   5  257.47   27.70
   2  -2   5  342.47   30.50
   2  -2   5  265.67   26.80
  -3   2  -5 3194.78  253.67
  -3   2  -5 3267.57  250.67
   3  -2   5 2954.70  250.47
   3  -2   5 2800.12  251.87
  -4   2  -5   31.50    7.80
  -4   2  -5   34.70    9.50
   4  -2   5   47.40    7.90
   4  -2   5   29.40    8.00
  -5   2  -5 1146.09  111.99
  -5   2  -5 1490.85  116.29
   5  -2   5 1336.27  113.89
   5  -2   5 1194.48  116.39
  -6   2  -5   84.79   15.40
   6  -2   5  118.09   14.90
   6  -2   5   97.09   16.40
   6  -2   5  137.49   14.80
  -7   2  -5 1231.48  115.19
  -7   2  -5 1449.95  117.89
   7  -2   5 1198.68  115.69
   7  -2   5 1379.16  112.39
  -8   2  -5   23.50    6.20
   8   1  -5   17.30    3.80
  -8  -1   5   10.00    4.90
  -8  -1   5   19.80   13.00
   7   1  -5  836.92   68.99
  -7  -1   5  773.72   69.19
   6   1  -5  269.17   24.20
  -6  -1   5  241.78   24.30
   5   1  -5 1637.94  129.39
  -5  -1   5 1499.15  129.69
   4   1  -5    4.60    1.80
  -4  -1   5   -0.60    2.70
  -4  -1   5    0.90    1.40
  -3  -1   5 2781.42  245.18
  -3  -1   5 3188.18  244.98
  -3  -1   5 3052.79  244.18
   2   1  -5   20.60    3.50
  -2  -1   5   18.20    6.80
  -2  -1   5   23.20    3.90
  -2  -1   5   32.70    5.20
  -2  -1   5   22.00    3.50
   1   1  -5 1151.98  116.09
  -1  -1   5 1541.65  116.69
  -1  -1   5 1569.84  122.09
   0   1  -5  395.36   36.90
   0   1  -5  470.35   47.00
   0  -1   5  423.46   37.40
   0  -1   5  424.26   40.50
   0  -1   5  472.55   38.30
  -1   1  -5 3477.35  262.37
   1  -1   5 3160.38  263.17
   1  -1   5 3277.87  263.97
   1  -1   5 2999.70  264.57
  -2   1  -5  924.11   72.09
   2  -1   5  834.72   73.39
   2  -1   5  766.12   72.29
   2  -1   5  863.41   72.89
  -3   1  -5 1693.03  137.89
  -3   1  -5 1615.64  136.49
   3  -1   5 1567.94  137.39
  -4   1  -5 1762.62  154.48
  -4   1  -5 1808.82  148.59
   4  -1   5 1593.44  146.19
   4  -1   5 1799.72  148.59
  -5   1  -5  238.28   27.20
   5  -1   5  234.68   25.70
   5  -1   5  237.58   27.30
  -6   1  -5  921.51   92.29
   6  -1   5 1218.18   90.09
   6  -1   5  984.40   93.49
   6  -1   5 1039.00   91.29
  -7   1  -5  699.63   66.79
  -7   1  -5  660.73   63.59
   7  -1   5  727.43   62.49
   9   0  -5  319.27   30.30
   9   0  -5  295.27   28.00
  -9   0   5  283.17   28.60
   8   0  -5  226.08   22.20
   8   0  -5  240.88   24.50
  -8   0   5  216.48   22.40
   7   0  -5  378.86   35.60
   7   0  -5  384.66   33.80
  -7   0   5  351.56   33.90
   6   0  -5  552.24   48.00
  -6   0   5  557.24   48.40
   5   0  -5 1454.15  117.79
   5   0  -5 1452.45  118.89
  -5   0   5 1374.16  118.09
   4   0  -5 4047.50  315.57
   4   0  -5 3854.81  315.97
  -4   0   5 3761.32  315.77
   3   0  -5  610.34   48.00
   3   0  -5  568.04   48.00
  -3   0   5  545.55   48.10
  -3   0   5  529.45   48.10
   2   0  -5  438.56   34.60
  -2   0   5  351.96   38.20
  -2   0   5  356.26   36.70
  -2   0   5  442.46   35.40
   1   0  -5  857.21   69.79
  -1   0   5  787.92   69.99
  -1   0   5  817.92   72.89
  -1   0   5  887.61   70.69
   0   0  -5 2828.22  217.18
   0   0   5 2361.06  212.58
   0   0   5 2649.14  213.48
  -1   0  -5  546.15   46.60
   1   0   5  507.65   46.80
   1   0   5  564.94   47.70
  -2   0  -5 2277.67  197.98
  -2   0  -5 2436.86  198.48
   2   0   5 2315.27  198.08
   2   0   5 2579.24  199.08
  -3   0  -5   81.59   11.10
  -3   0  -5   51.19   10.60
   3   0   5   66.99   10.70
   3   0   5   87.99   11.60
  -4   0  -5 3152.68  278.57
   4   0   5 3116.59  277.77
   4   0   5 3824.82  280.37
   5   0   5   36.10    9.10
   5   0   5   48.60    8.90
  -6   0  -5  529.55   52.99
  -6   0  -5  483.95   48.50
   6   0   5  466.05   47.60
   6   0   5  520.95   46.10
   6   0   5  561.94   55.29
  -7   0  -5   16.50    8.10
   7   0   5   21.80    7.50
   9  -1  -5   75.79   10.80
   9  -1  -5   65.99    9.60
  -9   1   5   67.69    9.50
   8  -1  -5  650.53   60.99
   8  -1  -5  749.13   63.99
  -8   1   5  740.43   61.99
   7  -1  -5    9.40    3.60
  -7   1   5   20.70    4.60
   6  -1  -5 2391.26  189.78
   6  -1  -5 2247.38  186.98
   6  -1  -5 2245.08  191.38
  -6   1   5 2336.17  189.18
   5  -1  -5   19.50    2.70
   5  -1  -5   20.40    4.20
   5  -1  -5   17.30    4.20
  -5   1   5   18.60    6.20
  -5   1   5   23.10    4.10
   4  -1  -5 1374.46  107.09
   4  -1  -5 1174.68  106.09
   4  -1  -5 1326.47  104.79
  -4   1   5 1267.27  106.49
   3  -1  -5  278.07   26.10
  -3   1   5  285.27   26.50
  -3   1   5  302.37   26.30
   2  -1  -5  663.53   56.69
  -2   1   5  680.43   57.19
  -2   1   5  732.53   57.99
  -2   1   5  609.14   59.39
   1  -1  -5  796.52   71.59
  -1   1   5  893.21   73.19
  -1   1   5  896.11   72.29
   0  -1  -5 1676.93  146.29
   0  -1  -5 1947.71  146.89
   0   1   5 1640.24  146.49
   0   1   5 1875.31  147.79
  -1  -1  -5 2854.11  256.37
  -1  -1  -5 3429.56  259.07
  -1  -1  -5 2841.12  257.27
   1   1   5 3483.75  258.37
   1   1   5 3134.59  257.37
  -2  -1  -5  973.20   78.19
  -2  -1  -5  786.32   78.99
  -2  -1  -5  839.22   77.19
   2   1   5  928.11   79.19
   2   1   5 1063.29   80.19
  -3  -1  -5 1756.82  160.38
   3   1   5 2049.09  160.48
  -4  -1  -5  804.42   79.89
  -4  -1  -5 1018.10   87.39
   4   1   5  828.32   79.79
   4   1   5  987.00   81.89
  -5  -1  -5  403.46   47.30
  -5  -1  -5  437.16   49.50
   5   1   5  425.66   42.50
   5   1   5  428.76   45.60
  -6  -1  -5  117.89   17.50
   6   1   5  101.49   13.90
   9  -2  -5  206.98   23.70
   9  -2  -5  236.88   24.50
  -9   2   5  233.78   22.80
   8  -2  -5  844.32   72.09
   8  -2  -5  709.83   68.89
  -8   2   5  887.51   70.29
   7  -2  -5 2466.95  202.08
   7  -2  -5 2237.08  199.38
  -7   2   5 2602.24  200.38
   6  -2  -5 1069.39   81.89
   6  -2  -5 1055.49   85.69
   6  -2  -5  856.81   83.19
  -6   2   5 1007.10   83.89
   5  -2  -5  718.43   53.69
   5  -2  -5  550.04   54.69
   5  -2  -5  715.33   57.09
  -5   2   5  683.73   55.59
  -5   2   5  562.04   57.99
   4  -2  -5  151.38   16.00
   4  -2  -5  159.48   13.90
   4  -2  -5  147.59   14.90
  -4   2   5  147.19   15.20
   3  -2  -5 1179.88  114.69
  -3   2   5 1570.94  116.39
  -3   2   5 1409.46  114.99
   2  -2  -5   46.00    7.90
  -2   2   5   43.50    7.00
  -2   2   5   55.89    7.00
   1  -2  -5 2213.88  164.98
  -1   2   5 1920.91  164.78
  -1   2   5 1891.41  166.08
   0  -2  -5   48.00    7.40
   0  -2  -5   43.90    7.70
   0  -2  -5   45.40    6.90
   0   2   5   50.29    7.40
   0   2   5   44.10    6.70
  -1  -2  -5 5535.65  480.25
   1   2   5 6469.75  481.65
   1   2   5 5742.73  480.45
  -2  -2  -5  227.18   27.20
  -2  -2  -5  298.27   27.80
  -2  -2  -5  285.07   32.00
   2   2   5  282.77   28.20
   2   2   5  310.17   28.80
  -3  -2  -5  642.94   64.99
  -3  -2  -5  787.72   72.29
   3   2   5  831.42   67.19
   3   2   5  701.03   65.99
  -5  -2  -5  833.32   77.29
   5   2   5  783.92   71.49
   9  -3  -5 1110.49   98.29
  -9   3   5 1148.99   95.79
   8  -3  -5   39.70    7.90
  -8   3   5   42.10    6.90
   7  -3  -5 1032.10   90.79
   7  -3  -5 1039.60   86.09
  -7   3   5 1066.39   88.49
   6  -3  -5  286.47   23.70
   6  -3  -5  218.78   25.00
   6  -3  -5  232.48   21.80
  -6   3   5  263.67   23.90
   5  -3  -5  673.73   59.09
   5  -3  -5  737.73   55.79
  -5   3   5  583.24   59.29
   4  -3  -5  387.56   32.80
   4  -3  -5  337.77   34.90
  -4   3   5  395.46   35.80
  -4   3   5  401.96   34.60
   3  -3  -5 1377.16  107.59
  -3   3   5 1180.28  106.69
  -3   3   5 1277.67  109.99
   2  -3  -5 1126.19  103.39
   2  -3  -5 1208.18  101.99
  -2   3   5 1308.37  101.69
   1  -3  -5 1418.36  121.59
   1  -3  -5 1300.27  124.09
  -1   3   5 1570.94  120.99
  -1   3   5 1522.15  122.79
   0  -3  -5 3032.00  295.97
   0  -3  -5 3675.93  293.37
   0   3   5 3628.14  293.57
   0   3   5 3965.80  293.97
  -1  -3  -5 1039.10  103.19
  -1  -3  -5 1200.88   99.99
   1   3   5 1276.07  100.29
   1   3   5 1144.39   99.19
  -2  -3  -5 1032.30   83.39
  -2  -3  -5  882.21   87.09
   2   3   5  896.41   82.59
   2   3   5  989.90   83.29
  -3  -3  -5   26.40    9.40
   3   3   5   16.70    5.20
   3   3   5   24.90    7.00
  -4  -3  -5  786.42   74.89
   4   3   5  770.72   69.09
   9  -4  -5  427.66   43.20
  -9   4   5  475.75   41.20
   8  -4  -5  493.85   52.19
   8  -4  -5  536.35   45.50
  -8   4   5  515.45   50.79
   7  -4  -5   40.10    7.80
  -7   4   5   44.60    6.70
   6  -4  -5 1172.18   97.99
   6  -4  -5 1147.29  102.29
  -6   4   5 1249.68  100.29
   5  -4  -5   11.60    2.70
   5  -4  -5   10.90    4.10
  -5   4   5    7.00    4.60
  -5   4   5    9.80    3.40
  -5   4   5   14.00    4.00
   4  -4  -5  508.15   55.09
  -4   4   5  610.84   51.89
  -4   4   5  560.04   49.70
  -3   4   5    4.20    3.20
  -3   4   5    5.30    3.40
   2  -4  -5 5455.45  459.15
  -2   4   5 5790.32  454.95
  -2   4   5 5557.04  457.55
   1  -4  -5  102.69   13.70
  -1   4   5  119.19   14.70
  -1   4   5  109.19   12.40
   0  -4  -5  947.71   97.89
   0  -4  -5 1137.39   95.09
   0   4   5 1154.88   94.79
   0   4   5 1144.19   93.69
  -1  -4  -5   17.60    8.40
  -1  -4  -5   17.50    5.80
   1   4   5   22.20    5.80
   1   4   5   31.40    6.50
  -2  -4  -5  931.21   89.59
   2   4   5  965.10   84.49
   2   4   5 1000.40   84.69
  -3  -4  -5  285.37   33.40
   3   4   5  300.07   29.60
   9  -5  -5  131.79   16.40
  -9   5   5  120.39   14.10
   8  -5  -5  404.26   36.70
   8  -5  -5  397.36   40.80
  -8   5   5  465.05   39.10
   7  -5  -5  187.48   19.80
   7  -5  -5  231.38   24.60
  -7   5   5  243.88   22.50
   6  -5  -5  332.67   32.70
   6  -5  -5  296.77   28.60
  -6   5   5  341.37   30.80
  -6   5   5  325.87   33.30
   5  -5  -5  441.76   39.60
  -5   5   5  354.86   37.20
  -5   5   5  437.56   40.30
   4  -5  -5  657.73   55.79
  -4   5   5  519.75   55.39
  -4   5   5  647.84   53.99
   3  -5  -5 2170.18  184.08
  -3   5   5 2070.29  184.88
  -3   5   5 2372.76  182.28
   2  -5  -5  751.52   79.09
   2  -5  -5  882.91   78.49
  -2   5   5  963.50   76.49
  -2   5   5  965.70   79.59
   1  -5  -5 1586.74  134.79
   1  -5  -5 1367.36  136.59
  -1   5   5 1670.63  134.49
  -1   5   5 1702.23  132.79
   0  -5  -5   13.40    6.20
   0   5   5    9.20    4.50
   0   5   5    9.40    4.00
  -1  -5  -5  926.51   90.79
   1   5   5 1072.39   87.09
  -2  -5  -5  209.68   25.70
   2   5   5  213.08   22.30
   9  -6  -5  957.20   78.09
  -9   6   5  788.52   74.09
   8  -6  -5    3.10    2.80
  -8   6   5    1.40    2.40
   7  -6  -5  388.16   34.30
   7  -6  -5  279.87   29.20
  -7   6   5  336.37   33.60
  -7   6   5  324.07   31.30
   6  -6  -5   -1.50    2.30
  -6   6   5   -0.20    2.80
  -6   6   5    0.30    3.10
   5  -6  -5 2902.51  246.98
  -5   6   5 3054.69  244.78
   4  -6  -5  125.79   16.10
  -4   6   5  145.79   14.70
  -4   6   5  104.99   15.90
   3  -6  -5 1242.68  111.59
  -3   6   5 1373.36  109.09
  -3   6   5 1267.27  112.19
   2  -6  -5  147.39   21.40
   2  -6  -5  184.58   23.70
  -2   6   5  199.38   21.30
  -2   6   5  176.98   20.30
   1  -6  -5  948.31   83.59
   1  -6  -5  832.42   84.69
  -1   6   5  951.70   81.29
  -1   6   5 1040.80   85.09
   0  -6  -5  306.67   35.60
   0  -6  -5  383.26   34.70
   0   6   5  322.97   32.30
  -1  -6  -5  297.67   38.80
   8  -7  -5  272.17   26.20
  -8   7   5  200.78   25.80
   7  -7  -5  223.78   24.10
  -7   7   5  215.18   21.80
   6  -7  -5 1059.69   96.89
  -6   7   5 1171.78   94.39
   5  -7  -5 1063.29   96.19
  -5   7   5  993.20   96.39
  -5   7   5 1251.87   93.79
   4  -7  -5 1482.95  130.49
  -4   7   5 1668.83  127.59
  -4   7   5 1420.96  130.39
   3  -7  -5  140.09   16.70
  -3   7   5  104.69   13.20
   2  -7  -5  932.31   83.19
  -2   7   5  950.60   80.59
   1  -7  -5   47.50   11.90
   1  -7  -5   64.69   12.00
  -1   7   5   68.99    9.50
  -5   8   5   72.29    9.80
   2 -10   6  412.46   43.70
   3 -10   6   18.30   10.60
   3 -10   6    8.60    5.00
   4 -10   6  129.19   17.50
   5 -10   6  108.49   22.20
   0  -9   6  264.77   29.70
   0  -9   6  280.47   41.50
   1  -9   6  481.55   48.80
   1  -9   6  509.45   63.19
   2  -9   6  214.78   27.50
   2  -9   6  297.67   43.30
   3  -9   6  464.95   49.90
   3  -9   6  581.74   66.69
   4  -9   6   10.40    8.30
   4  -9   6    5.80    4.10
   5  -9   6  665.13   79.49
   6  -9   6  208.28   31.30
   7  -9   6  471.45   52.19
   2   8  -6   52.69    9.60
  -2  -8   6   79.29   12.30
  -1  -8   6 1152.18  116.59
  -1  -8   6 1082.79   98.09
   0  -8   6   18.00   13.20
   1  -8   6  535.75   69.99
   1  -8   6  624.44   57.19
   2  -8   6  203.68   33.70
   2  -8   6  142.99   20.30
   3  -8   6  706.63   66.69
  -4   8  -6  407.46   37.40
   4  -8   6  437.56   56.89
   5  -8   6  593.04   78.59
  -6   8  -6   94.79   12.60
  -7   8  -6  341.27   32.80
   3   7  -6  265.37   25.70
  -3  -7   6  259.87   28.00
  -3  -7   6  295.77   42.40
   2   7  -6  477.75   42.60
  -2  -7   6  448.36   61.69
  -2  -7   6  506.35   46.80
   1   7  -6  516.45   49.20
  -1  -7   6  622.94   72.29
  -1  -7   6  599.24   53.89
   0   7  -6  797.22   76.29
   0  -7   6 1025.20  101.39
   0  -7   6  964.80   81.89
  -1   7  -6   42.70    6.00
   1  -7   6   38.90    9.00
   1  -7   6   54.29   19.10
  -2   7  -6 2148.39  182.18
   2  -7   6 2336.07  207.28
  -3   7  -6  310.77   28.20
  -4   7  -6  306.97   28.70
   4  -7   6  300.87   33.30
  -5   7  -6   55.99    9.50
   5  -7   6   78.09   10.30
   6  -7   6 1045.40   88.89
  -7   7  -6    1.70    4.30
   7  -7   6    9.50    5.50
  -8   7  -6  354.66   35.00
   5   6  -6   15.60    5.00
  -5  -6   6   -2.00   13.50
  -5  -6   6    5.60    4.30
   4   6  -6  876.01   73.59
  -4  -6   6  744.53   74.69
  -4  -6   6 1016.20   98.69
   3   6  -6    3.80    2.10
  -3  -6   6    3.40    3.00
  -3  -6   6   -1.50    7.30
   2   6  -6  521.25   47.60
  -2  -6   6  567.94   51.09
  -2  -6   6  563.84   67.99
   1   6  -6  297.57   27.40
  -1  -6   6  287.97   30.10
  -1  -6   6  328.77   45.70
   0  -6   6 2851.01  252.97
  -1   6  -6  595.14   51.29
   1  -6   6  610.74   56.69
  -2   6  -6 1218.08   97.09
   2  -6   6 1116.29  111.69
  -3   6  -6   77.99   11.70
   3  -6   6   79.59    9.00
   3  -6   6   54.79   14.60
   4  -6   6  799.32   67.99
  -5   6  -6  510.05   55.19
   5  -6   6  732.43   54.79
   6  -6   6  294.27   33.90
   6  -6   6  257.57   26.30
   7  -6   6  584.24   54.99
   7  -6   6  655.83   60.89
  -8   6  -6   -0.50    4.70
   6   5  -6  215.78   22.10
  -6  -5   6  254.27   53.89
   5   5  -6  341.87   31.20
  -5  -5   6  411.36   53.09
  -5  -5   6  292.97   31.60
   4   5  -6  557.04   48.20
  -4  -5   6  609.24   70.59
  -4  -5   6  502.95   49.20
   3   5  -6 1356.66  115.19
  -3  -5   6 1424.26  138.09
   2   5  -6  166.08   16.50
  -2  -5   6  180.18   30.70
  -2  -5   6  162.38   18.40
   1   5  -6 2789.82  217.78
  -1  -5   6 2532.55  224.98
   0   5  -6   90.19   10.20
   0  -5   6  123.89   20.70
   0  -5   6   90.09   12.40
  -1   5  -6  608.34   47.80
   1  -5   6  494.85   51.19
   2  -5   6   10.70    5.70
   2  -5   6    2.00    2.40
  -3   5  -6 2157.28  165.08
   3  -5   6 1855.21  164.18
   4  -5   6    5.10    5.50
  -5   5  -6  927.81   91.59
   5  -5   6 1192.08   90.39
   6  -5   6  606.94   58.49
   6  -5   6  729.03   64.79
  -7   5  -6  468.85   46.30
  -8   5  -6   77.49   12.80
   6   4  -6   14.80    3.90
  -6  -4   6    8.10    7.70
   5   4  -6  646.14   52.09
  -5  -4   6  537.85   52.29
   4   4  -6   22.70    5.00
  -4  -4   6   23.30    5.30
  -4  -4   6   29.00   12.60
   3   4  -6 2663.33  211.18
  -3  -4   6 2502.15  212.88
   2   4  -6  899.61   75.89
  -2  -4   6 1031.50   93.79
  -2  -4   6  821.12   77.49
   1   4  -6 1232.68   95.99
  -1  -4   6 1070.69   97.59
   0   4  -6  132.79   13.50
   0  -4   6  132.69   15.90
  -1   4  -6 1344.27  130.09
   1  -4   6 1689.93  140.29
   1  -4   6 1734.13  128.99
  -2   4  -6 1461.95  112.89
   2  -4   6 1169.58  113.49
   2  -4   6 1484.85  122.19
  -3   4  -6  642.34   52.89
   3  -4   6  681.83   60.09
   3  -4   6  514.35   53.99
  -4   4  -6 1526.75  115.99
   4  -4   6 1251.87  116.99
   4  -4   6 1319.87  113.69
  -5   4  -6   50.69    9.50
   5  -4   6   38.90    7.30
   5  -4   6   50.39   11.70
   6  -4   6 2779.02  227.48
   6  -4   6 2646.24  223.68
  -7   4  -6   66.19   11.80
   7  -4   6   82.59   11.20
  -8   4  -6  239.98   26.50
   7   3  -6  267.67   27.60
  -7  -3   6  370.36   49.60
   6   3  -6  365.56   38.00
  -6  -3   6  403.06   69.49
   5   3  -6  161.68   15.60
  -5  -3   6  170.88   29.70
  -5  -3   6  122.39   15.30
   4   3  -6 2646.34  225.08
  -4  -3   6 2883.91  246.18
   3   3  -6  137.69   13.90
  -3  -3   6  140.29   15.30
  -3  -3   6  139.79   23.60
   2   3  -6 1378.46  117.99
  -2  -3   6 1621.04  118.39
  -2  -3   6 1236.78  119.39
  -2  -3   6 1501.95  130.19
   1   3  -6    8.60    2.50
  -1  -3   6   11.40    3.40
  -1  -3   6    7.90    5.30
   0  -3   6 2609.34  198.18
   0  -3   6 2117.99  188.68
   0  -3   6 2246.58  189.48
  -1   3  -6  166.68   14.20
   1  -3   6  119.79   14.50
   1  -3   6  141.19   13.00
   1  -3   6  141.09   15.00
   2  -3   6 1798.62  142.39
   2  -3   6 1652.73  144.99
   2  -3   6 1757.52  143.99
  -3   3  -6  568.34   52.79
  -3   3  -6  661.23   49.50
   3  -3   6  552.44   48.20
   3  -3   6  456.75   48.80
  -4   3  -6 1573.14  133.69
  -4   3  -6 1576.84  126.39
   4  -3   6 1303.67  124.79
   4  -3   6 1532.45  124.59
  -5   3  -6  492.35   46.10
   5  -3   6  563.34   44.00
   5  -3   6  398.46   44.60
   5  -3   6  462.15   47.10
  -6   3  -6 1032.90   95.09
   6  -3   6  938.41   95.29
   6  -3   6 1259.97   92.69
  -7   3  -6  333.97   34.60
   8   2  -6  152.88   19.50
   8   2  -6  203.98   18.50
   7   2  -6   30.10    5.50
  -7  -2   6   15.90   10.80
   6   2  -6 1497.15  128.39
  -6  -2   6 1610.44  153.28
   5   2  -6  869.31   72.09
  -5  -2   6  824.92   89.19
  -4  -2   6  798.72   72.89
  -4  -2   6  914.31   87.49
  -4  -2   6  884.11   73.69
   3   2  -6  375.76   30.20
   3   2  -6  385.26   31.00
  -3  -2   6  296.27   38.70
  -3  -2   6  312.77   31.70
   2   2  -6  749.62   65.09
  -2  -2   6  827.32   73.99
  -2  -2   6  750.22   64.99
  -1  -2   6 1413.16  108.69
  -1  -2   6 1249.47  114.99
  -1  -2   6 1275.47  108.39
   0   2  -6  951.80   84.79
   0  -2   6 1107.99   90.89
   0  -2   6  995.70   85.59
   0  -2   6 1036.90   85.19
  -1   2  -6 1335.47   95.89
   1  -2   6 1040.50   97.19
   1  -2   6 1150.48   99.99
   1  -2   6 1095.69   96.39
  -2   2  -6  386.66   32.80
   2  -2   6  389.86   35.90
   2  -2   6  344.87   34.70
   2  -2   6  350.06   33.70
  -3   2  -6 4802.52  401.36
  -3   2  -6 5161.28  399.16
   3  -2   6 5316.97  400.66
   3  -2   6 4645.74  400.86
   3  -2   6 4560.34  399.16
  -4   2  -6   46.70   11.20
  -4   2  -6   65.49   10.50
   4  -2   6   59.69   10.40
   4  -2   6   46.00   12.00
  -5   2  -6  690.43   64.69
   5  -2   6  688.13   66.59
   5  -2   6  786.22   62.19
   5  -2   6  670.93   63.09
   6  -2   6   95.99   15.50
   6  -2   6  100.39   12.30
  -7   2  -6  741.23   72.49
  -7   2  -6  835.42   74.89
   7  -2   6  896.91   75.79
   8   1  -6   89.19   11.20
   8   1  -6   92.69   10.70
  -8  -1   6   63.59   11.40
  -8  -1   6  102.69   22.40
   7   1  -6 1743.83  129.39
   7   1  -6 1728.03  130.49
  -7  -1   6 1304.07  145.39
  -7  -1   6 1381.86  128.79
   6   1  -6  368.06   31.50
   6   1  -6  359.96   32.20
  -6  -1   6  298.87   31.30
   5   1  -6 1508.65  123.49
   5   1  -6 1465.75  123.09
   4   1  -6   19.90    3.60
  -4  -1   6   14.60    3.70
  -4  -1   6   17.30    4.10
   3   1  -6 1656.13  127.59
   3   1  -6 1666.83  126.69
  -3  -1   6 1365.26  127.29
  -3  -1   6 1480.75  135.49
   2   1  -6   20.50    4.00
  -2  -1   6   19.20    6.90
  -2  -1   6   21.50    4.50
  -2  -1   6   24.00    4.00
  -1  -1   6 1449.95  121.79
  -1  -1   6 1506.35  126.99
   0  -1   6 1176.88  104.29
   0  -1   6 1191.38  101.59
   0  -1   6 1306.47  102.39
  -1   1  -6 2396.16  190.58
   1  -1   6 2520.85  192.48
   1  -1   6 2426.46  191.58
   1  -1   6 1998.40  191.78
  -2   1  -6 2195.48  185.98
   2  -1   6 2204.98  186.88
   2  -1   6 2395.76  188.18
  -3   1  -6 1844.82  172.08
  -3   1  -6 2176.68  172.18
   3  -1   6 2197.28  173.48
   3  -1   6 2056.99  171.98
  -4   1  -6  526.65   49.20
   4  -1   6  550.04   49.99
   4  -1   6  499.15   48.20
  -5   1  -6  739.03   71.39
   5  -1   6  832.72   71.09
   5  -1   6  823.72   72.89
  -6   1  -6  331.67   34.70
  -6   1  -6  375.76   37.80
   6  -1   6  336.47   33.60
   6  -1   6  350.96   36.30
  -7   1  -6  455.45   49.60
  -7   1  -6  476.85   44.00
   7  -1   6  499.95   43.10
   9   0  -6  606.84   52.79
   9   0  -6  565.14   50.39
  -9   0   6  572.24   50.99
   8   0  -6  354.36   31.70
   8   0  -6  309.47   29.80
  -8   0   6  304.67   30.20
   7   0  -6 1201.08   94.59
   7   0  -6 1035.80   92.79
  -7   0   6 1076.19   93.49
   6   0  -6  521.45   43.10
   6   0  -6  455.45   41.90
  -6   0   6  450.25   42.30
   5   0  -6 1055.69   82.19
   5   0  -6  977.60   81.99
  -5   0   6  929.41   81.59
  -5   0   6  923.01   82.59
   4   0  -6  661.53   55.99
   4   0  -6  704.53   55.99
  -4   0   6  628.54   55.99
  -4   0   6  622.54   56.09
   3   0  -6  410.56   34.20
   3   0  -6  372.86   34.20
  -3   0   6  353.46   39.40
  -3   0   6  442.56   35.10
  -3   0   6  353.66   34.40
   2   0  -6  310.77   29.10
  -2   0   6  376.26   30.20
  -2   0   6  297.97   29.30
  -2   0   6  325.47   33.50
   1   0  -6  672.53   53.09
  -1   0   6  597.94   53.39
  -1   0   6  577.74   55.69
  -1   0   6  657.73   54.09
   0   0  -6 9395.16  727.03
   0   0   6 8469.95  727.43
   0   0   6 9135.79  728.33
  -1   0  -6  276.67   25.80
   1   0   6  266.37   26.20
   1   0   6  296.57   27.00
  -2   0  -6 1707.63  142.49
  -2   0  -6 1535.75  141.99
   2   0   6 1758.72  142.79
   2   0   6 1844.92  143.59
  -3   0  -6   12.30    4.30
   3   0   6    7.70    4.40
   3   0   6    4.60    3.20
  -4   0  -6 1405.96  121.99
   4   0   6 1479.95  123.39
   4   0   6 1398.26  121.59
  -5   0  -6   97.89   16.10
  -5   0  -6  125.29   15.40
  -6   0  -6  572.64   53.89
  -6   0  -6  646.74   58.39
   6   0   6  595.24   53.89
   9  -1  -6  202.28   20.90
  -9   1   6  186.48   19.90
   8  -1  -6  786.72   64.89
   8  -1  -6  640.24   62.49
  -8   1   6  773.42   63.89
   7  -1  -6   -2.70    1.90
  -7   1   6    0.60    2.20
   6  -1  -6 1079.19   87.99
   6  -1  -6  952.60   86.69
  -6   1   6 1071.39   87.59
  -5   1   6   10.00    3.60
  -5   1   6    7.30    2.50
   4  -1  -6  722.03   59.09
   4  -1  -6  611.74   58.09
  -4   1   6  700.33   59.09
  -4   1   6  712.43   59.39
   3  -1  -6  281.77   26.10
  -3   1   6  252.87   29.40
  -3   1   6  308.97   26.90
  -3   1   6  277.37   26.20
   2  -1  -6 2639.04  230.98
  -2   1   6 2875.81  232.78
  -2   1   6 2828.62  232.18
  -2   1   6 3013.90  235.28
   1  -1  -6 1260.67   94.79
   1  -1  -6 1043.20   94.39
  -1   1   6 1117.39   95.29
  -1   1   6 1146.59   96.19
   0  -1  -6 2392.66  213.08
   0  -1  -6 2724.23  213.88
   0   1   6 2729.13  214.28
  -1  -1  -6  953.90   86.59
  -1  -1  -6 1080.19   87.89
  -1  -1  -6  965.00   86.29
   1   1   6 1147.79   88.69
  -2  -1  -6  867.61   80.39
   2   1   6  931.01   80.19
   2   1   6  990.70   81.09
  -3  -1  -6  630.84   58.59
   3   1   6  685.93   59.59
   3   1   6  640.14   58.59
  -4  -1  -6  992.50   90.19
   4   1   6 1070.59   91.59
   4   1   6 1071.99   91.59
  -5  -1  -6  759.12   68.19
  -5  -1  -6  840.72   73.49
   5   1   6  732.83   67.99
   9  -2  -6  205.18   21.30
  -9   2   6  184.58   19.70
   8  -2  -6  481.45   44.00
  -8   2   6  462.85   42.60
   7  -2  -6  776.82   68.09
  -7   2   6  773.32   66.99
   6  -2  -6   53.69    7.20
   6  -2  -6   53.89    8.20
  -6   2   6   51.09    7.60
   5  -2  -6  190.68   17.10
   5  -2  -6  145.39   17.50
  -5   2   6  171.68   17.40
  -5   2   6  176.78   18.10
   4  -2  -6  188.48   20.30
  -4   2   6  234.98   25.60
  -4   2   6  214.18   21.30
   3  -2  -6 3283.47  267.37
  -3   2   6 3182.48  268.77
  -3   2   6 3359.76  267.97
   2  -2  -6  226.48   24.50
   2  -2  -6  294.77   24.30
  -2   2   6  244.98   25.80
  -2   2   6  307.17   25.80
   1  -2  -6 2691.13  208.18
   1  -2  -6 2384.06  208.18
  -1   2   6 2486.15  208.48
  -1   2   6 2608.24  209.98
   0  -2  -6   28.10    6.40
   0  -2  -6   26.10    5.70
   0   2   6   33.00    5.40
   0   2   6   20.50    5.40
  -1  -2  -6 1977.60  175.28
  -1  -2  -6 2006.10  174.68
   1   2   6 2283.27  176.58
   1   2   6 2207.88  175.68
  -2  -2  -6   14.50    6.20
  -2  -2  -6   17.30    7.00
   2   2   6   22.40    6.40
  -3  -2  -6  542.75   56.59
   3   2   6  599.94   53.09
   3   2   6  597.94   53.49
   4   2   6  165.88   19.30
   4   2   6  188.58   22.40
   9  -3  -6  809.72   73.09
  -9   3   6  855.61   71.79
   8  -3  -6    4.20    3.00
  -8   3   6    2.90    2.10
   7  -3  -6  598.04   54.99
  -7   3   6  619.64   53.69
   6  -3  -6   88.29   12.90
  -6   3   6  120.89   13.70
  -6   3   6  133.79   13.40
   5  -3  -6  787.02   72.39
  -5   3   6  824.72   71.69
  -5   3   6  897.01   73.09
   4  -3  -6  611.34   49.40
  -4   3   6  495.75   47.20
  -4   3   6  493.45   48.00
   3  -3  -6 1589.44  138.79
  -3   3   6 1621.54  140.29
  -3   3   6 1803.02  139.39
   2  -3  -6 1625.64  147.39
   2  -3  -6 1853.41  150.58
  -2   3   6 1745.13  148.99
  -2   3   6 1885.11  147.59
   1  -3  -6  564.74   52.89
   1  -3  -6  638.64   57.89
  -1   3   6  608.84   54.19
  -1   3   6  590.34   52.49
   0  -3  -6 1348.57  116.39
   0  -3  -6 1329.07  120.39
   0   3   6 1448.36  117.39
   0   3   6 1394.06  115.99
  -1  -3  -6  791.02   72.59
  -1  -3  -6  758.02   67.59
   1   3   6  757.22   67.59
   1   3   6  791.72   68.59
  -2  -3  -6  785.02   72.49
   2   3   6  690.43   71.39
   2   3   6  776.32   67.29
  -3  -3  -6   93.69   15.10
   3   3   6  120.99   20.90
   3   3   6   93.39   12.60
   9  -4  -6  108.99   14.30
  -9   4   6  118.39   13.40
   8  -4  -6  118.69   14.60
  -8   4   6  102.59   13.00
  -8   4   6  115.59   14.30
   7  -4  -6   55.39    9.20
  -7   4   6   49.20    8.60
  -7   4   6   62.79    8.50
   6  -4  -6 1630.14  132.49
  -6   4   6 1556.74  132.09
  -6   4   6 1505.55  130.69
   5  -4  -6  229.58   22.40
  -5   4   6  194.98   21.30
  -5   4   6  205.98   22.50
   4  -4  -6 1709.83  144.29
  -4   4   6 1916.91  144.49
  -4   4   6 1550.64  144.89
   3  -4  -6   50.09    8.40
  -3   4   6   55.39    9.50
  -3   4   6   57.99    8.40
   2  -4  -6 2316.57  208.08
   2  -4  -6 2503.25  210.58
  -2   4   6 2709.13  207.68
  -2   4   6 2539.65  209.68
   1  -4  -6   11.80    5.70
   1  -4  -6   10.00    4.00
  -1   4   6    8.10    3.10
  -1   4   6    8.10    5.40
   0  -4  -6  466.35   48.50
   0  -4  -6  495.45   45.40
   0   4   6  494.45   45.40
   0   4   6  487.85   44.30
  -1  -4  -6   66.99   10.40
  -1  -4  -6   52.59   11.60
   1   4   6   70.09   10.20
   1   4   6   72.99   10.00
  -2  -4  -6 1337.77  120.29
   2   4   6 1411.36  116.49
   9  -5  -6   99.19   14.30
  -9   5   6   84.79   11.00
   8  -5  -6  322.37   31.90
  -8   5   6  317.77   30.50
   7  -5  -6  214.98   20.80
  -7   5   6  152.98   18.40
  -7   5   6  172.38   20.00
   6  -5  -6 1120.69   86.69
  -6   5   6  909.61   85.69
  -6   5   6  925.81   84.69
   5  -5  -6  727.93   62.99
  -5   5   6  809.52   62.59
  -5   5   6  583.44   62.69
   4  -5  -6  703.93   65.49
  -4   5   6  845.12   65.19
  -4   5   6  671.73   66.29
   3  -5  -6 1447.26  124.99
  -3   5   6 1418.66  125.89
  -3   5   6 1549.45  123.69
   2  -5  -6  697.53   67.79
   2  -5  -6  704.03   66.89
  -2   5   6  800.42   68.29
  -2   5   6  816.42   65.99
   1  -5  -6  432.16   40.40
   1  -5  -6  393.96   43.00
  -1   5   6  424.36   40.30
  -1   5   6  424.16   38.80
   0  -5  -6   61.29   10.30
   0  -5  -6   59.79   11.70
   0   5   6   70.99   10.40
   0   5   6   55.49    9.00
  -1  -5  -6 1536.35  137.39
   1   5   6 1666.53  134.39
   8  -6  -6   56.79    8.60
  -8   6   6   39.60    7.40
   7  -6  -6  749.92   67.49
  -7   6   6  778.92   66.39
   6  -6  -6   13.60    5.50
  -6   6   6   10.00    5.50
   5  -6  -6 2044.00  184.58
  -5   6   6 2390.86  183.58
   4  -6  -6    7.60    4.10
  -4   6   6   14.70    3.90
  -4   6   6   26.80   11.00
   3  -6  -6  197.78   22.10
  -3   6   6  218.78   20.80
  -3   6   6  177.68   22.00
   2  -6  -6   30.80    7.40
  -2   6   6   43.60    7.00
   1  -6  -6 1280.37  113.39
  -1   6   6 1381.56  112.19
   6  -7  -6  751.72   66.89
  -6   7   6  764.52   67.29
   5  -7  -6  208.58   23.80
  -5   7   6  253.67   23.50
   4  -7  -6  463.85   44.80
  -4   7   6  508.45   45.20
  -3   7   6   23.20    5.30
   0  -9   7  204.68   24.20
   1  -9   7  310.27   33.30
   2  -9   7  148.49   19.80
   3  -9   7  129.99   18.40
   5  -9   7  550.44   60.09
   6  -9   7  333.07   39.00
   2   8  -7   11.40    4.40
  -2  -8   7    6.40    4.80
  -2  -8   7   12.60   10.20
   0  -8   7   88.19   14.20
   0  -8   7  123.29   24.90
   1  -8   7  433.26   43.70
   2  -8   7    6.10    4.90
   2  -8   7   13.80   10.00
  -3   8  -7  475.25   47.00
   3  -8   7  481.95   48.40
  -4   8  -7   17.40    5.50
   4  -8   7   42.20   13.80
  -5   8  -7  167.08   18.30
  -6   8  -7  166.58   18.50
  -7   8  -7  105.59   13.30
   3   7  -7  509.35   41.80
  -3  -7   7  416.86   43.30
   2   7  -7  859.61   74.49
  -2  -7   7  888.31   78.19
  -1  -7   7  511.15   76.89
  -1  -7   7  387.26   50.09
   0   7  -7  404.46   32.80
   0  -7   7  311.57   35.90
  -1   7  -7  188.68   18.30
   1  -7   7  199.08   31.90
  -2   7  -7  935.81   77.29
   2  -7   7  910.61   92.79
  -3   7  -7  410.76   37.50
   3  -7   7  446.06   50.79
  -4   7  -7 1032.30   87.79
  -5   7  -7   29.10    8.30
  -6   7  -7  703.23   62.89
  -7   7  -7   -1.70    2.70
   7  -7   7    7.60    4.50
   4   6  -7 1475.45  123.39
   3   6  -7    6.90    3.00
  -3  -6   7    8.60    8.00
  -3  -6   7    6.80    4.20
   2   6  -7  931.91   73.19
  -2  -6   7  771.72   75.09
   1   6  -7    9.30    3.10
  -1  -6   7   15.40    4.90
  -1  -6   7   32.20   14.30
   0   6  -7  973.50   78.89
   0  -6   7  890.81   82.89
  -1   6  -7   81.19    9.50
   1  -6   7   89.59   17.60
  -2   6  -7  948.61   84.89
   2  -6   7 1112.69   98.89
  -3   6  -7  258.77   24.90
   3  -6   7  284.87   34.70
  -4   6  -7  515.15   49.40
   4  -6   7  607.94   59.09
  -5   6  -7 1705.53  141.19
   5  -6   7 1696.33  138.49
   5  -6   7 1615.44  146.49
  -6   6  -7  267.37   30.90
   6  -6   7  323.67   29.60
   6  -6   7  341.17   35.10
  -7   6  -7  366.86   39.80
   7  -6   7  463.65   42.60
   5   5  -7  715.03   62.09
  -4  -5   7  289.37   28.90
   3   5  -7  686.73   55.59
  -3  -5   7  582.94   56.89
   2   5  -7   27.60    5.30
  -2  -5   7   28.50    7.20
  -2  -5   7   36.10   14.50
   1   5  -7  942.81   77.39
  -1  -5   7  881.41   79.69
   0   5  -7  500.85   39.10
   0  -5   7  369.06   41.00
  -1   5  -7 1207.98  104.49
   1  -5   7 1322.07  116.19
   2  -5   7   10.80    5.60
   2  -5   7   23.20    9.50
  -4   5  -7   17.00    4.90
   4  -5   7   12.00    5.90
  -5   5  -7 1095.49   97.39
   5  -5   7 1185.58  101.19
   5  -5   7 1109.39   94.99
  -6   5  -7   55.89   10.40
   6  -5   7   67.69   11.70
   6  -5   7   59.99   11.60
  -7   5  -7  756.52   67.99
   6   4  -7    6.60    2.80
  -6  -4   7    1.50    6.70
   5   4  -7  949.90   91.59
  -5  -4   7 1284.97  115.09
   4   4  -7  126.29   13.60
  -4  -4   7  166.28   28.90
  -4  -4   7  103.39   13.90
   3   4  -7 1728.23  126.39
  -3  -4   7 1306.87  127.09
   2   4  -7  143.39   13.60
  -2  -4   7  100.89   14.10
   1   4  -7  385.56   38.00
  -1  -4   7  338.97   34.90
   0   4  -7  124.09   14.00
   0  -4   7  159.58   21.40
  -1   4  -7  901.01   80.79
   1  -4   7 1046.10   90.09
  -2   4  -7 3499.55  283.27
   2  -4   7 3513.05  291.27
   2  -4   7 3433.76  282.37
  -3   4  -7  484.15   41.30
   3  -4   7  450.55   40.20
   3  -4   7  452.65   53.99
  -4   4  -7 1171.48   94.59
   4  -4   7 1106.59   97.29
   4  -4   7 1042.10   92.39
  -5   4  -7  257.97   27.90
   5  -4   7  278.27   29.40
   5  -4   7  305.57   26.40
   5  -4   7  247.08   28.90
  -6   4  -7 1140.29   96.49
   6  -4   7 1071.29   93.19
  -7   4  -7  327.77   32.80
   7   3  -7  484.85   42.50
   7   3  -7  466.45   42.30
   6   3  -7  840.92   76.29
   6   3  -7  874.91   76.79
  -6  -3   7 1023.10   98.09
   5   3  -7  173.18   17.90
   5   3  -7  168.58   17.30
  -5  -3   7  196.08   31.60
   4   3  -7 1096.39  100.29
  -4  -3   7 1342.47  118.99
   3   3  -7  313.47   30.60
  -3  -3   7  380.06   43.10
   2   3  -7  452.25   37.60
  -2  -3   7  367.46   37.90
   1   3  -7    7.40    2.70
  -1  -3   7    4.90    4.10
  -1  -3   7   19.60    7.20
  -1  -3   7    9.20    3.60
   0   3  -7 3622.64  273.67
   0  -3   7 3091.99  272.97
  -1   3  -7   83.09    9.00
   1  -3   7   83.79   13.10
   1  -3   7   75.39    9.40
   1  -3   7   73.39    9.90
  -2   3  -7 2697.63  199.38
   2  -3   7 2474.65  204.18
   2  -3   7 2327.07  199.88
   2  -3   7 2230.08  201.08
   2  -3   7 2428.36  198.18
  -3   3  -7  453.85   38.40
   3  -3   7  418.96   41.00
   3  -3   7  423.66   37.10
   3  -3   7  417.76   40.30
   3  -3   7  394.16   38.30
  -4   3  -7 1899.71  152.68
   4  -3   7 1795.82  154.48
   4  -3   7 1953.50  150.98
   4  -3   7 1648.24  151.28
  -5   3  -7   12.80    4.50
   5  -3   7   18.00    4.20
   5  -3   7   22.90    6.90
  -6   3  -7  976.90   89.99
   6  -3   7 1127.39   90.79
   6  -3   7 1012.80   91.59
  -7   3  -7  301.27   29.90
   7   2  -7   44.50    7.40
   7   2  -7   34.10    6.20
  -7  -2   7   60.39   15.10
   6   2  -7 1469.05  118.39
   6   2  -7 1418.56  117.99
  -6  -2   7 1209.28  117.49
  -6  -2   7 1597.04  137.99
   5   2  -7  181.28   17.40
   5   2  -7  165.68   16.60
  -5  -2   7  143.19   17.20
  -5  -2   7  202.68   29.40
   4   2  -7  489.95   44.10
  -4  -2   7  547.15   57.49
  -4  -2   7  488.65   44.50
   3   2  -7    7.30    2.50
  -3  -2   7    6.10    3.70
  -3  -2   7   11.50    3.50
  -2  -2   7 1323.47  110.79
  -2  -2   7 1353.46  119.69
  -1  -2   7 2661.03  230.58
  -1  -2   7 2591.44  223.48
  -1  -2   7 2965.60  223.98
   0   2  -7  990.20   82.49
   0  -2   7 1043.60   83.49
   0  -2   7  966.40   87.49
   0  -2   7  922.61   82.49
   0  -2   7 1007.60   80.79
  -1   2  -7 2533.85  193.48
   1  -2   7 2429.56  194.18
   1  -2   7 2056.99  196.48
   1  -2   7 2441.96  195.28
  -2   2  -7  413.56   37.10
   2  -2   7  425.56   39.20
   2  -2   7  411.96   37.90
  -3   2  -7 1971.80  163.48
   3  -2   7 2011.50  165.48
   3  -2   7 1932.01  163.68
  -4   2  -7  375.46   35.10
   4  -2   7  340.27   34.20
   4  -2   7  376.96   36.30
   4  -2   7  362.06   33.40
  -5   2  -7  475.75   48.70
   5  -2   7  500.25   45.10
   5  -2   7  521.95   44.10
   5  -2   7  476.35   47.10
  -6   2  -7    4.40    3.80
   6  -2   7   -3.00    4.70
   8   1  -7   80.59   12.40
   8   1  -7   89.49   10.50
  -8  -1   7  102.39   21.00
  -8  -1   7   76.19   12.60
   7   1  -7  858.91   68.69
   7   1  -7  781.02   68.09
  -7  -1   7  858.21   86.19
  -7  -1   7  688.43   67.79
   6   1  -7   67.69    9.00
   6   1  -7   79.19    9.30
  -6  -1   7   65.59   16.00
  -6  -1   7   57.59    9.10
   5   1  -7  312.97   27.40
   5   1  -7  312.67   27.00
  -5  -1   7  241.28   27.00
  -5  -1   7  297.87   37.80
   4   1  -7   16.80    4.30
   4   1  -7   21.90    4.70
  -4  -1   7   30.10   10.50
  -4  -1   7   14.00    4.60
  -3  -1   7 2067.79  175.18
  -3  -1   7 2199.48  184.08
  -2  -1   7   36.90    9.20
  -2  -1   7   46.20    6.30
   1   1  -7 3652.53  306.87
  -1  -1   7 3752.62  312.07
  -1  -1   7 3523.55  306.97
  -1  -1   7 4172.28  307.77
   0   1  -7  222.18   20.80
   0  -1   7  243.98   22.10
   0  -1   7  203.68   23.10
   0  -1   7  228.38   21.50
  -1   1  -7 2352.16  200.58
   1  -1   7 2570.14  202.18
   1  -1   7 2428.46  201.18
  -2   1  -7    7.60    4.50
  -2   1  -7    7.70    3.30
   2  -1   7    9.80    3.90
  -3   1  -7 1557.34  131.39
   3  -1   7 1575.34  131.39
   3  -1   7 1562.24  132.39
  -4   1  -7  301.07   30.10
   4  -1   7  289.07   30.70
   4  -1   7  314.17   29.80
  -5   1  -7  434.36   40.50
   5  -1   7  412.66   38.30
   5  -1   7  441.16   39.80
  -6   1  -7  830.72   70.19
  -6   1  -7  850.51   71.99
   6  -1   7  687.53   67.29
   8   0  -7  156.18   16.80
   8   0  -7  186.38   18.20
  -8   0   7  148.59   17.20
  -8   0   7  179.88   27.20
   7   0  -7  329.57   32.50
   7   0  -7  299.07   33.40
  -7   0   7  351.36   33.50
  -7   0   7  292.57   40.60
   6   0  -7   16.10    4.00
   6   0  -7    7.10    2.90
  -6   0   7    8.90    6.10
  -6   0   7   13.00    4.50
   5   0  -7  363.96   33.80
  -5   0   7  402.96   44.00
  -5   0   7  367.76   34.40
   4   0  -7  939.51   79.19
   4   0  -7  913.11   79.49
  -4   0   7  894.51   79.99
  -4   0   7 1041.80   89.09
   3   0  -7  787.12   66.29
  -3   0   7  759.32   66.59
  -3   0   7  793.92   72.89
  -2   0   7 1963.90  168.38
  -2   0   7 2154.88  164.28
  -2   0   7 1846.02  163.58
   1   0  -7  243.78   21.70
  -1   0   7  222.38   22.30
  -1   0   7  236.48   22.70
   0   0  -7 3953.10  308.17
   0   0   7 3633.04  309.07
   0   0   7 3777.32  308.87
  -1   0  -7   85.19   10.40
   1   0   7   80.59   10.50
   1   0   7   91.59   11.20
  -2   0  -7  533.75   48.20
   2   0   7  543.15   48.40
   2   0   7  541.75   49.00
  -3   0  -7   57.89    9.00
   3   0   7   42.70    8.30
   3   0   7   55.19    8.50
  -4   0  -7 2062.29  182.18
   4   0   7 2251.67  182.28
   4   0   7 2258.57  183.58
  -5   0  -7  113.69   12.70
  -5   0  -7   93.09   13.90
   5   0   7   73.89   11.10
   8  -1  -7  283.27   29.60
   8  -1  -7  357.86   31.80
  -8   1   7  350.36   31.20
   7  -1  -7   11.30    3.50
   7  -1  -7   22.10    5.90
  -7   1   7   15.30    4.20
   6  -1  -7  962.20   89.19
   6  -1  -7 1097.29   90.39
  -6   1   7 1120.49   90.49
  -6   1   7 1080.59   90.39
   5  -1  -7   11.90    3.40
   5  -1  -7    5.40    2.70
  -5   1   7    8.70    2.90
  -5   1   7    9.80    4.10
   4  -1  -7 1291.77  112.79
  -4   1   7 1367.86  119.59
  -4   1   7 1417.06  113.89
   3  -1  -7  408.36   34.30
  -3   1   7  350.76   38.60
  -3   1   7  375.76   35.30
  -3   1   7  412.16   35.90
   2  -1  -7 2806.42  218.48
  -2   1   7 2548.65  219.58
  -2   1   7 2677.13  220.18
   1  -1  -7  445.56   37.60
  -1   1   7  413.56   38.40
  -1   1   7  422.86   39.00
   0   1   7 2097.39  172.58
   0   1   7 2063.09  171.88
  -1  -1  -7  218.58   22.40
   1   1   7  213.08   22.50
   1   1   7  241.88   23.40
  -2  -1  -7  638.74   59.79
   2   1   7  710.93   60.29
   2   1   7  692.73   60.89
  -3  -1  -7 1316.97  112.69
   3   1   7 1337.57  113.49
  -4  -1  -7  536.55   48.80
  -4  -1  -7  462.35   44.00
   4   1   7  467.15   44.10
   9  -2  -7   46.20    7.70
  -9   2   7   45.40    9.90
  -9   2   7   31.40   16.50
   8  -2  -7  199.28   21.10
  -8   2   7  206.18   20.80
   7  -2  -7  332.17   33.60
  -7   2   7  291.37   34.20
  -7   2   7  319.07   30.50
   6  -2  -7  414.76   37.70
  -6   2   7  404.36   37.80
  -6   2   7  407.86   37.40
   5  -2  -7  556.24   49.99
  -5   2   7  541.15   49.90
  -5   2   7  601.34   50.79
   4  -2  -7  479.85   42.90
  -4   2   7  458.35   42.10
  -4   2   7  467.15   42.80
   3  -2  -7 3122.09  277.17
  -3   2   7 3666.53  278.87
  -3   2   7 3422.56  279.17
   2  -2  -7  256.97   25.90
   2  -2  -7  293.27   25.60
  -2   2   7  280.07   27.50
  -2   2   7  282.87   26.90
   1  -2  -7  314.87   28.50
   1  -2  -7  288.67   28.60
  -1   2   7  301.57   30.00
  -1   2   7  336.67   29.70
   0  -2  -7   53.59    8.70
   0   2   7   54.59    8.60
   0   2   7   39.20    7.00
  -1  -2  -7 2708.33  222.38
  -1  -2  -7 2410.16  217.18
   1   2   7 2671.13  219.08
   1   2   7 2795.72  218.48
   2   2   7  135.39   19.00
   2   2   7  119.89   15.20
  -3  -2  -7 1398.96  127.19
   3   2   7 1561.64  133.39
   3   2   7 1460.25  123.69
   8  -3  -7   12.40    4.40
  -8   3   7   10.30    3.50
   7  -3  -7  545.55   51.99
  -7   3   7  609.94   52.69
  -7   3   7  597.54   51.89
   6  -3  -7  206.38   20.90
  -6   3   7  196.38   21.10
  -6   3   7  205.28   20.70
   5  -3  -7 1521.25  115.89
  -5   3   7 1420.56  115.79
  -5   3   7 1166.18  119.69
   4  -3  -7  301.67   28.70
  -4   3   7  318.87   29.40
  -4   3   7  289.77   29.70
   3  -3  -7 1205.78  107.39
  -3   3   7 1228.78  108.89
  -3   3   7 1411.06  108.59
   2  -3  -7  159.68   17.60
   2  -3  -7  160.58   19.90
  -2   3   7  170.98   17.90
  -2   3   7  164.78   18.70
   1  -3  -7  678.73   64.29
   1  -3  -7  766.92   68.19
  -1   3   7  795.42   65.19
  -1   3   7  738.03   65.89
   0  -3  -7  665.43   61.99
   0  -3  -7  733.33   66.29
   0   3   7  745.63   62.89
   0   3   7  718.33   63.79
  -1  -3  -7  939.51   86.69
   1   3   7  974.70   84.39
   1   3   7  992.40   83.49
  -2  -3  -7 1185.88  106.99
   2   3   7 1259.67  103.89
   8  -4  -7  264.67   25.70
  -8   4   7  245.28   24.80
   7  -4  -7  345.07   30.80
  -7   4   7  295.37   30.50
  -7   4   7  305.17   30.00
   6  -4  -7 1526.05  124.49
  -6   4   7 1582.94  124.39
  -6   4   7 1329.07  124.59
   5  -4  -7   81.39   10.50
  -5   4   7   83.19   10.70
  -5   4   7   73.79   10.80
   4  -4  -7  261.87   25.70
  -4   4   7  251.27   26.50
   3  -4  -7    1.90    3.40
  -3   4   7    6.60    4.20
  -3   4   7    7.40    3.10
   2  -4  -7 1685.53  152.48
  -2   4   7 1853.51  154.28
  -2   4   7 1952.90  152.88
   1  -4  -7  137.49   17.00
   1  -4  -7  105.19   23.80
  -1   4   7  146.19   15.60
  -1   4   7  140.19   16.80
   0  -4  -7 1551.74  140.89
   0   4   7 1824.72  141.79
   0   4   7 1704.43  142.69
  -1  -4  -7  282.37   31.30
   1   4   7  325.27   29.50
   8  -5  -7  898.21   79.29
  -8   5   7  954.90   79.09
   7  -5  -7  241.08   23.20
  -7   5   7  215.78   22.70
   6  -5  -7  951.50   83.39
  -6   5   7  893.31   84.29
  -6   5   7 1076.59   83.69
   5  -5  -7  227.88   24.70
  -5   5   7  236.58   27.60
  -5   5   7  295.27   25.60
   4  -5  -7  229.88   25.00
  -4   5   7  241.98   27.50
  -4   5   7  279.17   25.40
   3  -5  -7  531.05   55.39
  -3   5   7  661.43   55.89
  -3   5   7  719.23   61.59
   2  -5  -7  702.23   66.89
  -2   5   7  769.82   68.49
  -2   5   7  829.62   67.09
   1  -5  -7 1133.59   90.69
   1  -5  -7  979.10   90.89
   0  -5  -7   94.19   13.90
   0   5   7  137.79   14.10
   6  -6  -7   11.10    4.90
   5  -6  -7  923.21   88.59
  -5   6   7 1168.78   88.89
   4  -6  -7   19.60    5.00
  -4   6   7   29.20    5.60
   3  -6  -7 1041.10  103.49
  -3   6   7 1392.56  102.89
   1  -9   8   66.39   11.20
   2  -9   8  235.18   27.20
   3  -9   8   80.89   13.30
   4  -9   8   71.29   15.30
   1   8  -8  560.24   43.60
  -1  -8   8  428.36   46.70
   0  -8   8   35.50   13.50
  -1   8  -8   90.19    9.90
  -2   8  -8    0.70    2.20
   2  -8   8    6.30    3.60
   2  -8   8    3.80    5.50
  -3   8  -8  546.85   42.80
   3  -8   8  404.46   47.20
  -4   8  -8  134.89   14.90
  -5   8  -8  337.57   31.80
   3   7  -8  282.67   23.90
  -3  -7   8  199.88   24.50
   2   7  -8  283.27   24.60
  -2  -7   8  219.18   26.30
   1   7  -8  367.36   33.30
   0   7  -8  257.17   23.90
   0  -7   8  251.87   36.40
  -1   7  -8  412.96   36.80
   1  -7   8  406.16   51.29
  -2   7  -8 1510.45  121.69
   2  -7   8 1428.86  134.69
  -3   7  -8  137.49   17.20
   3  -7   8  144.49   25.50
  -4   7  -8  709.43   61.09
   4  -7   8  695.93   69.29
  -5   7  -8   37.40    7.60
   5  -7   8   49.90   10.20
  -6   7  -8  672.83   60.39
   6  -7   8  695.23   64.39
   4   6  -8 1032.80   87.59
   3   6  -8    6.80    3.10
  -3  -6   8    7.40    4.00
  -3  -6   8    2.10    5.70
   2   6  -8  343.17   29.20
  -2  -6   8  263.57   30.30
  -1  -6   8    6.30    6.10
  -1  -6   8    8.50    4.10
   0   6  -8 1440.66  124.99
   0  -6   8 1584.74  139.69
  -1   6  -8  526.55   46.60
   1  -6   8  557.54   58.09
  -2   6  -8  839.42   72.49
   2  -6   8  888.31   83.69
  -3   6  -8  825.82   74.69
   3  -6   8  949.31   84.69
  -4   6  -8 1121.99   97.29
   4  -6   8 1145.99  104.59
   5  -6   8  497.95   49.40
  -6   6  -8  678.33   59.79
   6  -6   8  660.13   65.29
   5   5  -8  501.85   44.80
   4   5  -8  507.05   45.40
   3   5  -8   71.09   11.80
  -3  -5   8   81.39   35.40
  -3  -5   8   67.19   11.50
   2   5  -8  341.77   28.60
  -2  -5   8  252.07   29.30
   1   5  -8  826.82   70.79
   0   5  -8  345.47   33.60
   0  -5   8  413.46   44.00
  -1   5  -8 2156.88  176.68
   1  -5   8 2150.78  186.98
  -2   5  -8  105.89   10.40
   2  -5   8   65.49   13.30
  -3   5  -8 1883.31  139.99
   3  -5   8 1480.55  145.49
  -4   5  -8   85.79   11.00
   4  -5   8   85.69   14.00
  -5   5  -8 1113.69   89.49
   5  -5   8  959.30   90.99
  -6   5  -8   22.00    5.60
   6   4  -8    5.70    2.70
  -6  -4   8   -0.10    5.50
   5   4  -8  267.57   26.00
   4   4  -8    0.60    2.10
  -4  -4   8   -2.80    3.60
  -4  -4   8    5.80    9.60
   2   4  -8  234.48   20.60
  -2  -4   8  167.18   21.10
   0   4  -8  770.22   66.29
   0  -4   8  785.42   74.59
  -1   4  -8 1756.22  141.09
   1  -4   8 1661.23  148.69
  -2   4  -8 1206.48   94.09
   2  -4   8 1144.39  100.49
   2  -4   8 1015.40   94.79
  -3   4  -8 1106.59   84.49
   3  -4   8  887.91   87.69
   3  -4   8  979.90   85.79
  -4   4  -8  106.39   11.90
   4  -4   8   75.29   12.90
   4  -4   8   75.59   10.50
  -5   4  -8  354.46   34.20
   5  -4   8  359.96   32.40
   5  -4   8  353.66   40.10
  -6   4  -8 1210.68  103.29
   6   3  -8  128.39   14.20
   5   3  -8   71.49    9.80
  -5  -3   8  104.49   20.10
   4   3  -8  711.73   61.49
  -3  -3   8  161.28   18.40
   2   3  -8  927.71   69.89
  -2  -3   8  697.73   70.89
  -1  -3   8   37.90    9.50
  -1  -3   8   45.70    7.40
   0   3  -8 3213.78  248.48
   0  -3   8 2922.81  249.18
   0  -3   8 2930.01  257.47
   0  -3   8 3089.39  248.18
  -1   3  -8   37.50    5.70
   1  -3   8   42.70   10.40
   1  -3   8   40.50    9.00
   1  -3   8   37.20    7.00
  -2   3  -8 1218.98   97.99
   2  -3   8 1252.07   99.89
   2  -3   8 1170.08   98.09
   2  -3   8 1027.80  100.89
   2  -3   8 1171.78   96.59
  -3   3  -8    8.70    3.20
   3  -3   8    9.90    5.00
   3  -3   8   11.50    5.30
   3  -3   8    9.60    3.50
  -4   3  -8 1187.68   97.29
   4  -3   8 1119.69   94.79
   4  -3   8 1103.49   98.09
  -5   3  -8  238.78   23.90
   5  -3   8  218.88   24.70
  -6   3  -8  673.03   59.49
   7   2  -8    6.50    2.50
  -7  -2   8    9.70    6.90
   6   2  -8  552.64   54.69
  -6  -2   8  748.23   71.79
   5   2  -8   79.89   10.60
  -5  -2   8  120.69   20.70
  -5  -2   8   94.89   11.50
  -4  -2   8  806.62   68.49
  -4  -2   8  797.32   80.29
  -3  -2   8  686.53   60.99
  -3  -2   8  748.23   71.29
  -2  -2   8 1743.23  143.29
  -2  -2   8 1726.63  151.58
   1   2  -8 2823.22  235.78
  -1  -2   8 2702.43  235.48
  -1  -2   8 3139.69  235.98
  -1  -2   8 2871.11  242.48
   0   2  -8  976.00   74.19
   0  -2   8  804.72   78.09
   0  -2   8  845.62   73.99
  -1   2  -8  238.28   21.40
   1  -2   8  222.78   21.60
   1  -2   8  211.88   19.80
   1  -2   8  212.78   22.20
  -2   2  -8  393.56   36.40
   2  -2   8  390.46   35.00
   2  -2   8  409.76   37.90
   2  -2   8  420.66   37.00
  -3   2  -8 1976.80  160.78
   3  -2   8 1952.40  158.88
   3  -2   8 1816.52  159.98
   3  -2   8 1990.80  162.18
  -4   2  -8  197.88   20.30
   4  -2   8  163.08   17.40
   4  -2   8  179.78   20.20
  -5   2  -8 1091.89   88.89
   5  -2   8  979.60   87.09
   7   1  -8  401.76   38.20
  -7  -1   8  454.55   38.70
   6   1  -8  215.88   22.70
  -6  -1   8  260.37   24.60
  -5  -1   8  781.22   70.69
  -5  -1   8  883.91   83.09
  -4  -1   8   37.60    6.30
  -4  -1   8   47.50   11.00
   3   1  -8 2098.39  197.28
  -3  -1   8 2610.54  207.08
  -3  -1   8 2533.55  198.18
  -2  -1   8   47.10    6.50
  -2  -1   8   36.30    6.10
  -2  -1   8   34.30    8.90
   1   1  -8 1502.15  121.49
  -1  -1   8 1552.24  122.19
  -1  -1   8 1425.26  125.59
  -1  -1   8 1382.96  121.69
   0   1  -8   49.99    6.70
   0  -1   8   51.09    7.40
   0  -1   8   43.90    7.00
  -1   1  -8 2161.28  180.78
   1  -1   8 2252.27  182.18
   1  -1   8 2183.68  181.38
  -2   1  -8  168.98   17.50
   2  -1   8  169.28   18.50
   2  -1   8  154.18   17.40
  -3   1  -8 1332.77  111.59
   3  -1   8 1319.37  112.39
   3  -1   8 1307.07  111.19
  -4   1  -8  942.01   80.79
   4  -1   8  965.40   81.99
   4  -1   8  905.81   79.99
  -5   1  -8  272.67   27.80
  -5   1  -8  257.87   25.10
   5  -1   8  235.88   24.80
   8   0  -8   48.60    7.80
  -8   0   8   78.79   15.00
  -8   0   8   70.89    8.90
   7   0  -8  186.18   20.50
   7   0  -8  214.58   22.30
  -7   0   8  220.78   21.50
  -7   0   8  255.37   31.60
   6   0  -8  136.89   15.50
  -6   0   8  141.59   15.60
  -6   0   8  161.58   25.60
   5   0  -8  805.42   75.69
  -5   0   8  988.40   86.49
  -5   0   8  912.61   76.79
   4   0  -8 1903.61  156.88
  -4   0   8 1876.21  157.38
  -4   0   8 1928.61  164.98
   3   0  -8  863.81   70.49
  -3   0   8  772.62   70.89
  -3   0   8  752.12   75.79
  -3   0   8  932.91   71.39
   2   0  -8  392.86   33.70
  -2   0   8  347.07   34.20
  -2   0   8  393.56   34.70
   1   0  -8  679.23   58.89
  -1   0   8  687.23   59.99
  -1   0   8  711.53   60.09
   0   0  -8 1209.78   96.09
   0   0   8 1119.49   96.59
   0   0   8 1107.39   96.89
  -1   0  -8  329.27   31.40
   1   0   8  348.17   32.00
   1   0   8  341.67   32.40
  -2   0  -8 1240.58  105.09
   2   0   8 1225.38  105.89
   2   0   8 1265.17  105.29
  -3   0  -8   26.20    5.70
   3   0   8   24.00    6.00
   3   0   8   22.80    5.30
  -4   0  -8 2164.78  186.38
   4   0   8 2355.16  186.78
   8  -1  -8  260.57   25.30
  -8   1   8  252.47   25.20
  -8   1   8  290.57   34.00
   7  -1  -8   -1.90    2.90
  -7   1   8   -3.40    3.60
  -7   1   8   -2.60    1.60
   6  -1  -8  959.80   89.49
  -6   1   8 1108.49   99.09
  -6   1   8 1151.58   92.39
  -5   1   8    9.40    4.40
  -5   1   8    5.00    4.70
  -5   1   8    7.30    3.00
  -4   1   8 1397.46  105.09
  -4   1   8 1100.79  108.29
  -4   1   8 1221.78  104.29
  -3   1   8   64.99    8.70
  -3   1   8   60.69    8.60
   2  -1  -8 1301.97  107.09
  -2   1   8 1246.48  108.59
  -2   1   8 1324.07  108.69
   1  -1  -8  109.69   12.40
  -1   1   8  116.69   13.60
  -1   1   8  121.19   13.90
   0  -1  -8 1542.35  132.29
   0   1   8 1701.83  133.69
   0   1   8 1537.45  137.79
  -1  -1  -8  941.01   84.79
   1   1   8 1078.49   85.99
   1   1   8  982.90   86.19
  -2  -1  -8  645.54   59.29
   2   1   8  665.13   60.89
   2   1   8  739.33   60.49
  -3  -1  -8  711.33   72.29
  -3  -1  -8  842.92   73.99
   3   1   8  893.11   71.09
   8  -2  -8  523.65   45.80
  -8   2   8  508.35   45.70
   7  -2  -8  834.62   69.99
  -7   2   8  785.22   77.19
  -7   2   8  825.12   70.29
   6  -2  -8  589.94   55.89
  -6   2   8  694.83   56.89
  -6   2   8  658.33   62.19
   5  -2  -8  273.27   27.90
  -5   2   8  339.47   30.10
  -5   2   8  317.97   29.30
   4  -2  -8  175.98   15.50
  -4   2   8  139.69   17.00
  -4   2   8  146.99   16.60
   3  -2  -8 1154.78   94.39
  -3   2   8 1113.29   96.19
   2  -2  -8   83.89   10.30
   2  -2  -8   80.59   12.70
  -2   2   8  103.59   11.60
  -2   2   8   92.69   11.80
   1  -2  -8 1203.88  104.09
   1  -2  -8 1178.98  106.89
  -1   2   8 1374.86  106.29
  -1   2   8 1240.38  106.09
   0  -2  -8   -1.70    7.50
   0  -2  -8    4.30    4.20
   0   2   8   13.30    4.80
   0   2   8    5.60    2.60
   1   2   8 3539.85  307.77
   1   2   8 3870.61  303.97
  -2  -2  -8   61.59   10.10
   2   2   8   53.29    8.00
   8  -3  -8   29.80    6.20
  -8   3   8   30.40    5.60
  -8   3   8   20.50    8.90
   7  -3  -8  655.43   58.39
  -7   3   8  702.33   59.09
   6  -3  -8   38.30    6.50
  -6   3   8   38.80    6.60
  -6   3   8   28.20    8.60
   5  -3  -8  587.14   59.19
  -5   3   8  753.12   59.09
  -5   3   8  673.33   59.29
   4  -3  -8   79.69   10.00
  -4   3   8   62.19    9.30
  -4   3   8   60.29    9.40
  -3   3   8 1386.96  108.09
  -3   3   8 1161.88  107.59
  -2   3   8  435.66   45.70
  -2   3   8  408.96   39.40
   1  -3  -8  935.31   90.39
  -1   3   8 1049.09   90.69
  -1   3   8 1173.28   90.49
   0  -3  -8 1455.75  139.59
   0   3   8 1832.72  139.29
   0   3   8 1687.73  139.69
  -1  -3  -8  738.13   73.39
   1   3   8  943.31   72.99
   7  -4  -8   86.49   11.40
  -7   4   8  100.49   11.50
   6  -4  -8  683.93   64.39
  -6   4   8  831.62   65.59
   5  -4  -8   71.19   10.00
  -5   4   8   93.69   10.50
  -5   4   8   64.59   10.20
   4  -4  -8  375.76   35.70
  -4   4   8  438.16   37.00
  -4   4   8  372.46   36.90
  -3   4   8   15.10    4.50
  -3   4   8   16.40    6.30
  -2   4   8 3377.26  297.87
  -2   4   8 3830.92  295.77
  -1   4   8   14.00    4.40
   0  -4  -8  559.94   50.49
   6  -5  -8  335.07   33.70
  -6   5   8  425.66   34.80
   5  -5  -8  204.28   22.10
  -5   5   8  267.07   23.50
   4  -5  -8  603.54   52.79
  -3   5   8 1250.07  105.39
   0   8  -9   11.70    3.10
   0  -8   9   16.70    5.80
  -1   8  -9  115.09   13.60
  -2   8  -9   51.79    8.00
  -3   8  -9  505.35   49.00
  -4   8  -9  150.68   16.30
   4  -8   9  163.88   29.20
   2   7  -9  226.88   23.40
  -2  -7   9  205.68   30.70
   1   7  -9  800.12   66.39
  -1  -7   9  755.52   78.49
   0   7  -9  602.54   51.69
   0  -7   9  603.24   63.59
  -1   7  -9   91.19    9.80
   1  -7   9   79.99   15.90
  -2   7  -9 1194.68   99.69
   2  -7   9 1202.28  110.19
  -3   7  -9  336.77   28.50
   3  -7   9  270.57   34.10
  -4   7  -9  349.47   29.80
   4  -7   9  278.47   33.80
  -5   7  -9   92.89   12.90
   5  -7   9   72.89   12.70
   3   6  -9   19.40    4.30
  -3  -6   9   26.10   11.50
   2   6  -9  348.97   35.50
  -2  -6   9  469.15   49.30
   1   6  -9  141.09   15.20
  -1  -6   9  148.09   23.60
   0   6  -9 2045.90  163.28
   0  -6   9 1915.11  174.88
  -1   6  -9  361.76   30.60
   1  -6   9  298.37   37.90
  -2   6  -9 1076.89   88.09
   2  -6   9 1020.00   96.59
  -3   6  -9   25.30    5.50
   3  -6   9   17.00    7.00
  -4   6  -9  826.02   65.29
   4  -6   9  674.83   68.79
  -5   6  -9  481.85   43.50
   4   5  -9  313.77   29.50
   3   5  -9  434.96   39.30
   2   5  -9  209.98   21.00
   1   5  -9 2057.29  179.38
  -1  -5   9 2310.17  191.38
   0   5  -9  250.17   23.10
   0  -5   9  230.48   30.30
  -1   5  -9  653.33   54.29
   1  -5   9  600.64   61.99
  -2   5  -9   79.59    8.90
   2  -5   9   52.29   11.60
  -3   5  -9 1214.28  100.49
   3  -5   9 1171.78  105.89
  -4   5  -9   91.29   11.40
  -5   5  -9  811.12   70.39
   5   4  -9  238.78   23.40
   4   4  -9    0.40    1.90
  -4  -4   9    5.30    5.50
   3   4  -9  945.61   80.49
   2   4  -9  370.26   37.50
  -2  -4   9  489.25   48.80
   1   4  -9 1071.99   92.09
  -1  -4   9 1119.79  101.39
   0   4  -9  210.98   18.60
   0  -4   9  152.28   23.30
  -1   4  -9 1545.45  125.09
   1  -4   9 1465.25  131.89
  -2   4  -9  573.04   48.40
   2  -4   9  524.55   52.99
  -3   4  -9  838.42   72.19
  -4   4  -9  834.72   72.29
  -5   4  -9  160.88   17.40
   6   3  -9  134.69   14.60
   5   3  -9  184.38   18.70
   4   3  -9  889.51   75.79
   3   3  -9  229.38   22.30
   2   3  -9  774.52   71.19
  -2  -3   9  910.61   81.19
   1   3  -9  124.29   12.10
  -1  -3   9   82.09   15.10
   0   3  -9 1218.58   98.59
   0  -3   9 1135.19  101.29
   0  -3   9 1172.28  104.69
  -2   3  -9 1313.47  106.39
   2  -3   9 1218.28  106.99
  -3   3  -9  256.17   24.10
   3  -3   9  222.28   24.70
  -4   3  -9 1014.50   86.79
  -5   3  -9  238.88   23.90
   6   2  -9  543.55   47.70
  -5  -2   9  618.54   51.09
  -5  -2   9  521.15   59.39
  -4  -2   9 1036.70  100.09
  -4  -2   9 1106.39   90.29
   3   2  -9  272.97   26.60
  -3  -2   9  302.47   26.90
  -3  -2   9  284.47   33.90
   2   2  -9 1018.20   84.09
  -2  -2   9  985.00   90.89
  -2  -2   9  985.60   83.89
   1   2  -9  548.45   43.80
  -1  -2   9  440.26   48.00
  -1  -2   9  495.65   43.50
   0   2  -9 1117.39   91.19
   0  -2   9 1037.60   91.09
   0  -2   9 1099.49   91.69
  -1   2  -9  472.25   38.30
   1  -2   9  372.86   37.30
  -2   2  -9  393.36   34.30
   2  -2   9  355.76   34.70
   2  -2   9  354.46   33.50
  -3   2  -9 2430.56  190.28
   3  -2   9 2169.18  188.68
  -4   2  -9  120.99   14.10
   7   1  -9  555.44   50.39
  -6  -1   9  343.57   41.50
  -6  -1   9  385.76   33.40
  -5  -1   9  890.21   87.99
  -5  -1   9  977.10   79.49
   4   1  -9    5.00    2.80
  -4  -1   9    9.00    3.10
  -4  -1   9    8.20    5.30
   3   1  -9 1443.06  117.19
  -3  -1   9 1368.16  123.99
  -3  -1   9 1419.86  117.59
  -2  -1   9  158.68   17.00
  -2  -1   9  162.48   16.70
   1   1  -9 1100.69   89.99
  -1  -1   9 1067.49   90.49
  -1  -1   9 1050.19   90.49
   0   1  -9  248.78   24.10
   0  -1   9  261.27   24.60
  -1   1  -9 1418.36  119.79
   1  -1   9 1505.25  120.09
   1  -1   9 1380.66  120.49
  -2   1  -9  681.43   60.19
   2  -1   9  666.53   60.69
   2  -1   9  719.73   60.09
  -3   1  -9 1230.68   99.29
   3  -1   9 1112.19   98.19
  -4   1  -9  166.68   18.30
   4  -1   9  170.68   17.20
   7   0  -9  812.92   68.09
  -7   0   9  880.11   69.19
  -7   0   9  673.93   73.99
   6   0  -9  226.38   21.10
  -6   0   9  196.18   27.00
  -6   0   9  234.88   21.80
   5   0  -9  885.31   69.39
  -5   0   9  809.32   69.89
  -5   0   9  753.92   75.99
   4   0  -9  416.46   34.10
  -4   0   9  357.36   39.30
  -4   0   9  365.06   34.50
   3   0  -9  464.45   40.40
  -3   0   9  459.35   41.30
   2   0  -9  209.28   19.80
  -2   0   9  203.18   20.70
   1   0  -9  467.45   41.00
  -1   0   9  484.15   42.20
  -1   0   9  446.26   41.80
   0   0  -9 4362.66  346.57
   0   0   9 4430.06  347.37
   0   0   9 3973.90  347.17
  -1   0  -9  359.36   33.20
   1   0   9  340.17   33.80
   1   0   9  379.76   33.80
  -2   0  -9 1026.70   90.39
   2   0   9 1166.28   91.09
   2   0   9 1015.10   91.49
  -3   0  -9   59.29   10.10
  -3   0  -9   78.79   10.70
   3   0   9   63.99    8.90
  -7   1   9   33.50   10.00
  -7   1   9   38.00    6.30
  -6   1   9  711.23   68.59
  -6   1   9  755.52   63.29
   5  -1  -9   99.19   10.20
  -5   1   9   81.99   10.50
   4  -1  -9  646.24   51.69
  -4   1   9  619.64   52.79
  -4   1   9  511.25   56.09
  -3   1   9   85.69   10.00
  -3   1   9   63.99    9.30
   2  -1  -9 1771.52  149.79
  -2   1   9 1867.11  151.58
  -2   1   9 1826.32  151.48
   1  -1  -9  327.17   30.10
  -1   1   9  324.67   31.10
   0  -1  -9 1236.78  110.49
   0   1   9 1261.47  111.89
   0   1   9 1488.05  112.49
  -1  -1  -9  435.16   44.40
  -1  -1  -9  432.96   42.20
   1   1   9  555.24   44.10
   1   1   9  503.55   45.70
  -2  -1  -9  454.65   45.20
   2   1   9  524.75   44.10
  -7   2   9  474.65   41.90
  -6   2   9   90.69   10.80
  -5   2   9  174.88   17.70
  -5   2   9  122.39   14.90
  -4   2   9  426.96   37.60
  -4   2   9  316.47   33.10
  -3   2   9 2266.87  202.08
  -3   2   9 2645.44  202.68
  -2   2   9  434.96   39.10
  -2   2   9  413.46   39.30
   1  -2  -9 1143.89  113.69
  -1   2   9 1567.04  115.09
  -1   2   9 1373.06  114.59
   0  -2  -9   76.79   11.40
   0   2   9  110.29   12.40
   1   2   9 1135.79   96.19
  -6   3   9    7.50    2.70
  -5   3   9  781.62   67.09
  -4   3   9  261.67   25.30
  -3   3   9 1491.45  124.89
  -2   3   9  866.91   74.79
  -1   3   9  633.14   55.89
  -5   4   9  272.27   25.80
  -4   4   9 1425.26  119.09
  -3   4   9   70.09    9.50
   0   7 -10  409.56   35.50
   0  -7  10  349.47   41.30
  -1   7 -10  197.78   17.60
   1  -7  10  160.48   23.00
  -2   7 -10  523.95   42.80
   2  -7  10  451.15   50.09
   3  -7  10  341.17   36.10
   2   6 -10  819.02   68.29
  -2  -6  10  785.92   77.79
   1   6 -10    5.50    2.10
  -1  -6  10   12.20    5.60
   0   6 -10 1174.48   92.09
   0  -6  10 1018.70  100.19
  -1   6 -10    3.60    2.20
   1  -6  10    7.30    4.80
  -3   6 -10   83.99    9.60
   3  -6  10   59.09   11.80
   3   5 -10  414.96   38.20
  -3  -5  10  449.16   47.80
   2   5 -10   87.29   10.10
  -2  -5  10   84.09   15.70
   1   5 -10  731.33   56.09
  -1  -5  10  554.24   62.59
   0   5 -10  744.73   58.89
   0  -5  10  617.94   65.09
  -1   5 -10  507.55   40.10
   1  -5  10  385.36   45.00
  -3   5 -10 1394.76  116.69
   4   4 -10   63.59    8.20
  -4  -4  10   68.69   13.40
   3   4 -10 1441.06  119.79
   2   4 -10   34.30    5.40
  -2  -4  10   36.60   11.00
   1   4 -10  804.12   64.89
  -1  -4  10  710.43   71.39
   0   4 -10   16.30    3.90
   0  -4  10   16.60    6.70
  -1   4 -10  774.72   66.29
  -2   4 -10 1211.68  101.89
  -3   4 -10  429.66   39.10
  -4   4 -10  497.45   44.60
   5   3 -10  152.48   16.40
  -5  -3  10  193.08   27.20
   4   3 -10  585.74   54.59
  -4  -3  10  699.13   64.39
   3   3 -10  308.97   27.50
  -3  -3  10  281.07   34.10
   2   3 -10  383.96   32.50
  -2  -3  10  329.87   38.00
  -1  -3  10   30.60    9.80
   0   3 -10 2279.67  187.38
  -1   3 -10    0.50    1.90
  -2   3 -10 1514.15  126.49
  -3   3 -10  141.39   15.60
   5   2 -10   31.50    5.10
  -5  -2  10   29.10    9.80
   4   2 -10  475.55   41.30
  -4  -2  10  465.35   48.20
   3   2 -10   24.50    4.50
  -3  -2  10   24.50    5.50
  -3  -2  10   15.70    6.50
   2   2 -10  860.21   72.99
  -2  -2  10  870.01   73.19
   1   2 -10  942.61   77.29
  -1  -2  10  884.71   78.49
   0   2 -10  721.73   61.39
   0  -2  10  706.33   61.19
  -1   2 -10 1257.87   97.99
   1  -2  10 1064.49   96.69
  -2   2 -10  405.86   35.70
   2  -2  10  366.06   34.90
  -3   2 -10  939.11   80.09
   6   1 -10  137.29   13.40
  -6  -1  10  121.39   18.00
   5   1 -10  223.78   21.10
  -5  -1  10  197.58   26.20
  -5  -1  10  261.37   22.10
   4   1 -10   26.20    4.40
  -4  -1  10   20.10    4.90
   3   1 -10 1259.57  109.49
  -3  -1  10 1390.76  110.59
  -2  -1  10   40.30    6.40
   1   1 -10 1641.54  138.19
  -1  -1  10 1704.13  138.79
   0   1 -10   70.59    9.70
   0  -1  10   87.49   12.60
   0  -1  10   91.59   10.50
  -1   1 -10 1094.69   91.29
   1  -1  10 1066.09   90.89
  -2   1 -10    7.00    3.40
   2  -1  10    6.60    4.70
   6   0 -10    8.80    2.60
  -6   0  10    5.20    3.00
  -6   0  10   -6.70    7.90
   5   0 -10  455.45   38.20
  -5   0  10  425.26   38.80
   4   0 -10  667.93   55.29
  -4   0  10  634.74   56.09
   3   0 -10  894.41   74.79
  -3   0  10  891.41   75.89
   2   0 -10  910.41   78.39
  -2   0  10  958.60   79.49
   1   0 -10  363.96   33.40
  -1   0  10  364.96   35.30
  -1   0  10  390.46   34.40
   0   0 -10 1615.94  136.79
   0   0  10 1690.53  137.59
  -1   0 -10  242.98   24.00
   1   0  10  259.17   24.20
   5  -1 -10   35.80    6.50
  -5   1  10   51.79    6.60
   4  -1 -10 1071.79   89.59
  -4   1  10 1090.19   90.89
   3  -1 -10  263.37   21.60
  -3   1  10  192.48   21.70
   2  -1 -10 1311.17  115.79
  -2   1  10 1495.85  117.39
   1  -1 -10  118.49   15.20
  -1   1  10  140.69   14.80
   0  -1 -10  806.32   69.59
  -5   2  10  378.56   34.00
  -4   2  10  490.45   43.20
  -3   2  10 1968.60  162.58
  -2   2  10  347.47   32.10
   0   5 -11  286.97   24.40
   0  -5  11  231.98   27.60
  -1   5 -11 1123.49   93.99
   2   4 -11   35.20    5.40
  -2  -4  11   32.10    8.10
   1   4 -11  743.63   62.99
   0   4 -11  241.08   22.70
  -1   4 -11  799.62   68.19
   3   3 -11  367.66   29.80
  -3  -3  11  297.27   33.50
   2   3 -11  843.22   70.79
   0   3 -11 1498.15  124.19
  -1   3 -11   76.99    9.70
   3   2 -11  219.68   20.30
   2   2 -11 1062.99   88.49
   1   2 -11  916.21   76.99
   0   2 -11  637.44   54.89
  -1   2 -11   85.99   12.50
   4   1 -11   33.20    4.90
  -4  -1  11   36.50    6.50
   3   1 -11 1283.07  112.89
  -3  -1  11 1464.35  113.89
   2   1 -11   60.09    7.30
   1   1 -11  761.32   64.79
  -1  -1  11  771.02   65.29
   0   1 -11    7.80    2.90
   0  -1  11    4.50    3.90
   3   0 -11  566.74   49.70
  -3   0  11  608.84   50.59
   2   0 -11  112.79   12.40
  -2   0  11  129.99   13.10
   0   0   0    0.00    0.00

_computing_structure_solution     'SHELXT 2014/5 (Sheldrick, 2014)'
;
_shelx_hkl_checksum              37844
_olex2_submission_special_instructions 'No special instructions were received'
loop_
_space_group_symop_operation_xyz
'x, y, z'
'-x, -y, -z'
loop_
_atom_site_label
_atom_site_type_symbol
_atom_site_fract_x
_atom_site_fract_y
_atom_site_fract_z
_atom_site_U_iso_or_equiv
_atom_site_adp_type
_atom_site_occupancy
_atom_site_site_symmetry_order
_atom_site_calc_flag
_atom_site_refinement_flags_posn
_atom_site_refinement_flags_adp
_atom_site_refinement_flags_occupancy
_atom_site_disorder_assembly
_atom_site_disorder_group
Pb1 Pb 0.76551(5) 0.64810(5) 0.49156(4) 0.0184(4) Uani 1 1 d . . . . .
Cl1 Cl 0.4708(5) 0.7027(5) 0.5032(4) 0.0232(7) Uani 1 1 d . . . . .
Cl2 Cl 0.9093(5) 0.7907(5) 0.8285(4) 0.0266(8) Uani 1 1 d . . . . .
Cl3 Cl 0.6480(5) 0.4889(5) 0.1802(4) 0.0270(8) Uani 1 1 d . . . . .
Cl5 Cl 1.000000 0.500000 0.500000 0.0292(10) Uani 1 2 d S . P . .
Cl6 Cl 1.000000 1.000000 0.500000 0.0479(19) Uani 1 2 d S . P . .
N1 N 0.7096(14) 1.1227(15) 0.2567(14) 0.033(3) Uani 1 1 d . . . . .
H1A H 0.819521 1.185518 0.257477 0.040 Uiso 1 1 calc R U . . .
H1B H 0.661136 1.172151 0.315661 0.040 Uiso 1 1 calc R U . . .
N2 N 0.6779(14) 0.8754(14) 0.0797(12) 0.025(2) Uani 1 1 d . . . . .
H2A H 0.787189 0.932300 0.076317 0.030 Uiso 1 1 calc R U . . .
H2B H 0.610862 0.762922 0.022031 0.030 Uiso 1 1 calc R U . . .
N3 N 0.2014(13) 0.5891(13) 0.1730(11) 0.0198(17) Uani 1 1 d . . . . .
H3 H 0.160991 0.477904 0.169881 0.024 Uiso 1 1 calc R U . . .
C1 C 0.095(2) 0.661(2) 0.1854(15) 0.023(2) Uani 1 1 d . . . . .
H1 H -0.021759 0.591400 0.189000 0.027 Uiso 1 1 calc R U . . .
C2 C 0.1538(18) 0.8311(19) 0.1928(15) 0.024(2) Uani 1 1 d . . . . .
H2 H 0.078701 0.882373 0.201776 0.029 Uiso 1 1 calc R U . . .
C3 C 0.3226(16) 0.9316(17) 0.1876(13) 0.0218(19) Uani 1 1 d . . . . .
H3A H 0.364880 1.052634 0.194411 0.026 Uiso 1 1 calc R U . . .
C4 C 0.4313(15) 0.8541(15) 0.1721(12) 0.0184(17) Uani 1 1 d . U . . .
C5 C 0.3654(15) 0.6778(15) 0.1650(13) 0.0202(18) Uani 1 1 d . U . . .
H5 H 0.435979 0.621224 0.154627 0.024 Uiso 1 1 calc R U . . .
C6 C 0.617(2) 0.955(2) 0.1671(17) 0.022(2) Uani 1 1 d . . . . .
loop_
_atom_site_aniso_label
_atom_site_aniso_U_11
_atom_site_aniso_U_22
_atom_site_aniso_U_33
_atom_site_aniso_U_23
_atom_site_aniso_U_13
_atom_site_aniso_U_12
Pb1 0.0190(5) 0.0181(5) 0.0117(5) -0.0001(3) -0.0001(3) 0.0073(3)
Cl1 0.0265(18) 0.0245(18) 0.0179(16) 0.0029(14) 0.0028(13) 0.0149(15)
Cl2 0.0307(18) 0.0243(16) 0.0190(16) 0.0031(12) 0.0062(13) 0.0107(14)
Cl3 0.0290(17) 0.0352(19) 0.0123(15) 0.0005(13) 0.0001(12) 0.0172(14)
Cl5 0.020(2) 0.028(2) 0.027(2) -0.0065(18) -0.0039(16) 0.0125(18)
Cl6 0.068(5) 0.025(3) 0.042(4) 0.012(3) 0.029(3) 0.012(3)
N1 0.019(4) 0.023(3) 0.038(5) -0.007(3) -0.003(4) 0.005(3)
N2 0.025(5) 0.021(4) 0.022(5) 0.004(3) 0.006(4) 0.008(4)
N3 0.021(3) 0.016(3) 0.011(4) -0.003(3) 0.001(3) 0.004(2)
C1 0.027(4) 0.027(4) 0.009(6) 0.000(4) 0.002(4) 0.013(3)
C2 0.025(3) 0.028(4) 0.016(6) 0.002(4) 0.000(4) 0.015(3)
C3 0.026(3) 0.023(4) 0.013(5) 0.001(4) -0.001(3) 0.013(3)
C4 0.019(3) 0.018(3) 0.013(4) 0.003(2) -0.001(2) 0.007(2)
C5 0.021(3) 0.018(3) 0.016(4) 0.003(3) 0.001(3) 0.007(2)
C6 0.020(3) 0.019(3) 0.019(5) 0.001(3) 0.001(3) 0.005(2)
loop_
_atom_type_symbol
_atom_type_description
_atom_type_scat_dispersion_real
_atom_type_scat_dispersion_imag
_atom_type_scat_source
C C 0.0148 0.0070 'International Tables Vol C Tables 4.2.6.8 and 6.1.1.4'
H H 0.0000 0.0000 'International Tables Vol C Tables 4.2.6.8 and 6.1.1.4'
Cl Cl 0.3294 0.5404 'International Tables Vol C Tables 4.2.6.8 and 6.1.1.4'
N N 0.0253 0.0136 'International Tables Vol C Tables 4.2.6.8 and 6.1.1.4'
Pb Pb -4.2614 7.2057 'International Tables Vol C Tables 4.2.6.8 and 6.1.1.4'
loop_
_geom_angle_atom_site_label_1
_geom_angle_atom_site_label_2
_geom_angle_atom_site_label_3
_geom_angle
_geom_angle_site_symmetry_1
_geom_angle_site_symmetry_3
_geom_angle_publ_flag
Cl1 Pb1 Cl1 83.30(10) . 2_666 ?
Cl1 Pb1 Cl2 91.63(10) 2_666 . ?
Cl1 Pb1 Cl2 94.67(10) . . ?
Cl1 Pb1 Cl5 162.93(8) . . ?
Cl1 Pb1 Cl6 96.13(8) . . ?
Cl3 Pb1 Cl1 90.85(10) . . ?
Cl3 Pb1 Cl1 85.25(11) . 2_666 ?
Cl3 Pb1 Cl2 173.32(10) . . ?
Cl3 Pb1 Cl5 91.07(7) . . ?
Cl3 Pb1 Cl6 97.15(8) . . ?
Cl5 Pb1 Cl1 79.95(7) . 2_666 ?
Cl5 Pb1 Cl2 82.56(7) . . ?
Cl6 Pb1 Cl1 177.54(7) . 2_666 ?
Cl6 Pb1 Cl2 86.03(7) . . ?
Cl6 Pb1 Cl5 100.463(18) . . ?
Pb1 Cl1 Pb1 96.70(10) . 2_666 ?
Pb1 Cl5 Pb1 180.0 . 2_766 ?
Pb1 Cl6 Pb1 180.0 2_776 . ?
H1A N1 H1B 120.0 . . ?
C6 N1 H1A 120.0 . . ?
C6 N1 H1B 120.0 . . ?
H2A N2 H2B 120.0 . . ?
C6 N2 H2A 120.0 . . ?
C6 N2 H2B 120.0 . . ?
C1 N3 H3 118.3 . . ?
C5 N3 H3 118.3 . . ?
C5 N3 C1 123.3(11) . . ?
N3 C1 H1 120.2 . . ?
N3 C1 C2 119.6(13) . . ?
C2 C1 H1 120.2 . . ?
C1 C2 H2 119.9 . . ?
C1 C2 C3 120.2(13) . . ?
C3 C2 H2 119.9 . . ?
C2 C3 H3A 120.3 . . ?
C2 C3 C4 119.5(12) . . ?
C4 C3 H3A 120.3 . . ?
C3 C4 C6 122.9(11) . . ?
C5 C4 C3 118.5(11) . . ?
C5 C4 C6 118.6(11) . . ?
N3 C5 C4 118.8(11) . . ?
N3 C5 H5 120.6 . . ?
C4 C5 H5 120.6 . . ?
N1 C6 C4 117.5(13) . . ?
N2 C6 N1 123.5(14) . . ?
N2 C6 C4 119.0(13) . . ?
loop_
_geom_bond_atom_site_label_1
_geom_bond_atom_site_label_2
_geom_bond_distance
_geom_bond_site_symmetry_2
_geom_bond_publ_flag
Pb1 Cl1 2.844(3) . ?
Pb1 Cl1 2.909(4) 2_666 ?
Pb1 Cl2 3.015(3) . ?
Pb1 Cl3 2.779(3) . ?
Pb1 Cl5 2.8882(5) . ?
Pb1 Cl6 2.8662(6) . ?
N1 H1A 0.8800 . ?
N1 H1B 0.8800 . ?
N1 C6 1.318(19) . ?
N2 H2A 0.8800 . ?
N2 H2B 0.8800 . ?
N2 C6 1.260(19) . ?
N3 H3 0.8800 . ?
N3 C1 1.339(18) . ?
N3 C5 1.333(16) . ?
C1 H1 0.9500 . ?
C1 C2 1.34(2) . ?
C2 H2 0.9500 . ?
C2 C3 1.375(19) . ?
C3 H3A 0.9500 . ?
C3 C4 1.397(17) . ?
C4 C5 1.388(16) . ?
C4 C6 1.500(19) . ?
C5 H5 0.9500 . ?
loop_
_geom_torsion_atom_site_label_1
_geom_torsion_atom_site_label_2
_geom_torsion_atom_site_label_3
_geom_torsion_atom_site_label_4
_geom_torsion
_geom_torsion_site_symmetry_1
_geom_torsion_site_symmetry_2
_geom_torsion_site_symmetry_3
_geom_torsion_site_symmetry_4
_geom_torsion_publ_flag
N3 C1 C2 C3 0(2) . . . . ?
C1 N3 C5 C4 1.0(18) . . . . ?
C1 C2 C3 C4 1(2) . . . . ?
C2 C3 C4 C5 -1.1(17) . . . . ?
C2 C3 C4 C6 -179.3(12) . . . . ?
C3 C4 C5 N3 0.1(16) . . . . ?
C3 C4 C6 N1 38.5(19) . . . . ?
C3 C4 C6 N2 -142.2(14) . . . . ?
C5 N3 C1 C2 -1.1(19) . . . . ?
C5 C4 C6 N1 -139.7(14) . . . . ?
C5 C4 C6 N2 39.6(19) . . . . ?
C6 C4 C5 N3 178.4(11) . . . . ?
