#------------------------------------------------------------------------------
#$Date: 2021-09-04 00:59:27 +0300 (Sat, 04 Sep 2021) $
#$Revision: 268448 $
#$URL: file:///home/coder/svn-repositories/cod/cif/4/00/40/4004024.cif $
#------------------------------------------------------------------------------
#
# This file is available in the Crystallography Open Database (COD),
# http://www.crystallography.net/
#
# All data on this site have been placed in the public domain by the
# contributors.
#
data_4004024
loop_
_publ_author_name
'Kim, Kisung'
'Lee, Min Hyung'
'Ok, Kang Min'
_publ_section_title
;
 Structural Origin of Very Large Second-Harmonic Generation of a Layered
 Perovskite, Na0.5Bi2.5Nb2O9
;
_journal_issue                   16
_journal_name_full               'Chemistry of Materials'
_journal_page_first              6564
_journal_page_last               6571
_journal_paper_doi               10.1021/acs.chemmater.1c02203
_journal_volume                  33
_journal_year                    2021
_chemical_absolute_configuration ad
_chemical_formula_moiety         'Bi5 Na Nb4 O18'
_chemical_formula_sum            'Bi5 Na Nb4 O18'
_chemical_formula_weight         1727.53
_space_group_IT_number           36
_space_group_name_Hall           'C 2c -2'
_space_group_name_H-M_alt        'C m c 21'
_symmetry_cell_setting           orthorhombic
_symmetry_Int_Tables_number      36
_symmetry_space_group_name_Hall  'C 2c -2'
_symmetry_space_group_name_H-M   'C m c 21'
_atom_sites_solution_primary     direct
_atom_sites_solution_secondary   difmap
_audit_conform_dict_location     ftp://ftp.iucr.org/pub/cif_core.dic
_audit_conform_dict_name         cif_core.dic
_audit_conform_dict_version      2.4.3
_audit_creation_date             2020-12-01T16:54:33-00:00
_audit_creation_method           'WinGX routine CIF_UPDATE'
_cell_angle_alpha                90
_cell_angle_beta                 90
_cell_angle_gamma                90
_cell_formula_units_Z            2
_cell_length_a                   24.9258(10)
_cell_length_b                   5.4638(2)
_cell_length_c                   5.4927(2)
_cell_measurement_reflns_used    9633
_cell_measurement_temperature    299(2)
_cell_measurement_theta_max      28.38
_cell_measurement_theta_min      3.27
_cell_measurement_wavelength     0.71073
_cell_volume                     748.05(5)
_computing_cell_refinement       'SAINT V8.38A integration software'
_computing_data_collection       'Bruker APEX3 software'
_computing_data_reduction        'Bruker APEX3 software'
_computing_molecular_graphics    'Ortep for Windows (Farrugia, 2012)'
_computing_publication_material  'WinGX publication routines (Farrugia, 2012)'
_computing_structure_refinement  'SHELXL-2018/1 (Sheldrick, 2018)'
_computing_structure_solution    'SHELXS-2013/2 (Sheldrick, 2013)'
_diffrn_ambient_temperature      299(2)
_diffrn_detector                 'PHOTON-II CPAD'
_diffrn_measured_fraction_theta_full 0.992
_diffrn_measured_fraction_theta_max 0.994
_diffrn_measurement_device       'three-circle diffractometer'
_diffrn_measurement_device_type  'Bruker D8 QUEST'
_diffrn_measurement_method       '\ scans'
_diffrn_radiation_monochromator  graphite
_diffrn_radiation_probe          x-ray
_diffrn_radiation_type           MoK\a
_diffrn_radiation_wavelength     0.71073
_diffrn_reflns_av_R_equivalents  0.0533
_diffrn_reflns_Laue_measured_fraction_full 0.992
_diffrn_reflns_Laue_measured_fraction_max 0.994
_diffrn_reflns_limit_h_max       33
_diffrn_reflns_limit_h_min       -33
_diffrn_reflns_limit_k_max       7
_diffrn_reflns_limit_k_min       -7
_diffrn_reflns_limit_l_max       7
_diffrn_reflns_limit_l_min       -7
_diffrn_reflns_number            11879
_diffrn_reflns_point_group_measured_fraction_full 0.994
_diffrn_reflns_point_group_measured_fraction_max 0.996
_diffrn_reflns_theta_full        25.242
_diffrn_reflns_theta_max         28.375
_diffrn_reflns_theta_min         3.269
_diffrn_source                   'sealed x-ray tube'
_exptl_absorpt_coefficient_mu    61.659
_exptl_absorpt_correction_T_max  0.0249
_exptl_absorpt_correction_T_min  0.0029
_exptl_absorpt_correction_type   multi-scan
_exptl_absorpt_process_details
;
SADABS-2016/2 - Bruker AXS area detector scaling and absorption correction
;
_exptl_crystal_colour            colorless
_exptl_crystal_density_diffrn    7.67
_exptl_crystal_density_method    'not measured'
_exptl_crystal_description       sheet
_exptl_crystal_F_000             1468
_exptl_crystal_size_max          0.166
_exptl_crystal_size_mid          0.104
_exptl_crystal_size_min          0.016
_refine_diff_density_max         3.498
_refine_diff_density_min         -2.951
_refine_diff_density_rms         0.821
_refine_ls_abs_structure_details
;
 Refined as an inversion twin.
;
_refine_ls_abs_structure_Flack   0.50(2)
_refine_ls_extinction_coef       0.0020(4)
_refine_ls_extinction_expression Fc^*^=kFc[1+0.001xFc^2^\l^3^/sin(2\q)]^-1/4^
_refine_ls_extinction_method     'SHELXL-2018/1 (Sheldrick 2018)'
_refine_ls_goodness_of_fit_ref   1.14
_refine_ls_hydrogen_treatment    undef
_refine_ls_matrix_type           full
_refine_ls_number_constraints    0
_refine_ls_number_parameters     69
_refine_ls_number_reflns         963
_refine_ls_number_restraints     1
_refine_ls_restrained_S_all      1.14
_refine_ls_R_factor_all          0.0494
_refine_ls_R_factor_gt           0.0492
_refine_ls_shift/su_max          0.005
_refine_ls_shift/su_mean         0.001
_refine_ls_structure_factor_coef Fsqd
_refine_ls_weighting_details
'w=1/[\s^2^(Fo^2^)+(0.0812P)^2^+62.7732P] where P=(Fo^2^+2Fc^2^)/3'
_refine_ls_weighting_scheme      calc
_refine_ls_wR_factor_gt          0.1419
_refine_ls_wR_factor_ref         0.1421
_reflns_number_gt                952
_reflns_number_total             963
_reflns_threshold_expression     'I > 2\s(I)'
_cod_data_source_file            cm1c02203_si_002.cif
_cod_data_source_block           shelx
_cod_database_code               4004024
_shelx_estimated_absorpt_t_min   0.035
_shelx_estimated_absorpt_t_max   0.439
_shelx_res_file
;
TITL kks_201019_Bi_x2_0ma in Cmc2(1)
    kks_201019_Bi_x2_0ma.res
    created by SHELXL-2018/1 at 16:53:56 on 01-Dec-2020
CELL  0.71073  24.9258   5.4638   5.4927   90.000   90.000   90.000
ZERR    2.000   0.0010   0.0002   0.0002    0.000    0.000    0.000
LATT -7
SYMM -X, -Y, 1/2+Z
SYMM X, -Y, 1/2+Z
SYMM -X, Y, Z
SFAC O NA NB BI
UNIT 36 2 8 10
TEMP 25.850
SIZE 0.016 0.104 0.166
L.S. 10
BOND
LIST 4
ACTA
FMAP 2
EXYZ Bi1 Na1
EADP Bi1 Na1
PLAN 20
TWIN
WGHT    0.081200   62.773197
EXTI    0.001985
BASF   0.50077
FVAR       0.04407
NB1   3    0.415235    0.248680    0.736963    11.00000    0.01894    0.02656 =
         0.01860    0.00157   -0.00048   -0.00111
BI1   4    0.500000    0.238300    0.272708    10.25000    0.01737    0.03003 =
         0.02594    0.00444    0.00000    0.00000
NA1   2    0.500000    0.238300    0.272708    10.25000    0.01737    0.03003 =
         0.02594    0.00444    0.00000    0.00000
BI2   4    0.300379    0.270525    0.274444    11.00000    0.02524    0.02770 =
         0.03609   -0.00694    0.00488    0.00348
O1    1    0.414220    0.041666    0.411042    11.00000    0.01436    0.03348 =
         0.03789   -0.00497   -0.00405    0.00253
O2    1    0.431317    0.530850    0.488942    11.00000    0.02916    0.01560 =
         0.03056    0.01349    0.00031    0.00881
O3    1    0.500000    0.183749    0.691704    10.50000    0.01989    0.03415 =
         0.04388   -0.00238    0.00000    0.00000
O4    1    0.249717    0.507150    0.504331    11.00000    0.00967    0.01754 =
         0.04104   -0.00180    0.00233    0.00172
O5    1    0.341113    0.310269    0.710140    11.00000    0.01624    0.02749 =
         0.05296   -0.00477    0.00068    0.00426
HKLF 4




REM  kks_201019_Bi_x2_0ma in Cmc2(1)
REM R1 =  0.0492 for     952 Fo > 4sig(Fo)  and  0.0494 for all     963 data
REM     69 parameters refined using      1 restraints

END

WGHT      0.0841     45.0848

REM Highest difference peak  3.498,  deepest hole -2.951,  1-sigma level  0.821
Q1    1   0.5000  0.3667  0.2506  10.50000  0.05    3.50
Q2    1   0.3009  0.3495  0.1285  11.00000  0.05    3.02
Q3    1   0.3012  0.3793  0.3995  11.00000  0.05    3.00
Q4    1   0.3015  0.4123  0.2814  11.00000  0.05    2.99
Q5    1   0.3014  0.1497  0.1874  11.00000  0.05    2.69
Q6    1   0.3291  0.2742  0.2780  11.00000  0.05    2.62
Q7    1   0.3005  0.1289  0.3107  11.00000  0.05    2.61
Q8    1   0.4290 -0.0221  0.5380  11.00000  0.05    2.23
Q9    1   0.4265  0.4013  0.4967  11.00000  0.05    2.05
Q10   1   0.4210  0.3902  0.6053  11.00000  0.05    2.00
Q11   1   0.2002  0.6078  0.5380  11.00000  0.05    1.97
Q12   1   0.5000  0.1489  0.2423  10.50000  0.05    1.95
Q13   1   0.2987  0.3952  0.5583  11.00000  0.05    1.95
Q14   1   0.5000  0.2177  0.4250  10.50000  0.05    1.94
Q15   1   0.4234  0.6328  0.5044  11.00000  0.05    1.92
Q16   1   0.4198  0.1461  0.8917  11.00000  0.05    1.92
Q17   1   0.5000  0.1481  0.4079  10.50000  0.05    1.91
Q18   1   0.2501  0.3845  0.5264  11.00000  0.05    1.89
Q19   1   0.2485  0.6236  0.5088  11.00000  0.05    1.88
Q20   1   0.2980  0.5902  0.4848  11.00000  0.05    1.88
;
_shelx_res_checksum              63636
_shelx_hkl_file
;
   1   1   0    0.54    0.27
   1   1   0    0.67    0.08
   1   1   0    0.46    0.08
   1   1   0    0.78    0.12
   1   1   0    0.66    0.10
   1   1   0    0.75    0.08
   1   1   0    0.82    0.14
  -1  -1   0    0.31    0.28
  -1  -1   0    0.83    0.14
  -1  -1   0    0.68    0.09
  -1  -1   0    0.52    0.52
  -1  -1   0    0.58    0.10
  -1  -1   0    0.58    0.09
  -1  -1   0    0.80    0.12
  -1  -1   0    0.55    0.09
   2   2   0   37.75    2.42
   2   2   0   38.48    2.43
   2   2   0   37.53    2.41
   2   2   0   41.49    2.41
   2   2   0   38.24    2.40
  -2  -2   0   38.23    2.44
  -2  -2   0   38.74    2.43
  -2  -2   0   37.60    2.41
  -2  -2   0   38.29    2.40
  -2  -2   0   37.86    2.42
  -2  -2   0   34.44    2.42
   3   3   0   82.53    4.93
   3   3   0   81.89    4.95
   3   3   0   81.35    4.96
   3   3   0   79.91    4.96
   3   3   0   82.71    4.93
  -3  -3   0   81.26    4.99
  -3  -3   0   66.63    5.05
  -3  -3   0   73.92    4.94
  -3  -3   0   71.36    5.12
  -3  -3   0   81.39    4.97
   4   4   0   23.74    1.42
   4   4   0   22.84    1.44
   4   4   0   22.69    1.47
   4   4   0   22.49    1.42
  -4  -4   0   23.60    1.51
  -4  -4   0   19.97    1.62
  -4  -4   0   19.54    1.43
  -4  -4   0   23.20    1.49
   5   5   0   28.57    1.72
   5   5   0   28.27    1.74
   5   5   0   27.87    1.77
  -5  -5   0   22.88    1.73
  -5  -5   0   27.82    1.81
  -5  -5   0   28.50    1.79
  -5  -5   0   25.95    1.88
   6   6   0    3.76    0.29
   6   6   0    3.49    0.26
   6   6   0    3.34    0.35
  -6  -6   0    3.14    0.42
  -6  -6   0    2.91    0.52
  -6  -6   0    3.92    0.40
   7   7   0   16.78    1.11
  -7  -7   0   14.92    1.18
  -7  -7   0   16.34    1.12
  -7  -7  -1    3.37    0.41
  -7  -7  -1    2.47    0.40
  -7  -7  -1    2.22    0.42
   7   7   1    2.28    0.24
   7   7   1    2.23    0.31
   7   7   1    2.60    0.21
  -6  -6  -1    1.29    0.49
  -6  -6  -1    1.31    0.40
  -6  -6  -1    1.38    0.31
   6   6   1    1.56    0.17
   6   6   1    1.71    0.28
   6   6   1    1.57    0.20
  -5  -5  -1  196.87   12.36
  -5  -5  -1  198.22   12.32
  -5  -5  -1  194.69   12.33
   5   5   1  195.18   12.26
   5   5   1  192.99   12.30
   5   5   1  193.19   12.29
  -4  -4  -1    1.53    0.22
  -4  -4  -1    2.14    0.38
  -4  -4  -1    2.21    0.52
   4   4   1    1.56    0.21
   4   4   1    1.50    0.19
   4   4   1    1.83    0.29
  -3  -3  -1   57.01    3.77
  -3  -3  -1   58.17    3.70
  -3  -3  -1   55.98    3.65
  -3  -3  -1   58.29    3.71
   3   3   1   57.35    3.67
   3   3   1   57.16    3.65
   3   3   1   59.26    3.64
   3   3   1   52.61    3.65
   3   3   1   62.03    3.63
   3   3   1   58.38    3.68
  -2  -2  -1   21.44    1.49
  -2  -2  -1   22.80    1.42
  -2  -2  -1   21.04    1.57
  -2  -2  -1   21.17    1.49
  -2  -2  -1   22.09    1.42
  -2  -2  -1   22.17    1.42
   2   2   1   22.90    1.42
   2   2   1   22.48    1.42
   2   2   1   22.61    1.45
   2   2   1   24.12    1.41
   2   2   1   21.48    1.48
   2   2   1   23.12    1.44
   2   2   1   20.64    1.44
  -1  -1  -1   19.85    1.35
  -1  -1  -1   20.28    1.36
  -1  -1  -1   20.77    1.47
  -1  -1  -1   22.35    1.38
  -1  -1  -1   20.50    1.36
   1   1   1   21.83    1.57
   1   1   1   20.12    1.36
   1   1   1   24.34    1.43
   1   1   1   22.27    1.50
   1   1   1   21.05    1.44
   1   1   1   21.94    1.35
   0   0  -1    5.74    0.68
   0   0  -1    6.48    0.52
   1   1  -1   21.92    1.41
   1   1  -1   21.85    1.41
   1   1  -1   21.76    1.39
   1   1  -1   26.74    1.79
   1   1  -1   21.68    1.41
   1   1  -1   21.51    1.43
  -1  -1   1   22.99    1.51
  -1  -1   1   23.09    1.42
  -1  -1   1   22.74    1.43
  -1  -1   1   20.12    1.43
  -1  -1   1   22.66    1.40
  -1  -1   1   20.21    1.42
  -1  -1   1   22.14    1.42
   2   2  -1   24.08    1.46
   2   2  -1   23.86    1.51
   2   2  -1   19.25    1.60
   2   2  -1   22.45    1.46
   2   2  -1   24.00    1.48
   2   2  -1   22.67    1.48
  -2  -2   1   22.09    1.48
  -2  -2   1   22.00    1.55
  -2  -2   1   23.56    1.48
  -2  -2   1   22.88    1.46
  -2  -2   1   23.56    1.49
  -2  -2   1   22.83    1.47
  -2  -2   1   24.19    1.52
   3   3  -1   58.75    3.65
   3   3  -1   52.17    3.71
   3   3  -1   58.08    3.67
   3   3  -1   59.82    3.64
  -3  -3   1   57.75    3.65
  -3  -3   1   55.61    3.73
  -3  -3   1   58.60    3.65
  -3  -3   1   58.58    3.68
  -3  -3   1   60.11    3.67
   4   4  -1    1.92    0.19
   4   4  -1    1.83    0.20
   4   4  -1    1.87    0.59
   4   4  -1    1.89    0.25
  -4  -4   1    1.44    0.58
  -4  -4   1    1.85    0.23
  -4  -4   1    2.21    0.31
  -4  -4   1    1.81    0.27
   5   5  -1  157.45   11.82
   5   5  -1  191.97   11.69
   5   5  -1  192.65   11.71
   5   5  -1  192.71   11.74
  -5  -5   1  195.09   11.74
  -5  -5   1  197.81   11.74
  -5  -5   1  181.57   11.82
  -5  -5   1  179.04   11.71
   6   6  -1    1.51    0.19
   6   6  -1    1.56    0.23
  -6  -6   1    1.43    0.28
  -6  -6   1    1.51    0.24
  -6  -6   1    1.24    0.41
  -6  -6   1    1.47    0.22
   7   7  -1    2.21    0.24
   7   7  -1    2.41    0.43
  -7  -7   1    2.51    0.42
  -7  -7   1    2.22    0.43
  -6  -6  -2    6.88    0.65
  -6  -6  -2    7.07    0.63
   6   6   2    6.53    0.48
   6   6   2    6.62    0.47
  -5  -5  -2   22.24    1.59
  -5  -5  -2   22.26    1.60
   5   5   2   22.40    1.50
   5   5   2   22.90    1.46
   5   5   2   23.78    1.53
  -4  -4  -2   11.32    0.95
  -4  -4  -2   10.43    0.98
  -4  -4  -2   11.64    1.02
   4   4   2   12.00    0.77
   4   4   2   11.49    0.74
   4   4   2   11.76    0.77
  -3  -3  -2   41.95    2.74
  -3  -3  -2   41.02    2.78
  -3  -3  -2   40.34    2.63
   3   3   2   42.68    2.70
   3   3   2   43.62    2.62
   3   3   2   37.27    2.65
   3   3   2   43.23    2.63
  -2  -2  -2   40.12    2.51
  -2  -2  -2   40.13    2.60
  -2  -2  -2   39.51    2.51
  -2  -2  -2   39.45    2.52
  -2  -2  -2   38.70    2.65
  -2  -2  -2   36.77    2.51
  -2  -2  -2   39.87    2.63
   2   2   2   44.68    2.62
   2   2   2   41.21    2.51
   2   2   2   37.85    2.56
   2   2   2   39.28    2.51
   2   2   2   40.84    2.50
   2   2   2   37.00    2.58
   2   2   2   39.36    2.73
  -1  -1  -2    0.38    0.38
  -1  -1  -2    0.73    0.09
  -1  -1  -2    1.32    0.48
  -1  -1  -2    0.45    0.42
  -1  -1  -2    0.58    0.10
  -1  -1  -2    1.06    0.31
  -1  -1  -2    0.69    0.12
   1   1   2    0.58    0.11
   1   1   2    0.83    0.31
   1   1   2    0.15    0.32
   1   1   2    0.75    0.42
   1   1   2    0.59    0.11
   1   1   2    1.02    0.30
   1   1   2    0.63    0.10
   0   0  -2  401.18   25.31
   1   1  -2    0.66    0.10
   1   1  -2    1.24    0.15
   1   1  -2    0.35    0.35
   1   1  -2    1.06    0.25
   1   1  -2    0.60    0.11
   1   1  -2    0.87    0.19
  -1  -1   2    0.70    0.32
  -1  -1   2    0.60    0.35
  -1  -1   2    0.69    0.10
  -1  -1   2    0.26    0.26
  -1  -1   2    1.14    0.17
  -1  -1   2    0.80    0.13
  -1  -1   2    0.97    0.22
   2   2  -2   40.65    2.60
   2   2  -2   41.38    2.58
   2   2  -2   41.59    2.61
   2   2  -2   41.33    2.57
   2   2  -2   40.44    2.74
  -2  -2   2   41.83    2.68
  -2  -2   2   39.85    2.67
  -2  -2   2   42.52    2.60
  -2  -2   2   40.07    2.60
  -2  -2   2   38.03    2.61
  -2  -2   2   40.29    2.61
  -2  -2   2   41.30    2.58
  -2  -2   2   40.67    2.59
   3   3  -2   42.24    2.64
   3   3  -2   43.27    2.64
   3   3  -2   36.42    2.82
   3   3  -2   41.52    2.67
  -3  -3   2   42.79    2.67
  -3  -3   2   40.13    2.65
  -3  -3   2   43.01    2.67
  -3  -3   2   43.32    2.65
   4   4  -2    9.75    1.13
   4   4  -2   11.95    0.78
   4   4  -2   11.68    0.83
  -4  -4   2   12.65    0.84
  -4  -4   2   11.72    0.83
  -4  -4   2   11.60    0.79
   5   5  -2   20.39    1.68
   5   5  -2   22.44    1.48
   5   5  -2   23.64    1.44
  -5  -5   2   21.53    1.53
  -5  -5   2   22.28    1.48
  -5  -5   2   23.12    1.45
   6   6  -2    7.08    0.47
   6   6  -2    6.01    0.52
  -6  -6   2    6.76    0.53
  -6  -6   2    6.47    0.55
  -6  -6   2    6.91    0.51
  -6  -6  -3    0.46    0.32
  -6  -6  -3    0.14    0.33
  -6  -6  -3    0.62    0.28
   6   6   3    0.13    0.51
   6   6   3    0.24    0.11
   6   6   3    0.20    0.11
  -5  -5  -3  117.70    8.04
  -5  -5  -3  129.25    8.06
  -5  -5  -3  133.86    8.01
  -5  -5  -3  127.32    8.05
   5   5   3  130.20    8.04
   5   5   3  124.41    7.95
   5   5   3  121.96    7.96
  -4  -4  -3    1.27    0.38
  -4  -4  -3    1.55    0.40
  -4  -4  -3    2.37    0.49
  -4  -4  -3    1.82    0.43
   4   4   3    1.24    0.17
   4   4   3    1.43    0.26
   4   4   3    1.23    0.15
   4   4   3    1.26    0.16
   4   4   3    1.24    0.39
  -3  -3  -3   31.70    2.21
  -3  -3  -3   31.34    2.21
  -3  -3  -3   30.72    2.03
  -3  -3  -3   29.37    2.04
  -3  -3  -3   31.86    2.21
   3   3   3   32.86    2.01
   3   3   3   34.37    2.19
   3   3   3   31.70    2.02
   3   3   3   31.68    2.04
   3   3   3   30.94    2.06
   3   3   3   32.60    2.03
  -2  -2  -3   10.43    1.00
  -2  -2  -3   10.61    0.75
  -2  -2  -3   10.41    1.05
  -2  -2  -3    9.87    0.78
  -2  -2  -3   11.11    0.72
  -2  -2  -3   10.60    0.73
   2   2   3   10.83    0.71
   2   2   3   10.80    0.72
   2   2   3   11.25    0.71
   2   2   3   10.41    0.90
  -1  -1  -3   47.20    3.27
  -1  -1  -3   48.92    3.11
  -1  -1  -3   46.45    3.01
  -1  -1  -3   47.07    3.13
  -1  -1  -3   46.62    3.15
  -1  -1  -3   53.59    3.04
   1   1   3   41.37    3.12
   1   1   3   49.53    3.03
   1   1   3   50.22    3.03
   1   1   3   43.79    3.12
   1   1   3   49.29    3.02
   0   0  -3    0.15    0.23
   0   0  -3    0.29    0.11
   0   0  -3    0.72    0.41
   0   0  -3    0.53    0.12
   0   0  -3    0.34    0.21
   0   0  -3    0.45    0.08
   0   0  -3   -0.26    0.55
   0   0   3    0.89    0.14
   0   0   3    0.55    0.15
   0   0   3    1.20    0.46
   0   0   3    0.40    0.11
   0   0   3    0.70    0.44
   0   0   3    0.27    0.11
   0   0   3    0.73    0.19
   1   1  -3   49.62    3.20
   1   1  -3   50.37    3.11
   1   1  -3   47.82    3.26
   1   1  -3   53.01    3.13
   1   1  -3   45.81    3.14
  -1  -1   3   49.71    3.12
  -1  -1   3   51.84    3.12
  -1  -1   3   49.34    3.11
  -1  -1   3   44.40    3.36
   2   2  -3   11.54    0.73
   2   2  -3   11.93    1.04
   2   2  -3   11.35    0.74
   2   2  -3   11.13    0.80
   2   2  -3   11.00    0.81
  -2  -2   3   11.21    0.80
  -2  -2   3   10.69    0.76
  -2  -2   3   11.84    0.78
  -2  -2   3   10.72    0.73
   3   3  -3   31.32    2.31
   3   3  -3   31.59    2.11
   3   3  -3   33.11    2.07
  -3  -3   3   33.18    2.09
  -3  -3   3   33.70    2.11
   4   4  -3    1.43    0.23
   4   4  -3    1.11    0.50
   4   4  -3    1.77    0.20
  -4  -4   3    1.53    0.24
  -4  -4   3    1.43    0.23
  -4  -4   3    1.45    0.18
   5   5  -3  125.04    7.61
   5   5  -3  117.54    7.65
   5   5  -3  119.64    7.81
  -5  -5   3  118.59    7.64
  -5  -5   3  120.68    7.62
  -5  -5   3  124.24    7.64
   6   6  -3    0.13    0.16
   6   6  -3    0.41    0.11
   6   6  -3    0.28    0.40
  -6  -6   3    1.03    0.42
  -6  -6   3    0.42    0.13
  -6  -6   3    0.14    0.20
  -6  -6   3    0.19    0.17
  -5  -5  -4   10.90    0.83
  -5  -5  -4   12.30    0.95
  -5  -5  -4   11.15    0.92
   5   5   4   10.66    0.72
   5   5   4   11.10    0.75
   5   5   4   11.26    0.75
  -4  -4  -4   15.82    1.23
  -4  -4  -4   15.52    1.18
  -4  -4  -4   16.65    1.23
   4   4   4   14.78    0.98
   4   4   4   14.46    1.02
   4   4   4   14.90    0.99
  -3  -3  -4   15.63    1.28
  -3  -3  -4   14.42    1.19
  -3  -3  -4   12.72    1.22
  -3  -3  -4   14.83    1.02
   3   3   4   15.25    0.98
   3   3   4   15.15    1.03
   3   3   4   15.76    0.99
  -2  -2  -4   18.08    1.26
  -2  -2  -4   17.66    1.39
  -2  -2  -4   17.67    1.44
  -2  -2  -4   19.97    1.22
  -2  -2  -4   17.16    1.62
   2   2   4   20.17    1.21
   2   2   4   18.85    1.19
   2   2   4   18.42    1.20
   2   2   4   18.79    1.20
   2   2   4   14.74    1.38
  -1  -1  -4    1.98    0.51
  -1  -1  -4    2.57    0.41
  -1  -1  -4    1.92    0.55
  -1  -1  -4    0.62    1.02
   1   1   4    1.61    0.24
   1   1   4    1.86    0.24
   1   1   4    2.37    0.24
   1   1   4    1.77    0.24
   1   1   4    1.68    0.35
   1   1   4    1.56    0.52
   0   0  -4  508.28   29.44
   0   0  -4  506.22   29.57
   0   0  -4  438.94   29.40
   0   0  -4  404.60   29.55
   0   0  -4  499.83   29.39
   0   0   4  438.95   29.43
   0   0   4  482.96   29.43
   1   1  -4    2.15    0.17
   1   1  -4    2.52    0.32
   1   1  -4    2.08    0.56
   1   1  -4    2.69    0.46
  -1  -1   4    1.89    0.23
  -1  -1   4    1.49    0.22
  -1  -1   4    2.46    0.27
   2   2  -4   18.37    1.21
   2   2  -4   18.86    1.26
   2   2  -4   18.79    1.19
   2   2  -4   18.20    1.49
   2   2  -4   18.00    1.19
   2   2  -4   18.53    1.33
  -2  -2   4   17.87    1.19
  -2  -2   4   19.69    1.23
  -2  -2   4   18.61    1.22
   3   3  -4   15.55    0.98
   3   3  -4   14.94    1.04
   3   3  -4   14.50    1.27
   3   3  -4   16.15    0.99
  -3  -3   4   15.67    1.04
  -3  -3   4   14.43    1.01
  -3  -3   4   15.86    1.03
  -3  -3   4   15.21    1.02
   4   4  -4   14.85    1.02
   4   4  -4   13.27    1.23
   4   4  -4   16.19    0.97
  -4  -4   4   15.22    1.01
  -4  -4   4   14.25    1.00
  -4  -4   4   14.68    0.98
   5   5  -4   11.58    0.71
   5   5  -4    9.08    0.98
   5   5  -4   10.85    0.77
  -5  -5   4   10.91    0.76
  -5  -5   4   10.36    0.76
  -5  -5   4   10.81    0.73
  -5  -5  -5   43.18    2.84
  -5  -5  -5   40.93    2.74
  -5  -5  -5   44.22    2.83
   5   5   5   42.81    2.74
   5   5   5   45.42    2.77
   5   5   5   41.39    2.71
  -4  -4  -5    0.49    0.45
  -4  -4  -5   -0.24    0.36
  -4  -4  -5    0.36    0.14
  -4  -4  -5    0.45    0.36
   4   4   5    0.09    0.12
   4   4   5    0.04    0.11
  -3  -3  -5   11.63    0.97
  -3  -3  -5   10.50    0.88
  -3  -3  -5   11.35    0.75
   3   3   5   10.61    0.73
   3   3   5   10.82    0.74
   3   3   5   10.67    0.74
   3   3   5   11.20    0.74
  -2  -2  -5    5.76    0.75
  -2  -2  -5    5.24    0.66
  -2  -2  -5    5.34    0.93
   2   2   5    5.89    0.43
   2   2   5    6.26    0.42
   2   2   5    5.80    0.43
   2   2   5    5.50    0.43
  -1  -1  -5   33.40    2.27
  -1  -1  -5   34.00    2.39
  -1  -1  -5   33.09    2.21
   1   1   5   35.83    2.23
   1   1   5   36.41    2.22
   1   1   5   35.00    2.24
   1   1   5   36.26    2.23
   0   0  -5    0.28    0.42
   0   0  -5   -0.15    0.21
   0   0  -5    0.10    0.33
   0   0  -5   -0.26    0.51
   0   0   5   -0.01    0.13
   0   0   5    0.01    0.12
   0   0   5    0.00    0.11
   1   1  -5   34.36    2.48
   1   1  -5   37.33    2.42
   1   1  -5   35.72    2.32
  -1  -1   5   36.77    2.30
  -1  -1   5   35.53    2.30
  -1  -1   5   35.98    2.29
   2   2  -5    6.06    0.78
   2   2  -5    6.07    0.50
   2   2  -5    5.56    0.52
  -2  -2   5    6.00    0.45
  -2  -2   5    6.12    0.46
  -2  -2   5    5.69    0.51
  -2  -2   5    5.52    0.41
   3   3  -5   10.74    0.78
   3   3  -5   12.01    0.72
   3   3  -5   10.54    1.04
   3   3  -5   11.84    0.85
  -3  -3   5   11.16    0.76
  -3  -3   5   10.88    0.79
  -3  -3   5   10.92    0.85
  -3  -3   5   10.71    0.75
   4   4  -5    0.46    0.17
   4   4  -5    0.17    0.43
  -4  -4   5    0.01    0.16
  -4  -4   5    0.18    0.12
  -4  -4   5    0.12    0.17
   5   5  -5   33.12    2.70
   5   5  -5   40.44    2.66
   5   5  -5   42.74    2.49
  -5  -5   5   38.95    2.53
  -5  -5   5   39.47    2.52
  -5  -5   5   40.91    2.57
  -4  -4  -6    9.91    1.06
  -4  -4  -6    7.22    0.66
  -4  -4  -6    8.80    0.80
   4   4   6    8.63    0.59
   4   4   6    8.24    0.58
   4   4   6    8.30    0.58
  -3  -3  -6    4.15    0.43
  -3  -3  -6    4.57    0.81
  -3  -3  -6    4.33    0.62
   3   3   6    4.56    0.35
   3   3   6    4.04    0.34
   3   3   6    3.93    0.32
   3   3   6    4.20    0.34
  -2  -2  -6   11.05    0.97
  -2  -2  -6    8.93    1.23
  -2  -2  -6   10.94    0.79
   2   2   6   11.32    0.73
   2   2   6   10.90    0.74
   2   2   6   10.86    0.74
   2   2   6   11.08    0.75
  -1  -1  -6    0.64    0.39
  -1  -1  -6    0.96    0.21
  -1  -1  -6    0.88    0.28
  -1  -1  -6    0.74    0.59
   1   1   6    0.61    0.14
   1   1   6    0.41    0.15
   1   1   6    0.22    0.23
   1   1   6    0.63    0.14
   0   0  -6   91.44    6.03
   0   0  -6   93.45    5.89
   0   0  -6   90.37    6.02
   0   0   6   95.11    5.87
   0   0   6   91.91    5.87
   0   0   6   95.60    5.88
   1   1  -6    0.44    0.42
   1   1  -6    1.04    0.21
   1   1  -6    0.99    0.32
  -1  -1   6    0.56    0.15
  -1  -1   6    0.58    0.16
  -1  -1   6    0.54    0.13
   2   2  -6   11.95    0.80
   2   2  -6   10.65    0.82
   2   2  -6   11.66    1.03
  -2  -2   6   11.16    0.76
  -2  -2   6   10.87    0.74
  -2  -2   6   11.22    0.81
  -2  -2   6   10.93    0.77
   3   3  -6    4.73    0.40
   3   3  -6    4.03    0.68
  -3  -3   6    4.09    0.41
  -3  -3   6    4.00    0.38
  -3  -3   6    4.25    0.36
  -3  -3   6    4.39    0.34
   4   4  -6    7.57    0.90
   4   4  -6    7.52    0.69
  -4  -4   6    8.96    0.67
  -4  -4   6    7.27    0.58
  -2  -2  -7    2.08    0.43
  -2  -2  -7    2.52    0.62
  -2  -2  -7    3.22    0.39
   2   2   7    2.23    0.40
   2   2   7    1.90    0.24
   2   2   7    2.12    0.23
   2   2   7    1.58    0.25
  -1  -1  -7   17.42    1.83
  -1  -1  -7   21.76    1.40
  -1  -1  -7   24.39    1.67
   1   1   7   21.81    1.38
   1   1   7   21.14    1.38
   1   1   7   20.37    1.37
   0   0  -7   -0.05    0.36
   0   0  -7    0.48    0.19
   0   0  -7    0.33    0.39
   0   0   7   -0.07    0.12
   0   0   7    0.12    0.11
   0   0   7   -0.01    0.13
   1   1  -7   21.80    1.38
   1   1  -7   21.23    1.46
   1   1  -7   21.44    1.84
  -1  -1   7   19.73    1.34
  -1  -1   7   20.50    1.35
   2   2  -7    2.40    0.29
   2   2  -7    2.08    0.32
   2   2  -7    2.88    0.54
  -2  -2   7    2.09    0.21
  -2  -2   7    2.32    0.32
  -2  -2   7    2.09    0.26
  -2  -2   7    1.47    0.25
   0  -2   7    1.26    0.18
   0  -2   7    0.71    0.19
   0  -2   7    1.32    0.16
   0  -2   7    1.05    0.27
   0   2  -7    0.95    0.26
   0   2  -7    1.20    0.42
   1  -1   7   20.44    1.39
   1  -1   7   21.11    1.38
  -1   1  -7   21.86    1.53
  -1   1  -7   22.27    1.40
   2   0   7   -0.20    0.22
   2   0   7    0.07    0.14
   2   0   7    0.36    0.12
  -2   0  -7    0.53    0.16
  -2   0  -7    0.35    0.39
  -2   0  -7    0.35    0.43
   3   1   7    4.78    0.40
   3   1   7    5.18    0.42
   3   1   7    4.86    0.40
  -3  -1  -7    6.03    0.86
  -3  -1  -7    6.43    1.06
  -3  -1  -7    6.12    0.42
   4   2   7    0.06    0.12
  -4  -2  -7    1.04    0.58
  -4  -2  -7    0.44    0.17
  -4  -2  -7    0.74    0.34
  -2  -4   6    4.98    0.45
  -2  -4   6    5.62    0.45
  -2  -4   6    5.18    0.53
   2   4  -6    5.14    0.43
   2   4  -6    4.48    0.85
  -1  -3   6    0.28    0.17
  -1  -3   6    0.33    0.14
  -1  -3   6    0.29    0.21
  -1  -3   6    0.54    0.12
   1   3  -6    0.70    0.41
   1   3  -6    0.26    0.21
   1   3  -6    0.42    0.16
   0  -2   6   84.42    5.54
   0  -2   6   92.75    5.61
   0  -2   6   89.52    5.56
   0  -2   6   88.49    5.56
   0   2  -6   85.27    5.62
   0   2  -6   87.65    5.73
   1  -1   6    0.65    0.16
   1  -1   6    0.46    0.13
   1  -1   6    0.62    0.16
  -1   1  -6    1.11    0.20
  -1   1  -6    0.68    0.41
  -1   1  -6    0.58    0.37
   2   0   6   13.14    0.89
   2   0   6   12.60    0.89
   2   0   6   13.65    0.90
  -2   0  -6   12.34    1.09
  -2   0  -6   14.27    0.91
  -2   0  -6   14.13    1.21
   3   1   6    0.86    0.16
   3   1   6    0.72    0.16
   3   1   6    0.66    0.22
   3   1   6    1.03    0.15
  -3  -1  -6    1.35    0.26
  -3  -1  -6    1.04    0.19
  -3  -1  -6    1.13    0.39
   4   2   6   18.22    1.15
   4   2   6   17.20    1.14
   4   2   6   17.44    1.14
   4   2   6   17.91    1.14
  -4  -2  -6   18.04    1.15
  -4  -2  -6   16.32    1.57
  -4  -2  -6   16.01    1.29
   5   3   6    2.64    0.27
   5   3   6    3.05    0.28
   5   3   6    2.72    0.28
   5   3   6    2.75    0.27
  -5  -3  -6    4.06    0.53
  -5  -3  -6    3.28    0.32
  -5  -3  -6    3.31    0.72
   6   4   6   13.68    0.89
   6   4   6   13.45    0.89
   6   4   6   13.15    0.88
   6   4   6   12.56    0.90
  -6  -4  -6   14.21    1.04
  -3  -5   5    3.52    0.38
  -3  -5   5    4.02    0.34
   3   5  -5    3.89    0.40
   3   5  -5    3.97    0.66
   3   5  -5    4.82    0.30
  -2  -4   5   11.62    0.77
  -2  -4   5   11.18    0.79
   2   4  -5   12.09    0.73
   2   4  -5    9.80    1.03
   2   4  -5   11.05    0.79
  -1  -3   5   27.10    1.75
  -1  -3   5   25.90    1.70
  -1  -3   5   28.24    1.75
  -1  -3   5   27.55    1.72
   1   3  -5   25.20    1.91
   1   3  -5   25.21    1.68
   1   3  -5   26.49    1.73
   1   3  -5   26.73    1.76
   0  -2   5    3.26    0.43
   0  -2   5    3.17    0.31
   0  -2   5    3.25    0.31
   0  -2   5    3.09    0.34
   0   2  -5    3.67    0.44
   0   2  -5    3.25    0.58
   0   2  -5    3.21    0.34
   1  -1   5   35.07    2.28
   1  -1   5   35.53    2.26
   1  -1   5   36.33    2.28
  -1   1  -5   33.57    2.44
  -1   1  -5   36.49    2.29
  -1   1  -5   36.38    2.43
   2   0   5    0.06    0.14
   2   0   5   -0.07    0.12
   2   0   5    0.15    0.14
  -2   0  -5   -0.05    0.37
  -2   0  -5    0.35    0.56
  -2   0  -5   -0.15    0.22
   3   1   5   20.60    1.29
   3   1   5   20.19    1.29
   3   1   5   20.14    1.29
   3   1   5   18.88    1.29
  -3  -1  -5   20.36    1.31
  -3  -1  -5   18.42    1.74
  -3  -1  -5   20.10    1.46
  -3  -1  -5   18.98    1.26
   4   2   5    0.19    0.11
   4   2   5    0.17    0.13
   4   2   5   -0.05    0.13
   4   2   5    0.14    0.14
  -4  -2  -5    0.61    0.65
  -4  -2  -5    0.10    0.37
  -4  -2  -5    0.17    0.22
  -4  -2  -5    0.45    0.16
   5   3   5  113.56    7.17
   5   3   5  113.95    7.17
   5   3   5  113.74    7.17
   5   3   5  116.70    7.18
  -5  -3  -5  113.80    7.18
  -5  -3  -5  111.14    7.38
  -5  -3  -5  111.09    7.19
  -5  -3  -5  116.34    7.36
   6   4   5    0.64    0.14
   6   4   5    0.58    0.13
   6   4   5    0.64    0.13
  -6  -4  -5    0.47    0.33
  -6  -4  -5    1.67    0.50
  -6  -4  -5    0.75    0.18
  -6  -4  -5   -0.42    0.30
   7   5   5    4.17    0.34
   7   5   5    4.62    0.44
   7   5   5    4.58    0.36
  -7  -5  -5    4.52    0.52
  -7  -5  -5    5.59    0.69
  -7  -5  -5    5.38    0.55
  -4  -6   4    3.19    0.37
  -4  -6   4    4.05    0.32
  -4  -6   4    3.77    0.37
   4   6  -4    2.84    0.60
   4   6  -4    3.73    0.36
   4   6  -4    4.76    0.31
  -3  -5   4   16.89    1.09
  -3  -5   4   15.96    1.09
   3   5  -4   16.21    1.09
   3   5  -4   13.62    1.30
   3   5  -4   17.20    1.04
  -2  -4   4   10.46    0.74
  -2  -4   4   10.10    0.71
  -2  -4   4   10.02    0.75
   2   4  -4   10.32    0.81
   2   4  -4   11.35    0.68
   2   4  -4    9.66    1.01
  -1  -3   4    0.59    0.22
  -1  -3   4   -0.33    0.26
  -1  -3   4    0.11    0.17
  -1  -3   4    0.09    0.14
   1   3  -4    0.34    0.09
   1   3  -4    0.31    0.17
   1   3  -4    0.37    0.22
   1   3  -4    0.21    0.44
   0  -2   4  307.77   19.50
   0  -2   4  311.97   19.57
   0  -2   4  318.73   19.55
   0   2  -4  294.10   19.60
   0   2  -4  308.76   19.69
   0   2  -4  325.64   19.50
   0   2  -4  310.01   19.55
   1  -1   4    1.88    0.20
   1  -1   4    2.64    0.30
   1  -1   4    1.92    0.27
  -1   1  -4    2.10    0.27
  -1   1  -4    1.82    0.23
  -1   1  -4    1.84    0.52
  -1   1  -4    2.22    0.57
   2   0   4   38.92    2.37
   2   0   4   39.02    2.37
   2   0   4   37.41    2.37
  -2   0  -4   37.11    2.38
  -2   0  -4   35.71    2.51
  -2   0  -4   36.13    2.33
  -2   0  -4   32.75    3.16
   3   1   4    2.53    0.27
   3   1   4    2.08    0.26
   3   1   4    2.74    0.28
   3   1   4    2.16    0.23
   3   1   4    1.70    0.40
  -3  -1  -4    2.41    0.33
  -3  -1  -4    2.48    0.20
  -3  -1  -4    2.43    0.29
  -3  -1  -4    2.61    0.54
  -3  -1  -4    2.18    0.92
   4   2   4   22.45    1.38
   4   2   4   20.19    2.05
   4   2   4   22.33    1.40
   4   2   4   22.86    1.39
  -4  -2  -4   22.04    1.43
  -4  -2  -4   21.16    1.57
  -4  -2  -4   21.50    1.49
  -4  -2  -4   18.46    1.42
  -4  -2  -4   21.09    1.78
   5   3   4   12.87    0.84
   5   3   4   12.93    0.83
   5   3   4   13.35    0.85
  -5  -3  -4   12.51    0.85
  -5  -3  -4   10.85    1.01
  -5  -3  -4   12.57    0.91
  -5  -3  -4   12.46    1.03
  -5  -3  -4   12.85    1.15
   6   4   4   19.71    1.28
   6   4   4   19.36    1.27
   6   4   4   19.29    1.26
  -6  -4  -4   19.26    1.35
  -6  -4  -4   20.42    1.57
  -6  -4  -4   19.58    1.41
  -6  -4  -4   20.32    1.47
   7   5   4   13.70    0.91
   7   5   4   13.53    0.91
  -7  -5  -4   13.92    1.01
  -7  -5  -4   13.84    1.04
  -7  -5  -4   13.85    1.09
  -4  -6   3    0.51    0.13
  -4  -6   3    1.12    0.46
  -4  -6   3    0.02    0.19
  -4  -6   3    0.27    0.18
   4   6  -3    0.38    0.10
   4   6  -3    0.47    0.16
   4   6  -3    0.23    0.43
  -3  -5   3    8.81    0.62
  -3  -5   3    9.11    0.67
  -3  -5   3    8.58    0.67
   3   5  -3    9.27    0.96
   3   5  -3    9.47    0.66
   3   5  -3    9.46    0.61
  -2  -4   3   27.12    1.75
  -2  -4   3   27.41    1.74
  -2  -4   3   26.09    1.71
   2   4  -3   27.99    1.70
   2   4  -3   27.52    1.74
   2   4  -3   23.01    1.92
  -1  -3   3   23.41    1.39
  -1  -3   3   17.42    1.39
  -1  -3   3   21.63    1.41
  -1  -3   3   21.19    1.37
   1   3  -3   21.45    1.39
   1   3  -3   20.55    1.60
   1   3  -3   21.30    1.35
   0  -2   3   16.14    1.02
   0  -2   3   12.68    1.19
   0  -2   3   14.84    1.04
   0  -2   3   14.71    0.97
   0  -2   3   14.72    0.95
   0   2  -3   14.72    1.00
   0   2  -3   14.95    0.94
   0   2  -3   14.87    0.94
   0   2  -3   13.77    1.29
   0   2  -3   15.02    1.05
   1  -1   3   49.92    3.14
   1  -1   3   49.16    3.12
   1  -1   3   48.55    3.16
   1  -1   3   49.89    3.14
  -1   1  -3   49.78    3.15
  -1   1  -3   45.17    3.12
  -1   1  -3   50.22    3.26
  -1   1  -3   53.66    3.15
   2   0   3    0.34    0.41
   2   0   3    0.03    0.11
   2   0   3    0.21    0.13
   2   0   3    0.29    0.15
   2   0   3    0.21    0.51
   2   0   3    0.25    0.13
   2   0   3    0.28    0.12
  -2   0  -3   -0.01    0.37
  -2   0  -3    0.17    0.06
  -2   0  -3   -0.10    0.11
  -2   0  -3   -0.07    0.10
  -2   0  -3   -0.12    0.18
  -2   0  -3   -0.65    0.58
   3   1   3   52.78    3.68
   3   1   3   57.43    3.62
   3   1   3   61.66    3.63
   3   1   3   53.31    3.79
   3   1   3   56.61    3.65
   3   1   3   58.44    3.63
  -3  -1  -3   57.51    3.74
  -3  -1  -3   56.33    3.61
  -3  -1  -3   56.21    3.87
  -3  -1  -3   58.70    3.66
  -3  -1  -3   58.97    3.65
  -3  -1  -3   58.84    3.63
  -3  -1  -3   58.34    3.69
   4   2   3    0.33    0.11
   4   2   3    0.48    0.12
   4   2   3    0.10    0.13
  -4  -2  -3    0.26    0.13
  -4  -2  -3    0.35    0.12
  -4  -2  -3    0.16    0.27
  -4  -2  -3    0.11    0.43
  -4  -2  -3    0.38    0.14
  -4  -2  -3    1.12    0.51
  -4  -2  -3    0.17    0.52
   5   3   3  331.76   20.15
   5   3   3  329.77   20.08
   5   3   3  324.70   20.08
   5   3   3  338.12   20.07
   5   3   3  325.19   20.16
   5   3   3  284.93   20.08
  -5  -3  -3  312.35   20.05
  -5  -3  -3  337.19   20.17
  -5  -3  -3  339.45   20.19
  -5  -3  -3  266.80   20.08
  -5  -3  -3  326.74   20.13
   6   4   3    1.81    0.23
   6   4   3    1.97    0.19
   6   4   3    2.03    0.29
   6   4   3    1.91    0.22
   6   4   3    2.20    0.41
  -6  -4  -3    2.34    0.44
  -6  -4  -3    2.63    0.40
  -6  -4  -3    2.27    0.43
  -6  -4  -3    2.20    0.44
   7   5   3    8.75    0.76
   7   5   3    8.44    0.57
   7   5   3    8.52    0.60
  -7  -5  -3    8.58    0.77
  -7  -5  -3    8.56    0.76
  -7  -5  -3    9.53    0.73
  -7  -5  -3    9.44    0.78
   8   6   3   20.26    1.45
   8   6   3   19.95    1.34
   8   6   3   19.89    1.34
  -8  -6  -3   23.67    1.43
  -8  -6  -3   22.09    1.47
  -8  -6  -3   20.08    1.46
  -8  -6  -3   19.19    1.43
  -4  -6   2    4.94    0.40
  -4  -6   2    5.20    0.44
  -4  -6   2    4.71    0.46
  -4  -6   2    5.46    0.75
   4   6  -2    4.99    0.42
   4   6  -2    5.17    0.37
  -3  -5   2   38.40    2.41
  -3  -5   2   38.31    2.40
  -3  -5   2   38.36    2.42
   3   5  -2   39.38    2.38
   3   5  -2   31.27    2.59
   3   5  -2   37.61    2.41
  -2  -4   2    8.56    0.60
  -2  -4   2    9.91    0.66
  -2  -4   2    9.19    0.68
   2   4  -2    8.40    0.60
   2   4  -2    6.60    1.00
   2   4  -2    8.80    0.64
  -1  -3   2    2.51    0.32
  -1  -3   2    2.41    0.28
  -1  -3   2    2.04    0.23
  -1  -3   2    2.53    0.28
   1   3  -2    2.45    0.56
   1   3  -2    2.05    0.21
   1   3  -2    2.17    0.21
   1   3  -2    2.24    0.30
   1  -1   2    0.76    0.13
   1  -1   2    0.75    0.20
   1  -1   2    0.65    0.38
   1  -1   2    0.77    0.13
   1  -1   2    0.61    0.34
  -1   1  -2    0.81    0.13
  -1   1  -2    0.51    0.09
  -1   1  -2    0.90    0.30
  -1   1  -2    0.80    0.35
  -1   1  -2    0.77    0.16
  -1   1  -2    0.55    0.11
   2   0   2   44.53    2.66
   2   0   2   41.11    2.64
   2   0   2   42.58    2.65
   2   0   2   40.25    2.71
   2   0   2   39.16    2.67
   2   0   2   42.71    2.63
  -2   0  -2   41.94    2.74
  -2   0  -2   45.90    2.67
  -2   0  -2   41.94    2.67
  -2   0  -2   39.31    2.63
  -2   0  -2   40.72    2.64
   3   1   2   16.40    0.98
   3   1   2   15.49    0.97
   3   1   2   16.85    0.98
   3   1   2   12.95    1.16
   3   1   2   13.76    1.13
  -3  -1  -2   14.02    1.10
  -3  -1  -2   16.03    0.97
  -3  -1  -2   12.72    1.04
  -3  -1  -2   16.02    0.98
  -3  -1  -2   15.42    1.01
  -3  -1  -2   13.16    1.10
  -3  -1  -2   14.28    1.20
  -3  -1  -2   16.45    0.98
   4   2   2   57.87    3.52
   4   2   2   48.76    3.60
   4   2   2   59.88    3.59
   4   2   2   48.32    3.79
   4   2   2   56.31    3.61
   4   2   2   56.27    3.53
   4   2   2   58.21    3.52
   4   2   2   60.89    3.52
  -4  -2  -2   55.52    3.51
  -4  -2  -2   57.35    3.58
  -4  -2  -2   55.32    3.63
  -4  -2  -2   57.28    3.62
  -4  -2  -2   52.58    3.52
  -4  -2  -2   53.16    3.51
  -4  -2  -2   56.11    3.52
   5   3   2   22.64    1.38
   5   3   2   22.15    1.36
   5   3   2   21.35    1.42
   5   3   2   20.62    1.41
   5   3   2   21.88    1.34
   5   3   2   18.61    1.40
  -5  -3  -2   20.04    1.50
  -5  -3  -2   20.36    1.52
   6   4   2   11.41    0.76
   6   4   2   11.70    0.76
   6   4   2   11.86    0.73
   6   4   2    9.01    0.86
   6   4   2   11.58    0.83
  -6  -4  -2   11.32    0.93
  -6  -4  -2    9.82    0.97
  -6  -4  -2   12.51    0.96
   7   5   2   22.98    1.46
   7   5   2   22.89    1.49
   7   5   2   23.80    1.52
  -7  -5  -2   22.51    1.57
  -7  -5  -2   20.38    1.58
  -7  -5  -2   23.13    1.57
   8   6   2   10.13    0.72
   8   6   2   10.48    0.70
   8   6   2   11.44    0.81
  -8  -6  -2   10.78    0.84
  -8  -6  -2   10.30    0.84
  -8  -6  -2   10.51    0.86
  -5  -7   1   43.64    3.07
  -5  -7   1   43.56    3.05
  -5  -7   1   48.35    2.99
   5   7  -1   49.67    3.06
   5   7  -1   46.73    2.95
  -4  -6   1    0.59    0.43
  -4  -6   1    0.58    0.24
  -4  -6   1    0.81    0.20
   4   6  -1    0.71    0.19
   4   6  -1    0.84    0.13
  -3  -5   1   16.95    1.10
  -3  -5   1   16.15    1.07
  -3  -5   1   13.85    1.30
  -3  -5   1   15.49    1.05
   3   5  -1   15.52    1.01
   3   5  -1   15.77    1.03
   3   5  -1   16.05    1.07
  -2  -4   1   33.35    2.12
  -2  -4   1   32.36    2.15
  -2  -4   1   33.80    2.17
   2   4  -1   32.88    2.15
   2   4  -1   33.53    2.12
   2   4  -1   33.57    2.10
  -1  -3   1   12.35    1.00
  -1  -3   1   12.30    0.85
  -1  -3   1   13.56    0.88
  -1  -3   1   12.66    0.84
  -1  -3   1   13.69    0.90
   1   3  -1   12.93    0.87
   1   3  -1   13.86    0.87
   1   3  -1   12.54    0.84
   1   3  -1   12.40    0.83
   0  -2   1   18.11    1.12
   0  -2   1   17.05    1.10
   0  -2   1   16.88    1.10
   0  -2   1   16.97    1.23
   0  -2   1   16.54    1.12
   0  -2   1   17.80    1.14
   0  -2   1   17.98    1.17
   0   2  -1   17.07    1.14
   0   2  -1   15.43    1.26
   0   2  -1   17.36    1.12
   0   2  -1   17.02    1.09
   0   2  -1   16.97    1.11
   0   2  -1   17.13    1.09
   1  -1   1   21.92    1.37
   1  -1   1   20.93    1.36
   1  -1   1   21.17    1.38
   1  -1   1   22.60    1.41
   1  -1   1   19.96    1.35
  -1   1  -1   19.10    1.35
  -1   1  -1   23.14    1.47
  -1   1  -1   21.10    1.36
  -1   1  -1   23.60    1.49
  -1   1  -1   20.82    1.37
   2   0   1    0.25    0.08
   2   0   1   -0.69    0.41
   2   0   1    0.30    0.07
   2   0   1    0.21    0.14
   2   0   1    0.14    0.12
   2   0   1    0.08    0.04
   2   0   1   -0.10    0.26
   2   0   1    0.11    0.13
  -2   0  -1    0.10    0.04
  -2   0  -1    0.02    0.09
  -2   0  -1    0.27    0.12
  -2   0  -1   -0.33    0.47
  -2   0  -1   -0.20    0.23
   3   1   1  115.89    7.92
   3   1   1  126.50    7.88
   3   1   1  114.03    7.95
   3   1   1  140.28    7.87
   3   1   1  126.54    7.88
  -3  -1  -1  120.27    7.87
  -3  -1  -1  124.56    7.92
  -3  -1  -1  127.92    7.87
  -3  -1  -1  123.16    7.93
  -3  -1  -1  127.14    7.86
  -3  -1  -1  130.68    7.87
   4   2   1    4.76    0.45
   4   2   1    5.19    0.37
   4   2   1    4.97    0.35
   4   2   1    4.16    0.44
   4   2   1    5.02    0.35
   4   2   1    4.66    0.50
   4   2   1    4.81    0.37
   4   2   1    3.33    0.60
  -4  -2  -1    4.85    0.56
  -4  -2  -1    4.71    0.34
  -4  -2  -1    4.81    0.35
  -4  -2  -1    5.05    0.34
  -4  -2  -1    4.54    0.50
  -4  -2  -1    3.78    0.54
  -4  -2  -1    4.76    0.34
   5   3   1  544.45   37.14
   5   3   1  500.61   36.99
  -5  -3  -1  659.08   37.04
  -5  -3  -1  654.28   37.36
   6   4   1    0.87    0.15
   6   4   1    1.18    0.18
   6   4   1    0.74    0.14
   6   4   1    0.84    0.16
  -6  -4  -1    0.59    0.33
  -6  -4  -1    1.13    0.44
  -6  -4  -1    0.92    0.34
  -6  -4  -1    0.83    0.13
   7   5   1    2.35    0.25
   7   5   1    2.59    0.31
   7   5   1    2.58    0.23
  -7  -5  -1    2.73    0.44
  -7  -5  -1    2.38    0.40
  -7  -5  -1    2.79    0.41
   8   6   1   26.87    1.68
   8   6   1   26.61    1.70
  -8  -6  -1   25.45    1.79
  -8  -6  -1   27.61    1.79
  -8  -6  -1   25.44    1.77
  -5  -7   0   15.79    1.23
  -5  -7   0   16.78    1.14
   5   7   0   16.91    1.13
   5   7   0   16.04    1.07
  -4  -6   0    3.01    0.41
  -4  -6   0    3.00    0.37
  -4  -6   0    2.49    0.49
   4   6   0    2.98    0.22
   4   6   0    2.64    0.32
   4   6   0    2.90    0.26
  -3  -5   0   44.65    3.35
  -3  -5   0   51.77    3.28
  -3  -5   0   50.53    3.26
   3   5   0   54.08    3.20
   3   5   0   50.70    3.25
   3   5   0   52.24    3.22
  -2  -4   0   13.83    0.96
  -2  -4   0   14.77    1.02
  -2  -4   0   12.74    1.33
  -2  -4   0   16.80    1.06
   2   4   0   14.91    0.95
   2   4   0   15.53    0.97
   2   4   0   14.26    1.00
  -1  -3   0    0.69    0.41
  -1  -3   0    0.67    0.11
  -1  -3   0    0.87    0.24
  -1  -3   0    0.90    0.19
  -1  -3   0    0.89    0.16
  -1  -3   0    1.19    0.48
  -1  -3   0    0.71    0.13
   1   3   0    0.80    0.10
   1   3   0    1.47    0.46
   1   3   0    0.77    0.16
   1   3   0    0.80    0.12
   1   3   0    0.75    0.17
   0  -2   0  675.93   38.59
   0   2   0  550.99   38.57
   1  -1   0    0.51    0.10
   1  -1   0    0.56    0.08
   1  -1   0    0.88    0.14
   1  -1   0    0.38    0.31
   1  -1   0    0.48    0.07
   1  -1   0    0.58    0.31
  -1   1   0    0.62    0.12
  -1   1   0    0.62    0.08
  -1   1   0    0.61    0.11
  -1   1   0    0.60    0.07
  -1   1   0    0.77    0.12
  -1   1   0    0.77    0.31
   3   1   0   15.15    1.01
   3   1   0   15.64    0.98
   3   1   0   15.94    0.98
   3   1   0   15.36    0.98
   3   1   0   15.23    1.01
  -3  -1   0   14.90    0.98
  -3  -1   0   14.31    0.98
  -3  -1   0   15.28    0.98
  -3  -1   0   13.56    1.02
  -3  -1   0   16.16    1.02
  -3  -1   0   13.87    1.04
  -3  -1   0   16.79    1.02
   4   2   0   43.14    2.56
   4   2   0   41.15    2.57
   4   2   0   39.62    2.60
   4   2   0   41.45    2.59
   4   2   0   41.42    2.57
  -4  -2   0   42.77    2.57
  -4  -2   0   33.90    2.64
  -4  -2   0   37.02    2.64
  -4  -2   0   41.50    2.60
  -4  -2   0   42.24    2.57
  -4  -2   0   42.75    2.60
  -4  -2   0   38.32    2.56
   5   3   0   29.34    1.87
   5   3   0   30.71    1.90
   5   3   0   31.04    1.87
   5   3   0   30.63    1.88
  -5  -3   0   29.01    1.88
  -5  -3   0   30.40    1.93
  -5  -3   0   31.84    1.92
  -5  -3   0   26.55    1.96
  -5  -3   0   27.32    1.99
  -5  -3   0   26.65    1.87
   6   4   0    5.64    0.43
   6   4   0    5.75    0.40
   6   4   0    5.22    0.46
   6   4   0    6.13    0.41
  -6  -4   0    6.41    0.52
  -6  -4   0    4.62    0.44
  -6  -4   0    5.09    0.67
  -6  -4   0    4.49    0.49
  -6  -4   0    6.34    0.56
   7   5   0   31.96    2.02
   7   5   0   31.65    2.07
   7   5   0   33.26    2.05
   7   5   0   32.67    2.03
  -7  -5   0   30.28    2.05
  -7  -5   0   30.62    2.15
  -7  -5   0   32.76    2.10
  -7  -5   0   32.17    2.10
   8   6   0   19.24    1.28
   8   6   0   20.48    1.25
   8   6   0   19.21    1.31
  -8  -6   0   19.66    1.34
  -8  -6   0   19.93    1.34
  -8  -6   0   18.64    1.38
   9   7   0    0.25    0.11
   9   7   0    0.09    0.17
  -9  -7   0    0.20    0.26
  -9  -7   0    0.43    0.22
  -9  -7   0   -0.59    0.27
  -5  -7  -1   49.19    3.09
  -5  -7  -1   46.95    3.09
  -5  -7  -1   47.62    3.13
   5   7   1   46.07    3.02
   5   7   1   48.02    3.00
   5   7   1   46.84    3.07
  -4  -6  -1    1.01    0.25
  -4  -6  -1    0.78    0.41
  -4  -6  -1    0.98    0.30
   4   6   1    0.79    0.21
   4   6   1    0.81    0.14
   4   6   1    0.82    0.11
  -3  -5  -1   16.19    1.25
  -3  -5  -1   15.96    1.14
  -3  -5  -1   16.17    1.12
   3   5   1   15.81    1.04
   3   5   1   15.38    1.08
  -2  -4  -1   32.33    2.17
  -2  -4  -1   31.56    2.28
  -2  -4  -1   32.75    2.14
  -2  -4  -1   31.47    2.09
   2   4   1   32.85    2.12
   2   4   1   33.73    2.07
   2   4   1   33.29    2.08
  -1  -3  -1   12.55    0.95
  -1  -3  -1   12.66    0.84
  -1  -3  -1   12.51    0.86
  -1  -3  -1   13.00    1.10
  -1  -3  -1   13.55    0.91
   1   3   1   13.02    0.88
   1   3   1   13.42    0.86
   1   3   1   13.01    0.85
   1   3   1   12.23    0.84
   0  -2  -1   17.94    1.19
   0  -2  -1   16.65    1.10
   0  -2  -1   17.49    1.10
   0  -2  -1   16.55    1.12
   0  -2  -1   17.12    1.15
   0  -2  -1   16.99    1.32
   0   2   1   17.79    1.15
   0   2   1   17.01    1.10
   0   2   1   17.28    1.10
   0   2   1   17.71    1.11
   0   2   1   16.71    1.15
   1  -1  -1   20.80    1.36
   1  -1  -1   22.26    1.44
   1  -1  -1   23.50    1.60
   1  -1  -1   20.17    1.37
   1  -1  -1   20.64    1.49
   1  -1  -1   21.01    1.37
  -1   1   1   21.93    1.59
  -1   1   1   21.98    1.38
  -1   1   1   20.12    1.37
  -1   1   1   24.19    1.49
  -1   1   1   22.72    1.42
  -1   1   1   20.58    1.36
   2   0  -1   -0.09    0.28
   2   0  -1    0.09    0.17
   2   0  -1    0.26    0.09
   2   0  -1    0.28    0.06
   2   0  -1    0.10    0.07
   2   0  -1   -0.34    0.35
   2   0  -1    0.70    0.32
  -2   0   1   -0.54    0.24
  -2   0   1    0.41    0.15
  -2   0   1    0.06    0.07
  -2   0   1    0.14    0.08
  -2   0   1    0.24    0.31
  -2   0   1    0.09    0.26
   3   1  -1  128.13    8.17
   3   1  -1  128.21    8.16
   3   1  -1  128.54    8.17
   3   1  -1  128.21    8.22
  -3  -1   1  128.11    8.17
  -3  -1   1  135.71    8.18
  -3  -1   1  129.28    8.17
  -3  -1   1  132.49    8.16
   4   2  -1    5.30    0.35
   4   2  -1    4.80    0.38
   4   2  -1    4.49    0.40
   4   2  -1    3.46    0.57
   4   2  -1    5.02    0.41
   4   2  -1    4.99    0.37
   4   2  -1    3.95    0.38
   4   2  -1    4.50    0.37
  -4  -2   1    4.95    0.36
  -4  -2   1    4.53    0.46
  -4  -2   1    4.89    0.38
  -4  -2   1    5.17    0.39
  -4  -2   1    4.68    0.38
  -4  -2   1    5.10    0.37
   5   3  -1  452.88   33.18
   5   3  -1  605.79   33.35
   6   4  -1    0.86    0.11
   6   4  -1    0.83    0.21
   6   4  -1    0.48    0.16
   6   4  -1    0.99    0.50
   6   4  -1    0.80    0.21
   6   4  -1    0.81    0.13
  -6  -4   1    0.82    0.23
  -6  -4   1    0.83    0.21
  -6  -4   1    0.72    0.51
  -6  -4   1    0.93    0.26
   7   5  -1    2.45    0.20
   7   5  -1    2.60    0.31
   7   5  -1    2.76    0.26
   7   5  -1    2.23    0.44
  -7  -5   1    2.63    0.33
  -7  -5   1    2.45    0.33
  -7  -5   1    2.43    0.35
  -7  -5   1    2.53    0.49
   8   6  -1   26.48    1.73
   8   6  -1   26.76    1.69
  -8  -6   1   26.28    1.74
  -8  -6   1   27.46    1.74
  -8  -6   1   24.40    1.79
  -4  -6  -2    4.95    0.54
  -4  -6  -2    5.64    0.55
  -4  -6  -2    4.29    0.61
   4   6   2    5.02    0.38
   4   6   2    4.90    0.36
   4   6   2    5.61    0.51
  -3  -5  -2   36.49    2.52
  -3  -5  -2   37.27    2.57
  -3  -5  -2   36.09    2.51
   3   5   2   38.70    2.48
   3   5   2   40.30    2.42
   3   5   2   38.96    2.42
  -2  -4  -2   10.34    0.84
  -2  -4  -2    8.39    0.81
  -2  -4  -2    9.83    0.96
   2   4   2    9.19    0.73
   2   4   2    9.11    0.61
   2   4   2    9.24    0.61
   2   4   2    7.83    0.63
  -1  -3  -2    1.88    0.44
  -1  -3  -2    2.30    0.25
  -1  -3  -2    2.67    0.57
   1   3   2    2.37    0.26
   1   3   2    2.98    0.32
   1   3   2    2.25    0.19
   1   3   2    2.49    0.38
   1   3   2    1.74    0.22
   1  -1  -2    0.75    0.10
   1  -1  -2    0.97    0.39
   1  -1  -2    0.63    0.10
   1  -1  -2    1.05    0.14
   1  -1  -2    1.06    0.45
   1  -1  -2    1.05    0.54
   1  -1  -2    0.52    0.12
   1  -1  -2    0.53    0.42
  -1   1   2    0.76    0.25
  -1   1   2    0.97    0.39
  -1   1   2    0.85    0.42
  -1   1   2    0.79    0.12
  -1   1   2    0.67    0.11
  -1   1   2    0.53    0.12
   2   0  -2   40.71    2.70
   2   0  -2   41.29    2.73
   2   0  -2   44.58    2.62
   2   0  -2   41.16    2.62
   2   0  -2   41.12    2.62
   2   0  -2   42.77    2.62
  -2   0   2   39.69    2.70
  -2   0   2   41.61    2.62
  -2   0   2   39.27    2.73
  -2   0   2   40.60    2.71
  -2   0   2   42.08    2.62
   3   1  -2   16.06    1.00
   3   1  -2   16.59    1.02
   3   1  -2   15.79    1.05
   3   1  -2   16.00    1.02
   3   1  -2   14.78    1.06
   3   1  -2   14.11    1.17
   3   1  -2   15.50    1.04
  -3  -1   2   16.49    1.02
  -3  -1   2   14.91    1.11
  -3  -1   2   15.14    1.03
  -3  -1   2   14.72    1.06
  -3  -1   2   15.94    1.00
  -3  -1   2   16.13    1.02
   4   2  -2   54.07    3.75
   4   2  -2   58.58    3.63
   4   2  -2   57.86    3.63
   4   2  -2   58.90    3.66
   4   2  -2   57.40    3.61
   4   2  -2   58.29    3.64
  -4  -2   2   57.73    3.64
  -4  -2   2   55.31    3.64
  -4  -2   2   59.99    3.70
  -4  -2   2   58.94    3.64
  -4  -2   2   56.46    3.65
  -4  -2   2   52.65    3.74
  -4  -2   2   59.14    3.63
   5   3  -2   21.33    1.38
   5   3  -2   21.87    1.35
   5   3  -2   19.05    1.34
   5   3  -2   21.55    1.35
  -5  -3   2   21.84    1.37
  -5  -3   2   20.49    1.48
  -5  -3   2   20.75    1.35
  -5  -3   2   20.13    1.47
  -5  -3   2   20.98    1.37
  -5  -3   2   19.60    1.37
   6   4  -2   12.84    0.84
   6   4  -2   13.00    1.14
   6   4  -2   11.75    0.87
  -6  -4   2   12.41    0.87
  -6  -4   2   12.25    0.87
   7   5  -2   21.35    1.65
   7   5  -2   23.05    1.44
  -7  -5   2   22.51    1.46
  -7  -5   2   22.99    1.48
  -7  -5   2   21.48    1.63
  -7  -5   2   22.03    1.48
   8   6  -2   10.53    0.70
   8   6  -2    8.85    0.86
   8   6  -2   10.29    0.75
  -8  -6   2   10.47    0.73
  -8  -6   2   10.30    0.75
  -8  -6   2   10.13    0.89
  -8  -6   2   10.79    0.74
  -4  -6  -3    0.01    0.36
  -4  -6  -3    0.32    0.27
  -4  -6  -3    0.91    0.28
  -4  -6  -3    0.41    0.31
   4   6   3   -0.36    0.28
   4   6   3    0.26    0.11
   4   6   3    0.24    0.10
  -3  -5  -3    9.43    0.85
  -3  -5  -3    9.15    0.81
  -3  -5  -3    8.23    0.76
  -3  -5  -3   10.71    0.78
   3   5   3    8.73    0.78
   3   5   3    8.71    0.62
   3   5   3    8.93    0.62
  -2  -4  -3   26.29    1.91
  -2  -4  -3   27.17    1.89
  -2  -4  -3   29.50    1.88
   2   4   3   27.15    1.74
   2   4   3   29.40    1.88
   2   4   3   27.43    1.74
   2   4   3   27.42    1.72
   2   4   3   23.80    1.76
  -1  -3  -3   22.24    1.61
  -1  -3  -3   16.92    1.39
  -1  -3  -3   21.67    1.59
  -1  -3  -3   20.86    1.33
  -1  -3  -3   21.28    1.55
   1   3   3   20.58    1.33
   1   3   3   21.01    1.33
   1   3   3   21.29    1.33
   1   3   3   18.90    1.34
   1   3   3   21.79    1.32
   0  -2  -3   13.26    0.95
   0  -2  -3   15.00    1.03
   0  -2  -3   16.10    1.65
   0  -2  -3   13.30    1.24
   0  -2  -3   14.02    0.96
   0   2   3   15.03    0.95
   0   2   3   15.29    0.97
   0   2   3   14.55    1.03
   0   2   3   14.86    0.95
   1  -1  -3   47.81    2.98
   1  -1  -3   47.11    3.14
   1  -1  -3   46.97    3.12
   1  -1  -3   45.88    3.22
   1  -1  -3   40.17    3.13
  -1   1   3   49.93    2.99
  -1   1   3   50.02    2.99
  -1   1   3   45.57    3.08
  -1   1   3   49.02    2.98
   2   0  -3    0.27    0.30
   2   0  -3    0.19    0.08
   2   0  -3    0.04    0.13
   2   0  -3    0.01    0.11
   2   0  -3   -0.30    0.48
   2   0  -3    0.22    0.11
   2   0  -3    0.32    0.44
   2   0  -3    0.26    0.26
  -2   0   3    0.09    0.10
  -2   0   3    0.15    0.36
  -2   0   3    0.11    0.12
  -2   0   3    0.47    0.51
  -2   0   3    0.10    0.13
  -2   0   3    0.12    0.10
  -2   0   3    0.26    0.22
   3   1  -3   58.68    3.79
   3   1  -3   59.43    3.75
   3   1  -3   59.44    3.89
   3   1  -3   59.59    3.73
   3   1  -3   58.14    3.78
   3   1  -3   60.84    3.75
   3   1  -3   56.06    3.77
  -3  -1   3   60.11    3.74
  -3  -1   3   57.05    3.83
  -3  -1   3   60.52    3.73
  -3  -1   3   60.15    3.74
   4   2  -3    0.48    0.10
   4   2  -3    0.48    0.20
   4   2  -3   -0.17    0.47
   4   2  -3    0.62    0.18
   4   2  -3    0.42    0.25
  -4  -2   3    0.51    0.19
  -4  -2   3   -0.18    0.38
  -4  -2   3    0.27    0.13
  -4  -2   3    0.73    0.18
  -4  -2   3   -0.02    0.34
  -4  -2   3    0.48    0.16
   5   3  -3  323.21   20.11
   5   3  -3  322.99   20.05
   5   3  -3  332.17   20.03
   5   3  -3  294.12   20.21
  -5  -3   3  324.60   20.07
   6   4  -3    2.24    0.52
   6   4  -3    1.94    0.27
   6   4  -3    2.08    0.23
  -6  -4   3    2.31    0.30
  -6  -4   3    1.78    0.23
  -6  -4   3    2.06    0.28
   7   5  -3    8.74    0.66
   7   5  -3    9.38    0.61
   7   5  -3    9.45    0.89
  -7  -5   3    8.83    0.65
  -7  -5   3    8.19    0.64
  -7  -5   3    8.77    0.62
   8   6  -3   19.62    1.27
   8   6  -3   19.57    1.47
   8   6  -3   19.67    1.32
  -8  -6   3   19.11    1.29
  -8  -6   3   19.55    1.45
  -8  -6   3   19.26    1.31
  -8  -6   3   20.07    1.31
  -4  -6  -4    4.23    0.62
  -4  -6  -4    4.33    0.59
  -4  -6  -4    4.68    0.58
   4   6   4    4.31    0.34
   4   6   4    4.26    0.37
  -3  -5  -4   17.24    1.27
  -3  -5  -4   17.40    1.29
  -3  -5  -4   15.60    1.13
  -3  -5  -4   17.19    1.26
   3   5   4   16.09    1.08
   3   5   4   16.54    1.08
  -2  -4  -4   11.76    1.31
  -2  -4  -4   12.17    0.98
  -2  -4  -4   11.56    1.04
  -2  -4  -4    9.87    0.76
   2   4   4   10.48    0.72
   2   4   4   10.51    0.70
  -1  -3  -4   -0.12    0.55
  -1  -3  -4    0.39    0.14
  -1  -3  -4   -0.12    0.49
  -1  -3  -4    0.79    0.48
   1   3   4   -0.12    0.12
   1   3   4    0.19    0.12
   1   3   4    0.05    0.11
   0  -2  -4  336.30   19.19
   0  -2  -4  290.91   19.28
   0  -2  -4  305.15   19.35
   0  -2  -4  297.35   19.38
   0   2   4  317.02   19.24
   0   2   4  315.94   19.20
   0   2   4  308.47   19.21
   0   2   4  312.58   19.19
   0   2   4  267.24   19.24
   1  -1  -4    1.39    0.87
   1  -1  -4    1.95    0.60
   1  -1  -4    3.09    0.51
   1  -1  -4    2.14    0.19
  -1   1   4    2.17    0.21
  -1   1   4    1.64    0.33
  -1   1   4    1.84    0.25
  -1   1   4    1.76    0.21
  -1   1   4    1.84    0.25
   2   0  -4   33.46    2.37
   2   0  -4   30.45    2.50
   2   0  -4   37.92    2.37
   2   0  -4   35.67    2.50
   2   0  -4   35.29    2.27
  -2   0   4   33.67    2.30
  -2   0   4   38.93    2.30
  -2   0   4   38.90    2.29
  -2   0   4   36.55    2.35
  -2   0   4   37.05    2.29
   3   1  -4    2.52    0.22
   3   1  -4    2.31    0.36
   3   1  -4    2.56    0.62
   3   1  -4    2.41    0.36
   3   1  -4    2.63    0.40
  -3  -1   4    2.29    0.24
  -3  -1   4    2.49    0.27
  -3  -1   4    1.96    0.27
  -3  -1   4    2.61    0.73
   4   2  -4   20.74    1.69
   4   2  -4   21.55    1.40
   4   2  -4   21.99    1.45
   4   2  -4   21.85    1.44
   4   2  -4   21.90    1.38
   4   2  -4   18.27    1.44
  -4  -2   4   21.19    1.47
  -4  -2   4   21.56    1.40
  -4  -2   4   22.13    1.43
  -4  -2   4   22.29    1.39
  -4  -2   4   22.82    1.41
   5   3  -4   13.03    0.91
   5   3  -4   11.59    1.13
   5   3  -4   13.34    0.84
  -5  -3   4   13.00    0.87
  -5  -3   4   12.32    0.86
  -5  -3   4   12.62    0.87
  -5  -3   4   12.92    0.86
   6   4  -4   20.50    1.23
   6   4  -4   16.38    1.46
   6   4  -4   18.94    1.28
  -6  -4   4   19.09    1.26
  -6  -4   4   19.08    1.25
  -6  -4   4   19.51    1.27
   7   5  -4   14.44    0.90
   7   5  -4   14.24    1.16
   7   5  -4   12.75    0.95
  -7  -5   4   13.72    0.92
  -7  -5   4   13.67    0.94
  -3  -5  -5    3.45    0.58
  -3  -5  -5    4.52    0.61
   3   5   5    4.14    0.33
   3   5   5    3.96    0.33
  -2  -4  -5   11.89    0.99
  -2  -4  -5    9.87    0.98
  -2  -4  -5   12.63    1.08
   2   4   5   11.67    0.77
   2   4   5   11.55    0.77
   2   4   5   11.25    0.76
  -1  -3  -5   25.70    1.89
  -1  -3  -5   27.22    2.02
  -1  -3  -5   24.71    1.84
   1   3   5   27.40    1.70
   1   3   5   27.39    1.71
   1   3   5   26.74    1.71
   0  -2  -5    2.76    0.57
   0  -2  -5    2.66    0.79
   0  -2  -5    3.15    0.47
   0   2   5    3.32    0.25
   0   2   5    3.02    0.28
   0   2   5    2.97    0.29
   0   2   5    3.20    0.28
   1  -1  -5   32.52    2.44
   1  -1  -5   34.48    2.32
  -1   1   5   36.59    2.26
  -1   1   5   35.57    2.25
  -1   1   5   35.30    2.24
  -1   1   5   36.84    2.28
   2   0  -5    0.18    0.07
   2   0  -5    0.01    0.25
   2   0  -5    0.34    0.45
   2   0  -5    0.04    0.36
   2   0  -5    0.15    0.45
  -2   0   5    0.09    0.12
  -2   0   5    0.05    0.12
  -2   0   5   -0.10    0.14
   3   1  -5   19.41    1.51
   3   1  -5   18.48    1.28
   3   1  -5   19.66    1.36
   3   1  -5   18.30    1.23
   3   1  -5   19.32    1.31
  -3  -1   5   20.18    1.25
  -3  -1   5   19.79    1.27
  -3  -1   5   20.10    1.26
   4   2  -5    0.22    0.48
   4   2  -5    0.30    0.18
   4   2  -5    0.51    0.22
   4   2  -5    0.35    0.12
   4   2  -5    0.27    0.13
  -4  -2   5    0.25    0.11
  -4  -2   5    0.02    0.13
  -4  -2   5    0.18    0.15
  -4  -2   5    0.41    0.19
   5   3  -5  105.38    6.92
   5   3  -5  104.17    7.18
   5   3  -5  114.05    6.86
  -5  -3   5  114.48    6.89
  -5  -3   5  107.52    6.89
  -5  -3   5  108.12    6.96
  -5  -3   5  109.95    6.88
   6   4  -5    0.58    0.42
   6   4  -5    0.80    0.20
   6   4  -5    0.81    0.12
  -6  -4   5    0.45    0.17
  -6  -4   5    0.57    0.18
   7   5  -5    4.63    0.42
   7   5  -5    5.24    0.34
   7   5  -5    4.87    0.69
  -7  -5   5    4.09    0.40
  -7  -5   5    3.65    0.38
  -7  -5   5    4.86    0.37
  -2  -4  -6    4.38    0.57
  -2  -4  -6    5.07    0.81
  -2  -4  -6    6.96    0.87
   2   4   6    5.15    0.39
   2   4   6    4.96    0.38
   2   4   6    5.12    0.39
  -1  -3  -6    1.07    0.61
  -1  -3  -6    0.71    0.43
  -1  -3  -6    0.51    0.30
   1   3   6    0.56    0.15
   1   3   6    0.57    0.13
   0  -2  -6   85.02    5.57
   0  -2  -6   86.95    5.69
   0   2   6   90.10    5.54
   0   2   6   87.69    5.52
   0   2   6   87.95    5.54
   0   2   6   88.78    5.55
   1  -1  -6    0.82    0.54
   1  -1  -6    0.98    0.28
   1  -1  -6    0.77    0.35
   1  -1  -6    0.36    0.46
  -1   1   6    0.73    0.26
  -1   1   6    0.39    0.14
  -1   1   6    0.48    0.14
  -1   1   6    0.43    0.13
   2   0  -6   13.12    0.84
   2   0  -6   12.98    1.13
   2   0  -6   10.17    0.97
   2   0  -6   14.24    0.93
   2   0  -6   14.04    1.08
  -2   0   6   13.27    0.87
  -2   0   6   12.73    0.86
   3   1  -6    0.78    0.28
   3   1  -6    0.89    0.23
   3   1  -6    0.63    0.47
  -3  -1   6    0.67    0.16
  -3  -1   6    0.63    0.15
  -3  -1   6    0.85    0.13
   4   2  -6   16.50    1.18
   4   2  -6   18.88    1.19
   4   2  -6   18.55    1.43
  -4  -2   6   17.64    1.17
  -4  -2   6   16.79    1.14
  -4  -2   6   17.37    1.23
  -4  -2   6   17.31    1.15
   5   3  -6    2.57    0.54
   5   3  -6    2.95    0.34
   5   3  -6    3.50    0.23
  -5  -3   6    2.52    0.28
  -5  -3   6    2.72    0.31
  -5  -3   6    2.52    0.30
  -5  -3   6    2.97    0.28
   6   4  -6   13.46    0.93
   6   4  -6   12.57    1.17
  -6  -4   6   13.10    0.89
   0  -2  -7    0.98    0.28
   0  -2  -7    1.64    0.48
   0  -2  -7    1.86    0.48
   0  -2  -7    2.00    0.58
   0   2   7    1.57    0.21
   0   2   7    1.15    0.17
   0   2   7    1.29    0.25
   1  -1  -7   17.75    1.45
   1  -1  -7   23.58    1.60
   1  -1  -7   22.51    1.40
  -1   1   7   19.49    1.34
  -1   1   7   21.21    1.35
  -1   1   7   20.98    1.36
   2   0  -7    1.19    0.46
   2   0  -7    0.17    0.31
   2   0  -7    0.59    0.21
   3   1  -7    5.36    1.15
   3   1  -7    6.03    0.45
   3   1  -7    5.34    0.57
  -3  -1   7    4.91    0.37
  -3  -1   7    4.28    0.46
  -3  -1   7    4.33    0.38
   4   2  -7    0.28    0.17
   4   2  -7    0.83    0.46
   4   2  -7    0.54    0.20
  -4  -2   7    0.07    0.16
  -4  -2   7   -0.17    0.14
  -4  -2   7    0.16    0.13
  -4  -2   7    0.15    0.11
   2  -2   7    2.32    0.26
   2  -2   7    1.57    0.23
   2  -2   7    2.56    0.41
   2  -2   7    2.06    0.20
  -2   2  -7    1.99    0.45
  -2   2  -7    1.45    0.32
  -2   2  -7    2.67    0.26
   3  -1   7    5.03    0.38
   3  -1   7    4.38    0.54
   3  -1   7    4.72    0.41
  -3   1  -7    5.56    0.65
  -3   1  -7    5.81    0.44
   4   0   7   -0.05    0.14
   4   0   7    0.08    0.11
   4   0   7   -0.17    0.13
  -4   0  -7    0.20    0.36
  -4   0  -7   -0.12    0.44
   5   1   7   41.69    2.65
   5   1   7   43.82    2.71
   5   1   7   41.12    2.66
  -5  -1  -7   38.88    3.05
  -5  -1  -7   40.32    2.92
  -5  -1  -7   42.84    2.64
   0  -4   6   36.34    2.28
   0  -4   6   33.72    2.30
   0   4  -6   37.32    2.78
   0   4  -6   35.20    2.28
   1  -3   6    0.36    0.24
   1  -3   6    0.11    0.17
   1  -3   6    0.30    0.11
   1  -3   6    0.48    0.15
  -1   3  -6    0.77    0.41
  -1   3  -6    0.71    0.17
  -1   3  -6    0.52    0.24
   2  -2   6   10.77    0.76
   2  -2   6   11.03    0.73
   2  -2   6   11.04    0.76
  -2   2  -6   11.29    0.96
  -2   2  -6   10.86    0.97
  -2   2  -6   11.41    0.76
   3  -1   6    0.94    0.14
   3  -1   6    0.92    0.17
   3  -1   6    0.78    0.17
  -3   1  -6    0.88    0.39
  -3   1  -6    0.95    0.42
  -3   1  -6    1.13    0.18
   4   0   6   20.24    1.29
   4   0   6   20.14    1.29
  -4   0  -6   18.70    1.44
  -4   0  -6   16.84    1.98
  -4   0  -6   20.36    1.28
   5   1   6    1.33    0.19
   5   1   6    1.28    0.19
   5   1   6    1.39    0.18
  -5  -1  -6    2.96    0.68
  -5  -1  -6    1.47    0.39
  -5  -1  -6    1.72    0.22
   6   2   6   24.63    1.59
   6   2   6   23.77    1.58
   6   2   6   24.54    1.59
   6   2   6   24.84    1.59
  -6  -2  -6   24.58    1.72
  -6  -2  -6   25.07    1.97
  -6  -2  -6   24.87    1.58
   7   3   6    5.43    0.42
   7   3   6    4.95    0.39
   7   3   6    5.35    0.41
   7   3   6    5.05    0.40
  -7  -3  -6    6.07    0.92
  -7  -3  -6    5.24    0.42
  -7  -3  -6    5.58    0.60
  -7  -3  -6    5.05    0.39
  -1  -5   5    5.93    0.49
  -1  -5   5    5.87    0.43
   1   5  -5    6.16    0.47
   1   5  -5    5.18    0.78
   0  -4   5    6.64    0.57
   0  -4   5    7.35    0.54
   0  -4   5    7.04    0.52
   0   4  -5    7.67    0.54
   0   4  -5    7.25    0.80
   1  -3   5   28.03    1.72
   1  -3   5   26.82    1.70
   1  -3   5   28.27    1.76
   1  -3   5   25.26    1.68
  -1   3  -5   26.62    1.90
  -1   3  -5   23.38    1.67
  -1   3  -5   26.32    1.77
  -1   3  -5   26.71    1.71
   2  -2   5    5.95    0.45
   2  -2   5    6.04    0.47
  -2   2  -5    6.33    0.46
  -2   2  -5    5.52    0.69
  -2   2  -5    5.31    0.60
   3  -1   5   19.29    1.30
   3  -1   5   20.81    1.33
   3  -1   5   20.54    1.32
  -3   1  -5   19.94    1.48
  -3   1  -5   19.40    1.54
  -3   1  -5   20.93    1.32
   4   0   5    0.03    0.14
   4   0   5    0.22    0.15
   4   0   5   -0.17    0.12
  -4   0  -5   -0.44    0.33
  -4   0  -5    0.18    0.15
  -4   0  -5    0.01    0.58
   5   1   5  199.58   12.12
   5   1   5  202.45   12.12
   5   1   5  168.42   12.12
   5   1   5  181.26   12.10
   5   1   5  198.09   12.11
  -5  -1  -5  209.10   12.39
  -5  -1  -5  183.81   12.13
  -5  -1  -5  191.72   12.22
  -5  -1  -5  199.38   12.10
   6   2   5    0.30    0.14
   6   2   5    0.18    0.11
   6   2   5    0.28    0.17
  -6  -2  -5    0.22    0.35
  -6  -2  -5    0.19    0.16
  -6  -2  -5    0.26    0.11
  -6  -2  -5    0.15    0.60
  -6  -2  -5    0.42    0.18
   7   3   5   16.12    1.04
   7   3   5   16.61    1.03
   7   3   5   16.02    1.03
  -7  -3  -5   15.28    1.36
  -7  -3  -5   14.96    1.05
  -7  -3  -5   15.17    1.01
  -7  -3  -5   16.11    1.08
   8   4   5   11.43    0.78
   8   4   5   11.48    0.76
   8   4   5   10.63    0.76
  -8  -4  -5   12.94    1.07
  -8  -4  -5   10.65    0.81
  -8  -4  -5   11.42    0.82
  -8  -4  -5   12.28    0.90
  -2  -6   4    2.04    0.32
  -2  -6   4    2.35    0.31
  -2  -6   4    2.69    0.25
   2   6  -4    2.87    0.22
   2   6  -4    2.08    0.57
   2   6  -4    2.45    0.29
  -1  -5   4    0.52    0.20
  -1  -5   4    0.40    0.12
  -1  -5   4    0.28    0.17
   1   5  -4    0.52    0.09
   1   5  -4    0.63    0.17
   1   5  -4    0.96    0.47
   0  -4   4  158.38   10.18
   0  -4   4  167.41   10.18
   0  -4   4  166.45   10.16
   0   4  -4  152.10   10.34
   0   4  -4  155.24   10.19
   0   4  -4  168.56   10.13
   1  -3   4   -0.10    0.23
   1  -3   4    0.31    0.23
   1  -3   4    0.08    0.14
   1  -3   4    0.35    0.17
  -1   3  -4    0.10    0.41
  -1   3  -4    0.46    0.24
  -1   3  -4    0.24    0.16
   2  -2   4   19.04    1.24
   2  -2   4   20.21    1.26
   2  -2   4   18.61    1.21
  -2   2  -4   18.75    1.25
  -2   2  -4   18.20    1.45
  -2   2  -4   18.68    1.36
   3  -1   4    2.44    0.28
   3  -1   4    2.61    0.28
   3  -1   4    2.04    0.23
  -3   1  -4    2.19    0.51
  -3   1  -4    2.79    0.61
  -3   1  -4    2.10    0.29
   4   0   4   50.52    3.12
   4   0   4   47.78    3.10
   4   0   4   50.39    3.12
  -4   0  -4   47.97    3.44
  -4   0  -4   47.90    3.23
  -4   0  -4   49.00    3.11
   5   1   4    0.60    0.21
   5   1   4    0.45    0.29
   5   1   4    0.58    0.15
   5   1   4    0.43    0.15
   5   1   4    0.56    0.12
  -5  -1  -4    0.08    0.41
  -5  -1  -4    0.35    0.28
  -5  -1  -4    0.58    0.20
  -5  -1  -4    0.29    0.20
  -5  -1  -4    0.56    0.10
  -5  -1  -4   -0.24    0.78
   6   2   4   27.60    1.73
   6   2   4   28.18    1.73
   6   2   4   27.46    1.72
  -6  -2  -4   26.07    1.71
  -6  -2  -4   25.77    1.78
  -6  -2  -4   26.91    1.87
  -6  -2  -4   26.56    1.75
  -6  -2  -4   26.02    2.06
   7   3   4    8.08    0.56
   7   3   4    8.39    0.58
  -7  -3  -4    8.37    0.75
  -7  -3  -4    7.90    0.90
  -7  -3  -4    8.40    0.69
  -7  -3  -4    7.04    0.70
   8   4   4   16.43    1.07
   8   4   4   15.98    1.06
   8   4   4   16.27    1.05
  -8  -4  -4   17.18    1.28
  -8  -4  -4   14.17    1.19
  -8  -4  -4   17.04    1.19
  -8  -4  -4   16.64    1.18
   9   5   4    0.01    0.09
   9   5   4    0.23    0.12
   9   5   4    0.08    0.11
  -9  -5  -4    0.61    0.27
  -9  -5  -4    0.57    0.29
  -9  -5  -4    0.46    0.33
  -9  -5  -4   -0.65    0.31
  -2  -6   3   15.70    1.10
  -2  -6   3   16.89    1.09
  -2  -6   3   16.06    1.05
   2   6  -3   16.97    1.06
   2   6  -3   13.37    1.32
   2   6  -3   16.27    1.08
  -1  -5   3    9.95    0.69
  -1  -5   3   10.54    0.74
  -1  -5   3   10.42    0.79
   1   5  -3   11.30    0.68
   1   5  -3   10.15    0.73
   1   5  -3    8.03    1.05
   0  -4   3   13.62    0.89
   0  -4   3   12.91    0.86
   0  -4   3   12.97    0.91
   0   4  -3   13.27    0.84
   0   4  -3   12.70    0.88
   0   4  -3   11.07    1.13
   1  -3   3   22.15    1.46
   1  -3   3   22.92    1.42
   1  -3   3   21.14    1.39
  -1   3  -3   20.75    1.37
  -1   3  -3   21.44    1.41
  -1   3  -3   20.59    1.62
   2  -2   3   10.78    0.85
   2  -2   3   11.16    0.74
   2  -2   3   10.61    0.70
   2  -2   3   12.07    0.86
  -2   2  -3   10.41    1.08
  -2   2  -3   11.18    0.75
  -2   2  -3   10.17    0.70
  -2   2  -3   10.63    0.85
   3  -1   3   59.29    3.71
   3  -1   3   53.85    3.73
   3  -1   3   60.16    3.68
   3  -1   3   60.68    3.70
  -3   1  -3   58.89    3.68
  -3   1  -3   54.71    3.85
  -3   1  -3   60.21    3.70
  -3   1  -3   58.96    3.82
   4   0   3   -0.18    0.55
   4   0   3    0.19    0.14
   4   0   3   -0.09    0.12
   4   0   3   -0.12    0.11
   4   0   3    0.22    0.38
   4   0   3    0.87    0.50
   4   0   3    0.04    0.16
  -4   0  -3    0.00    0.57
  -4   0  -3   -0.13    0.10
  -4   0  -3    0.04    0.32
  -4   0  -3   -0.08    0.13
  -4   0  -3    0.23    0.16
  -4   0  -3    0.02    0.10
   5   1   3  635.22   39.41
   5   1   3  585.95   39.22
  -5  -1  -3  632.72   39.32
  -5  -1  -3  639.54   39.42
  -5  -1  -3  595.40   39.28
  -5  -1  -3  653.76   39.23
  -5  -1  -3  635.30   39.22
   6   2   3    0.44    0.13
   6   2   3    0.00    0.11
   6   2   3    0.45    0.53
   6   2   3    0.35    0.14
   6   2   3    0.12    0.14
  -6  -2  -3    0.35    0.14
  -6  -2  -3    0.01    0.32
  -6  -2  -3    0.32    0.10
  -6  -2  -3    0.21    0.52
  -6  -2  -3    0.22    0.39
  -6  -2  -3    0.16    0.38
   7   3   3   11.07    0.71
   7   3   3   11.19    0.71
   7   3   3   10.70    0.73
  -7  -3  -3   10.14    0.69
  -7  -3  -3   10.71    1.00
  -7  -3  -3   10.25    0.90
  -7  -3  -3    8.43    0.99
   8   4   3   22.01    1.40
   8   4   3   21.34    1.50
   8   4   3   21.66    1.41
   8   4   3   21.77    1.39
  -8  -4  -3   20.97    1.54
  -8  -4  -3   21.13    1.50
  -8  -4  -3   22.56    1.49
   9   5   3   11.04    0.91
   9   5   3   11.03    0.79
   9   5   3   11.55    0.79
   9   5   3   11.32    0.77
  -9  -5  -3   12.67    0.88
  -9  -5  -3   11.93    0.94
  -9  -5  -3   11.72    0.90
  -9  -5  -3   13.91    0.96
  10   6   3   11.24    0.90
  10   6   3   10.95    0.78
  10   6   3   11.15    0.77
 -10  -6  -3   11.25    0.87
 -10  -6  -3   13.51    0.87
  -3  -7   2   19.04    1.27
   3   7  -2   19.34    1.22
   3   7  -2   18.34    1.27
  -2  -6   2    2.24    0.60
  -2  -6   2    3.81    0.38
  -2  -6   2    3.24    0.31
  -2  -6   2    2.70    0.33
   2   6  -2    2.97    0.31
   2   6  -2    2.08    0.54
  -1  -5   2    0.47    0.12
  -1  -5   2    0.51    0.22
  -1  -5   2    0.76    0.20
   1   5  -2    0.55    0.49
   1   5  -2    0.55    0.11
   1   5  -2    0.62    0.17
   0  -4   2  303.92   18.94
   0  -4   2  299.09   18.90
   0   4  -2  298.35   18.95
   0   4  -2  295.29   18.91
   0   4  -2  309.53   18.91
   1  -3   2    1.99    0.23
   1  -3   2    2.40    0.24
   1  -3   2    2.51    0.34
   1  -3   2    2.56    0.29
  -1   3  -2    1.76    0.19
  -1   3  -2    2.11    0.19
  -1   3  -2    1.80    0.52
   2  -2   2   40.27    2.70
   2  -2   2   39.57    2.67
   2  -2   2   41.41    2.57
   2  -2   2   41.62    2.58
   2  -2   2   38.61    2.56
   2  -2   2   40.43    2.62
  -2   2  -2   42.57    2.72
  -2   2  -2   39.66    2.58
  -2   2  -2   41.48    2.58
  -2   2  -2   40.61    2.63
  -2   2  -2   39.21    2.56
   3  -1   2   16.28    1.01
   3  -1   2   16.14    1.03
   3  -1   2   16.03    1.04
   3  -1   2   15.69    1.04
   3  -1   2   15.42    1.18
  -3   1  -2   15.25    1.02
  -3   1  -2   13.83    1.16
  -3   1  -2   16.56    1.04
  -3   1  -2   16.21    1.02
  -3   1  -2   15.58    1.01
  -3   1  -2   16.00    1.16
   4   0   2   45.09    2.70
   4   0   2   40.73    2.80
   4   0   2   41.69    2.73
   4   0   2   43.85    2.72
   4   0   2   37.86    2.73
   4   0   2   44.10    2.69
  -4   0  -2   43.60    2.73
  -4   0  -2   42.94    2.70
  -4   0  -2   43.75    2.77
  -4   0  -2   41.89    2.68
  -4   0  -2   42.20    2.69
   5   1   2    7.81    0.96
   5   1   2    9.49    0.62
   5   1   2   10.12    0.63
   5   1   2    8.94    0.62
   5   1   2    8.79    0.60
   5   1   2    8.77    0.88
  -5  -1  -2    8.89    0.73
  -5  -1  -2   10.43    0.68
  -5  -1  -2    8.32    0.76
  -5  -1  -2    8.35    0.62
  -5  -1  -2    8.83    0.91
  -5  -1  -2    8.71    0.60
  -5  -1  -2    9.11    0.62
  -5  -1  -2   10.87    0.64
   6   2   2   24.17    1.85
   6   2   2   26.61    1.65
   6   2   2   22.51    1.60
   6   2   2   25.45    1.58
   6   2   2   24.13    1.59
   6   2   2   24.41    1.58
  -6  -2  -2   24.24    1.73
  -6  -2  -2   24.43    1.68
  -6  -2  -2   23.62    1.57
  -6  -2  -2   27.20    1.64
  -6  -2  -2   27.36    1.79
  -6  -2  -2   23.24    1.58
   7   3   2   27.97    1.79
   7   3   2   27.76    1.75
   7   3   2   28.22    1.76
   7   3   2   29.09    1.75
   7   3   2   22.88    2.00
  -7  -3  -2   26.86    1.74
  -7  -3  -2   26.71    1.89
  -7  -3  -2   27.67    1.86
   8   4   2   53.65    3.17
   8   4   2   50.27    3.19
   8   4   2   49.18    3.25
   8   4   2   51.60    3.18
   8   4   2   51.32    3.22
  -8  -4  -2   50.73    3.32
  -8  -4  -2   51.57    3.28
  -8  -4  -2   42.41    3.29
   9   5   2    0.14    0.12
   9   5   2    0.08    0.11
   9   5   2    0.07    0.08
   9   5   2    0.23    0.21
  -9  -5  -2    0.47    0.30
  -9  -5  -2    0.17    0.28
  -9  -5  -2    0.19    0.31
  10   6   2   51.71    3.17
  10   6   2   48.55    3.12
  10   6   2   48.88    3.10
 -10  -6  -2   48.41    3.16
 -10  -6  -2   50.01    3.19
 -10  -6  -2   46.01    3.21
  -3  -7   1    2.94    0.33
  -3  -7   1    2.88    0.45
  -3  -7   1    2.08    0.50
   3   7  -1    2.62    0.24
   3   7  -1    2.85    0.36
  -2  -6   1   27.88    1.82
  -2  -6   1   27.42    1.84
   2   6  -1   28.39    1.78
   2   6  -1   27.54    1.82
  -1  -5   1    5.75    0.46
  -1  -5   1    5.20    0.49
  -1  -5   1    4.28    0.76
   1   5  -1    4.24    0.76
   1   5  -1    5.42    0.44
   1   5  -1    5.68    0.39
   0  -4   1   39.10    2.58
   0  -4   1   41.43    2.62
   0  -4   1   40.69    2.64
   0   4  -1   43.18    2.60
   0   4  -1   40.21    2.62
   0   4  -1   40.44    2.57
   1  -3   1   13.12    0.85
   1  -3   1   11.80    1.31
   1  -3   1   12.30    0.83
   1  -3   1   13.05    0.89
   1  -3   1   12.57    0.82
  -1   3  -1   12.56    0.92
  -1   3  -1   13.21    0.85
  -1   3  -1   12.23    0.82
  -1   3  -1   12.01    0.81
   2  -2   1   22.03    1.60
   2  -2   1   23.49    1.45
   2  -2   1   22.64    1.45
   2  -2   1   23.67    1.47
   2  -2   1   22.98    1.50
   2  -2   1   23.16    1.52
  -2   2  -1   22.70    1.44
  -2   2  -1   22.66    1.47
  -2   2  -1   23.12    1.46
  -2   2  -1   22.90    1.50
  -2   2  -1   20.82    1.60
  -2   2  -1   22.51    1.44
   3  -1   1  124.86    7.82
   3  -1   1  130.73    7.81
  -3   1  -1  122.06    7.88
  -3   1  -1  115.34    7.81
  -3   1  -1  132.38    7.83
  -3   1  -1  121.28    7.85
   4   0   1    0.64    0.12
   4   0   1    0.14    0.38
   4   0   1    0.46    0.13
   4   0   1    0.68    0.14
   4   0   1   -0.39    0.63
   4   0   1    0.64    0.23
   4   0   1    0.56    0.12
  -4   0  -1    0.68    0.29
  -4   0  -1    0.37    0.74
  -4   0  -1    0.47    0.12
   5   1   1  778.13   48.91
   6   2   1    2.50    0.37
   6   2   1    3.19    0.32
   6   2   1    4.08    0.48
   6   2   1    3.48    0.27
   6   2   1    3.38    0.27
   6   2   1    2.71    0.54
   6   2   1    3.21    0.28
  -6  -2  -1    3.06    0.28
  -6  -2  -1    3.18    0.45
  -6  -2  -1    2.94    0.46
  -6  -2  -1    3.09    0.24
  -6  -2  -1    2.41    0.45
  -6  -2  -1    3.29    0.27
   7   3   1    6.68    0.47
   7   3   1    6.76    0.78
   7   3   1    5.05    0.62
   7   3   1    7.25    0.51
   7   3   1    6.38    0.51
   7   3   1    6.89    0.50
  -7  -3  -1    7.48    0.64
  -7  -3  -1    6.29    0.67
  -7  -3  -1    5.97    0.48
  -7  -3  -1    7.01    0.72
  -7  -3  -1    7.15    0.65
  -7  -3  -1    6.92    0.49
   8   4   1   41.71    2.54
   8   4   1   40.77    2.54
   8   4   1   40.54    2.56
   8   4   1   37.18    2.55
  -8  -4  -1   39.21    2.62
  -8  -4  -1   38.23    2.63
  -8  -4  -1   41.67    2.76
  -8  -4  -1   40.67    2.61
  -8  -4  -1   38.17    2.53
   9   5   1   19.32    1.31
   9   5   1   19.02    1.27
   9   5   1   19.83    1.30
   9   5   1   19.17    1.27
   9   5   1   20.66    1.27
  -9  -5  -1   19.93    1.36
  -9  -5  -1   19.54    1.37
  -9  -5  -1   19.32    1.26
  -9  -5  -1   19.85    1.38
  10   6   1   17.52    1.14
  10   6   1   17.90    1.12
 -10  -6  -1   18.08    1.22
 -10  -6  -1   15.96    1.21
 -10  -6  -1   17.35    1.24
  -3  -7   0   24.37    1.66
  -3  -7   0   22.77    1.71
  -3  -7   0   24.83    1.59
   3   7   0   23.70    1.53
   3   7   0   23.13    1.58
  -2  -6   0    1.49    0.48
  -2  -6   0    1.52    0.31
  -2  -6   0    1.50    0.26
   2   6   0    1.98    0.20
   2   6   0    1.63    0.24
  -1  -5   0    1.13    0.15
  -1  -5   0    1.18    0.30
  -1  -5   0    1.40    0.25
  -1  -5   0    1.46    0.50
   1   5   0    1.37    0.14
   1   5   0    1.38    0.22
   1   5   0    1.40    0.16
   0  -4   0  412.16   23.47
   0   4   0  330.85   23.45
   1  -3   0    0.97    0.12
   1  -3   0    0.88    0.18
   1  -3   0    0.68    0.13
   1  -3   0    0.88    0.23
   1  -3   0    0.74    0.44
   1  -3   0    0.32    0.50
  -1   3   0    0.91    0.19
  -1   3   0    0.74    0.17
  -1   3   0    0.84    0.46
  -1   3   0    0.82    0.10
  -1   3   0    0.87    0.12
   2  -2   0   38.36    2.41
   2  -2   0   37.95    2.39
   2  -2   0   38.34    2.44
   2  -2   0   37.49    2.40
  -2   2   0   37.78    2.40
  -2   2   0   37.46    2.40
  -2   2   0   38.31    2.39
  -2   2   0   38.00    2.42
  -2   2   0   37.71    2.43
   3  -1   0   17.03    1.04
   3  -1   0   15.00    1.02
   3  -1   0   14.28    1.01
   3  -1   0   15.81    1.00
   3  -1   0   16.28    1.00
   3  -1   0   17.00    1.04
   3  -1   0   15.17    1.00
   3  -1   0   15.61    1.00
  -3   1   0   15.91    1.03
  -3   1   0   15.58    1.00
  -3   1   0   16.05    1.03
  -3   1   0   13.54    1.17
  -3   1   0   15.56    1.00
  -3   1   0   16.29    1.00
   4   0   0   74.81    4.60
   4   0   0   71.12    4.60
   4   0   0   66.95    4.60
   4   0   0   65.28    4.61
   4   0   0   62.61    4.59
   4   0   0   73.55    4.58
  -4   0   0   79.34    4.58
  -4   0   0   75.42    4.58
  -4   0   0   76.85    4.60
  -4   0   0   78.78    4.60
   5   1   0   15.78    1.00
   5   1   0   13.36    1.06
   5   1   0   14.16    0.99
   5   1   0   15.60    1.05
   5   1   0   16.08    1.07
   5   1   0   14.13    0.98
  -5  -1   0   15.34    1.00
  -5  -1   0   14.72    1.05
  -5  -1   0   15.19    1.03
  -5  -1   0   15.39    0.98
  -5  -1   0   14.36    0.99
  -5  -1   0   14.86    0.98
   6   2   0   99.63    6.06
   6   2   0   93.76    6.08
   6   2   0   93.20    6.09
   6   2   0  102.40    6.06
   6   2   0   91.30    6.09
   6   2   0   99.97    6.06
  -6  -2   0   98.51    6.06
  -6  -2   0   86.72    6.06
  -6  -2   0   90.13    6.10
  -6  -2   0  102.73    6.09
  -6  -2   0   98.47    6.05
  -6  -2   0  103.05    6.10
  -6  -2   0   90.20    6.09
   7   3   0   26.21    1.71
   7   3   0   25.36    1.80
   7   3   0   27.89    1.72
   7   3   0   27.58    1.69
   7   3   0   27.78    1.71
  -7  -3   0   26.54    1.76
  -7  -3   0   22.85    1.75
  -7  -3   0   28.88    1.76
  -7  -3   0   27.99    1.76
  -7  -3   0   27.26    1.70
  -7  -3   0   25.07    1.78
  -7  -3   0   24.03    1.70
   8   4   0   61.27    3.94
   8   4   0   64.84    3.94
   8   4   0   63.60    3.91
   8   4   0   63.08    3.93
   8   4   0   56.34    3.92
  -8  -4   0   65.07    3.98
  -8  -4   0   63.82    3.97
  -8  -4   0   54.43    3.92
  -8  -4   0   59.12    3.98
  -8  -4   0   70.73    3.97
  -8  -4   0   59.06    3.99
   9   5   0    0.22    0.11
   9   5   0    0.36    0.14
   9   5   0    0.30    0.12
   9   5   0    0.37    0.18
  -9  -5   0    0.30    0.17
  -9  -5   0   -0.07    0.24
  -9  -5   0    0.14    0.22
  -9  -5   0    0.17    0.29
  10   6   0   76.82    4.85
  10   6   0   80.05    4.91
  10   6   0   76.90    4.88
 -10  -6   0   75.50    4.92
 -10  -6   0   79.08    4.93
 -10  -6   0   74.45    4.86
 -10  -6   0   76.26    4.91
  -3  -7  -1    3.94    0.41
  -3  -7  -1    2.66    0.46
  -3  -7  -1    2.60    0.53
   3   7   1    3.29    0.25
   3   7   1    3.16    0.36
  -2  -6  -1   27.36    1.90
  -2  -6  -1   28.41    1.88
   2   6   1   28.22    1.82
   2   6   1   28.03    1.87
   2   6   1   29.73    1.80
  -1  -5  -1    5.61    0.57
  -1  -5  -1    5.50    0.76
  -1  -5  -1    6.38    0.52
   1   5   1    5.10    0.48
   1   5   1    5.69    0.40
   1   5   1    5.79    0.41
   0  -4  -1   41.21    2.66
   0  -4  -1   39.75    2.56
   0  -4  -1   37.63    2.77
   0  -4  -1   40.68    2.61
   0   4   1   42.86    2.56
   0   4   1   40.21    2.57
   0   4   1   39.93    2.61
   0   4   1   41.03    2.59
   1  -3  -1   12.16    1.12
   1  -3  -1   13.13    0.95
   1  -3  -1   12.02    0.84
   1  -3  -1   13.95    0.90
   1  -3  -1   13.96    0.89
  -1   3   1   13.88    0.90
  -1   3   1   12.35    0.84
  -1   3   1   12.48    0.85
  -1   3   1   12.89    0.85
   2  -2  -1   22.42    1.44
   2  -2  -1   22.88    1.51
   2  -2  -1   22.07    1.47
   2  -2  -1   22.33    1.45
   2  -2  -1   20.17    1.65
   2  -2  -1   22.94    1.46
  -2   2   1   22.53    1.45
  -2   2   1   22.94    1.48
  -2   2   1   23.53    1.44
  -2   2   1   23.07    1.50
  -2   2   1   23.55    1.44
   3  -1  -1  114.33    7.68
   3  -1  -1  117.50    7.68
   3  -1  -1  123.51    7.61
   3  -1  -1  124.97    7.64
  -3   1   1  129.61    7.61
  -3   1   1  111.03    7.71
  -3   1   1  118.50    7.67
  -3   1   1  127.06    7.62
  -3   1   1  122.45    7.68
   4   0  -1    1.45    0.68
   4   0  -1    1.33    0.18
   4   0  -1    1.42    0.35
   4   0  -1    1.26    0.26
   4   0  -1    0.76    0.47
  -4   0   1    1.45    0.50
  -4   0   1    0.79    0.15
  -4   0   1    1.21    0.36
  -4   0   1    1.43    0.29
   6   2  -1    3.99    0.35
   6   2  -1    3.48    0.37
   6   2  -1    2.96    0.35
   6   2  -1    2.55    0.45
   6   2  -1    3.60    0.35
   6   2  -1    3.78    0.31
   6   2  -1    3.95    0.36
   6   2  -1    4.07    0.40
  -6  -2   1    3.47    0.33
  -6  -2   1    3.49    0.32
  -6  -2   1    3.42    0.34
  -6  -2   1    3.60    0.32
  -6  -2   1    3.47    0.38
   7   3  -1    6.25    0.54
   7   3  -1    7.72    0.52
   7   3  -1    7.25    0.50
   7   3  -1    6.22    0.55
   7   3  -1    6.23    0.57
   7   3  -1    7.04    0.51
   7   3  -1    7.12    0.76
  -7  -3   1    7.32    0.54
  -7  -3   1    6.98    0.58
  -7  -3   1    7.45    0.55
   8   4  -1   41.65    2.56
   8   4  -1   40.18    2.54
   8   4  -1   41.53    2.53
   8   4  -1   36.98    2.56
   8   4  -1   40.24    2.58
   8   4  -1   36.15    2.67
  -8  -4   1   41.60    2.58
  -8  -4   1   40.11    2.58
  -8  -4   1   38.34    2.65
  -8  -4   1   40.69    2.68
  -8  -4   1   41.40    2.59
   9   5  -1   18.96    1.28
   9   5  -1   16.34    1.34
   9   5  -1   20.13    1.25
   9   5  -1   19.27    1.22
   9   5  -1   19.10    1.27
  -9  -5   1   19.87    1.30
  -9  -5   1   19.28    1.37
  -9  -5   1   19.96    1.30
  10   6  -1   17.45    1.11
  10   6  -1   17.35    1.18
  10   6  -1   17.31    1.14
 -10  -6   1   17.09    1.19
 -10  -6   1   16.28    1.23
 -10  -6   1   18.85    1.20
   3   7   2   19.84    1.29
  -2  -6  -2    2.80    0.52
  -2  -6  -2    3.38    0.46
   2   6   2    3.04    0.25
   2   6   2    2.54    0.38
   2   6   2    3.21    0.26
  -1  -5  -2    0.57    0.31
  -1  -5  -2    0.25    0.44
  -1  -5  -2    0.54    0.30
   1   5   2    0.54    0.12
   1   5   2    0.56    0.25
   0  -4  -2  308.10   19.27
   0  -4  -2  297.76   19.26
   0  -4  -2  316.44   19.34
   0   4   2  306.81   19.25
   0   4   2  303.54   19.21
   0   4   2  302.38   19.21
   1  -3  -2    1.87    0.42
   1  -3  -2    2.02    0.44
   1  -3  -2    1.87    0.39
   1  -3  -2    2.05    0.63
  -1   3   2    2.34    0.21
  -1   3   2    2.91    0.41
  -1   3   2    1.95    0.22
   2  -2  -2   40.82    2.66
   2  -2  -2   40.61    2.68
   2  -2  -2   40.01    2.78
   2  -2  -2   40.00    2.57
   2  -2  -2   40.60    2.72
   2  -2  -2   39.87    2.58
   2  -2  -2   40.25    2.58
  -2   2   2   41.11    2.58
  -2   2   2   40.19    2.57
  -2   2   2   38.74    2.78
  -2   2   2   40.76    2.58
  -2   2   2   45.33    2.72
   3  -1  -2   15.36    0.97
   3  -1  -2   13.18    1.12
   3  -1  -2   11.92    1.18
   3  -1  -2   14.73    1.23
   3  -1  -2   15.94    0.97
   3  -1  -2   16.16    0.97
  -3   1   2   16.16    0.97
  -3   1   2   15.54    0.97
  -3   1   2   11.69    1.17
  -3   1   2   14.99    1.01
  -3   1   2   16.00    0.97
  -3   1   2   13.97    1.15
   4   0  -2   43.16    2.79
   4   0  -2   40.31    2.79
   4   0  -2   43.07    2.67
   4   0  -2   40.23    2.71
   4   0  -2   43.66    2.67
   4   0  -2   43.22    2.68
   4   0  -2   43.08    2.66
  -4   0   2   43.50    2.67
  -4   0   2   40.76    2.70
  -4   0   2   45.62    2.72
  -4   0   2   42.72    2.66
  -4   0   2   35.91    2.77
  -4   0   2   40.79    2.75
  -4   0   2   43.08    2.67
   5   1  -2    9.10    0.62
   5   1  -2   10.12    0.76
   5   1  -2   10.08    0.85
   5   1  -2    9.67    0.64
   5   1  -2    9.62    0.74
   5   1  -2    9.46    0.64
   5   1  -2    9.50    0.64
  -5  -1   2    8.72    0.64
  -5  -1   2    9.84    0.63
  -5  -1   2    7.74    0.73
  -5  -1   2    8.68    0.82
  -5  -1   2    9.20    0.63
  -5  -1   2    9.56    0.64
  -5  -1   2    9.58    0.78
  -5  -1   2    9.11    0.71
   6   2  -2   25.19    1.65
   6   2  -2   28.34    1.74
   6   2  -2   23.96    1.78
   6   2  -2   26.75    1.63
   6   2  -2   25.23    1.69
   6   2  -2   26.00    1.66
  -6  -2   2   26.43    1.66
  -6  -2   2   24.74    1.67
  -6  -2   2   25.07    1.65
  -6  -2   2   26.19    1.70
  -6  -2   2   23.75    1.64
   7   3  -2   27.84    1.75
   7   3  -2   27.19    1.78
   7   3  -2   24.52    1.91
   7   3  -2   25.18    1.79
   7   3  -2   24.63    1.76
   7   3  -2   27.58    1.73
  -7  -3   2   29.93    1.90
  -7  -3   2   27.53    1.75
  -7  -3   2   26.45    1.81
  -7  -3   2   29.20    1.77
  -7  -3   2   27.85    1.76
   8   4  -2   48.50    3.26
   8   4  -2   49.79    3.31
   8   4  -2   50.53    3.28
   8   4  -2   60.83    3.82
   8   4  -2   51.19    3.26
  -8  -4   2   52.45    3.30
  -8  -4   2   51.27    3.31
  -8  -4   2   51.60    3.29
   9   5  -2   -0.13    0.36
   9   5  -2   -0.02    0.13
   9   5  -2    0.21    0.19
  -9  -5   2    0.53    0.36
  -9  -5   2    0.10    0.19
  -9  -5   2    0.14    0.15
  -9  -5   2    0.04    0.18
  10   6  -2   42.55    3.10
  10   6  -2   48.32    3.02
  10   6  -2   48.48    3.06
 -10  -6   2   45.34    3.04
 -10  -6   2   48.36    3.05
 -10  -6   2   50.61    3.06
 -10  -6   2   48.24    3.11
  -2  -6  -3   18.44    1.30
  -2  -6  -3   17.76    1.34
  -2  -6  -3   18.43    1.26
   2   6   3   17.06    1.15
   2   6   3   17.31    1.15
   2   6   3   17.35    1.28
  -1  -5  -3   11.81    0.89
  -1  -5  -3   10.64    1.02
  -1  -5  -3   10.91    0.91
   1   5   3   10.75    0.73
   1   5   3   10.82    0.72
   1   5   3   10.18    0.88
   0  -4  -3   13.16    1.15
   0  -4  -3   12.05    1.06
   0  -4  -3   13.25    1.07
   0   4   3   13.17    0.87
   0   4   3   13.91    1.06
   0   4   3   13.50    0.87
   1  -3  -3   21.64    1.65
   1  -3  -3   20.81    1.59
   1  -3  -3   20.89    1.37
   1  -3  -3   22.34    1.69
  -1   3   3   21.74    1.38
  -1   3   3   21.56    1.37
  -1   3   3   21.15    1.38
   2  -2  -3   10.21    1.12
   2  -2  -3    7.08    1.08
   2  -2  -3   10.77    1.08
   2  -2  -3    9.64    1.03
   2  -2  -3   10.59    0.71
  -2   2   3   11.22    0.70
  -2   2   3   10.67    0.70
  -2   2   3   11.05    0.70
  -2   2   3   10.08    0.79
   3  -1  -3   59.51    3.65
   3  -1  -3   59.22    3.62
   3  -1  -3   50.54    3.80
   3  -1  -3   56.93    3.79
   3  -1  -3   53.42    3.79
  -3   1   3   60.59    3.62
  -3   1   3   59.12    3.62
  -3   1   3   54.04    3.65
  -3   1   3   59.88    3.62
   4   0  -3    0.15    0.11
   4   0  -3   -0.08    0.30
   4   0  -3    0.08    0.11
   4   0  -3   -0.45    0.43
   4   0  -3   -0.11    0.10
   4   0  -3    0.29    0.40
   4   0  -3   -0.23    0.41
  -4   0   3    0.01    0.10
  -4   0   3    0.18    0.25
  -4   0   3    0.01    0.44
  -4   0   3    0.28    0.29
  -4   0   3   -0.13    0.10
  -4   0   3   -0.10    0.12
  -4   0   3    0.17    0.60
   5   1  -3  628.10   38.87
   5   1  -3  616.35   38.73
   5   1  -3  625.95   38.76
   5   1  -3  553.90   38.74
  -5  -1   3  650.61   38.73
  -5  -1   3  628.56   38.81
   6   2  -3    0.16    0.21
   6   2  -3    0.41    0.10
   6   2  -3    0.10    0.26
   6   2  -3    0.27    0.52
  -6  -2   3    0.07    0.35
  -6  -2   3    0.16    0.14
  -6  -2   3    0.21    0.15
  -6  -2   3    0.01    0.38
  -6  -2   3    0.36    0.16
   7   3  -3   10.23    0.69
   7   3  -3   10.97    0.81
   7   3  -3   11.15    0.75
   7   3  -3    9.98    1.04
   7   3  -3    9.75    0.79
  -7  -3   3   10.96    0.74
  -7  -3   3   10.73    0.77
  -7  -3   3   10.48    0.73
  -7  -3   3   11.00    0.76
   8   4  -3   22.90    1.61
   8   4  -3   21.30    1.41
   8   4  -3   21.34    1.45
  -8  -4   3   21.68    1.42
  -8  -4   3   21.39    1.43
  -8  -4   3   22.11    1.42
   9   5  -3   10.99    0.83
   9   5  -3   13.78    1.01
   9   5  -3   11.05    0.77
  -9  -5   3   11.63    0.79
  -9  -5   3   10.78    0.80
  -9  -5   3   11.49    0.81
  10   6  -3   11.73    0.77
  10   6  -3   10.77    0.94
  10   6  -3   11.17    0.85
 -10  -6   3   10.85    0.81
 -10  -6   3   12.23    0.92
 -10  -6   3   11.97    0.94
 -10  -6   3   11.38    0.79
  -2  -6  -4    2.71    0.50
  -2  -6  -4    2.79    0.51
  -2  -6  -4    3.73    0.54
   2   6   4    2.84    0.25
   2   6   4    2.53    0.28
  -1  -5  -4    0.62    0.38
  -1  -5  -4    0.34    0.42
  -1  -5  -4    0.18    0.43
   1   5   4    0.53    0.12
   1   5   4    0.50    0.12
   0  -4  -4  170.89   10.43
   0  -4  -4  171.35   10.39
   0  -4  -4  136.44   10.27
   0  -4  -4  156.20   10.37
   0   4   4  171.59   10.28
   0   4   4  169.58   10.27
   0   4   4  165.61   10.24
   1  -3  -4    0.17    0.60
   1  -3  -4    0.27    0.50
   1  -3  -4    0.36    0.53
  -1   3   4    0.19    0.12
  -1   3   4   -0.06    0.12
  -1   3   4   -0.08    0.11
   2  -2  -4   16.42    1.67
   2  -2  -4   17.45    1.50
   2  -2  -4   14.62    1.60
  -2   2   4   19.57    1.17
  -2   2   4   18.39    1.17
   3  -1  -4    1.53    0.85
   3  -1  -4    2.81    0.66
   3  -1  -4    2.40    0.60
  -3   1   4    2.47    0.42
  -3   1   4    2.07    0.24
  -3   1   4    2.54    0.30
  -3   1   4    1.72    0.26
  -3   1   4    2.36    0.32
  -3   1   4    2.44    0.21
   4   0  -4   44.63    2.91
   4   0  -4   43.01    3.06
   4   0  -4   46.18    3.03
   4   0  -4   42.03    3.00
   4   0  -4   43.60    3.12
  -4   0   4   46.20    2.98
  -4   0   4   48.77    2.93
  -4   0   4   48.57    2.92
  -4   0   4   46.47    2.94
  -4   0   4   47.98    2.91
  -4   0   4   46.97    2.99
   5   1  -4    0.74    0.39
   5   1  -4    0.58    0.19
   5   1  -4    0.45    0.24
   5   1  -4    0.10    0.33
   5   1  -4    0.19    0.55
  -5  -1   4    0.32    0.15
  -5  -1   4    0.62    0.16
  -5  -1   4    1.17    0.44
  -5  -1   4    0.29    0.12
   6   2  -4   23.48    1.82
   6   2  -4   25.19    2.01
   6   2  -4   28.35    1.77
   6   2  -4   26.91    1.81
   6   2  -4   27.41    1.77
  -6  -2   4   27.20    1.84
  -6  -2   4   28.58    1.76
  -6  -2   4   27.96    1.75
  -6  -2   4   28.22    1.76
  -6  -2   4   27.60    1.76
   7   3  -4    7.81    0.63
   7   3  -4    9.03    0.61
   7   3  -4    8.06    0.53
   7   3  -4    6.47    0.85
  -7  -3   4    7.91    0.58
  -7  -3   4    7.75    0.56
  -7  -3   4    7.71    0.59
  -7  -3   4    7.80    0.56
   8   4  -4   16.90    1.32
   8   4  -4   16.03    1.08
   8   4  -4   17.86    1.15
  -8  -4   4   16.74    1.12
  -8  -4   4   15.78    1.10
  -8  -4   4   16.55    1.11
   9   5  -4    0.33    0.38
   9   5  -4    0.32    0.12
   9   5  -4    0.37    0.18
  -9  -5   4   -0.03    0.16
  -9  -5   4    0.25    0.13
  -9  -5   4    0.17    0.16
  -1  -5  -5    7.05    0.75
  -1  -5  -5    5.05    0.78
  -1  -5  -5    7.71    0.79
   1   5   5    6.63    0.47
   1   5   5    6.33    0.47
   0  -4  -5    8.73    0.90
   0  -4  -5    7.73    0.83
   0  -4  -5    6.49    0.85
   0   4   5    7.32    0.53
   0   4   5    7.76    0.54
   0   4   5    7.61    0.51
   1  -3  -5   26.53    1.94
   1  -3  -5   24.49    1.90
   1  -3  -5   26.49    2.02
  -1   3   5   27.76    1.73
  -1   3   5   27.49    1.73
  -1   3   5   27.63    1.72
   2  -2  -5    4.70    0.90
   2  -2  -5    5.69    0.81
   2  -2  -5    5.26    0.73
  -2   2   5    5.90    0.44
  -2   2   5    5.88    0.42
  -2   2   5    5.55    0.42
   3  -1  -5   18.67    1.32
   3  -1  -5   19.15    1.36
   3  -1  -5   18.06    1.61
   3  -1  -5   19.76    1.49
  -3   1   5   20.00    1.23
  -3   1   5   19.55    1.23
  -3   1   5   15.78    1.27
  -3   1   5   19.53    1.21
   4   0  -5   -0.60    0.38
   4   0  -5    0.23    0.32
   4   0  -5   -0.27    0.50
   4   0  -5   -0.04    0.10
   4   0  -5   -0.10    0.50
  -4   0   5   -0.03    0.11
  -4   0   5   -0.17    0.13
  -4   0   5    0.05    0.12
   5   1  -5  187.33   12.04
   5   1  -5  183.08   11.87
   5   1  -5  192.08   11.91
   5   1  -5  181.36   11.91
   5   1  -5  170.52   11.84
  -5  -1   5  195.38   11.85
  -5  -1   5  202.99   11.87
  -5  -1   5  195.88   11.86
   6   2  -5    0.38    0.49
   6   2  -5    0.30    0.17
   6   2  -5    0.10    0.23
   6   2  -5    0.23    0.16
  -6  -2   5    0.14    0.12
  -6  -2   5    0.41    0.16
  -6  -2   5    0.12    0.15
   7   3  -5   16.89    1.03
   7   3  -5   15.38    1.09
  -7  -3   5   15.87    1.05
  -7  -3   5   15.20    1.04
  -7  -3   5   15.50    1.06
  -7  -3   5   15.42    1.04
   8   4  -5   11.97    0.74
   8   4  -5   11.37    0.81
   8   4  -5    9.87    1.01
  -8  -4   5   10.54    0.76
  -8  -4   5   11.41    0.76
  -8  -4   5   11.27    0.78
   0  -4  -6   39.20    2.58
   0  -4  -6   40.48    2.67
   0   4   6   36.76    2.40
   0   4   6   35.73    2.38
   0   4   6   36.87    2.40
   1  -3  -6    0.60    0.36
   1  -3  -6    1.31    0.63
   1  -3  -6    0.63    0.45
  -1   3   6    0.50    0.13
  -1   3   6    0.31    0.14
   2  -2  -6   10.99    1.03
   2  -2  -6   11.23    0.89
   2  -2  -6   11.78    1.25
  -2   2   6   11.95    0.79
  -2   2   6   11.19    0.75
  -2   2   6   10.54    0.75
   3  -1  -6    1.03    0.32
   3  -1  -6    1.10    0.51
   3  -1  -6    0.79    0.52
   3  -1  -6    0.63    0.30
  -3   1   6    0.75    0.14
  -3   1   6    0.47    0.14
  -3   1   6    0.78    0.25
  -3   1   6    0.59    0.12
   4   0  -6   20.59    1.42
   4   0  -6   19.30    1.54
   4   0  -6   19.59    1.36
  -4   0   6   20.26    1.30
  -4   0   6   19.96    1.29
  -4   0   6   18.85    1.27
   5   1  -6    1.71    0.52
   5   1  -6    0.94    0.24
   5   1  -6    1.46    0.24
   5   1  -6    1.54    0.29
  -5  -1   6    1.19    0.18
  -5  -1   6    1.34    0.18
  -5  -1   6    1.22    0.18
   6   2  -6   25.08    1.63
   6   2  -6   25.35    1.85
   6   2  -6   23.84    1.60
   6   2  -6   23.77    1.57
  -6  -2   6   24.59    1.58
  -6  -2   6   24.10    1.59
  -6  -2   6   25.20    1.59
   7   3  -6    5.11    0.75
   7   3  -6    5.79    0.37
   7   3  -6    5.30    0.47
  -7  -3   6    4.47    0.39
  -7  -3   6    5.37    0.40
  -7  -3   6    4.70    0.41
  -7  -3   6    4.87    0.40
   2  -2  -7    2.33    0.35
   2  -2  -7    2.77    0.55
   2  -2  -7    2.18    0.58
   2  -2  -7    2.07    0.34
  -2   2   7    2.40    0.30
  -2   2   7    2.04    0.23
  -2   2   7    2.18    0.23
   3  -1  -7    4.15    0.54
   3  -1  -7    6.66    0.70
   3  -1  -7    5.72    0.50
  -3   1   7    4.58    0.37
  -3   1   7    5.37    0.40
  -3   1   7    5.12    0.39
   4   0  -7    0.44    0.23
   4   0  -7    0.67    0.27
   4   0  -7    0.80    0.59
   5   1  -7   40.08    2.57
   5   1  -7   37.48    2.56
  -5  -1   7   39.92    2.55
  -5  -1   7   41.23    2.54
  -5  -1   7   39.80    2.53
   4  -2   7    0.06    0.14
   4  -2   7    0.10    0.11
   4  -2   7   -0.20    0.14
  -4   2  -7    0.35    0.31
  -4   2  -7    0.50    0.34
  -4   2  -7    0.34    0.13
   5  -1   7   41.99    2.63
   5  -1   7   40.14    2.63
   5  -1   7   40.30    2.61
  -5   1  -7   42.63    2.90
  -5   1  -7   40.96    2.80
  -5   1  -7   40.94    2.61
   6   0   7   -0.11    0.15
   6   0   7    0.18    0.12
  -6   0  -7    0.40    0.48
   7   1   7   10.77    0.76
   7   1   7   11.48    0.79
   7   1   7   10.69    0.74
   2  -4   6    4.46    0.48
   2  -4   6    4.89    0.40
   2  -4   6    4.39    0.56
  -2   4  -6    5.84    0.73
  -2   4  -6    5.13    0.40
   3  -3   6    4.24    0.36
   3  -3   6    3.84    0.31
   3  -3   6    3.73    0.37
   3  -3   6    4.00    0.47
  -3   3  -6    4.42    0.35
  -3   3  -6    5.33    0.63
  -3   3  -6    3.99    0.46
   4  -2   6   17.17    1.15
   4  -2   6   17.13    1.12
   4  -2   6   17.82    1.15
  -4   2  -6   16.49    1.30
  -4   2  -6   17.14    1.28
  -4   2  -6   18.20    1.14
   5  -1   6    1.43    0.19
   5  -1   6    1.42    0.20
  -5   1  -6    1.47    0.48
  -5   1  -6    1.26    0.39
  -5   1  -6    1.49    0.20
   6   0   6   28.03    1.81
   6   0   6   26.86    1.82
   6   0   6   29.04    1.81
  -6   0  -6   28.10    2.10
  -6   0  -6   28.88    1.79
  -6   0  -6   26.84    1.93
   7   1   6    0.91    0.16
   7   1   6    0.91    0.17
   7   1   6    0.94    0.18
  -7  -1  -6    1.85    0.65
  -7  -1  -6    1.11    0.34
   8   2   6    9.04    0.63
   8   2   6    8.65    0.61
   8   2   6    8.33    0.61
   8   2   6    8.21    0.60
  -8  -2  -6    9.83    1.07
  -8  -2  -6    8.85    0.75
   9   3   6    0.27    0.15
   9   3   6    0.17    0.12
   9   3   6    0.21    0.17
   9   3   6   -0.19    0.13
  -9  -3  -6    0.37    0.17
  -9  -3  -6    1.02    0.56
  -9  -3  -6    0.54    0.30
   1  -5   5    6.06    0.53
   1  -5   5    6.16    0.46
  -1   5  -5    6.51    0.80
  -1   5  -5    6.33    0.48
   2  -4   5   11.60    0.79
   2  -4   5   12.27    0.82
   2  -4   5   11.03    0.85
  -2   4  -5   11.60    0.80
  -2   4  -5   11.78    1.04
   3  -3   5   10.36    0.82
   3  -3   5   10.88    0.73
   3  -3   5    9.72    0.69
   3  -3   5   10.61    0.74
  -3   3  -5   10.90    0.73
  -3   3  -5   10.41    0.82
  -3   3  -5   11.32    0.96
   4  -2   5    0.13    0.16
   4  -2   5    0.15    0.15
  -4   2  -5    0.37    0.33
  -4   2  -5    0.34    0.14
  -4   2  -5    0.37    0.35
   5  -1   5  196.24   12.07
   5  -1   5  196.28   12.07
   5  -1   5  196.74   12.04
  -5   1  -5  195.98   12.05
  -5   1  -5  189.74   12.18
  -5   1  -5  175.19   12.23
   6   0   5    0.29    0.16
   6   0   5   -0.07    0.13
   6   0   5   -0.06    0.14
  -6   0  -5    0.08    0.33
  -6   0  -5   -0.06    0.57
  -6   0  -5    0.09    0.12
   7   1   5   15.96    1.03
   7   1   5   15.89    1.05
   7   1   5   16.07    1.03
   7   1   5   14.41    1.01
   7   1   5   13.96    1.04
  -7  -1  -5   14.56    1.04
  -7  -1  -5   16.18    1.16
  -7  -1  -5   14.89    0.99
  -7  -1  -5   16.72    1.06
  -7  -1  -5   16.63    1.00
   8   2   5    5.13    0.40
   8   2   5    5.57    0.40
   8   2   5    5.68    0.48
   8   2   5    4.87    0.40
  -8  -2  -5    5.14    0.45
  -8  -2  -5    4.83    0.58
  -8  -2  -5    4.95    0.35
   9   3   5   15.23    1.01
   9   3   5   15.22    1.00
   9   3   5   15.91    1.02
  -9  -3  -5   15.01    1.32
  -9  -3  -5   15.30    1.07
  10   4   5    4.18    0.34
  10   4   5    4.25    0.36
  10   4   5    4.15    0.34
 -10  -4  -5    4.89    0.68
 -10  -4  -5    4.63    0.45
 -10  -4  -5    4.76    0.50
   0  -6   4   36.41    2.30
   0  -6   4   34.84    2.33
   0  -6   4   37.46    2.33
   0   6  -4   38.53    2.28
   0   6  -4   31.27    2.53
   0   6  -4   36.35    2.33
   1  -5   4    0.49    0.13
   1  -5   4    0.43    0.18
   1  -5   4    0.45    0.21
  -1   5  -4    0.42    0.15
  -1   5  -4    0.80    0.46
  -1   5  -4    0.64    0.09
   2  -4   4   10.29    0.78
   2  -4   4   10.54    0.75
   2  -4   4   10.34    0.71
  -2   4  -4   10.49    0.73
  -2   4  -4   10.60    0.67
   3  -3   4   15.57    1.12
   3  -3   4   15.51    1.03
   3  -3   4   15.72    1.05
  -3   3  -4   15.67    1.04
  -3   3  -4   15.38    1.24
  -3   3  -4   15.33    1.12
   4  -2   4   22.52    1.42
   4  -2   4   23.56    1.43
   4  -2   4   20.92    1.38
  -4   2  -4   21.71    1.57
  -4   2  -4   20.77    1.58
  -4   2  -4   22.39    1.41
  -4   2  -4   19.89    1.39
   5  -1   4    0.39    0.43
   5  -1   4    0.34    0.13
   5  -1   4    0.55    0.18
   5  -1   4    0.59    0.16
  -5   1  -4    0.42    0.15
  -5   1  -4    0.16    0.55
   6   0   4   42.44    2.70
   6   0   4   36.03    2.78
   6   0   4   42.70    2.67
   6   0   4   45.29    2.68
  -6   0  -4   41.73    2.79
  -6   0  -4   42.99    2.66
   7   1   4    6.27    0.44
   7   1   4    5.13    0.38
   7   1   4    5.06    0.44
   7   1   4    5.20    0.52
   7   1   4    6.16    0.44
  -7  -1  -4    5.75    0.46
  -7  -1  -4    4.94    0.64
  -7  -1  -4    5.58    0.38
  -7  -1  -4    5.28    0.40
  -7  -1  -4    5.09    0.50
  -7  -1  -4    5.37    1.01
   8   2   4   45.42    2.96
   8   2   4   49.36    2.98
   8   2   4   47.40    2.98
  -8  -2  -4   46.08    3.23
  -8  -2  -4   45.10    3.04
  -8  -2  -4   47.51    3.07
   9   3   4    0.19    0.12
   9   3   4    0.19    0.11
   9   3   4    0.13    0.14
  -9  -3  -4    0.53    0.31
  -9  -3  -4    0.09    0.45
  -9  -3  -4   -0.10    0.21
  -9  -3  -4    0.39    0.28
  10   4   4   78.90    5.19
  10   4   4   85.18    5.20
  10   4   4   80.58    5.18
 -10  -4  -4   84.18    5.25
 -10  -4  -4   78.96    5.21
 -10  -4  -4   80.29    5.28
 -10  -4  -4   84.06    5.33
 -10  -4  -4   84.76    5.17
  11   5   4    0.64    0.12
  11   5   4    0.86    0.16
  11   5   4    0.86    0.15
 -11  -5  -4    1.48    0.32
 -11  -5  -4    1.25    0.30
 -11  -5  -4    1.01    0.37
 -11  -5  -4    0.90    0.36
   0  -6   3   16.40    1.09
   0  -6   3   15.59    1.05
   0  -6   3   15.42    1.10
   0   6  -3   16.14    1.08
   0   6  -3   16.89    1.04
   1  -5   3   11.06    0.74
   1  -5   3    9.56    0.69
   1  -5   3    9.57    0.79
  -1   5  -3    7.69    1.11
  -1   5  -3   10.23    0.72
  -1   5  -3   11.67    0.68
   2  -4   3   27.03    1.80
   2  -4   3   29.04    1.74
   2  -4   3   27.83    1.77
  -2   4  -3   26.59    1.76
  -2   4  -3   27.35    1.72
  -2   4  -3   24.17    1.96
   3  -3   3   32.39    2.12
   3  -3   3   32.93    2.07
   3  -3   3   32.76    2.05
   3  -3   3   30.01    2.04
  -3   3  -3   31.94    2.06
  -3   3  -3   31.84    2.13
  -3   3  -3   31.93    2.25
  -3   3  -3   32.40    2.02
   4  -2   3    0.62    0.17
   4  -2   3    0.30    0.10
   4  -2   3    0.40    0.16
  -4   2  -3    0.39    0.38
  -4   2  -3    0.14    0.38
  -4   2  -3    0.29    0.09
  -4   2  -3    0.37    0.14
   5  -1   3  627.60   38.61
  -5   1  -3  680.75   38.76
  -5   1  -3  538.50   38.76
   6   0   3    0.17    0.19
   6   0   3   -0.09    0.22
   6   0   3   -0.08    0.45
   6   0   3   -0.02    0.12
   6   0   3    0.28    0.35
   6   0   3    0.00    0.13
  -6   0  -3   -0.50    0.28
  -6   0  -3   -0.05    0.10
  -6   0  -3    0.20    0.60
  -6   0  -3    0.13    0.18
  -6   0  -3    0.14    0.10
   7   1   3   21.70    1.32
   7   1   3   21.29    1.68
   7   1   3   21.18    1.32
   7   1   3   20.56    1.30
  -7  -1  -3   19.47    1.30
  -7  -1  -3   18.65    1.73
  -7  -1  -3   19.24    1.40
  -7  -1  -3   19.68    1.42
   8   2   3   15.43    0.99
   8   2   3   16.37    0.99
   8   2   3   15.09    0.97
  -8  -2  -3   13.23    1.16
  -8  -2  -3   14.22    1.29
  -8  -2  -3   14.29    0.97
  -8  -2  -3   14.58    1.10
   9   3   3   40.26    2.60
   9   3   3   40.32    2.58
   9   3   3   40.32    2.59
  -9  -3  -3   40.91    2.66
  -9  -3  -3   37.71    2.55
  -9  -3  -3   45.04    2.75
  -9  -3  -3   39.62    2.73
  10   4   3   15.44    1.05
  10   4   3   14.28    0.94
  10   4   3   14.15    0.93
  10   4   3   14.97    0.95
 -10  -4  -3   14.03    1.03
 -10  -4  -3   13.85    0.92
 -10  -4  -3   12.97    1.15
  11   5   3    8.82    0.61
  11   5   3    8.04    0.58
  11   5   3    8.76    0.73
  11   5   3    8.56    0.61
 -11  -5  -3    9.19    0.76
 -11  -5  -3    9.54    0.70
  12   6   3   10.62    0.81
  12   6   3   13.41    0.90
  12   6   3   11.13    0.77
 -12  -6  -3   11.46    0.89
 -12  -6  -3   11.41    0.90
  -1  -7   2    0.60    0.21
  -1  -7   2    0.30    0.45
  -1  -7   2    0.22    0.23
   1   7  -2   -0.05    0.36
   1   7  -2    0.40    0.16
   1   7  -2    0.36    0.10
   0  -6   2   93.53    5.94
   0  -6   2   91.90    5.95
   0  -6   2   93.68    5.91
   0   6  -2   91.41    5.94
   0   6  -2   98.16    5.91
   1  -5   2    0.58    0.22
   1  -5   2    0.61    0.18
   1  -5   2    0.50    0.11
  -1   5  -2   -0.17    0.46
  -1   5  -2    0.51    0.16
  -1   5  -2    0.64    0.11
  -1   5  -2    0.24    0.09
   2  -4   2    9.22    0.65
   2  -4   2    8.78    0.70
   2  -4   2    8.55    0.60
  -2   4  -2    9.02    0.64
  -2   4  -2    7.99    1.03
  -2   4  -2    8.50    0.59
  -2   4  -2    9.29    0.59
   3  -3   2   43.46    2.66
   3  -3   2   43.29    2.64
   3  -3   2   41.36    2.64
   3  -3   2   41.49    2.74
  -3   3  -2   39.70    2.73
  -3   3  -2   38.42    2.92
  -3   3  -2   42.37    2.63
  -3   3  -2   42.24    2.64
   4  -2   2   53.93    3.67
   4  -2   2   57.18    3.64
   4  -2   2   59.25    3.65
   4  -2   2   56.37    3.72
   4  -2   2   59.34    3.67
  -4   2  -2   57.70    3.78
  -4   2  -2   56.09    3.73
  -4   2  -2   56.49    3.63
  -4   2  -2   58.65    3.66
  -4   2  -2   62.22    3.69
  -4   2  -2   58.63    3.69
   5  -1   2    9.16    0.85
   5  -1   2    8.39    0.68
   5  -1   2    6.80    0.97
   5  -1   2    9.36    0.60
   5  -1   2    9.57    0.63
   5  -1   2    9.80    0.61
   5  -1   2    8.92    0.63
  -5   1  -2    8.61    0.60
  -5   1  -2    8.75    0.63
  -5   1  -2    8.94    0.60
  -5   1  -2   10.09    0.77
  -5   1  -2    8.83    0.60
  -5   1  -2    9.32    0.84
   6   0   2  104.30    6.42
   6   0   2  101.80    6.40
   6   0   2  105.92    6.43
  -6   0  -2   98.26    6.46
  -6   0  -2  102.24    6.61
  -6   0  -2  104.00    6.43
  -6   0  -2   99.12    6.40
  -6   0  -2   99.85    6.42
  -6   0  -2  102.17    6.48
   7   1   2    1.40    0.22
   7   1   2    1.74    0.53
   7   1   2    0.82    0.48
   7   1   2    2.10    0.22
   7   1   2    2.32    0.53
   7   1   2    1.27    0.17
   7   1   2    1.69    0.21
  -7  -1  -2    1.27    0.20
  -7  -1  -2    2.23    0.32
  -7  -1  -2    1.86    0.19
  -7  -1  -2    1.65    0.18
  -7  -1  -2    0.81    0.38
  -7  -1  -2    1.36    0.53
   8   2   2  117.10    7.46
   8   2   2  113.44    7.58
   8   2   2  110.81    7.47
   8   2   2  119.35    7.45
   8   2   2  127.00    7.44
   8   2   2  105.07    7.58
   8   2   2  129.82    7.45
  -8  -2  -2  118.72    7.54
  -8  -2  -2  115.07    7.41
  -8  -2  -2  119.48    7.44
  -8  -2  -2  122.89    7.48
   9   3   2    1.30    0.61
   9   3   2    1.37    0.19
   9   3   2    1.62    0.26
   9   3   2    1.51    0.20
   9   3   2    1.50    0.32
   9   3   2    1.36    0.20
  -9  -3  -2    0.88    0.48
  -9  -3  -2    1.04    0.42
  -9  -3  -2    0.98    0.36
  -9  -3  -2    1.46    0.16
  10   4   2  239.22   14.43
  10   4   2  222.70   14.45
  10   4   2  228.48   14.43
  10   4   2  227.23   14.45
 -10  -4  -2  227.74   14.47
 -10  -4  -2  232.67   14.52
  11   5   2    1.24    0.17
  11   5   2    1.32    0.25
  11   5   2    1.22    0.17
  11   5   2    1.20    0.17
 -11  -5  -2    0.90    0.34
 -11  -5  -2    1.22    0.30
 -11  -5  -2    1.28    0.33
  12   6   2    3.53    0.29
  12   6   2    3.41    0.39
  12   6   2    2.95    0.28
 -12  -6  -2    2.61    0.39
 -12  -6  -2    3.27    0.47
 -12  -6  -2    3.73    0.45
  -1  -7   1    1.80    0.53
  -1  -7   1    3.01    0.33
  -1  -7   1    2.01    0.52
   1   7  -1    2.94    0.46
   1   7  -1    2.91    0.24
   0  -6   1   19.63    1.28
   0  -6   1   15.95    1.49
   0  -6   1   19.28    1.31
   0   6  -1   19.43    1.28
   0   6  -1   20.30    1.24
   1  -5   1    5.38    0.45
   1  -5   1    5.31    0.82
   1  -5   1    5.40    0.50
  -1   5  -1    5.44    0.44
  -1   5  -1    5.77    0.39
  -1   5  -1    3.44    0.69
   2  -4   1   33.04    2.09
   2  -4   1   33.35    2.13
   2  -4   1   31.68    2.05
  -2   4  -1   32.08    2.09
  -2   4  -1   32.05    2.05
   3  -3   1   58.96    3.70
   3  -3   1   59.51    3.67
   3  -3   1   58.84    3.64
   3  -3   1   53.95    3.66
  -3   3  -1   56.80    3.65
  -3   3  -1   59.24    3.64
  -3   3  -1   57.62    3.67
   4  -2   1    3.71    0.62
   4  -2   1    4.76    0.38
   4  -2   1    5.38    0.38
   4  -2   1    4.71    0.34
   4  -2   1    5.11    0.35
   4  -2   1    4.68    0.45
   4  -2   1    4.97    0.46
  -4   2  -1    5.11    0.34
  -4   2  -1    5.18    0.37
  -4   2  -1    4.84    0.37
  -4   2  -1    4.55    0.33
  -4   2  -1    4.80    0.61
  -4   2  -1    5.84    0.49
   6   0   1   -0.31    0.34
   6   0   1    0.00    0.15
   6   0   1   -0.43    0.26
   6   0   1    0.01    0.12
   6   0   1   -0.96    0.58
   6   0   1    0.23    0.19
   6   0   1    0.13    0.14
  -6   0  -1   -0.69    0.49
  -6   0  -1    0.04    0.12
  -6   0  -1   -0.04    0.26
  -6   0  -1   -0.18    0.23
  -6   0  -1    0.12    0.14
  -6   0  -1    0.05    0.22
  -6   0  -1    0.02    0.12
   7   1   1   25.55    1.85
   7   1   1   23.86    1.93
   7   1   1   27.17    1.74
   7   1   1   27.84    1.72
   7   1   1   25.44    1.75
   7   1   1   28.41    1.71
   7   1   1   25.99    1.80
  -7  -1  -1   25.90    1.71
  -7  -1  -1   27.21    1.82
  -7  -1  -1   28.69    1.71
  -7  -1  -1   25.68    1.73
  -7  -1  -1   27.65    1.72
   8   2   1   18.26    1.35
   8   2   1   17.92    1.35
   8   2   1   19.59    1.21
   8   2   1   19.88    1.20
   8   2   1   20.04    1.22
   8   2   1   19.44    1.36
  -8  -2  -1   19.42    1.19
  -8  -2  -1   15.58    1.36
  -8  -2  -1   18.33    1.25
  -8  -2  -1   17.91    1.21
  -8  -2  -1   18.49    1.31
  -8  -2  -1   16.99    1.23
  -8  -2  -1   19.01    1.21
   9   3   1   56.98    3.96
   9   3   1   63.97    3.94
   9   3   1   62.41    4.03
   9   3   1   62.55    3.94
   9   3   1   64.72    3.94
  -9  -3  -1   65.28    4.03
  -9  -3  -1   57.33    3.95
  -9  -3  -1   62.26    3.98
  -9  -3  -1   64.03    3.94
  10   4   1   32.93    2.14
  10   4   1   35.05    2.13
  10   4   1   35.46    2.12
  10   4   1   29.84    2.16
  10   4   1   34.52    2.14
 -10  -4  -1   32.72    2.20
 -10  -4  -1   31.09    2.12
 -10  -4  -1   34.04    2.20
 -10  -4  -1   32.49    2.23
 -10  -4  -1   32.46    2.17
  11   5   1    5.44    0.42
  11   5   1    5.41    0.45
  11   5   1    4.79    0.39
  11   5   1    5.19    0.41
 -11  -5  -1    5.22    0.40
 -11  -5  -1    5.69    0.55
 -11  -5  -1    5.53    0.56
 -11  -5  -1    5.31    0.51
  12   6   1   19.88    1.30
  12   6   1   19.90    1.28
  12   6   1   21.56    1.29
 -12  -6  -1   18.53    1.34
 -12  -6  -1   19.79    1.37
 -12  -6  -1   19.21    1.39
  -1  -7   0   -0.14    0.44
  -1  -7   0    0.61    0.21
  -1  -7   0    0.09    0.28
   1   7   0    0.27    0.10
   1   7   0    0.25    0.17
   0  -6   0  104.12    6.47
   0  -6   0   94.97    6.69
   0  -6   0  105.59    6.50
   0   6   0  100.60    6.47
   0   6   0  104.57    6.44
   1  -5   0    1.42    0.53
   1  -5   0    1.22    0.15
   1  -5   0    1.56    0.24
   1  -5   0    1.70    0.32
  -1   5   0    1.33    0.16
  -1   5   0    1.63    0.23
  -1   5   0    1.26    0.13
   2  -4   0   15.56    1.08
   2  -4   0   14.69    0.97
   2  -4   0   14.94    1.02
  -2   4   0   15.36    1.03
  -2   4   0   15.07    0.97
  -2   4   0   15.11    0.98
   3  -3   0   81.28    5.09
   3  -3   0   78.03    5.09
   3  -3   0   81.44    5.13
   3  -3   0   84.72    5.14
   3  -3   0   81.21    5.07
  -3   3   0   82.27    5.07
  -3   3   0   77.08    5.15
  -3   3   0   80.97    5.08
  -3   3   0   79.50    5.11
  -3   3   0   80.22    5.09
   4  -2   0   43.46    2.71
   4  -2   0   41.06    2.67
   4  -2   0   42.21    2.66
   4  -2   0   42.74    2.68
  -4   2   0   42.79    2.67
  -4   2   0   41.76    2.70
  -4   2   0   41.75    2.67
  -4   2   0   42.92    2.67
  -4   2   0   41.73    2.70
   5  -1   0   12.50    1.01
   5  -1   0   14.18    0.97
   5  -1   0   14.12    1.19
   5  -1   0   15.03    0.98
   5  -1   0   15.69    1.02
   5  -1   0   14.55    0.98
   5  -1   0   14.03    0.97
   5  -1   0   13.22    1.18
  -5   1   0   15.76    1.00
  -5   1   0   15.67    0.98
  -5   1   0   16.64    1.01
  -5   1   0   16.18    1.16
  -5   1   0   17.13    0.99
  -5   1   0   14.74    1.00
   6   0   0    4.99    0.54
   6   0   0    6.78    0.63
   6   0   0    5.32    0.52
   6   0   0    5.42    0.53
   6   0   0    3.57    0.49
   6   0   0    4.75    0.63
   6   0   0    7.25    0.79
   6   0   0    3.58    0.66
  -6   0   0    4.64    0.70
  -6   0   0    4.11    0.65
  -6   0   0    6.24    0.65
  -6   0   0    6.37    0.50
   7   1   0    8.81    0.76
   7   1   0    9.33    0.65
   7   1   0    8.90    0.72
   7   1   0    9.97    0.66
   7   1   0    9.46    0.66
   7   1   0    7.10    0.72
  -7  -1   0    7.73    0.63
  -7  -1   0    9.06    0.62
  -7  -1   0    7.91    0.73
  -7  -1   0    8.69    0.61
   8   2   0  171.65   10.44
   8   2   0  152.15   10.47
   8   2   0  158.50   10.49
   8   2   0  158.93   10.48
   8   2   0  182.06   10.46
   8   2   0  146.29   10.44
   8   2   0  176.50   10.45
  -8  -2   0  161.16   10.44
  -8  -2   0  175.00   10.47
  -8  -2   0  170.65   10.45
  -8  -2   0  173.53   10.49
  -8  -2   0  154.12   10.44
  -8  -2   0  165.72   10.44
  -8  -2   0  177.77   10.44
   9   3   0    0.15    0.18
   9   3   0    0.22    0.17
   9   3   0    0.27    0.15
   9   3   0    0.28    0.15
   9   3   0    0.10    0.24
  -9  -3   0   -0.31    0.41
  -9  -3   0    0.06    0.17
  -9  -3   0    0.19    0.27
  -9  -3   0    0.38    0.14
  -9  -3   0   -0.03    0.25
  -9  -3   0    0.38    0.20
  -9  -3   0    0.31    0.25
  10   4   0  241.65   15.24
  10   4   0  244.61   15.25
  10   4   0  251.23   15.21
 -10  -4   0  247.92   15.26
 -10  -4   0  233.70   15.24
 -10  -4   0  230.16   15.24
 -10  -4   0  246.20   15.27
  11   5   0    1.54    0.24
  11   5   0    1.28    0.18
 -11  -5   0    1.30    0.29
 -11  -5   0    1.55    0.27
 -11  -5   0    1.38    0.28
  12   6   0    1.97    0.23
  12   6   0    1.77    0.19
  12   6   0    1.65    0.26
 -12  -6   0    2.11    0.24
 -12  -6   0    2.45    0.35
 -12  -6   0    1.82    0.32
 -12  -6   0    1.63    0.29
  -1  -7  -1    3.10    0.50
  -1  -7  -1    2.54    0.54
   1   7   1    2.70    0.21
   1   7   1    2.58    0.34
   0  -6  -1   20.25    1.34
   0  -6  -1   19.10    1.38
   0  -6  -1   19.25    1.51
   0   6   1   19.75    1.28
   0   6   1   20.63    1.26
   0   6   1   19.19    1.33
   1  -5  -1    4.83    0.77
   1  -5  -1    5.72    0.57
   1  -5  -1    5.71    0.49
  -1   5   1    5.80    0.48
  -1   5   1    5.64    0.39
  -1   5   1    5.50    0.40
   2  -4  -1   33.31    2.16
   2  -4  -1   30.05    2.31
   2  -4  -1   32.54    2.06
   2  -4  -1   31.77    2.10
  -2   4   1   32.98    2.12
  -2   4   1   33.62    2.06
  -2   4   1   33.11    2.07
  -2   4   1   31.93    2.07
   3  -3  -1   57.99    3.62
   3  -3  -1   58.12    3.61
   3  -3  -1   50.26    3.78
   3  -3  -1   58.72    3.67
  -3   3   1   57.48    3.61
  -3   3   1   57.29    3.66
  -3   3   1   55.70    3.68
  -3   3   1   59.05    3.62
  -3   3   1   59.20    3.61
   4  -2  -1    4.84    0.44
   4  -2  -1    3.53    0.59
   4  -2  -1    4.94    0.35
   4  -2  -1    4.17    0.73
   4  -2  -1    5.20    0.45
   4  -2  -1    4.90    0.35
  -4   2   1    4.91    0.35
  -4   2   1    4.99    0.34
  -4   2   1    4.55    0.71
  -4   2   1    5.31    0.47
  -4   2   1    5.06    0.39
   5  -1  -1 1000.00   62.79
   6   0  -1    0.33    0.36
   6   0  -1    0.34    0.59
   6   0  -1    0.05    0.15
   6   0  -1    0.35    0.18
   6   0  -1   -0.01    0.13
   6   0  -1    0.22    0.48
   6   0  -1    0.50    0.29
  -6   0   1    0.16    0.29
  -6   0   1    0.28    0.43
  -6   0   1    0.05    0.28
  -6   0   1   -0.06    0.14
  -6   0   1    0.11    0.27
  -6   0   1   -0.22    0.18
  -6   0   1    0.05    0.12
   7   1  -1   27.19    1.82
   7   1  -1   25.77    1.81
   7   1  -1   27.57    1.77
   7   1  -1   27.97    1.78
   7   1  -1   26.84    1.78
   7   1  -1   27.16    1.81
  -7  -1   1   26.50    1.76
  -7  -1   1   25.28    1.80
  -7  -1   1   29.38    1.75
  -7  -1   1   30.44    1.78
  -7  -1   1   29.70    1.77
  -7  -1   1   24.79    1.81
   8   2  -1   20.26    1.29
   8   2  -1   16.54    1.29
   8   2  -1   18.55    1.26
   8   2  -1   19.84    1.30
   8   2  -1   18.87    1.34
   8   2  -1   19.61    1.28
   8   2  -1   19.59    1.29
  -8  -2   1   19.80    1.28
  -8  -2   1   19.32    1.26
  -8  -2   1   19.68    1.25
  -8  -2   1   20.06    1.27
  -8  -2   1   18.45    1.26
  -8  -2   1   17.51    1.27
   9   3  -1   60.14    4.03
   9   3  -1   64.19    4.05
   9   3  -1   62.96    4.03
   9   3  -1   57.26    4.04
   9   3  -1   60.33    4.03
   9   3  -1   67.53    4.11
   9   3  -1   63.39    4.01
  -9  -3   1   64.95    4.03
  -9  -3   1   63.16    4.04
  -9  -3   1   63.10    4.03
  -9  -3   1   69.37    4.05
  10   4  -1   35.17    2.18
  10   4  -1   31.96    2.29
  10   4  -1   34.40    2.22
  10   4  -1   34.17    2.20
  10   4  -1   34.92    2.23
 -10  -4   1   33.14    2.22
 -10  -4   1   35.40    2.24
 -10  -4   1   34.60    2.23
 -10  -4   1   32.83    2.27
 -10  -4   1   35.81    2.30
  11   5  -1    5.11    0.44
  11   5  -1    5.28    0.44
  11   5  -1    4.74    0.35
 -11  -5   1    4.86    0.51
 -11  -5   1    3.59    0.45
 -11  -5   1    5.67    0.47
  12   6  -1   20.48    1.29
  12   6  -1   20.36    1.33
  12   6  -1   19.80    1.26
 -12  -6   1   19.53    1.33
 -12  -6   1   17.90    1.33
 -12  -6   1   19.92    1.34
  -1  -7  -2    0.21    0.29
  -1  -7  -2   -0.22    0.41
  -1  -7  -2    1.07    0.28
   1   7   2    0.28    0.11
   1   7   2    0.50    0.25
   0  -6  -2   96.08    6.24
   0  -6  -2  100.83    6.23
   0  -6  -2   98.34    6.31
   0   6   2   98.39    6.14
   0   6   2   97.20    6.22
   0   6   2   94.88    6.16
   1  -5  -2    0.42    0.32
   1  -5  -2    0.74    0.49
  -1   5   2    0.34    0.11
  -1   5   2    0.54    0.26
  -1   5   2    0.51    0.12
   2  -4  -2    9.62    0.83
   2  -4  -2    8.16    0.77
   2  -4  -2    9.84    1.05
  -2   4   2    8.42    0.59
  -2   4   2    9.03    0.61
  -2   4   2    8.89    0.75
  -2   4   2    9.13    0.61
   3  -3  -2   41.88    2.92
   3  -3  -2   40.44    2.76
   3  -3  -2   41.01    2.76
  -3   3   2   42.90    2.67
  -3   3   2   42.97    2.67
  -3   3   2   42.85    2.78
   4  -2  -2   54.52    3.71
   4  -2  -2   56.59    3.57
   4  -2  -2   53.56    3.64
   4  -2  -2   57.73    3.78
   4  -2  -2   55.15    3.64
   4  -2  -2   57.51    3.55
   4  -2  -2   55.67    3.57
  -4   2   2   60.01    3.56
  -4   2   2   58.22    3.57
  -4   2   2   62.40    3.71
  -4   2   2   57.90    3.57
  -4   2   2   55.27    3.59
  -4   2   2   48.25    3.79
   5  -1  -2    9.33    0.61
   5  -1  -2    9.49    0.99
   5  -1  -2    9.91    0.67
   5  -1  -2    8.13    0.91
   5  -1  -2    8.83    1.07
   5  -1  -2    8.30    0.79
   5  -1  -2    9.14    0.61
  -5   1   2    9.28    0.64
  -5   1   2    8.77    0.61
  -5   1   2    9.04    0.61
  -5   1   2    6.89    0.91
  -5   1   2    8.89    0.83
  -5   1   2   10.06    0.63
   6   0  -2   99.70    6.17
   6   0  -2  102.25    6.13
   6   0  -2  100.85    6.15
   6   0  -2   99.50    6.14
   6   0  -2   91.29    6.19
   6   0  -2   95.81    6.25
   6   0  -2   92.92    6.26
  -6   0   2  100.93    6.19
  -6   0   2   82.59    6.23
  -6   0   2   92.12    6.19
  -6   0   2  105.91    6.15
  -6   0   2  104.94    6.14
   7   1  -2    2.18    0.37
   7   1  -2    1.83    0.46
   7   1  -2    2.14    0.43
   7   1  -2    2.06    0.21
   7   1  -2    1.74    0.25
   7   1  -2    1.79    0.24
   7   1  -2    1.11    0.35
  -7  -1   2    1.65    0.20
  -7  -1   2    1.68    0.22
  -7  -1   2    1.46    0.24
  -7  -1   2    2.07    0.31
  -7  -1   2    2.28    0.40
  -7  -1   2    1.14    0.30
   8   2  -2  118.53    7.38
   8   2  -2  117.69    7.40
   8   2  -2  114.01    7.38
   8   2  -2  105.72    7.44
   8   2  -2  121.53    7.35
  -8  -2   2  123.70    7.40
  -8  -2   2  120.34    7.35
  -8  -2   2  123.83    7.37
  -8  -2   2  103.78    7.38
  -8  -2   2  124.95    7.37
  -8  -2   2  109.40    7.39
  -8  -2   2  117.30    7.38
   9   3  -2    1.61    0.27
   9   3  -2    1.74    0.32
   9   3  -2    1.74    0.24
   9   3  -2    1.73    0.29
   9   3  -2    1.66    0.30
   9   3  -2    1.84    0.48
  -9  -3   2    1.73    0.27
  -9  -3   2    1.78    0.24
  -9  -3   2    1.60    0.32
  -9  -3   2    1.78    0.29
  -9  -3   2    1.47    0.23
  10   4  -2  217.00   13.92
  10   4  -2  219.21   13.95
  10   4  -2  208.07   13.90
  10   4  -2  224.29   13.89
 -10  -4   2  224.73   13.93
 -10  -4   2  229.27   13.95
 -10  -4   2  226.46   13.92
  11   5  -2    1.11    0.37
  11   5  -2    1.06    0.15
  11   5  -2    1.05    0.24
 -11  -5   2    1.06    0.21
 -11  -5   2    1.14    0.23
 -11  -5   2    1.08    0.23
 -11  -5   2    1.43    0.36
  12   6  -2    3.37    0.30
  12   6  -2    2.97    0.36
  12   6  -2    2.71    0.38
 -12  -6   2    2.76    0.41
 -12  -6   2    3.28    0.36
 -12  -6   2    3.06    0.35
 -12  -6   2    3.10    0.33
   0  -6  -3   16.60    1.34
   0  -6  -3   17.38    1.24
   0  -6  -3   17.57    1.27
   0   6   3   17.46    1.25
   0   6   3   16.83    1.12
   0   6   3   17.32    1.12
   1  -5  -3   11.10    0.89
   1  -5  -3   11.17    1.09
   1  -5  -3   10.46    0.91
  -1   5   3   10.74    0.72
  -1   5   3   10.12    0.88
  -1   5   3   10.91    0.72
   2  -4  -3   27.19    2.03
   2  -4  -3   27.70    1.93
   2  -4  -3   28.31    1.94
  -2   4   3   29.62    1.94
  -2   4   3   27.72    1.79
  -2   4   3   27.20    1.79
   3  -3  -3   31.87    2.04
   3  -3  -3   31.88    2.33
   3  -3  -3   32.35    2.31
   3  -3  -3   31.02    2.23
  -3   3   3   31.94    2.05
  -3   3   3   32.67    2.06
  -3   3   3   33.19    2.04
   4  -2  -3    0.04    0.65
   4  -2  -3    0.12    0.52
   4  -2  -3    1.33    0.75
  -4   2   3    0.18    0.12
  -4   2   3    0.15    0.12
  -4   2   3    0.17    0.12
  -4   2   3    0.32    0.22
   5  -1  -3  619.81   33.79
   5  -1  -3  533.35   33.72
   5  -1  -3  527.39   33.74
   5  -1  -3  460.58   33.84
  -5   1   3  535.72   33.82
   6   0  -3    0.17    0.11
   6   0  -3   -0.01    0.13
   6   0  -3    0.26    0.23
   6   0  -3    0.39    0.35
   6   0  -3   -0.06    0.30
   6   0  -3    0.20    0.51
   6   0  -3    0.62    0.49
  -6   0   3   -0.03    0.11
  -6   0   3    0.13    0.34
  -6   0   3    0.09    0.11
  -6   0   3   -0.02    0.12
  -6   0   3    0.05    0.27
  -6   0   3    0.06    0.21
   7   1  -3   21.72    1.56
   7   1  -3   20.52    1.30
   7   1  -3   19.80    1.42
   7   1  -3   16.97    1.45
   7   1  -3   20.64    1.31
   7   1  -3   20.24    1.30
   7   1  -3   19.17    1.38
  -7  -1   3   19.99    1.30
  -7  -1   3   20.66    1.31
  -7  -1   3   18.39    1.42
  -7  -1   3   20.80    1.38
  -7  -1   3   19.98    1.43
  -7  -1   3   21.45    1.31
   8   2  -3   15.69    1.06
   8   2  -3   14.40    1.09
   8   2  -3   12.94    1.27
   8   2  -3   14.84    0.98
  -8  -2   3   15.58    1.01
  -8  -2   3   14.97    1.00
  -8  -2   3   15.24    1.01
  -8  -2   3   15.47    1.14
  -8  -2   3   15.14    0.98
   9   3  -3   38.64    2.56
   9   3  -3   35.58    2.68
   9   3  -3   40.85    2.52
   9   3  -3   38.36    2.54
   9   3  -3   38.58    2.49
  -9  -3   3   34.39    2.65
  -9  -3   3   42.95    2.53
  -9  -3   3   41.09    2.53
  -9  -3   3   41.59    2.52
  -9  -3   3   39.57    2.50
  10   4  -3   14.26    1.00
  10   4  -3   14.37    0.95
  10   4  -3   16.44    1.15
  10   4  -3   13.16    0.95
  10   4  -3   13.47    0.91
 -10  -4   3   13.81    0.95
 -10  -4   3   14.59    0.96
 -10  -4   3   13.97    0.97
  11   5  -3    8.89    0.65
  11   5  -3   10.61    0.83
  11   5  -3    8.99    0.69
 -11  -5   3    7.89    0.64
 -11  -5   3    9.42    0.67
 -11  -5   3    8.80    0.64
  12   6  -3    9.82    0.90
  12   6  -3   11.25    0.74
  12   6  -3   11.79    0.84
 -12  -6   3   12.65    0.94
 -12  -6   3   10.88    0.76
 -12  -6   3    9.44    0.76
 -12  -6   3   10.72    0.78
   0  -6  -4   43.30    2.98
   0  -6  -4   40.38    2.75
   0  -6  -4   43.59    2.74
   0   6   4   38.96    2.61
   0   6   4   38.47    2.58
   1  -5  -4    0.87    0.39
   1  -5  -4    0.23    0.50
   1  -5  -4    0.26    0.45
  -1   5   4    0.63    0.13
  -1   5   4    0.54    0.13
   2  -4  -4    8.65    0.67
   2  -4  -4   10.79    0.95
   2  -4  -4   10.48    1.04
   2  -4  -4    9.86    1.26
  -2   4   4   10.45    0.70
  -2   4   4    9.35    0.66
  -2   4   4   10.73    0.68
  -2   4   4   10.40    0.66
   3  -3  -4   15.65    1.34
   3  -3  -4   14.86    1.39
   3  -3  -4   15.06    1.29
  -3   3   4   14.92    0.99
  -3   3   4   15.72    1.00
  -3   3   4   15.26    1.00
   4  -2  -4   19.49    1.67
   4  -2  -4   16.64    1.90
   4  -2  -4   16.84    1.70
  -4   2   4   21.37    1.31
  -4   2   4   22.40    1.32
   5  -1  -4    1.22    0.63
   5  -1  -4    0.76    0.76
   5  -1  -4    0.04    0.62
  -5   1   4    0.35    0.14
  -5   1   4    0.47    0.24
  -5   1   4    0.35    0.13
  -5   1   4    0.34    0.21
   6   0  -4   46.90    2.72
   6   0  -4   43.67    2.68
   6   0  -4   40.42    2.77
   6   0  -4   39.87    2.91
   6   0  -4   41.74    2.81
   6   0  -4   37.43    2.78
  -6   0   4   42.93    2.68
  -6   0   4   40.60    2.70
  -6   0   4   43.69    2.66
  -6   0   4   44.58    2.67
  -6   0   4   39.54    2.71
   7   1  -4    5.68    0.46
   7   1  -4    5.13    0.64
   7   1  -4    4.87    0.67
   7   1  -4    4.94    0.82
  -7  -1   4    5.47    0.44
  -7  -1   4    6.43    0.62
  -7  -1   4    5.70    0.42
  -7  -1   4    5.52    0.44
   8   2  -4   45.83    2.97
   8   2  -4   41.59    3.11
   8   2  -4   45.31    2.93
  -8  -2   4   46.46    2.90
  -8  -2   4   45.41    2.89
  -8  -2   4   46.80    2.90
  -8  -2   4   46.94    2.91
   9   3  -4    0.18    0.24
   9   3  -4    0.38    0.18
   9   3  -4    0.10    0.41
  -9  -3   4    0.20    0.16
  -9  -3   4    0.26    0.13
  -9  -3   4    0.18    0.18
  -9  -3   4    0.29    0.14
  10   4  -4   78.84    5.23
  10   4  -4   91.91    5.35
  10   4  -4   78.70    5.18
 -10  -4   4   82.61    5.20
 -10  -4   4   78.27    5.18
 -10  -4   4   82.76    5.20
  11   5  -4    1.05    0.24
  11   5  -4    0.97    0.16
  11   5  -4    1.43    0.41
 -11  -5   4    0.69    0.19
 -11  -5   4    0.90    0.17
 -11  -5   4    0.59    0.19
   1  -5  -5    7.09    0.80
   1  -5  -5    5.88    0.85
   1  -5  -5    8.04    0.81
  -1   5   5    6.99    0.50
  -1   5   5    7.26    0.51
   2  -4  -5   10.13    1.08
   2  -4  -5   13.30    1.11
   2  -4  -5   11.30    1.04
  -2   4   5   11.46    0.78
  -2   4   5   11.47    0.76
  -2   4   5   11.72    0.78
   3  -3  -5   10.11    1.07
   3  -3  -5   12.35    1.08
   3  -3  -5    9.73    1.14
  -3   3   5   10.64    0.72
  -3   3   5   11.15    0.74
  -3   3   5   10.86    0.73
   4  -2  -5   -0.22    0.50
   4  -2  -5   -0.01    0.54
   4  -2  -5    0.52    0.64
  -4   2   5    0.00    0.12
  -4   2   5   -0.11    0.11
  -4   2   5    0.21    0.15
   5  -1  -5  186.79   12.09
   5  -1  -5  194.68   12.03
   5  -1  -5  173.87   12.14
   5  -1  -5  183.63   12.17
  -5   1   5  208.07   12.04
  -5   1   5  194.99   12.00
  -5   1   5  193.33   12.01
   6   0  -5    0.10    0.54
   6   0  -5    0.00    0.28
   6   0  -5   -0.03    0.40
   6   0  -5    0.17    0.35
  -6   0   5   -0.07    0.12
  -6   0   5    0.12    0.11
  -6   0   5   -0.10    0.11
   7   1  -5   15.45    1.13
   7   1  -5   15.64    1.03
   7   1  -5   14.34    1.30
   7   1  -5   13.61    1.12
  -7  -1   5   14.90    1.01
  -7  -1   5   16.17    1.00
  -7  -1   5   15.50    1.00
   8   2  -5    5.74    0.75
   8   2  -5    4.83    0.45
   8   2  -5    5.10    0.80
  -8  -2   5    5.14    0.41
  -8  -2   5    5.29    0.39
  -8  -2   5    4.82    0.39
  -8  -2   5    4.83    0.39
   9   3  -5   15.62    1.09
   9   3  -5   15.95    1.02
  -9  -3   5   15.89    1.02
  -9  -3   5   14.64    1.00
  -9  -3   5   15.00    1.02
  -9  -3   5   14.85    1.03
  10   4  -5    4.06    0.43
  10   4  -5    4.98    0.67
  10   4  -5    4.65    0.35
 -10  -4   5    4.81    0.36
 -10  -4   5    3.62    0.35
 -10  -4   5    4.39    0.38
   2  -4  -6    7.36    0.88
   2  -4  -6    4.70    0.64
   2  -4  -6    5.33    0.75
  -2   4   6    5.16    0.38
  -2   4   6    5.23    0.41
  -2   4   6    5.42    0.40
   3  -3  -6    4.91    0.74
   3  -3  -6    4.31    0.78
  -3   3   6    3.89    0.36
  -3   3   6    4.09    0.33
  -3   3   6    4.29    0.33
   4  -2  -6   18.60    1.53
   4  -2  -6   15.81    1.27
   4  -2  -6   15.70    1.39
  -4   2   6   18.26    1.16
  -4   2   6   17.50    1.13
  -4   2   6   17.23    1.12
   5  -1  -6    1.04    0.33
   5  -1  -6    1.46    0.56
   5  -1  -6    1.63    0.44
   5  -1  -6    1.22    0.38
  -5   1   6    1.22    0.17
  -5   1   6    1.26    0.17
  -5   1   6    1.10    0.27
   6   0  -6   29.96    1.91
   6   0  -6   27.05    2.07
   6   0  -6   28.94    1.95
  -6   0   6   28.38    1.83
  -6   0   6   27.89    1.82
  -6   0   6   28.49    1.82
   7   1  -6    1.07    0.29
   7   1  -6    1.30    0.51
   7   1  -6    0.64    0.27
   7   1  -6    0.81    0.19
  -7  -1   6    0.67    0.15
  -7  -1   6    1.20    0.15
   8   2  -6    8.99    0.69
   8   2  -6    8.43    0.96
   8   2  -6    8.29    0.61
  -8  -2   6    8.25    0.59
  -8  -2   6    8.76    0.60
  -8  -2   6    8.26    0.59
   9   3  -6    0.64    0.23
   9   3  -6    0.26    0.42
  -9  -3   6   -0.03    0.12
  -9  -3   6    0.12    0.12
  -9  -3   6    0.08    0.15
  -9  -3   6    0.43    0.15
   4  -2  -7    0.82    0.33
   4  -2  -7    0.90    0.45
   4  -2  -7    0.57    0.48
   5  -1  -7   42.11    2.69
   5  -1  -7   42.56    2.93
   5  -1  -7   39.25    2.66
   5  -1  -7   39.78    2.90
  -5   1   7   40.31    2.59
  -5   1   7   40.53    2.59
   6   0  -7   -0.78    0.33
   6   0  -7    0.47    0.27
   6   0  -7    0.63    0.92
   6   0  -7    0.48    0.22
  -6   0   7    0.14    0.13
  -6   0   7    0.17    0.11
  -6   0   7   -0.14    0.11
   7   1  -7   12.75    1.49
   7   1  -7   10.81    0.74
   7   1  -7   10.96    0.81
  -7  -1   7   10.14    0.73
  -7  -1   7   10.61    0.73
  -7  -1   7   10.31    0.72
   7  -1   7    9.96    0.74
   7  -1   7   10.43    0.71
   7  -1   7   10.61    0.74
  -7   1  -7   10.62    1.01
  -7   1  -7   10.91    0.70
  -7   1  -7   10.96    0.89
   8   0   7    0.03    0.15
   8   0   7   -0.06    0.15
   8   0   7    0.07    0.12
  -8   0  -7    0.24    0.50
   9   1   7    9.17    0.68
   9   1   7    9.06    0.68
  -9  -1  -7   11.34    0.91
   4  -4   6    8.37    0.63
   4  -4   6    8.09    0.60
   4  -4   6    7.97    0.69
  -4   4  -6    8.47    0.83
  -4   4  -6    8.59    0.59
   5  -3   6    2.85    0.23
   5  -3   6    2.20    0.40
   5  -3   6    2.71    0.30
   5  -3   6    2.71    0.31
  -5   3  -6    3.43    0.28
  -5   3  -6    2.89    0.43
  -5   3  -6    2.95    0.51
   6  -2   6   24.41    1.56
   6  -2   6   23.86    1.55
   6  -2   6   23.15    1.52
  -6   2  -6   25.05    1.54
  -6   2  -6   23.18    1.68
  -6   2  -6   22.94    1.70
   7  -1   6    0.77    0.19
   7  -1   6    0.85    0.14
   7  -1   6    1.03    0.18
  -7   1  -6    1.02    0.35
  -7   1  -6    0.80    0.48
  -7   1  -6    1.21    0.17
   8   0   6   13.65    1.02
   8   0   6   14.32    0.96
   8   0   6   15.01    0.98
  -8   0  -6   14.72    0.94
  -8   0  -6   14.93    1.10
  -9  -1  -6    0.64    0.31
  -9  -1  -6    0.85    0.58
  10   2   6   49.27    3.26
  10   2   6   48.08    3.24
  10   2   6   50.77    3.31
  10   2   6   49.82    3.26
 -10  -2  -6   60.08    3.55
 -10  -2  -6   51.17    3.34
  11   3   6    0.16    0.14
  11   3   6    0.43    0.21
  11   3   6    0.46    0.17
  11   3   6    0.52    0.12
 -11  -3  -6    1.11    0.28
   3  -5   5    3.66    0.31
   3  -5   5    3.31    0.41
   3  -5   5    3.56    0.41
  -3   5  -5    3.81    0.33
  -3   5  -5    4.41    0.70
   4  -4   5    0.06    0.13
   4  -4   5    0.06    0.24
   4  -4   5   -0.07    0.17
  -4   4  -5   -0.01    0.35
  -4   4  -5    0.30    0.13
   5  -3   5  109.17    7.03
   5  -3   5  113.34    7.08
   5  -3   5  109.63    7.22
   5  -3   5  112.82    7.06
  -5   3  -5  113.34    7.07
  -5   3  -5  110.71    7.25
  -5   3  -5  115.14    7.22
   6  -2   5    0.25    0.16
   6  -2   5    0.15    0.10
   6  -2   5    0.33    0.20
  -6   2  -5    0.45    0.38
  -6   2  -5    0.27    0.13
   7  -1   5   16.28    1.03
   7  -1   5   15.92    1.05
   7  -1   5   15.73    1.06
  -7   1  -5   15.93    1.02
  -7   1  -5   14.78    1.35
  -7   1  -5   15.25    1.19
   8   0   5    0.00    0.12
   8   0   5   -0.50    0.33
   8   0   5    0.31    0.17
   8   0   5    0.11    0.15
  -8   0  -5    0.25    0.09
  -8   0  -5    0.17    0.58
  -8   0  -5   -0.04    0.31
   9   1   5   28.82    1.81
   9   1   5   25.84    1.74
   9   1   5   28.11    1.77
   9   1   5   27.25    1.77
  -9  -1  -5   28.04    1.81
  -9  -1  -5   29.14    1.87
  -9  -1  -5   25.13    1.74
  10   2   5    2.62    0.40
  10   2   5    2.65    0.24
  10   2   5    2.80    0.28
  10   2   5    2.77    0.28
 -10  -2  -5    2.73    0.37
 -10  -2  -5    2.80    0.42
 -10  -2  -5    2.58    0.70
  11   3   5   21.80    1.43
  11   3   5   21.17    1.44
  11   3   5   22.42    1.45
 -11  -3  -5   23.76    1.51
 -11  -3  -5   21.63    1.59
 -11  -3  -5   22.73    1.69
  12   4   5    7.04    0.52
  12   4   5    6.52    0.54
  12   4   5    7.42    0.55
 -12  -4  -5    8.02    0.64
 -12  -4  -5    8.28    0.82
 -12  -4  -5    8.22    0.63
   2  -6   4    2.35    0.32
   2  -6   4    2.41    0.23
   2  -6   4    2.03    0.31
  -2   6  -4    2.61    0.20
  -2   6  -4    1.88    0.73
  -2   6  -4    2.54    0.28
   3  -5   4   16.77    1.09
   3  -5   4   15.72    1.05
   3  -5   4   15.86    1.12
  -3   5  -4   15.74    1.07
  -3   5  -4   16.30    1.32
   4  -4   4   15.58    1.01
   4  -4   4   14.14    1.07
   4  -4   4   14.69    0.98
  -4   4  -4   14.61    1.22
  -4   4  -4   14.84    0.94
  -4   4  -4   14.75    0.99
   5  -3   4   12.85    0.88
   5  -3   4   14.30    0.92
   5  -3   4   12.90    1.00
  -5   3  -4   13.09    0.88
  -5   3  -4   12.13    0.99
  -5   3  -4   14.06    1.09
   6  -2   4   27.46    1.74
   6  -2   4   29.19    1.78
   6  -2   4   29.03    1.77
  -6   2  -4   27.36    1.94
  -6   2  -4   25.03    1.89
  -6   2  -4   24.67    1.74
  -6   2  -4   28.21    1.76
   7  -1   4    5.55    0.48
   7  -1   4    5.55    0.41
   7  -1   4    5.46    0.63
   7  -1   4    5.84    0.44
  -7   1  -4    5.45    0.40
  -7   1  -4    5.46    0.66
  -7   1  -4    4.67    0.83
   8   0   4   59.16    3.65
   8   0   4   58.07    3.59
   8   0   4   55.60    3.61
   8   0   4   56.51    3.58
  -8   0  -4   54.71    3.55
  -8   0  -4   55.79    3.67
  -8   0  -4   55.39    3.62
   9   1   4    0.59    0.17
   9   1   4    0.41    0.10
   9   1   4    0.08    0.29
   9   1   4    0.48    0.17
  -9  -1  -4    0.25    0.12
  -9  -1  -4    0.26    0.34
  -9  -1  -4    0.45    0.69
  -9  -1  -4    0.18    0.26
  10   2   4  225.36   14.69
  10   2   4  237.15   14.71
  10   2   4  240.08   14.72
 -10  -2  -4  235.56   14.88
 -10  -2  -4  227.28   14.78
 -10  -2  -4  238.60   14.77
  11   3   4    0.47    0.13
  11   3   4    0.72    0.15
 -11  -3  -4    0.67    0.32
 -11  -3  -4    0.71    0.29
 -11  -3  -4    0.36    0.78
  12   4   4   10.59    0.74
  12   4   4   10.92    0.81
  12   4   4   11.10    0.76
 -12  -4  -4   12.59    0.92
 -12  -4  -4   10.59    0.97
 -12  -4  -4   11.06    0.83
  13   5   4   12.19    0.83
  13   5   4   11.96    0.82
  13   5   4   12.28    0.84
 -13  -5  -4   14.94    1.39
 -13  -5  -4   12.49    1.06
   2  -6   3   16.46    1.11
   2  -6   3   15.66    1.06
   2  -6   3   15.21    1.13
  -2   6  -3   16.45    1.10
  -2   6  -3   17.94    1.06
   3  -5   3    8.65    0.60
   3  -5   3    8.55    0.68
   3  -5   3    8.66    0.65
  -3   5  -3    9.34    0.58
  -3   5  -3    8.84    0.63
  -3   5  -3    8.60    0.94
   4  -4   3    1.49    0.22
   4  -4   3    1.52    0.29
   4  -4   3    1.20    0.17
   4  -4   3    1.25    0.18
  -4   4  -3    1.13    0.14
  -4   4  -3    1.76    0.50
  -4   4  -3    1.62    0.22
   5  -3   3  327.73   20.16
   5  -3   3  308.90   20.07
  -5   3  -3  312.20   20.20
  -5   3  -3  325.08   20.07
  -5   3  -3  325.14   20.26
  -5   3  -3  322.31   20.12
   6  -2   3    0.34    0.17
   6  -2   3    0.14    0.09
   6  -2   3    0.35    0.17
   6  -2   3    0.32    0.27
  -6   2  -3    0.13    0.36
  -6   2  -3    0.34    0.13
  -6   2  -3    0.30    0.39
  -6   2  -3    0.20    0.10
   7  -1   3   22.57    1.39
   7  -1   3   22.59    1.39
   7  -1   3   20.95    1.39
   7  -1   3   20.48    1.34
  -7   1  -3   20.72    1.34
  -7   1  -3   20.82    1.48
  -7   1  -3   17.04    1.61
   8   0   3    0.16    0.14
   8   0   3    0.51    0.32
   8   0   3   -0.08    0.23
   8   0   3    0.25    0.14
  -8   0  -3   -0.12    0.59
  -8   0  -3   -0.01    0.12
  -8   0  -3    0.35    0.21
  -8   0  -3    0.18    0.07
  -8   0  -3    0.03    0.30
   9   1   3   70.34    4.41
   9   1   3   74.50    4.44
   9   1   3   69.93    4.65
  -9  -1  -3   71.75    4.49
  -9  -1  -3   65.83    4.52
  -9  -1  -3   69.26    4.41
  -9  -1  -3   68.23    4.65
  10   2   3   11.09    0.72
  10   2   3   11.33    0.71
  10   2   3   10.42    0.69
 -10  -2  -3    7.95    0.93
 -10  -2  -3    9.46    0.81
 -10  -2  -3    8.79    1.03
  11   3   3   20.57    1.34
  11   3   3   20.01    1.33
  11   3   3   20.73    1.33
 -11  -3  -3   19.39    1.50
 -11  -3  -3   21.51    1.57
  12   4   3   18.86    1.23
  12   4   3   19.17    1.22
  12   4   3   19.10    1.22
 -12  -4  -3   18.73    1.27
 -12  -4  -3   18.99    1.36
 -12  -4  -3   17.34    1.19
  13   5   3   22.63    1.51
  13   5   3   22.50    1.51
  13   5   3   23.32    1.50
 -13  -5  -3   23.80    1.62
 -13  -5  -3   24.41    1.55
   1  -7   2    0.50    0.48
   1  -7   2   -0.05    0.23
  -1   7  -2    0.01    0.39
  -1   7  -2    0.32    0.10
  -1   7  -2    0.42    0.16
   2  -6   2    3.55    0.26
   2  -6   2    2.76    0.38
   2  -6   2    2.00    0.63
   2  -6   2    3.01    0.34
  -2   6  -2    2.74    0.30
  -2   6  -2    3.40    0.25
   3  -5   2   36.18    2.40
   3  -5   2   38.55    2.47
   3  -5   2   38.29    2.44
  -3   5  -2   39.32    2.40
  -3   5  -2   37.02    2.43
   4  -4   2   12.00    0.86
   4  -4   2   12.38    0.81
   4  -4   2   11.31    0.76
  -4   4  -2   10.77    0.74
  -4   4  -2   11.69    0.79
  -4   4  -2   11.31    0.74
  -4   4  -2    9.52    1.12
   5  -3   2   21.82    1.39
   5  -3   2   22.03    1.36
   5  -3   2   21.10    1.44
   5  -3   2   20.56    1.35
  -5   3  -2   18.98    1.56
  -5   3  -2   20.91    1.35
  -5   3  -2   21.36    1.34
   6  -2   2   25.99    1.65
   6  -2   2   22.66    1.51
   6  -2   2   20.46    1.53
   6  -2   2   24.39    1.56
   6  -2   2   25.45    1.54
   6  -2   2   23.44    1.51
  -6   2  -2   25.78    1.69
  -6   2  -2   21.88    1.53
  -6   2  -2   24.42    1.54
  -6   2  -2   25.51    1.65
  -6   2  -2   24.10    1.51
   7  -1   2    1.79    0.21
   7  -1   2    1.93    0.22
   7  -1   2    1.75    0.25
   7  -1   2    1.88    0.19
   7  -1   2    1.47    0.52
   7  -1   2    1.20    0.45
   7  -1   2    1.87    0.25
  -7   1  -2    1.70    0.17
  -7   1  -2    1.80    0.27
  -7   1  -2    1.44    0.19
  -7   1  -2    1.22    0.46
  -7   1  -2    1.53    0.19
  -7   1  -2    2.57    0.37
   8   0   2  172.94   10.96
   8   0   2  185.26   10.79
   8   0   2  179.93   10.78
   8   0   2  163.31   10.86
   8   0   2  176.39   10.75
  -8   0  -2  178.57   10.83
  -8   0  -2  160.05   10.77
  -8   0  -2  158.47   10.84
  -8   0  -2  167.50   10.77
   9   1   2    0.52    0.13
   9   1   2    0.82    0.16
   9   1   2    0.59    0.16
   9   1   2    0.68    0.17
   9   1   2    0.58    0.46
   9   1   2    0.51    0.64
   9   1   2    0.99    0.50
  -9  -1  -2    0.33    0.47
  -9  -1  -2    0.60    0.13
  -9  -1  -2    0.86    0.22
  -9  -1  -2    0.49    0.23
  -9  -1  -2    0.48    0.15
  -9  -1  -2    0.05    0.38
  10   2   2  460.70   29.24
  10   2   2  472.51   29.16
 -10  -2  -2  458.42   29.15
 -10  -2  -2  465.45   29.16
  11   3   2    1.75    0.25
  11   3   2    1.36    0.21
  11   3   2    1.58    0.55
  11   3   2    1.60    0.23
  11   3   2    1.15    0.20
 -11  -3  -2    1.84    0.17
 -11  -3  -2    1.10    0.32
 -11  -3  -2    1.43    0.43
 -11  -3  -2    0.69    0.47
  12   4   2    5.48    0.46
  12   4   2    5.56    0.46
  12   4   2    5.22    0.42
  12   4   2    5.68    0.42
 -12  -4  -2    5.28    0.58
 -12  -4  -2    4.20    0.61
 -12  -4  -2    5.70    0.50
  13   5   2   24.68    1.60
  13   5   2   25.75    1.60
  13   5   2   24.22    1.61
  13   5   2   25.46    1.64
 -13  -5  -2   24.26    1.63
 -13  -5  -2   23.99    1.69
  14   6   2   11.54    0.80
  14   6   2   12.52    0.79
  14   6   2   11.50    0.84
  14   6   2   13.15    0.87
 -14  -6  -2   10.26    0.92
 -14  -6  -2   12.52    0.91
 -14  -6  -2   12.05    0.84
   1  -7   1    1.98    0.56
   1  -7   1    3.06    0.34
  -1   7  -1    2.95    0.25
   2  -6   1   28.03    1.72
   2  -6   1   27.21    1.75
   2  -6   1   21.28    1.93
  -2   6  -1   27.05    1.72
   3  -5   1   11.79    1.34
   3  -5   1   15.31    1.04
   3  -5   1   16.03    1.09
  -3   5  -1   16.15    1.05
  -3   5  -1   16.42    1.01
   4  -4   1    1.94    0.34
   4  -4   1    1.88    0.27
   4  -4   1    1.45    0.17
   4  -4   1    0.67    0.64
  -4   4  -1    1.27    0.62
  -4   4  -1    1.89    0.19
  -4   4  -1    1.44    0.16
  -4   4  -1    1.83    0.23
  -5   3  -1  547.77   34.53
   6  -2   1    3.58    0.30
   6  -2   1    3.54    0.41
   6  -2   1    3.71    0.27
   6  -2   1    3.32    0.30
   6  -2   1    3.30    0.32
   6  -2   1    3.71    0.41
   6  -2   1    3.10    0.26
   6  -2   1    3.53    0.30
   6  -2   1    3.72    0.28
   6  -2   1    2.79    0.55
  -6   2  -1    3.95    0.30
  -6   2  -1    3.31    0.26
  -6   2  -1    4.32    0.44
  -6   2  -1    3.46    0.57
  -6   2  -1    3.79    0.30
  -6   2  -1    3.07    0.27
   7  -1   1   29.84    1.80
   7  -1   1   27.14    1.80
   7  -1   1   27.49    1.79
   7  -1   1   26.59    1.81
   7  -1   1   29.87    1.82
   7  -1   1   27.07    1.79
   7  -1   1   28.23    1.78
  -7   1  -1   28.21    1.79
  -7   1  -1   28.71    1.82
  -7   1  -1   26.49    1.89
  -7   1  -1   28.42    1.79
  -7   1  -1   27.64    1.87
   8   0   1    0.61    0.17
   8   0   1   -0.34    0.50
   8   0   1   -0.10    0.28
   8   0   1    0.48    0.23
   8   0   1    0.09    0.10
   8   0   1    0.11    0.32
   8   0   1    0.12    0.14
   8   0   1    0.28    0.27
  -8   0  -1   -0.04    0.43
  -8   0  -1   -0.11    0.30
  -8   0  -1    0.04    0.13
  -8   0  -1    0.41    0.25
  -8   0  -1    0.00    0.21
   9   1   1  128.47    8.66
   9   1   1  127.21    8.66
   9   1   1  123.69    8.73
   9   1   1  147.55    8.64
   9   1   1  148.23    8.64
   9   1   1  126.14    8.67
  -9  -1  -1  161.38    8.78
  -9  -1  -1  143.06    8.71
  -9  -1  -1  145.49    8.63
  -9  -1  -1  124.58    8.65
  -9  -1  -1  128.25    8.63
  -9  -1  -1  142.01    8.63
  10   2   1   19.53    1.52
  10   2   1   23.38    1.39
  10   2   1   21.71    1.63
  10   2   1   18.75    1.42
  10   2   1   25.03    1.48
  10   2   1   22.73    1.36
  10   2   1   20.02    1.48
  10   2   1   22.20    1.39
 -10  -2  -1   18.99    1.40
 -10  -2  -1   20.11    1.45
 -10  -2  -1   22.59    1.36
 -10  -2  -1   21.42    1.40
 -10  -2  -1   20.97    1.47
 -10  -2  -1   17.51    1.53
  11   3   1    9.33    0.65
  11   3   1    8.92    0.63
  11   3   1    8.12    0.70
 -11  -3  -1    8.97    0.73
 -11  -3  -1    8.78    0.67
 -11  -3  -1    9.75    0.69
 -11  -3  -1    9.04    0.77
 -11  -3  -1    8.98    0.63
 -11  -3  -1    7.69    0.85
  12   4   1   22.04    1.39
  12   4   1   21.67    1.38
  12   4   1   22.35    1.37
  12   4   1   20.76    1.41
 -12  -4  -1   20.44    1.41
 -12  -4  -1   20.56    1.40
 -12  -4  -1   19.60    1.38
 -12  -4  -1   21.57    1.46
 -12  -4  -1   19.88    1.49
  13   5   1   34.82    2.20
  13   5   1   36.03    2.22
  13   5   1   34.31    2.21
  13   5   1   34.70    2.22
 -13  -5  -1   34.22    2.34
 -13  -5  -1   33.91    2.22
 -13  -5  -1   34.33    2.21
 -13  -5  -1   32.01    2.30
  14   6   1    0.09    0.14
  14   6   1    0.39    0.14
 -14  -6  -1    0.01    0.21
 -14  -6  -1    0.48    0.26
 -14  -6  -1    0.48    0.24
   1  -7   0   -0.30    0.45
   1  -7   0    0.26    0.20
  -1   7   0    0.12    0.16
  -1   7   0    0.37    0.10
   2  -6   0    1.57    0.33
   2  -6   0    1.28    0.52
   2  -6   0    1.99    0.30
  -2   6   0    1.82    0.19
  -2   6   0    1.91    0.26
   3  -5   0   51.60    3.31
   3  -5   0   51.56    3.27
   3  -5   0   48.82    3.23
  -3   5   0   51.28    3.28
  -3   5   0   51.73    3.24
  -3   5   0   52.38    3.23
   4  -4   0   22.96    1.54
   4  -4   0   22.13    1.44
   4  -4   0   22.58    1.48
  -4   4   0   22.68    1.45
  -4   4   0   22.79    1.49
  -4   4   0   22.77    1.44
   5  -3   0   31.14    1.99
   5  -3   0   29.81    1.94
   5  -3   0   30.85    1.91
   5  -3   0   30.37    1.94
  -5   3   0   26.10    2.12
  -5   3   0   31.56    1.92
  -5   3   0   30.47    1.93
  -5   3   0   30.25    1.92
  -5   3   0   30.88    1.96
   6  -2   0   98.86    6.10
   6  -2   0   97.98    6.10
   6  -2   0   82.04    6.23
   6  -2   0  102.51    6.10
   6  -2   0   96.68    6.09
   6  -2   0  101.45    6.14
   6  -2   0   96.81    6.14
   6  -2   0   89.34    6.13
  -6   2   0  102.58    6.10
  -6   2   0   96.46    6.12
  -6   2   0   99.08    6.13
  -6   2   0   98.00    6.10
  -6   2   0   93.34    6.24
  -6   2   0  101.03    6.10
   7  -1   0    9.11    0.74
   7  -1   0    9.25    0.89
   7  -1   0   10.46    0.68
   7  -1   0   10.76    0.72
   7  -1   0    8.77    0.69
   7  -1   0    8.63    0.74
   7  -1   0   10.66    0.72
   7  -1   0    9.84    0.69
   7  -1   0    9.73    0.88
   7  -1   0   11.17    0.70
  -7   1   0    8.77    0.72
  -7   1   0    9.91    0.67
  -7   1   0   11.15    0.85
  -7   1   0    9.59    0.73
  -7   1   0   10.19    0.73
  -7   1   0   10.69    0.71
  -7   1   0    9.74    0.73
   8   0   0  333.25   20.41
   8   0   0  332.87   20.50
   8   0   0  309.71   20.43
   8   0   0  304.54   20.44
   8   0   0  386.26   20.48
  -8   0   0  309.99   20.44
  -8   0   0  284.71   20.41
  -8   0   0  295.24   20.41
  -8   0   0  335.76   20.48
  -8   0   0  356.83   20.45
   9   1   0    6.74    0.53
   9   1   0    6.11    0.54
   9   1   0    7.58    0.56
   9   1   0    5.52    0.60
   9   1   0    5.47    0.48
   9   1   0    6.11    0.61
   9   1   0    5.19    0.69
  -9  -1   0    6.71    0.57
  -9  -1   0    6.49    0.50
  -9  -1   0    5.06    0.50
  -9  -1   0    6.20    0.49
  -9  -1   0    4.92    0.62
  -9  -1   0    6.24    0.54
  10   2   0  567.87   37.49
  10   2   0  613.14   37.42
  10   2   0  564.64   37.38
  10   2   0  619.84   37.46
 -10  -2   0  612.49   37.37
  11   3   0    2.07    0.26
  11   3   0    2.15    0.27
  11   3   0    2.13    0.27
 -11  -3   0    2.01    0.35
 -11  -3   0    2.71    0.36
 -11  -3   0    2.10    0.27
 -11  -3   0    2.06    0.35
 -11  -3   0    1.70    0.38
  12   4   0    5.23    0.49
  12   4   0    5.61    0.48
  12   4   0    5.94    0.45
 -12  -4   0    5.85    0.46
 -12  -4   0    7.82    0.82
 -12  -4   0    5.97    0.55
 -12  -4   0    6.73    0.58
 -12  -4   0    5.45    0.52
  13   5   0   29.67    1.85
  13   5   0   29.22    1.83
  13   5   0   28.92    1.81
 -13  -5   0   26.11    1.84
 -13  -5   0   27.64    1.86
 -13  -5   0   27.49    1.89
  14   6   0   17.61    1.16
  14   6   0   18.99    1.22
  14   6   0   18.20    1.19
 -14  -6   0   16.78    1.21
 -14  -6   0   17.05    1.19
 -14  -6   0   19.18    1.24
 -14  -6   0   18.31    1.26
   1  -7  -1    2.47    0.47
  -1   7   1    2.63    0.21
  -1   7   1    2.79    0.35
  -1   7   1    2.86    0.27
   2  -6  -1   28.38    1.92
   2  -6  -1   27.93    2.05
   2  -6  -1   28.41    1.87
  -2   6   1   28.03    1.88
  -2   6   1   29.48    1.81
  -2   6   1   28.25    1.82
   3  -5  -1   14.78    1.33
   3  -5  -1   16.94    1.17
   3  -5  -1   15.69    1.09
  -3   5   1   16.09    1.11
  -3   5   1   16.44    1.04
  -3   5   1   16.31    1.05
   4  -4  -1    1.94    0.38
   4  -4  -1    1.79    0.25
   4  -4  -1    1.94    0.63
   4  -4  -1    1.39    0.19
  -4   4   1    1.55    0.28
  -4   4   1    1.47    0.17
  -4   4   1    1.54    0.19
  -4   4   1    1.48    0.18
   5  -3  -1  531.46   33.50
   6  -2  -1    3.49    0.45
   6  -2  -1    2.25    0.52
   6  -2  -1    3.40    0.65
   6  -2  -1    3.35    0.27
   6  -2  -1    3.20    0.26
   6  -2  -1    3.30    0.25
   6  -2  -1    3.77    0.38
   6  -2  -1    3.22    0.40
  -6   2   1    3.35    0.60
  -6   2   1    4.04    0.45
  -6   2   1    3.27    0.26
  -6   2   1    3.31    0.26
  -6   2   1    3.30    0.30
  -6   2   1    2.63    0.36
   7  -1  -1   22.91    1.95
   7  -1  -1   25.88    1.92
   7  -1  -1   28.12    1.74
   7  -1  -1   27.83    1.75
   7  -1  -1   28.58    1.75
   7  -1  -1   23.75    1.90
  -7   1   1   28.82    1.75
  -7   1   1   29.40    1.75
  -7   1   1   27.44    1.74
  -7   1   1   25.32    1.85
  -7   1   1   29.41    1.77
   8   0  -1    0.00    0.27
   8   0  -1    0.12    0.34
   8   0  -1    0.57    0.54
   8   0  -1    0.40    0.16
   8   0  -1    0.31    0.23
   8   0  -1    0.85    0.86
   8   0  -1    0.36    0.17
  -8   0   1   -0.08    0.15
  -8   0   1   -0.20    0.27
  -8   0   1   -0.05    0.14
  -8   0   1    0.04    0.26
  -8   0   1    0.20    0.40
  -8   0   1   -0.03    0.27
   9   1  -1  126.91    8.41
   9   1  -1  132.65    8.41
   9   1  -1  133.21    8.41
   9   1  -1  137.29    8.44
   9   1  -1  128.53    8.44
   9   1  -1  130.22    8.41
  -9  -1   1  143.56    8.42
  -9  -1   1  121.57    8.42
  -9  -1   1  120.11    8.42
  -9  -1   1  132.57    8.41
  -9  -1   1  143.54    8.38
  -9  -1   1  147.80    8.41
  10   2  -1   19.08    1.46
  10   2  -1   22.42    1.44
  10   2  -1   23.04    1.44
  10   2  -1   20.66    1.47
  10   2  -1   21.36    1.42
  10   2  -1   24.43    1.46
  10   2  -1   21.63    1.49
  10   2  -1   20.74    1.41
 -10  -2   1   22.21    1.41
 -10  -2   1   19.98    1.43
 -10  -2   1   20.46    1.41
 -10  -2   1   17.87    1.42
 -10  -2   1   22.73    1.43
 -10  -2   1   21.60    1.39
 -10  -2   1   23.25    1.44
  11   3  -1    9.16    0.70
  11   3  -1    9.88    0.79
  11   3  -1    7.60    0.71
  11   3  -1   10.53    0.72
  11   3  -1    9.35    0.70
 -11  -3   1    8.32    0.75
 -11  -3   1    9.32    0.65
 -11  -3   1    9.53    0.72
 -11  -3   1    8.87    0.71
 -11  -3   1    9.90    0.70
  12   4  -1   22.12    1.38
  12   4  -1   21.31    1.42
  12   4  -1   19.38    1.43
  12   4  -1   21.53    1.40
 -12  -4   1   20.91    1.39
 -12  -4   1   21.83    1.44
 -12  -4   1   21.30    1.43
 -12  -4   1   20.30    1.44
 -12  -4   1   21.58    1.41
  13   5  -1   34.89    2.20
  13   5  -1   35.28    2.17
  13   5  -1   33.72    2.22
 -13  -5   1   35.67    2.24
 -13  -5   1   33.51    2.23
 -13  -5   1   33.91    2.21
 -13  -5   1   31.61    2.21
  14   6  -1    0.34    0.15
  14   6  -1    0.33    0.19
  14   6  -1    0.05    0.10
 -14  -6   1    0.23    0.18
 -14  -6   1    0.22    0.20
 -14  -6   1    0.29    0.20
 -14  -6   1   -0.27    0.20
   1  -7  -2    0.61    0.31
   1  -7  -2   -0.13    0.45
  -1   7   2    0.51    0.10
  -1   7   2    0.40    0.11
  -1   7   2    0.47    0.25
   2  -6  -2    2.89    0.60
   2  -6  -2    2.58    0.42
  -2   6   2    2.93    0.25
  -2   6   2    2.57    0.37
  -2   6   2    3.30    0.25
   3  -5  -2   38.99    2.54
   3  -5  -2   39.76    2.59
   3  -5  -2   37.95    2.70
  -3   5   2   38.36    2.49
  -3   5   2   40.37    2.48
  -3   5   2   38.74    2.56
   4  -4  -2   11.74    0.96
   4  -4  -2   11.01    0.92
   4  -4  -2   10.39    0.86
   4  -4  -2   11.12    1.19
  -4   4   2   10.92    0.74
  -4   4   2   12.06    0.76
  -4   4   2   11.89    0.76
  -4   4   2   11.84    0.91
   5  -3  -2   21.32    1.50
   5  -3  -2   22.36    1.64
   5  -3  -2   18.61    1.69
  -5   3   2   21.86    1.76
  -5   3   2   21.87    1.37
  -5   3   2   21.22    1.37
   6  -2  -2   23.89    1.85
   6  -2  -2   25.06    1.64
   6  -2  -2   23.81    1.77
   6  -2  -2   24.36    1.53
  -6   2   2   25.89    1.54
  -6   2   2   23.00    1.56
  -6   2   2   25.50    1.55
  -6   2   2   19.59    1.77
   7  -1  -2    1.60    0.20
   7  -1  -2    2.53    0.71
   7  -1  -2    1.17    0.54
   7  -1  -2    1.38    0.65
   7  -1  -2    1.74    0.22
   7  -1  -2    1.74    0.21
   7  -1  -2    1.43    0.38
  -7   1   2    1.89    0.21
  -7   1   2    2.01    0.22
  -7   1   2    1.72    0.57
  -7   1   2    1.63    0.19
  -7   1   2    2.09    0.21
   8   0  -2  170.88   10.59
   8   0  -2  163.64   10.65
   8   0  -2  151.69   10.59
   8   0  -2  164.60   10.56
   8   0  -2  171.38   10.54
   8   0  -2  153.22   10.66
  -8   0   2  178.62   10.55
  -8   0   2  184.31   10.54
  -8   0   2  160.36   10.59
  -8   0   2  178.17   10.55
  -8   0   2  166.48   10.60
   9   1  -2    0.79    0.21
   9   1  -2    0.98    0.26
   9   1  -2    0.78    0.19
   9   1  -2    0.78    0.43
   9   1  -2    0.87    0.34
   9   1  -2    1.01    0.39
   9   1  -2    0.51    0.43
  -9  -1   2    0.64    0.18
  -9  -1   2    0.51    0.15
  -9  -1   2    0.58    0.18
  -9  -1   2    1.17    0.37
  -9  -1   2    1.04    0.26
  10   2  -2  381.53   27.04
  10   2  -2  437.91   27.02
  10   2  -2  417.61   26.99
  10   2  -2  435.93   26.99
  10   2  -2  485.08   27.13
 -10  -2   2  453.12   26.99
 -10  -2   2  395.99   27.00
 -10  -2   2  432.03   26.98
  11   3  -2    1.90    0.44
  11   3  -2    1.30    0.27
  11   3  -2    1.58    0.33
  11   3  -2    1.51    0.22
  11   3  -2    1.99    0.31
  11   3  -2    1.40    0.32
 -11  -3   2    1.28    0.30
 -11  -3   2    1.29    0.23
 -11  -3   2    2.15    0.29
 -11  -3   2    1.43    0.26
 -11  -3   2    1.29    0.22
  12   4  -2    5.25    0.51
  12   4  -2    5.26    0.45
  12   4  -2    5.80    0.61
  12   4  -2    5.61    0.46
 -12  -4   2    4.98    0.46
 -12  -4   2    6.08    0.46
 -12  -4   2    5.63    0.48
  13   5  -2   24.52    1.60
  13   5  -2   23.13    1.63
  13   5  -2   24.39    1.56
  13   5  -2   23.26    1.53
 -13  -5   2   23.45    1.57
 -13  -5   2   23.44    1.59
 -13  -5   2   25.38    1.63
 -13  -5   2   24.08    1.59
  14   6  -2   11.71    0.78
  14   6  -2   12.73    0.84
 -14  -6   2   10.31    0.82
 -14  -6   2   10.57    0.85
 -14  -6   2   11.43    0.81
   2  -6  -3   18.11    1.27
   2  -6  -3   18.40    1.30
   2  -6  -3   17.11    1.39
  -2   6   3   17.12    1.14
  -2   6   3   17.43    1.14
  -2   6   3   17.19    1.27
   3  -5  -3    9.22    0.83
   3  -5  -3    9.30    0.97
   3  -5  -3    9.08    0.81
  -3   5   3    8.96    0.80
  -3   5   3    9.23    0.62
  -3   5   3    9.14    0.63
   4  -4  -3    1.41    0.43
   4  -4  -3    1.35    0.46
   4  -4  -3    1.53    0.61
  -4   4   3    1.72    0.43
  -4   4   3    1.35    0.17
  -4   4   3    1.48    0.17
   5  -3  -3  338.79   21.19
   5  -3  -3  338.28   21.29
   5  -3  -3  333.90   21.22
   5  -3  -3  329.02   21.10
  -5   3   3  335.99   21.11
  -5   3   3  340.66   21.09
   6  -2  -3    0.68    0.72
   6  -2  -3    0.15    0.11
   6  -2  -3   -0.06    0.50
  -6   2   3    0.19    0.19
  -6   2   3    0.02    0.12
  -6   2   3   -0.05    0.11
   7  -1  -3   20.53    1.68
   7  -1  -3   17.97    1.54
   7  -1  -3   19.25    1.63
   7  -1  -3   18.65    1.28
  -7   1   3   20.14    1.27
  -7   1   3   20.26    1.28
  -7   1   3   19.59    1.28
   8   0  -3    0.13    0.17
   8   0  -3    0.21    0.11
   8   0  -3    1.07    0.41
   8   0  -3   -0.13    0.53
   8   0  -3   -0.04    0.54
  -8   0   3    0.00    0.12
  -8   0   3    0.10    0.11
  -8   0   3    0.10    0.30
  -8   0   3    0.03    0.12
   9   1  -3   62.91    4.45
   9   1  -3   65.79    4.50
   9   1  -3   68.88    4.34
   9   1  -3   68.83    4.44
  -9  -1   3   72.76    4.34
  -9  -1   3   69.96    4.42
  -9  -1   3   71.29    4.35
  -9  -1   3   72.88    4.34
  -9  -1   3   62.37    4.44
  10   2  -3   10.71    0.89
  10   2  -3    8.24    1.02
  10   2  -3   10.32    0.86
 -10  -2   3   10.46    0.72
 -10  -2   3   10.05    0.74
 -10  -2   3   10.63    0.69
 -10  -2   3   10.59    0.73
  11   3  -3   19.48    1.45
  11   3  -3   21.33    1.86
  11   3  -3   22.07    1.41
  11   3  -3   22.77    1.42
 -11  -3   3   17.97    1.45
 -11  -3   3   24.85    1.41
 -11  -3   3   20.15    1.36
 -11  -3   3   20.55    1.40
 -11  -3   3   20.89    1.39
  12   4  -3   20.36    1.36
  12   4  -3   19.98    1.26
  12   4  -3   17.82    1.26
 -12  -4   3   19.17    1.31
 -12  -4   3   18.87    1.26
 -12  -4   3   18.13    1.25
  13   5  -3   22.02    1.55
  13   5  -3   22.45    1.48
  13   5  -3   27.20    1.63
  13   5  -3   22.64    1.51
 -13  -5   3   22.18    1.52
 -13  -5   3   22.36    1.51
 -13  -5   3   23.70    1.54
   2  -6  -4    2.22    0.88
   2  -6  -4    1.85    0.49
  -2   6   4    2.79    0.24
  -2   6   4    2.53    0.24
   3  -5  -4   18.07    1.32
   3  -5  -4   17.83    1.36
   3  -5  -4   16.84    1.39
  -3   5   4   16.95    1.13
  -3   5   4   17.19    1.13
   4  -4  -4   14.57    1.31
   4  -4  -4   15.26    1.29
   4  -4  -4   13.59    0.96
   4  -4  -4   15.87    1.21
  -4   4   4   15.39    1.00
  -4   4   4   14.64    0.95
   5  -3  -4   11.82    1.16
   5  -3  -4   13.63    1.30
   5  -3  -4   13.36    1.27
  -5   3   4   13.32    0.87
  -5   3   4   12.93    0.86
  -5   3   4   13.62    0.88
   6  -2  -4   25.18    2.13
   6  -2  -4   23.05    2.07
  -6   2   4   28.67    1.75
  -6   2   4   27.59    1.75
  -6   2   4   29.07    1.76
   7  -1  -4    4.89    0.61
   7  -1  -4    5.33    0.88
   7  -1  -4    6.93    0.91
   7  -1  -4    5.22    0.90
  -7   1   4    5.11    0.42
  -7   1   4    5.99    0.53
  -7   1   4    5.34    0.46
  -7   1   4    5.73    0.42
   8   0  -4   53.93    3.36
   8   0  -4   48.72    3.47
   8   0  -4   51.10    3.52
   8   0  -4   53.03    3.40
   8   0  -4   51.65    3.60
  -8   0   4   51.76    3.36
  -8   0   4   55.75    3.36
  -8   0   4   55.12    3.35
  -8   0   4   54.36    3.36
   9   1  -4    0.23    0.42
   9   1  -4   -0.08    0.59
   9   1  -4    0.39    0.51
   9   1  -4    0.54    0.14
  -9  -1   4    0.24    0.15
  -9  -1   4    0.38    0.15
  -9  -1   4    0.35    0.16
  10   2  -4  194.96   13.99
  10   2  -4  220.51   13.92
  10   2  -4  224.95   13.87
 -10  -2   4  229.28   13.85
 -10  -2   4  235.29   13.86
 -10  -2   4  232.66   13.86
 -10  -2   4  226.57   13.82
 -10  -2   4  196.89   13.87
  11   3  -4    0.46    0.42
  11   3  -4    0.72    0.22
 -11  -3   4    0.70    0.15
 -11  -3   4    0.52    0.20
 -11  -3   4    0.37    0.13
 -11  -3   4    0.44    0.17
  12   4  -4   11.35    0.75
  12   4  -4   10.70    0.81
 -12  -4   4   10.58    0.76
 -12  -4   4   10.76    0.74
 -12  -4   4   10.12    0.73
  13   5  -4   12.45    0.91
  13   5  -4   12.21    0.82
 -13  -5   4   12.01    0.83
 -13  -5   4   12.49    0.84
 -13  -5   4   11.19    0.82
   3  -5  -5    4.22    0.68
   3  -5  -5    5.02    0.82
   3  -5  -5    5.68    0.70
  -3   5   5    4.24    0.34
  -3   5   5    4.10    0.34
   4  -4  -5    1.28    0.50
   4  -4  -5    0.35    0.48
   4  -4  -5   -0.30    0.65
  -4   4   5    0.09    0.11
  -4   4   5    0.34    0.13
  -4   4   5    0.05    0.10
   5  -3  -5  112.69    7.23
   5  -3  -5  100.65    7.18
   5  -3  -5  104.07    7.22
  -5   3   5  112.36    7.05
  -5   3   5  115.58    7.03
  -5   3   5  123.54    7.05
   6  -2  -5   -0.65    0.55
   6  -2  -5    0.90    0.62
  -6   2   5    0.25    0.16
  -6   2   5    0.09    0.12
   7  -1  -5   15.90    1.29
   7  -1  -5   16.18    1.13
   7  -1  -5   14.21    1.25
   7  -1  -5   14.31    1.39
  -7   1   5   15.36    1.03
  -7   1   5   15.72    1.03
  -7   1   5   17.88    1.11
   8   0  -5    0.23    0.22
   8   0  -5    0.15    0.40
   8   0  -5   -0.33    0.40
   8   0  -5    0.30    0.56
  -8   0   5   -0.09    0.11
  -8   0   5   -0.06    0.12
  -8   0   5    0.14    0.19
  -8   0   5    0.03    0.11
  -8   0   5    0.51    0.17
   9   1  -5   25.91    1.99
   9   1  -5   26.40    1.72
   9   1  -5   27.27    1.85
   9   1  -5   24.71    1.84
  -9  -1   5   27.01    1.72
  -9  -1   5   27.40    1.74
  -9  -1   5   28.09    1.73
  -9  -1   5   27.35    1.72
  -9  -1   5   26.50    1.73
  10   2  -5    2.08    0.59
  10   2  -5    2.42    0.38
  10   2  -5    2.60    0.33
 -10  -2   5    2.23    0.27
 -10  -2   5    2.63    0.25
 -10  -2   5    2.25    0.22
 -10  -2   5    2.26    0.26
  11   3  -5   21.43    1.48
  11   3  -5   18.03    1.82
  11   3  -5   22.59    1.42
 -11  -3   5   22.34    1.43
 -11  -3   5   21.73    1.41
 -11  -3   5   21.83    1.41
  12   4  -5    8.79    0.81
  12   4  -5    7.41    0.63
  12   4  -5    8.28    0.60
  12   4  -5    7.17    0.55
 -12  -4   5    6.15    0.53
 -12  -4   5    9.12    0.58
 -12  -4   5    7.50    0.57
 -12  -4   5    7.56    0.55
   4  -4  -6   10.61    0.99
   4  -4  -6    6.94    0.89
   4  -4  -6    8.32    0.92
  -4   4   6    8.14    0.58
  -4   4   6    8.33    0.56
  -4   4   6    8.32    0.59
   5  -3  -6    2.18    0.59
   5  -3  -6    2.71    0.56
   5  -3  -6    5.36    0.85
  -5   3   6    2.94    0.27
  -5   3   6    3.11    0.29
  -5   3   6    2.70    0.30
   6  -2  -6   22.36    1.74
   6  -2  -6   27.08    1.89
   6  -2  -6   22.31    1.86
   6  -2  -6   24.50    1.64
  -6   2   6   24.91    1.59
  -6   2   6   26.11    1.63
  -6   2   6   24.71    1.58
   7  -1  -6    1.08    0.35
   7  -1  -6    1.34    0.59
   7  -1  -6    0.70    0.34
   7  -1  -6    0.68    0.41
  -7   1   6    0.72    0.26
  -7   1   6    0.66    0.14
  -7   1   6    0.97    0.16
   8   0  -6   14.18    0.99
   8   0  -6   14.24    1.09
   8   0  -6   14.93    1.28
  -8   0   6   14.05    0.95
  -8   0   6   15.22    0.95
  -8   0   6   13.74    0.93
   9   1  -6    0.28    0.30
   9   1  -6    0.48    0.30
   9   1  -6    0.74    0.50
  -9  -1   6    0.23    0.15
  -9  -1   6    0.14    0.12
  -9  -1   6    0.13    0.11
  -9  -1   6    0.10    0.13
  10   2  -6   45.93    3.28
  10   2  -6   48.18    3.11
  10   2  -6   47.38    3.05
 -10  -2   6   50.08    3.05
 -10  -2   6   46.27    3.10
 -10  -2   6   48.70    3.05
  11   3  -6    0.91    0.18
  11   3  -6    1.21    0.39
  11   3  -6    0.88    0.45
 -11  -3   6    0.32    0.19
 -11  -3   6    0.11    0.13
 -11  -3   6    0.58    0.16
 -11  -3   6    0.28    0.15
   7  -1  -7   11.16    0.93
   7  -1  -7   11.80    0.83
   7  -1  -7   10.61    0.89
   7  -1  -7   10.36    1.04
  -7   1   7    9.99    0.72
   8   0  -7   -0.86    0.36
   8   0  -7    0.38    0.61
   8   0  -7    0.40    0.30
  -8   0   7    0.20    0.11
   9   1  -7    9.99    0.77
   9   1  -7   11.05    1.13
  -9  -1   7    8.84    0.64
  -9  -1   7    9.28    0.65
   9  -1   7    9.24    0.65
   9  -1   7    8.79    0.66
  -9   1  -7    8.95    0.77
  -9   1  -7    9.00    1.28
  10   0   7    0.18    0.13
  10   0   7    0.03    0.15
  10   0   7   -0.18    0.17
 -10   0  -7    0.48    0.31
 -10   0  -7    0.38    0.74
   6  -4   6   13.45    0.92
  -6   4  -6   13.71    1.09
  -6   4  -6   13.65    0.89
  -6   4  -6   11.93    1.00
   7  -3   6    5.02    0.60
   7  -3   6    4.86    0.41
   7  -3   6    5.19    0.36
   7  -3   6    4.60    0.43
  -7   3  -6    4.91    0.59
  -7   3  -6    4.33    0.56
  -7   3  -6    5.51    0.39
   8  -2   6    8.42    0.61
   8  -2   6    8.43    0.63
   8  -2   6    8.33    0.57
  -8   2  -6    8.89    0.58
  -8   2  -6    8.16    0.74
  -8   2  -6    7.55    0.84
   9  -1   6    0.19    0.17
   9  -1   6    0.17    0.12
   9  -1   6    0.00    0.15
  -9   1  -6    0.35    0.10
  -9   1  -6   -0.11    0.44
  -9   1  -6    0.19    0.28
  10   0   6   84.27    5.28
  10   0   6   85.35    5.27
  10   0   6   84.79    5.25
 -10   0  -6   82.80    5.35
 -10   0  -6   78.85    5.22
  11   1   6    0.40    0.14
  11   1   6    0.21    0.15
  11   1   6    0.08    0.18
 -11  -1  -6    1.12    0.56
 -11  -1  -6    0.37    0.26
  12   2   6   12.72    0.87
  12   2   6   14.10    0.94
  12   2   6   12.64    0.89
  12   2   6   12.88    0.89
 -12  -2  -6   13.29    0.94
 -12  -2  -6   14.07    0.99
  13   3   6    3.62    0.35
  13   3   6    4.00    0.31
  13   3   6    3.44    0.34
  13   3   6    3.89    0.44
 -13  -3  -6    4.70    0.76
 -13  -3  -6    3.77    0.40
 -13  -3  -6    4.68    0.45
   5  -5   5   42.19    2.71
   5  -5   5   42.34    2.68
   5  -5   5   40.84    2.74
  -5   5  -5   46.52    3.07
  -5   5  -5   39.77    2.69
   6  -4   5    0.44    0.18
   6  -4   5    0.96    0.30
   6  -4   5    0.32    0.14
  -6   4  -5    0.74    0.28
  -6   4  -5    0.72    0.15
  -6   4  -5    0.26    0.33
   7  -3   5   16.18    1.08
   7  -3   5   16.45    1.20
   7  -3   5   15.22    1.01
   7  -3   5   15.47    1.05
  -7   3  -5   16.10    1.22
  -7   3  -5   15.91    1.19
  -7   3  -5   15.79    1.04
   8  -2   5    5.24    0.43
   8  -2   5    5.14    0.53
   8  -2   5    4.85    0.38
  -8   2  -5    5.24    0.58
  -8   2  -5    5.45    0.38
  -8   2  -5    4.77    0.71
   9  -1   5   28.56    1.80
   9  -1   5   28.24    1.80
   9  -1   5   27.60    1.76
  -9   1  -5   26.89    1.88
  -9   1  -5   27.46    1.75
  -9   1  -5   25.48    2.04
  10   0   5    0.10    0.15
  10   0   5   -0.13    0.26
  10   0   5    0.16    0.18
  10   0   5    0.33    0.14
 -10   0  -5    0.44    0.54
 -10   0  -5    0.06    0.28
 -10   0  -5    0.25    0.07
  11   1   5   31.09    2.01
  11   1   5   32.91    2.06
  11   1   5   31.09    2.00
  11   1   5   28.85    1.97
 -11  -1  -5   31.43    2.09
 -11  -1  -5   31.81    2.06
  12   2   5    3.58    0.48
  12   2   5    3.10    0.27
  12   2   5    3.28    0.33
 -12  -2  -5    3.45    0.43
 -12  -2  -5    3.86    0.44
 -12  -2  -5    4.22    0.72
  13   3   5   18.02    1.25
  13   3   5   19.06    1.26
  13   3   5   18.23    1.24
 -13  -3  -5   20.74    1.51
 -13  -3  -5   18.83    1.34
 -13  -3  -5   21.05    1.42
  14   4   5    0.06    0.12
  14   4   5    0.27    0.12
 -14  -4  -5    0.71    0.23
 -14  -4  -5    0.52    0.50
 -14  -4  -5    0.29    0.26
   4  -6   4    2.50    0.53
   4  -6   4    3.86    0.30
   4  -6   4    3.73    0.38
  -4   6  -4    3.14    0.73
  -4   6  -4    4.24    0.35
  -4   6  -4    3.92    0.27
   5  -5   4   10.72    0.77
   5  -5   4   10.41    0.81
   5  -5   4   11.17    0.73
  -5   5  -4   10.77    0.69
  -5   5  -4   10.44    1.00
  -5   5  -4   10.83    0.74
   6  -4   4   19.37    1.28
   6  -4   4   19.34    1.26
   6  -4   4   19.53    1.35
  -6   4  -4   19.05    1.46
  -6   4  -4   19.07    1.26
   7  -3   4    8.25    0.58
   7  -3   4    7.92    0.75
   7  -3   4    8.33    0.61
  -7   3  -4    7.75    0.73
  -7   3  -4    7.55    0.77
  -7   3  -4    8.41    0.57
   8  -2   4   46.82    2.87
   8  -2   4   47.75    2.85
   8  -2   4   45.75    2.82
  -8   2  -4   42.13    2.88
  -8   2  -4   39.95    2.82
  -8   2  -4   43.00    3.02
  -8   2  -4   47.13    2.97
   9  -1   4    0.66    0.18
   9  -1   4    0.20    0.33
   9  -1   4    0.91    0.24
  -9   1  -4    0.33    0.34
  -9   1  -4    0.63    0.12
  -9   1  -4   -0.27    0.59
  10   0   4  232.29   14.80
  10   0   4  228.96   14.76
  10   0   4  244.41   14.77
  10   0   4  236.95   14.75
 -10   0  -4  231.50   14.82
 -10   0  -4  235.08   14.85
  11   1   4    0.84    0.19
  11   1   4    0.87    0.18
  11   1   4    0.82    0.12
 -11  -1  -4    0.72    0.14
 -11  -1  -4    0.82    0.30
 -11  -1  -4    0.70    0.31
 -11  -1  -4    0.74    0.64
  12   2   4   16.66    1.12
  12   2   4   17.09    1.12
 -12  -2  -4   16.01    1.38
 -12  -2  -4   16.95    1.18
 -12  -2  -4   17.52    1.25
  13   3   4   12.45    0.85
  13   3   4   12.09    0.84
  13   3   4   11.72    0.82
 -13  -3  -4   13.27    0.90
 -13  -3  -4   11.91    1.07
 -13  -3  -4   12.84    1.00
  14   4   4   20.63    1.37
  14   4   4   20.68    1.35
  14   4   4   20.51    1.35
 -14  -4  -4   21.47    1.40
 -14  -4  -4   20.94    1.53
  15   5   4    6.95    0.52
  15   5   4    6.35    0.50
  15   5   4    6.73    0.59
 -15  -5  -4    7.94    0.57
 -15  -5  -4    8.55    0.74
   4  -6   3    0.17    0.09
   4  -6   3    0.52    0.52
   4  -6   3    0.25    0.17
   4  -6   3    0.25    0.23
  -4   6  -3    0.25    0.09
  -4   6  -3    0.17    0.48
  -4   6  -3    0.36    0.14
   5  -5   3  120.10    7.55
   5  -5   3  123.26    7.52
   5  -5   3  120.12    7.49
  -5   5  -3  119.92    7.52
  -5   5  -3  121.26    7.48
  -5   5  -3  109.11    7.70
   6  -4   3    1.67    0.21
   6  -4   3    1.80    0.22
   6  -4   3    1.77    0.26
   6  -4   3    2.14    0.35
  -6   4  -3    1.90    0.16
  -6   4  -3    1.95    0.23
  -6   4  -3    2.19    0.50
   7  -3   3    9.83    0.70
   7  -3   3   11.45    0.90
   7  -3   3   10.54    0.72
   7  -3   3   11.25    0.76
  -7   3  -3   10.23    0.68
  -7   3  -3   10.96    0.96
  -7   3  -3   10.38    0.87
  -7   3  -3   10.65    0.72
   8  -2   3   15.62    0.96
   8  -2   3   14.48    1.05
   8  -2   3   15.30    1.01
   8  -2   3   15.66    0.99
  -8   2  -3   15.09    0.97
  -8   2  -3   12.75    0.96
  -8   2  -3   14.54    1.20
  -8   2  -3   15.30    1.15
   9  -1   3   72.06    4.48
   9  -1   3   71.89    4.45
   9  -1   3   73.61    4.43
   9  -1   3   72.45    4.45
  -9   1  -3   64.62    4.43
  -9   1  -3   72.29    4.49
  -9   1  -3   69.83    4.42
  -9   1  -3   70.56    4.56
  -9   1  -3   64.00    4.64
  10   0   3    0.27    0.15
  10   0   3   -0.12    0.33
  10   0   3    0.21    0.15
 -10   0  -3    0.11    0.18
 -10   0  -3    0.22    0.29
 -10   0  -3    0.29    0.58
 -10   0  -3    0.05    0.30
  11   1   3   35.36    2.24
  11   1   3   33.91    2.50
  11   1   3   36.07    2.25
  11   1   3   32.98    2.22
 -11  -1  -3   32.83    2.22
 -11  -1  -3   37.15    2.30
 -11  -1  -3   37.06    2.53
  12   2   3    5.82    0.44
  12   2   3    6.44    0.48
  12   2   3    6.52    0.48
 -12  -2  -3    5.62    0.84
 -12  -2  -3    4.82    0.76
 -12  -2  -3    5.78    0.55
  13   3   3   57.99    3.79
  13   3   3   61.32    3.80
  13   3   3   59.66    3.81
 -13  -3  -3   60.52    3.82
 -13  -3  -3   59.84    3.93
  14   4   3    0.49    0.15
  14   4   3    0.23    0.14
  14   4   3    0.23    0.16
 -14  -4  -3    0.69    0.22
 -14  -4  -3    1.00    0.36
 -14  -4  -3    0.22    0.32
  15   5   3   48.94    3.04
  15   5   3   47.27    3.05
  15   5   3   46.66    3.05
 -15  -5  -3   47.76    3.14
 -15  -5  -3   48.65    3.06
  -3   7  -2   19.43    1.22
  -3   7  -2   18.47    1.26
   4  -6   2    4.48    0.41
   4  -6   2    4.71    0.82
   4  -6   2    4.95    0.47
  -4   6  -2    4.46    0.72
  -4   6  -2    5.01    0.34
  -4   6  -2    4.58    0.39
   5  -5   2   21.99    1.53
   5  -5   2   22.14    1.39
   5  -5   2   19.70    1.69
   5  -5   2   22.84    1.44
  -5   5  -2   18.70    1.68
  -5   5  -2   22.36    1.44
  -5   5  -2   23.08    1.39
   6  -4   2   12.91    0.90
   6  -4   2   11.59    0.78
   6  -4   2   12.27    0.82
  -6   4  -2   11.68    1.12
  -6   4  -2   10.04    0.80
  -6   4  -2   11.83    0.81
  -6   4  -2   12.08    0.76
   7  -3   2   26.51    1.76
   7  -3   2   28.49    1.87
   7  -3   2   28.07    1.77
   7  -3   2   28.13    1.80
  -7   3  -2   27.58    1.80
  -7   3  -2   27.09    1.77
  -7   3  -2   26.89    1.96
  -7   3  -2   28.70    1.88
  -7   3  -2   27.68    1.75
   8  -2   2  122.28    7.40
   8  -2   2  115.94    7.40
   8  -2   2  110.08    7.43
   8  -2   2  117.42    7.52
   8  -2   2  122.72    7.43
   8  -2   2  121.44    7.45
  -8   2  -2  120.43    7.42
  -8   2  -2  118.74    7.42
  -8   2  -2  111.50    7.52
  -8   2  -2  118.08    7.53
   9  -1   2    0.72    0.16
   9  -1   2    0.81    0.25
   9  -1   2    0.61    0.14
   9  -1   2    0.54    0.22
   9  -1   2    0.78    0.16
   9  -1   2    0.85    0.15
   9  -1   2    0.43    0.44
  -9   1  -2    0.52    0.14
  -9   1  -2    0.67    0.46
  -9   1  -2    0.73    0.30
  -9   1  -2    0.70    0.12
  -9   1  -2    0.67    0.13
  -9   1  -2    0.72    0.23
  10   0   2  669.41   41.78
 -10   0  -2  668.68   41.80
 -10   0  -2  655.85   41.68
  11   1   2    0.80    0.16
  11   1   2    1.15    0.19
  11   1   2    1.17    0.22
  11   1   2    0.83    0.50
 -11  -1  -2    0.82    0.23
 -11  -1  -2    0.57    0.16
 -11  -1  -2    1.19    0.50
 -11  -1  -2    0.05    0.39
  12   2   2   26.92    1.64
  12   2   2   23.85    1.60
  12   2   2   24.82    1.62
 -12  -2  -2   24.13    1.77
 -12  -2  -2   23.90    1.62
  13   3   2   18.84    1.24
  13   3   2   18.77    1.25
  13   3   2   19.67    1.28
  13   3   2   18.51    1.25
 -13  -3  -2   19.28    1.26
 -13  -3  -2   18.17    1.26
 -13  -3  -2   19.08    1.21
 -13  -3  -2   18.35    1.38
 -13  -3  -2   19.40    1.44
  14   4   2   46.42    3.00
  14   4   2   46.96    3.00
  14   4   2   50.71    3.01
  14   4   2   44.49    3.00
 -14  -4  -2   47.09    2.97
 -14  -4  -2   46.56    3.00
 -14  -4  -2   46.60    3.08
  15   5   2   10.79    0.73
  15   5   2   10.64    0.72
  15   5   2   10.08    0.72
  15   5   2   10.25    0.75
 -15  -5  -2   10.09    0.82
  16   6   2    2.61    0.27
  16   6   2    3.50    0.36
  16   6   2    3.30    0.30
  16   6   2    2.35    0.28
 -16  -6  -2    2.69    0.42
 -16  -6  -2    2.93    0.58
   3  -7   1    2.44    0.63
   3  -7   1    3.08    0.34
   3  -7   1    2.99    0.44
  -3   7  -1    3.04    0.25
  -3   7  -1    3.33    0.43
   4  -6   1    0.57    0.53
   4  -6   1    0.61    0.26
   4  -6   1    0.80    0.20
  -4   6  -1    0.39    0.41
  -4   6  -1    0.79    0.18
   5  -5   1  190.43   11.73
   5  -5   1  167.21   11.89
   5  -5   1  195.16   11.77
  -5   5  -1  175.46   11.91
  -5   5  -1  195.56   11.71
  -5   5  -1  193.00   11.74
   6  -4   1    0.73    0.11
   6  -4   1    1.24    0.21
   6  -4   1    0.82    0.11
   6  -4   1    0.85    0.61
   6  -4   1    1.05    0.30
  -6   4  -1    1.05    0.20
  -6   4  -1    0.90    0.12
  -6   4  -1    0.49    0.56
   7  -3   1    7.35    0.45
   7  -3   1    6.22    0.45
   7  -3   1    6.28    0.45
   7  -3   1    6.86    0.49
  -7   3  -1    7.27    0.50
  -7   3  -1    6.32    0.45
  -7   3  -1    5.99    0.45
  -7   3  -1    6.01    0.91
   8  -2   1   18.68    1.21
   8  -2   1   16.84    1.25
   8  -2   1   20.52    1.25
   8  -2   1   19.56    1.32
   8  -2   1   19.83    1.32
   8  -2   1   15.18    1.42
   8  -2   1   18.26    1.23
   8  -2   1   19.99    1.23
   8  -2   1   18.14    1.24
  -8   2  -1   20.25    1.24
  -8   2  -1   20.11    1.33
  -8   2  -1   19.73    1.24
  -8   2  -1   20.10    1.22
  -8   2  -1   17.37    1.22
  -8   2  -1   19.15    1.40
   9  -1   1  135.88    8.45
   9  -1   1  120.88    8.53
   9  -1   1  144.09    8.45
   9  -1   1  133.64    8.46
   9  -1   1  149.79    8.47
   9  -1   1  137.27    8.45
   9  -1   1  123.27    8.52
   9  -1   1  133.30    8.46
   9  -1   1  145.35    8.49
   9  -1   1  129.28    8.48
   9  -1   1  113.22    8.47
  -9   1  -1  141.59    8.45
  -9   1  -1  139.80    8.49
  -9   1  -1  125.14    8.54
  -9   1  -1  138.43    8.51
  -9   1  -1  136.02    8.45
  10   0   1    1.27    0.31
  10   0   1    0.91    0.52
  10   0   1    0.81    0.20
  10   0   1    0.68    0.32
  10   0   1    0.83    0.29
  10   0   1    1.04    0.17
  10   0   1    1.03    0.24
  10   0   1    1.01    0.33
  10   0   1    0.86    0.21
  10   0   1    0.76    0.16
 -10   0  -1    0.79    0.35
 -10   0  -1    1.00    0.29
 -10   0  -1    0.99    0.22
 -10   0  -1    0.68    0.18
 -10   0  -1    0.96    0.43
 -10   0  -1    0.60    0.18
  11   1   1   24.22    1.73
  11   1   1   27.59    1.66
  11   1   1   28.51    1.71
  11   1   1   25.65    1.75
  11   1   1   25.12    1.75
  11   1   1   28.93    1.71
  11   1   1   22.32    1.88
  11   1   1   25.30    1.69
 -11  -1  -1   28.20    1.67
 -11  -1  -1   26.58    1.81
 -11  -1  -1   24.51    1.72
 -11  -1  -1   24.79    1.69
 -11  -1  -1   25.84    1.69
  12   2   1   19.65    1.19
  12   2   1   18.98    1.35
  12   2   1   17.50    1.15
  12   2   1   16.29    1.42
  12   2   1   19.70    1.19
 -12  -2  -1   15.43    1.20
 -12  -2  -1   17.03    1.27
 -12  -2  -1   17.03    1.15
  13   3   1  131.34    8.07
  13   3   1  130.19    8.09
  13   3   1  136.51    8.08
 -13  -3  -1  131.36    8.13
 -13  -3  -1  135.71    8.06
 -13  -3  -1  113.53    8.16
 -13  -3  -1  128.37    8.08
 -13  -3  -1  116.82    8.10
  14   4   1    0.38    0.17
  14   4   1   -0.05    0.15
  14   4   1    0.19    0.16
  14   4   1    0.04    0.22
 -14  -4  -1    0.18    0.15
 -14  -4  -1    0.16    0.16
 -14  -4  -1    0.05    0.18
 -14  -4  -1    0.34    0.27
 -14  -4  -1   -0.04    0.31
  15   5   1   73.92    4.54
  15   5   1   72.97    4.55
  15   5   1   71.06    4.53
  15   5   1   71.50    4.52
 -15  -5  -1   72.36    4.52
 -15  -5  -1   73.89    4.58
 -15  -5  -1   66.24    4.60
 -15  -5  -1   69.09    4.53
  16   6   1    1.63    0.23
  16   6   1    2.40    0.33
  16   6   1    2.09    0.25
 -16  -6  -1    2.34    0.36
 -16  -6  -1    2.26    0.23
 -16  -6  -1    1.75    0.34
 -16  -6  -1    1.61    0.26
   3  -7   0   20.79    1.72
   3  -7   0   23.89    1.52
  -3   7   0   23.75    1.48
  -3   7   0   22.60    1.53
   4  -6   0    2.94    0.34
   4  -6   0    2.47    0.43
   4  -6   0    2.43    0.60
  -4   6   0    3.74    0.26
  -4   6   0    2.60    0.32
   5  -5   0   26.62    1.75
   5  -5   0   27.38    1.80
   5  -5   0   28.10    1.86
  -5   5   0   27.92    1.76
  -5   5   0   27.94    1.81
  -5   5   0   28.32    1.77
   6  -4   0    5.02    0.83
   6  -4   0    5.20    0.38
   6  -4   0    5.41    0.44
   6  -4   0    5.91    0.55
  -6   4   0    4.12    0.74
  -6   4   0    5.41    0.38
  -6   4   0    5.71    0.46
  -6   4   0    5.65    0.39
   7  -3   0   27.31    1.78
   7  -3   0   25.51    2.02
   7  -3   0   27.15    1.79
   7  -3   0   27.72    1.79
   7  -3   0   29.27    1.86
  -7   3   0   28.77    1.79
  -7   3   0   28.70    2.00
  -7   3   0   28.39    1.79
  -7   3   0   28.22    1.79
  -7   3   0   28.70    1.82
   8  -2   0  170.12   10.76
   8  -2   0  155.10   10.80
   8  -2   0  174.83   10.77
   8  -2   0  187.83   10.78
   8  -2   0  173.28   10.80
   8  -2   0  167.11   10.77
   8  -2   0  177.83   10.81
   8  -2   0  166.42   10.77
   8  -2   0  165.57   10.89
   8  -2   0  155.17   10.91
  -8   2   0  180.70   10.77
  -8   2   0  172.83   10.80
  -8   2   0  179.41   10.78
  -8   2   0  182.65   10.91
  -8   2   0  161.21   10.77
  -8   2   0  172.07   10.78
  -8   2   0  169.23   10.77
   9  -1   0    6.61    0.53
   9  -1   0    5.87    0.58
   9  -1   0    5.56    0.58
   9  -1   0    5.43    0.57
   9  -1   0    7.10    0.71
   9  -1   0    6.72    0.51
   9  -1   0    6.87    0.50
   9  -1   0    6.41    0.54
   9  -1   0    6.31    0.69
   9  -1   0    6.42    0.53
  -9   1   0    6.65    0.52
  -9   1   0    6.53    0.55
  -9   1   0    6.38    0.54
  -9   1   0    5.46    0.55
  -9   1   0    7.92    0.65
  -9   1   0    7.49    0.49
  -9   1   0    7.19    0.57
  11   1   0    1.03    0.30
  11   1   0    1.70    0.40
  11   1   0    0.98    0.29
  11   1   0    1.01    0.30
  11   1   0    1.39    0.42
  11   1   0    1.28    0.34
 -11  -1   0    1.28    0.31
 -11  -1   0    0.98    0.31
 -11  -1   0    1.55    0.31
 -11  -1   0    0.99    0.37
 -11  -1   0    1.29    0.27
  12   2   0    4.25    0.43
  12   2   0    4.70    0.47
  12   2   0    4.32    0.47
  12   2   0    3.38    0.56
 -12  -2   0    5.91    0.58
 -12  -2   0    5.03    0.49
 -12  -2   0    5.94    0.52
 -12  -2   0    4.34    0.39
  13   3   0   30.26    1.88
  13   3   0   28.86    1.87
 -13  -3   0   26.76    1.94
 -13  -3   0   28.81    1.90
  14   4   0   52.66    3.21
  14   4   0   50.90    3.23
  14   4   0   51.20    3.23
 -14  -4   0   49.29    3.20
 -14  -4   0   51.63    3.25
 -14  -4   0   48.85    3.28
 -14  -4   0   48.46    3.20
  15   5   0   13.34    0.91
  15   5   0   13.96    0.93
  15   5   0   13.83    0.95
 -15  -5   0   15.74    0.90
 -15  -5   0   13.26    0.97
 -15  -5   0   12.61    1.00
 -15  -5   0   12.21    0.92
  16   6   0    2.28    0.30
  16   6   0    2.05    0.28
  16   6   0    1.64    0.23
 -16  -6   0    2.56    0.34
 -16  -6   0    2.67    0.37
 -16  -6   0    2.69    0.28
   3  -7  -1    2.16    0.61
   3  -7  -1    2.74    0.48
  -3   7   1    2.25    0.34
  -3   7   1    2.82    0.27
  -3   7   1    2.98    0.22
   4  -6  -1    1.10    0.23
   4  -6  -1    0.61    0.31
   4  -6  -1    0.71    0.52
  -4   6   1    0.90    0.23
  -4   6   1    0.83    0.11
  -4   6   1    0.80    0.13
   5  -5  -1  189.10   12.18
   5  -5  -1  202.13   12.22
   5  -5  -1  176.16   12.31
  -5   5   1  193.63   12.20
  -5   5   1  194.78   12.16
  -5   5   1  203.27   12.13
   6  -4  -1    0.90    0.61
   6  -4  -1    1.02    0.20
   6  -4  -1    1.24    0.36
  -6   4   1    0.83    0.14
  -6   4   1    0.89    0.14
  -6   4   1    1.05    0.26
  -6   4   1    0.85    0.13
   7  -3  -1    7.53    0.61
   7  -3  -1    7.02    0.48
   7  -3  -1    6.62    0.47
  -7   3   1    6.63    0.47
  -7   3   1    6.38    0.45
  -7   3   1    6.98    0.67
  -7   3   1    6.81    0.48
   8  -2  -1   18.50    1.20
   8  -2  -1   15.38    1.37
   8  -2  -1   20.11    1.25
   8  -2  -1   18.59    1.32
   8  -2  -1   19.45    1.20
   8  -2  -1   15.64    1.29
   8  -2  -1   17.42    1.47
   8  -2  -1   18.81    1.20
  -8   2   1   17.71    1.42
  -8   2   1   15.91    1.25
  -8   2   1   20.37    1.21
  -8   2   1   19.48    1.31
  -8   2   1   19.21    1.21
  -8   2   1   20.71    1.20
   9  -1  -1  137.63    8.72
   9  -1  -1  145.55    8.70
   9  -1  -1  135.20    8.83
   9  -1  -1  142.66    8.71
   9  -1  -1  143.39    8.72
   9  -1  -1  140.80    8.73
   9  -1  -1  124.65    8.81
  -9   1   1  122.94    8.71
  -9   1   1  142.12    8.69
  -9   1   1  128.21    8.77
  -9   1   1  141.39    8.73
  -9   1   1  143.27    8.72
  -9   1   1  149.03    8.71
  10   0  -1    0.52    0.22
  10   0  -1    1.00    0.37
  10   0  -1    1.41    0.33
  10   0  -1    0.83    0.30
  10   0  -1    1.14    0.48
  10   0  -1    1.56    0.58
  10   0  -1    0.71    0.20
 -10   0   1    0.95    0.20
 -10   0   1    0.75    0.29
 -10   0   1    0.90    0.41
 -10   0   1    0.72    0.31
 -10   0   1    0.94    0.26
 -10   0   1    0.69    0.21
  11   1  -1   24.40    1.69
  11   1  -1   26.28    1.69
  11   1  -1   26.32    1.76
  11   1  -1   23.37    1.76
  11   1  -1   22.89    1.75
  11   1  -1   24.13    1.68
 -11  -1   1   28.88    1.69
 -11  -1   1   25.56    1.86
 -11  -1   1   22.32    1.71
 -11  -1   1   24.43    1.64
 -11  -1   1   26.78    1.70
 -11  -1   1   28.97    1.70
  12   2  -1   19.07    1.28
  12   2  -1   19.78    1.25
  12   2  -1   18.37    1.26
  12   2  -1   17.91    1.26
  12   2  -1   15.60    1.20
 -12  -2   1   17.94    1.24
 -12  -2   1   17.83    1.25
 -12  -2   1   20.07    1.25
 -12  -2   1   17.09    1.16
 -12  -2   1   17.83    1.20
  13   3  -1  125.83    8.28
  13   3  -1  128.80    8.28
  13   3  -1  130.82    8.30
  13   3  -1  135.31    8.30
 -13  -3   1  129.35    8.31
 -13  -3   1  131.15    8.31
 -13  -3   1  135.81    8.27
 -13  -3   1  133.90    8.28
 -13  -3   1  128.79    8.24
  14   4  -1    0.03    0.20
  14   4  -1    0.32    0.19
  14   4  -1    0.12    0.18
 -14  -4   1    0.24    0.22
 -14  -4   1   -0.03    0.19
 -14  -4   1    0.24    0.21
 -14  -4   1    0.15    0.20
  15   5  -1   70.19    4.47
  15   5  -1   71.17    4.51
  15   5  -1   71.68    4.44
 -15  -5   1   66.29    4.45
 -15  -5   1   71.79    4.47
 -15  -5   1   70.11    4.50
  16   6  -1    2.30    0.27
  16   6  -1    1.43    0.20
  16   6  -1    2.10    0.28
 -16  -6   1    1.37    0.29
 -16  -6   1    2.03    0.30
  -3   7   2   19.29    1.25
   4  -6  -2    6.00    0.52
   4  -6  -2    4.74    0.78
   4  -6  -2    4.86    0.59
  -4   6   2    5.00    0.37
  -4   6   2    5.00    0.38
  -4   6   2    5.36    0.52
   5  -5  -2   23.45    1.62
   5  -5  -2   23.29    1.55
   5  -5  -2   24.36    1.59
   5  -5  -2   21.90    1.76
  -5   5   2   24.33    1.49
  -5   5   2   24.42    1.56
  -5   5   2   20.81    1.48
  -5   5   2   23.38    1.59
   6  -4  -2   10.72    1.23
   6  -4  -2   11.79    0.99
   6  -4  -2   11.76    0.97
  -6   4   2   12.43    0.81
  -6   4   2   12.63    0.81
  -6   4   2   12.71    0.96
   7  -3  -2   26.54    2.10
   7  -3  -2   27.58    1.90
   7  -3  -2   26.85    1.93
  -7   3   2   28.56    1.79
  -7   3   2   28.72    1.92
  -7   3   2   28.54    1.80
   8  -2  -2  114.49    7.41
   8  -2  -2  108.47    7.61
   8  -2  -2  118.56    7.47
   8  -2  -2  108.79    7.55
  -8   2   2  124.60    7.42
  -8   2   2  124.51    7.42
  -8   2   2  119.69    7.42
  -8   2   2  122.28    7.43
   9  -1  -2    1.51    0.67
   9  -1  -2    0.34    0.36
   9  -1  -2    0.86    0.17
   9  -1  -2    0.64    0.15
   9  -1  -2    0.42    0.73
   9  -1  -2    0.96    0.66
  -9   1   2    0.69    0.16
  -9   1   2    0.69    0.11
  -9   1   2    0.79    0.38
  -9   1   2    0.87    0.20
  -9   1   2    0.74    0.14
  10   0  -2  683.24   41.94
  10   0  -2  727.49   41.94
  10   0  -2  694.99   41.99
  10   0  -2  639.09   41.89
 -10   0   2  564.39   41.98
 -10   0   2  692.37   41.88
  11   1  -2    1.54    0.48
  11   1  -2    0.57    0.44
  11   1  -2    1.36    0.40
  11   1  -2    1.01    0.20
  11   1  -2    1.06    0.46
  11   1  -2    0.92    0.23
 -11  -1   2    0.87    0.18
 -11  -1   2    1.04    0.41
 -11  -1   2    0.76    0.21
 -11  -1   2    1.00    0.25
 -11  -1   2    0.63    0.20
  12   2  -2   24.66    1.63
  12   2  -2   24.94    1.68
  12   2  -2   22.05    1.57
  12   2  -2   23.26    1.67
  12   2  -2   22.22    1.61
  12   2  -2   25.09    1.67
 -12  -2   2   23.42    1.55
 -12  -2   2   24.94    1.58
 -12  -2   2   27.41    1.61
 -12  -2   2   23.62    1.58
 -12  -2   2   22.95    1.57
 -12  -2   2   25.07    1.63
  13   3  -2   19.45    1.30
  13   3  -2   16.59    1.26
  13   3  -2   20.14    1.31
  13   3  -2   18.97    1.33
 -13  -3   2   19.71    1.28
 -13  -3   2   19.24    1.27
 -13  -3   2   19.00    1.24
 -13  -3   2   18.37    1.24
 -13  -3   2   18.10    1.29
  14   4  -2   46.38    2.98
  14   4  -2   51.83    3.03
  14   4  -2   46.60    3.01
  14   4  -2   45.75    2.97
 -14  -4   2   47.92    3.00
 -14  -4   2   42.55    2.99
 -14  -4   2   45.51    2.99
 -14  -4   2   45.13    2.97
  15   5  -2   10.43    0.74
  15   5  -2    8.59    0.78
  15   5  -2   10.37    0.69
  15   5  -2    9.69    0.67
 -15  -5   2    9.34    0.71
 -15  -5   2    9.32    0.69
 -15  -5   2    9.73    0.72
  16   6  -2    2.82    0.36
  16   6  -2    3.02    0.37
 -16  -6   2    2.49    0.33
 -16  -6   2    3.03    0.35
 -16  -6   2    2.80    0.32
   4  -6  -3    0.25    0.34
   4  -6  -3    0.59    0.32
   4  -6  -3   -0.18    0.48
  -4   6   3    0.26    0.11
  -4   6   3    0.03    0.27
  -4   6   3    0.17    0.10
   5  -5  -3  126.78    8.17
   5  -5  -3  129.89    8.09
  -5   5   3  126.19    7.98
  -5   5   3  124.81    8.00
   6  -4  -3    1.64    0.44
   6  -4  -3    1.80    0.62
   6  -4  -3    2.12    0.50
  -6   4   3    1.81    0.21
  -6   4   3    2.23    0.44
  -6   4   3    2.14    0.22
   7  -3  -3    9.67    0.69
   7  -3  -3   10.97    1.26
   7  -3  -3    9.89    0.98
   7  -3  -3   11.54    1.16
  -7   3   3   10.99    0.72
  -7   3   3   10.53    0.71
  -7   3   3   10.89    0.71
   8  -2  -3   13.99    1.50
   8  -2  -3   14.44    0.98
   8  -2  -3   13.49    1.23
   8  -2  -3   15.84    1.50
  -8   2   3   15.46    1.00
  -8   2   3   14.55    1.00
  -8   2   3   15.99    0.99
  -8   2   3   15.81    0.99
   9  -1  -3   64.58    5.07
   9  -1  -3   85.41    4.81
   9  -1  -3   74.73    4.71
  -9   1   3   73.98    4.68
  -9   1   3   73.17    4.68
  -9   1   3   75.85    4.71
  -9   1   3   69.68    4.66
  10   0  -3    0.24    0.13
  10   0  -3    0.07    0.61
  10   0  -3    0.29    0.43
  10   0  -3    0.28    0.63
 -10   0   3    0.25    0.15
 -10   0   3    0.08    0.16
  11   1  -3   34.76    2.32
  11   1  -3   34.50    2.45
  11   1  -3   36.79    2.47
  11   1  -3   32.46    2.50
 -11  -1   3   37.96    2.31
 -11  -1   3   37.82    2.31
 -11  -1   3   39.38    2.34
 -11  -1   3   32.90    2.37
  12   2  -3    4.97    0.68
  12   2  -3    4.57    0.81
  12   2  -3    6.42    0.72
 -12  -2   3    6.27    0.50
 -12  -2   3    6.16    0.47
  13   3  -3   56.90    3.99
  13   3  -3   66.62    3.97
  13   3  -3   57.94    3.96
 -13  -3   3   56.87    3.91
 -13  -3   3   72.54    3.96
 -13  -3   3   57.87    3.94
 -13  -3   3   58.77    3.94
 -13  -3   3   68.01    3.97
  14   4  -3    0.72    0.22
  14   4  -3    0.53    0.25
  14   4  -3    0.77    0.30
  14   4  -3    0.19    0.22
 -14  -4   3    0.12    0.16
 -14  -4   3    0.42    0.16
 -14  -4   3    0.42    0.19
  15   5  -3   46.36    3.03
  15   5  -3   46.84    3.07
  15   5  -3   46.48    3.00
  15   5  -3   51.39    3.09
 -15  -5   3   46.19    3.04
 -15  -5   3   48.77    3.05
 -15  -5   3   45.28    3.01
   4  -6  -4    3.68    0.59
   4  -6  -4    5.18    0.76
   4  -6  -4    4.56    0.74
  -4   6   4    4.28    0.33
  -4   6   4    4.08    0.33
   5  -5  -4   12.30    0.99
   5  -5  -4   11.48    1.04
   5  -5  -4   11.34    1.10
  -5   5   4   11.53    0.77
  -5   5   4   11.19    0.77
   6  -4  -4   22.15    1.49
   6  -4  -4   17.33    1.26
   6  -4  -4   21.07    1.60
   6  -4  -4   19.40    1.57
  -6   4   4   20.11    1.29
  -6   4   4   19.46    1.28
  -6   4   4   19.57    1.26
   7  -3  -4   10.48    1.10
   7  -3  -4    7.99    1.07
   7  -3  -4    7.48    0.91
  -7   3   4    7.85    0.57
  -7   3   4    8.79    0.58
  -7   3   4    7.94    0.56
   8  -2  -4   43.87    3.20
   8  -2  -4   41.12    3.11
  -8   2   4   46.44    2.90
  -8   2   4   46.97    2.92
  -8   2   4   48.51    2.90
   9  -1  -4    1.53    0.78
   9  -1  -4   -0.44    0.74
   9  -1  -4   -0.02    0.55
   9  -1  -4    0.28    0.31
  -9   1   4    0.30    0.24
  -9   1   4    0.32    0.13
  -9   1   4    0.18    0.16
  -9   1   4    0.15    0.14
  10   0  -4  216.37   14.39
  10   0  -4  210.61   14.43
  10   0  -4  232.22   14.27
  10   0  -4  212.13   14.33
 -10   0   4  238.30   14.25
 -10   0   4  241.29   14.27
 -10   0   4  236.33   14.27
  11   1  -4    1.34    0.53
  11   1  -4    0.11    0.57
  11   1  -4    0.60    0.48
 -11  -1   4    0.99    0.18
 -11  -1   4    1.16    0.18
 -11  -1   4    0.78    0.18
  12   2  -4   16.95    1.23
  12   2  -4   16.69    1.21
  12   2  -4   15.11    1.34
 -12  -2   4   16.83    1.11
 -12  -2   4   16.72    1.10
 -12  -2   4   16.90    1.11
  13   3  -4   15.15    1.06
  13   3  -4   12.16    0.90
  13   3  -4   12.09    0.95
 -13  -3   4   12.13    0.85
 -13  -3   4   11.35    0.82
 -13  -3   4   12.52    0.86
 -13  -3   4   12.69    0.88
  14   4  -4   23.75    1.39
  14   4  -4   20.16    1.42
  14   4  -4   20.04    1.48
 -14  -4   4   20.04    1.37
 -14  -4   4   19.09    1.33
 -14  -4   4   21.00    1.36
  15   5  -4    7.34    0.59
  15   5  -4    6.53    0.49
 -15  -5   4    5.87    0.47
 -15  -5   4    6.50    0.49
 -15  -5   4    6.17    0.55
   5  -5  -5   53.51    3.16
   5  -5  -5   46.78    3.51
   5  -5  -5   48.36    3.13
  -5   5   5   42.61    2.96
  -5   5   5   43.21    2.95
   6  -4  -5    0.32    0.53
   6  -4  -5   -0.04    0.55
   6  -4  -5    1.04    0.49
  -6   4   5    0.59    0.14
  -6   4   5    0.48    0.12
  -6   4   5    0.62    0.11
   7  -3  -5   17.75    1.45
   7  -3  -5   15.70    1.41
   7  -3  -5   17.65    1.42
  -7   3   5   15.82    1.07
  -7   3   5   16.55    1.08
  -7   3   5   16.53    1.12
   8  -2  -5    4.40    0.80
   8  -2  -5    3.73    0.78
  -8   2   5    4.92    0.43
  -8   2   5    5.03    0.38
  -8   2   5    5.23    0.38
   9  -1  -5   25.36    1.99
   9  -1  -5   26.94    1.83
   9  -1  -5   26.19    1.87
   9  -1  -5   26.56    2.07
  -9   1   5   27.73    1.76
  -9   1   5   28.00    1.75
  -9   1   5   29.44    1.82
  10   0  -5   -0.37    0.56
  10   0  -5    0.57    0.46
  10   0  -5    0.38    0.41
  10   0  -5    0.14    0.16
 -10   0   5   -0.08    0.12
 -10   0   5    0.10    0.12
 -10   0   5    0.03    0.11
  11   1  -5   29.69    2.09
  11   1  -5   31.39    2.35
  11   1  -5   28.19    2.22
 -11  -1   5   30.89    1.96
 -11  -1   5   30.38    1.97
 -11  -1   5   32.25    1.96
  12   2  -5    3.75    0.42
  12   2  -5    3.78    0.66
  12   2  -5    3.33    0.47
 -12  -2   5    3.40    0.32
 -12  -2   5    3.48    0.32
 -12  -2   5    3.27    0.31
  13   3  -5   19.43    1.49
  13   3  -5   18.04    1.24
  13   3  -5   18.08    1.31
 -13  -3   5   18.19    1.23
 -13  -3   5   18.12    1.22
 -13  -3   5   18.99    1.22
  14   4  -5    0.15    0.21
  14   4  -5    0.69    0.44
  14   4  -5    0.38    0.35
 -14  -4   5    0.41    0.16
 -14  -4   5    0.41    0.14
 -14  -4   5    0.37    0.17
   6  -4  -6   14.40    1.23
  -6   4   6   13.53    0.90
  -6   4   6   13.10    0.91
  -6   4   6   14.23    0.93
   7  -3  -6    5.32    0.85
   7  -3  -6   10.10    1.50
   7  -3  -6    4.85    0.73
  -7   3   6    5.50    0.45
  -7   3   6    5.68    0.42
   8  -2  -6    8.49    0.94
   8  -2  -6   11.41    0.96
   8  -2  -6    9.21    1.06
   8  -2  -6    8.74    0.76
  -8   2   6    8.36    0.61
  -8   2   6    8.67    0.61
   9  -1  -6    0.94    0.60
   9  -1  -6    0.21    0.24
   9  -1  -6   -0.61    0.39
   9  -1  -6   -0.07    0.32
  -9   1   6    0.15    0.12
  -9   1   6   -0.20    0.23
  -9   1   6    0.13    0.11
  10   0  -6   76.85    5.30
  10   0  -6   79.15    5.18
  10   0  -6   79.91    5.08
 -10   0   6   83.35    5.07
 -10   0   6   81.76    5.08
  11   1  -6   -0.12    0.34
  11   1  -6   -0.02    0.33
  11   1  -6    1.33    0.54
 -11  -1   6    0.18    0.12
 -11  -1   6    0.18    0.13
 -11  -1   6    0.30    0.13
  12   2  -6   12.40    0.95
  12   2  -6   13.87    1.22
  12   2  -6   13.88    1.01
 -12  -2   6   12.54    0.89
 -12  -2   6   13.82    0.90
 -12  -2   6   13.36    0.89
  13   3  -6    3.91    0.51
  13   3  -6    4.96    0.66
  13   3  -6    4.74    0.50
 -13  -3   6    3.88    0.35
 -13  -3   6    3.58    0.39
 -13  -3   6    3.96    0.34
   9  -1  -7    9.48    0.86
   9  -1  -7    9.49    1.07
  -9   1   7    9.41    0.65
  10   0  -7    0.43    0.32
  10   0  -7    0.59    0.54
 -10   0   7    0.16    0.11
 -10   0   7    0.11    0.11
   9  -3   6    0.26    0.36
   9  -3   6   -0.12    0.14
   9  -3   6    0.01    0.18
   9  -3   6    0.29    0.10
  -9   3  -6    0.17    0.31
  -9   3  -6    0.26    0.12
  -9   3  -6    0.09    0.29
  10  -2   6   50.04    3.07
  10  -2   6   49.73    3.09
  10  -2   6   47.49    3.04
 -10   2  -6   47.66    3.04
 -10   2  -6   48.25    3.17
 -10   2  -6   45.11    3.24
  11  -1   6    0.19    0.18
  11  -1   6    0.44    0.16
 -11   1  -6    0.56    0.28
 -11   1  -6   -0.11    0.45
  12   0   6   16.96    1.14
  12   0   6   17.24    1.17
  12   0   6   17.17    1.12
 -12   0  -6   16.65    1.22
  13   1   6    1.03    0.18
  13   1   6    0.94    0.24
  13   1   6    1.08    0.19
 -13  -1  -6    1.30    0.30
 -13  -1  -6    2.11    0.58
 -13  -1  -6    1.09    0.24
  14   2   6   13.64    0.94
  14   2   6   13.06    0.93
  14   2   6   13.79    1.00
 -14  -2  -6   15.43    1.01
 -14  -2  -6   13.35    0.99
   7  -5   5    3.99    0.43
   7  -5   5    4.34    0.37
  -7   5  -5    4.93    0.37
  -7   5  -5    4.89    0.64
   8  -4   5   10.80    0.78
   8  -4   5   10.50    0.75
   8  -4   5   11.19    0.90
  -8   4  -5   10.96    0.74
  -8   4  -5   12.27    0.96
  -8   4  -5   10.86    0.88
   9  -3   5   14.85    1.17
   9  -3   5   14.79    0.99
   9  -3   5   15.37    1.02
   9  -3   5   14.55    0.95
  -9   3  -5   15.57    1.15
  -9   3  -5   13.97    1.15
  -9   3  -5   15.01    0.98
  10  -2   5    2.81    0.30
  10  -2   5    2.58    0.32
  10  -2   5    3.06    0.25
 -10   2  -5    2.58    0.23
 -10   2  -5    2.62    0.45
 -10   2  -5    1.99    0.53
  11  -1   5   32.81    2.04
  11  -1   5   32.48    2.01
  11  -1   5   30.46    1.99
 -11   1  -5   30.60    2.09
 -11   1  -5   29.26    1.97
  12   0   5    0.12    0.21
  12   0   5    0.08    0.14
  12   0   5    0.13    0.15
 -12   0  -5    0.01    0.20
 -12   0  -5    0.05    0.60
 -12   0  -5    0.29    0.27
  13   1   5   29.24    1.91
  13   1   5   25.80    1.80
  13   1   5   28.69    1.83
  13   1   5   28.85    1.84
 -13  -1  -5   29.49    1.90
 -13  -1  -5   28.41    1.90
  14   2   5    0.17    0.16
  14   2   5    0.20    0.15
  14   2   5    0.18    0.10
 -14  -2  -5    0.36    0.23
 -14  -2  -5    0.34    0.45
 -14  -2  -5    0.31    0.30
  15   3   5   49.46    3.43
  15   3   5   53.35    3.46
  15   3   5   58.69    3.45
 -15  -3  -5   52.76    3.63
 -15  -3  -5   56.20    3.53
 -15  -3  -5   54.99    3.50
  16   4   5    0.66    0.13
  16   4   5    0.30    0.15
  16   4   5    0.62    0.17
 -16  -4  -5    0.51    0.38
 -16  -4  -5    0.92    0.28
   7  -5   4   12.75    0.99
   7  -5   4   13.80    0.94
   7  -5   4   13.53    0.89
  -7   5  -4   13.55    0.90
  -7   5  -4   13.70    1.14
  -7   5  -4   13.32    0.86
   8  -4   4   16.27    1.19
   8  -4   4   16.25    1.09
   8  -4   4   16.07    1.06
  -8   4  -4   16.39    1.25
  -8   4  -4   16.24    1.06
  -8   4  -4   15.68    1.19
   9  -3   4    0.22    0.35
   9  -3   4    0.15    0.14
   9  -3   4    0.15    0.17
  -9   3  -4    0.40    0.11
  -9   3  -4    0.61    0.35
  -9   3  -4    0.29    0.12
  -9   3  -4    0.29    0.34
  10  -2   4  234.55   14.31
  10  -2   4  233.51   14.33
  10  -2   4  233.66   14.27
 -10   2  -4  201.80   14.46
 -10   2  -4  235.91   14.41
 -10   2  -4  225.26   14.29
  11  -1   4    0.87    0.17
  11  -1   4    0.90    0.19
  11  -1   4    1.14    0.33
  11  -1   4    1.08    0.26
 -11   1  -4    1.03    0.34
 -11   1  -4    1.35    0.59
 -11   1  -4    0.96    0.14
  12   0   4   31.95    2.03
  12   0   4   32.03    2.04
  12   0   4   30.43    2.10
 -12   0  -4   31.74    2.10
 -12   0  -4   31.45    2.10
  13   1   4    0.74    0.11
  13   1   4    0.68    0.17
  13   1   4    0.67    0.18
 -13  -1  -4    0.93    0.28
 -13  -1  -4    0.89    0.52
 -13  -1  -4    0.71    0.31
 -13  -1  -4    0.33    0.16
  14   2   4   48.39    3.06
  14   2   4   45.24    3.03
  14   2   4   47.79    3.05
 -14  -2  -4   47.96    3.17
 -14  -2  -4   48.22    3.25
 -14  -2  -4   49.45    3.09
  15   3   4    5.31    0.44
  15   3   4    5.62    0.46
  15   3   4    5.33    0.42
 -15  -3  -4    5.88    0.71
 -15  -3  -4    5.82    0.48
 -15  -3  -4    6.44    0.70
  16   4   4   10.15    0.72
  16   4   4   10.42    0.74
 -16  -4  -4   11.10    0.75
 -16  -4  -4   10.18    0.91
   6  -6   3    0.91    0.53
   6  -6   3    0.20    0.09
   6  -6   3   -0.07    0.23
   6  -6   3    0.16    0.18
  -6   6  -3    0.05    0.43
  -6   6  -3    0.37    0.14
  -6   6  -3    0.24    0.08
   7  -5   3    8.20    0.64
   7  -5   3    8.88    0.71
   7  -5   3    8.73    0.59
  -7   5  -3    8.74    0.57
  -7   5  -3    9.22    0.62
  -7   5  -3    7.93    0.90
   8  -4   3   21.90    1.39
   8  -4   3   19.85    1.34
   8  -4   3   20.97    1.36
   8  -4   3   20.82    1.46
  -8   4  -3   20.87    1.56
  -8   4  -3   21.36    1.33
  -8   4  -3   21.05    1.37
   9  -3   3   41.52    2.54
   9  -3   3   40.88    2.57
   9  -3   3   38.80    2.67
  -9   3  -3   39.58    2.69
  -9   3  -3   38.57    2.66
  -9   3  -3   39.73    2.54
  10  -2   3   10.90    0.70
  10  -2   3   11.31    0.73
  10  -2   3   10.15    0.79
  10  -2   3   11.26    0.78
 -10   2  -3   10.73    0.89
 -10   2  -3    9.78    0.99
 -10   2  -3    9.05    0.73
 -10   2  -3   10.66    0.71
  11  -1   3   37.42    2.30
  11  -1   3   35.94    2.29
  11  -1   3   38.03    2.35
  11  -1   3   34.48    2.28
 -11   1  -3   35.19    2.26
 -11   1  -3   39.46    2.35
 -11   1  -3   30.65    2.29
 -11   1  -3   34.77    2.41
  12   0   3    0.11    0.17
  12   0   3    0.07    0.10
  12   0   3   -0.21    0.35
  12   0   3    0.29    0.17
 -12   0  -3   -0.57    0.54
 -12   0  -3    0.27    0.30
 -12   0  -3    0.27    0.28
 -12   0  -3    0.13    0.23
  13   1   3  120.47    7.45
  13   1   3  124.65    7.48
  13   1   3  104.01    7.72
  13   1   3  127.64    7.50
 -13  -1  -3  119.99    7.66
 -13  -1  -3  111.08    7.59
 -13  -1  -3  113.73    7.46
 -13  -1  -3  125.41    7.51
  14   2   3   -0.66    0.72
  14   2   3   -0.04    0.18
  14   2   3    0.07    0.18
  14   2   3    0.11    0.14
 -14  -2  -3    0.00    0.47
 -14  -2  -3   -0.05    0.40
 -14  -2  -3    0.09    0.21
  15   3   3  132.54    8.32
  15   3   3  131.96    8.32
  15   3   3  129.71    8.30
 -15  -3  -3  131.79    8.42
 -15  -3  -3  133.15    8.32
  16   4   3    1.90    0.26
  16   4   3    1.74    0.25
  16   4   3    1.88    0.27
 -16  -4  -3    2.30    0.31
 -16  -4  -3    3.45    0.50
 -16  -4  -3    2.12    0.42
  17   5   3    3.96    0.36
  17   5   3    4.00    0.35
  17   5   3    3.51    0.33
 -17  -5  -3    4.50    0.52
   6  -6   2    6.21    0.57
   6  -6   2    6.03    0.50
   6  -6   2    6.57    0.90
  -6   6  -2    5.71    0.77
  -6   6  -2    6.59    0.49
  -6   6  -2    7.00    0.44
   7  -5   2   22.40    1.46
   7  -5   2   22.68    1.52
   7  -5   2   20.47    1.77
   7  -5   2   21.59    1.41
  -7   5  -2   22.41    2.01
  -7   5  -2   22.90    1.42
   8  -4   2   50.54    3.20
   8  -4   2   51.85    3.29
   8  -4   2   50.42    3.23
  -8   4  -2   51.74    3.20
  -8   4  -2   46.94    3.41
  -8   4  -2   51.89    3.23
   9  -3   2    1.28    0.15
   9  -3   2    1.36    0.19
   9  -3   2    1.45    0.18
   9  -3   2    1.60    0.23
   9  -3   2    1.59    0.37
  -9   3  -2    1.51    0.20
  -9   3  -2    1.92    0.38
  -9   3  -2    1.35    0.16
  -9   3  -2    1.63    0.47
  -9   3  -2    1.31    0.19
  10  -2   2  375.94   26.80
  10  -2   2  449.52   26.74
  10  -2   2  412.70   26.76
  10  -2   2  443.64   26.76
  10  -2   2  443.24   26.83
  10  -2   2  409.93   26.75
 -10   2  -2  427.31   26.79
 -10   2  -2  442.12   26.90
 -10   2  -2  434.71   26.76
  11  -1   2    1.03    0.17
  11  -1   2    0.94    0.19
  11  -1   2    0.78    0.16
  11  -1   2    0.86    0.19
  11  -1   2    1.14    0.19
  11  -1   2    1.15    0.28
  11  -1   2    0.84    0.28
  11  -1   2    0.68    0.46
 -11   1  -2    1.11    0.14
 -11   1  -2    0.91    0.30
 -11   1  -2    0.64    0.46
 -11   1  -2    0.85    0.21
 -11   1  -2    1.01    0.26
  12   0   2   13.25    0.85
  12   0   2   13.57    0.89
  12   0   2   13.03    0.86
  12   0   2   11.70    1.04
 -12   0  -2   12.99    0.89
 -12   0  -2   10.70    0.86
 -12   0  -2   12.14    1.01
  13   1   2    5.62    0.82
  13   1   2    6.52    0.50
  13   1   2    6.50    0.51
 -13  -1  -2    6.30    0.50
 -13  -1  -2    5.65    0.49
 -13  -1  -2    7.64    0.85
 -13  -1  -2    5.69    0.82
  14   2   2  103.61    6.30
  14   2   2   99.25    6.28
  14   2   2   98.51    6.29
 -14  -2  -2  100.99    6.26
 -14  -2  -2   96.95    6.37
 -14  -2  -2   95.61    6.29
  15   3   2   12.84    0.87
  15   3   2   11.71    0.83
  15   3   2   13.23    0.93
  15   3   2   11.59    0.80
  15   3   2   11.94    0.82
 -15  -3  -2   13.84    1.02
 -15  -3  -2   10.69    0.77
 -15  -3  -2   10.54    0.95
 -15  -3  -2   11.22    0.83
 -15  -3  -2   11.67    0.80
  16   4   2    6.74    0.53
  16   4   2    6.90    0.56
  16   4   2    6.71    0.52
  16   4   2    6.58    0.55
 -16  -4  -2    7.19    0.55
 -16  -4  -2    6.21    0.65
 -16  -4  -2    6.32    0.73
 -16  -4  -2    7.53    0.50
 -16  -4  -2    6.78    0.47
  17   5   2   14.68    0.99
  17   5   2   13.93    0.98
  17   5   2   14.63    0.98
  17   5   2   15.39    0.99
 -17  -5  -2   14.29    0.96
 -17  -5  -2   14.15    1.06
   5  -7   1   49.31    3.14
   5  -7   1   48.51    3.09
  -5   7  -1   48.35    3.05
  -5   7  -1   46.55    3.10
   6  -6   1    1.60    0.23
   6  -6   1    1.65    0.32
   6  -6   1    1.45    0.59
  -6   6  -1    1.38    0.21
  -6   6  -1    1.30    0.46
   7  -5   1    2.82    0.67
   7  -5   1    2.48    0.39
   7  -5   1    2.33    0.29
  -7   5  -1    2.20    0.27
  -7   5  -1    2.60    0.21
   8  -4   1   35.25    2.55
   8  -4   1   40.61    2.54
   8  -4   1   35.96    2.80
   8  -4   1   42.85    2.64
   8  -4   1   41.50    2.58
  -8   4  -1   41.82    2.55
  -8   4  -1   41.77    2.80
  -8   4  -1   41.58    2.58
   9  -3   1   63.73    3.76
   9  -3   1   61.86    3.79
   9  -3   1   56.89    3.77
   9  -3   1   58.85    3.77
   9  -3   1   59.75    3.75
   9  -3   1   62.27    3.85
  -9   3  -1   64.14    3.77
  -9   3  -1   50.40    3.77
  -9   3  -1   57.48    3.95
  -9   3  -1   60.95    3.87
  10  -2   1   23.17    1.42
  10  -2   1   21.32    1.39
  10  -2   1   21.07    1.42
  10  -2   1   18.46    1.44
  10  -2   1   23.29    1.44
  10  -2   1   23.45    1.44
  10  -2   1   21.87    1.51
  10  -2   1   20.77    1.43
  10  -2   1   19.57    1.44
 -10   2  -1   23.00    1.42
 -10   2  -1   22.08    1.51
 -10   2  -1   22.06    1.57
 -10   2  -1   22.66    1.40
  11  -1   1   27.16    1.75
  11  -1   1   25.53    1.74
  11  -1   1   25.59    1.74
  11  -1   1   22.42    1.73
  11  -1   1   26.58    1.77
  11  -1   1   25.31    2.02
  11  -1   1   26.15    1.74
  11  -1   1   27.40    1.72
  11  -1   1   25.77    1.84
  11  -1   1   27.28    1.71
  11  -1   1   28.37    1.74
 -11   1  -1   27.38    1.78
 -11   1  -1   27.71    1.71
 -11   1  -1   27.16    1.73
 -11   1  -1   26.46    1.76
 -11   1  -1   24.31    1.83
  12   0   1    0.41    0.24
  12   0   1    0.40    0.27
  12   0   1    0.48    0.51
  12   0   1    0.42    0.33
  12   0   1    0.47    0.21
  12   0   1    0.36    0.37
  12   0   1    0.03    0.33
  12   0   1    0.18    0.16
  12   0   1    1.28    0.37
  12   0   1    0.19    0.21
  12   0   1    0.33    0.23
 -12   0  -1    0.51    0.38
 -12   0  -1    0.64    0.30
 -12   0  -1    0.58    0.43
 -12   0  -1    0.30    0.18
 -12   0  -1    0.59    0.20
 -12   0  -1    0.45    0.20
  13   1   1  247.17   15.81
  13   1   1  272.12   15.78
  13   1   1  270.63   15.83
  13   1   1  276.45   15.84
  13   1   1  225.35   15.84
  13   1   1  243.47   15.92
  13   1   1  242.22   15.98
 -13  -1  -1  229.68   15.84
 -13  -1  -1  254.55   15.88
 -13  -1  -1  251.97   15.82
  14   2   1    0.16    0.16
  14   2   1    0.45    0.24
 -14  -2  -1   -0.01    0.38
 -14  -2  -1    0.06    0.18
 -14  -2  -1    0.07    0.34
 -14  -2  -1   -0.10    0.24
  15   3   1  243.28   14.44
  15   3   1  235.11   14.45
  15   3   1  233.65   14.41
 -15  -3  -1  194.41   14.50
 -15  -3  -1  241.65   14.43
 -15  -3  -1  241.31   14.48
 -15  -3  -1  215.58   14.46
  16   4   1    2.86    0.36
  16   4   1    3.52    0.35
  16   4   1    3.56    0.34
  16   4   1    2.94    0.42
 -16  -4  -1    3.37    0.44
 -16  -4  -1    2.84    0.34
 -16  -4  -1    2.66    0.46
  17   5   1    2.25    0.29
  17   5   1    3.03    0.31
  17   5   1    2.66    0.36
 -17  -5  -1    1.97    0.36
 -17  -5  -1    2.12    0.28
 -17  -5  -1    2.84    0.24
 -17  -5  -1    2.68    0.38
  18   6   1   16.64    1.13
  18   6   1   18.36    1.16
  18   6   1   17.17    1.14
  18   6   1   17.87    1.17
 -18  -6  -1   17.62    1.14
 -18  -6  -1   16.68    1.19
 -18  -6  -1   14.94    1.23
   5  -7   0   17.49    1.19
   5  -7   0   13.58    1.33
   5  -7   0   16.30    1.10
  -5   7   0   16.61    1.05
   6  -6   0    3.25    0.34
   6  -6   0    3.37    0.45
   6  -6   0    2.48    0.60
  -6   6   0    3.37    0.27
  -6   6   0    3.52    0.35
   7  -5   0   30.99    2.01
   7  -5   0   31.51    2.05
   7  -5   0   33.43    2.12
   7  -5   0   27.98    2.26
  -7   5   0   31.79    2.07
  -7   5   0   33.52    2.02
  -7   5   0   32.93    2.03
   8  -4   0   59.88    3.92
   8  -4   0   58.13    4.13
   8  -4   0   61.06    3.90
   8  -4   0   64.92    3.99
  -8   4   0   62.53    3.95
  -8   4   0   63.46    3.91
  -8   4   0   64.13    3.91
  -8   4   0   60.59    4.09
   9  -3   0    0.22    0.09
   9  -3   0    0.13    0.26
   9  -3   0    0.06    0.11
   9  -3   0    0.29    0.10
   9  -3   0    0.46    0.61
   9  -3   0    0.10    0.19
   9  -3   0    0.27    0.13
  -9   3   0    0.16    0.12
  -9   3   0    0.11    0.10
  -9   3   0    0.12    0.14
  -9   3   0    0.85    0.73
  10  -2   0  752.96   41.98
  10  -2   0  613.54   41.89
  10  -2   0  625.93   41.91
  10  -2   0  676.95   41.92
  11  -1   0    1.69    0.42
  11  -1   0    0.99    0.30
  11  -1   0    1.00    0.26
  11  -1   0    1.65    0.42
  11  -1   0    1.29    0.24
  11  -1   0    1.39    0.37
  11  -1   0    1.36    0.26
  11  -1   0    1.24    0.35
  11  -1   0    0.99    0.27
  11  -1   0    1.30    0.30
  11  -1   0    0.99    0.25
 -11   1   0    1.24    0.29
 -11   1   0    1.30    0.27
 -11   1   0    1.57    0.31
 -11   1   0    1.15    0.29
 -11   1   0    0.94    0.27
 -11   1   0    1.32    0.22
 -11   1   0    1.71    0.37
  12   0   0   62.73    3.73
  12   0   0   49.25    3.69
  12   0   0   61.26    3.76
  12   0   0   50.37    3.68
  12   0   0   52.47    3.74
  12   0   0   53.93    3.67
  12   0   0   64.85    3.82
  12   0   0   54.00    3.67
  12   0   0   55.73    3.71
 -12   0   0   65.22    3.76
 -12   0   0   50.19    3.67
 -12   0   0   65.45    3.72
 -12   0   0   61.96    3.76
  13   1   0    6.79    0.61
  13   1   0    4.92    0.54
  13   1   0    4.76    0.68
  13   1   0    5.19    0.55
  13   1   0    4.79    0.69
 -13  -1   0    3.66    0.55
 -13  -1   0    4.57    0.50
 -13  -1   0    4.78    0.54
 -13  -1   0    3.96    0.51
  14   2   0  136.91    8.36
  14   2   0  135.18    8.38
  14   2   0  131.97    8.38
 -14  -2   0  135.34    8.37
 -14  -2   0  122.26    8.42
  15   3   0    7.04    0.59
  15   3   0    6.68    0.55
  15   3   0    7.09    0.60
 -15  -3   0    5.60    0.66
  16   4   0   10.79    0.80
  16   4   0   11.63    0.80
  16   4   0   11.25    0.80
 -16  -4   0   10.93    0.88
 -16  -4   0   11.63    0.83
  17   5   0   17.02    1.09
  17   5   0   16.49    1.07
  17   5   0   16.72    1.10
 -17  -5   0   14.55    1.15
 -17  -5   0   15.11    1.25
  18   6   0   18.70    1.27
  18   6   0   19.12    1.23
  18   6   0   19.95    1.26
 -18  -6   0   17.02    1.32
 -18  -6   0   19.24    1.28
   5  -7  -1   45.58    3.50
   5  -7  -1   52.81    3.21
   5  -7  -1   50.57    3.24
  -5   7   1   47.66    3.15
   6  -6  -1    1.92    0.59
   6  -6  -1    1.72    0.28
   6  -6  -1    1.37    0.35
  -6   6   1    1.42    0.18
  -6   6   1    1.59    0.16
  -6   6   1    1.48    0.27
   7  -5  -1    2.42    0.62
   7  -5  -1    2.72    0.42
  -7   5   1    2.68    0.34
  -7   5   1    2.18    0.24
  -7   5   1    2.44    0.23
   8  -4  -1   42.73    2.71
   8  -4  -1   40.55    2.62
   8  -4  -1   37.53    2.86
  -8   4   1   42.25    2.62
  -8   4   1   40.68    2.68
  -8   4   1   42.72    2.61
   9  -3  -1   61.69    4.04
   9  -3  -1   64.93    4.12
   9  -3  -1   61.17    4.05
   9  -3  -1   65.52    4.11
   9  -3  -1   66.39    4.26
   9  -3  -1   66.78    4.05
  -9   3   1   60.08    4.04
  -9   3   1   63.03    4.12
  -9   3   1   67.23    4.05
  -9   3   1   64.50    4.06
  10  -2  -1   22.10    1.46
  10  -2  -1   25.92    1.72
  10  -2  -1   21.74    1.45
  10  -2  -1   22.83    1.49
  10  -2  -1   21.72    1.46
  10  -2  -1   22.59    1.47
  10  -2  -1   20.65    1.57
  10  -2  -1   19.68    1.85
 -10   2   1   22.74    1.55
 -10   2   1   23.75    1.46
 -10   2   1   21.87    1.45
 -10   2   1   22.07    1.71
 -10   2   1   23.74    1.45
  11  -1  -1   28.23    1.76
  11  -1  -1   27.32    1.78
  11  -1  -1   26.89    1.74
  11  -1  -1   27.92    1.75
  11  -1  -1   24.01    1.91
  11  -1  -1   26.59    1.78
  11  -1  -1   24.34    1.95
  11  -1  -1   27.76    1.78
 -11   1   1   29.24    1.76
 -11   1   1   23.07    1.78
 -11   1   1   25.49    1.84
 -11   1   1   31.98    1.91
 -11   1   1   26.96    1.80
 -11   1   1   29.14    1.77
  12   0  -1    0.17    0.34
  12   0  -1    0.34    0.21
  12   0  -1    0.94    0.60
  12   0  -1    0.83    0.51
  12   0  -1    0.79    0.33
  12   0  -1    0.47    0.38
  12   0  -1    0.35    0.24
 -12   0   1    0.36    0.32
 -12   0   1    0.68    0.48
 -12   0   1    0.46    0.24
 -12   0   1    0.46    0.23
 -12   0   1    0.50    0.20
 -12   0   1    0.62    0.32
  13   1  -1  233.55   15.84
  13   1  -1  286.42   15.82
  13   1  -1  218.85   15.77
  13   1  -1  274.07   15.94
  13   1  -1  231.59   15.83
  13   1  -1  240.27   15.84
 -13  -1   1  264.30   15.83
 -13  -1   1  248.84   15.83
 -13  -1   1  265.42   15.76
 -13  -1   1  247.25   15.81
  14   2  -1   -0.18    0.32
  14   2  -1    0.30    0.23
  14   2  -1    0.69    0.36
  14   2  -1    0.82    0.34
 -14  -2   1    0.34    0.24
 -14  -2   1   -0.02    0.23
 -14  -2   1    0.16    0.21
 -14  -2   1    0.17    0.27
  15   3  -1  240.05   14.61
  15   3  -1  225.21   14.58
  15   3  -1  235.44   14.60
 -15  -3   1  233.94   14.62
 -15  -3   1  235.91   14.57
 -15  -3   1  218.97   14.60
  16   4  -1    3.69    0.38
  16   4  -1    3.25    0.39
  16   4  -1    3.45    0.38
 -16  -4   1    2.68    0.39
 -16  -4   1    3.02    0.36
 -16  -4   1    2.87    0.39
  17   5  -1    2.22    0.31
  17   5  -1    2.35    0.34
  17   5  -1    2.14    0.29
 -17  -5   1    2.81    0.36
 -17  -5   1    2.92    0.33
 -17  -5   1    3.55    0.36
  18   6  -1   16.39    1.09
  18   6  -1   17.33    1.13
  18   6  -1   17.61    1.15
 -18  -6   1   16.44    1.17
 -18  -6   1   15.69    1.13
   6  -6  -2    7.73    0.62
   6  -6  -2    7.58    0.88
   6  -6  -2    7.13    0.69
  -6   6   2    6.74    0.49
  -6   6   2    6.89    0.61
  -6   6   2    6.61    0.48
   7  -5  -2   23.52    1.63
   7  -5  -2   24.14    1.95
   7  -5  -2   22.49    1.62
  -7   5   2   23.43    1.51
  -7   5   2   23.23    1.61
  -7   5   2   23.24    1.49
   8  -4  -2   50.73    3.37
   8  -4  -2   54.40    3.38
   8  -4  -2   49.87    3.53
  -8   4   2   50.53    3.37
  -8   4   2   52.90    3.28
  -8   4   2   51.64    3.28
   9  -3  -2    1.34    0.16
   9  -3  -2    1.84    0.50
   9  -3  -2    1.84    0.72
   9  -3  -2    1.59    0.41
  -9   3   2    1.41    0.19
  -9   3   2    1.52    0.43
  -9   3   2    1.40    0.26
  -9   3   2    1.35    0.18
  10  -2  -2  413.42   27.19
  10  -2  -2  425.14   27.00
  10  -2  -2  452.51   27.18
  10  -2  -2  428.90   27.01
  11  -1  -2    1.04    0.19
  11  -1  -2    1.64    0.67
  11  -1  -2    0.86    0.69
  11  -1  -2    1.03    0.27
 -11   1   2    1.10    0.17
 -11   1   2    1.07    0.37
 -11   1   2    0.97    0.20
 -11   1   2    1.03    0.23
  12   0  -2   12.41    0.86
  12   0  -2   11.69    1.02
  12   0  -2   11.86    1.16
 -12   0   2   13.52    0.85
 -12   0   2   13.39    0.86
 -12   0   2   12.72    0.89
 -12   0   2   10.37    0.91
  13   1  -2    4.19    0.72
  13   1  -2    6.03    0.56
  13   1  -2    6.08    0.85
  13   1  -2    8.18    0.92
 -13  -1   2    5.55    0.52
 -13  -1   2    6.44    0.52
 -13  -1   2    6.07    0.53
 -13  -1   2    6.57    0.50
  14   2  -2   91.83    6.18
  14   2  -2   96.22    6.19
 -14  -2   2   98.84    6.14
 -14  -2   2   97.07    6.10
 -14  -2   2   99.21    6.13
  15   3  -2   13.16    0.87
  15   3  -2    9.57    0.79
  15   3  -2   11.19    0.89
  15   3  -2   12.77    0.88
 -15  -3   2   11.38    0.76
 -15  -3   2   11.11    0.78
 -15  -3   2   10.52    0.82
 -15  -3   2   11.56    0.83
 -15  -3   2   11.33    0.81
  16   4  -2    6.17    0.57
  16   4  -2    6.93    0.61
  16   4  -2    7.09    0.69
  16   4  -2    6.50    0.56
 -16  -4   2    7.06    0.57
 -16  -4   2    6.62    0.56
 -16  -4   2    7.45    0.51
 -16  -4   2    7.08    0.54
 -16  -4   2    6.85    0.53
  17   5  -2   13.83    0.90
  17   5  -2   14.98    0.97
  17   5  -2   14.08    0.93
 -17  -5   2   12.15    0.90
 -17  -5   2   12.99    0.91
 -17  -5   2   12.69    0.93
 -17  -5   2   12.72    0.94
   6  -6  -3    0.51    0.35
   6  -6  -3    0.24    0.32
   6  -6  -3   -0.22    0.49
  -6   6   3    0.23    0.11
  -6   6   3    0.27    0.11
  -6   6   3   -0.14    0.27
   7  -5  -3    8.83    0.83
   7  -5  -3    8.98    1.00
   7  -5  -3    9.27    0.82
  -7   5   3    8.71    0.61
  -7   5   3    9.34    0.80
  -7   5   3    9.20    0.62
   8  -4  -3   23.06    1.64
   8  -4  -3   21.83    1.58
   8  -4  -3   21.80    1.75
  -8   4   3   22.49    1.44
  -8   4   3   22.51    1.45
   9  -3  -3   38.77    2.81
   9  -3  -3   40.29    2.90
   9  -3  -3   38.57    2.70
  -9   3   3   40.87    2.57
  -9   3   3   41.55    2.57
  -9   3   3   41.43    2.58
  10  -2  -3   11.74    1.31
  10  -2  -3    9.79    1.30
  10  -2  -3   10.61    0.74
  10  -2  -3    9.08    0.99
 -10   2   3   10.73    0.75
 -10   2   3   11.42    0.74
 -10   2   3   11.11    0.73
  11  -1  -3   38.82    2.56
 -11   1   3   42.33    2.55
 -11   1   3   38.08    2.50
 -11   1   3   38.04    2.51
  12   0  -3   -0.27    0.71
  12   0  -3   -0.37    0.64
  12   0  -3    0.10    0.14
  12   0  -3   -0.15    0.44
 -12   0   3    0.08    0.18
 -12   0   3    0.12    0.16
 -12   0   3   -0.01    0.14
  13   1  -3  114.22    7.60
  13   1  -3  104.54    7.60
 -13  -1   3  129.97    7.49
 -13  -1   3  111.06    7.51
 -13  -1   3  128.84    7.50
 -13  -1   3  122.23    7.49
  14   2  -3   -0.16    0.42
  14   2  -3   -0.07    0.41
  14   2  -3   -0.45    0.42
 -14  -2   3   -0.05    0.19
 -14  -2   3    0.14    0.21
 -14  -2   3   -0.02    0.20
 -14  -2   3    0.00    0.16
  15   3  -3  159.20    8.62
  15   3  -3  129.24    8.62
  15   3  -3  125.42    8.65
 -15  -3   3  136.70    8.61
 -15  -3   3  130.63    8.60
  16   4  -3    2.24    0.31
  16   4  -3    2.53    0.36
  16   4  -3    2.87    0.38
  16   4  -3    1.93    0.30
 -16  -4   3    1.79    0.25
 -16  -4   3    1.49    0.26
 -16  -4   3    1.74    0.26
  17   5  -3    4.18    0.42
  17   5  -3    3.33    0.37
  17   5  -3    4.49    0.40
  17   5  -3    4.31    0.46
 -17  -5   3    3.97    0.38
 -17  -5   3    4.80    0.40
 -17  -5   3    3.70    0.35
 -17  -5   3    3.93    0.40
   7  -5  -4   15.27    1.14
   7  -5  -4   13.73    1.19
   7  -5  -4   14.34    1.27
  -7   5   4   14.13    0.95
  -7   5   4   14.02    0.94
   8  -4  -4   14.51    1.06
   8  -4  -4   18.26    1.30
   8  -4  -4   17.40    1.44
  -8   4   4   16.73    1.08
  -8   4   4   16.60    1.08
  -8   4   4   16.98    1.09
   9  -3  -4    0.33    0.61
   9  -3  -4    0.56    0.67
  -9   3   4    0.09    0.11
  -9   3   4    0.27    0.13
  10  -2  -4  209.97   14.57
 -10   2   4  233.10   14.39
 -10   2   4  241.01   14.37
 -10   2   4  229.79   14.37
  11  -1  -4    0.90    0.74
  11  -1  -4    1.37    0.79
  11  -1  -4    1.11    0.34
 -11   1   4    0.76    0.16
 -11   1   4    0.94    0.27
 -11   1   4    0.92    0.15
  12   0  -4   26.74    2.22
  12   0  -4   32.34    2.08
  12   0  -4   26.79    1.94
  12   0  -4   28.20    2.19
 -12   0   4   30.93    1.94
 -12   0   4   32.23    1.93
 -12   0   4   31.85    1.93
  13   1  -4    1.05    0.49
  13   1  -4    0.16    0.46
  13   1  -4    0.19    0.54
 -13  -1   4    0.80    0.17
 -13  -1   4    0.53    0.16
 -13  -1   4    0.67    0.19
  14   2  -4   45.97    3.09
  14   2  -4   52.84    3.18
  14   2  -4   43.04    3.06
 -14  -2   4   45.65    3.00
 -14  -2   4   46.27    2.99
 -14  -2   4   47.62    3.00
  15   3  -4    4.89    0.54
  15   3  -4    5.57    0.49
  15   3  -4    5.20    0.60
 -15  -3   4    5.21    0.43
 -15  -3   4    5.22    0.53
 -15  -3   4    5.67    0.45
  16   4  -4   12.58    0.80
  16   4  -4   10.93    0.80
 -16  -4   4   10.09    0.76
 -16  -4   4    9.95    0.75
   7  -5  -5    5.16    0.78
   7  -5  -5    4.95    0.72
  -7   5   5    4.57    0.41
   8  -4  -5   14.76    1.24
   8  -4  -5   12.14    1.18
  -8   4   5   11.74    0.81
  -8   4   5   11.82    0.79
  -8   4   5   11.37    0.80
   9  -3  -5   16.56    1.42
  -9   3   5   15.59    1.04
  -9   3   5   15.96    1.06
  -9   3   5   15.57    1.03
  10  -2  -5    4.53    0.73
  10  -2  -5    2.84    0.34
  10  -2  -5    2.20    0.72
  10  -2  -5    2.03    0.78
 -10   2   5    2.64    0.33
 -10   2   5    2.26    0.24
 -10   2   5    2.51    0.25
  11  -1  -5   27.83    2.15
  11  -1  -5   28.86    1.95
  11  -1  -5   32.49    1.99
  11  -1  -5   27.91    2.21
 -11   1   5   33.66    1.96
 -11   1   5   25.96    1.88
 -11   1   5   30.31    1.90
  12   0  -5    1.26    0.91
  12   0  -5    0.12    0.15
  12   0  -5    0.14    0.40
  12   0  -5   -0.21    0.56
 -12   0   5    0.28    0.16
 -12   0   5    0.04    0.12
 -12   0   5    0.02    0.14
 -12   0   5    0.08    0.12
  13   1  -5   28.30    1.95
  13   1  -5   26.14    2.05
 -13  -1   5   27.96    1.79
 -13  -1   5   28.13    1.78
 -13  -1   5   27.80    1.79
  14   2  -5    0.06    0.32
  14   2  -5    0.46    0.46
  14   2  -5    0.35    0.32
 -14  -2   5    0.14    0.13
 -14  -2   5    0.29    0.15
 -14  -2   5    0.33    0.15
  15   3  -5   53.47    3.39
  15   3  -5   52.22    3.39
 -15  -3   5   48.85    3.32
 -15  -3   5   54.19    3.32
 -15  -3   5   51.18    3.31
  16   4  -5    0.90    0.28
  16   4  -5    0.82    0.23
  16   4  -5    0.54    0.23
  16   4  -5    1.41    0.35
 -16  -4   5    0.63    0.18
 -16  -4   5    0.62    0.17
 -16  -4   5    0.72    0.18
   9  -3  -6    0.46    0.59
   9  -3  -6    1.69    0.53
   9  -3  -6   -0.08    0.53
  -9   3   6    0.16    0.16
  -9   3   6    0.33    0.12
  -9   3   6    0.23    0.13
  10  -2  -6   43.61    3.34
  10  -2  -6   51.64    3.16
  10  -2  -6   50.87    3.22
  10  -2  -6   41.47    3.26
 -10   2   6   53.80    3.15
 -10   2   6   49.81    3.10
 -10   2   6   48.99    3.10
  11  -1  -6    0.75    0.60
  11  -1  -6    0.52    0.19
  11  -1  -6    0.06    0.47
  11  -1  -6    0.08    0.33
 -11   1   6    0.18    0.12
 -11   1   6    0.22    0.12
  12   0  -6   15.05    1.41
  12   0  -6   16.18    1.30
 -12   0   6   16.58    1.09
 -12   0   6   17.37    1.09
  13   1  -6    1.51    0.42
  13   1  -6    0.09    0.39
  13   1  -6    0.95    0.53
 -13  -1   6    1.48    0.20
 -13  -1   6    1.17    0.18
 -13  -1   6    1.05    0.17
  14   2  -6   10.65    1.17
  14   2  -6   13.58    1.03
 -14  -2   6   13.53    0.89
 -14  -2   6   13.09    0.88
  11  -3   6    0.29    0.40
  11  -3   6    0.16    0.17
 -11   3  -6    0.33    0.35
  12  -2   6   12.48    0.88
  12  -2   6   13.24    0.91
  12  -2   6   12.99    0.85
 -12   2  -6   13.31    0.99
 -12   2  -6   12.63    0.84
 -12   2  -6   12.35    1.12
  13  -1   6    0.99    0.20
  13  -1   6    1.11    0.24
  13  -1   6    1.01    0.16
 -13   1  -6    1.17    0.12
 -13   1  -6    1.85    0.54
 -13   1  -6    1.39    0.31
  14   0   6   19.34    1.30
  14   0   6   18.41    1.24
  14   0   6   18.88    1.26
 -14   0  -6   19.08    1.33
  15   1   6    0.40    0.15
  15   1   6    0.29    0.23
  15   1   6    0.34    0.17
 -15  -1  -6    1.38    0.49
 -15  -1  -6    0.52    0.22
 -15  -1  -6    0.67    0.26
  16   2   6   14.17    1.00
  16   2   6   12.22    0.90
  16   2   6   13.25    0.91
 -16  -2  -6   13.73    0.96
 -16  -2  -6   13.22    0.97
  10  -4   5    3.77    0.35
  10  -4   5    4.23    0.57
  10  -4   5    4.17    0.40
 -10   4  -5    4.54    0.57
 -10   4  -5    3.99    0.33
 -10   4  -5    4.41    0.54
  11  -3   5   21.83    1.43
  11  -3   5   21.38    1.40
  11  -3   5   20.75    1.36
  11  -3   5   21.38    1.58
 -11   3  -5   21.72    1.38
 -11   3  -5   20.30    1.56
 -11   3  -5   22.55    1.52
  12  -2   5    3.59    0.28
  12  -2   5    2.95    0.33
  12  -2   5    3.51    0.37
 -12   2  -5    2.92    0.59
 -12   2  -5    3.20    0.26
 -12   2  -5    3.84    0.46
  13  -1   5   27.45    1.80
  13  -1   5   28.98    1.77
  13  -1   5   27.79    1.75
 -13   1  -5   26.46    1.72
 -13   1  -5   24.42    2.01
  14   0   5    0.44    0.26
  14   0   5    0.09    0.16
  14   0   5   -0.03    0.15
 -14   0  -5    0.02    0.22
 -14   0  -5   -0.23    0.46
 -14   0  -5    0.25    0.25
  15   1   5   89.09    5.66
  15   1   5   88.38    5.59
  15   1   5   87.43    5.58
 -15  -1  -5   88.90    5.63
 -15  -1  -5   87.65    5.66
  16   2   5    0.17    0.16
  16   2   5    0.18    0.10
  16   2   5    0.13    0.16
 -16  -2  -5    0.17    0.39
 -16  -2  -5    0.36    0.21
 -16  -2  -5   -0.09    0.24
  17   3   5    8.13    0.62
  17   3   5    8.06    0.59
  17   3   5    8.42    0.64
 -17  -3  -5    9.58    0.66
 -17  -3  -5    8.81    0.74
 -17  -3  -5    8.84    0.88
   9  -5   4    0.06    0.27
   9  -5   4    0.09    0.18
  -9   5  -4    0.02    0.36
  -9   5  -4    0.28    0.13
  10  -4   4   80.03    5.15
  10  -4   4   77.84    5.04
  10  -4   4   84.83    5.08
 -10   4  -4   77.08    5.15
 -10   4  -4   78.59    5.05
 -10   4  -4   80.61    5.19
  11  -3   4    0.50    0.16
  11  -3   4    0.49    0.23
  11  -3   4    0.62    0.10
 -11   3  -4    0.20    0.57
 -11   3  -4    0.59    0.13
 -11   3  -4    0.76    0.41
  12  -2   4   16.26    1.10
  12  -2   4   16.75    1.09
  12  -2   4   17.71    1.14
 -12   2  -4   17.09    1.21
 -12   2  -4   14.20    1.32
 -12   2  -4   16.36    1.07
  13  -1   4    0.66    0.18
  13  -1   4    0.75    0.26
  13  -1   4    0.51    0.24
  13  -1   4    0.75    0.16
 -13   1  -4    0.62    0.28
 -13   1  -4    0.95    0.53
 -13   1  -4    0.73    0.10
  14   0   4   50.92    3.51
  14   0   4   54.87    3.43
  14   0   4   56.37    3.44
 -14   0  -4   54.54    3.48
 -14   0  -4   52.58    3.51
  15   1   4    1.96    0.27
  15   1   4    1.84    0.18
  15   1   4    1.49    0.23
 -15  -1  -4    2.25    0.52
 -15  -1  -4    1.53    0.37
 -15  -1  -4    1.82    0.30
 -15  -1  -4    1.17    0.20
  16   2   4   18.32    1.20
  16   2   4   18.01    1.21
  16   2   4   17.00    1.17
 -16  -2  -4   18.94    1.23
 -16  -2  -4   17.39    1.42
 -16  -2  -4   18.32    1.35
  17   3   4    5.49    0.46
  17   3   4    5.29    0.42
  17   3   4    5.52    0.48
 -17  -3  -4    6.43    0.47
 -17  -3  -4    5.08    0.67
  18   4   4   22.16    1.49
  18   4   4   21.51    1.47
  18   4   4   22.44    1.48
 -18  -4  -4   23.16    1.63
 -18  -4  -4   23.58    1.48
   8  -6   3   18.55    1.33
   8  -6   3   18.37    1.22
   8  -6   3   18.94    1.27
   8  -6   3   19.49    1.54
  -8   6  -3   19.17    1.25
  -8   6  -3   18.19    1.51
  -8   6  -3   19.75    1.21
   9  -5   3   10.95    0.78
   9  -5   3   10.58    0.73
   9  -5   3   11.10    0.86
  -9   5  -3   10.79    1.00
  -9   5  -3   10.74    0.75
  -9   5  -3   11.15    0.71
  10  -4   3   14.40    1.11
  10  -4   3   14.22    0.96
  10  -4   3   13.03    0.90
  10  -4   3   13.79    0.92
 -10   4  -3   14.04    0.89
 -10   4  -3   13.32    1.13
 -10   4  -3   14.06    0.92
  11  -3   3   21.35    1.34
  11  -3   3   20.91    1.35
  11  -3   3   20.25    1.32
  11  -3   3   19.70    1.29
  11  -3   3   19.09    1.48
 -11   3  -3   19.96    1.46
 -11   3  -3   18.72    1.45
 -11   3  -3   21.19    1.31
  12  -2   3    5.87    0.44
  12  -2   3    6.38    0.57
  12  -2   3    6.04    0.54
  12  -2   3    6.39    0.48
 -12   2  -3    5.25    0.45
 -12   2  -3    5.45    0.79
 -12   2  -3    6.16    0.43
 -12   2  -3    5.84    0.63
  13  -1   3  121.45    7.82
  13  -1   3  125.51    7.75
  13  -1   3  119.81    7.74
  13  -1   3  129.47    7.77
 -13   1  -3  125.37    7.82
 -13   1  -3  118.39    7.82
 -13   1  -3  120.75    7.73
  14   0   3    0.22    0.19
  14   0   3    0.07    0.19
  14   0   3    0.20    0.21
  14   0   3    0.09    0.13
 -14   0  -3    0.06    0.25
 -14   0  -3    0.08    0.32
 -14   0  -3    0.34    0.25
 -14   0  -3    0.10    0.53
  15   1   3  250.45   15.14
  15   1   3  238.41   15.11
  15   1   3  253.20   15.16
  15   1   3  237.61   15.36
 -15  -1  -3  252.14   15.15
 -15  -1  -3  248.96   15.29
 -15  -1  -3  222.87   15.14
 -15  -1  -3  221.38   15.26
  16   2   3    0.67    0.22
  16   2   3    0.93    0.17
  16   2   3    0.83    0.90
 -16  -2  -3    0.87    0.20
 -16  -2  -3    0.70    0.43
 -16  -2  -3    1.49    0.42
  17   3   3    6.43    0.52
  17   3   3    7.58    0.56
  17   3   3    6.93    0.55
 -17  -3  -3    7.35    0.53
  18   4   3   13.27    0.91
  18   4   3   13.18    0.90
  18   4   3   13.06    0.91
 -18  -4  -3   13.55    0.88
 -18  -4  -3   12.82    1.04
  19   5   3   26.13    1.70
  19   5   3   25.39    1.70
  19   5   3   26.77    1.70
   8  -6   2   10.95    1.09
   8  -6   2   10.97    0.75
   8  -6   2    9.60    0.81
  -8   6  -2   10.22    0.73
  -8   6  -2   10.63    0.69
  -8   6  -2   10.63    1.01
   9  -5   2    0.09    0.09
   9  -5   2    0.17    0.17
   9  -5   2    0.37    0.49
   9  -5   2    0.18    0.26
  -9   5  -2    0.05    0.08
  -9   5  -2   -0.03    0.13
  -9   5  -2    0.45    0.46
  10  -4   2  222.18   13.87
  10  -4   2  216.61   13.83
  10  -4   2  220.55   13.79
 -10   4  -2  217.43   13.98
 -10   4  -2  219.41   13.82
 -10   4  -2  221.79   13.79
  11  -3   2    1.40    0.21
  11  -3   2    1.42    0.43
  11  -3   2    1.47    0.25
  11  -3   2    1.60    0.21
  11  -3   2    1.37    0.19
 -11   3  -2    1.99    0.41
 -11   3  -2    1.55    0.18
 -11   3  -2    1.59    0.47
 -11   3  -2    1.57    0.20
  12  -2   2   23.44    1.63
  12  -2   2   24.44    1.55
  12  -2   2   23.40    1.56
  12  -2   2   24.45    1.56
  12  -2   2   22.79    1.55
  12  -2   2   26.63    1.60
  12  -2   2   21.48    1.52
 -12   2  -2   24.63    1.54
 -12   2  -2   23.00    1.71
 -12   2  -2   24.61    1.54
 -12   2  -2   23.41    1.78
  13  -1   2    7.63    0.60
  13  -1   2    5.28    0.50
  13  -1   2    6.23    0.64
  13  -1   2    6.18    0.46
  13  -1   2    6.19    0.51
  13  -1   2    5.93    0.50
 -13   1  -2    6.80    0.68
 -13   1  -2    6.01    0.61
 -13   1  -2    6.56    0.46
 -13   1  -2    6.20    0.57
  14   0   2  146.00    9.06
  14   0   2  141.45    9.02
  14   0   2  145.60    9.04
  14   0   2  159.89    9.06
 -14   0  -2  123.74    9.13
 -14   0  -2  142.46    9.04
  15   1   2    0.76    0.24
  15   1   2    0.80    0.27
  15   1   2    0.83    0.25
  15   1   2    0.50    0.52
 -15  -1  -2    0.77    0.20
 -15  -1  -2    0.68    0.26
 -15  -1  -2    0.77    0.50
 -15  -1  -2    0.60    0.47
 -15  -1  -2    1.04    0.23
  16   2   2   32.89    2.13
  16   2   2   34.23    2.14
  16   2   2   34.55    2.18
 -16  -2  -2   31.13    2.15
 -16  -2  -2   32.61    2.10
 -16  -2  -2   31.88    2.26
  17   3   2   10.53    0.78
  17   3   2   10.14    0.81
  17   3   2   10.52    0.76
  17   3   2   12.01    0.80
 -17  -3  -2   10.34    0.72
 -17  -3  -2   12.53    0.77
 -17  -3  -2    9.95    0.77
 -17  -3  -2   10.07    0.89
  18   4   2   44.64    2.66
  18   4   2   39.01    2.63
  18   4   2   40.97    2.63
  18   4   2   39.47    2.61
 -18  -4  -2   40.74    2.64
 -18  -4  -2   38.73    2.69
 -18  -4  -2   38.72    2.59
 -18  -4  -2   45.60    2.74
  19   5   2    0.02    0.16
  19   5   2    0.48    0.18
  19   5   2    0.09    0.18
  19   5   2    0.29    0.16
 -19  -5  -2    0.40    0.26
 -19  -5  -2    0.33    0.27
   7  -7   1    2.24    0.31
   7  -7   1    2.52    0.61
   7  -7   1    2.50    0.38
  -7   7  -1    2.47    0.22
  -7   7  -1    2.44    0.29
   8  -6   1   24.87    1.73
   8  -6   1   26.03    1.79
   8  -6   1   25.08    1.99
  -8   6  -1   26.24    1.74
  -8   6  -1   28.52    1.94
  -8   6  -1   29.07    1.72
   9  -5   1   18.50    1.78
   9  -5   1   18.52    1.29
   9  -5   1   19.93    1.42
  -9   5  -1   19.98    1.26
  -9   5  -1   19.75    1.30
  -9   5  -1   20.73    1.54
  10  -4   1   29.32    2.18
  10  -4   1   34.02    2.20
  10  -4   1   36.14    2.28
  10  -4   1   33.01    2.43
  10  -4   1   34.50    2.16
 -10   4  -1   34.81    2.20
 -10   4  -1   35.23    2.17
 -10   4  -1   36.37    2.40
  11  -3   1    8.73    0.66
  11  -3   1    9.04    0.61
  11  -3   1    8.44    0.68
  11  -3   1    8.45    0.59
  11  -3   1    8.74    0.76
  11  -3   1    8.41    0.64
  11  -3   1    8.22    0.96
 -11   3  -1    8.68    0.91
 -11   3  -1    9.84    0.64
 -11   3  -1    8.94    0.59
 -11   3  -1    8.43    0.63
  12  -2   1   17.25    1.27
  12  -2   1   18.18    1.17
  12  -2   1   14.60    1.18
  12  -2   1   16.95    1.17
  12  -2   1   16.73    1.20
  12  -2   1   17.35    1.15
  12  -2   1   15.85    1.21
  12  -2   1   18.88    1.18
  12  -2   1   16.42    1.16
 -12   2  -1   18.90    1.17
 -12   2  -1   17.84    1.31
 -12   2  -1   18.55    1.14
 -12   2  -1   17.77    1.26
 -12   2  -1   18.04    1.16
  13  -1   1  297.67   16.02
  13  -1   1  238.93   15.99
  13  -1   1  225.18   16.03
  13  -1   1  248.69   15.97
  13  -1   1  266.40   16.00
  13  -1   1  257.17   15.97
  13  -1   1  238.99   15.97
  13  -1   1  256.97   16.00
 -13   1  -1  257.47   16.01
 -13   1  -1  245.46   16.04
 -13   1  -1  251.57   15.97
 -13   1  -1  263.58   16.02
  14   0   1    0.28    0.33
  14   0   1    0.22    0.34
  14   0   1    0.30    0.33
  14   0   1    0.42    0.38
  14   0   1   -0.12    0.22
  14   0   1    0.27    0.48
  14   0   1    0.24    0.26
  14   0   1    0.08    0.25
 -14   0  -1   -0.07    0.38
 -14   0  -1    0.31    0.31
 -14   0  -1   -0.37    0.35
 -14   0  -1    0.18    0.21
 -14   0  -1    0.24    0.20
  15   1   1  438.43   26.81
  15   1   1  391.39   26.59
  15   1   1  434.23   26.64
  15   1   1  446.50   26.68
 -15  -1  -1  408.49   26.68
  16   2   1    4.26    0.48
  16   2   1    4.88    0.49
  16   2   1    3.76    0.36
 -16  -2  -1    3.23    0.40
 -16  -2  -1    4.31    0.76
 -16  -2  -1    4.25    0.46
 -16  -2  -1    3.75    0.58
  17   3   1    2.15    0.31
  17   3   1    2.06    0.30
  17   3   1    2.24    0.27
 -17  -3  -1    2.44    0.34
 -17  -3  -1    1.94    0.25
 -17  -3  -1    3.23    0.41
 -17  -3  -1    1.46    0.39
  18   4   1   25.90    1.71
  18   4   1   27.08    1.75
  18   4   1   24.91    1.71
 -18  -4  -1   23.98    1.74
 -18  -4  -1   27.99    1.72
  19   5   1   36.64    2.28
  19   5   1   34.30    2.24
  19   5   1   34.76    2.25
  19   5   1   34.19    2.25
 -19  -5  -1   34.44    2.25
 -19  -5  -1   34.44    2.29
   7  -7   0   16.39    1.20
   7  -7   0   16.62    1.12
  -7   7   0   16.33    1.13
  -7   7   0   16.66    1.08
   8  -6   0   19.05    1.28
   8  -6   0   19.31    1.37
   8  -6   0   18.95    1.53
  -8   6   0   19.21    1.30
  -8   6   0   20.29    1.26
   9  -5   0    0.47    0.50
   9  -5   0    0.25    0.16
   9  -5   0    0.43    0.10
   9  -5   0    0.24    0.27
  -9   5   0    0.30    0.12
  -9   5   0    0.19    0.17
  -9   5   0    0.20    0.10
  10  -4   0  258.45   15.73
  10  -4   0  233.60   15.54
  10  -4   0  235.49   15.56
  10  -4   0  252.28   15.61
 -10   4   0  247.78   15.55
 -10   4   0  244.37   15.60
 -10   4   0  264.39   15.73
 -10   4   0  245.29   15.56
  11  -3   0    2.05    0.25
  11  -3   0    2.22    0.26
  11  -3   0    3.24    0.65
  11  -3   0    2.47    0.36
  11  -3   0    2.16    0.25
  11  -3   0    2.09    0.25
 -11   3   0    2.53    0.34
 -11   3   0    2.25    0.29
 -11   3   0    2.26    0.23
 -11   3   0    3.66    0.61
  12  -2   0    4.34    0.47
  12  -2   0    5.38    0.40
  12  -2   0    4.45    0.48
  12  -2   0    3.95    0.47
  12  -2   0    4.53    0.49
  12  -2   0    5.01    0.49
  12  -2   0    5.13    0.41
  12  -2   0    3.85    0.39
  12  -2   0    5.49    0.70
  12  -2   0    4.32    0.44
  12  -2   0    4.16    0.39
 -12   2   0    4.86    0.47
 -12   2   0    4.02    0.43
 -12   2   0    4.59    0.37
 -12   2   0    6.20    0.61
 -12   2   0    4.44    0.43
  13  -1   0    7.26    0.66
  13  -1   0    5.12    0.55
  13  -1   0    5.74    0.83
  13  -1   0    5.18    0.53
  13  -1   0    5.02    0.55
  13  -1   0    6.12    0.65
  13  -1   0    4.81    0.55
  13  -1   0    5.45    0.55
  13  -1   0    4.57    0.52
  13  -1   0    5.50    0.65
  13  -1   0    5.04    0.52
 -13   1   0    6.35    0.50
 -13   1   0    6.38    0.56
 -13   1   0    5.77    0.49
 -13   1   0    4.70    0.56
 -13   1   0    6.19    0.54
  14   0   0  288.77   19.69
  14   0   0  322.51   19.70
  14   0   0  278.84   19.66
  14   0   0  288.67   19.79
  14   0   0  328.08   19.69
  14   0   0  275.73   19.63
  14   0   0  345.54   19.69
  14   0   0  328.23   19.75
 -14   0   0  315.67   19.69
 -14   0   0  260.73   19.64
 -14   0   0  346.21   19.67
 -14   0   0  337.91   19.73
 -14   0   0  343.62   19.67
  15   1   0    6.73    0.70
  15   1   0    7.31    0.63
  15   1   0    6.03    0.76
 -15  -1   0    6.14    0.63
 -15  -1   0    4.27    0.67
 -15  -1   0    6.23    0.60
  16   2   0   15.27    1.06
  16   2   0   14.78    1.02
  16   2   0   15.58    1.08
 -16  -2   0   14.93    1.04
 -16  -2   0   13.60    0.99
 -16  -2   0   11.49    1.10
  17   3   0   21.94    1.42
  17   3   0   23.42    1.45
  17   3   0   22.09    1.45
 -17  -3   0   18.22    1.49
 -17  -3   0   20.24    1.43
  18   4   0   68.80    4.31
  18   4   0   70.24    4.33
  18   4   0   72.32    4.32
 -18  -4   0   60.01    4.36
 -18  -4   0   66.97    4.32
  19   5   0    0.27    0.18
  19   5   0    0.21    0.17
 -19  -5   0    0.14    0.22
 -19  -5   0    0.10    0.18
 -19  -5   0    0.22    0.20
   7  -7  -1    3.35    0.40
   7  -7  -1    2.53    0.44
   7  -7  -1    1.81    0.63
  -7   7   1    2.37    0.35
  -7   7   1    2.50    0.29
   8  -6  -1   27.15    1.76
   8  -6  -1   26.06    1.99
   8  -6  -1   26.88    1.84
  -8   6   1   26.49    1.79
  -8   6   1   27.60    1.72
  -8   6   1   27.10    1.73
   9  -5  -1   20.54    1.69
   9  -5  -1   20.13    1.39
   9  -5  -1   18.95    1.30
  -9   5   1   19.57    1.28
  -9   5   1   20.13    1.36
  -9   5   1   19.51    1.27
  10  -4  -1   33.69    2.24
  10  -4  -1   36.09    2.33
  10  -4  -1   33.77    2.24
  10  -4  -1   37.93    2.52
  10  -4  -1   35.32    2.33
 -10   4   1   34.16    2.31
 -10   4   1   35.82    2.24
 -10   4   1   34.97    2.24
  11  -3  -1    9.05    0.79
  11  -3  -1    9.36    0.74
  11  -3  -1    9.13    0.62
  11  -3  -1    8.32    0.62
  11  -3  -1    8.92    0.61
 -11   3   1    9.65    0.76
 -11   3   1    9.71    0.63
 -11   3   1    9.18    0.63
  12  -2  -1   17.38    1.21
  12  -2  -1   16.45    1.34
  12  -2  -1   17.80    1.21
  12  -2  -1   18.17    1.20
  12  -2  -1   18.45    1.18
  12  -2  -1   18.79    1.23
 -12   2   1   18.47    1.20
 -12   2   1   18.10    1.19
 -12   2   1   18.59    1.30
 -12   2   1   18.52    1.20
  13  -1  -1  264.74   16.05
  13  -1  -1  257.40   16.02
  13  -1  -1  263.53   16.14
  13  -1  -1  234.44   16.09
  13  -1  -1  240.65   16.05
  13  -1  -1  267.45   16.01
  13  -1  -1  272.59   16.08
 -13   1   1  263.99   16.06
 -13   1   1  266.39   16.09
 -13   1   1  214.59   16.05
 -13   1   1  280.43   16.05
 -13   1   1  233.19   16.07
  14   0  -1    0.24    0.22
  14   0  -1    0.22    0.37
  14   0  -1    1.16    0.61
  14   0  -1    0.26    0.38
  14   0  -1    0.17    0.50
 -14   0   1    0.12    0.24
 -14   0   1    0.05    0.23
 -14   0   1    0.25    0.22
 -14   0   1    0.07    0.30
 -14   0   1    0.18    0.39
  15   1  -1  367.06   24.04
 -15  -1   1  373.95   24.03
 -15  -1   1  378.43   24.06
 -15  -1   1  407.34   24.06
  16   2  -1    3.08    0.42
  16   2  -1    4.27    0.56
  16   2  -1    5.06    0.56
  16   2  -1    4.67    0.54
 -16  -2   1    3.87    0.40
 -16  -2   1    3.50    0.46
 -16  -2   1    3.04    0.51
  17   3  -1    1.91    0.36
  17   3  -1    1.75    0.34
  17   3  -1    1.15    0.36
  17   3  -1    1.79    0.35
 -17  -3   1    2.26    0.35
 -17  -3   1    2.16    0.31
 -17  -3   1    1.83    0.31
  18   4  -1   25.87    1.70
  18   4  -1   25.64    1.70
  18   4  -1   25.93    1.69
 -18  -4   1   24.15    1.67
 -18  -4   1   28.85    1.72
 -18  -4   1   22.57    1.71
  19   5  -1   33.83    2.21
  19   5  -1   34.52    2.22
  19   5  -1   35.24    2.19
 -19  -5   1   33.76    2.20
 -19  -5   1   31.85    2.23
   8  -6  -2   11.41    0.91
   8  -6  -2   10.33    1.08
   8  -6  -2   11.28    0.84
  -8   6   2   10.52    0.72
  -8   6   2   10.75    0.71
  -8   6   2   10.24    0.82
   9  -5  -2    0.30    0.34
   9  -5  -2   -0.21    0.53
   9  -5  -2   -0.07    0.27
  -9   5   2   -0.13    0.25
  -9   5   2   -0.04    0.09
  -9   5   2    0.12    0.10
  10  -4  -2  239.48   14.57
  10  -4  -2  222.65   14.43
  10  -4  -2  226.76   14.43
 -10   4   2  233.16   14.37
 -10   4   2  227.40   14.38
 -10   4   2  222.45   14.45
  11  -3  -2    1.73    0.52
  11  -3  -2    1.28    0.18
  11  -3  -2    1.43    0.75
  11  -3  -2    1.42    0.38
 -11   3   2    1.71    0.42
 -11   3   2    1.71    0.22
 -11   3   2    1.19    0.29
 -11   3   2    1.54    0.21
  12  -2  -2   22.78    1.62
  12  -2  -2   24.14    1.84
  12  -2  -2   23.40    1.56
  12  -2  -2   23.79    1.56
 -12   2   2   25.47    1.57
 -12   2   2   24.56    1.60
 -12   2   2   25.12    1.56
 -12   2   2   23.43    1.54
  13  -1  -2    7.94    1.09
  13  -1  -2    9.72    1.11
  13  -1  -2    6.07    0.61
 -13   1   2    6.69    0.54
 -13   1   2    6.63    0.57
 -13   1   2    5.45    0.69
 -13   1   2    6.49    0.49
  14   0  -2  126.88    8.31
  14   0  -2  129.96    8.42
  14   0  -2  146.44    8.39
 -14   0   2  143.18    8.32
 -14   0   2  128.72    8.33
 -14   0   2  115.52    8.32
  15   1  -2    0.86    0.57
  15   1  -2    0.67    0.46
  15   1  -2    1.49    0.52
 -15  -1   2    0.32    0.21
 -15  -1   2    0.83    0.25
 -15  -1   2    0.68    0.28
 -15  -1   2    0.62    0.25
  16   2  -2   31.06    2.12
  16   2  -2   30.55    2.12
 -16  -2   2   31.10    2.03
 -16  -2   2   32.52    2.02
 -16  -2   2   28.43    1.97
  17   3  -2    9.76    0.80
  17   3  -2    8.93    0.70
  17   3  -2   10.52    0.79
 -17  -3   2   10.12    0.72
 -17  -3   2    9.40    0.73
 -17  -3   2    9.43    0.64
 -17  -3   2    9.90    0.67
 -17  -3   2    8.82    0.70
  18   4  -2   40.68    2.53
  18   4  -2   36.55    2.50
 -18  -4   2   38.45    2.52
 -18  -4   2   38.97    2.48
  19   5  -2    0.49    0.23
  19   5  -2    0.22    0.20
  19   5  -2    0.28    0.19
 -19  -5   2    0.45    0.17
 -19  -5   2    0.32    0.20
 -19  -5   2    0.15    0.17
   8  -6  -3   20.77    1.48
   8  -6  -3   20.85    1.49
   8  -6  -3   21.06    1.64
  -8   6   3   21.16    1.47
  -8   6   3   20.20    1.35
  -8   6   3   20.94    1.34
   9  -5  -3   12.77    0.98
   9  -5  -3   11.18    1.15
   9  -5  -3   12.67    1.00
  -9   5   3   11.73    0.80
  -9   5   3   12.59    0.96
  -9   5   3   11.52    0.81
  10  -4  -3   13.47    1.42
  10  -4  -3   15.16    1.20
  10  -4  -3   14.29    1.11
 -10   4   3   14.39    0.95
 -10   4   3   14.70    0.96
  11  -3  -3   20.53    1.77
  11  -3  -3   20.01    1.68
 -11   3   3   22.23    1.40
 -11   3   3   21.89    1.39
 -11   3   3   21.39    1.40
  12  -2  -3    8.63    1.14
  12  -2  -3    4.53    0.77
  12  -2  -3    6.00    1.03
 -12   2   3    6.03    0.50
 -12   2   3    5.84    0.44
 -12   2   3    6.47    0.46
 -12   2   3    6.92    0.49
  13  -1  -3  124.33    7.75
  13  -1  -3  102.96    7.90
 -13   1   3  129.50    7.72
 -13   1   3  125.46    7.71
 -13   1   3  127.75    7.75
  14   0  -3   -0.59    0.65
  14   0  -3    0.70    0.74
  14   0  -3    0.84    0.45
  14   0  -3   -0.16    0.17
 -14   0   3    0.08    0.22
 -14   0   3   -0.02    0.15
 -14   0   3   -0.03    0.17
  15   1  -3  219.36   15.08
  15   1  -3  238.26   15.07
 -15  -1   3  249.49   14.98
 -15  -1   3  248.47   14.98
 -15  -1   3  213.62   15.00
 -15  -1   3  257.53   14.98
  16   2  -3    1.09    0.45
  16   2  -3    1.23    0.40
  16   2  -3    0.78    0.42
 -16  -2   3    0.79    0.22
 -16  -2   3    0.57    0.21
 -16  -2   3    0.65    0.18
  17   3  -3    6.86    1.02
  17   3  -3    8.89    0.68
  17   3  -3    9.78    0.70
  17   3  -3    7.14    0.73
 -17  -3   3    7.16    0.64
 -17  -3   3    9.74    0.64
  18   4  -3   13.93    0.95
  18   4  -3   14.71    0.94
  18   4  -3   12.57    0.98
 -18  -4   3   12.29    0.86
 -18  -4   3   12.68    0.91
 -18  -4   3   12.20    0.91
  19   5  -3   25.31    1.67
  19   5  -3   23.71    1.62
  19   5  -3   25.05    1.61
 -19  -5   3   22.98    1.61
 -19  -5   3   25.08    1.66
 -19  -5   3   24.48    1.58
   9  -5  -4    0.49    0.38
   9  -5  -4    0.18    0.44
   9  -5  -4   -0.05    0.55
  -9   5   4    0.14    0.11
  -9   5   4    0.04    0.10
  10  -4  -4   90.32    5.75
  10  -4  -4   86.39    5.79
  10  -4  -4   86.11    5.68
 -10   4   4   83.27    5.58
 -10   4   4   98.10    5.57
 -10   4   4   85.28    5.57
  11  -3  -4    0.94    0.47
  11  -3  -4    1.13    0.61
 -11   3   4    0.74    0.15
 -11   3   4    0.49    0.15
 -11   3   4    0.70    0.18
  12  -2  -4   17.69    1.14
  12  -2  -4   13.77    1.53
 -12   2   4   17.77    1.09
 -12   2   4   17.56    1.11
 -12   2   4   14.29    1.06
 -12   2   4   16.77    1.08
  13  -1  -4    1.41    0.73
  13  -1  -4    0.31    0.68
  13  -1  -4    0.33    0.30
 -13   1   4    0.63    0.14
 -13   1   4    0.59    0.24
 -13   1   4    0.51    0.15
  14   0  -4   52.54    3.32
  14   0  -4   51.15    3.54
  14   0  -4   48.27    3.54
 -14   0   4   54.82    3.34
 -14   0   4   52.94    3.33
 -14   0   4   53.48    3.33
  15   1  -4    2.54    0.52
  15   1  -4    2.08    0.58
  15   1  -4    1.54    0.53
 -15  -1   4    1.65    0.26
 -15  -1   4    1.71    0.22
 -15  -1   4    1.61    0.22
  16   2  -4   16.14    1.32
  16   2  -4   17.40    1.36
 -16  -2   4   18.27    1.19
 -16  -2   4   17.94    1.20
 -16  -2   4   18.56    1.19
  17   3  -4    5.66    0.49
  17   3  -4    5.73    0.63
  17   3  -4    5.18    0.57
 -17  -3   4    5.44    0.46
 -17  -3   4    4.91    0.44
 -17  -3   4    6.18    0.46
  18   4  -4   21.50    1.44
  18   4  -4   21.13    1.48
 -18  -4   4   20.39    1.40
 -18  -4   4   21.51    1.41
  10  -4  -5    5.16    0.82
  10  -4  -5    6.21    0.86
 -10   4   5    4.53    0.38
 -10   4   5    4.23    0.35
 -10   4   5    4.92    0.36
  11  -3  -5   20.65    1.78
 -11   3   5   22.67    1.47
 -11   3   5   23.90    1.49
 -11   3   5   22.95    1.47
  12  -2  -5    2.67    0.75
  12  -2  -5    5.10    0.79
  12  -2  -5    3.38    0.45
 -12   2   5    3.76    0.42
 -12   2   5    3.72    0.31
 -12   2   5    3.34    0.30
  13  -1  -5   28.57    1.95
  13  -1  -5   29.19    2.14
 -13   1   5   28.72    1.86
 -13   1   5   28.13    1.86
 -13   1   5   30.04    1.92
  14   0  -5   -0.28    0.51
  14   0  -5    0.40    0.41
  14   0  -5    0.38    0.59
 -14   0   5    0.29    0.13
 -14   0   5    0.11    0.13
 -14   0   5   -0.06    0.13
  15   1  -5   98.71    5.89
  15   1  -5   81.87    5.80
 -15  -1   5   88.02    5.69
 -15  -1   5   90.93    5.67
  16   2  -5    0.47    0.43
  16   2  -5    0.33    0.63
  16   2  -5    0.24    0.34
 -16  -2   5    0.18    0.15
 -16  -2   5   -0.02    0.12
  17   3  -5    8.55    0.72
  17   3  -5    8.23    0.77
 -17  -3   5    8.35    0.61
 -17  -3   5    8.28    0.62
 -17  -3   5    8.55    0.64
  11  -3  -6    0.54    0.23
  11  -3  -6    0.38    0.56
  11  -3  -6    0.47    0.76
 -11   3   6    0.44    0.13
 -11   3   6    0.47    0.18
 -11   3   6    0.58    0.13
  12  -2  -6   12.14    0.94
  12  -2  -6   13.87    0.96
  12  -2  -6   12.19    1.25
  12  -2  -6   11.70    1.20
 -12   2   6   13.02    0.86
 -12   2   6   12.64    0.86
 -12   2   6   13.09    0.91
  13  -1  -6    1.73    0.64
  13  -1  -6    0.26    0.50
  13  -1  -6    1.26    0.38
 -13   1   6    1.22    0.17
 -13   1   6    1.07    0.17
  14   0  -6   18.67    1.54
  14   0  -6   17.45    1.45
 -14   0   6   19.11    1.22
 -14   0   6   18.67    1.22
  15   1  -6    0.65    0.51
  15   1  -6    0.62    0.41
  15   1  -6    0.17    0.41
 -15  -1   6    0.49    0.15
 -15  -1   6    0.55    0.14
 -15  -1   6    0.23    0.13
  16   2  -6   13.21    1.05
  16   2  -6   12.36    1.00
 -16  -2   6   13.18    0.90
 -16  -2   6   13.06    0.89
 -16  -2   6   13.73    0.90
  13  -3   6    3.05    0.34
  13  -3   6    3.89    0.63
  13  -3   6    3.56    0.41
 -13   3  -6    3.56    0.30
 -13   3  -6    3.81    0.46
 -13   3  -6    3.39    0.57
  14  -2   6   13.21    0.89
  14  -2   6   12.97    0.96
  14  -2   6   13.53    0.96
 -14   2  -6   13.87    1.01
 -14   2  -6   12.82    0.88
 -14   2  -6   16.43    1.21
  15  -1   6    0.52    0.14
  15  -1   6    0.45    0.18
  15  -1   6    0.21    0.22
 -15   1  -6    0.62    0.26
 -15   1  -6    0.44    0.45
  16   0   6   18.52    1.23
  16   0   6   18.07    1.27
  16   0   6   18.20    1.21
 -16   0  -6   18.48    1.28
  17   1   6    0.32    0.16
  17   1   6   -0.25    0.22
  17   1   6    0.24    0.26
 -17  -1  -6    0.43    0.24
 -17  -1  -6    0.73    0.50
 -17  -1  -6    0.81    0.24
  12  -4   5    6.45    0.51
  12  -4   5    7.16    0.74
  12  -4   5    7.03    0.57
 -12   4  -5    7.05    0.49
 -12   4  -5    7.10    0.70
 -12   4  -5    7.02    0.68
  13  -3   5   18.74    1.15
  13  -3   5   17.91    1.18
  13  -3   5   18.46    1.22
  13  -3   5   17.38    1.37
 -13   3  -5   17.83    1.15
 -13   3  -5   18.32    1.29
 -13   3  -5   14.77    1.34
  14  -2   5    0.21    0.12
  14  -2   5    0.17    0.20
  14  -2   5   -0.05    0.15
 -14   2  -5    0.15    0.25
 -14   2  -5   -0.07    0.40
 -14   2  -5    0.21    0.09
  15  -1   5   85.15    5.38
  15  -1   5   83.61    5.44
  15  -1   5   87.03    5.41
 -15   1  -5   85.21    5.47
  16   0   5    0.05    0.17
  16   0   5    0.02    0.26
  16   0   5    0.15    0.15
 -16   0  -5    0.32    0.42
 -16   0  -5    0.09    0.24
 -16   0  -5    0.10    0.22
  17   1   5   10.19    0.70
  17   1   5    9.63    0.84
  17   1   5    9.22    0.64
  17   1   5   10.00    0.71
 -17  -1  -5   10.01    0.81
 -17  -1  -5   10.02    0.74
  18   2   5    3.17    0.35
  18   2   5    3.34    0.28
  18   2   5    3.51    0.36
 -18  -2  -5    3.70    0.37
 -18  -2  -5    3.08    0.49
 -18  -2  -5    4.56    0.62
  19   3   5   23.47    1.60
  19   3   5   23.01    1.59
 -19  -3  -5   25.53    1.69
 -19  -3  -5   25.72    1.78
 -19  -3  -5   24.28    1.60
  11  -5   4    0.60    0.14
  11  -5   4    0.41    0.31
  11  -5   4    0.47    0.20
 -11   5  -4    0.63    0.38
 -11   5  -4    0.88    0.15
  12  -4   4   10.64    0.82
  12  -4   4   10.48    0.77
  12  -4   4   10.86    0.92
 -12   4  -4   11.01    0.90
 -12   4  -4   10.54    0.73
 -12   4  -4   10.73    0.89
  13  -3   4   11.88    0.81
  13  -3   4   11.14    1.03
  13  -3   4   10.34    0.85
  13  -3   4   12.58    0.85
  13  -3   4   12.20    0.77
 -13   3  -4   12.23    0.95
 -13   3  -4   12.13    0.79
 -13   3  -4   11.38    1.00
  14  -2   4   46.53    3.01
  14  -2   4   47.26    3.05
  14  -2   4   46.47    2.99
 -14   2  -4   44.50    2.98
 -14   2  -4   51.73    3.21
 -14   2  -4   46.99    3.09
  15  -1   4    1.55    0.23
  15  -1   4    1.92    0.28
  15  -1   4    1.66    0.32
  15  -1   4    1.77    0.22
 -15   1  -4    1.65    0.32
 -15   1  -4    1.66    0.17
 -15   1  -4    1.85    0.32
 -15   1  -4    3.06    0.59
  16   0   4   32.16    2.08
  16   0   4   30.56    2.19
  16   0   4   33.14    2.10
 -16   0  -4   33.75    2.12
 -16   0  -4   31.39    2.18
  17   1   4    1.55    0.24
  17   1   4    1.41    0.22
  17   1   4    1.29    0.18
 -17  -1  -4    1.25    0.37
 -17  -1  -4    1.55    0.26
  18   2   4   36.43    2.32
  18   2   4   36.85    2.32
  18   2   4   34.54    2.28
 -18  -2  -4   36.22    2.32
 -18  -2  -4   35.06    2.47
  19   3   4    0.28    0.19
  19   3   4    0.56    0.14
  19   3   4    0.42    0.18
 -19  -3  -4    1.04    0.35
 -19  -3  -4    0.33    0.35
  20   4   4   30.99    2.09
  20   4   4   31.37    2.10
  20   4   4   30.65    2.14
 -20  -4  -4   33.63    2.09
 -20  -4  -4   37.42    2.53
  10  -6   3   10.93    0.79
  10  -6   3   10.70    0.73
 -10   6  -3   11.31    0.72
 -10   6  -3   11.30    0.76
 -10   6  -3   10.59    1.50
  11  -5   3    8.84    0.74
  11  -5   3    8.70    0.63
  11  -5   3    7.83    0.58
 -11   5  -3    7.92    0.83
 -11   5  -3    8.43    0.56
 -11   5  -3    8.89    0.60
  12  -4   3   16.89    1.19
  12  -4   3   18.66    1.36
  12  -4   3   18.79    1.22
  12  -4   3   20.07    1.31
 -12   4  -3   18.88    1.22
 -12   4  -3   18.68    1.19
 -12   4  -3   19.00    1.41
  13  -3   3   56.77    3.55
  13  -3   3   57.55    3.52
  13  -3   3   57.63    3.58
  13  -3   3   54.24    3.68
 -13   3  -3   56.75    3.54
 -13   3  -3   56.43    3.66
 -13   3  -3   51.47    3.67
  14  -2   3    0.15    0.24
  14  -2   3    0.39    0.18
  14  -2   3    0.42    0.16
 -14   2  -3   -0.41    0.41
 -14   2  -3    0.30    0.29
 -14   2  -3    0.01    0.11
  15  -1   3  242.93   15.18
  15  -1   3  246.19   15.10
  15  -1   3  214.71   15.08
  15  -1   3  237.59   15.07
  15  -1   3  249.20   15.07
  15  -1   3  249.41   15.13
 -15   1  -3  245.52   15.16
 -15   1  -3  236.44   15.20
 -15   1  -3  239.75   15.07
  16   0   3    0.04    0.21
  16   0   3   -0.18    0.20
  16   0   3    0.02    0.21
  16   0   3   -0.13    0.16
 -16   0  -3    0.14    0.24
 -16   0  -3   -0.34    0.32
 -16   0  -3   -0.05    0.22
 -16   0  -3    0.22    0.47
  17   1   3    8.90    0.70
  17   1   3    8.74    0.65
  17   1   3    8.51    0.71
 -17  -1  -3    9.79    0.68
 -17  -1  -3   10.64    0.92
 -17  -1  -3   10.83    0.92
  18   2   3    8.70    0.68
  18   2   3    8.95    0.66
  18   2   3    8.37    0.63
  18   2   3   11.50    1.04
 -18  -2  -3    7.96    0.85
 -18  -2  -3    8.79    0.63
  19   3   3   45.06    2.98
  19   3   3   49.30    3.01
  19   3   3   46.48    3.00
 -19  -3  -3   47.19    3.10
 -19  -3  -3   45.31    2.96
  20   4   3    6.21    0.52
  20   4   3    6.09    0.49
  20   4   3    5.96    0.52
 -20  -4  -3    6.42    0.65
 -20  -4  -3    6.64    0.44
  10  -6   2   45.94    3.19
  10  -6   2   54.55    3.45
  10  -6   2   48.17    3.25
 -10   6  -2   48.23    3.19
 -10   6  -2   48.64    3.16
 -10   6  -2   55.79    3.40
  11  -5   2    1.70    0.53
  11  -5   2    1.11    0.33
 -11   5  -2    1.47    0.48
 -11   5  -2    1.15    0.14
 -11   5  -2    1.07    0.18
  12  -4   2    4.96    0.44
  12  -4   2    5.29    0.59
  12  -4   2    5.69    0.40
 -12   4  -2    5.12    0.37
 -12   4  -2    5.52    0.42
 -12   4  -2    4.69    0.67
  13  -3   2   16.19    1.22
  13  -3   2   18.37    1.38
  13  -3   2   19.85    1.25
  13  -3   2   18.13    1.20
  13  -3   2   16.73    1.18
  13  -3   2   19.16    1.21
 -13   3  -2   18.84    1.19
 -13   3  -2   18.63    1.36
 -13   3  -2   19.29    1.21
 -13   3  -2   18.64    1.38
  14  -2   2   78.47    5.79
  14  -2   2  100.65    5.84
  14  -2   2   86.30    5.76
  14  -2   2   97.79    5.80
  14  -2   2   98.12    5.79
  14  -2   2   87.32    5.78
 -14   2  -2   82.63    5.90
 -14   2  -2   96.71    5.78
 -14   2  -2   95.05    5.87
  15  -1   2    0.78    0.39
  15  -1   2    0.78    0.24
  15  -1   2    0.71    0.18
  15  -1   2    1.46    0.35
  15  -1   2    0.96    0.25
  15  -1   2    0.91    0.25
  15  -1   2    0.66    0.22
 -15   1  -2    0.90    0.49
 -15   1  -2    0.78    0.29
 -15   1  -2    1.61    0.37
 -15   1  -2    1.01    0.20
  16   0   2   21.76    1.43
  16   0   2   21.87    1.45
  16   0   2   22.77    1.81
  16   0   2   21.19    1.43
 -16   0  -2   20.45    1.41
 -16   0  -2   18.98    1.56
  17   1   2    4.95    0.55
  17   1   2    6.10    0.75
  17   1   2    4.98    0.50
  17   1   2    5.50    0.51
 -17  -1  -2    4.84    0.41
 -17  -1  -2    4.19    0.47
 -17  -1  -2    4.50    0.73
  18   2   2  110.75    6.79
  18   2   2  106.81    6.74
  18   2   2  111.47    6.76
 -18  -2  -2  104.31    6.83
 -18  -2  -2   99.69    6.77
  19   3   2    0.44    0.19
  19   3   2   -0.03    0.23
  19   3   2    0.29    0.21
 -19  -3  -2    0.08    0.30
 -19  -3  -2    0.39    0.35
 -19  -3  -2    0.09    0.17
  20   4   2   51.84    3.26
  20   4   2   48.75    3.26
  20   4   2   53.29    3.29
 -20  -4  -2   49.19    3.27
 -20  -4  -2   51.38    3.32
  21   5   2    0.99    0.22
  21   5   2    1.08    0.21
  21   5   2    1.05    0.25
 -21  -5  -2    1.72    0.32
 -21  -5  -2    1.48    0.31
  10  -6   1   17.89    1.27
  10  -6   1   18.29    1.48
  10  -6   1   17.30    1.20
 -10   6  -1   20.03    1.40
 -10   6  -1   17.75    1.16
 -10   6  -1   17.21    1.20
  11  -5   1    4.77    0.55
  11  -5   1    4.39    0.42
  11  -5   1    6.24    0.81
 -11   5  -1    6.11    0.52
 -11   5  -1    5.34    0.37
 -11   5  -1    4.94    0.67
  12  -4   1   22.13    1.65
  12  -4   1   21.01    1.39
  12  -4   1   21.67    1.36
  12  -4   1   21.98    1.49
  12  -4   1   19.20    1.39
  12  -4   1   19.95    1.35
  12  -4   1   17.83    1.38
 -12   4  -1   23.28    1.38
 -12   4  -1   21.69    1.36
 -12   4  -1   21.53    1.40
 -12   4  -1   24.54    1.60
  13  -3   1  112.09    8.32
  13  -3   1  128.56    8.30
  13  -3   1  130.05    8.38
  13  -3   1  128.53    8.32
  13  -3   1  132.73    8.33
  13  -3   1  135.08    8.45
 -13   3  -1  136.10    8.46
 -13   3  -1  131.47    8.30
 -13   3  -1  131.82    8.33
 -13   3  -1  152.55    8.32
  14  -2   1    0.55    0.38
  14  -2   1    0.22    0.15
  14  -2   1    0.50    0.27
  14  -2   1    0.53    0.23
  14  -2   1    0.44    0.26
  14  -2   1    0.53    0.29
  14  -2   1    0.36    0.25
  14  -2   1    0.45    0.22
 -14   2  -1    0.53    0.17
 -14   2  -1    0.27    0.33
 -14   2  -1    0.41    0.23
 -14   2  -1    0.35    0.37
 -14   2  -1    0.60    0.21
 -14   2  -1    0.35    0.20
  15  -1   1  349.46   24.89
  15  -1   1  420.89   24.83
  15  -1   1  381.50   24.85
  15  -1   1  386.86   24.81
  15  -1   1  417.52   24.80
  15  -1   1  408.52   24.85
 -15   1  -1  392.61   24.81
 -15   1  -1  380.56   24.89
 -15   1  -1  387.93   24.85
 -15   1  -1  422.62   24.86
  16   0   1    0.51    0.49
  16   0   1    0.11    0.25
  16   0   1   -0.01    0.37
  16   0   1    0.44    0.33
  16   0   1    0.92    0.40
  16   0   1   -0.15    0.60
  16   0   1    0.08    0.30
 -16   0  -1    0.01    0.38
 -16   0  -1    0.21    0.22
 -16   0  -1    0.13    0.23
  17   1   1    3.91    0.46
  17   1   1    3.99    0.51
  17   1   1    3.39    0.47
 -17  -1  -1    3.92    0.45
 -17  -1  -1    3.82    0.62
  18   2   1    9.82    0.73
  18   2   1   10.17    0.83
  18   2   1   11.63    0.84
 -18  -2  -1    9.05    0.86
 -18  -2  -1   11.55    0.93
  19   3   1   78.97    4.84
  19   3   1   85.52    4.88
  19   3   1   72.58    4.83
  19   3   1   75.17    4.80
 -19  -3  -1   76.46    4.87
 -19  -3  -1   67.06    4.79
  20   4   1   10.74    0.77
  20   4   1    9.08    0.72
  20   4   1    8.90    0.71
  20   4   1    9.40    0.69
 -20  -4  -1    8.63    0.75
 -20  -4  -1   11.07    0.72
  21   5   1    5.72    0.53
  21   5   1    6.48    0.51
  21   5   1    7.71    0.59
  21   5   1    5.95    0.54
 -21  -5  -1    7.11    0.53
 -21  -5  -1    6.60    0.57
   9  -7   0   -0.07    0.30
   9  -7   0    0.22    0.18
   9  -7   0   -0.27    0.48
  -9   7   0    0.02    0.17
  -9   7   0    0.09    0.09
  10  -6   0   90.46    5.31
  10  -6   0   81.01    5.16
  10  -6   0   75.22    5.09
 -10   6   0   79.36    5.08
 -10   6   0   77.24    5.12
  11  -5   0    1.34    0.34
  11  -5   0    1.34    0.16
  11  -5   0    1.76    0.62
  11  -5   0    1.21    0.20
 -11   5   0    1.44    0.18
 -11   5   0    1.45    0.17
  12  -4   0    7.82    0.86
  12  -4   0    6.01    0.60
  12  -4   0    5.03    0.40
  12  -4   0    6.16    0.45
 -12   4   0    4.97    0.44
 -12   4   0    5.41    0.41
 -12   4   0    5.69    0.49
  13  -3   0   31.96    1.95
  13  -3   0   31.33    2.13
  13  -3   0   27.64    1.92
  13  -3   0   30.78    1.99
  13  -3   0   28.85    1.92
  13  -3   0   27.60    1.96
  13  -3   0   28.92    1.91
 -13   3   0   30.46    1.96
 -13   3   0   29.71    1.93
 -13   3   0   29.65    1.90
  14  -2   0  147.23    8.71
  14  -2   0  140.79    8.73
  14  -2   0  138.49    8.76
  14  -2   0  133.19    8.75
  14  -2   0  152.28    8.76
  14  -2   0  131.70    8.75
  14  -2   0  132.15    8.74
  14  -2   0  149.62    8.83
 -14   2   0  133.52    8.73
 -14   2   0  133.60    8.75
 -14   2   0  138.31    8.71
 -14   2   0  127.37    8.73
  15  -1   0    6.17    0.64
  15  -1   0    6.71    0.65
  15  -1   0    7.70    0.64
  15  -1   0    7.78    0.72
  15  -1   0    5.12    0.61
  15  -1   0    5.65    0.75
  15  -1   0    8.21    0.71
  15  -1   0    8.64    0.71
 -15   1   0    7.12    0.58
 -15   1   0    6.51    0.62
 -15   1   0    5.94    0.67
 -15   1   0    7.83    0.57
  16   0   0   80.52    5.53
  16   0   0   94.68    5.59
  16   0   0   93.65    5.61
  16   0   0   96.30    5.55
  16   0   0   74.20    5.59
 -16   0   0   88.42    5.61
 -16   0   0   77.73    5.59
 -16   0   0   92.57    5.57
 -16   0   0   84.77    5.60
  17   1   0    0.54    0.50
  17   1   0    0.17    0.41
  17   1   0    0.69    0.35
  17   1   0    0.57    0.44
 -17  -1   0    0.60    0.35
 -17  -1   0    0.46    0.37
 -17  -1   0    0.06    0.38
 -17  -1   0    0.84    0.31
  18   2   0   97.97    6.22
  18   2   0  100.95    6.25
  18   2   0   96.47    6.25
 -18  -2   0   96.68    6.23
  19   3   0   -0.12    0.25
  19   3   0    0.41    0.22
  19   3   0   -0.19    0.26
 -19  -3   0   -0.05    0.27
 -19  -3   0    0.27    0.22
 -19  -3   0    0.08    0.23
  20   4   0   71.79    4.27
  20   4   0   68.20    4.26
  20   4   0   66.79    4.27
 -20  -4   0   58.83    4.30
 -20  -4   0   68.08    4.27
  21   5   0    0.92    0.23
  21   5   0    1.20    0.23
  21   5   0    1.06    0.21
 -21  -5   0    0.63    0.26
 -21  -5   0    1.32    0.23
 -21  -5   0    0.86    0.23
  10  -6  -1   17.74    1.32
  10  -6  -1   18.32    1.23
  10  -6  -1   20.59    1.52
 -10   6   1   18.50    1.19
 -10   6   1   18.13    1.20
 -10   6   1   17.94    1.27
  11  -5  -1    5.08    0.44
  11  -5  -1    5.90    0.61
  11  -5  -1    5.75    0.55
  11  -5  -1    6.77    0.85
 -11   5   1    6.27    0.42
 -11   5   1    4.78    0.51
 -11   5   1    5.98    0.45
  12  -4  -1   20.46    1.39
  12  -4  -1   20.72    1.40
  12  -4  -1   22.29    1.50
  12  -4  -1   21.72    1.49
 -12   4   1   22.59    1.40
 -12   4   1   21.44    1.48
 -12   4   1   22.28    1.40
  13  -3  -1  123.77    7.92
  13  -3  -1  127.10    7.98
  13  -3  -1  130.99    8.01
  13  -3  -1  125.51    7.94
  13  -3  -1  109.49    7.93
 -13   3   1  131.76    8.01
 -13   3   1  133.37    7.94
  14  -2  -1    0.47    0.26
  14  -2  -1    0.77    0.57
  14  -2  -1    0.32    0.18
  14  -2  -1    0.36    0.22
  14  -2  -1    0.41    0.30
  14  -2  -1    1.09    0.47
  14  -2  -1    0.81    0.27
 -14   2   1    0.31    0.17
 -14   2   1    0.32    0.17
 -14   2   1    0.63    0.29
 -14   2   1    0.30    0.16
  15  -1  -1  406.77   26.30
  15  -1  -1  388.23   26.21
  15  -1  -1  422.65   26.20
 -15   1   1  437.93   26.28
 -15   1   1  384.35   26.29
 -15   1   1  464.70   26.27
  16   0  -1    0.55    0.43
  16   0  -1    0.27    0.40
  16   0  -1    0.02    0.25
  16   0  -1    0.67    0.53
  16   0  -1    1.20    0.61
 -16   0   1   -0.06    0.31
 -16   0   1    0.26    0.31
 -16   0   1    0.01    0.22
 -16   0   1    0.25    0.24
  17   1  -1    5.76    0.75
  17   1  -1    4.96    0.57
  17   1  -1    4.18    0.67
 -17  -1   1    3.53    0.51
 -17  -1   1    5.81    0.47
  18   2  -1   10.69    0.89
  18   2  -1    8.02    0.71
  18   2  -1    9.90    0.85
 -18  -2   1    9.21    0.75
 -18  -2   1    8.64    0.80
 -18  -2   1    9.68    0.70
  19   3  -1   82.79    4.79
  19   3  -1   75.42    4.79
  19   3  -1   75.14    4.78
 -19  -3   1   67.59    4.80
 -19  -3   1   74.83    4.79
 -19  -3   1   72.91    4.74
  20   4  -1    8.40    0.68
  20   4  -1    8.68    0.67
  20   4  -1    8.86    0.69
 -20  -4   1    7.92    0.69
 -20  -4   1    8.27    0.63
  21   5  -1    6.62    0.56
  21   5  -1    6.50    0.55
  21   5  -1    5.83    0.53
 -21  -5   1    6.57    0.58
 -21  -5   1    7.02    0.52
  10  -6  -2   52.71    3.37
  10  -6  -2   50.78    3.33
  10  -6  -2   55.55    3.51
 -10   6   2   50.47    3.25
 -10   6   2   50.07    3.26
 -10   6   2   48.71    3.33
  11  -5  -2    1.46    0.35
  11  -5  -2    0.64    0.36
  11  -5  -2    0.98    0.58
 -11   5   2    1.46    0.32
 -11   5   2    1.26    0.18
 -11   5   2    1.29    0.17
  12  -4  -2    5.04    0.62
  12  -4  -2    7.02    0.90
  12  -4  -2    5.46    0.61
 -12   4   2    5.11    0.41
 -12   4   2    5.47    0.41
 -12   4   2    5.84    0.57
  13  -3  -2   18.94    1.53
  13  -3  -2   18.72    1.41
 -13   3   2   23.93    1.39
 -13   3   2   19.79    1.32
 -13   3   2   19.82    1.33
  14  -2  -2   93.80    6.21
  14  -2  -2   97.01    6.08
  14  -2  -2   95.09    6.04
  14  -2  -2   92.04    6.07
 -14   2   2   98.57    6.07
 -14   2   2   97.47    6.09
 -14   2   2   98.91    6.05
 -14   2   2   93.12    6.03
  15  -1  -2    1.88    0.78
  15  -1  -2    1.12    0.34
  15  -1  -2    1.99    0.73
  15  -1  -2    0.68    0.26
 -15   1   2    1.13    0.25
 -15   1   2    1.26    0.30
 -15   1   2    0.87    0.20
  16   0  -2   17.97    1.42
  16   0  -2   24.68    1.69
 -16   0   2   21.10    1.42
 -16   0   2   21.33    1.40
  17   1  -2    4.50    0.64
  17   1  -2    6.21    0.77
 -17  -1   2    4.09    0.45
 -17  -1   2    3.92    0.42
 -17  -1   2    4.49    0.46
  18   2  -2   94.72    6.36
  18   2  -2  100.28    6.35
 -18  -2   2  101.07    6.32
 -18  -2   2   95.02    6.24
 -18  -2   2  104.92    6.31
  19   3  -2    0.44    0.31
  19   3  -2    0.43    0.26
  19   3  -2    0.20    0.32
 -19  -3   2   -0.05    0.18
 -19  -3   2    0.49    0.15
 -19  -3   2    0.26    0.23
  20   4  -2   47.79    3.17
  20   4  -2   50.29    3.14
  20   4  -2   48.36    3.16
 -20  -4   2   53.27    3.17
 -20  -4   2   45.28    3.14
 -20  -4   2   47.42    3.10
  21   5  -2    1.52    0.30
  21   5  -2    1.33    0.28
  21   5  -2    1.08    0.28
 -21  -5   2    1.01    0.39
 -21  -5   2    1.89    0.24
 -21  -5   2    1.16    0.23
  10  -6  -3   11.25    0.96
  10  -6  -3   11.84    0.97
 -10   6   3   12.18    0.79
 -10   6   3   11.51    0.93
  11  -5  -3    8.80    0.80
  11  -5  -3    8.25    0.81
  11  -5  -3    9.30    0.99
 -11   5   3    8.86    0.60
 -11   5   3    8.98    0.60
 -11   5   3    7.63    0.75
  12  -4  -3   20.53    1.61
  12  -4  -3   18.77    1.43
  12  -4  -3   22.34    1.65
 -12   4   3   19.36    1.29
 -12   4   3   19.81    1.30
  13  -3  -3   57.95    3.93
 -13   3   3   59.14    3.76
 -13   3   3   58.44    3.76
 -13   3   3   60.52    3.75
  14  -2  -3    0.32    0.66
  14  -2  -3   -0.20    0.78
  14  -2  -3    0.15    0.25
  14  -2  -3    0.22    0.41
 -14   2   3    0.29    0.13
 -14   2   3   -0.26    0.17
 -14   2   3    0.10    0.10
 -14   2   3    0.25    0.18
  15  -1  -3  289.60   16.51
  15  -1  -3  248.64   16.33
 -15   1   3  252.93   16.30
 -15   1   3  247.75   16.35
 -15   1   3  258.30   16.32
  16   0  -3   -0.23    0.19
  16   0  -3   -0.99    0.62
  16   0  -3    0.46    0.44
  16   0  -3   -0.21    0.68
 -16   0   3    0.18    0.23
 -16   0   3    0.12    0.16
 -16   0   3    0.05    0.17
  17   1  -3    8.60    0.98
 -17  -1   3    8.97    0.65
 -17  -1   3    8.85    0.65
 -17  -1   3    8.15    0.67
  18   2  -3    8.34    0.85
  18   2  -3    7.79    0.64
  18   2  -3    8.31    0.82
 -18  -2   3    9.25    0.61
 -18  -2   3    7.87    0.60
 -18  -2   3    6.45    0.58
 -18  -2   3    8.05    0.62
  19   3  -3   42.63    2.83
  19   3  -3   43.20    2.85
 -19  -3   3   45.88    2.79
 -19  -3   3   39.54    2.74
 -19  -3   3   44.36    2.84
  20   4  -3    6.47    0.61
  20   4  -3    7.22    0.57
  20   4  -3    6.23    0.61
  20   4  -3    6.87    0.50
 -20  -4   3    5.56    0.52
 -20  -4   3    5.78    0.51
  11  -5  -4    1.58    0.41
  11  -5  -4    0.75    0.60
  11  -5  -4    0.61    0.48
 -11   5   4    0.77    0.13
 -11   5   4    0.88    0.15
  12  -4  -4   12.89    0.99
  12  -4  -4   11.96    1.11
  12  -4  -4   11.94    1.19
 -12   4   4   10.80    0.78
 -12   4   4   12.09    0.80
 -12   4   4   11.25    0.79
  13  -3  -4   16.47    1.13
  13  -3  -4   13.41    1.36
  13  -3  -4   17.35    1.31
 -13   3   4   12.05    0.92
 -13   3   4   13.23    0.92
 -13   3   4   12.86    0.91
  14  -2  -4   50.19    3.41
  14  -2  -4   49.16    3.15
 -14   2   4   48.38    3.11
 -14   2   4   49.49    3.12
 -14   2   4   47.37    3.14
  15  -1  -4    3.40    0.72
  15  -1  -4    1.74    0.71
  15  -1  -4    1.83    0.37
 -15   1   4    1.64    0.25
 -15   1   4    1.56    0.29
 -15   1   4    1.54    0.22
  16   0  -4   42.14    2.50
  16   0  -4   38.90    2.48
  16   0  -4   29.75    2.19
 -16   0   4   33.76    2.22
 -16   0   4   35.73    2.22
 -16   0   4   30.22    2.21
  17   1  -4    2.60    0.51
  17   1  -4    1.84    0.53
 -17  -1   4    1.45    0.22
 -17  -1   4    1.19    0.22
 -17  -1   4    1.30    0.35
  18   2  -4   39.02    2.45
  18   2  -4   33.60    2.42
 -18  -2   4   33.73    2.29
 -18  -2   4   35.58    2.28
 -18  -2   4   35.35    2.29
  19   3  -4    0.68    0.26
  19   3  -4    0.22    0.22
  19   3  -4    0.24    0.34
  19   3  -4    0.20    0.31
 -19  -3   4    0.37    0.17
 -19  -3   4    0.30    0.15
 -19  -3   4    0.53    0.18
  20   4  -4   38.73    2.26
  20   4  -4   33.21    2.23
 -20  -4   4   31.62    2.20
 -20  -4   4   31.72    2.22
  12  -4  -5    7.42    1.03
 -12   4   5    7.48    0.56
 -12   4   5    7.30    0.53
 -12   4   5    8.24    0.55
  13  -3  -5   20.17    1.63
 -13   3   5   20.34    1.27
 -13   3   5   18.94    1.29
 -13   3   5   18.52    1.26
  14  -2  -5    0.38    0.62
  14  -2  -5    0.54    0.26
  14  -2  -5    0.47    0.64
 -14   2   5    0.25    0.14
 -14   2   5    0.26    0.12
 -14   2   5    0.06    0.18
  15  -1  -5   81.16    5.67
 -15   1   5   89.20    5.47
 -15   1   5   88.02    5.46
  16   0  -5   -0.47    0.40
  16   0  -5    0.50    0.56
  16   0  -5    0.56    0.53
 -16   0   5    0.05    0.12
 -16   0   5    0.10    0.13
  17   1  -5    9.85    0.99
 -17  -1   5   10.31    0.71
 -17  -1   5   10.07    0.72
 -17  -1   5   10.38    0.72
  18   2  -5    3.23    0.50
  18   2  -5    3.05    0.51
 -18  -2   5    4.12    0.35
 -18  -2   5    3.47    0.34
 -18  -2   5    3.45    0.33
  19   3  -5   23.81    1.54
  19   3  -5   22.23    1.66
  19   3  -5   20.79    1.59
 -19  -3   5   22.30    1.53
 -19  -3   5   26.16    1.54
 -19  -3   5   23.70    1.53
  13  -3  -6    4.63    0.78
  13  -3  -6    3.97    0.45
  13  -3  -6    3.98    0.76
 -13   3   6    4.05    0.33
 -13   3   6    3.73    0.32
 -13   3   6    3.85    0.39
  14  -2  -6   16.37    1.31
  14  -2  -6   13.76    1.35
  14  -2  -6   13.24    1.03
 -14   2   6   14.07    0.98
 -14   2   6   13.92    0.94
 -14   2   6   14.27    0.99
  15  -1  -6    0.32    0.52
  15  -1  -6    1.07    0.61
  15  -1  -6   -0.15    0.34
 -15   1   6    0.41    0.14
 -15   1   6    0.46    0.13
  16   0  -6   16.16    1.44
 -16   0   6   18.62    1.20
 -16   0   6   19.16    1.21
  17   1  -6    0.21    0.41
  17   1  -6    1.03    0.50
 -17  -1   6    0.30    0.14
 -17  -1   6    0.45    0.20
  16  -2   6   12.08    0.92
  16  -2   6   12.48    0.83
  16  -2   6   12.87    0.87
 -16   2  -6   12.23    0.95
  17  -1   6    0.10    0.19
  17  -1   6    0.31    0.26
  17  -1   6    0.56    0.15
 -17   1  -6    0.39    0.56
 -17   1  -6    0.52    0.24
  18   0   6   12.53    0.85
  18   0   6   12.01    0.93
  18   0   6   12.03    0.87
 -18   0  -6   12.71    0.90
  14  -4   5    0.23    0.23
  14  -4   5    0.10    0.61
  14  -4   5   -0.08    0.14
 -14   4  -5    0.35    0.12
 -14   4  -5    0.21    0.44
  15  -3   5   51.90    3.16
  15  -3   5   50.57    3.13
  15  -3   5   49.35    3.09
  15  -3   5   45.25    3.28
 -15   3  -5   41.86    3.26
 -15   3  -5   51.97    3.22
 -15   3  -5   50.83    3.10
  16  -2   5    0.25    0.13
  16  -2   5    0.16    0.16
  16  -2   5    0.12    0.21
 -16   2  -5    0.16    0.11
 -16   2  -5    0.02    0.23
 -16   2  -5   -0.27    0.38
  17  -1   5    9.78    0.68
  17  -1   5    9.44    0.78
  17  -1   5    9.81    0.71
 -17   1  -5   10.03    0.76
  18   0   5    0.04    0.17
  18   0   5    0.10    0.28
  18   0   5    0.14    0.16
 -18   0  -5    0.05    0.33
 -18   0  -5    0.34    0.39
 -18   0  -5   -0.03    0.24
  19   1   5   32.95    2.10
  19   1   5   32.71    2.09
  19   1   5   29.98    2.04
  19   1   5   32.79    2.20
 -19  -1  -5   32.05    2.18
 -19  -1  -5   33.04    2.11
  20   2   5    1.01    0.22
  20   2   5    1.56    0.19
  20   2   5    1.07    0.23
 -20  -2  -5    1.02    0.33
 -20  -2  -5    2.19    0.44
 -20  -2  -5    1.67    0.25
  13  -5   4   11.71    1.10
  13  -5   4   12.10    0.86
  13  -5   4   11.39    0.80
 -13   5  -4   12.20    0.80
 -13   5  -4   11.82    1.08
  14  -4   4   19.11    1.30
  14  -4   4   20.61    1.47
  14  -4   4   20.03    1.34
 -14   4  -4   20.08    1.44
 -14   4  -4   19.61    1.45
 -14   4  -4   19.69    1.32
  15  -3   4    3.56    0.60
  15  -3   4    5.28    0.46
  15  -3   4    4.92    0.35
  15  -3   4    4.76    0.43
 -15   3  -4    4.78    0.36
 -15   3  -4    5.00    0.53
 -15   3  -4    3.75    0.61
  16  -2   4   17.93    1.22
  16  -2   4   16.52    1.13
 -16   2  -4   17.28    1.22
 -16   2  -4   17.22    1.11
  17  -1   4    1.43    0.56
  17  -1   4    1.27    0.20
 -17   1  -4    1.52    0.29
  18   0   4   42.81    3.36
  18   0   4   53.81    3.18
  18   0   4   50.41    3.15
  18   0   4   47.85    3.11
 -18   0  -4   50.33    3.39
 -18   0  -4   50.10    3.18
  19   1   4    0.08    0.19
  19   1   4    0.15    0.18
  19   1   4    0.36    0.13
 -19  -1  -4    0.07    0.32
 -19  -1  -4    0.63    0.38
 -19  -1  -4    0.25    0.17
  20   2   4   60.46    3.81
  20   2   4   58.43    3.81
  20   2   4   58.59    3.77
 -20  -2  -4   59.45    3.80
 -20  -2  -4   61.33    3.93
  21   3   4    0.66    0.16
  21   3   4    0.61    0.21
  21   3   4    0.58    0.20
 -21  -3  -4    1.44    0.35
 -21  -3  -4    1.30    0.39
  12  -6   3   10.54    1.02
  12  -6   3   10.47    0.81
  12  -6   3   10.10    0.70
  12  -6   3   10.41    0.86
 -12   6  -3   10.73    0.69
 -12   6  -3   10.64    0.75
 -12   6  -3   10.97    0.96
  13  -5   3   21.37    1.46
  13  -5   3   23.08    1.51
  13  -5   3   22.83    1.60
 -13   5  -3   24.28    1.45
 -13   5  -3   22.49    1.48
 -13   5  -3   22.02    1.65
  14  -4   3    0.59    0.10
  14  -4   3    0.25    0.35
  14  -4   3    0.34    0.20
  14  -4   3    0.33    0.14
  14  -4   3    0.43    0.14
 -14   4  -3    0.30    0.33
 -14   4  -3    0.34    0.31
 -14   4  -3    0.27    0.11
 -14   4  -3    0.40    0.14
  15  -3   3  126.86    7.63
  15  -3   3  115.32    7.62
  15  -3   3  124.93    7.65
  15  -3   3  118.16    7.78
  15  -3   3  112.83    7.63
  15  -3   3  129.14    7.69
 -15   3  -3  127.73    7.76
 -15   3  -3  111.00    7.77
 -15   3  -3  125.61    7.64
  16  -2   3    0.89    0.27
  16  -2   3    0.88    0.18
  16  -2   3    0.68    0.19
 -16   2  -3    0.72    0.14
 -16   2  -3    1.03    0.29
 -16   2  -3    0.85    0.44
  17  -1   3    8.64    0.62
  17  -1   3    8.64    0.62
  17  -1   3    9.18    0.63
  17  -1   3    9.16    0.65
  17  -1   3    7.99    0.62
  17  -1   3    9.09    0.68
  17  -1   3    8.25    0.81
 -17   1  -3    9.41    0.77
 -17   1  -3    9.21    0.69
 -17   1  -3    8.55    0.61
  18   0   3    0.42    0.20
  18   0   3    0.09    0.19
  18   0   3    0.20    0.17
  18   0   3    0.23    0.21
 -18   0  -3    0.08    0.32
 -18   0  -3    0.06    0.20
 -18   0  -3    0.10    0.34
 -18   0  -3    0.26    0.39
  19   1   3   77.24    4.69
  19   1   3   72.46    4.66
  19   1   3   76.89    4.71
 -19  -1  -3   68.06    4.66
  20   2   3    3.88    0.52
  20   2   3    2.78    0.31
  20   2   3    2.51    0.37
  20   2   3    2.85    0.40
 -20  -2  -3    2.72    0.27
 -20  -2  -3    2.94    0.50
  21   3   3   15.90    1.09
  21   3   3   15.35    1.07
 -21  -3  -3   14.83    1.00
 -21  -3  -3   16.11    1.18
  22   4   3    5.93    0.52
  22   4   3    5.54    0.51
  22   4   3    5.99    0.47
 -22  -4  -3    6.16    0.62
  12  -6   2    2.77    0.47
  12  -6   2    2.78    0.33
  12  -6   2    3.95    0.70
 -12   6  -2    2.68    0.29
 -12   6  -2    3.46    0.56
 -12   6  -2    2.97    0.24
  13  -5   2   23.14    1.55
  13  -5   2   23.66    1.59
  13  -5   2   24.46    1.68
  13  -5   2   24.53    1.79
 -13   5  -2   24.31    1.58
 -13   5  -2   24.47    1.55
 -13   5  -2   25.44    1.77
  14  -4   2   43.76    2.84
  14  -4   2   44.51    2.96
  14  -4   2   44.61    2.88
 -14   4  -2   45.36    2.86
 -14   4  -2   45.91    2.84
 -14   4  -2   44.55    3.02
  15  -3   2   11.88    0.78
  15  -3   2   10.94    0.78
  15  -3   2   11.16    0.78
  15  -3   2    9.20    0.79
  15  -3   2   10.99    0.98
  15  -3   2   12.11    0.82
 -15   3  -2   11.58    0.94
 -15   3  -2   11.51    0.77
 -15   3  -2   11.20    0.93
 -15   3  -2   11.60    0.76
  16  -2   2   28.48    2.03
  16  -2   2   32.00    2.07
  16  -2   2   30.77    2.08
  16  -2   2   32.50    2.08
  16  -2   2   32.83    2.13
 -16   2  -2   32.75    2.12
 -16   2  -2   32.69    2.05
 -16   2  -2   32.43    2.14
  17  -1   2    4.76    0.48
  17  -1   2    3.94    0.47
  17  -1   2    4.28    0.40
  17  -1   2    5.35    0.52
  17  -1   2    4.63    0.50
  17  -1   2    5.04    0.64
 -17   1  -2    4.50    0.42
 -17   1  -2    4.84    0.48
 -17   1  -2    4.65    0.60
  18   0   2  105.23    6.67
  18   0   2  105.11    6.69
  18   0   2  115.34    6.71
  18   0   2   98.03    6.65
 -18   0  -2   96.60    6.64
 -18   0  -2  116.55    6.79
 -18   0  -2   98.72    6.68
  19   1   2   -0.06    0.42
  19   1   2    0.06    0.28
  19   1   2    0.22    0.26
  19   1   2    0.07    0.29
 -19  -1  -2    0.06    0.20
 -19  -1  -2    0.37    0.37
 -19  -1  -2    0.37    0.15
 -19  -1  -2   -0.03    0.37
  20   2   2  136.08    8.38
  20   2   2  137.57    8.39
  20   2   2  133.43    8.42
 -20  -2  -2  125.31    8.40
 -20  -2  -2  130.35    8.45
  21   3   2    0.42    0.27
  21   3   2    0.46    0.22
  21   3   2    0.80    0.24
 -21  -3  -2    0.90    0.32
 -21  -3  -2    0.65    0.21
 -21  -3  -2    1.58    0.35
  22   4   2    1.41    0.24
  22   4   2    1.17    0.26
  22   4   2    1.38    0.30
 -22  -4  -2    2.49    0.37
 -22  -4  -2    1.29    0.23
 -22  -4  -2    1.84    0.34
  12  -6   1   18.44    1.32
  12  -6   1   21.29    1.59
  12  -6   1   19.37    1.41
 -12   6  -1   19.54    1.33
 -12   6  -1   20.04    1.29
 -12   6  -1   22.64    1.50
  13  -5   1   32.53    2.30
  13  -5   1   37.34    2.53
  13  -5   1   35.68    2.38
 -13   5  -1   41.17    2.48
 -13   5  -1   34.66    2.31
 -13   5  -1   34.49    2.27
  14  -4   1   -0.14    0.29
  14  -4   1    0.33    0.09
  14  -4   1    0.13    0.16
  14  -4   1    0.25    0.20
  14  -4   1    0.40    0.47
  14  -4   1    0.10    0.25
  14  -4   1    0.05    0.11
 -14   4  -1    0.27    0.16
 -14   4  -1    0.20    0.10
 -14   4  -1    0.00    0.35
 -14   4  -1    0.06    0.15
  15  -3   1  226.89   15.16
  15  -3   1  244.70   15.27
  15  -3   1  236.60   15.18
  15  -3   1  264.86   15.18
  15  -3   1  231.84   15.22
 -15   3  -1  250.67   15.29
 -15   3  -1  232.34   15.18
  16  -2   1    3.96    0.46
  16  -2   1    4.42    0.70
  16  -2   1    4.27    0.51
  16  -2   1    4.09    0.46
  16  -2   1    3.62    0.50
  16  -2   1    3.71    0.61
 -16   2  -1    3.82    0.46
 -16   2  -1    3.99    0.38
 -16   2  -1    3.47    0.55
 -16   2  -1    4.20    0.42
  17  -1   1    3.82    0.53
  17  -1   1    3.77    0.54
  17  -1   1    3.86    0.55
  17  -1   1    5.50    0.63
  17  -1   1    5.24    0.57
  17  -1   1    3.14    0.44
  17  -1   1    3.91    0.56
 -17   1  -1    3.17    0.45
 -17   1  -1    3.84    0.50
 -17   1  -1    3.70    0.57
  18   0   1   -0.16    0.26
  18   0   1    0.05    0.32
  18   0   1    0.41    0.40
  18   0   1    0.05    0.31
  18   0   1    0.73    0.41
  18   0   1    0.40    0.32
  18   0   1   -0.08    0.28
 -18   0  -1   -0.03    0.24
 -18   0  -1    0.04    0.41
 -18   0  -1    0.30    0.23
 -18   0  -1    0.15    0.35
  19   1   1  102.67    6.75
  19   1   1  102.23    6.74
  19   1   1   98.00    6.70
  19   1   1  106.79    6.77
 -19  -1  -1  120.71    6.83
  20   2   1    5.44    0.57
  20   2   1    5.07    0.43
  20   2   1    4.70    0.56
  20   2   1    4.96    0.55
 -20  -2  -1    5.25    0.57
 -20  -2  -1    4.65    0.47
 -20  -2  -1    6.40    0.63
  21   3   1   21.27    1.40
  21   3   1   21.51    1.35
  21   3   1   21.12    1.41
 -21  -3  -1   19.04    1.46
 -21  -3  -1   19.82    1.43
  22   4   1    8.00    0.60
  22   4   1    6.44    0.54
  22   4   1    5.80    0.48
  22   4   1    5.77    0.54
  23   5   1   21.18    1.46
  23   5   1   19.72    1.42
  23   5   1   20.76    1.40
  23   5   1   24.85    1.47
 -23  -5  -1   20.06    1.45
  12  -6   0    1.65    0.36
  12  -6   0    1.68    0.54
  12  -6   0    1.37    0.22
 -12   6   0    1.62    0.18
 -12   6   0    1.46    0.25
  13  -5   0   27.37    1.90
  13  -5   0   32.22    2.18
  13  -5   0   31.94    2.13
 -13   5   0   28.72    1.89
 -13   5   0   28.90    1.90
 -13   5   0   29.40    1.94
  14  -4   0   57.93    3.31
  14  -4   0   49.59    3.28
  14  -4   0   52.18    3.38
  14  -4   0   56.89    3.49
  14  -4   0   48.51    3.29
 -14   4   0   49.17    3.31
 -14   4   0   50.58    3.33
 -14   4   0   50.81    3.29
  15  -3   0    8.07    0.60
  15  -3   0    5.85    0.57
  15  -3   0    7.47    0.88
  15  -3   0    7.72    0.67
  15  -3   0    6.20    0.63
  15  -3   0    6.56    0.52
 -15   3   0    6.61    0.59
 -15   3   0    6.78    0.50
 -15   3   0    6.74    0.56
 -15   3   0    6.46    0.55
  16  -2   0   14.82    1.10
  16  -2   0   17.43    1.21
  16  -2   0   11.38    1.07
  16  -2   0   14.60    1.08
  16  -2   0   15.66    1.06
  16  -2   0   13.62    1.11
  16  -2   0   14.58    1.03
 -16   2   0   15.11    1.25
 -16   2   0   14.54    1.06
 -16   2   0   15.14    1.00
 -16   2   0   14.42    1.03
  17  -1   0    0.49    0.34
  17  -1   0    0.90    0.41
  17  -1   0    0.54    0.34
  17  -1   0    1.13    0.48
  17  -1   0    0.58    0.57
  17  -1   0    0.93    0.33
  17  -1   0    0.66    0.41
 -17   1   0    0.49    0.35
 -17   1   0    0.73    0.31
 -17   1   0    0.60    0.22
  18   0   0  370.59   21.41
  18   0   0  364.55   21.47
  18   0   0  311.05   21.44
  18   0   0  367.31   21.46
  18   0   0  301.89   21.43
  18   0   0  359.80   21.46
  18   0   0  304.01   21.39
 -18   0   0  369.67   21.44
 -18   0   0  347.57   21.47
 -18   0   0  308.29   21.43
  19   1   0    0.74    0.49
  19   1   0    0.16    0.40
  19   1   0    0.25    0.42
  19   1   0    0.45    0.35
 -19  -1   0   -0.10    0.32
 -19  -1   0    0.24    0.28
 -19  -1   0    0.19    0.34
 -19  -1   0    0.36    0.30
  20   2   0  149.64    9.53
  20   2   0  152.19    9.57
 -20  -2   0  150.93    9.54
  21   3   0    1.36    0.32
  21   3   0    1.97    0.39
  21   3   0    1.96    0.29
 -21  -3   0    2.22    0.36
  22   4   0    2.98    0.37
  22   4   0    2.55    0.35
  22   4   0    3.24    0.35
 -22  -4   0    2.44    0.41
 -22  -4   0    3.37    0.37
  23   5   0   17.70    1.17
  23   5   0   16.15    1.11
 -23  -5   0   13.89    1.16
 -23  -5   0   16.47    1.11
  12  -6  -1   20.02    1.34
  12  -6  -1   20.78    1.39
  12  -6  -1   20.36    1.44
 -12   6   1   19.74    1.38
 -12   6   1   19.80    1.31
 -12   6   1   20.85    1.31
  13  -5  -1   35.95    2.30
  13  -5  -1   32.66    2.24
  13  -5  -1   35.94    2.38
 -13   5   1   35.46    2.23
 -13   5   1   34.69    2.22
 -13   5   1   34.29    2.29
  14  -4  -1    0.11    0.13
  14  -4  -1    0.32    0.11
  14  -4  -1    0.15    0.28
  14  -4  -1    0.43    0.30
  14  -4  -1    0.23    0.50
 -14   4   1    0.13    0.11
 -14   4   1    0.29    0.25
 -14   4   1    0.36    0.14
  15  -3  -1  216.81   14.45
  15  -3  -1  236.15   14.51
  15  -3  -1  233.66   14.51
  15  -3  -1  220.81   14.43
 -15   3   1  240.10   14.45
 -15   3   1  220.57   14.47
 -15   3   1  239.35   14.46
 -15   3   1  230.48   14.51
  16  -2  -1    4.13    0.62
  16  -2  -1    3.84    0.47
  16  -2  -1    3.93    0.42
  16  -2  -1    4.22    0.46
  16  -2  -1    3.06    0.50
  16  -2  -1    3.77    0.39
 -16   2   1    4.45    0.39
 -16   2   1    4.05    0.38
 -16   2   1    3.92    0.39
  17  -1  -1    3.40    0.46
  17  -1  -1    4.52    0.57
  17  -1  -1    6.85    0.86
  17  -1  -1    3.89    0.42
  17  -1  -1    4.93    0.61
 -17   1   1    4.14    0.45
 -17   1   1    4.21    0.48
 -17   1   1    5.19    0.56
 -17   1   1    5.05    0.52
  18   0  -1    0.05    0.26
  18   0  -1    0.44    0.52
  18   0  -1    0.55    0.44
  18   0  -1   -0.19    0.27
 -18   0   1    0.13    0.26
 -18   0   1    0.14    0.31
 -18   0   1    0.13    0.21
  19   1  -1  149.31    9.08
  19   1  -1  132.14    9.08
  19   1  -1  146.22    9.04
 -19  -1   1  143.08    9.02
  20   2  -1    4.80    0.56
  20   2  -1    6.31    0.55
  20   2  -1    3.33    0.44
  20   2  -1    5.05    0.63
 -20  -2   1    4.84    0.44
 -20  -2   1    3.78    0.52
 -20  -2   1    5.41    0.49
  21   3  -1   24.65    1.49
  21   3  -1   20.58    1.52
  21   3  -1   19.20    1.47
 -21  -3   1   19.78    1.42
 -21  -3   1   23.74    1.47
  22   4  -1    6.20    0.52
  22   4  -1    5.95    0.57
  22   4  -1    5.85    0.59
 -22  -4   1    4.64    0.53
 -22  -4   1    5.75    0.46
  23   5  -1   19.63    1.26
  23   5  -1   19.69    1.28
  23   5  -1   18.73    1.26
 -23  -5   1   15.87    1.28
  12  -6  -2    3.21    0.49
  12  -6  -2    3.20    0.47
  12  -6  -2    3.66    0.69
 -12   6   2    3.04    0.27
 -12   6   2    3.43    0.28
 -12   6   2    3.09    0.41
  13  -5  -2   23.80    1.71
 -13   5   2   24.94    1.61
 -13   5   2   25.15    1.70
 -13   5   2   25.43    1.60
  14  -4  -2   44.59    3.04
  14  -4  -2   45.96    2.99
 -14   4   2   46.72    3.02
 -14   4   2   45.09    2.92
 -14   4   2   46.68    2.92
  15  -3  -2    9.85    0.78
  15  -3  -2   11.14    1.03
  15  -3  -2   11.65    0.88
 -15   3   2   12.33    0.78
 -15   3   2   11.75    0.78
  16  -2  -2   31.65    2.12
  16  -2  -2   35.37    2.17
  16  -2  -2   31.20    2.15
  16  -2  -2   33.60    2.36
 -16   2   2   33.76    2.13
 -16   2   2   33.67    2.14
 -16   2   2   32.10    2.22
  17  -1  -2    4.47    0.51
  17  -1  -2    5.19    0.63
 -17   1   2    5.41    0.43
 -17   1   2    4.23    0.49
 -17   1   2    5.17    0.50
 -18   0   2   89.69    5.81
 -18   0   2   99.19    5.85
 -18   0   2   98.18    5.83
 -18   0   2   79.75    5.83
  19   1  -2    0.10    0.45
  19   1  -2   -0.12    0.26
  19   1  -2    0.15    0.36
  19   1  -2   -0.40    0.54
 -19  -1   2   -0.18    0.17
 -19  -1   2    0.19    0.21
 -19  -1   2    0.05    0.26
 -19  -1   2    0.05    0.19
  20   2  -2  152.48    8.36
  20   2  -2  123.85    8.35
 -20  -2   2  120.69    8.31
 -20  -2   2  127.83    8.30
  21   3  -2    0.57    0.34
  21   3  -2    0.55    0.32
  21   3  -2    1.18    0.28
 -21  -3   2    0.47    0.25
 -21  -3   2    0.65    0.21
  22   4  -2    1.55    0.30
  22   4  -2    1.33    0.32
  22   4  -2    1.29    0.29
 -22  -4   2    1.23    0.26
 -22  -4   2    1.07    0.24
  12  -6  -3   11.93    0.94
  12  -6  -3   10.35    0.98
  12  -6  -3   11.75    1.11
 -12   6   3    9.93    0.90
 -12   6   3   10.89    0.74
 -12   6   3   11.23    0.74
  13  -5  -3   23.23    1.67
  13  -5  -3   23.21    1.64
 -13   5   3   23.90    1.51
 -13   5   3   22.95    1.51
  14  -4  -3    0.52    0.45
  14  -4  -3    0.37    0.35
  14  -4  -3    0.01    0.08
  14  -4  -3    0.24    0.58
 -14   4   3    0.25    0.12
 -14   4   3    0.59    0.19
 -14   4   3    0.28    0.13
  15  -3  -3  132.04    8.41
  15  -3  -3  134.03    8.49
 -15   3   3  129.75    8.36
 -15   3   3  133.71    8.35
  16  -2  -3    1.47    0.72
  16  -2  -3    1.15    0.60
  16  -2  -3    0.58    0.26
 -16   2   3    0.86    0.21
 -16   2   3    0.95    0.17
 -16   2   3    1.02    0.21
  17  -1  -3    9.67    0.81
 -17   1   3    9.79    0.73
 -17   1   3    9.34    0.70
 -17   1   3    9.21    0.67
  18   0  -3    0.18    0.39
  18   0  -3   -0.22    0.60
 -18   0   3    0.03    0.16
 -18   0   3    0.23    0.21
 -18   0   3   -0.01    0.17
 -19  -1   3   70.26    4.45
 -19  -1   3   73.44    4.45
 -19  -1   3   65.55    4.45
  20   2  -3    2.84    0.77
  20   2  -3    4.15    0.82
  20   2  -3    2.93    0.39
 -20  -2   3    2.94    0.32
 -20  -2   3    2.43    0.33
 -20  -2   3    2.66    0.37
  21   3  -3   14.15    1.10
  21   3  -3   13.99    1.12
 -21  -3   3   14.55    1.02
 -21  -3   3   15.08    1.01
  22   4  -3    5.63    0.59
  22   4  -3    5.43    0.58
 -22  -4   3    5.67    0.47
 -22  -4   3    5.37    0.49
  13  -5  -4   14.45    1.07
  13  -5  -4   11.45    1.14
  13  -5  -4   14.89    1.64
 -13   5   4   13.05    0.89
 -13   5   4   13.53    0.91
  14  -4  -4   26.15    1.77
  14  -4  -4   25.54    1.83
  14  -4  -4   26.50    1.66
 -14   4   4   20.75    1.52
 -14   4   4   20.54    1.51
  15  -3  -4    8.04    0.92
  15  -3  -4    6.03    0.99
 -15   3   4    6.31    0.46
 -15   3   4    5.27    0.45
 -15   3   4    4.90    0.42
  16  -2  -4   23.00    1.70
 -16   2   4   18.97    1.28
 -16   2   4   17.89    1.26
  17  -1  -4    2.40    0.89
  17  -1  -4    1.45    0.37
  17  -1  -4    1.50    0.68
 -17   1   4    1.07    0.30
 -17   1   4    1.39    0.21
 -18   0   4   49.44    3.17
 -18   0   4   42.27    3.07
 -18   0   4   53.08    3.11
  19   1  -4    0.69    0.52
  19   1  -4    0.71    0.45
 -19  -1   4    0.16    0.15
 -19  -1   4    0.36    0.19
  20   2  -4   59.22    3.82
 -20  -2   4   58.97    3.69
 -20  -2   4   58.04    3.69
 -20  -2   4   54.85    3.69
  21   3  -4    1.07    0.35
  21   3  -4    1.44    0.25
  21   3  -4    0.99    0.38
  21   3  -4    0.86    0.23
 -21  -3   4    0.80    0.21
 -21  -3   4    0.58    0.18
 -21  -3   4    0.84    0.17
  14  -4  -5    0.06    0.52
 -14   4   5    0.05    0.14
 -14   4   5    0.80    0.15
 -14   4   5    0.41    0.14
  15  -3  -5   54.86    3.64
  15  -3  -5   65.60    3.89
 -15   3   5   54.77    3.63
 -15   3   5   56.22    3.61
 -15   3   5   53.81    3.60
  16  -2  -5    0.04    0.25
  16  -2  -5    0.46    0.63
  16  -2  -5   -0.07    0.57
 -16   2   5    0.15    0.12
 -16   2   5    0.09    0.18
  17  -1  -5    9.40    0.85
 -17   1   5   10.29    0.70
 -17   1   5   10.22    0.71
  18   0  -5    0.28    0.39
  18   0  -5   -0.10    0.51
 -18   0   5    0.08    0.13
 -18   0   5    0.05    0.13
  19   1  -5   34.44    2.31
 -19  -1   5   32.49    2.12
 -19  -1   5   32.64    2.13
 -19  -1   5   32.52    2.13
  20   2  -5    0.97    0.43
  20   2  -5    0.68    0.39
  20   2  -5    2.09    0.42
 -20  -2   5    0.92    0.19
 -20  -2   5    0.89    0.18
  16  -2  -6   12.44    1.01
  16  -2  -6   16.23    1.53
 -16   2   6   12.98    0.90
 -16   2   6   13.96    0.91
 -16   2   6   13.24    0.95
  17  -1  -6    0.26    0.66
  17  -1  -6    0.21    0.35
  17  -1  -6    0.90    0.59
 -17   1   6    0.46    0.14
  18   0  -6   14.95    1.23
 -18   0   6   12.16    0.90
 -18   0   6   11.77    0.85
  16  -4   5    0.72    0.25
  16  -4   5    0.24    0.16
  16  -4   5    0.64    0.41
 -16   4  -5    0.73    0.13
 -16   4  -5    0.01    0.31
 -16   4  -5    0.56    0.28
  17  -3   5    7.66    0.83
  17  -3   5    7.50    0.64
  17  -3   5    7.50    0.59
  17  -3   5    8.02    0.54
 -17   3  -5    9.14    0.82
 -17   3  -5    7.71    0.53
 -17   3  -5    7.80    0.67
  18  -2   5    3.14    0.45
  18  -2   5    3.56    0.31
  18  -2   5    3.08    0.35
 -18   2  -5    3.34    0.39
 -18   2  -5    3.02    0.25
  19  -1   5   32.46    2.07
  19  -1   5   30.50    2.15
  19  -1   5   33.02    2.09
 -19   1  -5   32.30    2.12
  20   0   5    0.17    0.18
  20   0   5   -0.02    0.30
  20   0   5    0.27    0.17
 -20   0  -5    0.23    0.19
 -20   0  -5    0.20    0.36
 -20   0  -5   -0.16    0.26
  21   1   5   12.27    1.03
  21   1   5   12.55    0.87
  21   1   5   11.51    0.81
  21   1   5   12.92    0.88
 -21  -1  -5   11.99    0.98
 -21  -1  -5   12.63    0.86
  22   2   5    1.45    0.35
  22   2   5    1.25    0.26
  22   2   5    1.82    0.20
 -22  -2  -5    2.29    0.44
 -22  -2  -5    2.34    0.25
 -22  -2  -5    1.77    0.55
  15  -5   4    6.19    0.55
  15  -5   4    6.12    0.47
  15  -5   4    5.62    0.68
 -15   5  -4    7.02    0.69
 -15   5  -4    6.27    0.46
  16  -4   4   10.25    0.73
  16  -4   4    8.63    0.87
  16  -4   4    9.23    0.66
 -16   4  -4    9.51    0.80
 -16   4  -4    8.19    0.82
 -16   4  -4    9.91    0.72
  17  -3   4    5.03    0.39
  17  -3   4    5.19    0.49
  17  -3   4    4.91    0.43
  17  -3   4    5.68    0.70
 -17   3  -4    5.95    0.66
 -17   3  -4    5.47    0.53
 -17   3  -4    4.93    0.38
  18  -2   4   33.37    2.29
  18  -2   4   36.30    2.24
  18  -2   4   34.55    2.21
 -18   2  -4   34.64    2.30
 -18   2  -4   33.46    2.19
  19  -1   4    0.33    0.30
  19  -1   4    0.27    0.17
  19  -1   4    0.25    0.19
 -19   1  -4    0.45    0.28
 -19   1  -4    0.50    0.40
 -19   1  -4    0.14    0.20
  20   0   4   72.20    5.24
  20   0   4   79.58    5.10
  20   0   4   84.00    5.18
  20   0   4   85.69    5.17
 -20   0  -4   83.64    5.17
 -20   0  -4   81.36    5.25
  21   1   4    0.47    0.13
  21   1   4   -0.09    0.19
  21   1   4    0.36    0.20
 -21  -1  -4    0.13    0.32
 -21  -1  -4    0.30    0.17
 -21  -1  -4    0.79    0.37
  22   2   4    3.53    0.40
  22   2   4    3.73    0.40
  22   2   4    3.84    0.33
 -22  -2  -4    4.04    0.33
 -22  -2  -4    5.07    0.56
  23   3   4    4.31    0.46
  23   3   4    4.85    0.51
  23   3   4    5.34    0.41
 -23  -3  -4    5.67    0.61
  15  -5   3   44.83    2.91
  15  -5   3   46.25    2.95
  15  -5   3   46.20    3.04
 -15   5  -3   45.32    2.89
 -15   5  -3   45.96    2.92
 -15   5  -3   46.11    3.08
  16  -4   3    2.53    0.33
  16  -4   3    1.71    0.44
  16  -4   3    1.65    0.24
  16  -4   3    1.84    0.22
 -16   4  -3    1.47    0.20
 -16   4  -3    1.60    0.21
 -16   4  -3    1.78    0.41
 -16   4  -3    1.43    0.39
  17  -3   3    6.46    0.76
  17  -3   3    7.36    0.68
  17  -3   3    6.41    0.52
  17  -3   3    6.39    0.51
  17  -3   3    8.28    0.55
 -17   3  -3    7.06    0.81
 -17   3  -3    6.85    0.65
 -17   3  -3    6.92    0.50
  18  -2   3    7.08    0.54
  18  -2   3    8.51    0.62
  18  -2   3    9.89    0.63
  18  -2   3    7.61    0.70
  18  -2   3    7.88    0.59
 -18   2  -3    8.42    0.67
 -18   2  -3    7.79    0.57
  19  -1   3   69.52    4.41
  19  -1   3   65.78    4.42
  19  -1   3   71.51    4.42
  19  -1   3   71.41    4.44
  19  -1   3   73.48    4.47
  19  -1   3   66.05    4.54
 -19   1  -3   69.75    4.54
 -19   1  -3   71.15    4.47
  20   0   3    0.17    0.21
  20   0   3    0.20    0.22
  20   0   3    0.40    0.19
 -20   0  -3    0.16    0.18
 -20   0  -3    0.38    0.35
 -20   0  -3   -0.07    0.29
  21   1   3   26.07    1.65
 -21  -1  -3   24.61    1.64
  22   2   3    2.43    0.35
  22   2   3    2.45    0.31
  22   2   3    2.42    0.33
 -22  -2  -3    2.53    0.23
 -22  -2  -3    2.50    0.44
  23   3   3   27.95    1.86
  23   3   3   28.49    1.81
  23   3   3   27.10    1.84
 -23  -3  -3   27.48    1.92
  24   4   3    0.69    0.18
  24   4   3    0.06    0.21
  24   4   3   -0.03    0.21
 -24  -4  -3    0.58    0.28
  14  -6   2   10.89    0.81
 -14   6  -2   13.59    1.21
 -14   6  -2   10.99    0.79
  15  -5   2    9.48    0.70
  15  -5   2    9.36    0.83
  15  -5   2    9.94    0.94
  15  -5   2    9.09    0.65
 -15   5  -2   10.58    0.87
 -15   5  -2    9.76    0.65
 -15   5  -2   10.13    0.69
  16  -4   2    5.86    0.47
  16  -4   2    6.11    0.45
  16  -4   2    6.27    0.48
  16  -4   2    7.68    0.54
  16  -4   2    6.65    0.68
  16  -4   2    6.57    0.82
 -16   4  -2    6.99    0.49
 -16   4  -2    6.26    0.46
  17  -3   2    8.78    0.88
  17  -3   2    9.86    0.70
  17  -3   2   10.00    0.74
  17  -3   2    9.21    0.70
  17  -3   2   10.05    0.70
 -17   3  -2   10.07    0.68
 -17   3  -2    9.32    0.84
 -17   3  -2    9.41    0.83
 -17   3  -2   10.01    0.68
  18  -2   2  105.04    6.48
  18  -2   2   90.00    6.46
  18  -2   2  104.83    6.52
  18  -2   2  108.09    6.45
  18  -2   2  104.13    6.47
 -18   2  -2   99.71    6.52
 -18   2  -2  101.12    6.45
 -18   2  -2  103.47    6.52
  19  -1   2    0.21    0.21
  19  -1   2    0.20    0.27
  19  -1   2   -0.01    0.26
  19  -1   2   -0.33    0.39
  19  -1   2    0.18    0.33
  19  -1   2   -0.10    0.28
 -19   1  -2    0.13    0.39
 -19   1  -2    0.17    0.24
 -19   1  -2   -0.45    0.29
  20   0   2  174.78   10.47
  20   0   2  165.91   10.49
  20   0   2  159.62   10.47
 -20   0  -2  165.54   10.43
 -20   0  -2  161.56   10.48
  21   1   2    1.33    0.36
  21   1   2    0.96    0.28
  21   1   2    0.99    0.31
  21   1   2    1.07    0.29
 -21  -1  -2    1.49    0.41
 -21  -1  -2    0.80    0.16
 -21  -1  -2    0.64    0.23
 -21  -1  -2    1.44    0.36
  22   2   2    6.61    0.56
  22   2   2    6.86    0.59
  22   2   2    6.30    0.60
 -22  -2  -2    5.35    0.54
 -22  -2  -2    6.26    0.65
  23   3   2   13.92    1.01
  23   3   2   12.72    0.95
  23   3   2   13.60    0.97
 -23  -3  -2   14.10    0.96
 -23  -3  -2   13.19    1.05
  24   4   2   35.16    2.42
  24   4   2   40.98    2.47
  24   4   2   34.72    2.43
 -24  -4  -2   40.03    2.43
 -24  -4  -2   35.79    2.47
  14  -6   1    0.14    0.46
  14  -6   1    0.04    0.29
  14  -6   1   -0.06    0.16
 -14   6  -1    0.26    0.16
 -14   6  -1    0.21    0.09
  15  -5   1   81.86    4.80
  15  -5   1   69.20    4.60
  15  -5   1   75.06    4.68
  15  -5   1   67.81    4.57
 -15   5  -1   71.43    4.62
 -15   5  -1   70.86    4.58
  16  -4   1    3.34    0.37
  16  -4   1    2.94    0.32
  16  -4   1    3.57    0.59
  16  -4   1    3.26    0.50
  16  -4   1    2.97    0.33
 -16   4  -1    3.26    0.27
 -16   4  -1    2.89    0.33
 -16   4  -1    3.49    0.51
  17  -3   1    2.15    0.34
  17  -3   1    3.27    0.56
  17  -3   1    2.75    0.35
  17  -3   1    2.21    0.43
  17  -3   1    2.56    0.37
  17  -3   1    2.16    0.30
  17  -3   1    2.18    0.32
 -17   3  -1    1.55    0.23
 -17   3  -1    2.20    0.29
 -17   3  -1    2.99    0.47
  18  -2   1   12.18    0.85
  18  -2   1    9.90    0.88
  18  -2   1    9.77    0.88
  18  -2   1    8.56    1.02
  18  -2   1   10.82    0.94
  18  -2   1   11.38    0.93
  18  -2   1    9.23    0.85
 -18   2  -1   11.29    0.87
 -18   2  -1   10.49    0.81
 -18   2  -1   10.40    0.85
 -18   2  -1   11.87    0.90
  19  -1   1   94.58    6.15
  19  -1   1   90.06    6.12
  19  -1   1  110.97    6.15
  19  -1   1   86.56    6.11
 -19   1  -1  110.94    6.14
 -19   1  -1   88.07    6.13
 -19   1  -1   92.12    6.18
  20   0   1   -0.17    0.31
  20   0   1    0.09    0.38
  20   0   1    0.73    0.39
  20   0   1    0.30    0.31
  20   0   1   -0.04    0.32
  20   0   1    0.19    0.31
  20   0   1    0.56    0.28
 -20   0  -1   -0.33    0.22
 -20   0  -1   -0.28    0.37
 -20   0  -1    0.00    0.55
 -20   0  -1    0.37    0.22
  21   1   1   48.94    3.27
  21   1   1   47.65    3.26
  21   1   1   45.57    3.26
  21   1   1   48.65    3.21
 -21  -1  -1   59.66    3.28
  22   2   1    2.84    0.42
  22   2   1    3.18    0.43
  22   2   1    2.87    0.33
  22   2   1    4.10    0.48
 -22  -2  -1    3.58    0.40
 -22  -2  -1    3.63    0.50
 -22  -2  -1    2.71    0.42
 -22  -2  -1    4.13    0.40
  23   3   1   52.47    3.46
  23   3   1   53.70    3.52
  23   3   1   54.51    3.51
 -23  -3  -1   51.61    3.52
 -23  -3  -1   60.39    3.57
  24   4   1    0.29    0.15
  24   4   1    0.26    0.25
  24   4   1    0.10    0.22
  24   4   1   -0.13    0.22
 -24  -4  -1    0.20    0.22
 -24  -4  -1    0.21    0.17
 -24  -4  -1    0.47    0.24
  14  -6   0   17.83    1.30
  14  -6   0   16.83    1.19
 -14   6   0   18.23    1.17
 -14   6   0   17.71    1.22
 -14   6   0   19.21    1.20
  15  -5   0   13.34    1.00
  15  -5   0   12.69    0.89
  15  -5   0   15.66    1.17
 -15   5   0   13.40    0.94
 -15   5   0   13.04    0.90
 -15   5   0   12.33    0.89
  16  -4   0   12.78    1.02
  16  -4   0   11.87    0.84
  16  -4   0   11.70    0.88
  16  -4   0   10.85    0.75
  16  -4   0    9.99    0.75
 -16   4   0   11.13    0.74
 -16   4   0   11.07    0.81
 -16   4   0    9.96    0.77
  17  -3   0   20.76    1.46
  17  -3   0   21.44    1.45
  17  -3   0   18.33    1.41
  17  -3   0   23.70    1.57
 -17   3   0   19.57    1.40
 -17   3   0   21.16    1.42
 -17   3   0   20.60    1.39
 -17   3   0   21.82    1.37
  18  -2   0   97.36    6.55
  18  -2   0   98.57    6.57
  18  -2   0  102.79    6.56
  18  -2   0  114.74    6.55
  18  -2   0   98.79    6.53
 -18   2   0  113.98    6.54
 -18   2   0   99.12    6.53
 -18   2   0  108.98    6.57
 -18   2   0   93.18    6.55
  19  -1   0    0.36    0.32
  19  -1   0   -0.01    0.39
  19  -1   0    0.13    0.35
  19  -1   0    0.30    0.34
  19  -1   0    0.91    0.47
  19  -1   0    0.03    0.31
  19  -1   0    0.23    0.32
 -19   1   0    0.35    0.21
 -19   1   0   -0.10    0.27
 -19   1   0    0.16    0.28
  20   0   0  463.02   25.70
  20   0   0  365.43   25.72
  20   0   0  378.49   25.73
  20   0   0  433.90   25.74
  20   0   0  350.15   25.67
  20   0   0  433.25   25.73
 -20   0   0  373.99   25.72
 -20   0   0  453.89   25.79
 -20   0   0  410.91   25.77
 -20   0   0  425.84   25.71
  21   1   0    0.67    0.41
  21   1   0    1.09    0.47
  21   1   0    0.40    0.34
  21   1   0   -0.06    0.38
 -21  -1   0    0.27    0.31
 -21  -1   0    0.54    0.28
 -21  -1   0    0.75    0.27
  22   2   0    1.68    0.50
  22   2   0    1.31    0.37
 -22  -2   0    1.62    0.31
 -22  -2   0    2.13    0.32
 -22  -2   0    1.40    0.33
  23   3   0   11.38    0.84
  23   3   0   11.93    0.91
  23   3   0   12.18    0.91
 -23  -3   0   11.37    0.85
  24   4   0   45.72    3.01
  24   4   0   47.47    3.05
  24   4   0   47.88    3.04
 -24  -4   0   46.73    3.03
  14  -6  -1    0.13    0.33
  14  -6  -1    0.14    0.17
  14  -6  -1    0.38    0.23
  14  -6  -1    0.07    0.51
 -14   6   1   -0.06    0.20
 -14   6   1    0.20    0.10
 -14   6   1    0.37    0.12
  15  -5  -1   74.09    4.71
  15  -5  -1   73.22    4.64
 -15   5   1   70.32    4.64
 -15   5   1   73.45    4.59
 -15   5   1   70.94    4.58
  16  -4  -1    3.14    0.45
  16  -4  -1    4.58    0.66
  16  -4  -1    3.19    0.35
  16  -4  -1    3.06    0.46
  16  -4  -1    3.45    0.32
  16  -4  -1    2.87    0.28
 -16   4   1    3.00    0.41
 -16   4   1    3.18    0.29
 -16   4   1    3.40    0.30
  17  -3  -1    2.31    0.36
  17  -3  -1    2.44    0.46
  17  -3  -1    1.87    0.24
  17  -3  -1    1.84    0.29
 -17   3   1    2.63    0.33
 -17   3   1    1.90    0.23
 -17   3   1    2.10    0.27
 -17   3   1    2.08    0.36
  18  -2  -1    9.65    0.75
  18  -2  -1    9.22    1.00
  18  -2  -1    9.83    0.81
  18  -2  -1   10.35    0.78
  18  -2  -1   11.85    0.85
  18  -2  -1    9.90    0.79
 -18   2   1   11.00    0.75
 -18   2   1    9.40    0.75
 -18   2   1   10.86    0.75
  19  -1  -1  143.18   10.08
  19  -1  -1  161.76   10.07
 -19   1   1  172.14   10.03
 -19   1   1  155.46   10.02
  20   0  -1   -0.02    0.41
  20   0  -1    0.03    0.25
  20   0  -1    0.13    0.50
  20   0  -1   -0.40    0.27
  20   0  -1   -0.04    0.56
 -20   0   1    0.02    0.29
 -20   0   1    0.03    0.19
 -20   0   1    0.34    0.26
  21   1  -1   65.30    4.01
  21   1  -1   63.57    3.97
  21   1  -1   64.37    4.02
 -21  -1   1   63.72    3.94
 -21  -1   1   51.41    3.95
  22   2  -1    2.79    0.45
  22   2  -1    3.41    0.47
  22   2  -1    3.73    0.45
 -22  -2   1    2.25    0.39
 -22  -2   1    3.14    0.39
 -22  -2   1    2.81    0.34
  23   3  -1   51.34    3.21
  23   3  -1   50.68    3.18
 -23  -3   1   43.01    3.19
 -23  -3   1   51.33    3.14
  24   4  -1    0.48    0.29
  24   4  -1    0.31    0.26
  24   4  -1   -0.35    0.22
 -24  -4   1    0.78    0.18
 -24  -4   1    0.36    0.19
 -24  -4   1    0.17    0.21
  14  -6  -2   11.96    0.98
 -14   6   2   11.72    0.81
 -14   6   2   12.39    0.81
  15  -5  -2   10.81    0.92
  15  -5  -2   10.39    0.85
 -15   5   2    9.37    0.69
 -15   5   2   10.20    0.81
 -15   5   2   10.40    0.69
  16  -4  -2    6.51    0.69
  16  -4  -2    6.51    0.63
  16  -4  -2    5.75    0.45
 -16   4   2    6.82    0.48
 -16   4   2    6.31    0.51
 -16   4   2    6.86    0.48
  17  -3  -2    9.17    0.96
 -17   3   2   10.50    0.72
 -17   3   2   10.56    0.72
  18  -2  -2  124.20    6.97
  18  -2  -2  106.26    6.80
  18  -2  -2  110.41    6.84
  18  -2  -2   98.63    6.81
 -18   2   2  105.53    6.86
 -18   2   2  106.63    6.83
 -18   2   2  104.97    6.84
  19  -1  -2    0.66    0.28
  19  -1  -2    0.11    0.59
  19  -1  -2    0.49    0.36
  19  -1  -2    0.03    0.69
 -19   1   2    0.19    0.17
 -19   1   2   -0.07    0.24
 -19   1   2    0.09    0.23
 -20   0   2  162.06   10.21
 -20   0   2  162.30   10.20
 -20   0   2  160.47   10.23
  21   1  -2    1.08    0.50
  21   1  -2    0.35    0.16
  21   1  -2    1.46    0.29
  21   1  -2    0.96    0.27
  21   1  -2    1.14    0.41
 -21  -1   2    0.88    0.20
 -21  -1   2    0.69    0.22
 -21  -1   2    0.50    0.26
 -21  -1   2    0.80    0.18
  22   2  -2    7.76    0.82
  22   2  -2    6.61    0.72
 -22  -2   2    5.81    0.55
 -22  -2   2    5.87    0.57
  23   3  -2   13.36    0.99
  23   3  -2   12.65    0.96
 -23  -3   2   11.56    0.87
 -23  -3   2   11.21    0.89
  24   4  -2   32.16    2.15
  24   4  -2   32.38    2.14
 -24  -4   2   29.14    2.13
 -24  -4   2   35.16    2.12
  15  -5  -3   49.08    3.18
  15  -5  -3   49.39    3.22
 -15   5   3   48.60    3.08
 -15   5   3   46.91    3.09
  16  -4  -3    2.29    0.40
  16  -4  -3    1.39    0.48
  16  -4  -3    2.82    0.67
 -16   4   3    1.75    0.23
 -16   4   3    1.91    0.22
  17  -3  -3    7.57    0.88
  17  -3  -3    7.44    0.67
 -17   3   3    7.58    0.55
 -17   3   3    6.68    0.57
 -17   3   3    6.95    0.54
  18  -2  -3    8.43    0.71
 -18   2   3    9.01    0.66
 -18   2   3    8.81    0.62
 -18   2   3    8.50    0.66
  19  -1  -3   72.33    4.69
 -19   1   3   74.55    4.66
 -19   1   3   72.16    4.64
  20   0  -3    0.18    0.36
  20   0  -3    0.06    0.47
  20   0  -3    0.09    0.52
 -20   0   3   -0.06    0.17
 -20   0   3    0.07    0.15
 -20   0   3    0.38    0.20
 -21  -1   3   21.50    1.59
 -21  -1   3   24.82    1.59
 -21  -1   3   25.50    1.63
  22   2  -3    3.90    0.51
  22   2  -3    2.67    0.39
  22   2  -3    2.43    0.51
 -22  -2   3    3.08    0.30
 -22  -2   3    2.33    0.32
 -22  -2   3    2.22    0.36
  23   3  -3   25.59    1.73
  23   3  -3   25.54    1.71
 -23  -3   3   23.61    1.65
 -23  -3   3   24.42    1.64
  24   4  -3    0.91    0.52
  24   4  -3    0.18    0.23
  24   4  -3    0.17    0.28
 -24  -4   3    0.41    0.26
 -24  -4   3    0.34    0.27
  15  -5  -4    9.30    0.76
  15  -5  -4    9.04    0.98
  15  -5  -4    7.89    0.98
 -15   5   4    7.09    0.55
 -15   5   4    7.07    0.54
  16  -4  -4   13.78    1.18
  16  -4  -4   11.85    1.04
 -16   4   4   10.16    0.75
 -16   4   4   11.18    0.77
 -16   4   4   10.19    0.74
  17  -3  -4    8.50    0.89
  17  -3  -4    8.63    1.01
  17  -3  -4    5.79    0.53
 -17   3   4    6.12    0.48
 -17   3   4    5.46    0.44
 -17   3   4    5.43    0.47
  18  -2  -4   37.59    2.38
 -18   2   4   35.56    2.33
 -18   2   4   34.72    2.36
 -18   2   4   37.29    2.35
  19  -1  -4   -0.06    0.30
  19  -1  -4    0.47    0.56
  19  -1  -4   -0.01    0.58
 -19   1   4    0.07    0.14
 -19   1   4    0.11    0.16
  20   0  -4  143.84    9.23
  20   0  -4  137.32    9.16
  20   0  -4  152.02    9.26
  21   1  -4    0.36    0.48
  21   1  -4    0.68    0.37
  21   1  -4    0.71    0.40
 -21  -1   4    0.06    0.15
 -21  -1   4    0.13    0.16
 -21  -1   4    0.48    0.19
  22   2  -4    3.73    0.41
  22   2  -4    5.51    0.63
  22   2  -4    4.39    0.60
 -22  -2   4    3.87    0.36
 -22  -2   4    3.74    0.37
  23   3  -4    5.86    0.70
  23   3  -4    4.76    0.63
  23   3  -4    6.08    0.51
 -23  -3   4    6.65    0.46
 -23  -3   4    4.89    0.49
  16  -4  -5    0.26    0.54
  16  -4  -5    1.03    0.63
  16  -4  -5    0.89    0.22
 -16   4   5    0.64    0.13
 -16   4   5    0.54    0.16
  17  -3  -5    8.98    0.69
 -17   3   5    8.16    0.63
 -17   3   5    8.28    0.59
 -17   3   5    8.59    0.65
  18  -2  -5    6.33    0.86
  18  -2  -5    3.35    0.42
  18  -2  -5    5.61    0.88
 -18   2   5    3.14    0.38
 -18   2   5    4.10    0.35
 -18   2   5    3.32    0.32
  19  -1  -5   37.16    2.33
 -19   1   5   34.08    2.25
 -19   1   5   33.68    2.24
  20   0  -5    0.57    0.49
  20   0  -5   -0.23    0.37
  20   0  -5   -0.03    0.49
 -20   0   5    0.09    0.14
 -20   0   5    0.16    0.14
 -21  -1   5   12.74    0.89
 -21  -1   5   12.52    0.89
 -21  -1   5   13.62    0.90
  22   2  -5    0.91    0.43
  22   2  -5    1.92    0.43
 -22  -2   5    1.36    0.21
 -22  -2   5    1.23    0.21
  19  -3   5   21.47    1.45
  19  -3   5   21.59    1.49
  19  -3   5   27.01    1.69
  19  -3   5   22.34    1.55
 -19   3  -5   21.63    1.45
 -19   3  -5   22.66    1.55
  20  -2   5    1.43    0.33
  20  -2   5    1.11    0.23
  20  -2   5    1.15    0.22
 -20   2  -5    2.42    0.46
 -20   2  -5    1.17    0.27
  21  -1   5   10.61    0.94
  21  -1   5   12.26    0.83
  21  -1   5   12.26    0.87
 -21   1  -5   12.64    0.87
  22   0   5   -0.04    0.19
  22   0   5   -0.25    0.31
  22   0   5   -0.02    0.17
 -22   0  -5   -0.32    0.28
 -22   0  -5    0.24    0.18
 -22   0  -5    0.20    0.34
  23   1   5   14.64    1.06
  23   1   5   14.71    1.02
 -23  -1  -5   13.01    0.98
 -23  -1  -5   14.64    1.41
  18  -4   4   19.02    1.51
  18  -4   4   22.29    1.40
  18  -4   4   19.82    1.33
 -18   4  -4   17.86    1.47
 -18   4  -4   19.81    1.31
 -18   4  -4   22.09    1.45
  19  -3   4    0.23    0.13
  19  -3   4    0.67    0.40
  19  -3   4    0.37    0.25
  19  -3   4    0.24    0.17
 -19   3  -4    0.33    0.34
 -19   3  -4    0.23    0.12
 -19   3  -4    0.35    0.25
  20  -2   4   55.48    3.71
  20  -2   4   56.81    3.63
  20  -2   4   58.70    3.66
 -20   2  -4   57.51    3.69
 -20   2  -4   56.87    3.61
  21  -1   4    0.10    0.20
  21  -1   4    0.11    0.30
  21  -1   4    0.22    0.20
 -21   1  -4   -0.11    0.28
 -21   1  -4    0.76    0.37
 -21   1  -4    0.28    0.19
  22   0   4    8.45    0.65
  22   0   4    8.27    0.62
  22   0   4    6.33    0.78
  22   0   4    8.47    0.55
 -22   0  -4    8.30    0.60
 -22   0  -4    6.95    0.74
  23   1   4    0.72    0.23
  23   1   4    1.00    0.24
  23   1   4    0.97    0.16
 -23  -1  -4    1.65    0.37
 -23  -1  -4    1.38    0.37
 -23  -1  -4    1.28    0.19
  24   2   4   35.95    2.35
  24   2   4   35.89    2.30
  24   2   4   36.96    2.34
 -24  -2  -4   34.87    2.29
  17  -5   3    3.22    0.30
  17  -5   3    3.31    0.52
  17  -5   3    4.06    0.31
  17  -5   3    4.56    0.61
  17  -5   3    2.78    0.39
 -17   5  -3    3.34    0.31
 -17   5  -3    3.49    0.29
 -17   5  -3    3.96    0.56
  18  -4   3   11.64    0.77
  18  -4   3   12.77    0.87
  18  -4   3   11.96    0.81
  18  -4   3   10.98    0.80
  18  -4   3   11.16    0.99
 -18   4  -3   11.70    0.94
 -18   4  -3   10.95    0.96
 -18   4  -3   12.03    0.80
  19  -3   3   42.68    2.73
  19  -3   3   45.13    2.78
  19  -3   3   43.37    2.71
  19  -3   3   38.36    2.68
 -19   3  -3   42.83    2.71
  20  -2   3    2.30    0.39
  20  -2   3    3.18    0.37
  20  -2   3    2.23    0.23
  20  -2   3    2.47    0.34
  20  -2   3    2.59    0.32
  20  -2   3    2.72    0.29
 -20   2  -3    4.23    0.86
 -20   2  -3    2.24    0.41
 -20   2  -3    2.37    0.37
 -20   2  -3    2.30    0.27
  21  -1   3   22.77    1.83
  21  -1   3   24.74    1.63
  21  -1   3   24.40    1.61
 -21   1  -3   24.25    1.63
 -21   1  -3   26.83    1.87
  22   0   3    0.26    0.21
  22   0   3   -0.04    0.22
  22   0   3    0.07    0.23
 -22   0  -3    0.05    0.30
 -22   0  -3   -0.04    0.15
 -22   0  -3    0.17    0.32
  23   1   3   48.26    3.04
  23   1   3   48.39    3.06
  23   1   3   47.12    3.00
 -23  -1  -3   44.09    2.98
  24   2   3    0.39    0.19
  24   2   3    0.00    0.23
  24   2   3    0.20    0.23
 -24  -2  -3    0.26    0.27
 -24  -2  -3    0.95    0.33
  25   3   3   31.39    2.07
  25   3   3   32.57    2.12
  25   3   3   32.22    2.10
 -25  -3  -3   31.08    2.15
  16  -6   2    1.77    0.41
  16  -6   2    1.65    0.28
  16  -6   2    2.94    0.58
 -16   6  -2    2.41    0.40
 -16   6  -2    2.70    0.22
 -16   6  -2    2.99    0.48
  17  -5   2   13.75    1.07
  17  -5   2   14.07    1.16
  17  -5   2   12.99    0.90
  17  -5   2   12.91    0.95
 -17   5  -2   13.37    0.93
 -17   5  -2   15.75    1.10
 -17   5  -2   13.56    0.90
  18  -4   2   41.50    2.63
  18  -4   2   40.29    2.46
  18  -4   2   35.89    2.46
  18  -4   2   36.40    2.58
  18  -4   2   36.94    2.46
 -18   4  -2   38.14    2.45
 -18   4  -2   40.56    2.60
 -18   4  -2   38.64    2.47
  19  -3   2    0.23    0.18
  19  -3   2   -0.18    0.35
  19  -3   2    0.35    0.22
  19  -3   2    0.35    0.21
  19  -3   2    0.31    0.24
 -19   3  -2    0.28    0.30
 -19   3  -2    0.20    0.31
 -19   3  -2    0.24    0.16
  20  -2   2  124.76    8.06
  20  -2   2  129.12    8.08
  20  -2   2  127.02    8.12
  20  -2   2  130.11    8.07
 -20   2  -2  122.49    8.12
 -20   2  -2  130.98    8.11
  21  -1   2    1.31    0.33
  21  -1   2    0.65    0.27
  21  -1   2    0.84    0.29
  21  -1   2    0.69    0.28
  21  -1   2    1.01    0.18
  21  -1   2    0.09    0.39
 -21   1  -2    0.78    0.30
 -21   1  -2    0.36    0.33
 -21   1  -2    1.78    0.39
  22   0   2    3.23    0.39
  22   0   2    2.77    0.41
  22   0   2    2.69    0.38
 -22   0  -2    4.15    0.57
 -22   0  -2    2.52    0.31
 -22   0  -2    2.02    0.34
  23   1   2    1.46    0.31
 -23  -1  -2    2.07    0.37
  24   2   2   83.61    5.12
  24   2   2   74.70    5.07
  24   2   2   77.63    5.09
 -24  -2  -2   74.62    5.11
 -24  -2  -2   87.90    5.10
  25   3   2    4.00    0.49
  25   3   2    3.68    0.45
  25   3   2    3.39    0.42
 -25  -3  -2    4.37    0.49
 -25  -3  -2    4.34    0.41
  26   4   2   16.75    1.08
  26   4   2   12.98    1.03
  26   4   2   13.05    1.08
 -26  -4  -2   16.83    1.03
 -26  -4  -2   12.99    1.05
  16  -6   1    1.44    0.25
  16  -6   1    1.66    0.39
 -16   6  -1    1.84    0.19
 -16   6  -1    1.78    0.24
  17  -5   1    2.78    0.54
  17  -5   1    1.79    0.28
  17  -5   1    2.02    0.23
  17  -5   1    2.05    0.25
  17  -5   1    1.93    0.41
 -17   5  -1    2.37    0.29
 -17   5  -1    2.46    0.42
 -17   5  -1    2.19    0.22
  18  -4   1   27.36    1.65
  18  -4   1   23.34    1.65
  18  -4   1   23.04    1.62
  18  -4   1   24.33    1.73
 -18   4  -1   29.41    1.85
 -18   4  -1   24.79    1.62
 -18   4  -1   24.22    1.65
  19  -3   1   85.41    4.97
  19  -3   1   75.21    4.84
  19  -3   1   74.20    4.86
  19  -3   1   70.68    4.86
  19  -3   1   73.41    4.92
  19  -3   1   77.04    4.88
 -19   3  -1   72.56    4.86
 -19   3  -1   86.61    4.95
 -19   3  -1   72.61    4.84
  20  -2   1    6.09    0.62
  20  -2   1    5.93    0.63
  20  -2   1    5.63    0.53
  20  -2   1    4.54    0.54
  20  -2   1    4.30    0.58
  20  -2   1    4.12    0.53
  20  -2   1    4.37    0.54
 -20   2  -1    4.27    0.52
 -20   2  -1    4.58    0.49
 -20   2  -1    5.81    0.53
 -20   2  -1    4.29    0.46
 -20   2  -1    6.03    0.57
  21  -1   1   48.99    3.15
  21  -1   1   43.77    3.13
 -21   1  -1   46.57    3.14
 -21   1  -1   49.53    3.12
 -21   1  -1   52.86    3.21
  22   0   1    0.25    0.23
  22   0   1   -0.23    0.32
  22   0   1    0.19    0.29
  22   0   1    0.03    0.33
  22   0   1    0.01    0.29
  22   0   1    0.64    0.25
  22   0   1    0.28    0.26
 -22   0  -1   -0.02    0.21
 -22   0  -1    0.13    0.31
 -22   0  -1    0.20    0.28
  23   1   1  100.20    6.95
  23   1   1  106.16    6.97
  23   1   1  100.22    6.96
  23   1   1  103.07    6.91
 -23  -1  -1  124.21    6.97
 -23  -1  -1  122.41    6.97
  24   2   1    0.39    0.18
  24   2   1    0.14    0.29
  24   2   1    0.09    0.28
  24   2   1    0.05    0.18
  24   2   1    0.33    0.27
 -24  -2  -1    0.20    0.19
 -24  -2  -1    0.37    0.28
 -24  -2  -1    0.33    0.20
 -24  -2  -1    0.24    0.25
  25   3   1   36.92    2.34
  25   3   1   36.99    2.41
  25   3   1   36.94    2.41
 -25  -3  -1   35.50    2.41
  26   4   1    1.19    0.28
  26   4   1    1.01    0.29
  26   4   1    0.72    0.28
 -26  -4  -1    1.54    0.24
 -26  -4  -1    1.18    0.26
  16  -6   0    3.03    0.36
  16  -6   0    2.18    0.41
  16  -6   0    1.36    0.24
  16  -6   0    3.11    0.61
 -16   6   0    2.12    0.21
 -16   6   0    1.84    0.27
 -16   6   0    1.86    0.23
  17  -5   0   15.96    1.09
  17  -5   0   15.36    1.19
  17  -5   0   19.01    1.31
  17  -5   0   15.10    1.08
  17  -5   0   16.54    1.15
 -17   5   0   15.73    1.13
 -17   5   0   17.42    1.09
 -17   5   0   16.09    1.07
  18  -4   0   67.87    4.31
  18  -4   0   67.01    4.27
  18  -4   0   63.61    4.25
  18  -4   0   67.81    4.32
  18  -4   0   65.15    4.25
 -18   4   0   66.03    4.29
 -18   4   0   68.02    4.25
 -18   4   0   70.59    4.26
  19  -3   0    0.00    0.20
  19  -3   0   -0.11    0.27
  19  -3   0   -0.27    0.36
  19  -3   0   -0.02    0.29
  19  -3   0   -0.02    0.21
  19  -3   0    0.30    0.20
  19  -3   0   -0.32    0.23
 -19   3   0    0.13    0.22
 -19   3   0   -0.05    0.15
 -19   3   0   -0.12    0.14
 -19   3   0   -0.26    0.19
  20  -2   0  151.99   10.48
  20  -2   0  176.08   10.48
  20  -2   0  149.94   10.48
  20  -2   0  156.48   10.49
  20  -2   0  155.84   10.45
  20  -2   0  193.18   10.47
 -20   2   0  193.73   10.46
 -20   2   0  146.86   10.45
  21  -1   0    0.22    0.33
  21  -1   0    0.98    0.38
  21  -1   0    0.91    0.46
  21  -1   0    0.49    0.31
  21  -1   0    0.45    0.30
  21  -1   0    0.77    0.40
 -21   1   0    0.52    0.27
 -21   1   0    0.44    0.20
 -21   1   0    0.36    0.33
 -21   1   0    0.35    0.26
  22   0   0   14.14    1.36
  22   0   0   12.13    1.06
  22   0   0   10.70    0.82
  22   0   0   10.13    0.90
  22   0   0   13.77    0.91
  22   0   0   10.33    0.94
 -22   0   0   11.44    0.88
 -22   0   0   13.10    0.95
 -22   0   0   11.10    0.84
 -22   0   0   11.15    0.86
  23   1   0    9.28    1.09
  23   1   0   10.30    0.85
  23   1   0    9.27    0.88
 -23  -1   0   11.06    0.87
 -23  -1   0   11.86    0.83
 -23  -1   0   11.36    0.80
  24   2   0   81.48    5.26
  24   2   0   93.06    5.45
 -24  -2   0   75.27    5.26
  25   3   0    6.39    0.56
  25   3   0    5.80    0.48
  25   3   0    5.32    0.58
 -25  -3   0    5.89    0.50
 -25  -3   0    4.34    0.53
  26   4   0   13.88    0.89
  26   4   0   11.81    0.93
  26   4   0   12.05    0.94
 -26  -4   0   12.40    0.90
  16  -6  -1    2.08    0.43
  16  -6  -1    1.75    0.24
 -16   6   1    2.08    0.23
 -16   6   1    1.98    0.21
  17  -5  -1    2.20    0.36
  17  -5  -1    1.87    0.25
  17  -5  -1    4.07    0.67
  17  -5  -1    2.17    0.40
 -17   5   1    1.75    0.31
 -17   5   1    2.65    0.25
 -17   5   1    2.25    0.23
  18  -4  -1   23.09    1.56
  18  -4  -1   20.78    1.55
  18  -4  -1   24.23    1.61
  18  -4  -1   22.50    1.51
  18  -4  -1   23.98    1.63
 -18   4   1   24.11    1.54
 -18   4   1   24.59    1.60
 -18   4   1   24.88    1.54
  19  -3  -1   74.21    4.87
  19  -3  -1   82.66    4.80
  19  -3  -1   72.43    4.77
  19  -3  -1   71.32    4.81
 -19   3   1   75.04    4.79
 -19   3   1   76.70    4.79
  20  -2  -1    4.38    0.50
  20  -2  -1    4.78    0.46
  20  -2  -1    4.62    0.51
  20  -2  -1    4.90    0.64
 -20   2   1    4.04    0.44
 -20   2   1    4.51    0.42
 -20   2   1    4.62    0.42
  21  -1  -1   45.24    2.91
  21  -1  -1   47.05    2.85
  21  -1  -1   41.95    2.88
 -21   1   1   43.43    2.87
  22   0  -1    0.27    0.47
  22   0  -1    0.19    0.25
  22   0  -1    0.29    0.41
  22   0  -1   -0.01    0.34
  22   0  -1    0.19    0.19
 -22   0   1    0.16    0.25
 -22   0   1    0.20    0.17
 -22   0   1    0.06    0.21
  23   1  -1  122.31    7.79
  23   1  -1  128.34    7.82
  23   1  -1  126.66    7.82
 -23  -1   1  123.51    7.78
 -23  -1   1  113.50    7.80
  24   2  -1    0.29    0.45
  24   2  -1    0.27    0.33
  24   2  -1    0.12    0.30
 -24  -2   1    0.41    0.25
 -24  -2   1    0.27    0.20
  25   3  -1   40.96    2.53
  25   3  -1   39.63    2.56
 -25  -3   1   35.61    2.52
  26   4  -1    1.04    0.28
  26   4  -1    1.17    0.26
 -26  -4   1    1.48    0.24
 -26  -4   1    0.57    0.26
  16  -6  -2    1.85    0.38
  16  -6  -2    4.12    0.68
  16  -6  -2    2.15    0.45
 -16   6   2    2.64    0.23
 -16   6   2    2.07    0.34
  17  -5  -2   14.01    1.06
  17  -5  -2   13.23    1.05
 -17   5   2   13.84    1.02
 -17   5   2   14.52    0.95
 -17   5   2   13.52    0.92
  18  -4  -2   39.06    2.64
  18  -4  -2   39.18    2.58
 -18   4   2   39.64    2.52
 -18   4   2   39.46    2.52
  19  -3  -2    0.51    0.38
  19  -3  -2    0.24    0.48
  19  -3  -2    0.60    0.53
  19  -3  -2    0.10    0.31
 -19   3   2    0.61    0.23
 -19   3   2    0.15    0.14
 -19   3   2    0.32    0.22
  20  -2  -2  126.76    8.23
  20  -2  -2  126.16    8.23
  20  -2  -2  136.82    8.27
 -20   2   2  129.63    8.26
 -20   2   2  133.34    8.25
  21  -1  -2    1.68    0.54
  21  -1  -2    1.85    0.43
  21  -1  -2    1.73    0.58
  21  -1  -2    0.60    0.34
 -21   1   2    1.86    0.29
  22   0  -2    1.72    0.30
  22   0  -2    4.41    0.53
 -22   0   2    2.18    0.30
 -22   0   2    2.41    0.32
 -22   0   2    2.59    0.30
  23   1  -2    1.91    0.30
  23   1  -2    1.77    0.48
 -23  -1   2    1.44    0.23
 -23  -1   2    1.18    0.27
  24   2  -2  103.98    6.75
  24   2  -2   98.19    6.76
  24   2  -2  107.98    6.72
 -24  -2   2  112.73    6.71
  25   3  -2    4.02    0.49
  25   3  -2    4.32    0.50
  25   3  -2    4.81    0.45
 -25  -3   2    2.90    0.42
 -25  -3   2    3.72    0.39
  26   4  -2   12.85    0.98
  26   4  -2   14.61    0.95
 -26  -4   2   10.63    0.97
  17  -5  -3    5.14    0.82
  17  -5  -3    2.99    0.54
  17  -5  -3    3.99    0.56
 -17   5   3    3.87    0.33
 -17   5   3    3.95    0.33
  18  -4  -3   12.86    1.12
  18  -4  -3   13.52    1.00
 -18   4   3   13.40    0.89
 -18   4   3   12.88    0.89
  19  -3  -3   56.15    3.29
  19  -3  -3   50.52    3.14
 -19   3   3   46.20    3.11
 -19   3   3   45.86    3.12
 -19   3   3   46.21    3.13
  20  -2  -3    5.28    0.84
  20  -2  -3    3.96    0.64
  20  -2  -3    3.10    0.40
 -20   2   3    2.84    0.30
 -20   2   3    2.50    0.33
 -20   2   3    2.57    0.36
  21  -1  -3   24.43    1.81
 -21   1   3   26.39    1.71
 -21   1   3   25.94    1.69
  22   0  -3   -0.18    0.83
  22   0  -3    0.58    0.43
  22   0  -3   -0.06    0.34
 -22   0   3    0.40    0.20
 -22   0   3    0.12    0.16
 -22   0   3   -0.25    0.26
  23   1  -3   44.17    2.89
 -23  -1   3   45.65    2.90
 -23  -1   3   44.48    2.88
  24   2  -3    0.01    0.34
  24   2  -3    0.14    0.38
  24   2  -3    0.55    0.22
 -24  -2   3    0.29    0.24
 -24  -2   3    0.44    0.15
 -24  -2   3    0.19    0.17
  25   3  -3   38.15    2.38
  25   3  -3   38.05    2.39
 -25  -3   3   31.21    2.31
 -18   4   4   21.68    1.51
 -18   4   4   27.22    1.54
 -18   4   4   20.97    1.52
  19  -3  -4    0.20    0.59
  19  -3  -4    0.57    0.23
  19  -3  -4    0.60    0.50
 -19   3   4    0.33    0.13
 -19   3   4    0.18    0.16
 -19   3   4    0.63    0.18
  20  -2  -4   60.41    3.93
 -20   2   4   60.51    3.92
 -20   2   4   60.55    3.89
 -20   2   4   63.01    3.91
  21  -1  -4    1.00    0.54
  21  -1  -4    0.25    0.30
  21  -1  -4   -0.10    0.50
 -21   1   4    0.40    0.15
 -21   1   4    0.34    0.17
 -22   0   4    8.97    0.62
 -22   0   4    8.19    0.64
 -22   0   4    8.03    0.63
  23   1  -4    2.33    0.53
  23   1  -4    1.48    0.40
  23   1  -4    1.82    0.36
 -23  -1   4    0.98    0.21
 -23  -1   4    1.03    0.21
 -23  -1   4    0.85    0.20
  24   2  -4   39.27    2.37
 -24  -2   4   39.14    2.35
 -24  -2   4   35.29    2.37
 -24  -2   4   32.14    2.37
  19  -3  -5   24.63    1.69
 -19   3   5   24.29    1.66
 -19   3   5   24.75    1.57
 -19   3   5   22.33    1.55
  20  -2  -5    1.97    0.64
  20  -2  -5    2.26    0.59
  20  -2  -5    1.23    0.33
 -20   2   5    0.96    0.17
 -20   2   5    0.76    0.22
 -20   2   5    1.47    0.21
  21  -1  -5   16.11    1.07
 -21   1   5   13.83    0.97
 -21   1   5   13.07    0.95
  22   0  -5   -0.14    0.47
  22   0  -5   -0.16    0.35
  22   0  -5    0.89    0.46
 -22   0   5    0.23    0.15
 -22   0   5   -0.06    0.13
 -23  -1   5   14.91    0.95
 -23  -1   5   13.43    0.93
 -23  -1   5   12.34    0.92
  22  -2   5    1.08    0.25
  22  -2   5    0.75    0.32
  22  -2   5    1.40    0.20
 -22   2  -5    1.30    0.26
  23  -1   5   15.24    0.98
  23  -1   5   13.31    0.94
  23  -1   5   12.16    1.05
 -23   1  -5   13.74    0.96
  24   0   5    0.03    0.33
  24   0   5   -0.07    0.19
  24   0   5    0.12    0.19
 -24   0  -5   -0.56    0.27
 -24   0  -5    0.35    0.16
 -24   0  -5    0.31    0.32
  20  -4   4   29.35    2.00
  20  -4   4   30.98    2.20
  20  -4   4   34.23    2.18
 -20   4  -4   29.48    1.98
 -20   4  -4   31.11    2.09
  21  -3   4    0.51    0.28
  21  -3   4    1.36    0.42
  21  -3   4    0.51    0.16
  21  -3   4    0.47    0.20
 -21   3  -4    0.94    0.35
 -21   3  -4    0.69    0.27
 -21   3  -4    0.74    0.14
  22  -2   4    3.21    0.34
  22  -2   4    3.36    0.31
  22  -2   4    3.01    0.48
  22  -2   4    3.35    0.39
 -22   2  -4    3.67    0.38
 -22   2  -4    3.12    0.29
  23  -1   4    0.56    0.21
  23  -1   4    0.76    0.23
  23  -1   4    0.55    0.33
 -23   1  -4    0.55    0.31
 -23   1  -4    0.95    0.21
  24   0   4   41.33    2.77
  24   0   4   45.68    2.82
  24   0   4   43.50    2.79
 -24   0  -4   42.49    2.78
  25   1   4    1.05    0.17
  25   1   4    0.15    0.23
  25   1   4    0.19    0.22
 -25  -1  -4    0.69    0.31
 -25  -1  -4    0.70    0.15
 -25  -1  -4    1.14    0.32
  26   2   4   13.72    0.91
  26   2   4   13.58    0.97
  26   2   4   13.02    1.02
  19  -5   3   22.41    1.54
  19  -5   3   23.56    1.70
  19  -5   3   24.22    1.60
  19  -5   3   25.21    1.84
 -19   5  -3   23.96    1.53
 -19   5  -3   23.46    1.55
  20  -4   3    5.02    0.47
  20  -4   3    5.42    0.67
  20  -4   3    4.93    0.40
  20  -4   3    5.65    0.52
  20  -4   3    4.90    0.44
 -20   4  -3    5.52    0.44
 -20   4  -3    6.32    0.63
  21  -3   3   14.13    1.07
  21  -3   3   13.75    0.98
  21  -3   3   13.96    1.01
  21  -3   3   16.13    0.99
 -21   3  -3   14.81    0.97
 -21   3  -3   14.22    1.07
  22  -2   3    1.86    0.28
  22  -2   3    3.12    0.36
  22  -2   3    1.89    0.30
  22  -2   3    1.90    0.40
 -22   2  -3    2.05    0.38
 -22   2  -3    2.89    0.36
  23  -1   3   47.24    2.87
  23  -1   3   38.79    2.93
  23  -1   3   45.87    2.84
 -23   1  -3   44.38    2.84
 -23   1  -3   42.73    2.92
  24   0   3    0.41    0.21
  24   0   3    0.01    0.23
  24   0   3    0.06    0.24
 -24   0  -3    0.12    0.15
 -24   0  -3   -0.12    0.29
 -24   0  -3    0.24    0.29
  25   1   3   47.86    3.07
  25   1   3   48.55    3.10
  25   1   3   48.19    3.13
 -25  -1  -3   47.11    3.05
  26   2   3    0.60    0.20
  26   2   3   -0.02    0.24
  26   2   3    0.14    0.25
 -26  -2  -3    1.12    0.29
 -26  -2  -3    0.70    0.30
  27   3   3    3.48    0.42
  27   3   3    3.32    0.52
  27   3   3    3.54    0.39
 -27  -3  -3    4.29    0.48
  19  -5   2    0.16    0.38
  19  -5   2   -0.05    0.32
  19  -5   2    0.56    0.15
  19  -5   2   -0.05    0.13
  19  -5   2   -0.01    0.19
 -19   5  -2    0.38    0.16
 -19   5  -2    0.47    0.30
 -19   5  -2    0.04    0.11
  20  -4   2   42.90    3.03
  20  -4   2   45.75    3.07
  20  -4   2   48.78    3.15
  20  -4   2   52.56    3.18
  20  -4   2   48.34    3.03
  20  -4   2   44.10    3.04
 -20   4  -2   47.79    3.03
 -20   4  -2   50.79    3.14
 -20   4  -2   47.82    3.11
  21  -3   2    0.58    0.23
  21  -3   2    0.69    0.34
  21  -3   2    0.90    0.65
  21  -3   2    0.30    0.33
  21  -3   2    0.59    0.21
  21  -3   2    0.51    0.21
  21  -3   2    0.37    0.21
 -21   3  -2    0.47    0.29
 -21   3  -2    0.57    0.55
 -21   3  -2    0.53    0.19
  22  -2   2    5.52    0.53
  22  -2   2    5.58    0.64
  22  -2   2    6.05    0.54
  22  -2   2    6.18    0.56
  22  -2   2    6.36    0.60
 -22   2  -2    6.26    0.57
 -22   2  -2    5.59    0.59
 -22   2  -2    5.39    0.48
  23  -1   2    1.65    0.32
  23  -1   2    1.35    0.21
  23  -1   2    0.68    0.28
  23  -1   2    1.04    0.39
  23  -1   2    1.36    0.29
  23  -1   2    1.02    0.32
 -23   1  -2    1.58    0.38
 -23   1  -2    1.07    0.27
  24   0   2   82.25    5.24
  24   0   2   83.82    5.12
  24   0   2   76.27    5.18
 -24   0  -2   81.87    5.17
 -24   0  -2   79.02    5.12
  25   1   2    1.28    0.32
  25   1   2    1.22    0.31
  25   1   2    1.01    0.31
 -25  -1  -2    2.28    0.35
 -25  -1  -2    1.44    0.27
 -25  -1  -2    2.33    0.39
  26   2   2   25.51    1.86
  26   2   2   25.05    1.84
  26   2   2   31.90    1.90
 -26  -2  -2   29.24    1.98
  27   3   2    3.07    0.42
  27   3   2    4.20    0.49
  27   3   2    3.35    0.42
 -27  -3  -2    3.52    0.46
 -27  -3  -2    4.27    0.40
  18  -6   1   15.82    1.29
  18  -6   1   18.39    1.32
  18  -6   1   15.42    1.11
 -18   6  -1   16.34    1.14
 -18   6  -1   16.57    1.07
  19  -5   1   37.80    2.26
  19  -5   1   31.69    2.20
  19  -5   1   33.92    2.33
  19  -5   1   34.68    2.23
  19  -5   1   32.23    2.24
  19  -5   1   39.36    2.41
 -19   5  -1   33.23    2.25
 -19   5  -1   31.60    2.26
 -19   5  -1   37.75    2.34
  20  -4   1    9.23    0.65
  20  -4   1   10.42    0.68
  20  -4   1    9.16    0.86
  20  -4   1    7.65    0.77
  20  -4   1    8.18    0.67
  20  -4   1    7.91    0.64
  20  -4   1    9.37    0.76
 -20   4  -1   10.06    0.77
 -20   4  -1    8.78    0.62
  21  -3   1   23.07    1.48
  21  -3   1   20.13    1.39
  21  -3   1   18.78    1.41
  21  -3   1   20.62    1.42
  21  -3   1   20.14    1.41
  21  -3   1   22.33    1.51
 -21   3  -1   19.41    1.38
 -21   3  -1   23.29    1.45
 -21   3  -1   18.80    1.36
  22  -2   1    3.09    0.50
  22  -2   1    3.14    0.42
  22  -2   1    2.09    0.38
  22  -2   1    3.52    0.49
  22  -2   1    2.99    0.46
  22  -2   1    2.29    0.40
  22  -2   1    3.28    0.42
 -22   2  -1    2.48    0.36
 -22   2  -1    3.68    0.45
 -22   2  -1    2.65    0.40
 -22   2  -1    3.40    0.40
  23  -1   1  116.43    6.89
  23  -1   1   98.94    6.87
 -23   1  -1   97.36    6.85
 -23   1  -1  106.64    6.89
 -23   1  -1  122.54    6.95
  24   0   1   -0.15    0.22
  24   0   1   -0.01    0.26
  24   0   1   -0.11    0.25
  24   0   1    0.48    0.31
  24   0   1    0.26    0.25
  24   0   1    0.33    0.28
 -24   0  -1    0.04    0.20
 -24   0  -1    0.03    0.24
 -24   0  -1    0.07    0.29
  25   1   1  110.35    5.96
  25   1   1   87.62    5.99
  25   1   1   88.08    5.94
  25   1   1   87.87    6.00
  25   1   1   82.74    5.98
 -25  -1  -1  103.11    5.99
 -25  -1  -1   97.61    6.00
  26   2   1    0.33    0.29
  26   2   1    1.18    0.19
  26   2   1    0.23    0.28
  26   2   1    1.06    0.29
 -26  -2  -1    1.03    0.25
 -26  -2  -1    1.06    0.29
 -26  -2  -1    0.80    0.22
  27   3   1    4.83    0.49
  27   3   1    3.47    0.48
  27   3   1    4.52    0.36
  27   3   1    3.37    0.49
 -27  -3  -1    5.49    0.43
 -27  -3  -1    5.24    0.50
 -27  -3  -1    3.55    0.44
  18  -6   0   16.37    1.24
  18  -6   0   20.30    1.27
  18  -6   0   18.61    1.33
 -18   6   0   17.74    1.26
 -18   6   0   18.19    1.19
  19  -5   0   -0.31    0.36
  19  -5   0   -0.14    0.29
  19  -5   0   -0.20    0.15
  19  -5   0    0.15    0.16
  19  -5   0   -0.05    0.22
 -19   5   0   -0.25    0.18
 -19   5   0   -0.07    0.12
 -19   5   0    0.00    0.10
  20  -4   0   76.23    4.43
  20  -4   0   69.16    4.46
  20  -4   0   64.68    4.42
  20  -4   0   75.36    4.43
  20  -4   0   64.37    4.42
  20  -4   0   66.63    4.48
 -20   4   0   76.15    4.42
 -20   4   0   67.71    4.41
 -20   4   0   65.79    4.45
  21  -3   0    0.84    0.30
  21  -3   0    2.51    0.45
  21  -3   0    1.65    0.28
  21  -3   0    2.11    0.29
  21  -3   0    1.73    0.35
  21  -3   0    1.63    0.37
  21  -3   0    1.71    0.28
 -21   3   0    1.99    0.25
 -21   3   0    1.61    0.30
 -21   3   0    1.12    0.27
 -21   3   0    1.39    0.21
  22  -2   0    1.16    0.35
  22  -2   0    1.16    0.40
  22  -2   0    1.18    0.31
  22  -2   0    1.86    0.34
  22  -2   0    1.82    0.30
  22  -2   0    1.77    0.33
 -22   2   0    1.03    0.30
 -22   2   0    2.03    0.30
 -22   2   0    1.95    0.24
  23  -1   0   10.14    0.83
  23  -1   0    9.63    0.84
  23  -1   0   10.77    0.91
  23  -1   0   10.74    0.87
  23  -1   0   10.12    0.80
 -23   1   0   12.55    0.88
 -23   1   0   10.18    0.77
 -23   1   0    9.87    0.79
 -23   1   0   12.17    0.83
  24   0   0  232.19   12.87
  24   0   0  182.17   12.85
  24   0   0  180.58   12.90
  24   0   0  212.86   12.91
  24   0   0  189.95   12.90
 -24   0   0  202.72   12.88
 -24   0   0  207.76   12.93
 -24   0   0  227.08   12.96
  25   1   0    0.46    0.33
  25   1   0    0.47    0.30
  25   1   0    0.79    0.31
 -25  -1   0    0.72    0.24
 -25  -1   0    0.90    0.22
 -25  -1   0    0.71    0.28
  26   2   0   56.05    3.76
  26   2   0   57.68    3.80
  26   2   0   64.70    3.81
 -26  -2   0   57.97    3.82
 -26  -2   0   58.27    3.76
  27   3   0    6.50    0.50
  27   3   0    6.34    0.58
  27   3   0    5.04    0.59
 -27  -3   0    5.75    0.55
 -27  -3   0    5.72    0.50
  18  -6  -1   16.76    1.17
  18  -6  -1   16.88    1.22
 -18   6   1   15.37    1.10
 -18   6   1   15.35    1.13
 -18   6   1   16.92    1.08
  19  -5  -1   35.16    2.24
  19  -5  -1   31.68    2.15
  19  -5  -1   33.35    2.24
 -19   5   1   33.49    2.15
 -19   5   1   34.78    2.17
 -19   5   1   33.31    2.21
  20  -4  -1    7.70    0.69
  20  -4  -1    7.67    0.57
  20  -4  -1    8.49    0.74
  20  -4  -1    7.56    0.63
 -20   4   1    8.56    0.60
 -20   4   1    8.13    0.67
 -20   4   1    7.75    0.64
 -20   4   1    8.59    0.58
  21  -3  -1   19.45    1.30
  21  -3  -1   21.75    1.34
  21  -3  -1   19.46    1.44
  21  -3  -1   18.79    1.34
 -21   3   1   19.37    1.31
 -21   3   1   19.37    1.31
  22  -2  -1    2.63    0.35
  22  -2  -1    2.98    0.52
  22  -2  -1    3.00    0.39
 -22   2   1    2.44    0.33
 -22   2   1    2.44    0.31
  23  -1  -1   91.50    6.03
  23  -1  -1  100.58    6.00
  23  -1  -1   96.64    6.05
 -23   1   1   90.55    6.02
  24   0  -1    0.05    0.32
  24   0  -1    0.31    0.17
  24   0  -1    0.31    0.40
  24   0  -1    0.07    0.23
  24   0  -1    0.10    0.33
 -24   0   1    0.23    0.21
 -24   0   1    0.30    0.23
 -24   0   1    0.26    0.16
  25   1  -1   95.06    6.09
  25   1  -1  103.26    6.12
  25   1  -1  101.00    6.12
 -25  -1   1   95.00    6.10
 -25  -1   1   81.27    6.10
 -25  -1   1   99.26    6.08
  26   2  -1    0.50    0.25
  26   2  -1    0.72    0.33
  26   2  -1    1.14    0.31
 -26  -2   1    0.47    0.23
 -26  -2   1    0.78    0.21
  27   3  -1    4.13    0.49
  27   3  -1    3.85    0.53
  27   3  -1    4.43    0.48
 -27  -3   1    5.43    0.44
  19  -5  -2   -0.41    0.31
  19  -5  -2    0.28    0.50
  19  -5  -2   -0.24    0.31
 -19   5   2    0.21    0.11
 -19   5   2    0.37    0.13
  20  -4  -2   48.89    3.19
  20  -4  -2   54.40    3.17
  20  -4  -2   47.09    3.25
 -20   4   2   48.25    3.15
 -20   4   2   47.45    3.14
  21  -3  -2    1.08    0.53
  21  -3  -2    1.03    0.44
  21  -3  -2    0.53    0.24
  21  -3  -2    0.27    0.27
 -21   3   2    0.67    0.18
 -21   3   2    1.21    0.25
  22  -2  -2    6.19    0.53
  22  -2  -2    7.17    0.68
  22  -2  -2    8.83    0.82
 -22   2   2    6.53    0.56
 -22   2   2    6.12    0.55
  23  -1  -2    2.40    0.55
  23  -1  -2    2.39    0.52
 -23   1   2    1.66    0.29
 -23   1   2    2.38    0.36
  24   0  -2   86.74    5.22
  24   0  -2   79.87    5.22
 -24   0   2   79.21    5.21
  25   1  -2    1.20    0.26
  25   1  -2    1.98    0.44
  25   1  -2    1.67    0.37
 -25  -1   2    1.58    0.22
 -25  -1   2    1.25    0.26
 -25  -1   2    0.74    0.23
  26   2  -2   38.02    2.52
  26   2  -2   37.90    2.54
  26   2  -2   37.47    2.48
 -26  -2   2   39.10    2.47
  27   3  -2    4.40    0.45
  27   3  -2    4.40    0.54
  27   3  -2    4.37    0.50
 -27  -3   2    3.75    0.40
  19  -5  -3   30.14    1.81
  19  -5  -3   26.00    1.87
 -19   5   3   25.33    1.71
 -19   5   3   24.34    1.71
  20  -4  -3    4.98    0.73
  20  -4  -3    7.69    0.62
  20  -4  -3    6.80    0.53
 -20   4   3    5.66    0.47
 -20   4   3    5.87    0.47
  21  -3  -3   15.83    1.20
  21  -3  -3   19.77    1.37
 -21   3   3   15.98    1.16
 -21   3   3   16.18    1.17
 -21   3   3   20.44    1.20
  22  -2  -3    2.73    0.38
  22  -2  -3    3.88    0.58
 -22   2   3    2.40    0.30
 -22   2   3    2.09    0.30
 -22   2   3    2.50    0.28
  23  -1  -3   53.11    3.18
 -23   1   3   45.44    3.24
 -23   1   3   47.57    3.13
  24   0  -3   -0.02    0.33
  24   0  -3   -0.26    0.44
  24   0  -3    0.47    0.36
 -24   0   3   -0.06    0.17
 -24   0   3    0.09    0.16
 -24   0   3    0.56    0.18
  25   1  -3   51.74    3.27
 -25  -1   3   48.15    3.28
 -25  -1   3   52.48    3.26
  26   2  -3    0.78    0.35
  26   2  -3    0.39    0.37
  26   2  -3    0.27    0.21
 -26  -2   3    0.55    0.16
 -26  -2   3    0.50    0.18
 -26  -2   3    0.51    0.21
  27   3  -3    4.44    0.41
  27   3  -3    5.18    0.54
  27   3  -3    4.69    0.54
 -27  -3   3    3.23    0.38
 -27  -3   3    3.34    0.40
  20  -4  -4   34.12    2.13
 -20   4   4   32.15    2.09
 -20   4   4   31.16    2.10
  21  -3  -4    0.94    0.49
  21  -3  -4    1.11    0.61
  21  -3  -4    0.52    0.26
 -21   3   4    0.50    0.18
 -21   3   4    0.81    0.19
 -21   3   4    0.70    0.15
  22  -2  -4    3.57    0.49
 -22   2   4    3.57    0.38
 -22   2   4    3.90    0.34
 -22   2   4    3.45    0.38
  23  -1  -4    1.96    0.53
  23  -1  -4    0.61    0.31
  23  -1  -4    2.04    0.53
 -23   1   4    1.13    0.21
 -23   1   4    0.97    0.19
 -24   0   4   55.30    3.08
 -24   0   4   44.41    3.10
 -24   0   4   44.45    3.09
  25   1  -4    0.70    0.35
  25   1  -4    0.95    0.45
 -25  -1   4    0.49    0.17
 -25  -1   4    0.45    0.18
 -25  -1   4    0.87    0.18
  26   2  -4   15.95    0.98
 -26  -2   4   15.24    0.95
 -26  -2   4   11.58    0.97
 -26  -2   4   13.20    0.97
  22  -2  -5    2.84    0.59
  22  -2  -5    3.22    0.63
 -22   2   5    1.38    0.22
 -22   2   5    1.50    0.20
 -23   1   5   13.73    0.96
 -23   1   5   14.50    0.98
  24   0  -5    0.01    0.38
  24   0  -5    1.11    0.40
  24   0  -5    0.15    0.47
 -24   0   5    0.06    0.14
 -24   0   5    0.20    0.24
  23  -3   4    4.12    0.39
  23  -3   4    5.25    0.38
  23  -3   4    4.00    0.43
 -23   3  -4    4.73    0.47
 -23   3  -4    4.21    0.36
  24  -2   4   34.61    2.25
  24  -2   4   34.91    2.21
  24  -2   4   31.91    2.30
 -24   2  -4   35.03    2.25
  25  -1   4    0.31    0.23
  25  -1   4    0.02    0.32
  25  -1   4    0.27    0.21
 -25   1  -4    1.01    0.32
 -25   1  -4    0.04    0.29
 -25   1  -4    0.72    0.22
  26   0   4   12.97    1.10
  26   0   4   13.85    0.87
  26   0   4   13.32    0.99
  26   0   4   12.69    0.93
 -26   0  -4   12.39    0.89
  27   1   4    0.17    0.27
  27   1   4    0.56    0.16
  27   1   4    0.11    0.24
 -27  -1  -4    0.58    0.31
 -27  -1  -4    0.72    0.29
  22  -4   3    6.31    0.48
  22  -4   3    6.51    0.47
  22  -4   3    4.88    0.55
  22  -4   3    4.87    0.44
  22  -4   3    7.05    0.70
  22  -4   3    4.75    0.47
  22  -4   3    6.48    0.63
 -22   4  -3    6.48    0.59
 -22   4  -3    7.26    0.66
 -22   4  -3    5.21    0.45
  23  -3   3   25.85    1.58
  23  -3   3   23.26    1.58
  23  -3   3   24.51    1.67
  23  -3   3   22.73    1.60
 -23   3  -3   24.62    1.65
 -23   3  -3   23.51    1.57
  24  -2   3   -0.15    0.29
  24  -2   3    0.01    0.20
  24  -2   3    0.18    0.23
  24  -2   3   -0.17    0.20
  24  -2   3   -0.01    0.21
 -24   2  -3    0.52    0.29
 -24   2  -3    0.21    0.22
 -24   2  -3   -0.03    0.26
  25  -1   3   48.50    3.14
  25  -1   3   46.85    3.17
  25  -1   3   41.71    3.22
  25  -1   3   58.19    3.12
 -25   1  -3   47.61    3.13
  26   0   3   -0.07    0.23
  26   0   3   -0.31    0.23
  26   0   3    0.21    0.21
 -26   0  -3    0.23    0.29
 -26   0  -3    0.14    0.25
 -26   0  -3   -0.02    0.15
  27   1   3    3.52    0.47
  27   1   3    4.51    0.42
  27   1   3    3.79    0.49
 -27  -1  -3    4.42    0.33
  28   2   3    2.08    0.29
  28   2   3    2.96    0.59
  28   2   3    1.99    0.36
  21  -5   2    0.86    0.17
  21  -5   2    1.08    0.19
  21  -5   2    0.70    0.24
  21  -5   2    1.24    0.42
  21  -5   2    0.62    0.38
 -21   5  -2    1.61    0.35
 -21   5  -2    1.05    0.16
 -21   5  -2    1.21    0.21
  22  -4   2    1.40    0.38
  22  -4   2    0.90    0.22
  22  -4   2    1.93    0.43
  22  -4   2    1.72    0.25
  22  -4   2    1.27    0.24
  22  -4   2    1.24    0.22
  22  -4   2    1.55    0.29
 -22   4  -2    1.27    0.18
 -22   4  -2    1.31    0.22
 -22   4  -2    1.49    0.32
  23  -3   2   13.87    0.88
  23  -3   2   11.87    0.88
  23  -3   2   12.39    0.88
  23  -3   2   11.44    0.94
 -23   3  -2   11.34    0.85
 -23   3  -2   13.34    0.99
  24  -2   2   78.45    4.53
  24  -2   2   64.16    4.58
  24  -2   2   67.11    4.55
  24  -2   2   67.25    4.50
  24  -2   2   76.93    4.56
 -24   2  -2   66.88    4.58
 -24   2  -2   73.81    4.54
  25  -1   2    0.64    0.31
  25  -1   2    1.47    0.39
  25  -1   2    2.09    0.32
  25  -1   2    1.44    0.29
  25  -1   2    1.99    0.33
 -25   1  -2    2.03    0.35
 -25   1  -2    1.54    0.26
 -25   1  -2    1.54    0.37
  26   0   2   53.34    3.54
  26   0   2   49.89    3.56
  26   0   2   63.31    3.53
  26   0   2   53.49    3.50
 -26   0  -2   51.11    3.48
 -26   0  -2   57.76    3.55
  27   1   2    1.43    0.35
  27   1   2    0.94    0.30
  27   1   2    1.14    0.32
 -27  -1  -2    1.18    0.25
 -27  -1  -2    2.26    0.35
  28   2   2   22.69    1.82
  28   2   2   28.52    1.85
 -28  -2  -2   27.78    1.83
 -28  -2  -2   29.78    1.82
  29   3   2    0.34    0.30
  29   3   2    0.46    0.24
 -29  -3  -2    0.70    0.25
 -29  -3  -2    0.20    0.19
  21  -5   1    6.62    0.52
  21  -5   1    5.23    0.63
  21  -5   1    5.41    0.49
  21  -5   1    6.53    0.47
  21  -5   1    6.61    0.48
  21  -5   1    4.91    0.44
  21  -5   1    6.52    0.70
 -21   5  -1    5.99    0.44
 -21   5  -1    5.45    0.49
  22  -4   1    5.78    0.50
  22  -4   1    5.67    0.60
  22  -4   1    7.13    0.50
  22  -4   1    6.25    0.65
  22  -4   1    4.94    0.47
  22  -4   1    5.50    0.52
  22  -4   1    5.54    0.47
 -22   4  -1    5.50    0.44
 -22   4  -1    6.24    0.54
 -22   4  -1    4.73    0.47
  23  -3   1   50.51    3.40
  23  -3   1   52.00    3.38
  23  -3   1   61.04    3.48
  23  -3   1   46.67    3.40
  23  -3   1   49.83    3.42
 -23   3  -1   47.87    3.38
 -23   3  -1   61.04    3.43
  24  -2   1    0.04    0.31
  24  -2   1    0.43    0.29
  24  -2   1    0.28    0.28
  24  -2   1    0.30    0.31
  24  -2   1    0.09    0.24
  24  -2   1   -0.08    0.29
  24  -2   1   -0.01    0.23
 -24   2  -1    0.17    0.22
 -24   2  -1    0.17    0.20
 -24   2  -1    0.21    0.24
 -24   2  -1   -0.18    0.25
  25  -1   1   88.33    6.44
  25  -1   1   92.32    6.27
  25  -1   1   96.68    6.26
  25  -1   1  102.18    6.27
 -25   1  -1  106.41    6.33
 -25   1  -1   94.10    6.33
 -25   1  -1  109.21    6.29
  26   0   1    0.21    0.26
  26   0   1    0.27    0.25
  26   0   1    0.04    0.28
  26   0   1    0.14    0.25
 -26   0  -1   -0.03    0.19
 -26   0  -1   -0.07    0.21
  27   1   1    8.38    0.73
  27   1   1    7.65    0.74
  27   1   1    8.75    0.66
  27   1   1    8.27    0.73
 -27  -1  -1   10.50    0.77
 -27  -1  -1    9.36    0.69
 -27  -1  -1    9.70    0.70
  28   2   1    2.58    0.41
  28   2   1    3.95    0.44
  28   2   1    2.82    0.41
  28   2   1    3.84    0.32
 -28  -2  -1    3.59    0.39
 -28  -2  -1    4.21    0.45
 -28  -2  -1    3.56    0.38
  29   3   1   44.21    3.46
 -29  -3  -1   55.59    3.30
 -29  -3  -1   52.17    3.40
  21  -5   0    0.13    0.31
  21  -5   0    0.44    0.18
  21  -5   0    0.96    0.19
  21  -5   0    0.92    0.28
  21  -5   0    0.52    0.15
  21  -5   0    1.05    0.43
 -21   5   0    1.01    0.17
 -21   5   0    0.72    0.23
 -21   5   0    0.71    0.14
  22  -4   0    2.52    0.46
  22  -4   0    2.46    0.33
  22  -4   0    3.48    0.54
  22  -4   0    3.32    0.33
  22  -4   0    2.24    0.30
  22  -4   0    2.75    0.40
  22  -4   0    2.40    0.35
 -22   4   0    2.55    0.28
 -22   4   0    2.99    0.28
 -22   4   0    1.93    0.32
  23  -3   0   11.43    0.91
  23  -3   0   14.53    1.03
  23  -3   0   14.76    0.91
  23  -3   0   12.04    0.91
  23  -3   0   14.08    0.95
  23  -3   0   10.51    0.97
 -23   3   0   10.87    0.87
 -23   3   0   12.84    0.92
  24  -2   0   94.77    6.53
  24  -2   0  108.19    6.56
  24  -2   0  101.52    6.51
  24  -2   0  105.41    6.52
 -24   2   0  102.79    6.50
  25  -1   0    0.61    0.36
  25  -1   0    1.84    0.38
  25  -1   0    0.72    0.31
  25  -1   0    0.54    0.25
  25  -1   0    0.88    0.28
 -25   1   0    0.75    0.24
 -25   1   0    1.05    0.21
 -25   1   0    0.73    0.24
 -25   1   0    0.70    0.29
  26   0   0   84.28    5.70
  26   0   0   93.65    5.70
  26   0   0   80.66    5.69
 -26   0   0   98.58    5.73
 -26   0   0   89.17    5.67
 -26   0   0   89.66    5.71
  27   1   0    0.20    0.30
  27   1   0    0.79    0.28
  27   1   0    0.53    0.28
 -27  -1   0    1.07    0.27
 -27  -1   0    0.84    0.24
 -27  -1   0    0.72    0.22
  28   2   0   54.60    3.40
  28   2   0   47.90    3.39
  28   2   0   48.68    3.36
 -28  -2   0   51.30    3.41
 -28  -2   0   53.00    3.36
 -28  -2   0   59.64    3.40
  29   3   0    2.22    0.29
  29   3   0    1.48    0.32
  29   3   0    1.04    0.33
 -29  -3   0    2.49    0.27
 -29  -3   0    1.77    0.26
 -29  -3   0    1.70    0.31
  21  -5  -1    5.54    0.60
  21  -5  -1    4.85    0.44
  21  -5  -1    7.13    0.61
 -21   5   1    6.26    0.48
 -21   5   1    5.63    0.43
 -21   5   1    5.93    0.53
  22  -4  -1    5.79    0.46
  22  -4  -1    4.96    0.59
  22  -4  -1    4.62    0.39
  22  -4  -1    5.01    0.52
  22  -4  -1    4.23    0.46
 -22   4   1    4.80    0.44
 -22   4   1    5.49    0.41
  23  -3  -1   52.24    3.38
  23  -3  -1   60.38    3.41
  23  -3  -1   54.89    3.41
  23  -3  -1   49.99    3.47
 -23   3   1   51.42    3.39
 -23   3   1   48.34    3.40
  24  -2  -1    0.30    0.25
  24  -2  -1    0.01    0.40
  24  -2  -1   -0.11    0.43
  24  -2  -1   -0.13    0.36
  24  -2  -1   -0.03    0.20
 -24   2   1   -0.12    0.20
 -24   2   1    0.52    0.23
  25  -1  -1  112.08    7.23
  25  -1  -1  110.99    7.20
 -25   1   1  119.17    7.20
 -25   1   1  110.82    7.21
  26   0  -1    0.06    0.36
  26   0  -1   -0.30    0.29
  26   0  -1   -0.12    0.22
 -26   0   1    0.35    0.21
 -26   0   1    0.52    0.23
 -26   0   1    0.34    0.16
  27   1  -1    8.68    0.76
  27   1  -1    8.88    0.71
  27   1  -1    9.39    0.76
 -27  -1   1    9.20    0.70
  28   2  -1    3.58    0.44
  28   2  -1    3.63    0.43
  28   2  -1    3.04    0.41
 -28  -2   1    2.85    0.39
 -28  -2   1    3.79    0.38
  29   3  -1   52.85    3.21
  29   3  -1   48.71    3.31
  29   3  -1   47.21    3.19
  21  -5  -2    0.68    0.34
  21  -5  -2    0.68    0.47
  21  -5  -2    1.31    0.53
 -21   5   2    1.13    0.18
 -21   5   2    1.19    0.20
  22  -4  -2    2.74    0.56
  22  -4  -2    1.70    0.26
  22  -4  -2    1.14    0.32
  22  -4  -2    1.61    0.44
 -22   4   2    1.82    0.23
 -22   4   2    1.33    0.21
  23  -3  -2   13.80    0.97
  23  -3  -2   13.68    1.10
  23  -3  -2   14.41    0.96
 -23   3   2   12.96    0.92
 -23   3   2   12.57    0.93
  24  -2  -2   72.47    4.42
  24  -2  -2   69.14    4.39
 -24   2   2   62.77    4.36
 -24   2   2   71.01    4.39
  25  -1  -2    2.09    0.57
  25  -1  -2    2.11    0.49
  25  -1  -2    1.83    0.36
 -25   1   2    1.54    0.33
 -25   1   2    2.30    0.31
 -25   1   2    1.13    0.22
  26   0  -2   74.28    4.80
 -26   0   2   75.24    4.77
  27   1  -2    1.37    0.34
  27   1  -2    1.35    0.27
  27   1  -2    1.81    0.39
 -27  -1   2    1.57    0.26
 -27  -1   2    1.34    0.25
 -27  -1   2    1.25    0.20
  28   2  -2   30.44    1.91
  28   2  -2   31.12    1.92
  28   2  -2   28.79    1.87
 -28  -2   2   23.53    1.86
  29   3  -2    0.30    0.23
  29   3  -2    0.44    0.30
 -29  -3   2    0.31    0.17
  22  -4  -3    6.06    0.51
  22  -4  -3    5.85    0.73
 -22   4   3    5.41    0.45
 -22   4   3    5.62    0.44
  23  -3  -3   26.96    1.72
 -23   3   3   24.77    1.68
 -23   3   3   25.31    1.67
  24  -2  -3    0.18    0.48
  24  -2  -3    0.25    0.42
  24  -2  -3    0.32    0.28
 -24   2   3    0.20    0.20
 -24   2   3    0.31    0.15
  25  -1  -3   96.54    6.06
  25  -1  -3   98.04    6.08
 -25   1   3   88.52    5.96
  26   0  -3    0.65    0.30
  26   0  -3    0.42    0.41
  26   0  -3    0.18    0.31
 -26   0   3    0.09    0.15
 -26   0   3    0.40    0.16
 -26   0   3   -0.02    0.16
  27   1  -3    4.24    0.43
 -27  -1   3    3.89    0.41
 -27  -1   3    4.35    0.41
 -27  -1   3    4.41    0.37
  28   2  -3    3.82    0.54
  28   2  -3    3.45    0.37
  28   2  -3    3.73    0.69
 -28  -2   3    3.17    0.30
 -28  -2   3    2.02    0.32
 -28  -2   3    2.42    0.34
  23  -3  -4    5.33    0.71
  23  -3  -4    7.68    0.81
 -23   3   4    4.51    0.52
 -23   3   4    5.06    0.47
 -23   3   4    5.56    0.55
  24  -2  -4   37.47    2.42
 -24   2   4   36.81    2.36
 -24   2   4   35.57    2.38
  25  -1  -4    1.51    0.48
  25  -1  -4    0.40    0.30
 -25   1   4    0.38    0.16
 -25   1   4    0.49    0.18
  26   0  -4   26.57    1.72
  26   0  -4   22.57    1.63
  26   0  -4   25.70    1.64
 -26   0   4   20.56    1.53
  27   1  -4    0.17    0.37
 -27  -1   4    0.23    0.16
  26  -2   4   12.51    0.86
  26  -2   4   10.40    0.96
  26  -2   4   12.29    0.97
 -26   2  -4   13.01    0.88
  27  -1   4    0.15    0.22
  27  -1   4    0.23    0.32
  27  -1   4    0.18    0.24
 -27   1  -4    0.74    0.32
 -27   1  -4    0.12    0.30
 -27   1  -4    0.66    0.19
  24  -4   3    0.14    0.33
  24  -4   3    0.33    0.17
  24  -4   3    0.57    0.30
  24  -4   3   -0.12    0.16
  24  -4   3    0.09    0.18
  24  -4   3   -0.29    0.36
 -24   4  -3    0.00    0.24
 -24   4  -3    0.08    0.15
  25  -3   3   30.36    1.93
  25  -3   3   31.69    2.01
  25  -3   3   26.95    1.95
  25  -3   3   28.79    2.02
 -25   3  -3   31.99    1.99
 -25   3  -3   27.80    1.91
  26  -2   3    0.26    0.22
  26  -2   3    0.05    0.22
  26  -2   3    0.08    0.23
  26  -2   3   -0.02    0.28
  26  -2   3    0.06    0.21
 -26   2  -3    0.28    0.25
 -26   2  -3   -0.04    0.27
  27  -1   3    3.00    0.47
  27  -1   3    3.68    0.45
  27  -1   3    4.32    0.60
  27  -1   3    4.93    0.42
 -27   1  -3    3.97    0.40
 -27   1  -3    5.41    0.56
  28   0   3    0.09    0.21
  28   0   3   -0.10    0.25
  28   0   3   -0.24    0.24
 -28   0  -3    0.16    0.23
 -28   0  -3    0.02    0.15
 -28   0  -3   -0.07    0.27
  29   1   3   37.84    2.53
  29   1   3   40.76    2.68
  24  -4   2   32.55    2.20
  24  -4   2   30.82    2.15
  24  -4   2   30.32    2.16
  24  -4   2   37.49    2.27
  24  -4   2   32.56    2.15
  24  -4   2   33.51    2.17
 -24   4  -2   37.31    2.22
 -24   4  -2   31.14    2.15
  25  -3   2    2.60    0.37
  25  -3   2    2.85    0.43
  25  -3   2    3.17    0.40
  25  -3   2    3.42    0.38
  25  -3   2    3.69    0.49
 -25   3  -2    3.82    0.40
 -25   3  -2    2.75    0.33
  26  -2   2   21.94    1.64
  26  -2   2   22.30    1.71
  26  -2   2   28.27    1.70
  26  -2   2   21.50    1.67
 -26   2  -2   25.61    1.71
 -26   2  -2   28.01    1.66
  27  -1   2    0.50    0.29
  27  -1   2    1.36    0.35
  27  -1   2    1.25    0.26
  27  -1   2    1.78    0.29
  27  -1   2    1.10    0.29
  27  -1   2    1.22    0.29
 -27   1  -2    1.27    0.23
 -27   1  -2    1.39    0.34
  28   0   2   54.60    3.25
  28   0   2   48.93    3.27
  28   0   2   45.20    3.28
 -28   0  -2   52.91    3.28
  29   1   2    0.47    0.26
  29   1   2    0.37    0.27
  29   1   2    0.47    0.29
 -29  -1  -2    0.58    0.22
 -29  -1  -2    1.05    0.25
 -29  -1  -2    1.17    0.29
  30   2   2   29.84    2.13
  30   2   2   26.69    2.02
  30   2   2   26.27    2.00
 -30  -2  -2   35.53    2.05
 -30  -2  -2   33.67    2.02
  23  -5   1   16.71    1.28
  23  -5   1   22.99    1.31
  23  -5   1   19.41    1.34
  23  -5   1   21.77    1.42
  23  -5   1   17.78    1.32
  23  -5   1   22.77    1.47
  23  -5   1   19.39    1.30
 -23   5  -1   17.51    1.31
 -23   5  -1   19.35    1.28
  24  -4   1   -0.20    0.23
  24  -4   1    0.06    0.20
  24  -4   1    0.19    0.19
  24  -4   1   -0.34    0.27
  24  -4   1    0.17    0.32
  24  -4   1    0.15    0.19
  24  -4   1   -0.13    0.19
 -24   4  -1   -0.04    0.18
 -24   4  -1   -0.11    0.13
  25  -3   1   35.72    2.31
  25  -3   1   36.24    2.35
  25  -3   1   34.40    2.52
  26  -2   1    0.52    0.30
  26  -2   1    0.34    0.29
  26  -2   1    0.75    0.26
  26  -2   1    1.02    0.29
  26  -2   1    0.42    0.27
  26  -2   1    0.79    0.26
 -26   2  -1    0.45    0.24
 -26   2  -1    0.86    0.26
 -26   2  -1    0.51    0.31
  27  -1   1    9.18    0.72
  27  -1   1    7.87    0.74
  27  -1   1    7.18    0.68
  27  -1   1    8.28    0.71
  27  -1   1    9.54    0.71
 -27   1  -1    9.58    0.70
 -27   1  -1   10.43    0.76
 -27   1  -1    9.08    0.70
  28   0   1   -0.07    0.25
  28   0   1   -0.08    0.24
  28   0   1    0.17    0.25
  28   0   1   -0.01    0.21
 -28   0  -1    0.10    0.19
 -28   0  -1    0.25    0.20
 -28   0  -1    0.29    0.25
  29   1   1   73.25    4.76
  29   1   1   70.33    4.74
  29   1   1   73.64    4.76
  29   1   1   71.09    4.69
 -29  -1  -1   79.32    4.74
 -29  -1  -1   77.49    4.75
  30   2   1    3.03    0.40
  30   2   1    2.04    0.36
  30   2   1    1.96    0.37
 -30  -2  -1    3.51    0.34
 -30  -2  -1    3.06    0.39
 -30  -2  -1    2.37    0.32
  23  -5   0   16.33    1.15
  23  -5   0   14.56    1.06
  23  -5   0   17.15    1.09
  23  -5   0   14.49    1.07
  23  -5   0   17.04    1.17
 -23   5   0   16.80    1.06
 -23   5   0   15.72    1.11
  24  -4   0   44.58    2.99
  24  -4   0   48.28    2.99
  24  -4   0   46.88    3.04
 -24   4   0   46.21    2.97
  25  -3   0    4.79    0.49
  25  -3   0    5.02    0.51
  25  -3   0    5.36    0.57
  25  -3   0    4.65    0.48
 -25   3   0    4.65    0.41
  26  -2   0   70.73    4.08
  26  -2   0   68.06    4.03
  26  -2   0   51.91    4.04
  26  -2   0   64.04    4.02
  26  -2   0   53.02    4.04
 -26   2   0   67.67    4.01
 -26   2   0   56.44    4.04
 -26   2   0   70.35    4.11
  27  -1   0    0.78    0.24
  27  -1   0    0.64    0.23
  27  -1   0    0.40    0.34
  27  -1   0    0.53    0.32
  27  -1   0    0.50    0.28
  27  -1   0    0.52    0.24
 -27   1   0    0.69    0.26
 -27   1   0    0.52    0.21
 -27   1   0    0.78    0.22
  28   0   0   58.05    4.00
  28   0   0   62.17    4.00
  28   0   0   58.85    4.00
 -28   0   0   64.61    4.02
 -28   0   0   70.85    4.07
 -28   0   0   60.10    3.97
  29   1   0    0.13    0.23
  29   1   0    0.33    0.23
  29   1   0   -0.08    0.26
 -29  -1   0    0.19    0.21
 -29  -1   0    0.20    0.18
 -29  -1   0    0.25    0.16
  30   2   0   42.53    2.78
  30   2   0   39.20    2.77
  30   2   0   39.90    2.74
 -30  -2   0   46.95    2.77
 -30  -2   0   43.47    2.79
 -30  -2   0   43.74    2.73
  23  -5  -1   20.29    1.32
  23  -5  -1   22.67    1.40
  23  -5  -1   18.69    1.51
 -23   5   1   18.22    1.30
 -23   5   1   18.46    1.29
  24  -4  -1    0.00    0.16
  24  -4  -1   -0.16    0.14
  24  -4  -1    0.32    0.21
  24  -4  -1    0.51    0.35
  24  -4  -1   -0.26    0.38
  24  -4  -1    0.00    0.21
  24  -4  -1   -0.41    0.24
 -24   4   1   -0.16    0.18
 -24   4   1    0.02    0.14
 -24   4   1    0.08    0.14
  25  -3  -1   38.67    2.50
  25  -3  -1   44.50    2.49
  25  -3  -1   37.27    2.56
  25  -3  -1   37.34    2.48
  25  -3  -1   38.11    2.48
 -25   3   1   37.14    2.46
 -25   3   1   34.60    2.47
  26  -2  -1    0.89    0.39
  26  -2  -1    0.38    0.27
  26  -2  -1    0.64    0.27
  26  -2  -1    0.50    0.40
  26  -2  -1    0.69    0.22
 -26   2   1    0.56    0.16
 -26   2   1    1.29    0.27
 -26   2   1    0.76    0.24
  27  -1  -1    7.18    0.71
  27  -1  -1    9.15    0.77
  27  -1  -1   10.50    0.82
  27  -1  -1   10.02    0.83
 -27   1   1    9.60    0.73
 -27   1   1   10.78    0.74
  28   0  -1    0.20    0.23
  28   0  -1   -0.15    0.27
  28   0  -1   -0.10    0.31
 -28   0   1    0.26    0.19
 -28   0   1    0.21    0.16
 -28   0   1    0.26    0.20
  29   1  -1   77.05    4.82
  29   1  -1   79.25    4.82
  29   1  -1   70.22    4.80
 -29  -1   1   76.76    4.81
 -29  -1   1   72.95    4.81
  30   2  -1    2.42    0.38
  30   2  -1    3.12    0.39
  30   2  -1    2.44    0.34
 -30  -2   1    2.63    0.35
 -30  -2   1    2.54    0.33
  24  -4  -2   36.06    2.27
  24  -4  -2   35.16    2.36
 -24   4   2   33.58    2.24
 -24   4   2   33.89    2.24
  25  -3  -2    4.39    0.56
  25  -3  -2    5.22    0.65
  25  -3  -2    3.73    0.41
  25  -3  -2    3.30    0.41
 -25   3   2    3.36    0.36
 -25   3   2    3.50    0.34
  26  -2  -2   27.47    1.70
  26  -2  -2   25.57    1.74
 -26   2   2   23.63    1.68
 -26   2   2   26.01    1.71
  27  -1  -2    1.78    0.35
  27  -1  -2    2.03    0.43
  27  -1  -2    1.54    0.43
 -27   1   2    1.63    0.27
 -27   1   2    2.16    0.30
  28   0  -2   59.23    3.61
 -28   0   2   59.34    3.58
 -28   0   2   48.88    3.58
  29   1  -2    0.46    0.29
  29   1  -2    0.73    0.33
  29   1  -2    0.36    0.22
 -29  -1   2    0.62    0.20
 -29  -1   2    0.97    0.18
 -29  -1   2    0.86    0.21
  30   2  -2   34.16    2.22
  30   2  -2   34.39    2.19
  30   2  -2   34.10    2.19
 -30  -2   2   29.90    2.16
  24  -4  -3    0.20    0.48
  24  -4  -3    0.44    0.33
  24  -4  -3    0.14    0.38
  24  -4  -3    0.13    0.22
 -24   4   3    0.33    0.14
 -24   4   3    0.24    0.15
  25  -3  -3   35.66    2.17
 -25   3   3   31.14    2.13
 -25   3   3   31.51    2.12
  26  -2  -3    0.65    0.54
  26  -2  -3    0.03    0.27
  26  -2  -3    0.35    0.42
 -26   2   3    0.19    0.14
 -26   2   3    0.45    0.19
  27  -1  -3    9.16    0.78
  27  -1  -3    7.24    0.81
 -27   1   3    8.12    0.60
  28   0  -3   -0.12    0.18
  28   0  -3   -0.10    0.36
  28   0  -3    0.95    0.26
  28   0  -3    0.27    0.29
 -28   0   3    0.18    0.18
 -28   0   3   -0.02    0.13
 -28   0   3    0.46    0.16
  29   1  -3   45.51    2.69
 -29  -1   3   34.82    2.68
 -29  -1   3   42.85    2.62
 -29  -1   3   38.55    2.68
  26  -2  -4   14.86    1.02
 -26   2   4   13.42    0.93
 -26   2   4   12.62    0.95
  27  -1  -4    0.17    0.30
  27  -1  -4    0.37    0.42
 -27   1   4    0.23    0.15
 -27   1   4    0.41    0.18
  27  -3   3    2.39    0.36
  27  -3   3    2.44    0.66
  27  -3   3    2.71    0.35
  27  -3   3    2.85    0.37
  27  -3   3    3.38    0.43
 -27   3  -3    3.54    0.38
  28  -2   3    2.75    0.36
  28  -2   3    1.75    0.45
  28  -2   3    1.66    0.33
  28  -2   3    2.04    0.31
 -28   2  -3    2.07    0.31
 -28   2  -3    2.63    0.40
  29  -1   3   38.79    2.48
  29  -1   3   39.55    2.50
 -29   1  -3   36.17    2.46
  30   0   3    0.01    0.25
  30   0   3    0.38    0.25
  30   0   3    0.68    0.28
 -30   0  -3    0.30    0.22
 -30   0  -3   -0.18    0.24
  26  -4   2   12.11    0.88
  26  -4   2   10.29    0.86
  26  -4   2   10.85    0.91
  26  -4   2   13.76    0.90
  26  -4   2   13.61    0.98
 -26   4  -2   10.76    0.84
 -26   4  -2   13.64    0.90
  27  -3   2    2.29    0.37
  27  -3   2    4.40    0.49
  27  -3   2    4.03    0.39
  27  -3   2    2.36    0.42
  27  -3   2    3.04    0.38
  27  -3   2    3.42    0.48
  27  -3   2    2.88    0.43
 -27   3  -2    3.55    0.38
  28  -2   2   25.82    1.54
  28  -2   2   20.20    1.59
  28  -2   2   21.11    1.52
  28  -2   2   22.27    1.55
 -28   2  -2   25.09    1.60
 -28   2  -2   22.18    1.51
  29  -1   2    0.41    0.28
  29  -1   2    0.85    0.28
  29  -1   2    1.01    0.31
  29  -1   2    0.63    0.27
  29  -1   2    1.05    0.30
  29  -1   2    0.18    0.24
 -29   1  -2    0.51    0.27
 -29   1  -2    0.55    0.17
 -29   1  -2    0.80    0.24
  30   0   2   45.58    2.92
  30   0   2   40.47    2.96
  30   0   2   42.64    2.95
 -30   0  -2   52.15    2.95
  31   1   2    0.07    0.25
  31   1   2    0.23    0.23
  31   1   2   -0.20    0.26
 -31  -1  -2    0.13    0.18
 -31  -1  -2    0.38    0.32
 -31  -1  -2    0.58    0.22
  26  -4   1    0.90    0.35
  26  -4   1    1.15    0.33
  26  -4   1    0.42    0.25
  26  -4   1    0.36    0.22
  26  -4   1    0.91    0.29
  26  -4   1    1.19    0.23
  26  -4   1    0.62    0.23
  27  -3   1    4.96    0.41
  27  -3   1    3.84    0.49
  27  -3   1    4.03    0.42
  27  -3   1    2.81    0.44
  27  -3   1    4.53    0.46
  27  -3   1    2.71    0.42
  27  -3   1    3.44    0.45
  28  -2   1    2.60    0.42
  28  -2   1    2.60    0.39
  28  -2   1    2.92    0.38
  28  -2   1    2.97    0.40
  28  -2   1    3.64    0.42
  28  -2   1    2.91    0.40
  28  -2   1    2.28    0.41
 -28   2  -1    2.65    0.43
 -28   2  -1    3.76    0.39
 -28   2  -1    3.46    0.40
  29  -1   1   70.56    4.84
  29  -1   1   74.83    4.85
  29  -1   1   68.81    4.88
  29  -1   1   72.21    4.86
  29  -1   1   78.80    4.85
  29  -1   1   76.88    4.84
 -29   1  -1   79.33    4.88
 -29   1  -1   85.44    4.90
 -29   1  -1   77.75    4.85
  30   0   1    0.39    0.20
  30   0   1   -0.15    0.23
  30   0   1   -0.02    0.25
  30   0   1    0.18    0.24
 -30   0  -1    0.02    0.18
 -30   0  -1    0.18    0.18
 -30   0  -1    0.47    0.24
  31   1   1   46.00    3.00
  31   1   1   43.12    2.99
  31   1   1   40.46    2.96
 -31  -1  -1   46.73    2.96
 -31  -1  -1   53.49    3.02
 -31  -1  -1   45.92    2.98
  26  -4   0   11.48    0.81
  26  -4   0   12.12    0.89
  26  -4   0   10.47    0.79
  26  -4   0    8.99    0.80
 -26   4   0   11.55    0.76
  27  -3   0    6.84    0.59
  27  -3   0    5.03    0.58
  27  -3   0    6.19    0.61
  27  -3   0    6.53    0.69
  27  -3   0    7.58    0.58
 -27   3   0    8.11    0.54
 -27   3   0    8.27    0.60
  28  -2   0   50.80    3.42
  28  -2   0   53.55    3.43
  28  -2   0   53.10    3.45
  28  -2   0   48.72    3.43
  28  -2   0   58.89    3.48
  28  -2   0   45.48    3.45
 -28   2   0   52.59    3.45
 -28   2   0   55.46    3.42
 -28   2   0   61.78    3.46
  29  -1   0    0.43    0.22
  29  -1   0    0.14    0.28
  29  -1   0   -0.08    0.18
  29  -1   0   -0.13    0.24
  29  -1   0    0.08    0.21
 -29   1   0    0.37    0.19
 -29   1   0    0.26    0.21
 -29   1   0    0.09    0.17
  30   0   0   49.22    3.26
  30   0   0   52.38    3.25
  30   0   0   49.02    3.27
  30   0   0   46.75    3.23
  30   0   0   48.33    3.26
 -30   0   0   53.48    3.27
 -30   0   0   48.62    3.22
 -30   0   0   57.13    3.29
  31   1   0    1.18    0.25
  31   1   0    0.59    0.28
  31   1   0    0.41    0.24
 -31  -1   0    1.34    0.22
 -31  -1   0    1.23    0.22
 -31  -1   0    1.02    0.25
  32   2   0   10.60    0.83
  32   2   0   10.40    0.83
  32   2   0   11.35    0.77
 -32  -2   0   10.93    0.90
 -32  -2   0   11.27    0.79
  26  -4  -1    0.57    0.19
  26  -4  -1    0.75    0.24
  26  -4  -1    0.99    0.26
  26  -4  -1    0.76    0.37
  26  -4  -1    0.92    0.20
  26  -4  -1    1.34    0.45
 -26   4   1    1.21    0.23
 -26   4   1    1.19    0.18
 -26   4   1    0.96    0.19
  27  -3  -1    3.82    0.37
  27  -3  -1    4.86    0.59
  27  -3  -1    2.58    0.37
  27  -3  -1    3.79    0.40
  27  -3  -1    3.42    0.51
  27  -3  -1    3.29    0.45
 -27   3   1    3.96    0.33
  28  -2  -1    3.14    0.39
  28  -2  -1    4.15    0.50
  28  -2  -1    2.44    0.32
  28  -2  -1    3.19    0.51
  28  -2  -1    2.67    0.37
  28  -2  -1    2.69    0.35
 -28   2   1    3.18    0.36
 -28   2   1    2.50    0.28
  29  -1  -1   85.17    5.18
  29  -1  -1   73.58    5.15
  29  -1  -1   66.45    5.13
  29  -1  -1   89.56    5.16
 -29   1   1   86.42    5.16
 -29   1   1   83.25    5.16
  30   0  -1    0.09    0.20
  30   0  -1    0.16    0.27
  30   0  -1    0.12    0.27
 -30   0   1    0.22    0.17
 -30   0   1    0.14    0.14
 -30   0   1    0.30    0.19
  31   1  -1   46.96    2.89
  31   1  -1   44.85    2.90
  31   1  -1   41.50    2.88
 -31  -1   1   44.65    2.89
 -31  -1   1   44.84    2.89
  26  -4  -2   13.55    0.94
  26  -4  -2   14.30    1.07
 -26   4   2   12.62    0.89
 -26   4   2   12.27    0.90
  27  -3  -2    3.30    0.37
  27  -3  -2    2.89    0.39
  27  -3  -2    4.75    0.55
 -27   3   2    2.86    0.30
 -27   3   2    2.25    0.32
  28  -2  -2   19.61    1.53
  28  -2  -2   23.01    1.57
  28  -2  -2   26.54    1.55
 -28   2   2   26.34    1.53
 -28   2   2   19.82    1.51
  29  -1  -2    0.76    0.30
  29  -1  -2    1.29    0.35
  29  -1  -2    0.29    0.20
  29  -1  -2    0.68    0.35
 -29   1   2    0.74    0.21
 -29   1   2    1.08    0.20
 -29   1   2    0.56    0.16
  30   0  -2   50.25    2.80
  30   0  -2   39.38    2.76
 -30   0   2   44.44    2.78
 -30   0   2   37.59    2.74
  31   1  -2    0.23    0.26
  31   1  -2    0.67    0.30
  31   1  -2    0.13    0.21
 -31  -1   2    0.34    0.15
 -31  -1   2    0.24    0.17
 -31  -1   2    0.34    0.17
  27  -3  -3    3.77    0.47
  27  -3  -3    4.57    0.63
 -27   3   3    3.30    0.32
 -27   3   3    2.97    0.34
  28  -2  -3    3.43    0.56
  28  -2  -3    2.42    0.40
  28  -2  -3    4.68    0.61
 -28   2   3    3.61    0.36
  29  -1  -3   68.56    4.20
  29  -1  -3   53.77    4.18
  29  -1  -3   69.49    4.17
 -29   1   3   65.70    4.10
  30   0  -3    0.08    0.28
  30   0  -3   -0.06    0.18
  30   0  -3    0.22    0.34
 -30   0   3    0.11    0.13
 -30   0   3    0.15    0.21
 -29   3  -2    0.19    0.18
 -29   3  -2    0.46    0.25
  30  -2   2   33.24    2.15
  30  -2   2   30.03    2.13
  30  -2   2   29.58    2.12
  30  -2   2   35.39    2.12
 -30   2  -2   34.59    2.15
 -30   2  -2   32.32    2.18
  31  -1   2   -0.08    0.24
  31  -1   2    0.39    0.26
  31  -1   2   -0.22    0.22
  31  -1   2   -0.22    0.23
 -31   1  -2   -0.02    0.23
 -31   1  -2    0.35    0.20
  32   0   2    9.80    0.85
  32   0   2   10.32    0.80
  32   0   2    9.72    0.84
 -32   0  -2   12.72    0.86
 -32   0  -2   11.78    0.80
  29  -3   1   43.74    2.96
  29  -3   1   46.80    2.92
  30  -2   1    2.14    0.37
  30  -2   1    1.80    0.36
  30  -2   1    2.62    0.33
  30  -2   1    1.92    0.34
  30  -2   1    2.46    0.36
  30  -2   1    1.95    0.36
  30  -2   1    2.16    0.31
 -30   2  -1    2.56    0.34
 -30   2  -1    2.25    0.34
 -30   2  -1    2.40    0.33
  31  -1   1   43.10    2.91
  31  -1   1   41.87    2.93
  31  -1   1   44.50    2.90
  31  -1   1   45.22    2.90
  31  -1   1   41.34    2.92
  31  -1   1   45.47    2.89
 -31   1  -1   47.90    2.93
 -31   1  -1   44.28    2.89
 -31   1  -1   50.61    2.95
  32   0   1    0.12    0.24
  32   0   1    0.28    0.18
 -32   0  -1    0.21    0.16
 -32   0  -1    0.19    0.21
  29  -3   0    1.77    0.26
  29  -3   0    1.76    0.31
  29  -3   0    1.05    0.36
  29  -3   0    1.95    0.41
  29  -3   0    1.22    0.29
 -29   3   0    1.63    0.28
 -29   3   0    1.93    0.25
  30  -2   0   42.76    2.81
  30  -2   0   46.61    2.82
  30  -2   0   40.81    2.77
  30  -2   0   43.32    2.80
  30  -2   0   41.25    2.78
  30  -2   0   41.30    2.76
  30  -2   0   38.79    2.80
 -30   2   0   42.93    2.80
 -30   2   0   48.85    2.80
  31  -1   0    1.19    0.50
  31  -1   0    0.60    0.20
  31  -1   0    0.67    0.26
  31  -1   0    1.00    0.24
  31  -1   0    0.46    0.22
 -31   1   0    0.74    0.19
 -31   1   0    0.83    0.23
 -31   1   0    0.79    0.20
  32   0   0    6.00    0.53
  32   0   0    4.83    0.54
  32   0   0    5.67    0.71
  32   0   0    5.49    0.45
  32   0   0    6.44    0.52
 -32   0   0    6.17    0.52
 -32   0   0    5.89    0.50
 -32   0   0    6.04    0.45
  33   1   0    1.24    0.24
  33   1   0    1.05    0.34
 -33  -1   0    1.16    0.21
 -33  -1   0    1.87    0.29
  29  -3  -1   42.03    2.83
  29  -3  -1   44.63    2.90
  29  -3  -1   48.03    2.83
 -29   3   1   41.29    2.82
  30  -2  -1    2.00    0.34
  30  -2  -1    1.70    0.26
  30  -2  -1    2.41    0.42
  30  -2  -1    2.46    0.35
  30  -2  -1    2.31    0.42
  30  -2  -1    2.78    0.32
  30  -2  -1    1.94    0.29
 -30   2   1    2.88    0.31
 -30   2   1    2.39    0.32
 -30   2   1    1.92    0.25
  31  -1  -1   41.07    2.96
  31  -1  -1   43.66    2.97
  31  -1  -1   52.17    2.98
  31  -1  -1   47.96    2.99
 -31   1   1   48.65    2.97
 -31   1   1   48.34    2.97
 -31   1   1   39.55    2.94
  32   0  -1    0.05    0.25
  32   0  -1    0.00    0.23
  32   0  -1   -0.01    0.26
 -32   0   1    0.30    0.18
 -32   0   1    0.38    0.28
 -29   3   2    0.66    0.18
  30  -2  -2   37.98    2.39
  30  -2  -2   40.28    2.43
  30  -2  -2   30.03    2.30
 -30   2   2   32.10    2.29
 -30   2   2   38.79    2.32
  31  -1  -2    0.31    0.34
  31  -1  -2    0.24    0.32
  31  -1  -2    0.00    0.19
  31  -1  -2   -0.02    0.29
 -31   1   2    0.43    0.17
 -31   1   2    0.49    0.18
 -31   1   2    0.11    0.12
  32   0  -2    9.68    0.77
  32   0  -2   11.29    0.82
  32   0  -2   12.02    0.84
 -32   0   2   11.36    0.76
 -32   0   2   10.69    0.77
 -32   0   2    9.06    0.73
  32  -2   0    9.69    0.75
  32  -2   0    9.98    0.79
  32  -2   0   10.59    0.83
  32  -2   0   10.70    0.83
  32  -2   0    9.92    0.80
  32  -2   0   10.77    0.80
 -32   2   0   11.85    0.78
 -32   2   0   11.05    0.79
  33  -1   0    1.51    0.28
 -33   1   0    1.34    0.25
 -33   1   0    1.54    0.25
   0   0   0    0.00    0.00
;
_shelx_hkl_checksum              83461
loop_
_symmetry_equiv_pos_as_xyz
'x, y, z'
'-x, -y, z+1/2'
'x, -y, z+1/2'
'-x, y, z'
'x+1/2, y+1/2, z'
'-x+1/2, -y+1/2, z+1/2'
'x+1/2, -y+1/2, z+1/2'
'-x+1/2, y+1/2, z'
loop_
_atom_site_label
_atom_site_type_symbol
_atom_site_fract_x
_atom_site_fract_y
_atom_site_fract_z
_atom_site_U_iso_or_equiv
_atom_site_adp_type
_atom_site_occupancy
_atom_site_calc_flag
_atom_site_disorder_assembly
_atom_site_disorder_group
Nb1 Nb 0.41524(12) 0.2487(4) 0.7370(5) 0.0214(6) Uani 1 d . .
Bi1 Bi 0.5 0.2383(4) 0.2727(9) 0.0244(7) Uani 0.5 d . .
Na1 Na 0.5 0.2383(4) 0.2727(9) 0.0244(7) Uani 0.5 d . .
Bi2 Bi 0.30038(5) 0.27052(18) 0.27444(2) 0.0297(6) Uani 1 d . .
O1 O 0.4142(7) 0.042(4) 0.411(4) 0.029(4) Uani 1 d . .
O2 O 0.4313(8) 0.531(3) 0.489(4) 0.025(4) Uani 1 d . .
O3 O 0.5 0.184(6) 0.692(6) 0.033(7) Uani 1 d . .
O4 O 0.2497(5) 0.507(5) 0.504(5) 0.023(5) Uani 1 d . .
O5 O 0.3411(8) 0.310(4) 0.710(4) 0.032(5) Uani 1 d . .
loop_
_atom_site_aniso_label
_atom_site_aniso_U_11
_atom_site_aniso_U_22
_atom_site_aniso_U_33
_atom_site_aniso_U_23
_atom_site_aniso_U_13
_atom_site_aniso_U_12
Nb1 0.0189(13) 0.0266(14) 0.0186(15) 0.0016(8) -0.0005(10) -0.0011(6)
Bi1 0.0174(12) 0.0300(12) 0.0259(14) 0.0044(16) 0 0
Na1 0.0174(12) 0.0300(12) 0.0259(14) 0.0044(16) 0 0
Bi2 0.0252(6) 0.0277(7) 0.0361(9) -0.0069(10) 0.0049(8) 0.0035(3)
O1 0.014(8) 0.033(10) 0.038(10) -0.005(8) -0.004(8) 0.003(7)
O2 0.029(9) 0.016(9) 0.031(10) 0.013(7) 0.000(8) 0.009(8)
O3 0.020(14) 0.034(15) 0.044(17) -0.002(13) 0 0
O4 0.010(7) 0.018(8) 0.041(15) -0.002(6) 0.002(8) 0.002(10)
O5 0.016(8) 0.027(9) 0.053(15) -0.005(9) 0.001(8) 0.004(8)
loop_
_atom_type_symbol
_atom_type_description
_atom_type_scat_dispersion_real
_atom_type_scat_dispersion_imag
_atom_type_scat_source
O O 0.0106 0.006 'International Tables Vol C Tables 4.2.6.8 and 6.1.1.4'
Na Na 0.0362 0.0249 'International Tables Vol C Tables 4.2.6.8 and 6.1.1.4'
Nb Nb -2.0727 0.6215 'International Tables Vol C Tables 4.2.6.8 and 6.1.1.4'
Bi Bi -4.1077 10.2566 'International Tables Vol C Tables 4.2.6.8 and 6.1.1.4'
loop_
_geom_angle_atom_site_label_1
_geom_angle_atom_site_label_2
_geom_angle_atom_site_label_3
_geom_angle
_geom_angle_site_symmetry_1
_geom_angle_site_symmetry_3
_geom_angle_publ_flag
O1 Nb1 O2 99.9(10) 3 3_565 ?
O1 Nb1 O5 100.4(9) 3 . ?
O2 Nb1 O5 98.8(9) 3_565 . ?
O1 Nb1 O2 165.5(9) 3 . ?
O2 Nb1 O2 88.1(2) 3_565 . ?
O5 Nb1 O2 90.3(9) . . ?
O1 Nb1 O1 88.8(3) 3 . ?
O2 Nb1 O1 165.5(9) 3_565 . ?
O5 Nb1 O1 91.0(9) . . ?
O2 Nb1 O1 81.1(9) . . ?
O1 Nb1 O3 86.1(11) 3 . ?
O2 Nb1 O3 88.9(11) 3_565 . ?
O5 Nb1 O3 168.9(12) . . ?
O2 Nb1 O3 81.9(10) . . ?
O1 Nb1 O3 80.0(10) . . ?
O1 Nb1 Bi1 113.0(6) 3 . ?
O2 Nb1 Bi1 116.2(6) 3_565 . ?
O5 Nb1 Bi1 124.6(8) . . ?
O2 Nb1 Bi1 52.4(6) . . ?
O1 Nb1 Bi1 49.3(5) . . ?
O3 Nb1 Bi1 44.2(9) . . ?
O1 Nb1 Bi1 46.3(6) 3 2_655 ?
O2 Nb1 Bi1 109.1(7) 3_565 2_655 ?
O5 Nb1 Bi1 138.9(7) . 2_655 ?
O2 Nb1 Bi1 119.6(5) . 2_655 ?
O1 Nb1 Bi1 68.8(5) . 2_655 ?
O3 Nb1 Bi1 43.1(9) . 2_655 ?
Bi1 Nb1 Bi1 68.59(8) . 2_655 ?
O1 Nb1 Bi1 131.5(6) 3 2_665 ?
O2 Nb1 Bi1 47.1(6) 3_565 2_665 ?
O5 Nb1 Bi1 116.8(7) . 2_665 ?
O2 Nb1 Bi1 48.3(7) . 2_665 ?
O1 Nb1 Bi1 118.7(6) . 2_665 ?
O3 Nb1 Bi1 63.2(9) . 2_665 ?
Bi1 Nb1 Bi1 70.93(9) . 2_665 ?
Bi1 Nb1 Bi1 104.30(8) 2_655 2_665 ?
O1 Nb1 Na1 64.9(6) 3 1_556 ?
O2 Nb1 Na1 44.5(7) 3_565 1_556 ?
O5 Nb1 Na1 129.7(7) . 1_556 ?
O2 Nb1 Na1 115.3(6) . 1_556 ?
O1 Nb1 Na1 133.3(5) . 1_556 ?
O3 Nb1 Na1 61.3(9) . 1_556 ?
Bi1 Nb1 Na1 104.66(8) . 1_556 ?
Bi1 Nb1 Na1 65.09(7) 2_655 1_556 ?
Bi1 Nb1 Na1 67.46(8) 2_665 1_556 ?
O3 Bi1 O3 93.5(10) . 2_654 ?
O3 Bi1 O1 69.2(6) . 4_655 ?
O3 Bi1 O1 68.7(6) 2_654 4_655 ?
O3 Bi1 O1 69.2(6) . . ?
O3 Bi1 O1 68.7(6) 2_654 . ?
O1 Bi1 O1 116.8(9) 4_655 . ?
O3 Bi1 O2 68.3(7) . . ?
O3 Bi1 O2 133.1(6) 2_654 . ?
O1 Bi1 O2 132.7(8) 4_655 . ?
O1 Bi1 O2 64.4(6) . . ?
O3 Bi1 O2 68.3(7) . 4_655 ?
O3 Bi1 O2 133.1(6) 2_654 4_655 ?
O1 Bi1 O2 64.4(6) 4_655 4_655 ?
O1 Bi1 O2 132.7(8) . 4_655 ?
O2 Bi1 O2 81.4(10) . 4_655 ?
O3 Bi1 O2 130.4(6) . 3_564 ?
O3 Bi1 O2 111.0(7) 2_654 3_564 ?
O1 Bi1 O2 159.5(7) 4_655 3_564 ?
O1 Bi1 O2 80.2(6) . 3_564 ?
O2 Bi1 O2 63.4(4) . 3_564 ?
O2 Bi1 O2 113.5(4) 4_655 3_564 ?
O3 Bi1 O2 130.4(6) . 2_664 ?
O3 Bi1 O2 111.0(7) 2_654 2_664 ?
O1 Bi1 O2 80.2(6) 4_655 2_664 ?
O1 Bi1 O2 159.5(7) . 2_664 ?
O2 Bi1 O2 113.5(4) . 2_664 ?
O2 Bi1 O2 63.4(4) 4_655 2_664 ?
O2 Bi1 O2 81.0(9) 3_564 2_664 ?
O3 Bi1 Nb1 40.42(16) . . ?
O3 Bi1 Nb1 99.4(6) 2_654 . ?
O1 Bi1 Nb1 108.5(5) 4_655 . ?
O1 Bi1 Nb1 39.7(5) . . ?
O2 Bi1 Nb1 39.2(4) . . ?
O2 Bi1 Nb1 93.3(5) 4_655 . ?
O2 Bi1 Nb1 91.9(4) 3_564 . ?
O2 Bi1 Nb1 149.5(3) 2_664 . ?
O3 Bi1 Nb1 40.42(16) . 4_655 ?
O3 Bi1 Nb1 99.4(6) 2_654 4_655 ?
O1 Bi1 Nb1 39.7(5) 4_655 4_655 ?
O1 Bi1 Nb1 108.5(5) . 4_655 ?
O2 Bi1 Nb1 93.3(5) . 4_655 ?
O2 Bi1 Nb1 39.2(4) 4_655 4_655 ?
O2 Bi1 Nb1 149.5(3) 3_564 4_655 ?
O2 Bi1 Nb1 91.9(4) 2_664 4_655 ?
Nb1 Bi1 Nb1 79.27(14) . 4_655 ?
O3 Bi1 Nb1 87.5(7) . 3_554 ?
O3 Bi1 Nb1 38.87(13) 2_654 3_554 ?
O1 Bi1 Nb1 102.2(5) 4_655 3_554 ?
O1 Bi1 Nb1 32.2(5) . 3_554 ?
O2 Bi1 Nb1 95.6(4) . 3_554 ?
O2 Bi1 Nb1 155.1(4) 4_655 3_554 ?
O2 Bi1 Nb1 86.4(4) 3_564 3_554 ?
O2 Bi1 Nb1 138.0(4) 2_664 3_554 ?
Nb1 Bi1 Nb1 70.23(8) . 3_554 ?
Nb1 Bi1 Nb1 116.99(12) 4_655 3_554 ?
O3 Bi1 Nb1 87.5(7) . 2_654 ?
O3 Bi1 Nb1 38.87(13) 2_654 2_654 ?
O1 Bi1 Nb1 32.2(5) 4_655 2_654 ?
O1 Bi1 Nb1 102.2(5) . 2_654 ?
O2 Bi1 Nb1 155.1(4) . 2_654 ?
O2 Bi1 Nb1 95.6(4) 4_655 2_654 ?
O2 Bi1 Nb1 138.0(4) 3_564 2_654 ?
O2 Bi1 Nb1 86.4(4) 2_664 2_654 ?
Nb1 Bi1 Nb1 116.99(12) . 2_654 ?
Nb1 Bi1 Nb1 70.23(8) 4_655 2_654 ?
Nb1 Bi1 Nb1 76.75(10) 3_554 2_654 ?
O4 Bi2 O4 74.9(6) . 8_545 ?
O4 Bi2 O4 75.2(3) . 3_564 ?
O4 Bi2 O4 112.9(5) 8_545 3_564 ?
O4 Bi2 O4 114.6(5) . 6_554 ?
O4 Bi2 O4 70.6(2) 8_545 6_554 ?
O4 Bi2 O4 70.0(6) 3_564 6_554 ?
O4 Bi2 O5 77.2(8) . 3_564 ?
O4 Bi2 O5 150.0(9) 8_545 3_564 ?
O4 Bi2 O5 69.6(7) 3_564 3_564 ?
O4 Bi2 O5 132.6(8) 6_554 3_564 ?
O4 Bi2 O5 69.4(7) . . ?
O4 Bi2 O5 76.0(8) 8_545 . ?
O4 Bi2 O5 139.7(8) 3_564 . ?
O4 Bi2 O5 143.3(8) 6_554 . ?
O5 Bi2 O5 84.1(7) 3_564 . ?
Nb1 O1 Nb1 153.3(12) 3_554 . ?
Nb1 O1 Bi1 101.5(8) 3_554 . ?
Nb1 O1 Bi1 91.0(7) . . ?
Nb1 O2 Nb1 155.5(12) 3_564 . ?
Nb1 O2 Bi1 101.3(9) 3_564 . ?
Nb1 O2 Bi1 88.3(6) . . ?
Nb1 O2 Bi1 105.5(8) 3_564 2_665 ?
Nb1 O2 Bi1 95.3(8) . 2_665 ?
Bi1 O2 Bi1 97.8(6) . 2_665 ?
Nb1 O3 Nb1 156.8(18) . 4_655 ?
Nb1 O3 Bi1 95.3(9) . . ?
Nb1 O3 Bi1 95.3(9) 4_655 . ?
Nb1 O3 Bi1 98.0(9) . 2_655 ?
Nb1 O3 Bi1 98.0(9) 4_655 2_655 ?
Bi1 O3 Bi1 108.3(13) . 2_655 ?
Bi2 O4 Bi2 111.5(11) . 8 ?
Bi2 O4 Bi2 111.4(5) . 3_565 ?
Bi2 O4 Bi2 108.9(11) 8 3_565 ?
Bi2 O4 Bi2 105.9(11) . 6 ?
Bi2 O4 Bi2 116.3(5) 8 6 ?
Bi2 O4 Bi2 102.4(10) 3_565 6 ?
Nb1 O5 Bi2 123.0(10) . 3_565 ?
Nb1 O5 Bi2 116.0(10) . . ?
Bi2 O5 Bi2 92.7(7) 3_565 . ?
loop_
_geom_bond_atom_site_label_1
_geom_bond_atom_site_label_2
_geom_bond_distance
_geom_bond_site_symmetry_2
_geom_bond_publ_flag
Nb1 O1 1.85(2) 3 ?
Nb1 O2 1.878(17) 3_565 ?
Nb1 O5 1.88(2) . ?
Nb1 O2 2.096(16) . ?
Nb1 O1 2.12(2) . ?
Nb1 O3 2.157(7) . ?
Nb1 Bi1 3.312(5) . ?
Nb1 Bi1 3.403(3) 2_655 ?
Nb1 Bi1 3.516(3) 2_665 ?
Nb1 Na1 3.623(5) 1_556 ?
Bi1 O3 2.32(3) . ?
Bi1 O3 2.35(3) 2_654 ?
Bi1 O1 2.511(19) 4_655 ?
Bi1 O1 2.511(19) . ?
Bi1 O2 2.63(2) . ?
Bi1 O2 2.63(2) 4_655 ?
Bi1 O2 2.64(2) 3_564 ?
Bi1 O2 2.64(2) 2_664 ?
Bi2 O4 2.20(2) . ?
Bi2 O4 2.29(2) 8_545 ?
Bi2 O4 2.30(2) 3_564 ?
Bi2 O4 2.46(2) 6_554 ?
Bi2 O5 2.53(2) 3_564 ?
Bi2 O5 2.61(2) . ?
