#------------------------------------------------------------------------------
#$Date: 2021-09-04 00:59:46 +0300 (Sat, 04 Sep 2021) $
#$Revision: 268449 $
#$URL: file:///home/coder/svn-repositories/cod/cif/4/00/40/4004025.cif $
#------------------------------------------------------------------------------
#
# This file is available in the Crystallography Open Database (COD),
# http://www.crystallography.net/
#
# All data on this site have been placed in the public domain by the
# contributors.
#
data_4004025
loop_
_publ_author_name
'Chu, Yu'
'Wang, Peng'
'Zeng, Hao'
'Cheng, Shichao'
'Su, Xin'
'Yang, Zhihua'
'Li, Junjie'
'Pan, Shilie'
_publ_section_title
;
 Hg3P2S8: A New Promising Infrared Nonlinear Optical Material with a Large
 Second-Harmonic Generation and a High Laser-Induced Damage Threshold
;
_journal_issue                   16
_journal_name_full               'Chemistry of Materials'
_journal_page_first              6514
_journal_page_last               6521
_journal_paper_doi               10.1021/acs.chemmater.1c01982
_journal_volume                  33
_journal_year                    2021
_chemical_formula_moiety         'Hg3 P2 S8'
_chemical_formula_sum            'Hg3 P2 S8'
_chemical_formula_weight         920.19
_space_group_crystal_system      orthorhombic
_space_group_IT_number           41
_space_group_name_Hall           'A 2 -2ab'
_space_group_name_H-M_alt        'A e a 2'
_atom_sites_solution_primary     dual
_audit_creation_date             2021-03-26
_audit_creation_method
;
Olex2 1.3
(compiled 2020.07.31 svn.rc2a77460 for OlexSys, GUI svn.r6145)
;
_cell_angle_alpha                90
_cell_angle_beta                 90
_cell_angle_gamma                90
_cell_formula_units_Z            4
_cell_length_a                   16.52(2)
_cell_length_b                   8.223(10)
_cell_length_c                   9.293(11)
_cell_measurement_reflns_used    1382
_cell_measurement_temperature    296.15
_cell_measurement_theta_max      27.42
_cell_measurement_theta_min      3.53
_cell_volume                     1262(3)
_computing_cell_refinement       'SAINT V8.38A (Bruker, 2018)'
_computing_data_reduction        'SAINT V8.38A (Bruker, 2018)'
_computing_molecular_graphics    'Olex2 1.3 (Dolomanov et al., 2009)'
_computing_publication_material  'Olex2 1.3 (Dolomanov et al., 2009)'
_computing_structure_refinement  'SHELXL 2018/3 (Sheldrick, 2015)'
_computing_structure_solution    'SHELXT 2018/2 (Sheldrick, 2018)'
_diffrn_ambient_temperature      296.15
_diffrn_measured_fraction_theta_full 0.998
_diffrn_measured_fraction_theta_max 0.993
_diffrn_measurement_device_type  'Bruker APEX-II CCD'
_diffrn_measurement_method       '\f and \w scans'
_diffrn_radiation_type           MoK\a
_diffrn_radiation_wavelength     0.71073
_diffrn_reflns_av_R_equivalents  0.0463
_diffrn_reflns_av_unetI/netI     0.0655
_diffrn_reflns_Laue_measured_fraction_full 0.998
_diffrn_reflns_Laue_measured_fraction_max 0.993
_diffrn_reflns_limit_h_max       14
_diffrn_reflns_limit_h_min       -21
_diffrn_reflns_limit_k_max       10
_diffrn_reflns_limit_k_min       -10
_diffrn_reflns_limit_l_max       11
_diffrn_reflns_limit_l_min       -12
_diffrn_reflns_number            3653
_diffrn_reflns_point_group_measured_fraction_full 0.959
_diffrn_reflns_point_group_measured_fraction_max 0.954
_diffrn_reflns_theta_full        25.242
_diffrn_reflns_theta_max         27.416
_diffrn_reflns_theta_min         2.466
_exptl_absorpt_coefficient_mu    37.927
_exptl_absorpt_correction_T_max  0.7456
_exptl_absorpt_correction_T_min  0.2742
_exptl_absorpt_correction_type   multi-scan
_exptl_absorpt_process_details
'SADABS-2016/2 (Bruker,2016/2) was used for absorption correction. wR2(int) was 0.1398 before and 0.0645 after correction. The Ratio of minimum to maximum transmission is 0.3678. The \l/2 correction factor is Not present.'
_exptl_crystal_colour            'clear yellowish white'
_exptl_crystal_colour_lustre     clear
_exptl_crystal_colour_modifier   yellowish
_exptl_crystal_colour_primary    white
_exptl_crystal_density_diffrn    4.842
_exptl_crystal_description       block
_exptl_crystal_F_000             1592
_exptl_crystal_size_max          0.16
_exptl_crystal_size_mid          0.15
_exptl_crystal_size_min          0.12
_refine_diff_density_max         1.395
_refine_diff_density_min         -1.782
_refine_diff_density_rms         0.350
_refine_ls_abs_structure_details
;
 Flack x determined using 451 quotients [(I+)-(I-)]/[(I+)+(I-)]
 (Parsons, Flack and Wagner, Acta Cryst. B69 (2013) 249-259).
;
_refine_ls_abs_structure_Flack   0.003(17)
_refine_ls_extinction_coef       0.0059(2)
_refine_ls_extinction_expression Fc^*^=kFc[1+0.001xFc^2^\l^3^/sin(2\q)]^-1/4^
_refine_ls_extinction_method     'SHELXL-2018/3 (Sheldrick 2018)'
_refine_ls_goodness_of_fit_ref   0.969
_refine_ls_hydrogen_treatment    undef
_refine_ls_matrix_type           full
_refine_ls_number_parameters     61
_refine_ls_number_reflns         1371
_refine_ls_number_restraints     1
_refine_ls_restrained_S_all      0.969
_refine_ls_R_factor_all          0.0366
_refine_ls_R_factor_gt           0.0309
_refine_ls_shift/su_max          0.000
_refine_ls_shift/su_mean         0.000
_refine_ls_structure_factor_coef Fsqd
_refine_ls_weighting_details     'w=1/[\s^2^(Fo^2^)] where P=(Fo^2^+2Fc^2^)/3'
_refine_ls_weighting_scheme      calc
_refine_ls_wR_factor_gt          0.0682
_refine_ls_wR_factor_ref         0.0713
_reflns_Friedel_coverage         0.804
_reflns_Friedel_fraction_full    0.914
_reflns_Friedel_fraction_max     0.909
_reflns_number_gt                1181
_reflns_number_total             1371
_reflns_threshold_expression     'I > 2\s(I)'
_cod_data_source_file            cm1c01982_si_002.cif
_cod_data_source_block           2
_cod_original_sg_symbol_Hall     'A 2 -2ac'
_cod_database_code               4004025
_shelx_shelxl_version_number     2018/3
_shelx_space_group_comment
;
The symmetry employed for this shelxl refinement is uniquely defined
by the following loop, which should always be used as a source of
symmetry information in preference to the above space-group names.
They are only intended as comments.
;
_olex2_refinement_description
;
;
_shelx_res_file
;
TITL 2_a.res in Aba2
    2.res
    created by SHELXL-2018/3 at 00:15:56 on 26-Mar-2021
REM Old TITL 2 in Aba2
REM SHELXT solution in Aba2: R1 0.143, Rweak 0.003, Alpha 0.015
REM <I/s> 1.119 for 74 systematic absences, Orientation as input
REM Flack x = 0.052 ( 0.019 ) from 440 Parsons' quotients
REM Formula found by SHELXT: P2 Cl8 Hg3
CELL 0.71073 16.5174 8.2231 9.2928 90 90 90
ZERR 4 0.02 0.0099 0.0113 0 0 0
LATT -5
SYMM -X,-Y,+Z
SYMM 0.5+X,0.5-Y,+Z
SYMM 0.5-X,0.5+Y,+Z
SFAC Hg P S
UNIT 12 8 32

L.S. 20
PLAN  4
TEMP 23
CONF
list 4
MORE -1
fmap 2
acta
OMIT 4 1 -1
OMIT 4 4 0
REM <olex2.extras>
REM <HklSrc "%.\\2.hkl">
REM </olex2.extras>

WGHT    0.000000
EXTI    0.005927
FVAR       0.14405
HG1   1    0.500000    0.500000    0.299447    10.50000    0.01961    0.01995 =
         0.04078    0.00000    0.00000    0.00981
HG2   1    0.255361    0.500151    0.700812    11.00000    0.01582    0.02611 =
         0.03023    0.00234   -0.00152   -0.00555
P1    2    0.371262    0.764060    0.469746    11.00000    0.00690    0.01345 =
         0.01296   -0.00150    0.00301    0.00082
S1    3    0.466264    0.781510    0.327848    11.00000    0.01264    0.01536 =
         0.02321    0.00175    0.00775    0.00265
S2    3    0.389168    0.562425    0.592773    11.00000    0.00931    0.02179 =
         0.02561    0.01204    0.00001    0.00301
S3    3    0.256824    0.757021    0.376876    11.00000    0.00924    0.01237 =
         0.01680   -0.00048   -0.00295   -0.00090
S4    3    0.377982    0.985108    0.574663    11.00000    0.00723    0.01805 =
         0.02120   -0.00615   -0.00096   -0.00120
HKLF 4




REM  2_a.res in Aba2
REM wR2 = 0.0713, GooF = S = 0.969, Restrained GooF = 0.969 for all data
REM R1 = 0.0309 for 1181 Fo > 4sig(Fo) and 0.0366 for all 1371 data
REM 61 parameters refined using 1 restraints

END

WGHT      0.0000      0.0000

REM Highest difference peak  1.395,  deepest hole -1.782,  1-sigma level  0.350
Q1    1   0.5016  0.6087  0.3572  11.00000  0.05    1.25
Q2    1   0.4852  0.6085  0.2448  11.00000  0.05    1.21
Q3    1   0.5000  0.5000  0.3767  10.50000  0.05    1.20
Q4    1   0.2564  0.3820  0.7572  11.00000  0.05    1.15
;
_shelx_res_checksum              95976
_shelx_hkl_file
;
   0  -2   0 3548.34  270.97
   0  -4   0 6055.29  475.35
   0   4   0 6381.76  474.15
   0   6   0 2533.55  189.88
   0  -6   0 2399.06  191.48
   0  -8   0 2924.41  238.68
   0   8   0 3210.78  236.78
   0  -1  -1   20.10    2.80
   0   1  -1   22.40    2.50
   0  -1  -1   26.80    3.10
   0  -1   1   22.10    3.50
   0  -3  -1    4.10    1.90
   0   3  -1   17.30    4.60
   0   3  -1    5.20    1.50
   0  -3   1    3.50    1.60
   0   5  -1   -0.60    5.10
   0  -5  -1   -0.50    2.40
   0   5  -1    3.00    2.00
   0   5   1    2.50    1.60
   0  -5   1    4.50    2.60
   0  -7  -1    2.40    3.60
   0   7   1    1.50    2.90
   0  -7   1    2.70    3.80
   0   7  -1    0.50    2.70
   0   9  -1    0.20    4.30
   0  -9  -1    3.70    5.80
   0   0  -2 2796.22  209.98
   0   0   2 2676.33  210.48
   0   0  -2 2792.82  210.68
   0  -2  -2 4588.94  395.26
   0   2  -2 5418.66  394.56
   0  -2  -2 5540.25  395.36
   0   2  -2 5148.98  394.76
   0   4  -2 2728.73  205.08
   0  -4  -2 2695.23  206.48
   0   4  -2 2623.94  205.98
   0  -4   2 2645.34  205.78
   0   6   2 2899.41  230.68
   0   6  -2 3178.58  231.88
   0  -6  -2 2964.50  233.48
   0   8  -2 1058.99   80.89
   0  -8  -2  958.90   82.59
   0  10  -2 1080.49   87.29
   0 -10  -2 1062.09   89.99
   0   1  -3   -0.30    1.00
   0  -1  -3   -0.10    1.40
   0  -1   3    1.80    1.90
   0  -1  -3    0.50    1.40
   0   1  -3    2.10    1.40
   0  -3   3    0.20    2.50
   0   3  -3    0.00    1.40
   0  -3  -3    1.20    2.00
   0   3  -3    2.30    1.60
   0  -3  -3    0.00    1.90
   0   5  -3    0.40    2.50
   0   5   3    2.50    1.80
   0   5  -3   -0.70    1.80
   0  -5   3    3.50    2.90
   0  -5  -3    1.10    2.80
   0   7  -3    2.00    3.30
   0  -7  -3   -1.20    3.60
   0  -9  -3   -3.20    4.80
   0   9  -3    0.80    4.30
   0   0   4  306.47   24.60
   0   0  -4  283.37   24.50
   0   0  -4  284.67   23.30
   0  -2   4  866.91   72.39
   0  -2  -4  903.41   70.79
   0   2  -4  907.01   69.49
   0   2  -4  924.71   70.09
   0  -2  -4  840.12   70.69
   0   4  -4  588.54   47.70
   0  -4   4  573.44   48.60
   0  -4  -4  573.94   49.30
   0   4  -4  615.24   47.80
   0  -4  -4  623.54   50.09
   0  -6  -4  682.73   56.29
   0   6  -4  647.34   53.89
   0   8  -4  407.06   38.00
   0  -8  -4  483.95   41.70
   0 -10  -4  189.48   25.70
   0  10  -4  148.49   20.50
   0  -1   5    1.00    2.50
   0  -1  -5   -0.70    1.60
   0   1   5   -0.20    2.10
   0   1  -5    3.20    2.10
   0  -1  -5    3.90    2.20
   0   1  -5   -0.90    1.50
   0  -3  -5    4.30    3.10
   0  -3   5   -0.40    4.90
   0  -3  -5   -0.20    2.50
   0   3  -5    0.00    2.10
   0   3  -5    1.60    2.20
   0  -5  -5    3.00    4.40
   0  -5  -5   -1.00    2.90
   0   5  -5   -0.50    2.70
   0  -7  -5    4.40    5.50
   0   7  -5    0.00    3.50
   0   9  -5    4.30    6.20
   0  -9  -5    2.00    7.50
   0   0  -6  813.22   67.29
   0   0  -6  829.92   65.19
   0   0   6  851.31   67.19
   0  -2  -6  521.75   44.90
   0   2  -6  539.65   43.10
   0   2  -6  533.65   44.10
   0  -4  -6  780.72   67.29
   0  -4  -6  788.82   66.89
   0   4  -6  792.92   64.59
   0   4  -6  856.01   65.19
   0   6  -6  347.57   31.20
   0  -6  -6  359.56   34.30
   0  -8  -6  379.66   37.70
   0   8  -6  367.56   34.00
   0  -1   7   -0.70    3.10
   0   1  -7    0.30    3.00
   0   1  -7   -1.30    1.70
   0   1   7   -1.60    3.00
   0  -1  -7   -0.50    2.80
   0   3   7   -3.50    3.80
   0   3  -7   -2.70    2.80
   0   3  -7    1.00    3.00
   0  -3  -7   -1.30    3.20
   0   5  -7   -1.60    3.30
   0  -5  -7   -0.60    3.90
   0  -5  -7   -2.60    5.10
   0  -7  -7   -0.90    5.90
   0   7  -7   -1.60    4.30
   0   0  -8 2142.59  183.28
   0   0   8 2550.94  184.68
   0   2   8 2038.40  163.18
   0   2  -8 2101.19  162.08
   0  -2  -8 2045.60  163.08
   0   4  -8 1461.85  125.69
   0   4  -8 1874.91  135.19
   0  -4  -8 1510.15  129.29
   0   4   8 1665.93  129.79
   0   6   8 1158.98  104.59
   0  -6  -8 1302.47  105.79
   0  -6  -8 1306.37  105.09
   0   6  -8 1268.57  101.09
   0  -1  -9   -1.10    4.00
   0   1  -9    1.70    4.70
   0   1   9    0.10    5.60
   0   3  -9   -1.90    3.40
   0  -3  -9    6.00    5.50
   0   3   9   -1.00    5.20
   0   3  -9   -1.40    4.40
   0  -5  -9   -0.70    5.70
   0   5  -9    2.80    5.10
   0   5   9    3.90    7.10
   0   7   9   -1.10    8.30
   0   7  -9    0.20    7.10
   0   0 -10 1433.96  116.29
   0  -2 -10 1371.06  109.59
   0   2 -10 1330.37  107.79
   0   2  10 1278.57  109.19
   0  -4 -10 1002.00   76.19
   0   4  10  733.33   73.39
   0  -1 -11    1.70    6.70
   0   1 -11   -2.60    5.20
   0  -3 -11    1.90    7.80
   0   3  11   -3.10    7.50
   0   0 -12  296.57   32.20
  -1  -2   0    3.50    1.70
   1  -2   0    1.40    1.10
   1   2   0    2.10    0.90
   1   4   0   97.19    8.80
   1  -4   0   94.69    9.60
  -1  -4   0   97.19   10.40
   1  -6   0   42.80    7.50
  -1   6   0   40.80    5.90
   1   6   0   39.70    6.00
  -1  -6   0   29.20    6.70
   1  -8   0   12.80    5.10
  -1  -8   0   12.90    6.10
  -1   8   0   14.80    4.80
   1   8   0   18.80    5.50
  -1  -1  -1  934.31   74.19
  -1  -1  -1 1037.10   74.09
   1   1  -1 1037.10   80.39
  -1  -1   1  884.01   75.59
  -1   1  -1  982.80   74.79
   1  -1  -1 1059.99   80.79
   1   3  -1 1353.46  104.09
   1   3  -1 1354.66  105.09
  -1  -3  -1 1386.66   96.49
   1  -3   1 1374.56  104.39
   1  -3  -1 1364.06  104.89
  -1   3  -1 1056.19   98.39
   1   3   1 1317.37  103.59
  -1  -3   1 1220.48   96.19
   1   5  -1  545.75   47.50
   1   5  -1  548.45   44.00
  -1  -5  -1  529.05   40.00
  -1   5  -1  554.04   38.40
   1  -5  -1  558.14   45.30
  -1   5  -1  385.16   43.20
  -1  -5   1  395.86   39.00
  -1   7   1  869.61   67.99
  -1  -7  -1  873.21   70.69
   1  -7   1  813.62   70.19
   1   7  -1  893.31   69.29
  -1   7  -1  885.21   68.49
   1   7   1  876.11   68.79
   1  -7  -1  900.41   71.09
  -1  -7   1  803.22   69.99
  -1  -9  -1  222.78   24.80
   1   9  -1  211.88   21.40
   1  -9  -1  219.88   23.40
  -1   9  -1  244.68   22.90
  -1   0   2   16.10    2.90
  -1   0  -2   26.50    3.00
   1   0  -2   16.10    2.60
  -1   0  -2   13.90    2.70
   1  -2   2   62.69    5.80
  -1  -2  -2   45.30    6.30
   1   2  -2   57.19    5.70
  -1  -2  -2   58.49    6.00
   1   2  -2   59.89    5.40
  -1   2  -2   54.99    6.60
   1  -2  -2   47.00    6.60
   1  -2  -2   50.89    7.10
   1  -4   2    8.50    2.60
   1   4  -2    7.60    2.40
   1   4  -2    5.70    2.10
  -1  -4  -2   11.40    3.60
  -1   4  -2    9.80    4.00
  -1  -4   2    7.20    3.40
   1   4   2    6.40    1.70
  -1   4  -2    7.10    2.30
   1  -4  -2    4.80    2.60
  -1  -6  -2   34.00    7.20
   1  -6   2   40.00    6.70
   1   6  -2   26.80    5.20
  -1   6   2   27.60    4.80
  -1  -6   2   31.20    6.80
   1  -6  -2   30.60    6.60
  -1   6  -2   24.60    5.20
   1   6   2   27.20    4.80
  -1   6  -2   43.80   11.10
   1   8  -2   46.60    8.30
  -1  -8  -2   36.10    9.10
  -1   8  -2   38.10    7.50
   1  -8  -2   57.29   10.90
  -1 -10  -2   25.40    9.70
   1  10  -2    2.20    6.70
   1 -10  -2   24.50    9.40
  -1  10  -2   12.40    6.80
   1   1  -3 1217.18   91.79
  -1   1   3 1159.18   92.79
   1   1  -3 1212.18   92.09
   1  -1   3 1154.38   91.99
  -1  -1  -3 1176.28   92.79
  -1  -1  -3 1204.78   92.59
  -1   1  -3 1200.28   91.69
  -1   1  -3 1215.48   92.69
   1  -1  -3 1179.08   92.69
  -1  -1   3 1199.28   93.49
  -1  -3  -3  956.70   79.29
   1  -3   3 1053.19   81.39
   1   3  -3 1081.59   81.09
  -1  -3  -3  998.60   79.59
   1   3  -3  993.70   81.29
  -1   3  -3  978.70   78.89
   1  -3  -3 1001.10   82.39
  -1   3  -3  974.30   78.19
   1  -3  -3 1027.70   83.09
  -1  -3   3 1153.28   81.29
   1   3   3 1088.69   79.89
   1  -5   3  358.26   28.30
   1   5  -3  325.67   28.00
  -1  -5  -3  300.97   28.20
   1  -5  -3  294.87   29.20
  -1  -5   3  320.47   27.90
  -1   5  -3  304.67   26.50
  -1   5  -3  331.97   27.90
   1   5   3  344.87   26.60
  -1  -7  -3  312.87   31.30
   1   7  -3  328.77   29.30
  -1   7  -3  367.26   29.80
   1  -7  -3  343.47   31.40
  -1  -9  -3  116.49   17.60
   1   9  -3  113.09   15.30
  -1   9  -3   96.79   14.00
   1  -9  -3  119.49   18.10
   1   0  -4    2.40    1.40
   1   0  -4    1.70    1.90
  -1   0  -4    1.60    1.70
  -1   0  -4    2.80    1.30
   1   0   4   -0.80    1.00
  -1   0   4    0.70    1.80
   1   2  -4    7.70    2.50
  -1  -2  -4    7.90    3.00
   1  -2   4    4.70    3.90
   1   2  -4    4.90    2.20
  -1  -2  -4    8.80    3.00
   1  -2  -4   10.90    3.40
  -1   2  -4    7.30    2.70
   1  -2  -4    8.90    3.20
  -1  -2   4   10.90    4.70
  -1   2  -4    8.30    2.30
   1   4  -4    5.50    2.50
  -1  -4  -4   10.50    4.40
   1   4  -4    4.30    2.90
   1  -4   4    6.20    2.80
  -1  -4  -4    4.20    3.10
   1  -4  -4    3.30    3.20
   1  -4  -4    4.30    3.60
  -1   4  -4    3.60    2.50
  -1   4  -4    5.20    2.70
  -1  -4   4   10.10    4.80
  -1  -6  -4    2.40    3.90
   1   6  -4    4.10    3.20
  -1   6  -4    1.10    2.90
   1  -6  -4    0.00    3.30
   1   8  -4    0.20    3.80
  -1  -8  -4   14.90    7.30
  -1   8  -4   23.00    6.50
   1  -8  -4    4.20    5.50
   1  10  -4   16.70    8.40
  -1 -10  -4   37.40   13.50
  -1  10  -4   34.80    9.70
   1 -10  -4   12.60    9.30
  -1  -1  -5  639.74   51.39
  -1   1   5  645.24   53.79
   1  -1   5  601.04   51.79
   1   1  -5  673.83   52.09
   1   1  -5  735.93   51.29
  -1  -1  -5  657.53   54.29
   1  -1  -5  587.34   50.99
  -1  -1   5  627.64   54.19
  -1   1  -5  685.23   52.09
   1  -1  -5  639.24   52.29
  -1   1  -5  722.93   53.89
   1   1   5  637.74   52.19
   1   3  -5  937.51   71.09
  -1  -3  -5  896.21   71.89
   1  -3   5  852.41   72.79
  -1  -3  -5  900.31   72.09
   1   3  -5  907.61   70.99
   1  -3  -5  841.42   73.09
   1  -3  -5  947.61   72.89
  -1   3  -5  885.61   69.99
  -1   3  -5  936.71   70.99
  -1  -3   5  806.62   73.99
  -1  -5  -5  486.15   44.60
   1   5  -5  531.15   43.00
  -1  -5  -5  569.34   45.90
  -1   5  -5  526.25   42.90
  -1   5  -5  494.45   42.40
   1  -5  -5  508.45   44.90
  -1  -7  -5  714.43   59.99
   1   7  -5  710.23   57.79
   1  -7  -5  688.43   60.19
  -1   7  -5  664.73   56.69
  -1  -9  -5  231.28   28.00
   1   9  -5  203.18   22.20
   1  -9  -5  168.78   24.10
  -1   9  -5  181.08   22.40
  -1   0  -6    0.00    1.90
  -1   0   6    2.40    3.40
   1   0  -6    2.80    2.50
   1   0   6    2.70    2.80
   1   0  -6    0.50    2.20
  -1   0  -6   -0.30    2.20
   1  -2   6   11.70    5.80
  -1  -2  -6   13.30    4.50
   1   2  -6   11.90    3.70
  -1  -2  -6   26.60    6.10
  -1   2   6   12.00    5.00
   1   2  -6   14.20    4.00
   1  -2  -6   20.00    5.30
  -1  -2   6   10.80    6.70
  -1   2  -6   11.10    3.60
  -1   2  -6   15.10    4.50
   1   4  -6    9.20    4.00
  -1  -4  -6    1.20    3.70
   1   4  -6    4.60    3.20
  -1  -4  -6    2.30    4.00
   1  -4  -6    4.60    4.30
  -1   4  -6    8.50    3.80
   1  -4  -6    8.60    4.90
  -1   4  -6    7.40    3.50
   1   6  -6    6.80    4.50
  -1  -6  -6   14.40    7.10
  -1  -6  -6   15.30    7.10
   1  -6  -6   17.10    7.30
  -1   6  -6    9.00    4.70
   1   8  -6    2.70    5.00
  -1  -8  -6   13.30    8.90
  -1   8  -6    2.80    5.00
   1  -8  -6   10.10    7.80
  -1  -1  -7  328.57   31.70
   1  -1   7  372.96   32.60
   1   1  -7  362.76   31.60
  -1   1   7  370.26   32.30
   1   1  -7  315.47   29.80
   1   1   7  390.86   32.20
  -1   1  -7  331.07   29.20
   1  -1  -7  350.86   31.90
  -1   1  -7  365.26   31.50
  -1  -1   7  381.36   33.40
   1   3  -7  271.67   25.80
  -1  -3  -7  294.47   28.50
   1   3  -7  310.87   26.70
  -1  -3  -7  295.97   28.40
  -1   3   7  384.26   29.90
   1  -3  -7  309.47   28.80
  -1   3  -7  278.27   25.80
  -1   3  -7  268.27   26.60
   1   5  -7  151.88   17.30
  -1  -5  -7  154.68   19.80
  -1   5   7   87.39   16.70
  -1  -5  -7  157.48   19.90
   1  -5  -7  169.28   21.20
   1  -5  -7  142.09   20.80
  -1   5  -7  146.09   15.80
  -1  -7  -7   92.99   16.50
   1   7  -7   87.69   13.40
   1  -7  -7   97.09   16.40
  -1   7  -7   93.69   13.80
  -1   0  -8    0.80    3.70
   1   0   8    4.70    5.10
   1   0  -8    2.30    3.50
  -1   0   8    1.00    4.50
  -1   2   8    1.80    5.10
   1   2  -8    9.40    4.60
   1   2  -8    0.00    3.60
  -1  -2  -8    1.90    3.80
   1   2   8    0.10    3.90
   1  -2  -8    2.60    4.60
  -1   2  -8   -1.00    3.10
  -1   2  -8    0.60    3.40
  -1   4   8   31.10    9.20
  -1  -4  -8   33.70    9.40
   1   4  -8   40.00    8.20
   1  -4  -8   52.49   11.10
   1   4   8   30.00    9.70
  -1   4  -8   49.60    8.10
  -1   4  -8   25.80    7.30
   1   6  -8    3.20    5.10
  -1  -6  -8    5.00    6.60
  -1  -6  -8   -1.90    5.70
  -1   6   8   -1.00    6.20
  -1   6  -8   -4.50    4.60
   1   1  -9  225.68   21.80
  -1   1   9  218.48   25.60
  -1  -1  -9  247.78   24.90
   1  -1  -9  216.58   22.80
  -1   1  -9  248.38   25.00
   1   1   9  175.68   23.70
   1   3  -9  156.58   18.60
  -1  -3  -9  128.69   19.20
  -1   3   9  139.79   20.20
   1   3  -9  151.28   17.60
  -1   3  -9  145.49   18.20
   1   3   9  153.78   21.10
   1  -3  -9  135.59   20.30
  -1   3  -9  136.99   16.00
   1   5  -9  199.38   24.30
  -1   5   9  178.88   25.50
  -1  -5  -9  237.58   28.00
   1  -5  -9  270.27   30.80
  -1   5  -9  179.78   21.40
   1   5   9  231.78   29.50
  -1   7   9  101.99   19.90
   1   7  -9  110.29   17.50
  -1   7  -9  100.79   15.60
   1   7   9  132.59   23.00
   1   0 -10   -0.10    4.60
  -1   0 -10   -2.40    4.40
  -1  -2 -10    3.90    6.00
  -1   2  10   16.30    9.20
   1   2 -10    8.50    5.90
  -1   2 -10    5.50    5.80
   1  -2 -10    6.50    6.40
   1   2  10   15.70    8.80
  -1  -4 -10    2.10    7.00
   1   4 -10    3.60    5.80
  -1   4  10   -5.60    7.50
   1   4  10    5.80    7.90
   1  -4 -10   -0.60    5.90
  -1  -1 -11   30.10   10.00
   1   1 -11   29.70    9.30
  -1   1 -11   14.30    8.10
   1  -1 -11   14.90    8.10
  -1   3  11   31.40   12.20
  -1  -3 -11   22.40    9.80
   1  -3 -11   26.50   11.30
  -1   3 -11   26.90    9.80
   1   3  11   30.60   11.50
  -1   0 -12    1.60    7.20
   1   0 -12    0.00    8.50
  -2   0   0  907.91   67.79
  -2   0   0  821.32   67.39
  -2  -2   0  837.42   65.89
   2  -4   0  941.01   77.49
  -2  -4   0  907.91   72.39
   2   4   0 1046.30   76.99
   2  -6   0  257.07   24.00
  -2  -6   0  296.67   27.30
   2   6   0  287.07   23.10
  -2  -8   0  461.85   40.70
  -2   8   0  437.26   37.80
   2   8   0  465.15   39.70
   2  -8   0  483.75   41.20
   2   1  -1  608.94   47.30
  -2   1   1  575.54   43.70
  -2  -1  -1  597.94   43.50
  -2  -1  -1  529.25   43.70
  -2  -1   1  511.55   45.80
  -2  -3  -1  195.98   18.90
   2  -3   1  207.58   16.90
   2   3  -1  209.48   17.10
  -2  -3  -1  239.58   18.20
   2   3   1  195.28   16.60
  -2  -3   1  200.08   19.20
   2  -3  -1  213.58   17.70
   2   5  -1  362.66   29.70
   2   5  -1  322.37   27.80
   2  -5   1  338.17   28.30
  -2  -5  -1  327.07   28.40
  -2  -5   1  348.87   28.60
  -2   5  -1  229.28   33.70
   2   5   1  342.17   27.40
   2  -5  -1  332.67   28.70
  -2   7   1   29.90    5.50
  -2  -7  -1   37.80    8.10
   2   7  -1   26.00    5.70
  -2   7  -1   27.40    5.90
  -2  -7   1   26.00    7.30
   2   7   1   33.60    5.70
   2  -7  -1   23.60    6.50
   2   9  -1   24.40    7.10
  -2  -9  -1   34.10    9.70
  -2  -9   1   41.10   10.30
  -2   9  -1   32.30    7.90
   2  -9  -1   34.60    8.90
  -2   0   2 2439.96  198.48
   2   0  -2 2200.38  164.68
   2   0  -2 2098.09  164.68
  -2   0  -2 2436.06  198.18
  -2   0  -2 2865.71  197.58
   2   2  -2 3304.97  252.67
  -2  -2  -2 3067.49  240.38
  -2  -2  -2 3303.97  240.78
   2   2  -2 3260.47  251.97
  -2   2  -2 3206.78  241.58
   2  -2  -2 3354.46  253.37
  -2  -2   2 2954.20  243.08
   2  -4   2 1950.50  153.58
  -2  -4  -2 1940.31  153.28
   2   4  -2 2036.60  153.98
   2   4  -2 1978.00  152.88
   2   4   2 2075.29  152.98
  -2  -4   2 1876.41  153.58
   2  -4  -2 1955.10  154.98
  -2   4  -2 2125.29  156.18
   2  -6   2 1897.51  154.98
   2   6  -2 1981.40  154.78
  -2  -6  -2 2046.20  155.38
  -2   6  -2 1934.11  152.88
   2  -6  -2 2036.50  156.48
  -2  -6   2 1905.71  154.78
  -2   6  -2 2024.10  158.98
   2   6   2 2084.79  153.98
  -2  -8  -2  602.04   55.19
   2   8  -2  626.14   50.99
  -2  -8   2  681.33   55.09
  -2   8  -2  626.14   52.49
   2  -8  -2  603.24   52.79
  -2 -10  -2  678.23   62.49
   2  10  -2  778.62   64.89
  -2  10  -2  738.13   59.99
   2   1  -3   12.80    2.50
   2   1  -3    9.50    2.60
   2  -1   3   13.50    2.40
  -2  -1  -3   18.60    3.60
  -2   1   3   13.50    3.30
  -2  -1  -3   14.40    3.00
   2  -1  -3   12.40    3.20
  -2  -1   3   15.00    4.30
  -2   1  -3   12.50    3.20
   2  -3   3  306.07   25.10
   2   3  -3  326.97   25.20
   2   3  -3  309.67   26.00
  -2  -3  -3  303.27   27.90
  -2  -3  -3  346.77   28.00
  -2   3  -3  307.67   28.00
  -2  -3   3  375.96   31.20
   2   3   3  320.67   24.60
   2  -3  -3  304.07   26.90
  -2  -5  -3   59.99    9.60
   2   5  -3   55.29    7.40
  -2  -5  -3   48.90    9.10
  -2  -5   3   75.39   10.70
   2  -5  -3   46.20    8.10
  -2   5  -3   66.19   10.50
  -2   5  -3   60.39    8.00
  -2  -7  -3   67.39   12.70
   2   7  -3   89.09   12.00
  -2   7  -3   86.29   11.40
  -2  -7   3  106.59   14.20
   2  -7  -3  107.39   14.80
  -2  -9  -3   29.70    9.10
   2   9  -3   41.70    8.60
   2  -9  -3   28.60    9.50
  -2   9  -3   28.80    7.70
   2   0  -4 4569.94  350.16
  -2   0   4 4881.91  392.06
  -2   0  -4 5407.16  389.96
   2   0   4 4580.34  349.77
  -2   0  -4 5047.90  391.96
  -2   2   4 3808.72  292.27
   2   2  -4 3807.12  286.57
  -2  -2  -4 3443.36  291.97
   2   2  -4 3835.42  286.77
  -2  -2  -4 4247.18  292.27
  -2   2  -4 4027.20  290.67
   2  -2  -4 3581.64  288.07
  -2  -2   4 3344.37  294.57
  -2   2  -4 3883.21  292.07
  -2  -4  -4 3656.43  311.17
   2   4  -4 4497.05  335.47
   2   4  -4 4332.37  336.47
  -2  -4  -4 4138.29  311.57
  -2   4  -4 4253.97  309.77
   2  -4  -4 4332.67  337.87
  -2   4  -4 4106.89  310.87
  -2  -6  -4 2219.28  177.58
   2   6  -4 2341.67  181.68
  -2   6  -4 2299.77  175.38
   2  -6  -4 2342.37  183.58
   2   8  -4 1626.34  130.59
  -2  -8  -4 1521.75  123.39
   2  -8  -4 1684.83  133.39
  -2   8  -4 1522.75  120.49
   2  10  -4  772.22   65.19
  -2  10  -4  830.92   69.79
   2  -1   5   18.10    4.10
  -2  -1  -5   20.30    4.70
  -2   1   5   16.60    4.60
   2   1  -5   11.90    3.30
  -2  -1  -5   23.10    4.90
   2   1  -5   15.90    3.80
  -2  -1  -5   21.40    2.70
   2  -1  -5   15.80    4.10
  -2   1  -5    6.80    2.30
  -2   1  -5   20.20    4.80
  -2  -1   5   27.10    6.20
  -2   3   5  319.97   27.90
   2   3  -5  323.47   27.70
  -2  -3  -5  307.67   27.40
  -2  -3  -5  308.37   27.50
   2   3  -5  331.97   27.40
  -2   3  -5  305.57   25.60
  -2   3  -5  285.27   26.50
   2  -3  -5  326.77   29.80
   2   5  -5   22.90    5.60
  -2  -5  -5   26.10    6.80
  -2  -5  -5   15.70    6.10
  -2  -5   5   36.80    8.90
  -2   5  -5   19.70    5.60
  -2   5  -5   24.00    5.30
   2  -5  -5   31.50    7.60
   2   7  -5  133.09   16.10
  -2  -7  -5  106.19   16.40
   2  -7  -5  138.69   18.80
  -2   7  -5  107.49   13.80
   2   9  -5    2.80    5.50
  -2  -9  -5    1.50    7.20
   2  -9  -5    2.80    6.40
  -2   9  -5    0.70    6.10
  -2   0   6 4028.00  294.77
   2   0  -6 3528.25  269.17
   2   0  -6 3456.95  268.17
  -2   0  -6 3694.23  291.17
  -2   0  -6 3727.23  293.87
  -2   2   6 2542.35  218.58
  -2  -2  -6 3091.99  218.98
   2   2  -6 2850.61  217.58
  -2  -2  -6 2753.72  218.98
   2   2  -6 2885.61  217.18
  -2   2  -6 2956.60  218.58
  -2   2  -6 2906.01  216.48
  -2  -2   6 2628.94  221.28
   2  -2  -6 2710.13  218.88
  -2  -4  -6 3339.67  245.58
  -2   4   6 3199.48  245.58
  -2  -4  -6 2975.60  244.98
   2   4  -6 3228.58  244.58
  -2   4  -6 3199.08  242.58
  -2   4  -6 3123.59  243.58
  -2  -4   6 3043.70  247.58
   2  -4  -6 3107.29  247.48
   2   6  -6 1420.76  112.99
  -2  -6  -6 1479.05  116.59
  -2  -6  -6 1414.86  115.69
   2  -6  -6 1435.56  115.69
  -2   6  -6 1387.66  112.39
   2   8  -6 1374.26  107.99
  -2  -8  -6 1343.87  111.29
   2  -8  -6 1312.97  110.89
  -2   8  -6 1336.47  107.59
  -2  -1  -7  146.19   18.10
  -2   1   7  157.58   17.10
   2   1  -7  153.38   14.80
   2   1  -7  171.98   15.80
  -2   1  -7  157.08   14.30
  -2  -1   7  166.48   18.30
   2  -1  -7  122.59   16.60
   2   1   7  146.29   15.80
  -2   1  -7  142.99   16.10
  -2  -3  -7   54.19   10.20
  -2  -3  -7   48.80    9.50
   2   3  -7   56.99    9.10
   2   3  -7   64.89    9.60
  -2   3   7   60.39   10.60
  -2   3  -7   69.09   10.10
   2  -3  -7   72.99   12.30
  -2  -3   7   34.40   13.00
  -2   3  -7   49.50    7.70
  -2  -5  -7  170.88   21.30
  -2   5   7  146.59   20.40
   2   5  -7  116.99   14.80
  -2  -5  -7  151.48   20.30
  -2   5  -7  134.99   16.30
  -2  -7  -7   44.50   11.60
  -2   7   7   32.50   11.40
   2   7  -7   43.80    9.60
   2  -7  -7   45.40   11.60
  -2   7  -7   47.10    9.30
  -2   0   8  847.32   63.19
  -2   0  -8  630.04   60.39
  -2   2   8 1439.16  125.19
   2   2  -8 1601.04  123.39
  -2  -2  -8 1609.64  125.49
   2   2  -8 1532.35  123.99
   2  -2  -8 1625.34  126.19
  -2   2  -8 1640.04  122.19
  -2  -2   8 1477.55  128.59
   2   2   8 1532.95  125.29
  -2   2  -8 1627.94  124.59
  -2   4   8  667.53   49.50
  -2  -4  -8  484.05   47.30
  -2  -4  -8  505.55   47.80
   2   4  -8  498.95   44.30
   2  -4  -8  551.34   48.10
  -2   4  -8  492.15   45.40
   2   6  -8  771.02   64.39
  -2  -6  -8  862.51   70.39
  -2  -6  -8  740.93   68.89
  -2   6   8  776.62   69.09
  -2   6  -8  784.92   65.19
   2   1  -9   70.99   11.70
  -2   1   9   40.00   11.30
  -2  -1  -9   72.39   12.70
   2   1   9   70.29   13.60
   2  -1  -9   59.79   11.60
  -2  -1   9   54.89   13.10
  -2   1  -9   62.59   11.80
   2   3  -9   20.70    7.70
  -2   3   9   12.90    7.50
   2   3  -9    6.40    4.80
  -2  -3  -9   17.40    7.30
   2  -3  -9   29.30    8.50
  -2   3  -9   11.30    6.00
   2   3   9    7.90    7.20
  -2   3  -9   11.00    6.10
  -2   5   9  126.19   19.60
  -2  -5  -9  113.89   19.10
   2   5  -9  100.39   14.80
   2   5   9   83.19   17.30
   2  -5  -9  108.89   18.40
  -2   5  -9   86.69   14.10
   2   7  -9    5.10    6.60
  -2   7   9   -3.30    7.90
  -2   7  -9   -3.50    6.00
  -2   0 -10  343.97   33.90
   2   0 -10  355.86   34.40
  -2  -2 -10  238.98   30.60
   2   2 -10  262.97   26.60
  -2   2  10  356.66   31.90
   2  -2 -10  271.27   28.90
  -2   2 -10  239.38   27.20
   2   4 -10  232.28   24.20
  -2   4  10  178.28   26.40
  -2  -4 -10  235.68   28.90
   2  -4 -10  254.07   29.50
   2   4  10  161.58   25.40
   2   1 -11    8.40    7.40
  -2  -1 -11    5.70    6.80
  -2   1 -11   12.40    7.60
   2  -1 -11   11.50    7.70
  -2   3  11   47.70   13.90
  -2  -3 -11   23.00   10.00
   2  -3 -11   37.50   12.40
  -2   3 -11   37.10   10.70
  -3   0   0   13.90    3.90
  -3   0   0   14.60    3.80
  -3  -2   0    7.30    1.80
   3  -2   0    1.70    1.20
   3   2   0    6.20    1.60
  -3   2   0    6.40    1.80
  -3  -2   0   10.70    3.40
  -3  -4   0   70.19    9.90
   3   6   0   25.40    4.90
   3  -6   0   26.30    5.30
  -3  -6   0   27.90    7.00
  -3  -8   0    2.70    4.90
  -3   8   0   -2.60    3.60
   3   8   0   -2.90    3.30
  -3 -10   0   83.19   16.30
   3   1  -1 1445.86  111.39
  -3   1   1 1577.54  108.19
  -3  -1  -1 1428.06  108.39
  -3  -1  -1 1403.06  107.79
  -3  -1   1 1155.38  110.19
  -3   1  -1 1387.16  110.29
   3   3  -1 1579.44  119.39
   3  -3   1 1478.45  118.79
  -3  -3  -1 1509.05  113.69
  -3  -3  -1 1406.56  115.19
   3  -3  -1 1516.15  119.79
   3   3   1 1629.64  118.99
  -3  -3   1 1506.25  116.29
   3  -5   1  693.33   51.19
  -3  -5  -1  588.44   49.90
   3   5  -1  589.84   50.89
  -3  -5   1  715.43   50.99
  -3   5  -1  440.96   53.29
   3  -5  -1  557.04   51.59
   3   5   1  724.23   50.79
   3   7  -1  626.64   53.49
  -3  -7  -1  601.54   55.19
  -3   7  -1  636.64   52.89
   3   7   1  723.73   53.29
   3  -7  -1  635.84   54.79
  -3  -7   1  721.13   56.19
  -3  -9  -1  225.68   26.10
   3   9  -1  197.18   21.30
  -3  -9   1  274.67   27.00
  -3   9  -1  220.98   23.10
  -3   0   2   10.80    3.10
  -3   0  -2   12.40    2.10
   3   0  -2   19.70    3.90
  -3   0  -2    9.60    2.60
  -3  -2  -2   84.99    8.40
  -3  -2  -2   91.99    9.10
   3   2  -2   71.89    6.30
  -3   2   2   75.69    8.50
   3   2  -2   73.69    7.30
  -3  -2   2   80.79   13.30
  -3   2  -2  102.79   12.10
  -3  -4  -2   25.90    5.00
   3  -4   2   26.50    3.60
   3   4  -2   19.60    3.90
  -3  -4  -2   18.20    5.00
   3  -4  -2   16.70    4.30
  -3  -4   2   31.90    7.10
  -3   4  -2   27.90    8.00
   3   4   2   19.80    3.20
   3   6  -2   27.20    5.40
  -3  -6  -2   18.10    5.90
  -3   6  -2   35.60   11.70
   3  -6  -2   17.70    5.50
  -3  -6   2   41.50    8.40
   3   6   2   39.80    5.30
   3   8  -2   13.40    5.30
  -3  -8  -2   17.30    6.90
   3  -8  -2    4.90    5.50
  -3  -8   2   10.10    7.20
  -3   8  -2   19.30    5.70
  -3 -10  -2   11.80    8.60
   3  10  -2    6.60    6.90
  -3  10  -2   16.70    8.10
   3  -1   3  813.42   64.59
  -3  -1  -3  909.71   71.89
   3   1  -3  911.61   65.89
  -3   1   3  869.51   72.39
  -3  -1  -3 1005.60   72.59
   3   1  -3  901.71   65.59
   3  -1  -3  739.13   66.49
  -3  -1   3  883.51   74.19
  -3   1  -3  924.01   72.69
   3   3  -3 1193.18   91.49
   3   3  -3 1151.68   90.29
   3  -3   3 1156.68   89.89
  -3  -3  -3 1139.49   92.19
  -3  -3  -3 1210.68   91.89
  -3  -3   3 1156.88   95.49
   3  -3  -3 1213.58   92.59
  -3   3  -3 1161.88   93.19
  -3  -5  -3  521.55   41.10
   3   5  -3  530.05   45.70
  -3  -5  -3  369.96   39.20
  -3  -5   3  460.45   41.40
   3  -5  -3  604.74   47.50
  -3   5  -3  597.44   44.10
   3   7  -3  744.83   60.19
  -3  -7  -3  780.62   66.89
  -3  -7   3  807.82   66.79
  -3   7  -3  787.72   64.09
   3  -7  -3  737.73   62.09
  -3  -9  -3  210.58   25.50
   3   9  -3  168.28   20.00
   3  -9  -3  190.48   23.30
  -3   9  -3  170.38   21.00
   3   0  -4    5.50    2.70
  -3   0  -4    3.60    2.20
   3   0  -4    1.30    1.80
  -3   0  -4    2.60    1.80
  -3   0   4    0.20    2.10
   3   2  -4   33.40    4.60
   3   2  -4   37.30    5.50
  -3  -2  -4   31.00    5.70
   3  -2   4   31.70    5.60
  -3  -2  -4   30.00    5.50
  -3   2   4   28.60    5.80
  -3   2  -4   35.30    6.10
  -3  -2   4   32.00    8.60
   3  -2  -4   36.40    6.50
   3   4  -4   34.70    5.90
  -3  -4  -4   26.10    6.50
  -3  -4  -4   30.30    6.40
  -3  -4   4   46.90   10.30
  -3   4  -4   29.00    6.70
  -3   4  -4   35.60    6.00
   3  -4  -4   36.00    7.00
   3   6  -4   52.89    7.90
  -3  -6  -4   27.10    7.80
  -3  -6  -4   33.20    8.20
  -3  -6   4   28.10    8.40
  -3   6  -4   31.10    6.10
   3  -6  -4   16.80    6.30
  -3   6  -4   24.90    7.90
  -3  -8  -4    8.40    7.00
   3   8  -4   13.00    5.40
   3  -8  -4   10.20    6.40
  -3   8  -4    6.90    4.70
  -3  -1  -5  387.46   32.40
  -3  -1  -5  377.26   30.10
  -3   1   5  380.86   33.30
  -3  -1  -5  404.16   33.30
   3   1  -5  357.46   30.80
   3  -1   5  383.06   30.60
   3   1  -5  370.56   30.90
   3  -1  -5  376.46   31.90
  -3  -1   5  396.16   34.70
  -3   1  -5  375.76   33.00
   3   3  -5  328.07   27.40
  -3  -3  -5  322.67   29.40
  -3  -3  -5  285.87   28.80
   3   3  -5  320.27   26.60
  -3   3   5  403.26   30.40
  -3  -3   5  353.66   34.20
  -3   3  -5  333.97   29.20
   3  -3  -5  308.37   29.40
  -3   3  -5  307.17   27.30
  -3  -5  -5  106.89   14.80
   3   5  -5  111.79   13.90
  -3  -5  -5  134.79   16.10
  -3   5  -5   92.39   13.50
  -3   5  -5  102.59   12.40
   3  -5  -5  132.89   16.30
  -3  -7  -5  130.79   17.90
   3   7  -5  131.39   15.40
  -3   7  -5  106.29   14.50
   3  -7  -5  108.39   16.30
   3   9  -5   28.70    8.50
  -3  -9  -5   48.90   13.00
  -3   9  -5   52.09   11.00
   3  -9  -5   56.79   12.60
  -3   0  -6   -0.70    2.40
   3   0   6    0.70    2.70
  -3   0  -6   -0.30    1.70
  -3   0   6    2.10    3.70
   3   0  -6    0.70    2.10
   3   0  -6    1.30    2.40
   3   2  -6   22.80    4.60
  -3   2   6   24.40    6.60
   3   2  -6   16.10    4.40
  -3  -2  -6   29.00    6.60
  -3  -2  -6   24.10    6.50
  -3  -2   6   36.60    9.80
   3  -2  -6   16.00    5.20
  -3   2  -6   16.30    4.00
  -3   2  -6   20.30    5.50
  -3   4   6   37.60    8.20
  -3  -4  -6   31.70    7.80
  -3  -4  -6   41.20    8.40
   3   4  -6   44.30    7.80
  -3  -4   6    1.10    6.50
  -3   4  -6   29.50    6.00
  -3   4  -6   36.70    7.30
  -3   6   6   45.40   10.60
  -3  -6  -6   11.40    7.00
   3   6  -6   21.30    6.20
  -3  -6  -6   40.10    9.90
  -3   6  -6   25.00    6.30
   3   8  -6   72.49   12.00
  -3  -8  -6   53.89   13.60
  -3   8   6   58.69   14.30
  -3   8  -6   63.79   11.60
   3  -8  -6   55.19   13.40
  -3  -1  -7  361.96   32.60
  -3   1   7  338.47   32.80
   3   1  -7  363.06   28.90
   3   1  -7  313.57   28.70
   3  -1  -7  371.06   30.40
  -3  -1   7  336.37   34.10
   3   1   7  282.27   29.00
  -3   1  -7  362.66   32.30
  -3   1  -7  377.26   29.70
  -3  -3  -7  367.06   32.70
  -3   3   7  354.16   33.00
   3   3  -7  343.57   29.00
  -3  -3  -7  355.16   32.30
   3   3  -7  312.67   29.20
  -3   3  -7  371.06   31.80
   3  -3  -7  346.97   31.90
  -3   3  -7  320.27   29.30
  -3  -3   7  288.77   39.00
  -3  -5  -7  310.47   29.50
  -3   5   7  285.17   28.70
   3   5  -7  305.27   28.10
  -3  -5  -7  274.57   28.70
  -3   5  -7  279.87   26.80
  -3   5  -7  258.27   25.20
  -3   7   7  250.07   30.00
  -3  -7  -7  239.68   29.50
   3   7  -7  255.37   25.50
  -3  -7  -7  215.08   28.20
  -3   7  -7  207.38   24.30
   3   0  -8    1.80    3.40
  -3   0   8   -4.30    4.00
  -3   0  -8   -1.30    3.10
  -3  -2  -8    2.90    4.60
   3   2  -8    7.60    4.50
   3   2  -8    5.40    4.10
  -3   2   8    3.40    5.60
  -3   2  -8    2.50    4.30
  -3  -2   8    1.40    7.70
   3   2   8   10.70    5.80
  -3   2  -8    2.90    3.40
   3  -2  -8    3.70    4.40
  -3   4   8   33.80   10.20
  -3  -4  -8   39.20    9.70
  -3  -4  -8   42.70   11.10
   3   4  -8   32.80    7.80
   3  -4  -8   32.60    9.50
  -3   4  -8   35.60    8.50
  -3   4  -8   35.10    7.50
  -3  -6  -8   38.30   11.50
  -3   6   8   31.70   10.40
   3   6  -8   30.40    8.30
  -3  -6  -8    7.30    7.40
  -3   6  -8   31.10    7.60
  -3  -1  -9  166.98   22.20
  -3   1   9  205.28   24.60
   3   1  -9  172.78   21.00
   3  -1  -9  186.48   22.40
  -3  -1   9  177.48   25.80
  -3   1  -9  157.18   21.10
  -3   3   9  195.68   23.90
  -3  -3  -9  137.09   20.30
   3   3  -9  136.89   17.50
   3  -3  -9  139.29   20.70
   3   3   9  180.28   22.40
  -3   3  -9  166.18   20.80
   3   5  -9   87.99   13.90
  -3  -5  -9   94.29   17.30
  -3   5   9   43.80   13.50
  -3  -5  -9   84.99   16.20
  -3   5  -9   88.49   12.90
   3   0 -10   -0.80    5.10
  -3   0  10   -7.50    7.60
  -3   0 -10   -3.00    4.90
  -3   2  10   -2.90    7.20
   3   2 -10    5.90    6.30
  -3  -2 -10    4.10    5.60
   3  -2 -10    4.20    6.80
  -3   2 -10    9.20    6.40
  -3   4  10    7.90    7.90
   3   4 -10   -4.10    5.50
  -3  -4 -10   -0.20    6.90
   3   4  10    7.60    8.30
  -3   4 -10    4.40    6.20
   3  -4 -10    5.80    7.50
   3   1 -11  145.99   21.00
  -3   1  11  123.19   23.30
  -3  -1 -11  173.18   22.90
   3  -1 -11  178.78   23.90
  -3   1 -11  129.69   20.10
  -3  -3 -11  109.59   18.70
  -3   3  11   76.49   18.10
  -3   3 -11   66.09   14.60
   3  -3 -11   77.59   16.40
  -4   0   0 4441.06  369.86
  -4   0   0 5219.78  370.66
  -4  -2   0 3361.66  257.27
  -4   2   0 3368.76  254.47
  -4  -2   0 3261.77  253.77
   4   2   0 3737.63  285.77
   4  -4   0 2210.08  170.08
  -4  -4   0 4215.38  325.27
   4   6   0 3031.30  232.98
  -4   6   0 2418.06  215.28
  -4  -6   0 2892.81  210.78
  -4  -8   0 2214.58  182.88
  -4   8   0 2396.36  179.78
   4   8   0 2365.46  183.38
  -4  10   0 1145.99   92.49
  -4 -10   0 1137.49   96.79
  -4  -1  -1   55.89    7.60
   4   1  -1   61.19    7.30
  -4   1   1   58.29    7.20
  -4  -1  -1   59.39    6.20
  -4  -1   1   52.39   10.00
  -4   1  -1   63.69    9.80
  -4  -3  -1  110.29    9.20
   4   3  -1  102.99    9.30
  -4  -3  -1   83.19   11.50
   4  -3   1   98.19    8.70
  -4   3   1   94.39    9.60
  -4  -3   1   89.79   13.20
   4   3   1   89.49    8.90
  -4   3  -1   84.49   15.10
  -4  -5  -1   15.50    5.40
   4   5  -1   20.10    4.20
   4  -5   1   12.70    3.30
   4   5   1   10.90    3.10
   4  -5  -1   17.70    4.50
  -4   5  -1   17.00    8.10
  -4  -5   1   10.20    5.20
   4   7  -1   18.90    4.70
  -4  -7  -1   24.80    7.80
  -4  -7   1   19.90    7.00
   4   7   1   14.80    4.50
   4  -7  -1   25.90    6.20
  -4   7  -1    8.10   10.80
  -4   9   1   32.50    7.80
   4   9  -1   10.40    6.20
  -4  -9  -1   19.90    9.00
  -4  -9   1   30.70   10.00
  -4   9  -1   18.60    7.20
  -4   0  -2 4957.90  417.96
  -4   0  -2 5627.24  416.86
  -4   0   2 5807.92  418.76
   4   2  -2 3720.13  284.77
  -4  -2  -2 3304.17  280.57
  -4   2   2 3548.15  281.07
  -4  -2  -2 4079.09  281.87
  -4   2  -2 3980.40  284.37
  -4  -2   2 3454.35  285.07
  -4  -4  -2 4057.99  305.97
   4  -4   2 4305.47  327.87
   4   4  -2 4059.99  328.97
  -4  -4  -2 3721.43  303.97
   4   4   2 4636.24  328.37
  -4   4  -2 3962.70  310.57
  -4  -4   2 4149.18  307.87
   4  -4  -2 4177.98  329.77
   4   6  -2 2310.87  171.08
  -4  -6  -2 2217.48  166.98
   4   6   2 2086.09  170.58
  -4   6  -2 1956.60  171.68
  -4  -6   2 2108.49  166.98
   4  -6  -2 2231.08  172.18
   4   8  -2 1633.64  129.59
  -4  -8  -2 1685.13  137.89
  -4   8  -2 1663.63  134.39
   4  -8  -2 1665.53  131.29
  -4  -8   2 1787.12  138.09
   4  10  -2  744.23   62.69
  -4 -10  -2  821.12   69.99
  -4  10  -2  734.43   64.99
   4   1  -3   88.79    9.90
  -4   1   3   89.59    9.80
  -4  -1  -3   95.19    9.10
   4   1  -3   87.59    8.50
  -4  -1  -3   87.39    9.40
  -4   1  -3   90.79   11.30
  -4  -1   3   88.69   12.80
  -4   1  -3   87.19    7.60
  -4  -3  -3   23.50    5.40
  -4  -3  -3   20.50    4.60
  -4   3   3   31.80    5.70
   4   3  -3   28.00    5.00
   4   3  -3   22.80    3.10
  -4  -3   3   39.10    9.90
  -4   3  -3   17.90    5.90
  -4  -5  -3   21.70    6.20
   4   5  -3   20.60    4.50
  -4  -5  -3    7.40    4.00
   4  -5  -3   20.50    5.70
  -4   5  -3   34.90    9.80
  -4  -5   3   19.70    7.10
   4   7  -3    0.70    3.50
  -4  -7  -3    4.00    4.70
   4  -7  -3    5.90    4.90
  -4   7  -3    6.30    4.40
  -4  -7   3    4.20    5.60
   4   9  -3    7.50    5.70
  -4  -9  -3   -1.70    6.60
   4  -9  -3   -4.80    5.80
  -4   9  -3   13.60    6.50
   4   0  -4 1407.16  105.59
  -4   0  -4 1458.15  107.49
  -4   0   4 1249.47  109.39
   4   0  -4 1287.77  105.69
  -4   0  -4 1439.16  109.09
  -4   2   4 3422.16  268.37
   4   2  -4 3440.06  264.77
   4   2  -4 3456.25  263.97
  -4  -2  -4 3245.18  267.87
  -4  -2  -4 3779.32  268.37
  -4   2  -4 3575.94  269.07
  -4  -2   4 3372.46  272.27
  -4  -4  -4  614.24   50.79
   4   4  -4  710.73   57.09
  -4  -4  -4  660.33   50.29
  -4   4   4  509.55   49.70
  -4   4  -4  700.93   52.39
  -4  -4   4  550.24   53.69
  -4  -6  -4 1228.58  104.89
   4   6  -4 1258.67   97.89
  -4  -6  -4 1251.77  104.29
   4  -6  -4 1215.28   99.49
  -4  -6   4 1376.96  106.69
  -4   6  -4 1309.07  102.39
  -4   6  -4 1327.67  106.79
  -4  -8  -4  125.39   19.60
   4   8  -4  166.78   18.70
   4  -8  -4  153.38   20.60
  -4   8  -4  147.99   17.50
   4   1  -5   40.30    6.10
  -4   1   5   49.20    8.40
   4   1  -5   42.90    6.70
  -4  -1  -5   36.20    6.40
  -4  -1  -5   40.30    7.20
  -4  -1  -5   37.20    4.10
   4  -1   5   42.20    5.60
   4  -1  -5   30.10    6.20
  -4  -1   5   47.90    9.60
  -4   1  -5   34.20    6.90
   4   3  -5   48.10    7.40
  -4  -3  -5   63.69    9.70
  -4   3   5   55.89    9.50
  -4  -3  -5   50.89    9.00
   4   3  -5   47.50    6.10
  -4   3  -5   57.39    9.20
  -4   3  -5   46.50    7.10
  -4  -3   5   58.09   14.10
  -4  -5  -5    5.80    4.80
  -4  -5  -5    0.70    3.90
  -4   5   5    6.90    4.90
   4   5  -5    9.10    4.20
  -4   5  -5    1.30    2.90
  -4   5  -5   -0.40    4.00
  -4  -5   5   -2.50    6.30
   4   7  -5    5.20    4.20
  -4   7   5    1.30    6.20
  -4  -7  -5    7.00    5.70
   4  -7  -5    5.80    5.50
  -4   7  -5    9.10    5.00
  -4  -9  -5   -5.50    6.00
  -4   9   5   -8.20    7.00
   4   9  -5    2.20    5.30
  -4   9  -5    2.60    6.20
   4  -9  -5   -3.20    6.60
   4   0  -6 1944.31  161.38
  -4   0  -6 2112.79  172.68
   4   0  -6 2120.19  161.68
  -4   0  -6 2254.67  169.38
  -4   0   6 2248.48  173.98
   4   0   6 2142.89  160.88
  -4  -2  -6  982.10   82.59
   4   2  -6 1014.80   82.29
   4   2  -6 1054.59   81.99
  -4  -2  -6 1030.60   82.29
   4  -2  -6 1041.30   84.09
  -4   2  -6 1040.80   82.69
  -4   2  -6 1030.60   79.99
  -4  -4  -6 1149.19   94.09
   4   4  -6 1199.18   95.19
  -4  -4  -6 1147.79   93.69
  -4   4   6 1164.48   93.99
  -4   4  -6 1178.28   91.39
  -4  -4   6 1164.48   98.49
  -4   4  -6 1135.29   93.49
   4   6  -6  275.27   25.80
  -4   6   6  197.48   29.60
  -4  -6  -6  308.47   30.20
  -4  -6  -6  355.66   31.20
  -4   6  -6  324.27   27.20
  -4   8   6  375.56   33.10
  -4  -8  -6  267.87   30.60
   4   8  -6  228.08   23.30
  -4   8  -6  213.48   27.50
  -4   1   7   34.20    8.70
   4   1  -7   37.90    7.60
  -4  -1  -7   31.80    7.10
   4   1  -7   35.40    6.90
  -4  -1  -7   38.50    8.40
   4  -1  -7   33.60    7.70
   4   1   7   36.90    7.90
  -4   1  -7   28.50    5.20
  -4  -1   7   37.50    9.80
  -4   1  -7   38.20    8.30
  -4  -3  -7   15.30    6.80
   4   3  -7    7.40    4.30
  -4   3   7   11.60    5.90
  -4  -3  -7   13.70    6.10
   4   3  -7   12.90    4.80
  -4   3  -7   16.50    4.80
   4  -3  -7   11.70    5.60
  -4  -3   7   22.80   11.20
  -4   3  -7    9.20    5.30
   4   5  -7    4.60    4.70
  -4  -5  -7    5.50    5.60
  -4  -5  -7    3.40    5.50
  -4   5   7    9.90    6.60
  -4   5  -7    7.40    4.60
  -4   5  -7    3.10    5.00
  -4  -7  -7   -1.70    6.80
   4   7  -7    2.10    5.60
  -4  -7  -7    3.50    7.00
  -4   7   7    3.90    7.00
  -4   7  -7   -3.60    4.20
  -4   0  -8  849.41   67.39
   4   0  -8  947.21   77.39
  -4   0   8  733.63   67.79
  -4  -2  -8 1307.17  103.69
   4   2  -8 1158.38   95.99
  -4  -2  -8 1219.58  102.49
   4   2  -8 1212.08   96.29
  -4   2   8 1283.07  103.89
  -4  -2   8 1274.87  107.89
   4  -2  -8 1212.88   98.29
   4   2   8 1243.88   98.19
  -4   2  -8 1258.87  102.79
  -4   4   8  527.15   52.49
   4   4  -8  629.94   53.09
  -4  -4  -8  639.44   53.89
  -4  -4  -8  664.53   53.59
  -4   4  -8  569.34   51.49
  -4   4  -8  585.24   49.30
  -4  -6  -8  807.82   70.29
  -4   6   8  901.11   70.99
   4   6  -8  768.82   64.49
  -4  -6  -8  730.63   69.89
  -4   6  -8  754.42   65.69
  -4   1   9   24.30    9.10
   4   1  -9   20.00    6.80
  -4  -1  -9   13.90    6.90
   4  -1  -9   20.30    7.70
  -4  -1   9   25.40   11.00
  -4   1  -9   16.70    7.00
  -4  -3  -9   38.80    9.90
  -4   3   9   32.50   10.40
   4   3  -9   20.80    7.30
  -4   3  -9   36.60    9.20
   4  -3  -9   37.60    9.90
   4   3   9   41.50   10.80
  -4  -5  -9    2.90    6.90
  -4  -5  -9    8.90    8.60
   4   5  -9    2.60    5.20
  -4   5   9   -0.50    7.00
  -4   5  -9    0.00    4.70
  -4   0 -10  941.61   90.59
  -4   0  10 1301.07   96.09
   4   0 -10  973.50   81.49
   4   2 -10  860.51   75.99
  -4   2  10  897.31   73.49
  -4  -2 -10  813.82   71.09
  -4   2 -10  757.72   69.59
   4  -2 -10  749.13   68.19
   4   4 -10  888.91   78.69
  -4   4  10 1084.99   85.29
  -4  -4 -10  972.80   83.49
  -4   4 -10  865.01   80.59
   4   4  10 1024.80   83.49
  -4  -1 -11   22.00    9.70
   4   1 -11   29.80   10.10
  -4   1  11   25.90   12.30
  -4   1 -11   25.60    9.70
   4  -1 -11   32.20   11.00
  -4   3  11   12.70   11.10
  -4  -3 -11    9.50    9.40
  -4   3 -11    6.40    7.70
   4  -3 -11    4.20    8.40
  -5   0   0   -1.50    2.50
  -5   0   0    3.20    3.40
  -5  -2   0   43.90    5.10
  -5   2   0   40.60    5.50
   5   2   0   43.20    6.40
  -5  -2   0   34.50    7.50
   5   4   0    7.90    2.70
  -5  -4   0    6.70    4.50
  -5   4   0    8.70    2.90
   5  -6   0   34.40    6.20
   5   6   0   33.00    5.70
  -5  -6   0   30.70    8.50
  -5   6   0   29.30   11.30
   5   8   0   23.10    6.30
  -5  -8   0   31.10    9.40
  -5 -10   0    2.40    7.50
  -5  10   0    7.70    7.50
  -5  -1  -1  713.93   58.19
  -5   1   1  732.43   57.39
   5   1  -1  612.44   49.30
  -5  -1  -1  746.13   57.39
  -5   1  -1  665.13   60.09
  -5  -3  -1  711.93   55.49
   5   3  -1  658.63   56.19
  -5  -3  -1  673.23   58.19
  -5   3   1  725.23   56.29
  -5  -3   1  700.53   60.19
  -5   3  -1  736.13   55.39
   5   3   1  768.72   56.39
  -5   3  -1  659.93   61.89
   5   5  -1  361.06   33.00
   5  -5   1  449.16   33.00
  -5  -5  -1  329.97   34.60
  -5   5  -1  373.46   40.40
  -5  -5   1  487.95   37.50
   5   5   1  458.75   33.20
   5  -5  -1  342.17   33.40
   5   7  -1  309.87   28.50
  -5  -7  -1  271.27   30.60
  -5   7  -1  289.47   39.60
  -5  -7   1  405.46   33.60
   5  -7  -1  302.77   29.30
   5   7   1  387.26   28.80
  -5  -9  -1  137.49   22.30
   5   9  -1  115.99   14.80
  -5   9   1  248.58   20.80
  -5  -9   1  204.58   26.00
  -5   9  -1  142.19   19.40
  -5   0   2   10.20    3.80
  -5   0  -2    4.40    2.70
  -5   0  -2    5.60    2.40
  -5  -2  -2   26.20    4.50
  -5  -2  -2   31.40    5.90
   5   2  -2   23.50    4.80
  -5   2   2   27.90    5.00
  -5  -2   2    8.30    6.30
  -5   2  -2   48.20    9.40
  -5   4   2   49.50    7.90
  -5  -4  -2   58.59    7.60
  -5  -4  -2   51.09    9.10
   5   4  -2   47.10    6.70
  -5  -4   2   60.59   11.80
  -5   4  -2   53.59    5.70
   5   4   2   49.10    6.60
  -5   4  -2   41.30   11.40
   5   6  -2   94.89   11.40
  -5  -6  -2  105.49   15.20
  -5   6  -2   50.09   16.40
  -5  -6   2  126.09   17.40
   5  -6  -2   92.49   12.50
   5   8  -2   28.10    6.40
  -5  -8  -2   28.40    8.80
  -5   8  -2   24.10    6.80
   5  -8  -2   11.00    6.40
  -5  -8   2   28.10    9.50
   5  10  -2  103.09   15.20
  -5 -10  -2   81.59   17.70
  -5  10  -2  106.89   15.70
  -5   1   3  945.01   75.19
  -5  -1  -3  966.60   74.89
  -5  -1  -3  951.50   74.29
   5   1  -3  880.71   69.99
  -5   1  -3  983.60   76.19
  -5  -1   3  922.31   77.59
  -5   1  -3  900.41   72.39
   5   3  -3 1219.68   95.39
  -5  -3  -3 1170.48   94.79
  -5   3   3 1201.68   94.19
  -5  -3  -3 1234.78   93.69
  -5   3  -3 1243.28   97.89
  -5  -3   3 1080.89   98.49
  -5  -5  -3  730.03   54.19
  -5   5   3  582.14   53.79
   5   5  -3  639.64   51.89
  -5  -5  -3  653.33   55.39
  -5   5  -3  717.23   60.39
  -5  -5   3  605.74   57.19
  -5  -7  -3  840.72   70.99
   5   7  -3  859.01   70.09
   5  -7  -3  878.31   71.69
  -5  -7   3  807.92   71.79
  -5   7  -3  854.21   76.19
   5   9  -3  215.68   24.70
  -5  -9  -3  232.88   29.30
  -5   9  -3  215.38   24.30
   5  -9  -3  246.78   25.80
  -5   0   4    2.80    3.40
  -5   0  -4    3.10    2.80
  -5   0  -4   -0.10    1.40
  -5   2   4   38.60    7.30
  -5  -2  -4   37.40    6.90
   5   2  -4   43.40    5.70
   5   2  -4   39.50    6.70
  -5  -2  -4   48.00    7.50
  -5  -2   4   47.60   11.90
  -5   2  -4   43.00    8.30
  -5   4   4   32.40    6.70
   5   4  -4   36.10    6.50
  -5  -4  -4   29.80    6.70
  -5  -4  -4   28.50    7.20
  -5   4  -4   29.40    8.00
  -5  -4   4   30.70   11.40
   5   6  -4   93.89   12.20
  -5  -6  -4  112.49   16.20
  -5   6   4   77.79   13.40
  -5   6  -4   90.69   17.50
  -5  -6   4  121.09   18.60
  -5   8   4   84.39   15.10
  -5  -8  -4   60.49   13.80
   5   8  -4   78.19   11.80
  -5   8  -4   74.09   11.80
   5  -1   5 1071.79   83.79
  -5  -1  -5 1096.59   92.79
  -5  -1  -5 1180.78   94.49
   5   1  -5 1103.69   85.09
   5   1  -5 1039.80   85.59
  -5   1   5 1219.58   94.99
   5  -1  -5 1100.99   86.19
  -5  -1   5 1302.27   97.39
  -5   1  -5 1149.19   94.59
   5   3  -5  716.13   57.69
   5   3  -5  752.32   59.19
  -5  -3  -5  847.82   68.49
  -5  -3  -5  733.23   68.19
  -5   3   5  950.00   69.49
  -5   3  -5  780.12   69.19
  -5  -3   5  924.11   74.69
   5   5  -5  358.86   31.40
  -5  -5  -5  418.06   34.90
  -5  -5  -5  381.26   35.50
  -5   5   5  372.86   34.70
  -5  -5   5  367.76   38.80
  -5   5  -5  378.86   36.20
  -5   5  -5  354.36   32.40
  -5  -7  -5  176.38   22.70
   5   7  -5  172.78   19.80
  -5   7  -5  148.99   18.30
  -5  -9  -5  120.09   19.80
  -5   9   5  123.19   20.50
   5   9  -5  119.69   16.90
  -5   9  -5   80.69   14.50
  -5   0  -6   -0.70    2.90
   5   0  -6   -2.40    3.20
  -5   0  -6    0.90    1.80
  -5   0   6    6.80    5.20
   5   0  -6    1.90    2.40
  -5   0  -6   -3.40    2.40
  -5  -2  -6    6.00    4.20
   5   2  -6    1.30    3.20
  -5   2   6    2.30    3.80
  -5  -2  -6    6.20    4.00
   5   2  -6    0.80    2.30
  -5   2  -6    5.20    2.90
  -5   2  -6    6.60    4.00
  -5  -2   6    2.10    6.40
  -5   4   6   27.10    7.90
  -5  -4  -6   34.80    8.40
  -5  -4  -6   20.10    7.10
   5   4  -6   46.00    8.30
  -5   4  -6   35.30    8.80
  -5  -4   6   35.90   12.50
  -5   4  -6   26.20    5.80
   5   6  -6   31.70    7.80
  -5   6   6   25.00    8.60
  -5  -6  -6   28.20    9.20
  -5  -6  -6   26.80    9.20
  -5   6  -6   24.60    9.40
  -5   6  -6   22.20    6.80
  -5   8   6    8.40    9.10
  -5  -8  -6   19.20    9.40
   5   8  -6   27.60    8.40
  -5   8  -6   31.40    8.40
   5   1  -7  458.95   40.10
   5   1  -7  473.95   39.70
  -5   1   7  505.95   43.90
  -5  -1  -7  441.06   40.90
  -5  -1  -7  511.85   42.80
   5  -1  -7  465.15   40.70
  -5   1  -7  492.75   42.70
  -5  -1   7  463.75   44.90
  -5  -3  -7  422.26   38.40
  -5  -3  -7  491.75   39.30
   5   3  -7  395.66   34.60
  -5   3   7  427.86   38.70
  -5   3  -7  380.56   34.70
  -5  -3   7  371.96   43.10
  -5   3  -7  410.16   37.80
   5   5  -7  431.36   38.10
  -5  -5  -7  486.45   42.40
  -5  -5  -7  423.56   42.50
  -5   5   7  521.05   43.50
  -5   5  -7  438.86   38.90
  -5   5  -7  411.66   41.40
   5   7  -7  314.27   30.00
  -5  -7  -7  277.57   32.50
  -5   7   7  328.87   32.70
  -5   7  -7  286.97   28.50
   5   0  -8    1.30    3.70
  -5   0  -8    1.90    3.90
  -5   0   8   -3.50    5.00
   5   2  -8   -0.90    3.50
  -5   2   8   -1.60    5.00
  -5  -2  -8    4.40    5.30
  -5  -2  -8   -1.00    5.40
   5   2  -8    6.20    4.70
  -5  -2   8    1.50    9.70
   5  -2  -8    2.40    4.20
  -5   2  -8    0.90    4.50
  -5  -4  -8    3.30    5.80
  -5  -4  -8    3.60    6.60
  -5   4   8   -0.70    5.20
   5   4  -8    3.60    5.30
  -5   4  -8    5.20    5.80
  -5   4  -8    4.40    4.60
  -5  -6  -8    1.40    7.30
   5   6  -8    0.60    5.40
  -5   6   8    4.90    7.70
  -5  -6  -8   -2.20    6.40
  -5   6  -8    0.80    5.40
  -5   1   9   52.99   12.80
  -5  -1  -9   30.70    9.10
   5   1  -9   26.60    7.40
   5  -1  -9   31.80    8.80
  -5   1  -9   35.00    9.20
  -5  -1   9   29.90   12.70
  -5   3   9   35.00   11.00
   5   3  -9   44.50   10.20
  -5  -3  -9   24.10    8.60
  -5  -3  -9   24.20   10.20
  -5   3  -9   29.10    9.00
  -5  -5  -9   57.49   13.60
  -5  -5  -9   48.30   13.60
   5   5  -9   45.10   10.40
  -5   5   9   25.10   10.30
  -5   5  -9   87.69   15.60
  -5   5  -9   54.79   10.90
  -5   0 -10   -2.70    4.20
  -5   0  10    7.50    9.80
   5   0 -10    4.00    5.90
  -5  -2 -10   -4.40    5.20
  -5   2  10    0.50    7.30
   5  -2 -10   -0.50    5.50
  -5   2 -10    1.10    5.30
   5   4 -10   10.80    7.60
  -5  -4 -10   14.30    9.20
  -5   4  10    2.70    8.40
  -5   4 -10   12.30    8.60
   5   4  10    9.80    9.90
  -5   1  11   58.29   16.80
   5   1 -11   75.59   14.50
  -5  -1 -11   97.69   17.50
   5  -1 -11   85.39   16.00
  -5   1 -11   49.99   12.90
  -5  -3 -11   29.70   11.60
  -5   3  11   54.69   15.60
  -5   3 -11   36.60   11.70
  -6   0   0 1928.71  155.58
  -6   0   0 2036.30  155.88
  -6  -2   0  915.71   75.79
  -6   2   0  755.72   75.89
  -6  -2   0  979.20   71.79
   6   2   0  801.42   63.89
  -6   2   0  940.81   71.99
  -6   4   0 1004.50   75.19
   6   4   0  974.10   76.69
  -6   4   0  828.12   81.79
  -6  -4   0  973.70   79.49
  -6  -6   0  144.29   20.00
  -6   6   0  108.59   22.80
  -6   6   0  139.69   14.20
   6   6   0  136.19   13.40
  -6  -8   0  245.88   30.10
   6   8   0  227.78   21.80
  -6   8   0  222.88   35.10
  -6 -10   0   16.30    9.70
  -6  10   0    3.90    7.10
  -6  -1  -1  290.47   24.70
  -6   1   1  253.27   23.00
  -6  -1  -1  282.07   23.40
  -6  -1   1  222.88   23.10
  -6  -1   1  253.47   26.10
   6   3  -1   50.19    7.30
  -6  -3  -1   59.69    7.00
  -6  -3  -1   67.29   10.60
  -6   3   1   61.59    8.10
   6   3   1   55.09    7.60
  -6  -3   1   43.60   10.90
  -6   3  -1   59.99   12.60
  -6   3  -1   59.39    6.70
  -6  -5  -1  250.97   27.20
  -6   5   1  298.87   24.70
   6   5  -1  259.57   23.30
  -6  -5   1  271.27   28.40
  -6   5  -1  266.97   35.20
  -6   5  -1  274.27   23.40
   6   5   1  279.47   23.40
  -6  -7  -1   16.10    7.60
  -6   7   1   22.60    7.20
   6   7  -1   16.70    5.00
   6   7   1   16.10    8.50
   6  -7  -1   15.70    5.50
  -6   7  -1    1.50    9.20
  -6  -7   1   15.70    7.90
   6   9  -1   47.70    9.40
  -6  -9  -1   20.70   10.20
  -6  -9   1   66.79   15.20
  -6   9  -1   51.49   10.40
  -6   0  -2 2871.81  217.38
  -6   0   2 2605.04  217.18
  -6   0  -2 2904.81  215.58
  -6  -2  -2 3325.37  242.28
  -6   2   2 3129.29  241.18
  -6  -2  -2 3190.68  240.68
   6   2  -2 3260.47  250.97
  -6   2  -2 2889.91  239.48
  -6  -2   2 3158.68  246.08
  -6   2  -2 3109.19  245.48
  -6   4   2 1709.23  126.19
  -6  -4  -2 1638.54  125.29
   6   4  -2 1515.65  122.89
  -6  -4  -2 1548.55  127.99
  -6  -4   2 1778.92  131.99
  -6   4  -2 1313.07  131.69
   6   4   2 1644.24  122.89
  -6   6   2 1676.63  128.09
   6   6  -2 1505.15  117.89
  -6  -6  -2 1521.75  130.29
  -6  -6   2 1659.43  132.39
  -6  -8  -2  374.86   45.30
   6   8  -2  431.26   37.40
  -6   8   2  544.65   45.40
  -6  -8   2  621.64   49.70
   6  10  -2  505.05   44.90
  -6 -10  -2  509.85   49.90
  -6  10  -2  480.55   44.60
  -6  -1  -3  343.27   29.40
  -6   1   3  324.47   29.60
   6   1  -3  312.27   27.50
  -6  -1  -3  338.77   28.80
  -6   1  -3  329.77   30.90
  -6  -1   3  345.17   32.50
   6   3  -3  534.65   43.80
  -6  -3  -3  512.95   46.20
  -6   3   3  540.15   45.50
  -6  -3  -3  598.54   45.20
  -6   3  -3  530.55   49.60
  -6  -3   3  536.25   50.69
  -6  -5  -3  103.09   14.90
  -6  -5  -3  102.59   12.10
   6   5  -3  125.99   14.40
  -6   5   3   72.29   11.30
  -6  -5   3   79.39   15.80
  -6   5  -3   88.99   18.00
   6   7  -3  145.59   16.70
  -6  -7  -3  133.39   19.70
  -6   7   3  156.58   19.60
  -6   7  -3  140.79   26.10
  -6  -7   3  142.29   22.00
  -6  -9  -3    3.40    7.00
  -6   9   3    4.80    8.30
   6   9  -3    6.10    6.10
  -6   9  -3    3.60    6.20
  -6   0   4 3868.81  318.57
  -6   0  -4 3959.70  317.87
  -6   0  -4 4488.15  315.77
   6   2  -4 3313.97  255.47
  -6  -2  -4 3610.44  274.47
  -6  -2  -4 3135.79  274.07
  -6   2   4 3557.94  274.87
  -6  -2   4 3931.21  280.37
  -6   2  -4 3632.54  276.87
  -6   4   4 3099.19  247.38
  -6  -4  -4 3235.68  247.18
  -6  -4  -4 3242.58  248.48
   6   4  -4 3146.49  242.78
  -6   4  -4 3302.67  251.77
  -6  -4   4 3071.19  252.77
   6   6  -4 2104.29  164.18
  -6  -6  -4 2258.47  187.68
  -6   6   4 2509.15  186.58
  -6  -6   4 2447.35  190.68
  -6   6  -4 2237.48  191.48
   6   8  -4 1285.87  102.99
  -6   8   4 1427.66  115.79
  -6  -8  -4 1490.15  118.09
  -6   8  -4 1383.96  112.99
  -6  -8   4 1365.26  118.29
  -6  -1  -5  196.08   19.10
  -6  -1  -5  164.68   17.10
   6   1  -5  165.78   16.80
  -6   1   5  176.38   19.30
  -6   1  -5  191.78   19.40
  -6  -1   5  210.58   22.00
  -6  -3  -5  251.97   24.30
   6   3  -5  267.27   24.30
  -6   3   5  269.47   25.10
  -6  -3  -5  235.58   24.50
  -6  -3   5  268.17   29.90
  -6   3  -5  272.77   26.40
  -6  -5  -5   52.69   10.70
  -6  -5  -5   22.70    6.90
   6   5  -5   51.59    8.80
  -6   5   5   28.00    8.10
  -6  -5   5   23.80   10.60
  -6   5  -5   41.10   10.80
   6   7  -5   59.19   10.20
  -6   7   5  116.69   16.90
  -6  -7  -5   56.39   13.60
  -6  -7   5   80.59   16.80
  -6   7  -5   61.59   11.10
   6   9  -5   23.30    9.20
  -6   9   5   43.60   13.70
  -6  -9  -5   19.10    9.90
  -6   9  -5   10.50    8.00
   6   0  -6 3082.09  238.48
  -6   0  -6 3298.67  274.47
  -6   0   6 3872.01  276.57
  -6   0  -6 3470.05  271.97
  -6   2   6 2033.50  169.28
  -6  -2  -6 2206.38  168.38
   6   2  -6 2076.79  159.48
   6   2  -6 2009.30  158.28
  -6  -2  -6 2102.59  168.88
  -6   2  -6 2248.28  170.08
  -6  -2   6 2153.58  173.98
  -6  -4  -6 2840.32  220.48
  -6   4   6 2848.92  220.28
  -6  -4  -6 2765.62  219.68
   6   4  -6 2628.54  204.38
  -6  -4   6 2658.73  224.88
  -6   4  -6 2781.52  217.18
  -6   4  -6 2932.21  221.48
  -6  -6  -6 1270.07  109.49
   6   6  -6 1200.48   96.49
  -6  -6  -6 1396.06  109.09
  -6   6   6 1306.17  108.89
  -6  -6   6 1256.27  112.09
  -6   6  -6 1434.76  111.49
  -6   6  -6 1320.37  105.89
  -6   8   6 1371.16  106.39
  -6  -8  -6 1273.67  106.69
   6   8  -6 1110.09   90.79
  -6   8  -6 1150.68  101.59
  -6  -1  -7   22.60    7.30
  -6   1   7   25.20    8.50
   6   1  -7   19.90    6.50
   6   1  -7   18.50    5.10
  -6  -1  -7   34.10    7.40
  -6  -1   7   35.70   11.50
  -6   1  -7   17.40    6.50
  -6  -3  -7   29.40    8.40
  -6   3   7   22.30    7.80
  -6  -3  -7   21.90    7.70
   6   3  -7   23.80    6.90
  -6   3  -7   11.90    6.40
  -6   3  -7   16.90    5.20
  -6  -3   7   15.30   10.60
  -6  -5  -7   75.59   16.10
   6   5  -7   74.39   12.10
  -6   5   7  122.69   18.30
  -6  -5  -7  108.89   16.80
  -6  -5   7  135.99   23.10
  -6   5  -7   93.99   16.30
  -6   5  -7   92.89   13.50
  -6   7   7   46.70   12.90
  -6  -7  -7   34.90   12.00
   6   7  -7   56.99   11.30
  -6   7  -7   43.40   10.10
  -6   0   8  964.80   78.69
   6   0  -8  715.13   59.89
  -6   0  -8  850.01   75.59
  -6  -2  -8 1522.05  115.29
  -6  -2  -8 1377.26  113.69
   6   2  -8 1432.16  111.59
  -6   2   8 1367.16  115.39
   6   2  -8 1360.26  110.19
  -6   2  -8 1367.36  114.59
  -6  -2   8 1424.96  120.49
  -6  -4  -8  524.95   47.90
  -6   4   8  605.54   49.40
  -6  -4  -8  487.35   48.30
   6   4  -8  513.25   44.90
  -6   4  -8  490.85   44.30
  -6   4  -8  493.95   47.70
  -6  -4   8  577.64   55.39
   6   6  -8  624.94   53.99
  -6  -6  -8  731.93   59.69
  -6   6   8  585.94   57.99
  -6  -6  -8  639.84   60.19
  -6   6  -8  620.54   54.69
   6   1  -9   74.69   11.90
  -6  -1  -9   63.99   13.30
  -6   1   9  101.79   18.20
   6  -1  -9   66.49   12.30
  -6   1  -9   67.69   13.70
  -6  -1   9   94.29   19.30
  -6   3   9    0.10    6.20
  -6  -3  -9   12.80    9.20
   6   3  -9   -1.90    5.30
  -6  -3  -9   -3.20    5.70
  -6   3  -9   -2.40    4.90
  -6  -3   9   -8.40   12.90
  -6  -5  -9  100.39   20.00
  -6  -5  -9   97.39   17.50
  -6   5   9  120.49   19.60
   6   5  -9   85.19   14.30
  -6   5  -9   72.39   13.20
  -6   5  -9   73.89   15.90
  -6   0  10  347.97   39.90
  -6   0 -10  381.96   37.10
   6   0 -10  351.16   34.00
  -6  -2 -10  155.98   24.90
  -6   2  10  243.18   30.20
  -6   2 -10  191.18   25.50
   6   4 -10  165.08   21.80
  -6   4  10  166.88   26.80
  -6  -4 -10  244.98   29.20
  -6  -4 -10  175.38   29.00
  -6   4 -10  194.48   26.00
  -6  -1 -11   42.40   13.00
  -6   1  11   34.60   14.60
   6  -1 -11   42.40   11.60
  -6   1 -11   31.30   11.50
  -6   3  11   57.79   17.60
  -6  -3 -11   79.79   17.20
  -6   3 -11   79.49   16.10
  -7   0   0    9.20    5.00
  -7   0   0    4.80    4.00
  -7   2   0   94.89   16.10
  -7   2   0  102.29   11.10
  -7  -2   0  122.89   17.70
  -7  -2   0  108.39   11.20
  -7   4   0   27.30   10.00
   7   4   0   35.90    6.50
  -7  -4   0   26.40    8.50
  -7   4   0   26.40    5.20
   7   6   0   66.99    9.40
  -7   6   0   72.59   17.50
  -7  -6   0   66.59   13.80
   7   8   0   -2.50    5.40
  -7  -8   0    1.60    6.70
  -7   8   0   -3.20   11.90
  -7 -10   0   -4.00    9.50
  -7  10   0    2.20    8.00
  -7   1   1 1797.02  149.29
  -7  -1  -1 1977.90  151.18
  -7  -1  -1 1987.20  149.99
  -7   1  -1 2074.09  150.08
  -7  -1   1 1796.32  149.59
  -7   1  -1 1760.22  152.18
  -7  -1   1 1982.50  152.88
  -7   3   1 1717.33  133.59
   7   3  -1 1691.03  131.89
  -7  -3  -1 1687.23  132.59
  -7  -3  -1 1726.33  136.99
  -7  -3   1 1675.53  131.49
  -7   3  -1 1772.62  140.39
  -7  -3   1 1583.84  138.69
  -7   3  -1 1826.72  132.89
   7   5  -1 1105.19   83.69
  -7   5   1 1029.10   89.09
  -7  -5  -1 1140.69   93.49
  -7  -5   1 1165.98   95.19
  -7   5  -1 1299.97  100.09
   7   5   1 1008.20   83.39
  -7   7   1  807.62   67.49
  -7  -7  -1  771.52   70.39
   7   7  -1  706.43   57.69
  -7   7  -1  843.92   76.39
  -7  -7   1  822.92   71.59
  -7  -9  -1  412.56   41.60
   7   9  -1  427.16   38.10
  -7  -9   1  380.76   41.40
  -7   0  -2    5.30    3.50
  -7   0  -2    6.30    4.00
  -7   0   2    1.00    3.60
   7   2  -2   18.10    4.90
  -7  -2  -2   10.50    3.50
  -7  -2  -2   25.30    6.30
  -7   2   2   11.30    4.10
  -7   2  -2    8.90    4.10
  -7  -2   2   10.80    7.40
  -7   2  -2   28.40    8.90
  -7  -4  -2   67.19   11.80
  -7  -4  -2   74.59    9.00
  -7   4   2   70.59   10.00
   7   4  -2   68.09    9.20
  -7   4  -2   37.50   12.40
  -7  -4   2   73.89   15.40
  -7   6   2   72.59   10.80
   7   6  -2   67.69    9.90
  -7  -6  -2   71.29   14.20
  -7   6  -2   59.69   18.00
  -7  -6   2   77.79   16.10
  -7  -8  -2    1.80    7.00
   7   8  -2    2.10    4.60
  -7  -8   2    8.40    8.30
  -7  -1  -3  615.84   50.49
  -7   1   3  653.33   51.09
  -7  -1  -3  588.44   49.80
  -7  -1   3  601.24   53.59
  -7   1  -3  569.34   47.80
  -7   1  -3  626.04   52.79
  -7   3   3  408.76   34.50
  -7  -3  -3  408.36   34.00
  -7  -3  -3  379.86   35.40
   7   3  -3  368.56   31.70
  -7   3  -3  355.66   38.50
  -7  -3   3  415.56   40.20
  -7  -5  -3  298.07   34.70
  -7   5   3  448.76   34.60
   7   5  -3  343.37   30.00
  -7  -5   3  434.16   40.50
  -7   5  -3  331.17   43.40
  -7   7   3  140.69   18.00
   7   7  -3  104.29   13.60
  -7  -7  -3  138.79   20.40
  -7   7  -3   81.39   22.70
  -7  -7   3  159.28   23.70
  -7  -9  -3  160.98   25.00
   7   9  -3  114.39   15.70
  -7  -9   3  183.38   26.80
  -7   9  -3  130.89   18.70
  -7   0  -4    1.20    2.40
  -7   0  -4    1.10    3.10
  -7   0   4    0.30    3.60
  -7  -2  -4   71.39   10.80
  -7   2   4   60.79   10.30
  -7  -2  -4   63.49   10.00
   7   2  -4   66.59    9.80
  -7   2  -4   68.79   12.50
  -7  -2   4   94.89   17.00
  -7  -4  -4   -1.70    3.40
  -7   4   4    1.40    3.60
   7   4  -4    3.50    3.30
  -7  -4  -4    2.20    3.90
  -7   4  -4    4.00    5.60
  -7  -4   4    8.50    7.70
   7   6  -4   70.19   10.60
  -7  -6  -4   83.89   15.50
  -7   6   4  110.79   15.20
  -7   6  -4   76.99   19.80
  -7  -6   4  109.59   19.70
   7   8  -4   60.99   11.10
  -7   8   4   59.39   13.30
  -7  -8  -4   79.89   16.40
  -7   8  -4   64.99   11.70
  -7  -8   4   46.80   14.60
  -7   1   5  168.78   20.20
   7   1  -5  173.08   19.60
  -7  -1  -5  216.78   20.60
  -7  -1  -5  197.48   18.90
  -7   1  -5  197.28   20.90
  -7  -1   5  185.38   24.90
  -7  -3  -5  244.08   22.70
   7   3  -5  208.48   20.20
  -7  -3  -5  198.48   22.50
  -7   3   5  240.38   23.40
  -7   3  -5  234.78   25.20
  -7  -3   5  218.78   31.00
  -7  -5  -5  122.89   15.90
  -7  -5  -5  121.39   17.60
  -7   5   5  101.89   15.70
   7   5  -5   91.69   12.80
  -7  -5   5  128.79   23.00
  -7   5  -5  100.49   18.60
  -7  -7  -5  141.09   22.10
   7   7  -5  134.79   17.00
  -7   7   5  147.99   21.10
  -7   7  -5  141.99   18.40
  -7   7  -5  143.09   25.50
  -7  -7   5  189.88   27.60
  -7  -9  -5   37.80   13.50
  -7   9   5   20.70   12.00
   7   9  -5   69.39   13.50
  -7   9  -5   34.60    9.80
  -7   0  -6    0.00    3.50
  -7   0   6    1.60    4.80
   7   2  -6   10.90    4.80
  -7   2   6    5.00    4.90
  -7  -2  -6    2.70    4.30
  -7  -2  -6    8.00    4.50
  -7   2  -6   16.00    6.50
  -7  -2   6    0.20    7.50
  -7   4   6   70.99   13.20
   7   4  -6   55.59    9.90
  -7  -4  -6   73.29   13.60
  -7  -4  -6   71.49   12.90
  -7   4  -6   64.59   14.00
  -7  -4   6   66.69   17.10
  -7   6   6   11.60    7.30
   7   6  -6   13.90    5.80
  -7  -6  -6   16.80    9.10
  -7   6  -6   12.90    6.10
  -7   6  -6   10.50    8.80
  -7  -6   6   25.10   13.10
  -7   8   6   -1.50    7.50
   7   8  -6    3.10    6.30
  -7  -8  -6    5.40    9.80
  -7   8  -6    2.00    6.00
   7   1  -7  197.48   22.70
  -7   1   7  216.08   24.70
  -7  -1  -7  215.18   23.70
  -7   1  -7  219.68   24.00
  -7  -1   7  256.57   31.40
  -7  -3  -7  194.58   24.90
  -7   3   7  275.17   25.70
   7   3  -7  189.48   21.60
  -7  -3  -7  221.98   24.20
  -7  -3   7  288.47   35.90
  -7   3  -7  201.78   20.60
  -7   3  -7  209.08   26.70
  -7   5   7   91.09   15.40
  -7  -5  -7   89.09   14.90
  -7  -5  -7   79.79   15.70
   7   5  -7   74.29   12.40
  -7  -5   7   99.69   21.60
  -7   5  -7   60.59   11.10
  -7   5  -7   76.79   16.00
   7   7  -7   90.89   14.80
  -7  -7  -7  112.19   21.60
  -7   7   7  163.28   23.00
  -7   7  -7  110.09   17.00
  -7   0   8   -1.50    5.90
  -7   0  -8   -1.10    4.70
  -7  -2  -8   18.30    7.40
  -7   2   8   24.80    9.50
   7   2  -8   18.10    7.20
  -7  -2   8   11.80   10.30
  -7   2  -8    6.90    6.20
  -7   4   8   28.20    9.70
  -7  -4  -8   30.00    9.60
  -7  -4  -8   28.70   10.40
   7   4  -8   24.30    7.90
  -7   4  -8   27.80   10.00
  -7   4  -8    7.10    6.00
  -7  -4   8    8.40   14.00
  -7  -6  -8   27.50   10.80
   7   6  -8   20.70    7.90
  -7  -6  -8   30.00   12.50
  -7   6   8   23.60    9.80
  -7   6  -8   12.70    7.10
  -7   6  -8   19.20   12.70
  -7   1   9  355.96   37.40
   7   1  -9  373.96   34.40
  -7  -1  -9  363.96   35.40
  -7   1  -9  318.27   34.60
  -7  -1   9  364.66   40.40
  -7   3   9  312.67   32.90
   7   3  -9  238.28   27.10
  -7  -3  -9  292.67   31.70
  -7  -3   9  269.67   39.80
  -7   3  -9  283.97   31.10
  -7  -5  -9  295.07   32.50
  -7  -5  -9  302.17   38.50
   7   5  -9  300.07   30.50
  -7   5  -9  323.57   33.80
  -7   5  -9  271.57   28.80
  -7   0  10    5.40    9.70
  -7   0 -10    2.00    5.70
  -7  -2 -10   28.50   11.30
  -7   2  10   20.70   10.80
  -7  -2  10   25.60   16.30
  -7   2 -10   11.90    8.80
   7   4 -10   27.80   10.80
  -7  -4 -10   45.70   13.40
  -7   4  10   30.90   13.10
  -7   4 -10   14.40    9.80
  -7  -1 -11   57.39   16.20
  -7   1  11   79.49   20.00
  -7   1 -11   68.59   15.40
  -7  -1  11   58.39   22.20
  -8   0   0 8624.34  713.23
  -8   0   0 9999.00  713.83
  -8   2   0 5000.70  370.56
  -8   2   0 4676.63  365.06
  -8  -2   0 4605.34  369.46
  -8   4   0 5754.82  442.76
  -8   4   0 5618.14  451.15
  -8  -4   0 5962.00  449.16
   8   4   0 5480.35  420.46
  -8  -6   0 2166.08  170.78
   8   6   0 2086.19  162.48
  -8   6   0 2032.10  174.28
  -8  -8   0 2328.97  198.58
  -8   8   0 2653.23  205.08
  -8  -1  -1   47.70    9.20
  -8   1   1   41.90    8.50
  -8  -1  -1   52.39   10.40
  -8  -1   1   64.89   12.50
  -8  -1   1   27.10    7.20
  -8   1  -1   51.69   10.80
  -8   1  -1   60.89   10.00
  -8  -3  -1   83.79   14.90
   8   3  -1   79.29   10.90
  -8  -3  -1  103.39   10.20
  -8   3   1   80.49   11.30
  -8   3  -1   60.29   14.60
  -8  -3   1   97.49   17.60
  -8  -3   1  124.59   10.70
  -8   3  -1   83.49   11.10
   8   5  -1    0.70    3.10
  -8   5   1   12.90    4.70
  -8  -5  -1    2.80    5.00
  -8   5  -1   -5.20    5.20
  -8  -5   1   19.90    9.30
   8   5   1   10.60    5.00
  -8  -7  -1   10.30    7.50
   8   7  -1   17.10    6.10
  -8   7   1   12.20   10.90
  -8   7  -1   18.50   13.40
  -8  -7   1   18.70    9.50
  -8   9   1   70.19   23.40
  -8  -9  -1   74.19   17.50
  -8  -9   1   52.79   15.70
  -8   0  -2 2784.72  209.48
  -8   0  -2 2808.02  211.48
  -8   0   2 2475.65  210.68
   8   2  -2 4123.39  317.97
  -8   2   2 4089.59  332.27
  -8  -2  -2 4277.07  331.97
  -8  -2  -2 4785.82  334.77
  -8  -2   2 4183.08  331.77
  -8  -2   2 4423.26  337.47
  -8   2  -2 3729.53  336.07
  -8   2  -2 4655.13  331.57
  -8  -4  -2 1777.82  144.69
  -8   4   2 1895.91  146.09
  -8  -4  -2 1908.91  149.59
   8   4  -2 1818.32  142.19
  -8   4  -2 1857.41  154.28
  -8  -4   2 1912.11  153.18
  -8   6   2 2372.96  191.78
  -8  -6  -2 2484.15  196.48
   8   6  -2 2198.38  171.28
  -8   6  -2 2518.65  202.88
  -8  -6   2 2506.05  198.88
   8   8  -2  656.83   55.09
  -8  -8  -2  740.83   64.19
  -8   8  -2  607.64   68.19
  -8  -1  -3   22.10    6.30
  -8  -1  -3   25.50    6.30
  -8   1   3   28.80    7.00
  -8   1  -3   28.20    5.50
  -8  -1   3   24.60    9.00
  -8   1  -3   29.10    8.60
   8   3  -3   97.89   12.70
  -8   3   3  110.49   13.80
  -8  -3  -3   91.39   14.50
  -8  -3  -3  103.39   12.70
  -8  -3   3   95.39   18.30
  -8   3  -3   74.69   16.50
  -8   5   3   41.30    8.20
   8   5  -3   38.30    7.50
  -8  -5  -3   25.40    8.90
  -8   5  -3   17.90   10.80
  -8  -5   3   29.60   11.80
  -8   7   3   36.20    9.40
   8   7  -3   44.10    9.00
  -8  -7  -3   17.80    9.40
  -8  -7   3   22.50   11.90
  -8   7  -3   13.30   12.20
  -8  -9  -3   -4.60    9.50
   8   9  -3    1.80    5.70
  -8   9  -3    0.20    6.10
  -8  -9   3    8.20   10.20
  -8   0  -4  642.64   52.99
  -8   0  -4  590.84   49.60
  -8   0   4  600.04   53.29
   8   2  -4  327.37   29.80
  -8  -2  -4  338.07   31.80
  -8  -2  -4  352.66   31.70
  -8   2  -4  356.36   34.90
  -8   4   4  580.04   50.29
  -8  -4  -4  641.34   52.99
  -8  -4  -4  570.14   49.60
   8   4  -4  516.55   43.80
  -8  -4   4  568.34   56.19
  -8   4  -4  597.14   56.49
  -8   6   4  498.95   39.90
  -8  -6  -4  362.86   40.30
   8   6  -4  340.27   30.70
  -8   6  -4  294.77   46.80
  -8  -6   4  530.55   46.80
   8   8  -4  245.48   24.80
  -8  -8  -4  300.77   36.10
  -8   8   4  255.07   29.00
  -8  -8   4  293.87   38.00
  -8  -1  -5   91.59   13.00
  -8  -1  -5   87.49   13.80
  -8   1   5   92.59   14.90
  -8  -1   5  126.09   19.10
  -8   1  -5  107.19   16.40
   8   3  -5   12.60    5.10
  -8   3   5   17.40    6.50
  -8  -3  -5   20.20    6.60
  -8  -3  -5   18.50    6.80
  -8  -3   5   16.90   10.10
  -8   3  -5    6.40    5.90
  -8   5   5   88.49   14.00
  -8  -5  -5   77.49   13.10
   8   5  -5   52.29    9.50
  -8  -5  -5   80.89   15.30
  -8   5  -5   75.69   18.10
  -8  -5   5   80.99   18.00
  -8  -7  -5    2.50    6.50
  -8   7   5    0.50    6.70
   8   7  -5    2.30    4.70
  -8  -7   5   -0.60    8.30
  -8   7  -5    3.90   11.20
  -8   0   6  652.03   54.89
  -8   0  -6  556.14   52.39
  -8  -2  -6  317.37   32.90
   8   2  -6  311.07   29.30
  -8  -2  -6  368.36   34.30
  -8   2  -6  363.36   35.80
  -8  -2   6  447.96   40.90
  -8  -4  -6  493.45   47.30
  -8  -4  -6  474.15   45.90
  -8   4   6  531.05   46.80
   8   4  -6  399.86   36.00
  -8   4  -6  501.55   49.40
  -8  -4   6  634.84   54.39
  -8   6   6  360.36   33.10
  -8  -6  -6  288.47   33.50
   8   6  -6  250.77   25.10
  -8  -6   6  325.97   41.80
  -8   6  -6  264.07   38.20
  -8   8   6  193.38   28.00
   8   8  -6  185.18   22.70
  -8  -8  -6  226.28   31.50
  -8   8  -6  212.08   25.00
  -8  -1  -7   38.80   10.20
  -8   1   7   36.70   10.70
  -8  -1   7   37.10   13.00
  -8   1  -7   71.59   13.20
   8   3  -7  144.39   18.70
  -8  -3  -7  165.08   22.00
  -8   3   7  168.38   22.40
  -8  -3  -7  151.38   21.00
  -8   3  -7  162.68   24.10
  -8  -3   7  184.18   29.40
  -8  -5  -7    0.20    8.10
  -8   5   7    1.10    6.10
   8   5  -7   -0.90    4.80
  -8  -5  -7   10.50    8.30
  -8   5  -7    4.00    5.60
  -8  -5   7   -0.70   10.30
  -8   5  -7    9.70    9.10
   8   7  -7   42.90   11.00
  -8  -7  -7   46.00   14.40
  -8   7   7   45.20   13.30
  -8   7  -7   32.40    9.80
  -8   0   8 1756.12  130.39
  -8   0  -8 1377.06  125.89
  -8  -2  -8 1915.71  154.08
  -8   2   8 1897.11  155.18
   8   2  -8 1935.11  154.08
  -8   2  -8 1921.61  154.98
  -8  -2   8 1909.41  159.88
   8   4  -8  826.52   69.79
  -8  -4  -8  962.30   83.69
  -8   4   8 1093.89   85.09
  -8  -4  -8  998.40   85.09
  -8   4  -8  861.61   79.09
  -8  -4   8 1096.99   91.99
  -8   4  -8  933.11   84.69
   8   6  -8  921.51   77.49
  -8   6   8 1020.30   90.99
  -8  -6  -8 1088.59   94.39
  -8  -6  -8 1282.17  103.29
  -8   6  -8  949.31   86.99
  -8   6  -8 1112.69   94.39
  -8   1   9   58.09   14.60
  -8  -1  -9   60.19   13.70
  -8  -1   9   47.70   16.10
  -8   1  -9   57.29   13.50
  -8  -3  -9    3.50    7.70
   8   3  -9    5.50    7.00
  -8   3   9    5.70    8.00
  -8  -3   9    3.10   11.50
  -8   3  -9    9.40    7.60
  -8  -5  -9   33.40   15.90
   8   5  -9   10.80    8.70
  -8   5   9   22.30   11.50
  -8  -5  -9   45.00   12.90
  -8   5  -9   22.10    8.20
  -8   5  -9   27.30   13.30
  -8   0  10  964.70   96.49
  -8   0 -10 1222.18   95.09
  -8   2  10 1008.50   88.79
  -8  -2 -10  943.51   86.79
  -8   2 -10  969.20   86.59
  -8  -2  10 1108.79   95.39
  -8  -4 -10  850.21   70.49
   8   4 -10  700.03   62.19
  -8   4  10  633.34   68.19
  -8   4 -10  805.52   70.49
  -8  -1 -11   13.00   10.50
  -8   1  11   16.00   14.20
  -8   1 -11   10.60    9.20
  -8  -1  11   16.00   17.80
  -9   0   0    3.20    4.30
  -9   0   0    7.60    5.60
  -9  -2   0   63.99   10.00
  -9   2   0   58.89    9.70
  -9  -2   0   44.90   11.70
  -9   2   0   40.80   11.20
  -9  -4   0   35.50   11.00
  -9   4   0   26.40   10.40
  -9   4   0   41.70    7.70
   9   4   0   29.00    6.50
   9   6   0  190.38   19.50
  -9  -6   0  197.38   28.70
  -9   6   0  216.08   32.60
  -9   8   0   46.60   18.10
  -9  -8   0   51.59   15.80
  -9   1   1  320.77   29.80
  -9  -1  -1  328.57   31.40
  -9  -1  -1  268.47   28.90
  -9   1   1  332.67   31.80
  -9  -1   1  248.08   30.20
  -9   1  -1  321.07   31.70
  -9   1  -1  359.46   30.00
   9   3  -1  197.28   19.70
  -9  -3  -1  287.27   22.70
  -9  -3  -1  258.17   27.30
  -9   3   1  227.58   23.10
  -9   3  -1  219.98   29.80
  -9  -3   1  202.28   29.90
   9   5  -1  226.68   19.70
  -9   5   1  172.08   19.70
  -9  -5  -1  288.17   27.60
  -9  -5   1  212.58   30.00
   9   5   1  153.58   20.00
  -9   5  -1  251.37   33.10
   9   7  -1  132.39   16.30
  -9   7   1  129.99   26.80
  -9  -7  -1  147.09   24.30
  -9  -7   1  184.08   27.40
  -9   7  -1  179.18   29.20
  -9  -9  -1  148.99   24.70
  -9   9   1   59.59   21.50
  -9  -9   1   82.09   19.10
  -9   0   2    3.20    4.70
  -9   0  -2    4.50    4.20
  -9   0  -2   -3.50    3.80
  -9  -2  -2   31.80    7.00
  -9  -2  -2    9.00    6.00
  -9   2   2   21.20    6.10
  -9   2  -2   17.20    5.90
  -9   2  -2   23.70    8.90
  -9  -2   2   14.30    5.30
  -9  -2   2   11.10    7.30
  -9  -4  -2   43.00   11.20
  -9   4   2   47.70    8.50
   9   4  -2   51.59    9.20
  -9   4  -2   40.90   13.70
  -9  -4   2   49.60   13.70
  -9   6   2   69.79   11.30
   9   6  -2   65.99   10.70
  -9  -6  -2   57.69   14.50
  -9  -6   2   69.89   17.10
  -9   6  -2   76.59   20.20
  -9  -8  -2   48.00   14.10
   9   8  -2   39.10    9.20
  -9  -8   2   35.30   14.10
  -9   8  -2   50.29   19.00
  -9  -1  -3 1359.56  109.09
  -9  -1  -3 1352.06  108.39
  -9   1   3 1374.36  109.19
  -9  -1   3 1208.08  110.79
  -9   1  -3 1408.26  106.59
  -9   1  -3 1358.56  111.59
  -9  -3  -3  840.32   76.69
  -9   3   3 1004.70   75.59
  -9  -3  -3  906.81   74.29
   9   3  -3  709.23   58.89
  -9   3  -3  782.22   79.49
  -9  -3   3 1031.10   81.69
  -9  -5  -3  711.03   66.89
   9   5  -3  683.53   56.79
  -9   5   3  852.41   63.99
  -9   5  -3  572.44   69.29
  -9  -5   3  866.21   71.89
   9   7  -3  189.08   21.20
  -9   7   3  417.66   36.30
  -9  -7  -3  285.17   40.60
  -9  -7   3  444.36   44.20
  -9  -9  -3  349.87   43.90
   9   9  -3  228.18   25.90
  -9  -9   3  364.56   45.80
  -9   0  -4   -4.00    3.10
  -9   0  -4   -1.10    4.10
  -9   0   4   -0.30    4.40
  -9  -2  -4    9.20    5.90
  -9  -2  -4   15.60    5.70
   9   2  -4   24.20    6.90
  -9   2   4   26.80    7.90
  -9  -2   4   36.10   11.60
  -9   2  -4   21.90    8.80
  -9  -4  -4   -0.70    3.50
  -9  -4  -4    9.20    6.00
   9   4  -4   -0.10    3.60
  -9   4   4   -2.90    4.10
  -9   4  -4    6.10    8.10
  -9  -4   4    5.30    7.70
  -9   6   4   70.69   12.40
   9   6  -4   38.30    8.50
  -9  -6  -4   71.59   15.60
  -9  -6   4   66.09   18.10
  -9   6  -4   55.49   18.00
  -9   8   4    4.70    7.80
   9   8  -4    0.10    5.40
  -9  -8  -4    5.10    9.50
  -9  -8   4    7.50   10.80
  -9   1   5  994.30   86.29
  -9  -1  -5 1068.69   86.39
  -9  -1  -5 1023.40   84.09
  -9  -1   5  999.30   88.89
  -9   1  -5 1111.79   88.19
  -9  -3  -5 1014.30   85.99
  -9  -3  -5 1112.19   85.39
   9   3  -5  941.61   77.29
  -9   3   5 1048.20   85.79
  -9  -3   5  876.21   89.09
  -9   3  -5 1098.99   90.29
  -9   5   5  896.51   79.69
   9   5  -5  903.71   74.39
  -9  -5  -5 1002.50   82.99
  -9  -5   5  970.20   87.09
  -9   5  -5 1008.70   87.99
  -9   7   5  669.53   61.29
  -9  -7  -5  758.32   65.69
   9   7  -5  629.54   54.09
  -9   7  -5  737.23   71.09
  -9  -7   5  637.04   66.79
  -9   0  -6   -2.10    4.50
  -9   0   6   -3.10    5.20
  -9  -2  -6   17.90    7.40
  -9   2   6   13.30    6.90
   9   2  -6   -1.30    4.20
  -9  -2  -6    8.70    6.60
  -9   2  -6    7.30    6.50
  -9  -2   6   11.90    9.70
   9   4  -6   40.70    9.50
  -9   4   6   27.20    9.10
  -9  -4  -6   40.70    9.90
  -9  -4  -6   42.60   11.60
  -9   4  -6   26.70   11.60
  -9  -4   6   30.70   13.50
   9   6  -6   20.70    7.60
  -9   6   6   45.50   11.60
  -9  -6  -6   32.30   13.40
  -9  -6   6   41.80   17.00
  -9   6  -6   56.59   18.00
  -9   8   6   12.70   10.10
  -9  -8  -6   21.70   14.30
   9   8  -6   30.80    9.50
  -9   8  -6   33.20   10.60
  -9   1   7  478.05   43.00
  -9  -1  -7  398.46   41.00
  -9   1  -7  390.86   41.50
  -9  -1   7  470.95   45.60
   9   3  -7  263.77   26.70
  -9  -3  -7  266.97   28.50
  -9  -3  -7  215.28   29.80
  -9   3   7  283.17   29.40
  -9   3  -7  297.57   35.10
  -9  -3   7  329.47   40.40
  -9   5   7  156.78   24.50
  -9  -5  -7  192.18   27.20
  -9  -5  -7  201.88   25.80
   9   5  -7  173.98   21.70
  -9   5  -7  192.88   30.10
  -9  -5   7  188.98   31.30
  -9   7   7   46.10   14.60
  -9  -7  -7   81.29   18.80
   9   7  -7   83.89   14.60
  -9   7  -7   92.49   15.00
  -9   0  -8   -9.10    5.70
  -9   0   8   -2.30    7.50
   9   2  -8    2.10    6.00
  -9   2   8   19.00    9.10
  -9  -2  -8   19.30    8.60
  -9   2  -8    4.90    6.90
  -9  -2   8   20.40   13.20
  -9   4   8   25.30   10.30
   9   4  -8    9.20    7.50
  -9  -4  -8   19.80   11.90
  -9  -4  -8    3.50    8.30
  -9   4  -8   20.90   10.80
  -9  -4   8   15.40   14.80
  -9   4  -8   14.80    7.00
  -9   6   8   30.80   11.80
   9   6  -8   18.80    9.10
  -9  -6  -8    8.70   12.80
  -9   6  -8   22.20    8.90
  -9   6  -8    5.90   11.70
  -9   1   9   95.09   19.40
  -9  -1  -9  110.69   19.00
  -9   1  -9   88.19   18.80
  -9  -1   9  109.19   23.70
   9   3  -9   58.79   13.80
  -9   3   9   53.59   14.80
  -9  -3  -9   74.59   16.10
  -9  -3   9   55.69   19.10
  -9   3  -9   72.39   16.30
  -9   5   9   73.19   17.80
   9   5  -9   53.59   13.50
  -9  -5  -9   82.79   17.30
  -9  -5  -9   57.09   19.50
  -9   5  -9   41.50   11.30
  -9   5  -9   54.29   17.00
  -9   0 -10   -1.10    7.20
  -9   0  10   -3.50   10.90
  -9  -2 -10   -1.60    7.90
  -9   2  10   -5.80    7.10
  -9  -2  10    8.00   13.70
  -9   2 -10   -1.60    7.30
 -10   0   0 1125.09   90.79
 -10   0   0 1070.49   90.79
 -10  -2   0   29.80    9.70
 -10  -2   0   45.00    8.70
 -10   2   0   36.50   10.90
 -10   2   0   28.50    7.90
 -10   4   0  915.21   82.29
 -10  -4   0  927.21   81.49
 -10   4   0  916.11   74.59
 -10   6   0   64.19   18.60
  10   6   0  104.69   14.80
 -10  -6   0   68.29   17.10
 -10  -8   0  402.76   45.00
 -10   8   0  408.96   52.69
 -10   1   1  321.47   34.40
 -10   1   1  358.56   36.20
 -10  -1  -1  328.77   35.60
 -10   1  -1  401.26   34.90
 -10  -1   1  413.16   37.60
 -10   1  -1  444.86   38.00
 -10   3   1  198.98   29.30
 -10   3   1  236.18   22.90
 -10  -3  -1  255.87   31.00
 -10  -3  -1  230.58   21.80
 -10  -3   1  188.48   28.80
 -10   3  -1  274.47   31.90
 -10  -5  -1  166.98   27.30
  10   5  -1  190.38   21.40
 -10   5   1  215.48   21.10
 -10   5   1  204.28   31.80
 -10  -5   1  224.08   31.30
 -10   5  -1  230.38   32.10
 -10  -7  -1   64.09   16.90
 -10   7   1   40.10   17.20
  10   7  -1   57.89   10.80
 -10  -7   1   44.10   15.20
 -10   7  -1   66.09   19.60
 -10   9   1    9.80   16.60
 -10  -9  -1    4.90   12.60
 -10  -9   1   17.70   15.20
 -10   0  -2 1024.40   90.99
 -10   0  -2 1004.00   89.19
 -10   0   2 1274.77   92.59
 -10   2   2 2572.74  202.48
 -10  -2  -2 2473.35  201.98
 -10  -2  -2 2487.95  204.58
 -10  -2   2 2744.33  207.08
 -10   2  -2 2650.83  201.28
 -10  -2   2 2566.74  201.18
 -10   2  -2 2595.34  206.88
  10   4  -2  839.92   69.19
 -10   4   2 1110.79   84.59
 -10  -4  -2  902.41   87.49
 -10  -4   2 1105.69   91.99
 -10   4  -2 1004.80   91.39
 -10   6   2 1474.65  126.79
  10   6  -2 1398.76  111.59
 -10  -6  -2 1588.04  133.59
 -10   6  -2 1832.42  139.99
 -10  -6   2 1646.14  136.19
 -10   8   2  427.96   60.29
  10   8  -2  412.06   37.70
 -10  -8  -2  499.25   51.89
 -10  -8   2  608.14   55.99
 -10   8  -2  435.56   58.29
 -10  -1  -3   20.20    7.40
 -10  -1  -3   12.50    6.00
 -10   1   3   15.20    6.90
 -10   1  -3   20.10    8.40
 -10  -1   3   19.50    8.60
 -10   1  -3    7.10    5.80
 -10  -3  -3  155.78   22.70
 -10  -3  -3  166.58   18.40
 -10   3   3  192.48   20.00
  10   3  -3  152.18   18.80
 -10   3  -3  151.78   25.60
 -10  -3   3  177.08   26.00
 -10   5   3   16.70    6.70
  10   5  -3   19.50    6.50
 -10  -5  -3   21.10    9.60
 -10  -5   3   47.90   14.50
 -10   5  -3   17.50   11.30
 -10  -7  -3   72.19   18.30
 -10   7   3   92.79   14.90
  10   7  -3   50.89   10.10
 -10  -7   3  149.99   25.80
 -10   7  -3   39.00   18.30
  10   9  -3   46.50   12.00
 -10  -9  -3   61.79   17.90
 -10  -9   3   57.99   20.30
 -10   0  -4 3859.71  285.67
 -10   0  -4 3783.32  289.57
 -10   0   4 3394.76  289.37
 -10  -2  -4 3481.35  295.17
 -10  -2  -4 3779.52  296.37
 -10   2   4 4102.19  296.57
 -10   2  -4 3522.25  299.57
 -10  -2   4 4129.49  301.17
 -10  -4  -4 2671.43  199.78
  10   4  -4 2139.29  168.38
 -10  -4  -4 2465.05  195.08
 -10   4   4 2414.56  195.98
 -10   4  -4 2331.07  203.08
 -10  -4   4 2574.24  202.98
 -10  -6  -4 1703.53  136.99
  10   6  -4 1375.26  110.39
 -10   6   4 1653.83  131.99
 -10  -6   4 1792.62  140.89
 -10   6  -4 1384.46  140.09
 -10   8   4  846.32   78.89
  10   8  -4  880.81   73.59
 -10  -8  -4 1112.09   87.19
 -10   8  -4  852.61   90.09
 -10  -8   4  952.80   87.49
 -10  -1  -5   12.70    6.40
 -10   1   5   12.30    7.30
 -10  -1  -5   15.80    6.90
 -10   1  -5    5.00    6.10
 -10  -1   5   18.40    9.50
  10   3  -5  206.08   24.30
 -10  -3  -5  170.28   24.50
 -10   3   5  198.28   24.80
 -10  -3  -5  206.48   24.00
 -10  -3   5  178.78   28.40
 -10   3  -5  204.48   29.50
  10   5  -5   80.69   13.10
 -10   5   5   64.09   13.20
 -10  -5  -5   37.10   12.40
 -10  -5   5   82.29   19.50
 -10   5  -5   84.69   21.00
 -10  -7  -5  112.19   21.90
  10   7  -5  103.99   16.20
 -10   7   5  129.49   19.70
 -10  -7   5  129.99   27.10
 -10   7  -5   84.49   24.40
 -10   0   6 2814.12  229.98
 -10   0  -6 2959.50  229.48
 -10   2   6 2043.10  165.88
 -10  -2  -6 2007.90  165.58
 -10  -2  -6 2146.39  165.08
 -10   2  -6 2014.80  168.18
 -10  -2   6 2112.39  170.48
  10   4  -6 1732.43  138.49
 -10  -4  -6 1927.51  160.28
 -10  -4  -6 2044.30  163.38
 -10   4   6 1901.11  160.98
 -10  -4   6 2138.09  167.88
 -10   4  -6 2109.39  167.78
 -10  -6  -6  954.60   86.49
 -10   6   6 1043.80   83.59
  10   6  -6  767.62   65.29
 -10   6  -6  998.10   91.49
 -10  -6   6  867.91   87.99
 -10  -1  -7  151.68   22.50
 -10   1   7  135.39   22.10
 -10  -1   7  185.28   27.80
 -10   1  -7  122.79   21.60
 -10  -3  -7   53.59   13.70
 -10  -3  -7   43.20   11.60
  10   3  -7   33.70    9.70
 -10   3   7   37.70   11.70
 -10   3  -7   67.79   16.30
 -10  -3   7   49.90   16.60
 -10   5   7   82.89   16.90
 -10  -5  -7   79.29   19.10
 -10  -5  -7   97.09   17.10
  10   5  -7   72.39   13.50
 -10   5  -7   81.69   20.50
 -10  -5   7   85.29   21.40
 -10  -7  -7   14.20   13.60
  10   7  -7   14.40    8.50
 -10   7   7    0.30    9.80
 -10   7  -7    9.10    8.40
 -10   7  -7   18.50   17.90
 -10   0  -8  581.04   56.79
 -10   0   8  630.04   59.29
 -10  -2  -8  571.84   51.39
 -10   2   8  516.25   51.09
 -10   2  -8  525.05   51.99
 -10  -2   8  510.85   55.39
 -10  -4  -8  505.05   50.99
 -10   4   8  541.75   49.60
  10   4  -8  435.66   41.60
 -10  -4  -8  576.94   50.09
 -10   4  -8  485.25   51.39
 -10   4  -8  393.76   43.30
 -10  -4   8  581.64   56.19
 -10   6   8  414.36   44.40
 -10  -6  -8  464.35   49.70
  10   6  -8  397.66   39.00
 -10   6  -8  453.15   55.89
 -10   6  -8  426.96   40.80
 -10  -1  -9   65.49   15.90
 -10   1   9   65.39   16.80
 -10  -1   9   75.19   19.50
 -10   1  -9   34.80   12.60
  10   3  -9   11.10    9.80
 -10  -3  -9   14.50    9.60
 -10   3   9    8.30    9.20
 -10   3  -9   10.40   10.30
 -10  -3   9   24.90   16.50
 -10  -5  -9   62.59   17.20
  10   5  -9   34.90   12.00
 -10   5   9   68.09   17.50
 -10   5  -9   80.39   21.00
 -10   0  10  115.99   24.40
 -10   0 -10   63.49   17.30
 -10   2  10  142.79   25.00
 -10  -2 -10  105.89   21.40
 -10  -2  10  174.78   33.40
 -10   2 -10  105.09   24.10
 -11   0   0    0.60    5.00
 -11   0   0    3.20    4.80
 -11  -2   0    5.00    5.00
 -11  -2   0   -8.00    5.00
 -11   2   0   -0.30    5.20
 -11   2   0   -0.40    5.10
 -11  -4   0   16.20   10.30
 -11   4   0   13.10    8.80
 -11  -6   0   74.09   19.10
  11   6   0   71.19   12.70
 -11   6   0   61.29   19.30
 -11  -8   0   -3.80   10.50
 -11   8   0   18.40   14.30
 -11  -1  -1 1390.46  128.89
 -11  -1  -1 1491.45  128.09
 -11   1   1 1646.24  129.09
 -11   1   1 1672.93  130.39
 -11  -1   1 1569.94  130.09
 -11   1  -1 1631.64  130.39
 -11  -1   1 1685.23  127.59
 -11   1  -1 1647.04  127.89
 -11   3   1 1199.18   91.79
 -11  -3  -1 1196.08   96.89
 -11  -3  -1 1047.10   95.49
 -11   3   1  951.60   95.39
 -11  -3   1 1135.69   97.09
 -11   3  -1 1166.38   96.79
 -11  -5  -1 1310.47  116.49
  11   5  -1 1085.29   88.59
 -11   5   1 1309.57  111.29
 -11   5   1 1377.06  119.09
 -11  -5   1 1509.75  118.99
 -11   5  -1 1350.56  117.59
 -11  -7  -1  536.85   52.39
  11   7  -1  453.75   41.00
 -11   7   1  413.56   56.39
 -11  -7   1  435.36   51.59
 -11   7  -1  516.55   53.79
 -11  -9  -1  607.24   64.09
 -11   9   1  653.43   66.69
 -11  -9   1  632.44   64.79
 -11   9  -1  508.65   67.09
 -11   0   2   -5.20    5.50
 -11   0  -2   -0.50    4.60
 -11   0  -2   -0.50    4.30
 -11   0   2    8.60    5.90
 -11  -2  -2   41.30   11.60
 -11  -2  -2   43.80   10.20
 -11   2   2   68.79   12.60
 -11  -2   2   53.29   13.60
 -11   2  -2   62.09   14.00
 -11  -2   2   52.29    9.70
 -11   4   2   21.90    7.30
 -11  -4  -2   23.10   10.60
  11   4  -2   22.60    7.90
 -11  -4   2   54.09   15.00
 -11   4  -2   38.50   13.30
 -11  -6  -2   48.00   14.90
  11   6  -2   61.09   11.90
 -11   6   2   36.10   11.00
 -11  -6   2   82.79   19.70
 -11   6  -2   56.89   17.30
  11   8  -2   15.10    8.30
 -11   8   2   17.30   15.60
 -11  -8  -2   12.10   13.20
 -11   8  -2   35.90   17.70
 -11  -8   2   21.90   12.90
 -11  -1  -3  870.91   73.79
 -11   1   3  828.82   73.69
 -11  -1  -3  881.01   74.19
 -11  -1   3  880.71   75.89
 -11   1  -3  846.92   75.79
 -11  -3  -3  783.62   62.99
 -11  -3  -3  785.82   66.99
 -11   3   3  693.63   63.29
 -11  -3   3  725.83   68.09
 -11   3  -3  732.53   69.09
  11   5  -3  359.86   33.40
 -11   5   3  446.46   38.50
 -11  -5  -3  384.86   42.00
 -11  -5   3  375.36   43.80
 -11   5  -3  392.46   49.80
  11   7  -3  276.87   27.80
 -11  -7  -3  290.17   38.90
 -11   7  -3  298.57   43.10
 -11  -7   3  276.27   39.60
 -11   0  -4   -0.70    6.10
 -11   0   4   -0.80    6.10
 -11   2   4   12.70    6.90
 -11  -2  -4   12.20    7.30
 -11  -2  -4   23.60    8.70
 -11  -2   4   20.40    9.90
 -11   2  -4   28.40   12.10
 -11  -4  -4   60.79   14.70
 -11  -4  -4   39.10   10.30
 -11   4   4   20.60    8.20
  11   4  -4   47.40   10.40
 -11   4  -4   53.09   17.20
 -11  -4   4   34.40   13.70
 -11   6   4   28.60    9.80
  11   6  -4   21.50    7.20
 -11  -6  -4   17.40   12.20
 -11  -6   4   25.00   13.90
 -11   6  -4    1.90   11.20
 -11  -8  -4    8.90   11.30
  11   8  -4   -0.60    7.10
 -11  -8   4    7.00   13.40
 -11   8  -4    8.00   15.50
 -11  -1  -5   15.70    7.60
 -11   1   5   22.60    9.10
 -11  -1   5   14.20    9.20
 -11   1  -5   20.20    9.40
  11   3  -5   -1.50    4.20
 -11   3   5    7.90    6.40
 -11  -3  -5    8.20    7.90
 -11  -3  -5   10.90    7.20
 -11   3  -5   -2.50    6.40
 -11  -3   5   29.70   12.70
 -11   5   5   56.29   12.10
 -11  -5  -5   32.10   12.60
  11   5  -5   37.60    9.70
 -11   5  -5   39.00   16.40
 -11  -5   5   42.60   15.30
 -11  -7  -5   -6.50    9.20
 -11   7   5   -0.80    8.10
  11   7  -5   -2.10    5.80
 -11   7  -5   -1.90   12.70
 -11  -7   5    1.20   11.80
 -11   0   6   -1.70    6.80
 -11   0  -6   -0.50    6.70
 -11   2   6   12.80    7.90
 -11  -2  -6   25.70    9.60
 -11  -2   6   44.50   14.20
 -11   2  -6   32.40   12.00
 -11   4   6    2.80    7.00
 -11  -4  -6    9.30    9.30
  11   4  -6    4.30    6.70
 -11  -4  -6   29.10   10.00
 -11  -4   6   15.20   11.40
 -11   4  -6   13.30   11.30
 -11   6   6   34.00   11.00
 -11  -6  -6   31.60   12.90
  11   6  -6   35.10   10.00
 -11  -6   6   21.10   14.20
 -11   6  -6   31.30   16.60
 -11   1   7  261.37   37.70
 -11  -1  -7  400.16   37.70
 -11  -1   7  319.27   42.30
 -11   1  -7  371.66   38.10
 -11   3   7  170.68   25.90
  11   3  -7  128.79   18.90
 -11  -3  -7  256.67   29.10
 -11   3  -7  200.48   30.50
 -11  -3   7  159.68   29.30
  11   5  -7  201.48   25.60
 -11   5   7  250.87   33.20
 -11  -5  -7  270.77   37.40
 -11   5  -7  290.17   42.00
 -11  -5   7  290.17   40.50
 -11   0   8    1.90    9.70
 -11   0  -8    5.70    8.40
 -11  -2  -8    4.50    8.10
 -11   2   8   18.20   10.10
 -11  -2   8   17.80   13.60
 -11   2  -8    7.00    9.70
 -11  -4  -8   61.39   15.80
  11   4  -8   48.60   12.20
 -11   4   8   44.40   13.70
 -11   4  -8   19.50   12.60
 -11  -4   8   18.70   14.70
 -11   1   9  167.28   28.40
 -11  -1  -9  165.48   26.80
 -11   1  -9  204.48   31.20
 -11  -1   9  178.78   32.10
 -11  -3  -9  204.48   29.30
 -11   3   9  173.68   29.00
 -11  -3   9  227.98   37.70
 -11   3  -9  233.98   34.20
 -11   0  10    3.60   12.70
 -11   0 -10   -7.40    9.80
 -11  -2 -10    8.40   12.50
 -11   2  10   10.10   13.40
 -11  -2  10   10.70   15.60
 -11   2 -10    5.90   10.60
 -12   0   0 2875.91  220.28
 -12   0   0 2701.53  220.08
 -12  -2   0 3521.75  271.87
 -12  -2   0 3637.74  276.67
 -12   2   0 3129.49  271.97
 -12   2   0 3737.33  276.17
 -12   4   0 2359.46  184.78
 -12  -4   0 2142.39  183.68
 -12  -6   0 2105.49  179.78
 -12   6   0 2216.08  180.58
 -12   8   0 1348.67  120.79
 -12  -8   0 1356.06  121.49
 -12  -1  -1   -0.10    6.30
 -12   1   1   12.30    6.80
 -12  -1  -1    7.30    6.40
 -12   1   1    4.20    5.30
 -12   1  -1   15.30    7.20
 -12  -1   1   -0.40    5.40
 -12  -1   1    7.50    5.70
 -12   1  -1   15.50    7.30
 -12  -3  -1  164.68   25.10
 -12   3   1  145.19   19.50
 -12   3   1  120.09   22.30
 -12   3  -1  156.28   23.40
 -12  -3   1  102.99   21.20
 -12  -5  -1  135.09   24.40
 -12   5   1  114.39   23.30
 -12   5  -1  127.19   23.10
 -12  -5   1   83.69   20.40
  12   7  -1   70.99   13.60
 -12   7   1   61.19   20.60
 -12  -7  -1   71.49   20.40
 -12   7  -1   63.49   19.80
 -12  -7   1   39.20   17.10
 -12   0   2 3694.13  262.37
 -12   0  -2 3204.18  260.97
 -12   0  -2 2903.91  258.77
 -12   0   2 3493.55  260.87
 -12  -2  -2 2397.86  215.58
 -12   2   2 2966.70  215.38
 -12  -2  -2 2522.55  213.48
 -12   2  -2 2697.93  217.38
 -12  -2   2 3021.80  218.48
 -12   4   2 2679.23  209.18
 -12  -4  -2 2562.74  214.68
 -12   4  -2 2668.33  216.08
 -12  -4   2 2714.33  216.08
 -12   6   2 1345.27  126.49
  12   6  -2 1155.48   94.59
 -12  -6  -2 1410.66  124.49
 -12   6  -2 1494.15  126.89
 -12  -6   2 1506.75  126.59
 -12  -8  -2 1190.68  109.19
  12   8  -2  790.62   67.69
 -12   8   2 1219.08  112.69
 -12   8  -2 1178.18  109.69
 -12  -8   2 1230.58  111.19
 -12   1   3   44.20   12.30
 -12  -1  -3   65.79   13.90
 -12  -1  -3   60.49   13.10
 -12  -1   3   27.40   11.50
 -12   1  -3   53.29   13.70
 -12  -3  -3   -1.30    6.20
 -12  -3  -3    2.60    5.40
 -12   3   3    0.90    5.30
 -12  -3   3    5.60    7.50
 -12   3  -3   -1.90    6.30
  12   5  -3   36.50    9.50
 -12   5   3   36.90   10.20
 -12  -5  -3   66.99   15.90
 -12   5  -3   24.90   13.90
 -12  -5   3   55.89   16.40
 -12  -7  -3    6.60   11.00
  12   7  -3   12.50    7.20
 -12   7  -3   14.20   13.30
 -12  -7   3    3.60   11.20
 -12   0  -4 1170.08   89.39
 -12   0   4  886.61   86.89
 -12  -2  -4 1547.65  123.59
 -12  -2  -4 1500.95  124.49
 -12   2   4 1515.55  123.79
 -12  -2   4 1736.33  128.39
 -12   2  -4 1235.58  125.29
 -12  -4  -4  621.64   52.79
  12   4  -4  542.95   48.40
 -12   4   4  418.56   46.00
 -12  -4   4  499.55   52.19
 -12   4  -4  603.64   56.59
  12   6  -4  502.65   45.40
 -12   6   4  686.93   59.09
 -12  -6  -4  623.04   63.99
 -12  -6   4  725.33   67.19
 -12   6  -4  587.34   66.79
  12   8  -4   91.09   16.00
 -12  -8  -4   97.09   22.60
 -12   8  -4   47.10   22.30
 -12  -8   4   44.60   20.10
 -12  -1  -5    9.70    7.40
 -12   1   5    1.90    6.40
 -12   1  -5   19.40   10.60
 -12  -1   5    6.20    8.90
 -12  -3  -5   79.69   17.20
 -12  -3  -5   92.99   16.20
 -12   3   5   62.39   13.70
 -12   3  -5   61.89   17.70
 -12  -3   5   53.19   16.90
 -12   5   5    3.40    8.00
  12   5  -5   -4.10    5.50
 -12  -5  -5    4.10   11.20
 -12   5  -5   12.40   11.80
 -12  -5   5   12.00   12.10
  12   7  -5    8.80    7.70
 -12   7   5    3.30    9.10
 -12  -7  -5   11.70   12.40
 -12   7  -5   11.30   15.20
 -12  -7   5   -3.60   12.10
 -12   0  -6  983.50   88.79
 -12   0   6 1039.30   90.39
 -12   2   6  575.84   56.39
 -12  -2   6  639.24   60.19
 -12  -4  -6  542.25   52.49
  12   4  -6  457.65   43.00
 -12   4   6  602.24   54.09
 -12  -4  -6  514.95   55.89
 -12   4  -6  546.25   59.19
 -12  -4   6  651.23   59.59
 -12   6   6  162.18   26.30
 -12  -6  -6  332.37   39.10
  12   6  -6  283.17   32.60
 -12   6  -6  227.18   38.50
 -12  -6   6  244.78   36.80
 -12  -1  -7   20.20   10.50
 -12   1   7    9.50    9.80
 -12  -1   7   20.90   12.30
 -12   1  -7   19.40   11.10
 -12  -3  -7   -9.30    7.20
 -12   3   7    7.10    7.90
 -12   3  -7   -3.00    8.10
 -12  -3   7    2.10   11.30
  12   5  -7   36.10   11.50
 -12   5   7   22.50   12.30
 -12  -5  -7    8.30   14.70
 -12  -5   7   32.30   16.20
 -12   5  -7   15.20   14.10
 -12   0   8  195.38   32.20
 -12  -2  -8 1045.50   92.69
 -12   2   8 1094.89   93.39
 -12  -2   8  994.90   95.79
 -12   2  -8 1059.79   95.09
 -12  -4  -8  323.17   35.20
 -12   4   8  167.88   28.30
  12   4  -8  248.28   30.70
 -12   4  -8  293.87   39.70
 -12  -4   8  146.99   31.00
 -12   1   9    3.70   12.30
 -12  -1  -9   15.90   12.90
 -12  -1   9   12.50   14.30
 -12   1  -9   13.20   10.50
 -12  -3  -9   95.19   20.50
 -12   3   9   76.19   18.80
 -12   3  -9   56.19   19.00
 -12  -3   9  125.69   27.10
 -13   0   0    4.70    6.30
 -13   0   0   -4.10    5.50
 -13  -2   0   -3.40    4.90
 -13   2   0    4.00    6.90
 -13   2   0    1.10    5.90
 -13  -2   0    3.30    6.90
 -13   4   0   29.20   12.50
 -13  -4   0    3.10    9.00
 -13  -6   0    3.40    9.70
 -13   6   0    2.60    8.80
 -13   8   0    9.50   15.10
 -13  -8   0    3.60   13.90
 -13  -1  -1  252.27   31.50
 -13   1   1  236.18   30.00
 -13  -1  -1  257.37   27.00
 -13   1   1  227.68   29.40
 -13  -1   1  208.08   29.50
 -13   1  -1  258.17   26.80
 -13  -1   1  228.78   25.50
 -13   1  -1  280.47   28.70
 -13   3   1  162.48   25.40
 -13  -3  -1  110.29   22.70
 -13   3  -1  164.18   25.90
 -13  -3   1  190.98   27.10
 -13   5   1  391.86   49.40
 -13  -5  -1  382.86   48.10
 -13   5  -1  455.95   46.30
 -13  -5   1  340.77   47.00
 -13   7   1  252.27   38.30
  13   7  -1  103.59   16.50
 -13  -7  -1  146.59   29.60
 -13   7  -1   98.19   27.30
 -13  -7   1  233.18   35.50
 -13   0   2    1.40    7.30
 -13   0  -2   -3.60    5.80
 -13   0  -2    0.90    6.10
 -13   0   2    4.60    6.20
 -13  -2  -2   31.90    9.90
 -13   2   2   43.20   13.40
 -13  -2  -2   60.49   14.60
 -13   2   2   40.60   11.80
 -13   2  -2   46.70   13.40
 -13  -2   2   42.50   13.50
 -13  -4  -2   20.90   11.90
 -13   4   2   31.10   13.30
 -13   4   2   15.80    8.30
 -13  -4   2   15.50   11.00
 -13   4  -2   10.80    9.20
 -13   6   2   74.69   22.50
 -13  -6  -2   91.29   22.00
  13   6  -2   71.79   13.50
 -13  -6   2   78.09   22.00
 -13   6  -2  140.29   26.60
 -13   8   2   10.00   16.50
 -13  -8  -2    1.90   13.30
  13   8  -2   -7.50    9.00
 -13   8  -2   -3.80   14.70
 -13  -8   2    1.00   15.80
 -13  -1  -3  790.62   73.69
 -13  -1  -3  897.01   74.79
 -13   1   3  800.52   74.39
 -13  -1   3  919.91   76.69
 -13   1  -3  830.42   75.49
 -13  -3  -3  770.62   61.59
 -13  -3  -3  695.13   65.59
 -13   3   3  658.93   61.89
 -13  -3   3  647.24   64.79
 -13   3  -3  712.73   66.59
 -13   5   3  765.22   69.69
 -13  -5  -3  849.81   76.99
 -13  -5   3  790.12   76.19
 -13   5  -3  882.61   78.49
  13   7  -3  309.87   31.50
 -13  -7  -3  474.95   54.39
 -13   7  -3  421.96   52.79
 -13  -7   3  298.07   47.60
 -13   0   4    4.80    8.30
 -13   0  -4    7.60    7.30
 -13  -2  -4    4.80    7.00
 -13  -2  -4    5.70    9.20
 -13   2   4    5.20    7.80
 -13  -2   4    3.70    8.70
 -13   2  -4    8.60    8.90
 -13   4   4   30.40    9.90
 -13  -4  -4   55.99   16.00
 -13  -4   4   38.00   14.30
 -13   4  -4   17.10   12.60
 -13  -6  -4   45.00   17.20
  13   6  -4   33.40   10.30
 -13   6   4   27.40   11.90
 -13  -6   4   47.40   17.20
 -13   6  -4   26.30   15.60
 -13  -1  -5 1167.68  100.19
 -13   1   5 1181.38  100.49
 -13  -1   5 1202.28  101.89
 -13   1  -5 1085.89  101.09
 -13  -3  -5  652.53   61.29
 -13   3   5  696.03   62.29
 -13  -3  -5  679.83   64.89
 -13   3  -5  613.74   65.79
 -13  -3   5  766.02   66.79
  13   5  -5  441.86   41.80
 -13   5   5  620.74   54.79
 -13  -5  -5  571.44   59.39
 -13   5  -5  485.25   65.09
 -13  -5   5  584.94   59.39
 -13  -7  -5  108.59   25.30
 -13   7   5  151.98   23.20
  13   7  -5   79.29   16.00
 -13  -7   5  102.79   26.20
 -13   7  -5  119.59   30.20
 -13   0   6    5.00    9.40
 -13   0  -6   -1.20    7.00
 -13  -2  -6   12.30    9.10
 -13   2   6   21.10   11.00
 -13   2  -6    8.40   10.10
 -13  -2   6    0.00    9.80
 -13  -4  -6   34.30   14.40
 -13   4   6   33.80   12.10
 -13   4  -6   24.40   13.90
 -13  -4   6   34.90   15.10
 -13  -6  -6    9.00   15.70
 -13   6   6   14.60   11.60
  13   6  -6    5.50    9.30
 -13  -6   6   10.20   13.70
 -13   6  -6    2.10   15.40
 -13   1   7  478.45   49.00
 -13  -1  -7  520.65   49.20
 -13  -1   7  410.26   48.90
 -13   1  -7  429.46   48.60
 -13   3   7  435.96   49.30
 -13  -3  -7  607.64   52.39
 -13  -3   7  513.45   54.49
 -13   3  -7  504.25   54.89
 -13  -5  -7  388.96   50.89
  13   5  -7  294.57   35.10
 -13   5   7  425.26   43.20
 -13   5  -7  335.87   51.59
 -13  -5   7  377.66   49.90
 -13   0   8    2.40   10.70
 -13   0  -8   -4.20    8.20
 -13   2   8   24.10   12.80
 -13  -2  -8    2.90   10.10
 -13  -2   8    7.40   11.60
 -13   2  -8  -13.70    7.10
 -13   4   8   18.50   12.30
 -13  -4  -8   15.10   13.00
 -13   4  -8   14.00   15.70
 -13  -4   8    1.50   13.00
 -13  -1  -9   23.30   14.90
 -13   1   9   -2.10   10.80
 -13   1  -9    8.50   13.30
 -13  -1   9    6.00   15.40
 -14   0   0 1577.04  130.49
 -14   0   0 1611.14  130.29
 -14  -2   0  268.27   32.30
 -14   2   0  186.68   26.00
 -14   2   0  204.18   28.10
 -14  -4   0  528.95   55.89
 -14   4   0  586.54   56.19
 -14  -6   0   22.90   13.50
 -14   6   0   27.50   14.80
 -14   8   0   51.19   20.70
 -14  -8   0   74.29   24.10
 -14  -1  -1   31.80   10.60
 -14   1   1   40.70   11.40
 -14   1   1   35.20   12.30
 -14  -1  -1   45.90   13.00
 -14  -1   1   61.39   14.40
 -14  -1   1   38.00   10.30
 -14   1  -1   33.40   10.80
 -14   1  -1   41.20   11.50
 -14   3   1    2.80    8.40
 -14   3   1   21.50   11.20
 -14  -3  -1    1.10    8.90
 -14   3  -1   10.00    8.30
 -14  -3   1    4.90    8.30
 -14   5   1   78.19   20.30
 -14  -5  -1   97.39   22.60
 -14   5  -1   88.19   21.10
 -14  -5   1   92.39   21.60
 -14   7   1    5.40   12.30
 -14  -7  -1   39.20   17.70
 -14   7  -1   22.00   14.10
 -14  -7   1   26.00   16.40
 -14   0   2 1262.77  102.29
 -14   0   2 1164.18   99.99
 -14   0  -2 1171.28   99.99
 -14   0  -2 1189.68  101.19
 -14   2   2 2002.10  172.08
 -14  -2  -2 2023.10  171.48
 -14  -2  -2 2151.88  169.28
 -14   2   2 1958.10  169.88
 -14   2  -2 2381.36  173.08
 -14  -2   2 2142.39  171.98
 -14   4   2  699.73   69.49
 -14   4   2  754.42   64.49
 -14  -4  -2  588.24   66.79
 -14   4  -2  697.93   68.19
 -14  -4   2  844.22   70.59
 -14  -6  -2  787.22   74.69
 -14   6   2  645.84   73.19
 -14  -6   2  653.13   71.89
 -14   6  -2  905.31   75.79
 -14  -1  -3   55.39   15.10
 -14   1   3   73.39   16.60
 -14  -1  -3   81.19   17.10
 -14   1  -3   51.59   14.60
 -14  -1   3   95.59   18.50
 -14   3   3  190.08   26.20
 -14  -3  -3  165.78   27.60
 -14   3  -3  195.88   30.00
 -14  -3   3  189.88   29.30
 -14   5   3   17.50   10.20
 -14  -5  -3   34.70   14.80
 -14  -5   3    7.90   10.80
 -14   5  -3   51.39   17.20
  14   7  -3  113.79   19.20
 -14  -7  -3  152.28   30.80
 -14   7   3  138.09   32.90
 -14  -7   3  133.89   28.40
 -14   7  -3   78.29   23.50
 -14   0   4  961.90   96.69
 -14   0  -4 1343.07  100.19
 -14  -2  -4 2133.09  182.98
 -14   2   4 2518.55  185.78
 -14  -2  -4 2206.98  185.18
 -14   2  -4 2057.29  185.68
 -14  -2   4 2452.55  186.88
 -14  -4  -4 1281.37  108.19
 -14   4   4 1152.98  102.79
 -14  -4   4 1223.18  107.49
 -14   4  -4 1255.47  109.59
 -14   6   4 1460.75  120.59
 -14  -6  -4 1385.16  127.39
 -14   6  -4 1442.56  129.89
 -14  -6   4 1523.95  128.69
 -14   1   5  140.09   25.20
 -14  -1  -5  131.69   23.60
 -14  -1   5  151.88   25.90
 -14   1  -5  125.89   24.30
 -14  -3  -5  135.89   25.40
 -14   3   5  119.79   21.20
 -14  -3  -5   68.69   16.90
 -14   3  -5   95.59   22.20
 -14  -3   5  131.69   23.70
 -14   5   5   68.39   16.00
 -14  -5  -5   68.99   19.80
 -14   5  -5  127.49   26.80
 -14  -5   5   38.10   17.40
 -14   0  -6 1859.81  153.48
 -14   0   6 1789.72  153.38
 -14  -2  -6 1019.10   93.99
 -14   2   6 1252.67   97.09
 -14  -2   6 1120.59   97.39
 -14   2  -6  916.41   95.79
 -14  -4  -6 1649.63  130.69
 -14   4   6 1436.06  125.09
 -14  -4   6 1604.94  130.49
 -14   4  -6 1291.47  130.39
 -14   6   6  654.13   62.29
 -14  -6  -6  684.33   69.89
  14   6  -6  521.25   49.20
 -14  -6   6  692.83   69.59
 -14   6  -6  596.84   77.09
 -14   1   7   66.29   18.60
 -14  -1  -7   86.79   19.60
 -14   1  -7   68.19   19.50
 -14  -1   7   75.49   20.60
 -14  -3  -7   48.50   15.50
 -14   3   7   35.70   14.30
 -14   3  -7   25.90   15.00
 -14  -3   7   25.70   14.90
 -14   5   7   77.39   19.20
 -14  -5   7   90.09   24.40
 -14   5  -7   86.59   26.40
 -14   0   8  790.12   73.09
 -14   0  -8  649.04   69.89
 -14  -2  -8  717.83   63.59
 -14   2   8  564.24   60.69
 -14  -2   8  586.74   63.19
 -14   2  -8  570.74   62.99
 -14   1   9   -9.60   11.20
 -14  -1  -9   20.50   15.10
 -14   1  -9   -5.60   12.20
 -14  -1   9    3.00   15.10
 -15   0   0   -1.90    5.70
 -15   0   0    2.80    6.90
 -15   2   0   25.30   10.10
 -15  -2   0   14.80   10.30
 -15  -4   0   98.29   21.90
 -15   4   0  100.59   21.20
 -15  -6   0   17.40   13.60
 -15   6   0   11.00   12.10
 -15   1   1 1720.73  144.89
 -15  -1  -1 1883.81  144.59
 -15   1   1 1753.72  144.99
 -15  -1  -1 1874.51  146.09
 -15  -1   1 1657.93  142.39
 -15   1  -1 1785.22  145.19
 -15  -1   1 1750.12  145.69
 -15   3   1 1042.40   97.99
 -15  -3  -1 1150.88   99.39
 -15   3   1 1067.99  100.99
 -15   3  -1 1229.38   99.39
 -15  -3   1 1138.39   98.79
 -15   5   1 1182.68  105.29
 -15  -5  -1 1083.59  104.09
 -15   5  -1 1190.38  104.49
 -15  -5   1 1201.88  105.09
 -15   7   1  381.76   50.79
 -15  -7  -1  389.26   52.09
 -15   7  -1  374.16   50.59
 -15  -7   1  291.37   46.60
 -15   0   2    0.00    6.80
 -15   0  -2   -7.40    5.20
 -15   0   2   -3.80    6.70
 -15  -2  -2    2.80    8.80
 -15  -2  -2   13.30    8.80
 -15   2   2    7.30    9.30
 -15   2   2    9.90   11.00
 -15  -2   2    0.70    7.20
 -15   2  -2    4.60    7.40
 -15  -4  -2    1.80    9.60
 -15   4   2    1.90    8.70
 -15   4  -2   -9.30    8.40
 -15  -4   2   16.70   11.20
 -15   6   2   46.20   19.10
 -15  -6  -2   46.10   18.80
 -15  -6   2   26.20   15.40
 -15   6  -2   48.30   18.50
 -15   1   3  218.38   31.10
 -15   1   3  233.78   31.60
 -15  -1  -3  176.88   28.30
 -15   1  -3  224.68   31.10
 -15  -1   3  245.78   31.90
 -15  -3  -3  255.47   35.30
 -15   3   3  150.68   30.70
 -15   3   3  227.48   31.20
 -15   3  -3  363.36   39.80
 -15  -3   3  211.28   32.30
 -15  -5  -3  298.57   45.50
 -15   5   3  356.56   49.00
 -15  -5   3  432.66   44.40
 -15   5  -3  331.57   45.90
 -15   7   3  196.38   38.80
 -15  -7  -3  222.18   38.50
 -15   7  -3  204.98   36.50
 -15  -7   3  164.68   35.30
 -15   0  -4  -10.20    7.80
 -15   0   4   -6.30    7.90
 -15  -2  -4    1.90    7.90
 -15   2   4   10.50    9.70
 -15   2  -4   -2.10    8.50
 -15  -2   4   10.80   10.40
 -15   4   4   10.30   10.90
 -15  -4  -4   -0.50   11.80
 -15   4  -4    0.80    8.50
 -15  -4   4   15.10   10.20
 -15  -6  -4    3.60   13.40
 -15  -6   4    4.30   11.50
 -15   6  -4    3.50   13.40
 -15   1   5   13.30   11.70
 -15  -1  -5   37.20   14.40
 -15   1  -5    5.90   10.40
 -15  -1   5    9.10   11.70
 -15   3   5   37.40   12.70
 -15   3  -5   25.10   13.50
 -15  -3   5   28.70   13.00
 -15   5   5    7.10   10.10
 -15  -5  -5   14.80   16.90
 -15   5  -5   34.60   19.10
 -15  -5   5   22.70   14.50
 -15   0   6   -3.90    9.10
 -15   0  -6   12.90   10.40
 -15   2   6    8.60   10.80
 -15  -2  -6   19.40   12.10
 -15   2  -6    9.60   12.60
 -15  -2   6   -7.10   10.20
 -15   4   6   -6.30    8.40
 -15   4  -6   -4.50   11.80
 -15  -4   6   12.10   12.40
 -15  -1  -7  194.98   31.80
 -15   1   7  167.68   30.50
 -15   1  -7  138.89   27.80
 -15  -1   7  156.68   29.30
 -15  -3  -7  127.09   25.80
 -15   3   7  155.88   26.80
 -15   3  -7  149.79   30.70
 -15  -3   7  125.09   26.70
 -15   0   8    9.10   14.00
 -15   0  -8    2.40   14.20
 -15   2   8   10.80   13.50
 -15  -2  -8   13.30   15.20
 -15  -2   8   17.90   14.90
 -15   2  -8   11.00   13.70
 -16   0   0 3638.74  299.37
 -16   0   0 4000.10  300.97
 -16  -2   0 2371.16  201.58
 -16   2   0 2636.24  202.48
 -16   4   0 3043.00  243.78
 -16  -4   0 2982.30  244.18
 -16   6   0 1194.58  106.69
 -16  -6   0 1144.39  107.29
 -16   1   1   27.70   10.60
 -16  -1  -1   23.00   10.30
 -16  -1  -1   27.10   11.50
 -16   1   1   42.20   13.10
 -16   1  -1   38.20   11.50
 -16  -1   1   25.20   12.10
 -16  -3  -1   10.80   11.70
 -16   3   1   34.40   13.10
 -16   3  -1   19.00   11.50
 -16  -3   1   53.69   15.20
 -16  -5  -1   74.29   21.20
 -16   5   1   72.79   20.60
 -16  -5   1   71.59   19.70
 -16   5  -1   63.59   18.90
 -16   7   1   18.20   17.20
 -16   7  -1   15.10   16.70
 -16   0   2  785.92   75.69
 -16   0  -2 1019.80   77.39
 -16   0   2  779.12   73.79
 -16   2   2 1838.82  160.28
 -16  -2  -2 2004.90  161.08
 -16   2   2 1649.83  158.18
 -16   2  -2 2272.77  161.88
 -16  -2   2 2019.60  160.78
 -16  -4  -2  634.84   66.49
 -16   4   2  649.93   67.09
 -16   4  -2  730.33   66.49
 -16  -4   2  691.63   66.19
 -16  -6  -2 1066.59  102.19
 -16   6   2 1066.79  102.49
 -16  -6   2  964.30   99.29
 -16   6  -2 1307.47  103.29
 -16   1   3   38.00   14.10
 -16  -1  -3   44.60   13.90
 -16   1   3   42.50   13.60
 -16  -1   3   38.20   13.80
 -16   1  -3   44.30   14.20
 -16  -3  -3   89.29   20.70
 -16   3   3   97.89   23.10
 -16   3   3   86.69   20.20
 -16   3  -3  102.09   21.30
 -16  -3   3   81.69   19.40
 -16   5   3   69.79   22.20
 -16  -5  -3   54.39   20.80
 -16  -5   3   82.09   20.30
 -16   5  -3   88.09   21.50
 -16   0  -4  461.25   47.90
 -16   0   4  456.55   49.20
 -16  -2  -4   34.90   15.40
 -16   2   4  164.48   25.70
 -16   2  -4   62.79   18.90
 -16  -2   4  163.68   25.70
 -16   4   4  274.27   36.90
 -16  -4  -4  222.98   37.60
 -16   4  -4  310.17   41.40
 -16  -4   4  314.57   40.80
 -16   6   4  174.38   34.60
 -16  -6  -4   52.89   22.60
 -16  -6   4  148.69   28.60
 -16   6  -4   94.99   25.90
 -16  -1  -5   47.00   15.90
 -16   1   5   49.00   16.80
 -16   1  -5   67.79   18.40
 -16  -1   5   80.49   20.80
 -16   3   5   27.20   13.10
 -16   3  -5    9.80   11.60
 -16  -3   5   10.30   10.40
 -16   5   5   97.39   20.70
 -16  -5  -5  101.89   28.30
 -16  -5   5  106.39   24.70
 -16   5  -5   74.19   23.60
 -16   0  -6  133.09   27.80
 -16   0   6  236.18   34.70
 -16   2   6  194.18   31.60
 -16  -2  -6  216.88   31.60
 -16   2  -6  106.39   26.00
 -16  -2   6  212.38   33.10
 -16   4   6  154.98   28.30
 -16   4  -6  108.09   27.50
 -16  -4   6  158.68   29.30
 -16   1   7    5.90   12.30
 -16  -1  -7    2.10   11.00
 -16   1  -7   -0.60   12.70
 -16  -1   7   12.20   12.90
 -16   3   7   80.99   21.40
 -16  -3  -7   85.59   23.30
 -16  -3   7   92.79   24.70
 -16   3  -7   83.49   24.20
 -17   0   0    9.70    7.30
 -17   0   0    3.40    8.60
 -17   2   0   13.40    9.70
 -17  -2   0   17.50   11.80
 -17   4   0   33.20   14.50
 -17  -4   0    8.70   11.30
 -17   6   0   60.19   19.50
 -17  -6   0   19.40   15.10
 -17   1   1  141.29   22.90
 -17  -1  -1  140.69   21.20
 -17   1   1  104.29   19.50
 -17  -1  -1   85.99   19.00
 -17   1  -1  107.89   19.70
 -17  -1   1  130.09   22.80
 -17  -3  -1   36.40   15.90
 -17   3   1   35.30   13.70
 -17   3  -1   35.60   14.00
 -17  -3   1   80.79   18.10
 -17  -5  -1   61.69   19.00
 -17   5   1    7.50   12.50
 -17  -5   1   12.20   13.20
 -17   5  -1   39.10   16.20
 -17   0   2    0.10    6.90
 -17   0  -2   -1.70    6.90
 -17   0   2   -8.70    7.40
 -17   2   2   15.10   12.60
 -17  -2  -2    2.10   11.20
 -17   2   2   10.70   11.10
 -17  -2   2    4.70   10.90
 -17   2  -2    8.20    8.80
 -17   4   2    1.00    9.90
 -17  -4  -2    5.00   12.80
 -17   4  -2    4.90    9.90
 -17  -4   2    3.70   10.10
 -17   6   2   45.00   20.80
 -17  -6  -2    4.30   15.20
 -17  -6   2   27.20   17.80
 -17   6  -2   14.40   13.50
 -17  -1  -3  906.81   79.29
 -17   1   3  834.42   78.99
 -17   1   3  914.71   80.79
 -17   1  -3  899.91   79.79
 -17  -1   3  835.62   79.49
 -17   3   3  609.34   57.29
 -17  -3  -3  489.45   56.69
 -17   3   3  594.94   58.59
 -17  -3   3  620.84   57.89
 -17   3  -3  464.25   54.39
 -17  -5  -3  693.73   71.49
 -17   5   3  684.33   71.99
 -17  -5   3  723.73   69.39
 -17   5  -3  666.13   69.09
 -17   0   4    2.90   10.50
 -17   0  -4    1.10    9.50
 -17  -2  -4   22.00   14.70
 -17   2   4   19.50   13.40
 -17   2   4    5.30   13.10
 -17  -2   4   12.10   11.80
 -17   2  -4    7.00   11.40
 -17  -4  -4   84.29   24.70
 -17   4   4   91.69   25.50
 -17   4   4   76.69   20.70
 -17  -4   4  107.79   23.10
 -17   4  -4   89.69   23.60
 -17  -1  -5  766.92   72.79
 -17   1   5  789.92   74.89
 -17  -1   5  759.52   73.69
 -17   1  -5  746.73   73.19
 -17   3   5  657.13   68.09
 -17  -3   5  649.74   67.49
 -17   3  -5  808.32   72.29
 -17   0  -6  -10.00   10.00
 -17   0   6  -11.10   11.70
 -17  -2  -6   20.30   15.10
 -17   2   6   11.50   14.20
 -17  -2   6    3.50   12.60
 -17   2  -6   -0.30   12.50
 -17  -1  -7  176.68   33.30
 -17   1   7  252.47   40.10
 -17   1  -7  209.18   36.20
 -17  -1   7  225.68   37.50
 -18   0   0  229.38   31.20
 -18   0   0  259.97   31.40
 -18   2   0   50.59   15.70
 -18  -2   0   42.60   15.20
 -18  -4   0  237.28   36.50
 -18   4   0  269.17   37.80
 -18   1   1   73.69   16.10
 -18  -1  -1   53.89   15.50
 -18   1   1   52.69   15.40
 -18   1  -1   53.09   14.70
 -18  -1   1   48.90   16.10
 -18   3   1   40.10   15.20
 -18  -3  -1   53.69   16.60
 -18  -3   1   30.80   13.60
 -18   3  -1   74.29   18.50
 -18  -5  -1   40.80   17.10
 -18   5   1   39.80   17.60
 -18   5  -1   38.40   16.70
 -18  -5   1   34.30   17.00
 -18   0  -2  147.79   23.50
 -18  -2  -2  805.12   76.99
 -18   2   2  890.11   77.49
 -18   2   2  793.62   76.49
 -18   2  -2  859.81   76.59
 -18  -2   2  830.02   76.69
 -18   4   2  246.58   36.20
 -18  -4  -2  169.78   32.70
 -18  -4   2  277.27   36.50
 -18   4  -2  185.48   31.00
 -18  -1  -3   70.09   18.50
 -18   1   3   97.09   20.90
 -18   1   3   64.09   19.30
 -18   1  -3   79.39   18.20
 -18  -1   3  100.49   21.80
 -18   3   3   57.29   17.80
 -18   3   3   61.19   18.80
 -18  -3  -3   29.20   16.30
 -18  -3   3   38.70   14.90
 -18   3  -3   29.20   14.30
 -18   5   3   71.99   23.50
 -18  -5  -3   68.19   21.80
 -18   5  -3   64.89   20.40
 -18  -5   3   47.30   18.60
 -18   0  -4 1485.35  130.39
 -18   0   4 1596.44  132.89
 -18   2   4 1617.14  130.69
 -18   2   4 1484.05  129.19
 -18   2  -4 1383.06  126.99
 -18  -2   4 1472.45  127.79
 -18   4   4  934.71   92.09
 -18  -4   4  923.61   88.79
 -18   4  -4 1036.00   91.29
 -18   1   5   24.10   15.20
 -18  -1  -5    2.80   11.20
 -18  -1   5   12.10   13.30
 -18   1  -5   30.10   15.00
 -18   3   5   12.40   15.50
 -18   3   5   -5.30   13.60
 -18   3  -5   27.50   16.30
 -18  -3   5    5.70   13.70
 -18   0   6  919.91   93.99
 -18   0  -6 1105.99   94.89
 -18  -2  -6  663.53   66.19
 -18   2   6  570.84   67.49
 -18  -2   6  698.63   68.19
 -18   2  -6  735.63   69.69
 -19   0   0   -5.80    7.70
 -19  -2   0    5.00    9.90
 -19   2   0   -3.20    8.70
 -19   4   0   25.10   14.60
 -19  -4   0   41.20   16.50
 -19   1   1  875.01   75.49
 -19  -1   1  928.71   77.09
 -19   1  -1  704.03   73.19
 -19  -3  -1  669.83   60.29
 -19   3   1  522.55   57.19
 -19  -3   1  542.55   57.29
 -19   3  -1  581.74   57.49
 -19   0  -2    2.60    8.90
 -19   0   2    8.30   10.80
 -19   2   2    5.10   11.20
 -19   2  -2   -0.80    9.60
 -19  -2   2    1.50    9.80
 -19  -4  -2   34.80   17.90
 -19   4   2   37.90   17.70
 -19   4  -2   37.20   15.20
 -19  -4   2   68.79   20.90
 -19  -1  -3  525.55   57.39
 -19   1   3  509.85   55.19
 -19   1   3  595.34   54.29
 -19   1  -3  491.75   51.59
 -19  -1   3  470.25   52.39
 -19   3   3  375.26   50.79
 -19   3  -3  460.55   48.70
 -19  -3   3  435.66   48.60
 -19   0  -4    7.50   10.20
 -19   0   4   -1.80   11.30
 -19   2   4    3.50   14.10
 -19   2   4   16.90   15.60
 -19  -2   4   -4.50   12.40
 -19   2  -4    3.10   10.30
 -19   1   5  130.69   27.40
 -19  -1  -5   75.19   21.30
 -19  -1   5   43.50   19.40
 -19   1  -5  110.89   23.50
 -20  -2   0  980.60   90.69
 -20   2   0 1050.09   90.99
 -20   1   1  127.59   22.00
 -20   1  -1  124.59   22.00
 -20  -1   1   91.99   21.90
 -20  -3  -1  112.39   24.10
 -20   3   1  122.19   25.80
 -20  -3   1   84.59   22.90
 -20   3  -1  160.98   26.70
 -20   0   2 1122.69   98.79
 -20   0  -2 1107.89   96.79
 -20   2   2  691.83   66.49
 -20  -2   2  687.13   66.89
 -20   2  -2  686.93   65.89
 -20   1   3   37.50   16.90
 -20   1  -3   25.90   13.60
 -20  -1   3   45.30   18.00
 -20   0   4  126.29   29.20
 -20   0  -4  178.18   29.10
 -21   2   0   36.80   14.90
 -21   1   1  144.39   26.40
 -21   1  -1  188.68   28.40
 -21  -1   1  195.48   30.00
 -21   0   2    5.00   12.40
   0   0   0    0.00    0.00

_computing_structure_solution     'SHELXT 2018/2 (Sheldrick, 2018)'
;
_shelx_hkl_checksum              13870
_olex2_submission_special_instructions 'No special instructions were received'
loop_
_space_group_symop_operation_xyz
'x, y, z'
'-x, -y, z'
'x+1/2, -y+1/2, z'
'-x+1/2, y+1/2, z'
'x, y+1/2, z+1/2'
'-x, -y+1/2, z+1/2'
'x+1/2, -y+1, z+1/2'
'-x+1/2, y+1, z+1/2'
loop_
_atom_site_label
_atom_site_type_symbol
_atom_site_fract_x
_atom_site_fract_y
_atom_site_fract_z
_atom_site_U_iso_or_equiv
_atom_site_adp_type
_atom_site_occupancy
_atom_site_site_symmetry_order
_atom_site_calc_flag
_atom_site_refinement_flags_posn
_atom_site_refinement_flags_adp
_atom_site_refinement_flags_occupancy
_atom_site_disorder_assembly
_atom_site_disorder_group
Hg1 Hg 0.500000 0.500000 0.29945(14) 0.0268(3) Uani 1 2 d S T P . .
Hg2 Hg 0.25536(4) 0.50015(5) 0.70081(8) 0.0241(2) Uani 1 1 d . . . . .
P1 P 0.3713(2) 0.7641(3) 0.4697(4) 0.0111(7) Uani 1 1 d . . . . .
S1 S 0.4663(2) 0.7815(4) 0.3278(4) 0.0171(7) Uani 1 1 d . . . . .
S2 S 0.38917(19) 0.5624(4) 0.5928(4) 0.0189(7) Uani 1 1 d . . . . .
S3 S 0.25682(19) 0.7570(3) 0.3769(4) 0.0128(8) Uani 1 1 d . . . . .
S4 S 0.3780(2) 0.9851(3) 0.5747(4) 0.0155(7) Uani 1 1 d . . . . .
loop_
_atom_site_aniso_label
_atom_site_aniso_U_11
_atom_site_aniso_U_22
_atom_site_aniso_U_33
_atom_site_aniso_U_23
_atom_site_aniso_U_13
_atom_site_aniso_U_12
Hg1 0.0196(6) 0.0199(4) 0.0408(5) 0.000 0.000 0.0098(3)
Hg2 0.0158(3) 0.0261(3) 0.0302(4) 0.00234(19) -0.0015(3) -0.0055(2)
P1 0.0069(15) 0.0135(14) 0.0130(14) -0.0015(11) 0.0030(14) 0.0008(12)
S1 0.0126(18) 0.0154(13) 0.0232(16) 0.0017(13) 0.0077(14) 0.0026(14)
S2 0.0093(16) 0.0218(16) 0.0256(17) 0.0120(14) 0.0000(17) 0.0030(13)
S3 0.0092(17) 0.0124(16) 0.017(2) -0.0005(10) -0.0029(13) -0.0009(12)
S4 0.0072(17) 0.0180(16) 0.0212(15) -0.0062(13) -0.0010(16) -0.0012(11)
loop_
_atom_type_symbol
_atom_type_description
_atom_type_scat_dispersion_real
_atom_type_scat_dispersion_imag
_atom_type_scat_source
Hg Hg -2.3894 9.2266 'International Tables Vol C Tables 4.2.6.8 and 6.1.1.4'
P P 0.1023 0.0942 'International Tables Vol C Tables 4.2.6.8 and 6.1.1.4'
S S 0.1246 0.1234 'International Tables Vol C Tables 4.2.6.8 and 6.1.1.4'
loop_
_geom_angle_atom_site_label_1
_geom_angle_atom_site_label_2
_geom_angle_atom_site_label_3
_geom_angle
_geom_angle_site_symmetry_1
_geom_angle_site_symmetry_3
_geom_angle_publ_flag
S1 Hg1 S1 167.35(19) 2_665 . ?
S1 Hg1 S4 87.63(11) 2_665 6_664 ?
S1 Hg1 S4 101.53(11) 2_665 5_544 ?
S1 Hg1 S4 87.63(11) . 5_544 ?
S1 Hg1 S4 101.53(11) . 6_664 ?
S4 Hg1 S4 88.05(19) 5_544 6_664 ?
S2 Hg2 S3 98.70(12) . 8_545 ?
S2 Hg2 S3 114.06(11) . 5_545 ?
S2 Hg2 S4 127.28(15) . 4_545 ?
S3 Hg2 S3 102.95(17) 5_545 8_545 ?
S4 Hg2 S3 105.49(12) 4_545 5_545 ?
S4 Hg2 S3 105.03(11) 4_545 8_545 ?
S1 P1 S3 115.5(2) . . ?
S1 P1 S4 101.6(2) . . ?
S2 P1 S1 107.84(19) . . ?
S2 P1 S3 110.04(19) . . ?
S2 P1 S4 116.4(2) . . ?
S4 P1 S3 105.62(19) . . ?
P1 S1 Hg1 100.42(15) . . ?
P1 S2 Hg2 105.42(16) . . ?
Hg2 S3 Hg2 102.87(17) 5_554 8_544 ?
P1 S3 Hg2 110.11(15) . 8_544 ?
P1 S3 Hg2 104.47(16) . 5_554 ?
Hg2 S4 Hg1 105.79(17) 4 5 ?
P1 S4 Hg1 114.44(18) . 5 ?
P1 S4 Hg2 102.57(17) . 4 ?
loop_
_geom_bond_atom_site_label_1
_geom_bond_atom_site_label_2
_geom_bond_distance
_geom_bond_site_symmetry_2
_geom_bond_publ_flag
Hg1 S1 2.396(4) 2_665 ?
Hg1 S1 2.396(4) . ?
Hg1 S4 2.905(5) 6_664 ?
Hg1 S4 2.905(5) 5_544 ?
Hg2 S2 2.481(4) . ?
Hg2 S3 2.679(4) 8_545 ?
Hg2 S3 2.584(4) 5_545 ?
Hg2 S4 2.498(5) 4_545 ?
P1 S1 2.055(5) . ?
P1 S2 2.036(5) . ?
P1 S3 2.079(5) . ?
P1 S4 2.066(4) . ?
