#------------------------------------------------------------------------------
#$Date: 2021-11-04 00:37:16 +0200 (Thu, 04 Nov 2021) $
#$Revision: 270266 $
#$URL: file:///home/coder/svn-repositories/cod/cif/4/00/40/4004049.cif $
#------------------------------------------------------------------------------
#
# This file is available in the Crystallography Open Database (COD),
# http://www.crystallography.net/
#
# All data on this site have been placed in the public domain by the
# contributors.
#
data_4004049
loop_
_publ_author_name
'Song, Xiaoyu'
'Schneider, Sarah N.'
'Cheng, Guangming'
'Khoury, Jason F.'
'Jovanovic, Milena'
'Yao, Nan'
'Schoop, Leslie M.'
_publ_section_title
;
 Kinetics and Evolution of Magnetism in Soft-Chemical Synthesis of CrSe2
 from KCrSe2
;
_journal_issue                   20
_journal_name_full               'Chemistry of Materials'
_journal_page_first              8070
_journal_page_last               8078
_journal_paper_doi               10.1021/acs.chemmater.1c02620
_journal_volume                  33
_journal_year                    2021
_chemical_formula_moiety         '0.5(Cr2 K2 Se4)'
_chemical_formula_sum            'Cr K Se2'
_chemical_formula_weight         249.22
_space_group_crystal_system      monoclinic
_space_group_IT_number           12
_space_group_name_Hall           '-C 2y'
_space_group_name_H-M_alt        'C 1 2/m 1'
_atom_sites_solution_primary     dual
_audit_creation_date             2021-05-10
_audit_creation_method
;
Olex2 1.2
(compiled 2018.05.29 svn.r3508 for OlexSys, GUI svn.r5506)
;
_cell_angle_alpha                90
_cell_angle_beta                 106.5480(10)
_cell_angle_gamma                90
_cell_formula_units_Z            2
_cell_length_a                   6.5845(2)
_cell_length_b                   3.80120(10)
_cell_length_c                   7.7116(2)
_cell_measurement_reflns_used    3947
_cell_measurement_temperature    273(2)
_cell_measurement_theta_max      30.16
_cell_measurement_theta_min      2.76
_cell_volume                     185.019(9)
_computing_molecular_graphics    'Olex2 (Dolomanov et al., 2009)'
_computing_publication_material  'Olex2 (Dolomanov et al., 2009)'
_computing_structure_refinement  'ShelXL (Sheldrick, 2015)'
_computing_structure_solution    'ShelXT (Sheldrick, 2015)'
_diffrn_ambient_temperature      273.15
_diffrn_measured_fraction_theta_full 1.000
_diffrn_measured_fraction_theta_max 0.994
_diffrn_measurement_device_type  'Bruker APEX-II CCD'
_diffrn_measurement_method       '\f and \w scans'
_diffrn_radiation_monochromator  graphite
_diffrn_radiation_type           MoK\a
_diffrn_radiation_wavelength     0.71073
_diffrn_reflns_av_R_equivalents  0.0408
_diffrn_reflns_av_unetI/netI     0.0139
_diffrn_reflns_Laue_measured_fraction_full 1.000
_diffrn_reflns_Laue_measured_fraction_max 0.994
_diffrn_reflns_limit_h_max       9
_diffrn_reflns_limit_h_min       -9
_diffrn_reflns_limit_k_max       5
_diffrn_reflns_limit_k_min       -5
_diffrn_reflns_limit_l_max       10
_diffrn_reflns_limit_l_min       -10
_diffrn_reflns_number            5422
_diffrn_reflns_point_group_measured_fraction_full 1.000
_diffrn_reflns_point_group_measured_fraction_max 0.994
_diffrn_reflns_theta_full        25.242
_diffrn_reflns_theta_max         30.262
_diffrn_reflns_theta_min         2.755
_diffrn_standards_number         0
_exptl_absorpt_coefficient_mu    23.625
_exptl_absorpt_correction_T_max  0.187
_exptl_absorpt_correction_T_min  0.138
_exptl_absorpt_correction_type   multi-scan
_exptl_crystal_colour            'metallic black'
_exptl_crystal_colour_lustre     metallic
_exptl_crystal_colour_primary    black
_exptl_crystal_density_diffrn    4.473
_exptl_crystal_description       plate
_exptl_crystal_F_000             222
_exptl_crystal_size_max          0.139
_exptl_crystal_size_mid          0.115
_exptl_crystal_size_min          0.107
_refine_diff_density_max         0.789
_refine_diff_density_min         -1.002
_refine_diff_density_rms         0.175
_refine_ls_extinction_coef       0.0064(14)
_refine_ls_extinction_expression Fc^*^=kFc[1+0.001xFc^2^\l^3^/sin(2\q)]^-1/4^
_refine_ls_extinction_method     'SHELXL-2014/7 (Sheldrick 2014'
_refine_ls_goodness_of_fit_ref   1.417
_refine_ls_hydrogen_treatment    undef
_refine_ls_matrix_type           full
_refine_ls_number_parameters     16
_refine_ls_number_reflns         323
_refine_ls_number_restraints     0
_refine_ls_restrained_S_all      1.417
_refine_ls_R_factor_all          0.0189
_refine_ls_R_factor_gt           0.0179
_refine_ls_shift/su_max          0.000
_refine_ls_shift/su_mean         0.000
_refine_ls_structure_factor_coef Fsqd
_refine_ls_weighting_details
'w=1/[\s^2^(Fo^2^)+(0.0148P)^2^+0.7047P] where P=(Fo^2^+2Fc^2^)/3'
_refine_ls_weighting_scheme      calc
_refine_ls_wR_factor_gt          0.0428
_refine_ls_wR_factor_ref         0.0432
_reflns_Friedel_coverage         0.000
_reflns_number_gt                314
_reflns_number_total             323
_reflns_threshold_expression     'I > 2\s(I)'
_cod_data_source_file            cm1c02620_si_001.cif
_cod_data_source_block           kcrse2
_cod_database_code               4004049
_shelx_shelxl_version_number     2014/7
_shelx_space_group_comment
;
The symmetry employed for this shelxl refinement is uniquely defined
by the following loop, which should always be used as a source of
symmetry information in preference to the above space-group names.
They are only intended as comments.
;
_shelx_estimated_absorpt_t_max   0.187
_shelx_estimated_absorpt_t_min   0.138
_olex2_refinement_description
;
;
_shelx_res_file
;
    kcrse2.res created by SHELXL-2014/7

TITL kcrse2_a.res in C2/m
REM Old TITL KCrSe2 in C2/m
REM SHELXT solution in C2/m
REM R1 0.030, Rweak 0.005, Alpha 0.013, Orientation as input
REM Formula found by SHELXT: K Cr Se2
CELL 0.71073 6.5845 3.8012 7.7116 90 106.548 90
ZERR 2 0.0002 0.0001 0.0002 0 0.001 0
LATT 7
SYMM -X,+Y,-Z
SFAC Cr K Se
UNIT 2 2.01 4

L.S. 4 0 0
PLAN  21
SIZE 0.107 0.115 0.139
TEMP 0
list 4
fmap 2 53
acta
REM <olex2.extras>
REM <HklSrc "%.\\KCrSe2.hkl">
REM </olex2.extras>

WGHT    0.014800    0.704700
EXTI    0.006384
FVAR       0.61008
SE1   3    0.772731    1.000000    0.818314    10.50000    0.00640    0.00741 =
         0.00622    0.00000    0.00027    0.00000
CR1   1    0.500000    1.000000    1.000000    10.25000    0.00546    0.00607 =
         0.00614    0.00000    0.00003    0.00000
K1    2    0.500000    0.500000    0.500000    10.25000    0.01439    0.01610 =
         0.01155    0.00000    0.00172    0.00000
HKLF 4

REM  kcrse2_a.res in C2/m
REM R1 =  0.0179 for     314 Fo > 4sig(Fo)  and  0.0189 for all     323 data
REM     16 parameters refined using      0 restraints

END

WGHT      0.0148      0.7047

REM Highest difference peak  0.789,  deepest hole -1.002,  1-sigma level  0.175
Q1    1   0.7080  1.0000  0.7028  10.50000  0.05    0.79
Q2    1   0.8245  1.0000  0.9212  10.50000  0.05    0.72
Q3    1   0.6425  1.1362  0.6959  11.00000  0.05    0.55
Q4    1   0.4399  0.5682  0.3789  11.00000  0.05    0.51
Q5    1   0.8667  1.1829  0.9218  11.00000  0.05    0.47
Q6    1   0.8326  1.1124  0.8018  11.00000  0.05    0.40
Q7    1   0.3435  0.7857  0.3802  11.00000  0.05    0.31
Q8    1   0.4106  0.5000  0.2337  10.50000  0.05    0.30
Q9    1   0.4389  1.0000  0.8952  10.50000  0.05    0.29
Q10   1   0.5000  0.6899  0.5000  10.50000  0.05    0.29
Q11   1   0.5746  0.3066  0.4186  11.00000  0.05    0.27
Q12   1   0.7047  1.1111  0.8372  11.00000  0.05    0.27
Q13   1   0.5439  0.5000  0.4813  10.50000  0.05    0.26
Q14   1   0.7688  1.2507  0.7037  11.00000  0.05    0.26
Q15   1   0.5191  0.7869  0.9815  11.00000  0.05    0.26
Q16   1   0.7708  1.2690  0.8158  11.00000  0.05    0.26
Q17   1   0.4629  0.1213  0.6646  11.00000  0.05    0.26
Q18   1   0.6344  1.0000  0.5973  10.50000  0.05    0.24
Q19   1   0.8319  1.0000  1.0229  10.50000  0.05    0.24
Q20   1   0.7704  1.1581  0.6019  11.00000  0.05    0.23
Q21   1   0.7218  0.5000  0.6721  10.50000  0.05    0.23
;
_shelx_res_checksum              9937
_shelx_hkl_file
;
  -2   0  -2 3625.94  174.88
  -2   0  -2 3854.51  175.48
  -2   0  -2 3578.34  175.08
   2   0   2 3637.04  174.98
   2   0   2 3195.18  174.98
  -2   0  -2 3418.26  174.98
  -2   0  -2 3615.24  175.28
  -2   0  -2 3649.03  175.18
  -2   0  -2 3606.44  174.88
   2   0   2 3325.17  175.28
   2   0   2 3449.05  175.18
   2   0   2 3309.17  175.18
   2   0   2 3268.07  174.78
  -2   0  -2 3806.12  174.98
  -2   0  -2 3583.34  175.18
   2   0   2 3839.72  174.98
   2   0   2 3202.28  174.98
  -4   0  -4   59.89    7.90
   4   0   4   46.40    7.40
  -4   0  -4   54.79    7.00
  -4   0  -4   39.70    6.40
  -4   0  -4   38.90    6.20
  -4   0  -4   27.40    4.30
   4   0   4   35.60    5.80
  -4   0  -4   34.60    4.50
   4   0   4   40.20    6.30
   4   0   4   56.69    7.90
  -4   0  -4   40.50    5.30
  -4   0  -4   41.00    5.30
   4   0   4   28.10    5.10
   6   0   6  138.19   15.50
  -6   0  -6  112.99   17.90
  -6   0  -6  128.19   12.40
  -6   0  -6  123.69   14.70
   6   0   6  124.09   13.10
  -1   1  -1 8366.36  421.36
   1   1   1 8768.82  421.46
  -1   1  -1 8724.93  421.06
   1   1   1 9020.60  421.36
   1   1   1 7722.23  421.66
  -1   1  -1 8243.88  422.36
   1  -1   1 7658.93  421.46
  -1  -1  -1 8171.08  420.96
   1  -1   1 9004.80  422.36
   1  -1   1 8561.44  421.56
  -1  -1  -1 7813.02  420.76
  -1  -1  -1 8285.67  421.16
  -1  -1  -1 9999.00  422.46
  -1  -1  -1 8110.89  421.46
  -1  -1  -1 8967.30  421.36
   3   1   3  340.37   19.20
  -3   1  -3  333.37   19.60
   3   1   3  316.47   18.80
   3   1   3  331.57   18.80
  -3   1  -3  344.07   18.50
  -3   1  -3  352.36   17.70
  -3   1  -3  347.87   18.40
  -3   1  -3  347.67   17.90
  -3   1  -3  330.87   18.40
  -3   1  -3  355.76   17.30
  -3   1  -3  326.37   18.70
   3   1   3  278.67   18.10
  -3  -1  -3  404.66   18.20
   3  -1   3  341.87   18.90
   3  -1   3  336.27   17.60
   3  -1   3  323.07   18.60
   3  -1   3  325.67   18.00
   3  -1   3  342.97   17.70
  -3  -1  -3  342.77   18.00
  -3  -1  -3  356.86   18.80
  -3  -1  -3  346.87   18.80
  -3  -1  -3  342.17   18.10
   3  -1   3  275.87   17.70
   3  -1   3  350.86   18.60
  -3  -1  -3  356.56   18.40
  -3  -1  -3  349.47   18.00
  -3  -1  -3  361.56   19.20
  -3  -1  -3  351.26   18.40
   3  -1   3  278.37   17.20
  -5   1  -5  200.38   17.50
  -5   1  -5  224.68   19.30
   5   1   5  234.58   15.20
  -5   1  -5  207.28   13.70
   5   1   5  223.18   15.60
  -5   1  -5  206.38   16.30
  -5   1  -5  200.38   15.10
   5   1   5  189.58   16.10
   5   1   5  236.58   17.30
   5   1   5  216.08   16.10
  -5  -1  -5  222.78   14.70
   5  -1   5  186.98   15.10
  -5  -1  -5  187.68   16.70
  -5  -1  -5  218.18   15.20
   5  -1   5  184.98   14.50
  -5  -1  -5  200.98   14.90
   5  -1   5  221.38   17.00
   0   2   0 7510.95  356.56
   0   2   0 7018.00  356.16
   0   2   0 7004.70  355.26
   0   2   0 6081.59  355.26
   0   2   0 7542.65  355.96
   0  -2   0 6679.83  355.76
   0  -2   0 6693.83  356.06
   0  -2   0 7491.55  355.56
   0  -2   0 7507.15  355.36
   0  -2   0 7598.24  356.16
   0  -2   0 7824.82  355.86
   2   2   2 2241.08  109.59
  -2   2  -2 2289.07  109.39
   2   2   2 2249.57  109.09
   2   2   2 2061.59  108.59
  -2   2  -2 2170.38  109.69
   2   2   2 2163.78  110.39
  -2   2  -2 2235.88  109.49
  -2   2  -2 2226.48  109.79
  -2   2  -2 2238.18  108.79
  -2   2  -2 2199.88  110.59
  -2   2  -2 2222.18  109.89
  -2  -2  -2 2245.58  109.79
   2  -2   2 2159.48  109.29
  -2  -2  -2 2196.68  109.89
  -2  -2  -2 2164.98  110.29
  -2  -2  -2 2245.88  110.49
  -2  -2  -2 2071.59  108.89
   2  -2   2 2177.58  109.89
   2  -2   2 2219.78  109.39
  -2  -2  -2 2219.08  109.09
  -2  -2  -2 2220.68  109.09
   2  -2   2 1926.71  108.99
   2  -2   2 2224.08  109.69
  -2  -2  -2 2201.88  109.49
   2  -2   2 2293.17  109.79
   4   2   4   32.10    7.50
  -4   2  -4   96.49    9.10
   4   2   4   47.90    9.70
  -4   2  -4   42.90    7.70
   4   2   4   25.00    6.50
  -4   2  -4   29.00    5.10
  -4   2  -4   71.09    8.20
  -4   2  -4   42.80    5.30
  -4   2  -4   51.39   10.90
  -4  -2  -4   29.80    5.60
  -4  -2  -4   40.10    5.30
  -4  -2  -4   80.39    9.20
  -4  -2  -4   38.30    6.80
  -4  -2  -4   37.20    6.80
   4  -2   4   51.49    8.90
  -4  -2  -4   20.20    7.50
   4  -2   4   32.60    8.00
  -4  -2  -4   29.20    5.40
   4  -2   4   55.39    6.00
   4  -2   4   44.20    6.80
   4  -2   4   57.09    7.40
  -1   3  -1 3437.76  172.48
   1   3   1 3661.33  171.58
   1   3   1 3236.78  171.28
   1   3   1 3184.38  171.78
   1   3   1 3356.26  171.18
  -1   3  -1 3474.25  171.98
  -1   3  -1 3385.56  171.68
  -1   3  -1 3676.53  171.48
   1   3   1 3601.94  171.68
   1  -3   1 3454.05  172.88
  -1  -3  -1 3436.66  172.18
  -1  -3  -1 3549.64  171.78
  -1  -3  -1 3322.57  173.18
   1  -3   1 3561.94  172.18
  -1  -3  -1 3703.73  171.78
  -1  -3  -1 3573.24  171.58
  -1  -3  -1 3502.45  172.88
   1  -3   1 3518.45  171.68
   1  -3   1 3450.55  171.78
   1  -3   1 3239.38  171.88
   1  -3   1 3034.80  172.48
  -1  -3  -1 3062.29  172.88
  -1  -3  -1 3648.83  171.28
  -1  -3  -1 3739.33  171.18
  -3   3  -3  146.29   11.10
   3   3   3  164.58   12.30
   3   3   3  146.39   11.50
   3   3   3  155.48   10.00
  -3   3  -3  157.38   11.70
  -3   3  -3  165.38   14.40
  -3   3  -3  153.18   10.40
  -3   3  -3  160.28   11.80
   3  -3   3  158.78   10.60
  -3  -3  -3  167.68   13.00
   3  -3   3  157.38   12.40
  -3  -3  -3  163.58   11.80
  -3  -3  -3  157.08   11.30
  -3  -3  -3  136.79    9.70
  -3  -3  -3  150.58   13.50
  -3  -3  -3  152.08    9.90
  -3  -3  -3  169.88   14.30
   3  -3   3  181.88   12.50
   3  -3   3  142.99   10.90
   3  -3   3  167.48   11.70
   0   4   0 2684.93  132.89
   0   4   0 2742.73  133.19
   0  -4   0 2710.33  133.99
   0  -4   0 2639.74  135.09
   0  -4   0 2271.57  134.49
   0  -4   0 2722.13  133.79
   0  -4   0 2764.22  133.29
   0  -4   0 2733.03  133.09
  -2   4  -2  849.41   45.10
  -2   4  -2  872.11   44.20
   2   4   2  867.91   44.10
  -2   4  -2  874.21   46.20
   2   4   2  946.31   45.10
   2   4   2  796.72   46.50
   2  -4   2  887.81   45.60
  -2  -4  -2  885.11   44.60
   2  -4   2  847.62   44.50
  -2  -4  -2  853.91   45.30
  -2  -4  -2  861.01   47.10
   2  -4   2  758.32   45.70
  -2  -4  -2  846.62   46.80
  -2  -4  -2  844.72   43.50
  -2  -4  -2  852.71   44.40
  -2  -4  -2  836.42   44.60
   2  -4   2  829.42   46.50
   2  -4   2  915.41   44.80
  -4   4  -4    9.50    6.20
   4   4   4   11.40    8.50
  -4   4  -4   -1.20    9.30
  -4   4  -4   15.00    8.50
  -4   4  -4    4.40   13.80
  -4  -4  -4    7.80    8.40
  -4  -4  -4   32.20   12.00
   4  -4   4    9.50   10.10
   4  -4   4    3.40    7.50
  -4  -4  -4   26.70    6.40
  -4  -4  -4    9.00   10.70
   4  -4   4   10.20    7.80
   1   5   1 1374.56   62.99
  -1   5  -1 1271.47   62.89
   1  -5   1 1225.58   64.29
  -1  -5  -1 1251.27   66.29
   1  -5   1 1185.68   62.79
  -1  -5  -1 1205.48   64.19
   1  -5   1 1150.08   65.09
  -1  -5  -1 1134.79   62.89
   1  -5   1 1205.78   62.89
   4   0   5  365.06   21.30
  -4   0  -5  375.46   21.20
  -4   0  -5  371.36   20.80
   4   0   5  375.16   21.20
  -4   0  -5  343.67   21.90
  -4   0  -5  398.36   21.10
  -4   0  -5  385.36   22.80
  -4   0  -5  384.76   22.20
  -4   0  -5  346.47   21.90
   4   0   5  362.36   22.50
   4   0   5  396.46   22.20
   4   0   5  388.96   22.60
   2   0   3 3085.19  179.38
   2   0   3 3623.34  179.18
  -2   0  -3 3897.21  179.48
  -2   0  -3 3676.13  179.78
   2   0   3 3652.43  179.78
   2   0   3 3703.13  179.28
  -2   0  -3 3626.14  179.88
  -2   0  -3 3636.04  179.28
  -2   0  -3 3513.85  179.28
  -2   0  -3 3677.73  179.38
  -2   0  -3 3667.73  179.88
   2   0   3 3650.63  179.58
  -2   0  -3 3631.64  179.38
   2   0   3 3396.56  179.68
  -2   0  -3 3820.32  179.88
  -2   0  -3 3657.03  179.58
  -2   0  -3 3429.26  179.18
   0   0  -1 1244.38   63.79
   0   0   1 1157.18   63.79
   0   0   1 1339.37   63.69
   0   0  -1 1179.38   63.79
   0   0  -1 1274.17   63.79
   0   0  -1 1312.87   63.79
   0   0  -1 1337.57   63.69
   0   0   1 1264.07   63.79
   0   0   1 1500.85   63.59
   0   0   1 1221.68   63.79
   2   0   1 1371.06   70.09
   2   0   1 1487.95   70.19
   2   0   1 1382.06   70.39
  -2   0  -1 1449.35   70.19
  -2   0  -1 1375.86   70.29
  -2   0  -1 1420.76   70.29
  -2   0  -1 1430.26   69.99
   2   0   1 1299.97   70.09
  -2   0  -1 1463.65   70.19
  -2   0  -1 1440.46   70.39
   2   0   1 1416.26   70.09
   2   0   1 1315.57   70.29
   2   0   1 1454.25   70.19
  -4   0  -3 1451.15   73.59
   4   0   3 1551.34   73.69
   4   0   3 1505.25   74.39
  -4   0  -3 1438.86   73.09
  -4   0  -3 1431.96   73.09
  -4   0  -3 1431.36   74.09
  -4   0  -3 1521.25   73.79
   4   0   3 1427.36   73.89
   4   0   3 1405.66   73.89
  -4   0  -3 1394.16   73.59
  -4   0  -3 1429.76   73.99
   4   0   3 1456.35   73.69
  -4   0  -3 1493.05   73.29
   6   0   5   -1.50    9.30
   6   0   5    9.20   10.60
  -6   0  -5   -5.20    7.20
  -6   0  -5   -5.60    8.80
  -6   0  -5  -10.00    6.30
   6   0   5    6.10    8.50
  -6   0  -5  -27.20   11.20
  -6   0  -5  -17.70   10.90
   5   1   6   11.60    9.40
  -5   1  -6    9.40    9.00
  -5   1  -6  -17.50   11.40
  -5   1  -6   -1.70    9.10
  -5   1  -6   -7.10    6.50
   5   1   6    0.60    9.50
  -5   1  -6   -3.20    7.60
   5   1   6   -2.20    7.60
  -5  -1  -6  -11.30   11.00
   5  -1   6   -4.70    9.30
  -5  -1  -6  -14.20    7.90
   5  -1   6   -2.10    8.90
  -5  -1  -6  -10.50    7.40
  -5  -1  -6   -7.60    7.60
  -3   1  -4 1788.62   87.49
   3   1   4 1750.72   88.19
  -3   1  -4 1783.42   87.99
  -3   1  -4 1764.32   87.19
  -3   1  -4 1733.83   88.49
  -3   1  -4 1826.42   86.79
   3   1   4 1740.33   87.09
   3   1   4 1550.84   87.69
  -3   1  -4 1742.53   87.69
  -3   1  -4 1663.93   87.89
   3   1   4 1763.52   87.99
  -3   1  -4 1776.82   88.99
  -3  -1  -4 1757.32   87.69
   3  -1   4 1663.33   86.69
  -3  -1  -4 1803.42   87.39
  -3  -1  -4 1982.50   89.49
   3  -1   4 1657.13   87.89
   3  -1   4 1705.23   87.09
   3  -1   4 1697.13   87.09
  -3  -1  -4 1748.23   87.39
  -3  -1  -4 1823.12   87.79
  -3  -1  -4 1774.72   88.29
   3  -1   4 1682.13   87.79
  -3  -1  -4 1699.43   87.29
   3  -1   4 1647.94   87.39
  -3  -1  -4 1723.73   87.79
  -3  -1  -4 1743.03   88.29
   1   1   2 3232.78  157.78
   1   1   2 3060.49  157.68
   1   1   2 2962.80  157.38
  -1   1  -2 3017.30  157.18
   1   1   2 3407.76  157.48
  -1   1  -2 3315.57  157.18
  -1   1  -2 3187.48  158.08
   1   1   2 2907.51  156.88
  -1   1  -2 2974.90  157.68
   1   1   2 2921.31  157.58
  -1   1  -2 3391.66  157.38
  -1  -1  -2 3295.57  157.68
  -1  -1  -2 3182.58  157.18
  -1  -1  -2 3121.59  157.38
   1  -1   2 2939.21  157.18
   1  -1   2 3312.77  157.18
   1  -1   2 3450.25  157.38
  -1  -1  -2 3316.77  157.18
   1  -1   2 3268.97  157.48
  -1  -1  -2 3220.18  157.58
  -1  -1  -2 3161.38  157.88
   1  -1   2 2950.80  156.78
  -1  -1  -2 3052.09  157.58
   1  -1   2 3379.06  157.38
  -1   1   0   25.30    1.20
   1   1   0   16.10    2.20
  -1   1   0   29.10    1.90
  -1   1   0   26.30    2.80
  -1   1   0   24.00    2.40
   1   1   0   17.20    1.60
  -1   1   0   20.40    1.80
  -1   1   0   28.00    2.50
   1   1   0   20.50    3.40
   1  -1   0   20.60    1.80
  -1  -1   0   13.90    1.50
  -1  -1   0   22.70    1.90
  -1  -1   0   20.70    2.10
  -1  -1   0   41.20    3.00
   1  -1   0   17.60    1.70
   1  -1   0   26.70    2.70
   1  -1   0   27.80    3.00
  -1  -1   0   23.50    2.50
   1  -1   0   20.00    1.30
  -3   1  -2 1876.71   97.19
  -3   1  -2 2040.70   96.49
  -3   1  -2 1938.11   97.29
   3   1   2 1874.21   97.69
   3   1   2 1984.10   97.89
  -3   1  -2 1978.10   96.69
  -3   1  -2 1943.71   97.29
  -3   1  -2 2026.70   97.29
   3   1   2 1873.21   97.39
  -3   1  -2 1948.21   97.49
   3   1   2 1683.63   96.99
  -3   1  -2 1980.90   97.99
  -3   1  -2 2000.00   96.79
   3  -1   2 1986.00   96.79
  -3  -1  -2 1995.00   96.89
   3  -1   2 1968.70   96.99
   3  -1   2 1851.01   97.39
   3  -1   2 1936.91   97.19
   3  -1   2 1935.61   97.59
  -3  -1  -2 1923.21   97.59
  -3  -1  -2 2069.19   97.89
  -3  -1  -2 1951.60   97.19
  -3  -1  -2 1939.61   97.09
  -3  -1  -2 1962.30   97.49
  -3  -1  -2 2033.10   97.09
  -3  -1  -2 1877.21   97.09
  -3  -1  -2 1976.30   96.99
   3  -1   2 1839.82   97.19
  -5   1  -4  356.56   21.00
  -5   1  -4  377.36   20.40
  -5   1  -4  354.56   23.40
   5   1   4  398.86   23.10
   5   1   4  399.86   21.90
  -5   1  -4  358.66   20.00
  -5   1  -4  378.06   21.30
   5   1   4  392.76   22.70
   5   1   4  383.26   22.40
  -5   1  -4  379.36   21.60
   5   1   4  326.77   21.90
   5  -1   4  350.16   21.60
   5  -1   4  341.67   20.80
   5  -1   4  371.26   21.30
   5  -1   4  348.27   21.40
  -5  -1  -4  333.87   20.80
  -5  -1  -4  333.97   21.60
  -5  -1  -4  337.67   21.40
  -5  -1  -4  355.26   20.30
  -5  -1  -4  356.86   20.30
  -5  -1  -4  346.77   20.40
  -4   2  -5  265.77   18.20
   4   2   5  239.88   16.70
  -4   2  -5  275.27   18.80
   4   2   5  268.57   17.30
  -4   2  -5  280.17   19.70
  -4   2  -5  275.57   17.90
   4   2   5  271.17   18.40
  -4   2  -5  268.37   21.10
  -4   2  -5  295.67   16.20
   4  -2   5  265.67   18.20
   4  -2   5  254.27   16.30
  -4  -2  -5  325.07   18.40
  -4  -2  -5  251.97   17.00
  -4  -2  -5  266.67   19.70
  -4  -2  -5  300.47   17.20
  -4  -2  -5  293.87   18.40
  -4  -2  -5  238.88   17.30
   4  -2   5  244.78   16.70
  -2   2  -3 2734.33  132.79
  -2   2  -3 2669.13  132.19
   2   2   3 2612.04  132.39
  -2   2  -3 2583.24  132.49
  -2   2  -3 2610.54  133.49
   2   2   3 2509.95  132.89
   2   2   3 2777.42  133.69
  -2   2  -3 2619.84  133.19
  -2   2  -3 2620.84  134.09
  -2   2  -3 2587.44  133.19
  -2   2  -3 2682.83  131.99
  -2  -2  -3 2586.04  133.19
  -2  -2  -3 2923.41  133.49
  -2  -2  -3 2679.73  133.99
  -2  -2  -3 2646.54  132.39
   2  -2   3 2651.83  132.79
  -2  -2  -3 2607.74  132.89
  -2  -2  -3 2606.64  132.39
   2  -2   3 2584.34  132.49
   2  -2   3 2833.22  131.99
  -2  -2  -3 2683.23  133.59
   2  -2   3 2748.72  132.69
   2  -2   3 2573.54  132.99
   2  -2   3 2718.53  133.09
   0   2   1  796.52   41.70
   0   2  -1  876.61   41.60
   0   2  -1  873.31   42.30
   0   2  -1  706.33   42.40
   0   2   1  804.02   42.10
   0   2   1  875.01   42.70
   0   2   1  869.41   41.90
   0   2  -1  776.02   42.70
   0   2  -1  761.02   42.20
   0   2  -1  901.41   41.60
   0   2   1  706.43   42.80
   0   2  -1  899.21   41.60
   0   2   1  938.41   42.10
   0  -2  -1  840.62   42.80
   0  -2   1  842.62   41.50
   0  -2  -1  845.82   42.10
   0  -2  -1  855.91   41.90
   0  -2   1  859.81   41.90
   0  -2  -1  795.52   42.90
   0  -2   1  711.13   42.40
   0  -2   1  814.02   42.10
   0  -2  -1  860.71   41.90
   0  -2   1  876.91   42.20
   0  -2   1  835.72   41.90
   0  -2   1  825.32   42.70
   0  -2  -1  743.33   42.70
   0  -2  -1  912.01   41.90
   0  -2   1  862.81   42.20
   0  -2  -1  854.91   41.90
   2   2   1  812.62   41.30
  -2   2  -1  823.12   41.00
  -2   2  -1  874.71   41.50
  -2   2  -1  793.22   41.20
  -2   2  -1  866.81   41.00
  -2   2  -1  800.22   41.80
   2   2   1  830.12   40.70
  -2   2  -1  799.62   41.10
   2   2   1  887.71   41.30
   2   2   1  767.02   42.10
  -2   2  -1  775.82   41.30
   2  -2   1  792.92   41.00
  -2  -2  -1  833.62   40.70
  -2  -2  -1  796.82   41.10
  -2  -2  -1  791.52   41.10
   2  -2   1  831.32   41.00
   2  -2   1  679.33   41.20
   2  -2   1  823.32   41.80
   2  -2   1  842.42   41.40
  -2  -2  -1  807.42   41.70
  -2  -2  -1  836.92   41.30
  -2  -2  -1  824.02   42.00
   2  -2   1  807.72   41.50
  -2  -2  -1  771.92   41.10
  -2  -2  -1  872.61   40.90
  -2  -2  -1  759.32   41.90
   4   2   3 1010.70   55.79
  -4   2  -3 1152.58   56.19
  -4   2  -3 1074.39   57.29
   4   2   3 1043.90   56.19
  -4   2  -3 1087.09   55.99
  -4   2  -3 1114.19   56.09
  -4   2  -3 1123.39   55.69
   4   2   3 1126.49   56.99
  -4  -2  -3 1083.19   54.99
  -4  -2  -3 1065.09   55.49
   4  -2   3 1111.59   55.39
  -4  -2  -3 1055.89   55.99
   4  -2   3 1075.19   54.89
  -4  -2  -3 1137.19   56.39
   4  -2   3  994.60   55.89
  -4  -2  -3 1107.79   56.79
   4  -2   3 1071.99   55.59
   4  -2   3 1062.69   55.89
  -4  -2  -3 1112.09   55.29
  -4  -2  -3 1075.69   54.89
   6   2   5   -1.70    9.70
  -6   2  -5  -11.80   12.00
   6   2   5   23.40   10.80
  -6   2  -5  -11.20    9.40
  -6   2  -5  -19.30   13.50
  -6   2  -5   10.20    9.70
   6   2   5    3.80   11.20
  -6  -2  -5  -10.80   10.60
  -6  -2  -5   -6.20    7.70
   6  -2   5  -14.40   10.60
   6  -2   5  -14.50    8.80
  -3   3  -4 1011.90   52.99
  -3   3  -4  978.60   52.99
   3   3   4  932.11   52.29
   3   3   4 1043.50   53.59
  -3   3  -4 1037.30   55.19
  -3   3  -4  989.20   52.19
  -3   3  -4 1021.70   53.29
  -3  -3  -4 1047.20   54.29
  -3  -3  -4 1027.00   51.59
  -3  -3  -4  920.11   52.89
   3  -3   4  950.80   51.99
  -3  -3  -4 1070.49   52.49
   3  -3   4  971.10   52.79
  -3  -3  -4 1200.58   55.29
  -3  -3  -4 1083.19   53.89
   3  -3   4  940.61   52.39
   3  -3   4  981.40   51.89
   1   3   2 1612.24   80.69
  -1   3  -2 1523.95   81.39
  -1   3  -2 1621.04   81.09
  -1   3  -2 1697.73   80.69
  -1   3  -2 1530.65   81.29
   1   3   2 1641.94   81.29
  -1   3  -2 1592.24   81.39
  -1   3  -2 1653.53   82.39
  -1  -3  -2 1618.24   81.49
   1  -3   2 1624.74   80.99
   1  -3   2 1523.95   80.49
  -1  -3  -2 1636.14   80.99
   1  -3   2 1525.35   81.59
  -1  -3  -2 1697.83   81.19
  -1  -3  -2 1578.14   82.59
   1  -3   2 1567.54   81.99
  -1  -3  -2 1689.43   80.39
  -1  -3  -2 1567.94   82.29
   1  -3   2 1625.04   80.99
  -1  -3  -2 1711.93   82.79
  -1  -3  -2 1537.75   80.99
   1  -3   2 1695.13   81.49
  -1   3   0    2.80    1.60
   1   3   0    3.30    1.80
  -1   3   0   18.40    2.50
   1   3   0    4.90    1.90
   1   3   0    2.10    3.30
   1   3   0    2.50    2.00
  -1   3   0    5.00    3.20
  -1  -3   0    6.60    6.80
   1  -3   0    6.60    2.90
   1  -3   0   21.50    6.50
  -1  -3   0   -0.40    2.90
  -1  -3   0   28.10    6.00
  -1  -3   0    0.90    2.80
  -1  -3   0    4.10    1.60
  -1  -3   0    7.70    3.50
  -1  -3   0    6.40    2.00
  -1  -3   0    5.70    2.40
   1  -3   0   15.00    4.40
   1  -3   0    5.70    1.50
   1  -3   0    9.30    3.00
   1  -3   0    1.80    2.60
  -1  -3   0    2.60    1.70
  -1  -3   0    2.30    1.90
  -1  -3   0    5.70    2.30
   1  -3   0   -0.70    3.30
  -3   3  -2 1057.79   55.39
  -3   3  -2 1050.99   54.49
  -3   3  -2 1049.00   53.99
  -3   3  -2 1045.00   53.89
   3   3   2 1027.30   53.19
  -3   3  -2 1051.69   53.69
   3   3   2 1049.09   55.69
   3   3   2 1116.79   54.29
   3  -3   2 1076.99   54.59
  -3  -3  -2 1085.39   53.39
   3  -3   2 1037.80   54.59
  -3  -3  -2 1046.90   54.89
   3  -3   2 1044.00   53.69
   3  -3   2 1007.50   53.59
  -3  -3  -2 1029.30   54.19
  -3  -3  -2 1074.89   53.29
  -3  -3  -2 1153.98   55.89
   3  -3   2 1013.60   54.69
  -3  -3  -2 1017.50   53.89
  -3  -3  -2 1093.29   55.79
   5   3   4  200.68   17.40
  -5   3  -4  224.78   15.40
  -5   3  -4  175.28   15.00
   5   3   4  187.88   14.20
  -5   3  -4  233.08   21.10
  -5   3  -4  205.28   16.60
  -5  -3  -4  191.08   14.20
  -5  -3  -4  249.58   18.60
   5  -3   4  186.58   15.00
  -5  -3  -4  177.98   13.80
  -5  -3  -4  205.68   13.90
   5  -3   4  188.88   14.70
   5  -3   4  170.98   16.30
  -2   4  -3 1158.58   61.09
   2   4   3 1172.88   59.09
  -2   4  -3  995.40   59.69
   2   4   3 1138.59   58.19
  -2   4  -3 1130.59   59.69
  -2   4  -3 1185.18   59.19
  -2   4  -3 1144.79   58.19
   2  -4   3 1138.59   60.29
  -2  -4  -3 1070.79   58.79
  -2  -4  -3 1123.19   57.59
   2  -4   3 1122.49   58.69
  -2  -4  -3 1199.08   61.19
   2  -4   3 1143.69   58.69
   2  -4   3 1211.88   59.59
  -2  -4  -3 1139.49   59.39
  -2  -4  -3 1165.58   58.69
  -2  -4  -3 1219.68   61.29
   0   4   1  391.86   20.60
   0   4  -1  325.77   19.30
   0   4   1  347.37   19.10
   0   4  -1  325.67   20.30
   0  -4  -1  386.06   20.60
   0  -4   1  334.07   22.50
   0  -4  -1  402.56   21.80
   0  -4   1  329.87   19.30
   0  -4   1  319.47   21.60
   0  -4  -1  356.16   21.70
   0  -4  -1  371.66   21.80
   0  -4  -1  353.06   19.20
   0  -4   1  345.97   19.60
   0  -4   1  340.47   20.00
   0  -4   1  356.56   19.60
   0  -4  -1  365.26   18.80
  -2   4  -1  313.87   19.50
   2   4   1  302.97   21.30
   2   4   1  359.06   18.10
  -2   4  -1  316.67   18.80
  -2   4  -1  330.37   17.90
  -2  -4  -1  333.57   18.10
  -2  -4  -1  316.27   22.80
  -2  -4  -1  331.27   20.20
   2  -4   1  343.57   19.70
  -2  -4  -1  340.47   18.40
  -2  -4  -1  335.07   17.20
   2  -4   1  317.27   21.30
  -2  -4  -1  322.67   18.70
   2  -4   1  311.37   18.50
   2  -4   1  294.37   18.00
   2  -4   1  318.67   21.60
  -2  -4  -1  358.66   20.90
  -2  -4  -1  291.17   21.70
  -4   4  -3  515.05   27.60
  -4   4  -3  451.25   26.70
   4   4   3  495.05   27.80
  -4   4  -3  464.45   30.70
  -4  -4  -3  482.35   27.50
  -4  -4  -3  447.06   25.80
  -4  -4  -3  485.45   29.50
  -4  -4  -3  491.75   30.80
   4  -4   3  475.65   27.10
   4  -4   3  487.65   27.10
   4  -4   3  481.65   27.80
  -1   5  -2  594.94   33.10
   1   5   2  628.64   32.50
  -1   5  -2  585.54   34.50
   1  -5   2  548.35   34.40
  -1  -5  -2  555.14   32.70
   1  -5   2  648.34   34.00
  -1  -5  -2  631.14   33.70
   1  -5   2  597.64   32.30
  -1  -5  -2  633.84   37.20
   1  -5   2  609.74   33.10
  -1   5   0    9.50    5.00
  -1   5   0    1.70    4.70
   1   5   0    4.60    5.70
  -1  -5   0    3.10    4.70
   1  -5   0    7.10    6.00
   1  -5   0   17.00    6.30
  -1  -5   0    2.60    6.60
   1  -5   0   21.10   11.60
  -1  -5   0    5.90    8.50
  -1  -5   0  -14.30   10.50
  -4   0  -6 2627.84  128.59
   4   0   6 2535.95  128.49
  -4   0  -6 2483.45  129.99
  -4   0  -6 2499.85  129.49
  -4   0  -6 2527.25  128.49
   4   0   6 2617.84  129.19
  -4   0  -6 2518.85  129.79
  -4   0  -6 2552.84  129.29
   4   0   6 2626.74  129.49
   2   0   4 1950.01  114.99
  -2   0  -4 2256.17  115.39
  -2   0  -4 2335.57  115.69
  -2   0  -4 2380.26  115.19
  -2   0  -4 2258.17  115.09
  -2   0  -4 2315.07  115.99
   2   0   4 2331.87  115.29
  -2   0  -4 2439.86  115.39
  -2   0  -4 2368.36  116.09
   2   0   4 2435.76  115.09
   2   0   4 2252.27  115.79
  -2   0  -4 2430.46  116.19
   2   0   4 2362.16  115.39
  -2   0  -4 2347.47  115.39
  -2   0  -4 2208.78  115.99
   2   0   4 2309.17  115.59
   0   0   2   19.00    2.00
   0   0  -2   21.10    2.90
   0   0  -2   17.30    2.80
   0   0   2   13.50    2.00
   0   0   2   24.10    1.90
   0   0  -2   13.60    2.40
   0   0   2   21.30    2.50
   0   0  -2   12.40    2.10
   0   0  -2   17.30    2.90
   0   0  -2   29.20    2.80
   0   0   2   25.60    2.10
   2   0   0  677.03   34.10
  -2   0   0  659.63   33.90
   2   0   0  667.13   33.80
   2   0   0  681.33   34.00
  -2   0   0  663.13   33.80
  -2   0   0  666.53   33.80
   2   0   0  671.63   33.80
  -2   0   0  689.13   33.90
  -2   0   0  667.53   33.70
  -2   0   0  646.34   34.00
   2   0   0  667.13   34.00
   4   0   2  336.27   19.20
  -4   0  -2  335.17   18.00
  -4   0  -2  341.17   18.70
  -4   0  -2  359.36   18.40
  -4   0  -2  337.57   18.70
   4   0   2  336.77   19.00
  -4   0  -2  362.56   18.60
   4   0   2  355.26   18.80
   4   0   2  357.36   19.60
   4   0   2  327.27   19.00
  -4   0  -2  347.47   19.20
  -4   0  -2  347.87   18.60
  -4   0  -2  347.57   18.20
  -6   0  -4 1704.23   91.49
  -6   0  -4 1776.62   91.09
  -6   0  -4 1764.62   90.69
  -6   0  -4 1729.33   89.89
  -6   0  -4 1815.22   91.99
   6   0   4 1819.02   91.59
  -6   0  -4 1703.03   89.89
   6   0   4 1898.41   92.19
   6   0   4 1838.02   90.99
   6   0   4 1760.82   91.19
  -3   1  -5 2914.21  146.19
   3   1   5 2753.42  146.29
  -3   1  -5 2916.31  145.29
  -3   1  -5 2880.91  147.19
  -3   1  -5 2957.30  146.29
  -3   1  -5 2896.51  146.69
  -3   1  -5 2910.61  147.59
  -3   1  -5 2941.61  145.79
   3   1   5 3000.50  146.49
   3   1   5 2930.71  145.59
   3   1   5 3030.90  146.29
  -3   1  -5 3079.09  146.89
  -3  -1  -5 2958.80  147.09
   3  -1   5 2863.51  145.59
  -3  -1  -5 2830.62  145.89
  -3  -1  -5 2964.30  145.89
  -3  -1  -5 2985.40  145.89
   3  -1   5 2832.22  145.69
  -3  -1  -5 3083.19  145.99
  -3  -1  -5 2950.90  146.69
  -3  -1  -5 2932.21  146.49
   3  -1   5 2803.72  146.19
  -3  -1  -5 2904.51  146.19
   3  -1   5 2685.03  146.19
   1   1   3  589.34   29.80
  -1   1  -3  531.65   30.20
  -1   1  -3  626.34   30.30
   1   1   3  598.94   30.30
  -1   1  -3  639.34   31.30
   1   1   3  590.94   30.40
  -1   1  -3  521.65   30.00
  -1   1  -3  632.74   29.50
  -1   1  -3  539.55   29.80
   1   1   3  558.74   30.10
  -1   1  -3  529.55   30.60
   1   1   3  514.55   30.20
  -1   1  -3  565.14   29.60
  -1  -1  -3  607.14   30.50
   1  -1   3  619.64   30.10
  -1  -1  -3  564.74   30.50
  -1  -1  -3  555.14   29.60
   1  -1   3  613.14   30.10
   1  -1   3  615.84   29.80
  -1  -1  -3  613.34   30.30
  -1  -1  -3  603.14   30.20
   1  -1   3  609.74   29.80
   1  -1   3  549.85   30.20
  -1  -1  -3  604.44   29.90
  -1  -1  -3  551.04   30.70
  -1  -1  -3  622.54   29.50
  -1  -1  -3  594.24   30.20
  -1  -1  -3  619.94   29.90
   1   1  -1  655.83   32.70
  -1   1   1  654.43   32.50
  -1   1   1  644.94   32.70
  -1   1   1  618.14   32.90
   1   1  -1  658.23   32.90
   1   1  -1  617.44   33.00
  -1   1   1  633.64   33.40
   1   1  -1  669.93   32.80
  -1   1   1  743.83   32.90
   1  -1  -1  654.63   33.10
  -1  -1   1  559.24   33.10
   1  -1  -1  689.63   32.90
   1  -1  -1  660.73   32.80
  -1  -1   1  646.64   32.80
  -1  -1   1  666.23   32.60
   1  -1  -1  654.03   33.10
   1  -1  -1  632.14   32.80
   1  -1  -1  535.05   33.30
  -1  -1   1  696.93   32.80
  -1  -1   1  629.04   33.30
   3   1   1   36.70    4.90
  -3   1  -1   43.30    4.60
   3   1   1   36.60    4.00
   3   1   1   24.10    2.70
   3   1   1   28.60    2.80
  -3   1  -1   39.30    3.30
  -3   1  -1   31.90    2.40
  -3   1  -1   36.10    2.70
  -3   1  -1   40.00    3.40
  -3   1  -1   37.70    2.90
  -3   1  -1   39.50    2.70
   3   1   1   27.50    3.30
   3   1   1   29.10    4.80
  -3   1  -1   42.30    4.90
  -3   1  -1   36.70    3.90
  -3   1  -1   35.70    3.60
   3  -1   1   36.70    3.40
  -3  -1  -1   42.20    3.90
   3  -1   1   36.40    2.80
   3  -1   1   37.90    5.00
   3  -1   1   42.20    2.90
  -3  -1  -1   33.40    3.50
   3  -1   1   27.40    3.20
  -3  -1  -1   35.30    3.10
  -3  -1  -1   40.50    3.10
  -3  -1  -1   24.10    2.60
  -3  -1  -1   36.10    4.40
  -3  -1  -1   37.20    3.20
   3  -1   1   32.60    4.30
   3  -1   1   44.00    4.10
  -3  -1  -1   34.00    3.00
  -3  -1  -1   43.10    3.80
  -3  -1  -1   35.30    3.80
   5   1   3 1276.97   61.99
  -5   1  -3 1198.18   61.39
  -5   1  -3 1211.78   60.39
  -5   1  -3 1204.08   61.29
   5   1   3 1243.98   62.49
  -5   1  -3 1157.48   60.59
  -5   1  -3 1197.58   61.89
  -5   1  -3 1241.58   61.69
  -5   1  -3 1194.98   62.69
   5   1   3 1213.18   62.29
   5   1   3 1281.87   62.29
   5   1   3 1218.58   61.99
   5  -1   3 1147.69   60.99
   5  -1   3 1165.28   61.79
   5  -1   3 1176.88   61.39
   5  -1   3 1129.39   61.79
  -5  -1  -3 1154.08   61.49
  -5  -1  -3 1177.28   61.09
  -5  -1  -3 1192.98   61.49
  -5  -1  -3 1216.28   60.79
  -5  -1  -3 1218.88   61.09
   5  -1   3 1159.48   61.39
  -5  -1  -3 1187.18   61.59
  -4   2  -6 1853.61   99.49
   4   2   6 1936.21   98.79
  -4   2  -6 1958.70   97.79
  -4   2  -6 1884.91  101.19
  -4   2  -6 1953.60  100.29
   4   2   6 1772.82   98.69
  -4   2  -6 2019.10   99.49
  -4  -2  -6 1950.90   98.39
   4  -2   6 1789.22   98.79
  -4  -2  -6 1973.30   99.19
   4  -2   6 1900.81   97.99
   4  -2   6 1961.10   98.89
  -4  -2  -6 1972.20   99.99
  -4  -2  -6 2072.59   98.69
  -4  -2  -6 1998.00   98.99
   2   2   4 1616.04   80.79
  -2   2  -4 1566.24   81.89
   2   2   4 1483.45   79.59
  -2   2  -4 1535.05   80.79
  -2   2  -4 1656.63   79.49
  -2   2  -4 1563.44   80.69
  -2   2  -4 1588.04   79.59
   2   2   4 1525.55   80.19
  -2   2  -4 1514.05   81.09
  -2   2  -4 1615.34   80.19
  -2   2  -4 1616.04   79.89
  -2  -2  -4 1668.73   80.59
   2  -2   4 1560.14   79.79
   2  -2   4 1665.93   80.09
   2  -2   4 1691.03   79.89
   2  -2   4 1570.54   80.09
  -2  -2  -4 1518.45   80.39
  -2  -2  -4 1584.94   79.59
  -2  -2  -4 1592.94   80.89
  -2  -2  -4 1717.43   80.89
   2  -2   4 1648.54   80.39
   2  -2   4 1422.06   80.49
  -2  -2  -4 1607.44   81.59
  -2  -2  -4 1577.84   79.79
   0   2   2   30.50    2.10
   0   2  -2   33.10    3.40
   0   2   2   34.10    5.60
   0   2  -2   27.70    4.50
   0   2   2   33.40    3.10
   0   2   2   27.70    3.60
   0   2  -2   21.60    5.20
   0   2   2   31.50    1.90
   0   2  -2   31.90    2.70
   0   2   2   19.50    2.70
   0   2  -2   34.80    2.60
   0   2  -2   42.00    3.80
   0   2  -2   34.90    2.50
   0  -2  -2   34.70    3.70
   0  -2  -2   27.80    4.90
   0  -2  -2   34.70    2.00
   0  -2  -2   24.80    3.30
   0  -2   2   42.00    4.80
   0  -2   2   29.80    4.30
   0  -2   2   41.40    2.80
   0  -2   2   37.50    4.10
   0  -2  -2   24.80    2.70
   0  -2   2   37.40    3.70
   0  -2   2   33.60    4.10
   0  -2  -2   23.70    4.00
   0  -2   2   38.40    3.10
   0  -2  -2   39.70    2.70
   0  -2   2   35.00    2.80
   0  -2  -2   29.40    3.30
   0  -2  -2   39.60    5.60
   0  -2  -2   33.50    3.40
  -2   2   0  477.85   24.80
   2   2   0  491.15   24.80
  -2   2   0  501.85   25.10
  -2   2   0  497.55   25.50
   2   2   0  441.76   26.20
  -2   2   0  479.85   25.10
   2   2   0  414.96   24.30
   2   2   0  428.46   25.60
  -2   2   0  484.35   24.60
  -2   2   0  461.15   24.30
   2  -2   0  467.75   25.30
  -2  -2   0  499.45   24.70
   2  -2   0  470.65   25.30
  -2  -2   0  488.85   24.30
  -2  -2   0  501.25   25.30
  -2  -2   0  501.35   24.50
  -2  -2   0  489.55   24.30
  -2  -2   0  483.65   24.50
  -2  -2   0  451.75   25.50
   2  -2   0  521.65   24.70
   2  -2   0  473.25   24.50
   2  -2   0  473.55   24.50
   2  -2   0  487.65   24.80
  -2  -2   0  490.95   24.70
  -2  -2   0  460.55   25.20
  -4   2  -2  236.28   13.60
  -4   2  -2  208.28   14.90
   4   2   2  224.78   14.00
   4   2   2  207.08   15.10
   4   2   2  238.08   15.90
  -4   2  -2  220.28   13.20
  -4   2  -2  231.28   13.60
  -4   2  -2  236.38   13.40
   4  -2   2  222.58   13.60
  -4  -2  -2  222.48   12.90
  -4  -2  -2  247.08   13.20
  -4  -2  -2  244.48   15.50
  -4  -2  -2  225.28   12.60
  -4  -2  -2  241.98   12.80
   4  -2   2  216.88   12.60
   4  -2   2  218.68   12.70
  -4  -2  -2  234.18   14.40
   4  -2   2  194.18   13.20
  -4  -2  -2  224.08   13.70
  -4  -2  -2  226.48   13.00
   4  -2   2  196.78   14.40
   4  -2   2  204.48   13.90
  -6   2  -4 1369.46   71.69
   6   2   4 1416.16   72.59
   6   2   4 1355.66   71.59
  -6   2  -4 1427.46   71.79
  -6   2  -4 1364.86   73.69
  -6   2  -4 1382.76   72.09
   6   2   4 1445.26   72.09
  -6  -2  -4 1363.26   70.29
  -6  -2  -4 1396.16   71.19
   6  -2   4 1251.57   71.79
   6  -2   4 1412.56   70.89
  -6  -2  -4 1295.17   70.19
  -6  -2  -4 1336.97   71.09
  -3   3  -5 1717.13   86.09
  -3   3  -5 1638.54   85.79
  -3   3  -5 1759.72   84.79
   3   3   5 1643.54   84.99
   3   3   5 1528.45   84.69
  -3   3  -5 1673.63   86.19
  -3   3  -5 1683.13   87.39
  -3  -3  -5 1812.92   85.89
  -3  -3  -5 1667.63   83.99
  -3  -3  -5 1607.24   84.99
   3  -3   5 1588.74   84.69
   3  -3   5 1626.24   85.09
  -3  -3  -5 1630.84   85.09
   3  -3   5 1683.73   84.49
  -1   3  -3  201.08   13.10
  -1   3  -3  212.28   12.10
   1   3   3  203.08   12.20
  -1   3  -3  217.58   15.50
  -1   3  -3  184.08   13.60
  -1   3  -3  192.38   13.90
   1   3   3  230.08   13.10
  -1  -3  -3  235.98   11.90
  -1  -3  -3  206.68   14.60
  -1  -3  -3  212.08   14.10
   1  -3   3  237.08   14.60
   1  -3   3  229.68   12.90
  -1  -3  -3  237.68   13.20
   1  -3   3  212.88   12.60
   1  -3   3  206.98   13.30
  -1  -3  -3  198.08   14.00
  -1  -3  -3  196.38   13.40
  -1  -3  -3  205.38   13.00
   1  -3   3  234.08   13.60
  -1   3   1  385.06   20.40
  -1   3   1  385.66   20.30
  -1   3   1  386.96   20.40
   1   3  -1  381.16   20.90
   1   3  -1  424.66   20.20
   1   3  -1  404.46   20.40
   1   3  -1  368.26   21.60
  -1  -3   1  369.46   22.40
  -1  -3   1  424.66   19.80
   1  -3  -1  384.66   20.70
   1  -3  -1  365.36   22.00
  -1  -3   1  390.86   21.20
  -1  -3   1  395.16   20.50
   1  -3  -1  365.26   22.10
   1  -3  -1  377.06   20.30
  -1  -3   1  397.66   20.30
  -1  -3   1  402.66   20.00
  -1  -3   1  383.56   20.80
  -1  -3   1  400.96   20.70
   1  -3  -1  398.36   20.00
   1  -3  -1  415.76   19.90
  -1  -3   1  361.76   21.70
   1  -3  -1  348.97   22.30
   1  -3  -1  372.16   20.30
  -1  -3   1  345.37   21.00
  -3   3  -1   35.60    4.30
   3   3   1   46.30    5.80
  -3   3  -1   58.29    7.30
   3   3   1   31.90    4.60
   3   3   1   43.40    7.90
  -3   3  -1   37.80    5.40
  -3   3  -1   54.09    5.30
   3   3   1   52.49    4.40
  -3   3  -1   41.40    4.70
  -3  -3  -1   38.60    4.80
  -3  -3  -1   37.60    5.90
   3  -3   1   53.09    8.60
   3  -3   1   39.50    7.30
  -3  -3  -1   42.10    8.30
  -3  -3  -1   34.90    5.40
   3  -3   1   41.40    4.50
   3  -3   1   51.19    5.70
  -3  -3  -1   52.09    4.20
  -3  -3  -1   48.30    5.30
   3  -3   1   44.10    5.00
  -3  -3  -1   31.50    3.80
   3  -3   1   37.20    4.90
  -5   3  -3  695.83   37.90
   5   3   3  673.03   38.40
   5   3   3  653.03   37.90
  -5   3  -3  693.63   37.80
  -5   3  -3  664.53   37.40
  -5   3  -3  693.73   37.90
  -5   3  -3  699.63   40.40
   5  -3   3  654.73   37.10
  -5  -3  -3  708.53   37.80
   5  -3   3  695.43   37.10
  -5  -3  -3  691.03   36.80
   5  -3   3  687.73   38.60
   5  -3   3  740.93   40.10
  -5  -3  -3  795.02   40.20
   5  -3   3  720.93   38.20
  -5  -3  -3  707.33   36.60
   2   4   4  694.23   37.10
  -2   4  -4  712.13   38.40
  -2   4  -4  683.33   36.00
  -2   4  -4  673.33   37.80
  -2   4  -4  650.53   38.10
   2   4   4  658.53   36.20
  -2   4  -4  702.03   40.40
   2  -4   4  674.23   36.50
  -2  -4  -4  663.73   37.70
  -2  -4  -4  754.82   38.70
  -2  -4  -4  761.32   37.50
   2  -4   4  618.24   36.60
   2  -4   4  698.83   38.00
  -2  -4  -4  691.63   35.50
   0   4   2   41.70    4.70
   0   4  -2   32.30    6.30
   0   4  -2   34.80    7.50
   0   4  -2   20.90    5.40
   0   4  -2   33.60    3.60
   0  -4  -2   31.10    5.40
   0  -4  -2   38.90    9.80
   0  -4   2   30.70    5.40
   0  -4   2   44.30   10.50
   0  -4   2   34.30    7.60
   0  -4  -2   40.70    5.00
   0  -4  -2   44.00    8.10
   0  -4  -2   41.00    8.60
   0  -4  -2   37.60    6.70
   0  -4   2   31.80    7.00
   0  -4   2   40.70    5.70
   2   4   0  258.77   14.20
  -2   4   0  244.88   14.50
  -2   4   0  229.08   14.80
   2   4   0  254.37   17.80
  -2  -4   0  251.77   17.80
   2  -4   0  237.88   17.90
  -2  -4   0  249.08   14.10
  -2  -4   0  247.28   16.40
   2  -4   0  232.88   14.50
  -2  -4   0  271.57   16.20
  -2  -4   0  233.88   13.90
  -2  -4   0  279.87   14.30
  -2  -4   0  243.08   14.60
   2  -4   0  208.28   18.00
  -2  -4   0  218.18   19.10
   2  -4   0  226.98   15.90
   2  -4   0  246.08   14.10
   2  -4   0  229.08   15.50
  -4   4  -2  101.79    9.70
  -4   4  -2   93.49   10.70
  -4   4  -2  116.99   13.70
  -4   4  -2   88.29    8.50
   4   4   2   91.39   10.50
  -4  -4  -2  108.19    9.70
   4  -4   2   98.59    8.80
  -4  -4  -2   92.49   12.60
  -4  -4  -2  130.19   14.50
   4  -4   2   99.09   11.70
   4  -4   2  123.69   13.40
   4  -4   2  106.89    9.90
  -4  -4  -2  104.49    8.40
   1   5   3  118.49   10.80
  -1   5  -3   69.49    7.60
   1   5   3   93.89    9.00
  -1   5  -3   68.89    9.90
  -1   5  -3   95.69   13.30
  -1  -5  -3   94.99   11.50
  -1  -5  -3   78.19    8.60
   1  -5   3   83.09    9.70
   1  -5   3   98.19   10.20
   1  -5   3   73.69   10.50
  -1  -5  -3   85.89   12.60
  -1   5   1  154.38   10.50
  -1  -5   1  139.89   11.70
   1  -5  -1  118.39   16.20
   1  -5  -1  145.09   13.00
  -1  -5   1  161.78   15.40
  -1  -5   1  148.09   11.00
   1  -5  -1  145.29   11.40
   1  -5  -1  102.29   12.00
  -1  -5   1  158.28   12.50
   3   5   1    0.40    7.90
  -4   0  -7  215.58   18.50
   4   0   7  236.28   18.30
  -4   0  -7  266.87   21.40
  -4   0  -7  275.77   18.40
   4   0   7  238.48   17.30
  -4   0  -7  214.58   16.60
  -4   0  -7  209.68   16.40
   2   0   5  684.13   33.00
  -2   0  -5  615.14   32.60
  -2   0  -5  647.34   33.70
   2   0   5  642.04   33.40
  -2   0  -5  624.04   34.30
  -2   0  -5  638.84   34.10
   2   0   5  525.55   32.50
  -2   0  -5  729.83   34.50
  -2   0  -5  649.83   34.30
  -2   0  -5  611.94   33.30
   2   0   5  644.44   32.60
   2   0   5  664.13   33.60
  -2   0  -5  659.23   33.00
   2   0   5  610.34   33.00
  -2   0  -5  648.14   32.90
  -2   0  -5  609.34   33.20
   0   0   3 2985.50  142.29
   0   0   3 2704.63  142.99
   0   0   3 2913.71  142.69
   0   0  -3 2850.41  142.99
   0   0   3 2865.61  142.69
   0   0  -3 2697.23  142.99
   0   0  -3 2775.52  142.59
   0   0   3 3019.30  142.69
   0   0   3 2747.53  143.29
   0   0  -3 2628.94  142.99
   0   0  -3 2834.42  142.99
   0   0  -3 2914.51  142.69
   0   0   3 3257.27  142.29
   0   0  -3 2892.41  142.79
  -2   0   1   19.60    1.80
   2   0  -1   26.10    2.10
   2   0  -1   26.70    2.10
   2   0  -1   25.50    2.80
   2   0  -1   19.00    2.20
  -2   0   1   19.90    2.50
   2   0  -1   22.80    2.10
  -2   0   1   23.30    2.10
  -2   0   1   17.30    2.00
   2   0  -1   20.60    1.80
  -2   0   1   29.50    2.30
  -4   0  -1 2337.97  113.69
   4   0   1 2190.78  113.69
   4   0   1 2068.59  113.59
   4   0   1 2389.16  114.09
  -4   0  -1 2315.77  113.89
  -4   0  -1 2369.06  114.29
   4   0   1 2234.58  113.89
   4   0   1 2322.27  114.19
  -4   0  -1 2335.37  113.49
  -4   0  -1 2313.97  113.79
  -4   0  -1 2334.67  113.59
   4   0   1 2152.38  114.29
  -4   0  -1 2298.37  113.99
   4   0   1 2231.98  114.39
  -4   0  -1 2333.27  113.79
   6   0   3 1040.00   54.09
  -6   0  -3 1037.60   53.79
  -6   0  -3 1013.50   53.79
  -6   0  -3 1054.49   52.89
   6   0   3 1041.50   54.49
  -6   0  -3 1047.40   53.59
  -6   0  -3 1033.20   54.69
   6   0   3 1040.50   54.69
   6   0   3 1039.40   53.89
  -6   0  -3  989.50   52.59
  -6   0  -3 1047.90   53.39
   6   0   3  986.70   53.89
   3   1   6   -0.10    6.20
  -3   1  -6    5.00    6.40
  -3   1  -6    3.50    6.90
  -3   1  -6   21.30    7.50
   3   1   6    5.80    6.50
  -3   1  -6   -3.10    9.00
  -3   1  -6   -2.10    3.80
   3   1   6   -0.80    5.00
   3   1   6    8.40    4.90
  -3   1  -6    4.70    5.70
  -3   1  -6   11.90    5.70
  -3  -1  -6   -1.90    6.10
  -3  -1  -6    8.60    6.20
   3  -1   6   -0.20    5.20
  -3  -1  -6    1.50    5.30
   3  -1   6   -0.90    6.20
  -3  -1  -6   -5.20    5.50
   3  -1   6   10.20    5.70
  -3  -1  -6   -9.10    6.10
  -3  -1  -6   -4.40    4.90
  -3  -1  -6    2.50    5.60
  -1   1  -4 1886.11   96.49
   1   1   4 1662.93   96.29
   1   1   4 1809.32   95.79
  -1   1  -4 1838.22   96.69
  -1   1  -4 1897.11   95.69
  -1   1  -4 2025.00   96.59
   1   1   4 1995.40   96.19
   1   1   4 1827.52   96.09
  -1   1  -4 1863.01   95.89
  -1   1  -4 1887.11   97.09
  -1   1  -4 1868.81   95.29
  -1   1  -4 1831.42   96.29
   1   1   4 1932.01   96.19
   1   1   4 2010.50   96.19
  -1  -1  -4 2039.10   95.69
   1  -1   4 1966.30   96.19
  -1  -1  -4 2005.20   96.19
  -1  -1  -4 2012.00   96.09
   1  -1   4 1976.80   95.59
  -1  -1  -4 1972.80   96.09
  -1  -1  -4 1923.61   96.69
  -1  -1  -4 1887.31   96.89
   1  -1   4 1891.11   96.19
   1  -1   4 1995.10   95.99
   1  -1   4 1831.02   96.29
  -1  -1  -4 1908.91   96.29
  -1  -1  -4 1913.61   96.09
   1  -1   4 2015.50   95.99
  -1  -1  -4 1902.51   96.79
   1   1  -2 1438.56   69.59
  -1   1   2 1463.35   69.59
   1   1  -2 1395.06   69.49
   1   1  -2 1363.26   69.59
   1   1  -2 1477.85   69.69
   1   1  -2 1268.27   69.49
  -1   1   2 1237.68   69.99
  -1   1   2 1552.74   69.99
  -1  -1   2 1441.36   69.49
  -1  -1   2 1332.87   69.69
   1  -1  -2 1437.36   69.89
  -1  -1   2 1464.75   69.59
   1  -1  -2 1419.56   69.49
   1  -1  -2 1179.18   70.19
   1  -1  -2 1464.25   69.59
   1  -1  -2 1418.66   69.89
  -1  -1   2 1520.95   69.69
   1  -1  -2 1419.16   69.99
  -1  -1   2 1384.36   69.79
   1  -1  -2 1398.26   69.59
  -1  -1   2 1285.97   70.39
   3   1   0  841.92   44.40
  -3   1   0  898.61   44.60
  -3   1   0  878.81   44.50
   3   1   0  857.61   45.10
   3   1   0  905.81   45.00
  -3   1   0  862.51   45.00
  -3   1   0  874.41   44.20
  -3   1   0  851.31   44.60
   3   1   0  927.41   44.70
  -3   1   0  872.41   44.90
   3   1   0  885.41   45.30
  -3   1   0  883.61   44.60
  -3   1   0  921.11   44.70
   3  -1   0  930.61   45.00
   3  -1   0  903.21   44.80
   3  -1   0  876.31   44.90
   3  -1   0  911.01   45.10
  -3  -1   0  913.81   44.50
  -3  -1   0  882.31   45.00
  -3  -1   0  896.71   44.40
   3  -1   0  867.31   44.30
   3  -1   0  852.01   44.20
  -3  -1   0  819.92   45.00
  -3  -1   0  907.81   44.60
   3  -1   0  942.91   44.40
  -3  -1   0  939.61   44.90
  -3  -1   0  896.31   44.70
  -3  -1   0  874.31   44.50
  -3  -1   0  853.41   45.10
  -3  -1   0  875.81   44.20
   5   1   2 1937.11  100.39
  -5   1  -2 2009.00  100.09
  -5   1  -2 1991.70   99.39
   5   1   2 2068.29  101.09
   5   1   2 1985.40  100.39
   5   1   2 2092.89  100.79
  -5   1  -2 1924.91  100.19
   5   1   2 2087.19  101.19
  -5   1  -2 2006.10   99.09
  -5   1  -2 1946.81   99.09
  -5   1  -2 1997.90  101.09
  -5   1  -2 2057.49  100.19
  -5   1  -2 1988.00   99.99
   5  -1   2 1900.81  100.49
  -5  -1  -2 2001.00   99.79
  -5  -1  -2 1987.40  100.09
  -5  -1  -2 1947.21  100.09
   5  -1   2 1988.30  100.59
   5  -1   2 1905.61   99.79
  -5  -1  -2 2060.19  100.19
  -5  -1  -2 1946.31   99.49
  -5  -1  -2 1959.20   99.69
   5  -1   2 2000.70  100.09
   5  -1   2 1947.01  100.19
  -7   1  -4  212.58   20.90
  -7   1  -4  181.88   14.00
  -7   1  -4  180.28   15.70
   7   1   4  197.38   17.20
   7   1   4  227.18   19.00
  -7   1  -4  166.88   16.10
   7   1   4  243.88   18.30
  -7   1  -4  195.88   18.60
   7  -1   4  159.78   15.60
  -7  -1  -4  192.88   14.50
  -7  -1  -4  155.98   14.50
  -7  -1  -4  267.37   19.40
   7  -1   4  182.18   16.50
  -7  -1  -4  178.08   15.60
   7  -1   4  196.28   16.30
  -4   2  -7  210.78   16.70
  -4   2  -7  211.08   19.80
  -4   2  -7  217.98   21.10
  -4   2  -7  186.58   14.40
   4   2   7  186.08   16.30
   4   2   7  208.68   16.70
  -4   2  -7  199.38   17.40
  -4  -2  -7  210.78   15.70
  -4  -2  -7  215.48   16.40
   4  -2   7  157.78   15.40
  -4  -2  -7  214.78   17.20
   4  -2   7  175.88   16.40
  -4  -2  -7  209.48   18.00
   4  -2   7  146.49   15.50
  -2   2  -5  481.25   26.20
  -2   2  -5  398.46   26.70
  -2   2  -5  442.46   26.90
  -2   2  -5  428.36   26.20
  -2   2  -5  498.65   25.60
   2   2   5  426.66   24.50
   2   2   5  451.95   25.40
  -2   2  -5  457.25   24.60
   2   2   5  406.76   25.20
   2   2   5  452.55   25.60
  -2   2  -5  489.85   24.90
  -2  -2  -5  496.75   25.80
  -2  -2  -5  461.85   26.10
  -2  -2  -5  451.95   24.80
  -2  -2  -5  447.06   25.60
   2  -2   5  477.05   25.00
  -2  -2  -5  448.96   26.70
  -2  -2  -5  476.05   25.00
  -2  -2  -5  502.85   27.20
   2  -2   5  481.05   25.50
   2  -2   5  459.45   25.00
   2  -2   5  481.15   24.70
   0   2   3 1586.04   92.49
   0   2  -3 1946.01   92.09
   0   2  -3 1875.41   91.89
   0   2  -3 1866.81   91.49
   0   2  -3 1804.42   91.99
   0   2  -3 1927.81   91.99
   0   2  -3 1691.93   92.79
   0   2   3 1969.10   92.29
   0   2   3 1887.01   92.09
   0   2  -3 1944.81   91.69
   0   2  -3 1754.02   91.69
   0   2  -3 1678.53   93.49
   0   2   3 1896.91   92.89
   0  -2   3 1866.11   92.39
   0  -2   3 1686.13   91.89
   0  -2  -3 1858.31   92.59
   0  -2   3 1936.01   92.19
   0  -2  -3 1857.61   92.19
   0  -2  -3 1649.44   92.59
   0  -2  -3 1712.33   93.49
   0  -2  -3 1970.50   91.49
   0  -2   3 1770.52   92.79
   0  -2  -3 2059.49   92.89
   0  -2  -3 1918.01   91.89
   0  -2   3 1880.61   92.89
   0  -2   3 1998.70   92.39
   0  -2  -3 1884.61   92.29
   0  -2  -3 1666.03   92.79
   0  -2   3 1897.31   92.19
   0  -2  -3 1832.82   92.89
  -2   2   1    5.30    3.20
  -2   2   1    7.00    2.40
  -2   2   1    8.00    2.10
   2   2  -1    9.00    3.80
   2   2  -1    3.70    3.20
   2   2  -1    7.30    1.50
  -2   2   1    3.90    1.00
  -2   2   1   11.80    1.40
  -2   2   1    8.30    1.80
   2   2  -1    8.00    0.80
   2  -2  -1    7.90    3.90
   2  -2  -1    4.00    2.10
  -2  -2   1    9.80    2.40
   2  -2  -1    6.20    2.00
  -2  -2   1    8.50    2.30
  -2  -2   1   12.40    4.00
  -2  -2   1    7.50    1.50
   2  -2  -1    3.80    3.50
  -2  -2   1    6.90    1.70
  -2  -2   1    6.00    1.70
  -2  -2   1   14.70    2.60
  -2  -2   1    5.80    3.00
   2  -2  -1    5.10    2.10
   2  -2  -1    4.70    1.70
  -2  -2   1    4.20    3.00
  -2  -2   1    8.60    3.50
  -2  -2   1    8.30    2.10
  -2  -2   1    6.30    1.40
   2  -2  -1   19.60    4.40
   2  -2  -1   11.40    2.00
   2  -2  -1    6.10    1.20
  -4   2  -1 1685.73   84.49
  -4   2  -1 1691.93   83.59
  -4   2  -1 1671.23   83.59
   4   2   1 1641.84   84.79
  -4   2  -1 1667.93   83.79
   4   2   1 1436.96   83.19
  -4   2  -1 1683.03   83.59
   4   2   1 1633.24   84.49
   4   2   1 1667.83   83.79
  -4  -2  -1 1715.33   83.19
  -4  -2  -1 1650.63   83.49
  -4  -2  -1 1713.53   84.69
   4  -2   1 1676.13   83.19
  -4  -2  -1 1782.72   83.89
  -4  -2  -1 1760.32   83.29
   4  -2   1 1699.63   84.09
  -4  -2  -1 1665.23   84.59
   4  -2   1 1647.54   83.39
  -4  -2  -1 1683.53   83.79
   4  -2   1 1777.92   82.59
  -4  -2  -1 1657.23   84.49
   4  -2   1 1520.35   83.79
   4  -2   1 1642.44   84.09
  -4  -2  -1 1595.44   83.49
   4  -2   1 1626.74   84.39
  -6   2  -3  828.32   43.00
   6   2   3  754.52   42.90
  -6   2  -3  777.72   44.70
   6   2   3  871.91   44.00
  -6   2  -3  832.12   42.60
   6   2   3  791.52   43.50
   6   2   3  776.72   43.60
  -6   2  -3  790.12   42.70
  -6  -2  -3  833.72   44.00
   6  -2   3  799.32   42.60
  -6  -2  -3  766.92   41.60
   6  -2   3  744.23   41.80
  -6  -2  -3  811.22   41.30
  -6  -2  -3  781.22   42.30
  -6  -2  -3  783.12   42.30
   6  -2   3  756.12   43.50
   3   3   6   -0.70    7.40
  -3   3  -6   -3.50    6.80
  -3   3  -6   -5.90    9.80
  -3   3  -6   -7.50    9.00
  -3   3  -6   -0.90   11.50
   3   3   6    8.10    8.20
  -3   3  -6   -9.30    8.60
   3  -3   6   -1.80    8.00
   3  -3   6   -8.90    5.30
   3  -3   6   -4.70    7.30
  -3  -3  -6   -1.20    6.40
  -3  -3  -6  -10.90    7.90
  -3  -3  -6   -9.50    6.70
  -1   3  -4 1019.20   55.19
  -1   3  -4 1005.00   54.89
   1   3   4 1016.80   53.99
  -1   3  -4 1057.29   54.79
  -1   3  -4 1000.10   55.99
  -1   3  -4 1054.49   53.69
   1   3   4 1012.10   53.59
   1  -3   4 1059.29   54.29
   1  -3   4 1048.50   53.89
   1  -3   4 1117.69   54.19
  -1  -3  -4 1022.30   54.29
  -1  -3  -4 1165.18   54.89
   1  -3   4 1108.49   54.49
  -1  -3  -4 1023.90   55.29
  -1  -3  -4  991.10   56.19
  -1  -3  -4 1107.69   55.19
   1  -3   4 1066.89   54.99
  -1  -3  -4 1064.09   53.29
  -1  -3  -4 1101.79   54.59
   1   3  -2  522.45   30.70
   1   3  -2  599.54   28.50
  -1   3   2  479.25   29.70
   1   3  -2  636.04   29.00
  -1   3   2  555.54   28.80
  -1   3   2  669.03   30.30
  -1   3   2  590.14   29.20
   1   3  -2  585.84   29.00
   1   3  -2  550.54   30.00
  -1   3   2  560.74   28.80
   1  -3  -2  553.84   29.20
   1  -3  -2  512.25   30.90
  -1  -3   2  574.34   29.90
  -1  -3   2  579.84   29.30
   1  -3  -2  551.74   29.20
   1  -3  -2  511.75   31.20
  -1  -3   2  532.55   30.70
  -1  -3   2  564.04   29.30
   1  -3  -2  565.54   29.60
  -1  -3   2  573.44   28.70
  -1  -3   2  519.45   29.90
   1  -3  -2  594.14   29.10
  -1  -3   2  577.04   29.20
  -1  -3   2  599.74   28.70
  -1  -3   2  508.25   30.00
  -1  -3   2  596.24   29.80
   1  -3  -2  572.14   30.80
  -3   3   0  454.45   24.20
  -3   3   0  459.15   23.70
  -3   3   0  462.05   23.50
  -3   3   0  466.05   24.90
  -3   3   0  490.95   24.10
   3   3   0  497.05   26.70
   3  -3   0  399.56   25.20
  -3  -3   0  447.46   25.00
  -3  -3   0  477.95   23.90
   3  -3   0  426.46   25.80
  -3  -3   0  481.85   24.00
   3  -3   0  419.36   23.90
   3  -3   0  431.56   25.70
   3  -3   0  444.66   24.10
   3  -3   0  426.36   24.40
  -3  -3   0  508.45   24.20
  -3  -3   0  450.95   24.20
  -3  -3   0  463.85   24.20
  -3  -3   0  446.96   26.00
  -3  -3   0  474.15   25.10
  -3  -3   0  428.26   24.90
  -3  -3   0  461.05   23.60
  -3  -3   0  477.05   23.50
  -5   3  -2 1199.58   60.99
  -5   3  -2 1187.68   60.79
   5   3   2 1111.09   61.19
  -5   3  -2 1169.28   60.89
   5   3   2 1171.68   62.59
  -5   3  -2 1198.58   61.39
  -5   3  -2 1236.98   62.99
   5   3   2 1126.99   62.59
   5  -3   2 1204.08   61.69
   5  -3   2 1200.88   61.79
  -5  -3  -2 1215.68   60.09
   5  -3   2 1120.79   60.29
   5  -3   2 1202.58   60.39
  -5  -3  -2 1255.37   60.69
  -5  -3  -2 1189.28   60.79
  -5  -3  -2 1220.68   62.49
   5  -3   2 1093.49   61.89
  -2   4  -5  188.58   13.30
  -2   4  -5  207.38   18.90
   2   4   5  188.88   14.80
  -2   4  -5  195.18   16.40
  -2   4  -5  215.98   15.70
   2   4   5  184.78   13.30
  -2   4  -5  231.58   21.80
   2  -4   5  201.98   15.10
   2  -4   5  179.58   14.60
   2  -4   5  210.58   16.50
  -2  -4  -5  163.88   14.10
  -2  -4  -5  206.68   15.80
  -2  -4  -5  219.78   15.90
  -2  -4  -5  211.28   13.10
   0   4   3  756.12   38.90
   0   4  -3  744.33   39.80
   0   4  -3  771.52   38.40
   0   4  -3  699.43   39.90
   0   4  -3  758.52   41.50
   0  -4   3  758.02   39.40
   0  -4  -3  739.83   39.90
   0  -4   3  757.42   39.30
   0  -4   3  713.53   39.90
   0  -4   3  751.52   41.50
   0  -4  -3  786.52   39.40
   0  -4  -3  778.72   42.50
   0  -4  -3  769.22   41.30
   0  -4  -3  816.62   40.20
   0  -4  -3  700.33   39.20
   0  -4   3  787.12   40.00
   0  -4  -3  708.73   41.50
   2   4  -1    1.10    8.40
  -2   4   1    3.10    3.40
   2   4  -1    0.20    2.30
  -2   4   1    1.00    3.50
   2   4  -1    7.40    5.70
  -2   4   1    4.70    4.60
   2  -4  -1    8.90    5.70
   2  -4  -1   13.20    9.00
  -2  -4   1    1.60    3.60
   2  -4  -1    0.10    3.90
  -2  -4   1    7.70    3.10
   2  -4  -1    7.10    4.40
  -2  -4   1   -2.00    7.10
  -2  -4   1   -2.00    9.70
  -2  -4   1    3.30    4.40
   2  -4  -1   28.10    9.50
  -2  -4   1    4.40    3.50
  -2  -4   1    2.80    4.80
  -2  -4   1    1.50    3.70
  -4   4  -1  756.52   42.40
   4   4   1  821.22   41.60
  -4   4  -1  768.42   41.60
  -4   4  -1  804.02   40.90
   4  -4   1  771.62   43.10
  -4  -4  -1  760.92   43.80
  -4  -4  -1  739.53   42.90
   4  -4   1  742.33   40.80
   4  -4   1  762.92   41.50
   4  -4   1  794.82   41.00
  -4  -4  -1  781.92   40.60
  -4  -4  -1  817.72   40.10
  -1   5   2  177.28   12.10
   1   5  -2  168.68   12.80
  -1  -5   2  188.88   15.80
   1  -5  -2  195.58   19.00
   1  -5  -2  174.68   12.00
  -1  -5   2  181.98   15.70
  -1  -5   2  182.68   12.30
  -1  -5   2  189.28   12.00
   1  -5  -2  181.38   14.70
  -3   5   0  199.48   13.40
   3   5   0  222.68   14.00
  -3   5   0  163.18   13.80
  -3  -5   0  182.78   18.10
  -3  -5   0  223.38   13.20
   3  -5   0  165.68   15.30
   3  -5   0  176.28   13.90
  -3  -5   0  208.28   13.30
  -3  -5   0  192.88   15.70
   3  -5   0  180.18   18.70
  -4   0  -8   -3.40    8.00
   4   0   8   22.50    9.30
  -4   0  -8   12.20    9.10
  -4   0  -8   20.00   14.20
   4   0   8   15.00   10.50
  -4   0  -8    9.30   10.00
   2   0   6  363.86   19.30
  -2   0  -6  335.17   20.50
  -2   0  -6  343.87   21.60
  -2   0  -6  342.87   19.40
  -2   0  -6  378.66   21.60
  -2   0  -6  355.66   19.40
  -2   0  -6  338.47   19.70
  -2   0  -6  328.77   20.00
  -2   0  -6  350.86   21.40
   2   0   6  364.86   19.90
   2   0   6  368.56   20.00
   2   0   6  335.27   20.70
  -2   0  -6  357.06   21.50
   0   0  -4  543.55   28.80
   0   0  -4  559.24   29.30
   0   0   4  532.35   28.70
   0   0  -4  588.64   28.90
   0   0   4  550.14   29.30
   0   0   4  573.74   28.20
   0   0   4  620.84   28.20
   0   0  -4  556.94   29.20
   0   0   4  524.05   28.60
   0   0  -4  537.95   28.90
   0   0   4  538.95   28.70
   0   0  -4  581.44   29.30
   0   0   4  567.54   28.80
   0   0  -4  540.45   28.70
   0   0  -4  536.65   29.30
  -2   0   2 9471.75  458.85
   2   0  -2 9075.29  458.05
   2   0  -2 8835.92  458.45
   2   0  -2 9954.10  457.95
   2   0  -2 9217.18  457.55
  -2   0   2 9697.53  458.05
  -2   0   2 8418.66  457.55
   2   0  -2 9081.69  458.15
  -4   0   0 5169.48  257.67
  -4   0   0 5270.97  257.27
   4   0   0 5113.89  257.57
   4   0   0 5132.39  257.27
   4   0   0 5146.49  257.27
  -4   0   0 5262.87  256.97
  -4   0   0 5386.06  257.17
  -4   0   0 5373.96  257.37
  -4   0   0 5110.09  257.27
   4   0   0 5265.07  257.17
   4   0   0 5088.79  257.77
  -4   0   0 5145.09  257.27
  -4   0   0 5076.39  257.37
   4   0   0 5305.17  257.67
   4   0   0 4979.00  257.67
   6   0   2  191.68   14.60
  -6   0  -2  163.08   11.50
  -6   0  -2  187.98   10.80
   6   0   2  177.48   12.20
   6   0   2  173.38   12.00
  -6   0  -2  156.38   10.40
  -6   0  -2  146.99   12.90
  -6   0  -2  191.78   11.70
   6   0   2  151.28   12.50
  -6   0  -2  168.88   11.20
   6   0   2  168.98   12.50
  -6   0  -2  159.28   11.90
   3   1   7  199.18   14.40
  -3   1  -7  181.98   15.50
   3   1   7  234.68   14.80
  -3   1  -7  199.58   17.00
  -3   1  -7  214.78   18.20
  -3   1  -7  228.28   15.90
  -3   1  -7  223.58   18.50
  -3   1  -7  221.28   15.10
  -3   1  -7  215.98   16.60
   3   1   7  198.48   14.00
  -3  -1  -7  203.28   14.20
  -3  -1  -7  226.88   16.30
  -3  -1  -7  230.78   18.30
  -3  -1  -7  232.68   16.40
   3  -1   7  175.68   14.40
   3  -1   7  205.68   16.40
  -3  -1  -7  212.38   16.20
   3  -1   7  183.38   14.70
   1   1   5   52.39    5.80
  -1   1  -5   83.39    6.40
  -1   1  -5   61.29    7.90
   1   1   5   50.89    5.10
   1   1   5   34.70    5.40
  -1   1  -5   34.60    5.50
  -1   1  -5   50.79    8.00
   1   1   5   50.49    5.30
  -1   1  -5   44.70    4.90
   1   1   5   61.99    5.80
  -1   1  -5   43.90    3.60
  -1   1  -5   50.29    5.40
  -1  -1  -5   37.40    5.10
   1  -1   5   54.49    4.40
  -1  -1  -5   47.10    5.10
  -1  -1  -5   36.30    4.70
   1  -1   5   49.50    5.30
  -1  -1  -5   50.59    6.40
   1  -1   5   48.60    5.90
  -1  -1  -5   44.30    5.80
   1  -1   5   35.20    5.50
   1  -1   5   27.80    3.90
  -1  -1  -5   54.39    5.20
  -1  -1  -5   40.90    5.70
  -1  -1  -5   43.30    5.20
   1  -1   5   32.60    5.00
  -1  -1  -5   41.30    6.00
  -1   1   3 3412.06  169.88
   1   1  -3 3562.34  168.78
  -1   1   3 3573.94  168.98
  -1   1   3 3122.89  169.58
   1   1  -3 3623.84  169.48
  -1   1   3 3844.72  169.68
   1   1  -3 3633.14  168.88
   1   1  -3 3802.52  168.98
   1   1  -3 3564.44  168.68
  -1   1   3 3561.74  168.98
  -1   1   3 3444.36  169.08
   1   1  -3 3551.64  168.68
   1   1  -3 3451.45  169.18
   1  -1  -3 3443.66  169.28
  -1  -1   3 3550.84  169.18
  -1  -1   3 3701.53  168.98
   1  -1  -3 2859.61  169.58
  -1  -1   3 3818.02  169.28
   1  -1  -3 3055.59  169.68
   1  -1  -3 3023.30  169.38
  -1  -1   3 3108.79  169.18
  -1  -1   3 3281.37  168.88
  -1  -1   3 3275.77  169.28
   1  -1  -3 3033.40  168.98
  -1  -1   3 3128.99  169.98
   1  -1  -3 3070.69  169.08
   1  -1  -3 3491.85  169.18
   1  -1  -3 3234.38  169.28
  -1  -1   3 3171.68  169.58
  -1  -1   3 3780.42  168.88
  -3   1   1 8241.18  396.96
  -3   1   1 7884.21  396.46
   3   1  -1 7864.81  396.76
  -3   1   1 7590.34  397.46
  -3   1   1 7897.61  397.16
   3   1  -1 8045.10  396.96
  -3   1   1 8091.19  396.26
   3   1  -1 7038.30  396.16
   3   1  -1 8872.41  396.06
   3   1  -1 7614.34  396.46
  -3   1   1 7637.04  397.66
  -3   1   1 7686.53  396.56
   3   1  -1 6853.31  396.46
  -3   1   1 7710.53  396.16
  -3  -1   1 8455.65  396.36
  -3  -1   1 8850.91  396.96
   3  -1  -1 7590.64  396.56
  -3  -1   1 8947.41  398.66
   3  -1  -1 8044.20  397.66
   3  -1  -1 7340.27  396.56
  -3  -1   1 7310.67  396.36
   3  -1  -1 7450.35  396.46
   3  -1  -1 8557.44  397.06
  -3  -1   1 8749.22  396.46
  -3  -1   1 8488.25  396.16
  -3  -1   1 8034.60  397.46
   3  -1  -1 9019.30  397.06
   3  -1  -1 7772.32  396.26
  -3  -1   1 8436.56  397.36
  -5   1  -1 1583.84   77.89
   5   1   1 1591.94   78.69
  -5   1  -1 1555.74   77.09
  -5   1  -1 1617.04   78.09
   5   1   1 1448.36   78.09
   5   1   1 1555.94   79.09
  -5   1  -1 1517.15   77.89
  -5   1  -1 1591.64   77.39
   5   1   1 1502.85   78.79
  -5   1  -1 1550.04   77.19
  -5   1  -1 1550.34   77.89
   5   1   1 1557.74   78.59
  -5   1  -1 1553.14   78.69
  -5  -1  -1 1532.05   77.89
  -5  -1  -1 1543.15   77.39
  -5  -1  -1 1584.94   77.69
   5  -1   1 1517.35   78.29
   5  -1   1 1526.85   78.19
  -5  -1  -1 1573.14   77.69
  -5  -1  -1 1560.34   77.59
   5  -1   1 1522.15   77.59
   5  -1   1 1654.23   78.29
  -5  -1  -1 1543.05   78.19
  -5  -1  -1 1541.95   77.99
   5  -1   1 1467.75   78.49
   5  -1   1 1445.46   77.29
   7   1   3   24.60    9.60
  -7   1  -3    2.90    8.00
  -7   1  -3   22.40    5.20
  -7   1  -3   17.40    8.20
   7   1   3   23.10   10.60
   7   1   3   23.80   11.80
  -7   1  -3   21.90    9.80
  -7   1  -3   14.70    9.00
   7   1   3   10.90    8.80
  -7  -1  -3   25.50   12.50
   7  -1   3   13.40   10.60
  -7  -1  -3   24.80    7.80
  -7  -1  -3   10.40    6.70
   7  -1   3   15.00    9.60
  -7  -1  -3   10.80    7.70
   7  -1   3   26.20    8.80
  -7  -1  -3   17.60    5.00
  -2   2  -6  292.37   17.70
  -2   2  -6  295.17   20.70
  -2   2  -6  282.57   18.10
  -2   2  -6  271.57   17.40
   2   2   6  249.18   17.10
   2   2   6  300.37   17.10
   2   2   6  237.18   15.80
   2   2   6  280.67   17.00
  -2   2  -6  300.17   16.50
  -2   2  -6  301.77   19.60
  -2  -2  -6  298.97   19.10
  -2  -2  -6  297.77   17.30
  -2  -2  -6  282.87   17.10
  -2  -2  -6  301.57   17.50
   2  -2   6  236.68   17.30
  -2  -2  -6  265.07   19.40
   2  -2   6  255.67   17.00
  -2  -2  -6  255.17   16.50
   2  -2   6  245.68   16.70
   0   2  -4  308.17   18.30
   0   2  -4  304.57   17.20
   0   2  -4  292.37   19.70
   0   2  -4  353.56   17.70
   0   2   4  320.77   17.20
   0   2   4  326.57   17.40
   0   2  -4  297.17   16.80
   0   2  -4  328.47   16.70
   0   2   4  295.17   18.60
   0   2  -4  293.77   17.30
   0   2  -4  316.77   18.70
   0  -2  -4  305.37   18.20
   0  -2   4  343.37   17.60
   0  -2  -4  320.37   18.80
   0  -2  -4  321.27   18.10
   0  -2  -4  314.47   17.60
   0  -2   4  309.27   18.60
   0  -2   4  350.26   17.60
   0  -2   4  370.66   17.20
   0  -2   4  354.36   17.40
   0  -2  -4  339.17   17.40
   0  -2   4  325.57   17.30
   0  -2  -4  326.57   18.30
   0  -2  -4  308.07   18.00
   0  -2  -4  340.17   16.80
   0  -2   4  318.67   18.60
   0  -2  -4  321.47   19.00
   2   2  -2 5037.40  249.58
   2   2  -2 5171.08  249.48
  -2   2   2 5243.28  249.48
   2   2  -2 4999.60  249.88
   2   2  -2 4611.44  250.07
   2   2  -2 5610.74  249.68
  -2   2   2 5376.86  249.68
  -2   2   2 5107.29  249.38
  -2   2   2 5095.99  249.48
   2   2  -2 4943.51  249.88
   2  -2  -2 5159.88  249.68
   2  -2  -2 5005.20  249.38
  -2  -2   2 5295.47  249.18
   2  -2  -2 4336.87  249.58
   2  -2  -2 4960.90  250.17
  -2  -2   2 5206.48  249.78
   2  -2  -2 5068.39  249.58
  -2  -2   2 5022.50  249.28
   2  -2  -2 4973.10  250.07
  -2  -2   2 5234.98  249.68
  -2  -2   2 4711.33  250.57
  -2  -2   2 5409.66  249.38
  -2  -2   2 4492.85  249.97
  -2  -2   2 5136.89  249.78
   2  -2  -2 4382.86  249.58
  -2  -2   2 5211.78  249.68
  -2  -2   2 5036.10  249.38
  -4   2   0 3545.95  179.08
   4   2   0 3891.41  178.58
   4   2   0 3365.36  177.98
  -4   2   0 3680.23  178.28
   4   2   0 3655.93  179.18
   4   2   0 3361.16  179.48
  -4   2   0 3613.04  178.48
  -4   2   0 3512.35  178.58
  -4   2   0 3660.83  178.28
   4  -2   0 3509.95  178.18
  -4  -2   0 3825.92  178.48
   4  -2   0 3686.23  179.28
  -4  -2   0 3638.94  178.08
   4  -2   0 3657.93  178.78
  -4  -2   0 3806.82  178.98
   4  -2   0 3574.54  177.78
  -4  -2   0 3676.63  178.68
  -4  -2   0 3251.07  178.28
   4  -2   0 3309.97  177.58
   4  -2   0 3578.94  178.98
   4  -2   0 3175.38  178.98
  -4  -2   0 3535.65  178.38
  -4  -2   0 3757.22  179.38
  -4  -2   0 3572.94  179.28
  -4  -2   0 3849.71  178.28
   4  -2   0 3593.84  178.18
  -6   2  -2  146.69   11.90
  -6   2  -2  125.89   11.40
  -6   2  -2  116.09   10.60
   6   2   2  108.49   12.00
   6   2   2  130.39   14.10
  -6   2  -2  146.69   14.10
   6   2   2  114.49   12.30
   6   2   2  115.69   12.90
  -6  -2  -2  122.59    9.80
   6  -2   2  136.19   12.30
  -6  -2  -2  112.39    8.60
  -6  -2  -2  141.99   13.90
  -6  -2  -2  123.99   10.80
  -6  -2  -2  156.38   11.00
   6  -2   2  142.09   11.30
   6  -2   2  119.19   10.00
   6  -2   2  135.59   13.90
  -3   3  -7  189.98   18.90
  -3   3  -7  152.68   15.30
   3   3   7   96.59   12.30
  -3   3  -7  108.99   12.20
  -3   3  -7  128.79   19.80
   3   3   7  140.49   12.00
  -3   3  -7  138.99   15.00
  -3  -3  -7  119.99   12.90
  -3  -3  -7  130.39   13.10
  -3  -3  -7  126.69   12.70
   3  -3   7  113.69   12.80
   3  -3   7  104.69   12.70
   3  -3   7   96.49   12.70
  -1   3  -5   44.20    8.20
  -1   3  -5   37.70    9.10
   1   3   5   28.70    5.30
  -1   3  -5   32.30    8.80
   1   3   5   63.69    8.80
   1   3   5   36.10    5.40
  -1   3  -5   34.60    4.90
  -1   3  -5   21.80    7.90
  -1  -3  -5   37.40    5.30
  -1  -3  -5   33.20    7.30
  -1  -3  -5   22.90    5.40
  -1  -3  -5   42.90    7.60
   1  -3   5   33.30    6.50
  -1  -3  -5   40.50    8.20
   1  -3   5   31.70    7.00
   1  -3   5   46.20    5.70
  -1  -3  -5   36.90    6.80
   1  -3   5   24.80    8.30
   1   3  -3 1370.46   74.29
   1   3  -3 1388.46   74.59
   1   3  -3 1523.85   73.29
  -1   3   3 1324.17   74.29
   1   3  -3 1544.95   72.99
   1   3  -3 1584.34   73.29
   1   3  -3 1620.34   73.39
  -1   3   3 1473.75   72.99
   1   3  -3 1340.27   75.29
  -1   3   3 1484.85   73.69
  -1  -3   3 1538.65   73.69
   1  -3  -3 1427.16   74.69
   1  -3  -3 1481.95   73.89
  -1  -3   3 1472.35   73.79
   1  -3  -3 1300.87   74.79
  -1  -3   3 1479.65   74.59
  -1  -3   3 1493.75   73.09
  -1  -3   3 1557.44   74.09
  -1  -3   3 1392.46   74.39
   1  -3  -3 1427.96   73.79
  -1  -3   3 1516.95   73.69
  -1  -3   3 1559.84   74.69
   1  -3  -3 1467.55   73.79
  -1  -3   3 1494.15   72.99
   1  -3  -3 1330.97   75.59
   1  -3  -3 1378.36   73.49
  -3   3   1 3742.93  181.38
  -3   3   1 3808.92  181.38
  -3   3   1 3689.43  181.68
  -3   3   1 3426.06  180.88
   3   3  -1 3276.67  182.48
  -3  -3   1 3833.72  181.38
   3  -3  -1 3185.48  182.38
  -3  -3   1 3636.44  182.28
  -3  -3   1 3904.91  181.48
  -3  -3   1 3755.42  181.08
   3  -3  -1 3565.14  181.08
   3  -3  -1 3547.34  182.48
  -3  -3   1 3788.52  180.88
   3  -3  -1 3612.64  182.48
  -3  -3   1 3052.09  182.18
  -3  -3   1 3805.62  181.38
   3  -3  -1 3702.83  181.68
  -3  -3   1 3789.32  182.28
  -3  -3   1 3679.13  180.88
  -3  -3   1 4091.09  181.48
  -3  -3   1 3723.03  181.98
  -3  -3   1 3516.85  181.28
  -5   3  -1  875.01   44.70
   5   3   1  824.22   46.30
  -5   3  -1  853.11   45.20
  -5   3  -1  833.12   46.10
   5   3   1  857.41   45.00
  -5   3  -1  834.22   44.20
   5   3   1  853.31   46.70
  -5   3  -1  880.41   44.50
   5   3   1  852.61   46.10
   5  -3   1  842.72   44.20
   5  -3   1  859.61   45.50
   5  -3   1  938.41   44.40
   5  -3   1  811.12   45.30
  -5  -3  -1  885.91   46.30
  -5  -3  -1  896.71   44.20
  -5  -3  -1  855.31   44.30
  -5  -3  -1  855.41   44.60
  -5  -3  -1  849.41   46.00
  -5  -3  -1  852.71   43.90
   5  -3   1  821.62   46.00
   0   4  -4  107.39   10.20
   0   4  -4  139.19   12.70
   0   4  -4  132.29   14.70
   0   4   4  137.19   10.50
   0   4  -4  120.19    8.20
   0   4   4  112.09    8.50
   0   4  -4  121.39   11.40
   0  -4   4  137.79   11.70
   0  -4  -4  118.69   10.70
   0  -4   4  132.29   10.30
   0  -4  -4  109.69   11.70
   0  -4   4  120.49   10.80
   0  -4  -4   99.89   13.20
   0  -4   4  113.29   10.10
   0  -4  -4  120.59   10.00
  -2   4   2 2312.37   99.89
  -2   4   2 1997.60   99.19
   2   4  -2 1906.01  100.99
   2  -4  -2 1971.20  101.19
  -2  -4   2 2054.09   99.89
  -2  -4   2 2028.20  100.69
  -2  -4   2 1970.30  101.69
   2  -4  -2 1907.91   99.99
   2  -4  -2 1865.41  101.69
  -2  -4   2 2018.00   99.69
  -2  -4   2 1976.40  100.49
   2  -4  -2 1855.21   99.39
  -2  -4   2 2007.00   98.99
  -2  -4   2 1953.50   99.79
   2  -4  -2 1854.41  101.49
  -2  -4   2 2000.50   99.39
  -4   4   0 1543.45   80.19
   4   4   0 1490.75   80.99
  -4   4   0 1536.95   80.59
   4   4   0 1654.63   80.19
  -4   4   0 1650.33   79.99
  -4  -4   0 1628.14   81.79
   4  -4   0 1546.25   80.59
  -4  -4   0 1663.63   81.79
   4  -4   0 1539.15   79.79
  -4  -4   0 1567.44   81.29
   4  -4   0 1509.95   81.79
  -4  -4   0 1599.64   79.09
  -4  -4   0 1593.24   79.69
   4  -4   0 1524.05   79.59
  -1   5   3  519.85   27.50
   1   5  -3  511.95   28.30
   1   5  -3  444.06   30.50
   1  -5  -3  466.15   27.20
   1  -5  -3  483.35   32.00
  -1  -5   3  500.25   27.80
   1  -5  -3  486.25   28.40
  -1  -5   3  502.15   27.40
   3   5  -1 1432.86   69.49
  -3   5   1 1374.56   69.69
  -3   5   1 1459.05   70.09
  -3  -5   1 1306.67   69.89
   3  -5  -1 1291.07   69.59
   3  -5  -1 1291.07   70.59
  -2   0  -7   -6.60    4.90
  -2   0  -7    8.60    6.60
  -2   0  -7    2.90    6.50
   2   0   7   13.60    7.00
  -2   0  -7    4.10    5.80
  -2   0  -7   20.60    6.70
  -2   0  -7    9.80    7.40
  -2   0  -7    6.40    9.00
  -2   0  -7   16.20    6.60
   2   0   7    6.60    5.60
   2   0   7    8.10    5.40
   0   0  -5 2224.28  113.59
   0   0   5 2333.87  112.89
   0   0   5 2394.36  113.49
   0   0   5 2206.58  113.59
   0   0  -5 2135.59  114.19
   0   0  -5 2278.67  114.09
   0   0  -5 2269.07  113.69
   0   0   5 2250.47  113.49
   0   0   5 2259.07  113.69
   0   0   5 2405.66  112.79
   0   0  -5 2249.87  114.09
   0   0  -5 2234.88  113.59
   0   0  -5 2322.27  113.59
   0   0  -5 2196.88  114.19
   2   0  -3 3388.26  166.18
   2   0  -3 3293.77  166.18
   2   0  -3 3392.56  166.08
  -2   0   3 3178.28  165.98
   2   0  -3 3304.67  166.38
  -2   0   3 3632.54  166.58
  -2   0   3 3361.26  166.28
  -2   0   3 3331.47  166.48
   2   0  -3 3296.57  165.98
  -2   0   3 3668.13  166.58
  -2   0   3 3249.27  166.08
  -2   0   3 3266.97  166.18
   2   0  -3 3172.98  166.38
   4   0  -1   12.30    2.80
   4   0  -1    0.00    1.40
  -4   0   1    9.30    2.60
  -4   0   1   15.60    2.00
  -4   0   1    2.60    1.60
  -4   0   1    6.70    3.30
   4   0  -1    8.10    2.40
  -4   0   1    3.80    1.60
   4   0  -1    3.90    2.90
  -4   0   1    4.20    2.30
  -4   0   1   17.30    3.40
   4   0  -1    6.80    1.50
   4   0  -1    8.40    1.90
   4   0  -1    5.50    3.80
  -4   0   1   20.80    2.00
   6   0   1 1090.49   55.09
  -6   0  -1 1071.39   54.69
   6   0   1 1062.39   55.19
   6   0   1 1040.10   54.19
  -6   0  -1 1056.39   54.29
  -6   0  -1 1085.99   54.49
   6   0   1 1025.60   55.29
   6   0   1 1026.40   55.49
  -6   0  -1 1082.09   53.69
  -6   0  -1 1090.09   53.89
  -6   0  -1 1082.19   54.29
  -6   0  -1 1033.20   55.19
  -3   1  -8  245.78   20.70
  -3   1  -8  236.38   18.60
  -3   1  -8  301.47   19.40
   3   1   8  236.38   18.20
   3   1   8  251.07   17.50
  -3   1  -8  299.27   17.60
  -3   1  -8  263.27   16.20
   3  -1   8  231.88   16.90
   3  -1   8  189.48   17.00
  -3  -1  -8  259.27   18.00
  -3  -1  -8  252.17   18.40
  -3  -1  -8  222.08   18.50
  -3  -1  -8  236.98   20.00
   3  -1   8  231.98   18.70
  -1   1  -6  478.95   26.50
  -1   1  -6  467.85   25.80
  -1   1  -6  481.65   25.00
   1   1   6  389.36   25.10
   1   1   6  479.15   24.90
  -1   1  -6  499.15   26.70
  -1   1  -6  442.16   25.80
  -1   1  -6  465.45   26.20
  -1   1  -6  493.85   25.20
   1   1   6  483.25   24.60
   1   1   6  400.66   24.80
  -1  -1  -6  444.76   25.90
   1  -1   6  446.96   25.50
  -1  -1  -6  492.05   26.50
  -1  -1  -6  472.45   25.90
  -1  -1  -6  499.65   26.40
  -1  -1  -6  454.55   25.10
  -1  -1  -6  472.35   24.80
   1  -1   6  449.16   25.40
  -1  -1  -6  431.46   26.20
  -1  -1  -6  482.65   25.00
  -1  -1  -6  471.35   25.00
   1  -1   6  484.45   24.80
   1  -1   6  425.36   25.20
   1  -1   6  484.15   24.80
   1   1  -4 3433.86  167.08
   1   1  -4 2931.11  167.38
  -1   1   4 3327.77  167.18
   1   1  -4 3492.35  166.88
  -1   1   4 3414.46  168.08
  -1   1   4 3457.95  167.18
  -1   1   4 3286.47  167.28
   1   1  -4 3325.17  167.68
   1   1  -4 3494.95  167.08
  -1   1   4 3576.84  167.48
   1   1  -4 3250.37  167.38
   1  -1  -4 3535.55  167.28
  -1  -1   4 3839.92  167.28
  -1  -1   4 3573.94  167.48
  -1  -1   4 3304.37  167.78
  -1  -1   4 3115.49  168.28
  -1  -1   4 3807.32  166.98
   1  -1  -4 3293.07  167.38
   1  -1  -4 3249.77  167.98
  -1  -1   4 3228.08  167.48
   1  -1  -4 3008.00  167.58
   1  -1  -4 3127.89  167.58
   1  -1  -4 3318.77  167.28
   1  -1  -4 3223.48  168.08
   1  -1  -4 3423.46  167.38
   3   1  -2  849.41   44.80
  -3   1   2  954.60   45.80
  -3   1   2  958.70   44.60
   3   1  -2  868.91   44.90
   3   1  -2  929.41   44.30
  -3   1   2  878.21   44.40
   3   1  -2  924.41   44.80
   3   1  -2  870.71   44.70
  -3   1   2  860.91   44.60
   3   1  -2  877.51   45.00
   3   1  -2  850.81   44.70
  -3   1   2 1047.60   45.40
  -3   1   2  867.61   44.90
  -3   1   2  846.42   44.50
   3  -1  -2  872.41   44.30
  -3  -1   2  867.11   44.70
   3  -1  -2  910.01   44.80
   3  -1  -2  858.01   44.70
  -3  -1   2  883.11   44.40
  -3  -1   2  847.02   44.50
   3  -1  -2  877.61   45.00
  -3  -1   2  869.41   44.90
  -3  -1   2  915.81   45.10
  -3  -1   2  864.91   44.70
   3  -1  -2  872.11   44.90
  -3  -1   2  934.31   44.70
  -3  -1   2  883.91   45.10
  -3  -1   2  903.71   45.20
   3  -1  -2  850.11   45.30
   3  -1  -2  891.11   44.70
  -5   1   0  592.84   30.80
  -5   1   0  606.24   30.60
  -5   1   0  574.04   30.00
   5   1   0  616.84   31.80
   5   1   0  598.64   31.40
  -5   1   0  629.24   30.70
  -5   1   0  590.74   30.50
  -5   1   0  612.24   31.50
   5   1   0  540.75   31.30
  -5   1   0  590.04   29.80
   5   1   0  566.24   31.80
  -5   1   0  616.24   29.90
   5   1   0  613.24   31.10
   5   1   0  546.45   30.80
   5  -1   0  573.94   31.20
   5  -1   0  602.94   30.90
  -5  -1   0  587.94   30.10
   5  -1   0  618.04   31.20
  -5  -1   0  588.64   31.00
   5  -1   0  592.54   30.10
  -5  -1   0  574.34   30.70
  -5  -1   0  587.24   30.50
   5  -1   0  573.04   31.00
   5  -1   0  563.34   30.10
  -5  -1   0  564.14   30.30
   5  -1   0  593.04   30.10
  -5  -1   0  593.74   30.30
  -5  -1   0  592.74   30.50
  -7   1  -2  734.33   35.40
   7   1   2  672.03   36.30
  -7   1  -2  661.23   35.10
  -7   1  -2  632.24   34.30
   7   1   2  665.33   36.30
   7   1   2  644.24   37.10
  -7   1  -2  594.94   35.60
   7   1   2  608.54   35.00
  -7   1  -2  618.14   32.90
  -7  -1  -2  608.74   35.70
   7  -1   2  598.14   34.20
   7  -1   2  622.84   35.30
  -7  -1  -2  603.54   34.90
  -7  -1  -2  635.04   33.30
  -7  -1  -2  635.34   34.40
  -7  -1  -2  678.83   34.30
   7  -1   2  595.84   35.60
  -2   2  -7   11.20    5.80
  -2   2  -7   -4.80    7.80
  -2   2  -7   -4.10    6.00
   2   2   7    1.90    7.00
  -2   2  -7    4.50   10.40
   2   2   7    6.40    5.30
   2   2   7    5.00    5.40
   2   2   7    9.70    4.90
  -2   2  -7   -5.80    6.50
  -2   2  -7   -5.50   10.50
   2  -2   7   -0.80    7.50
  -2  -2  -7    5.60    7.30
  -2  -2  -7    1.60    6.00
  -2  -2  -7    1.90    5.60
   2  -2   7    1.40    7.60
  -2  -2  -7    8.50    7.10
   2  -2   7   -5.20    6.70
  -2  -2  -7  -13.20    7.10
   0   2  -5 1688.83   82.89
   0   2  -5 1569.74   81.49
   0   2   5 1526.05   82.39
   0   2  -5 1660.83   83.69
   0   2  -5 1407.36   82.39
   0   2  -5 1517.65   81.89
   0   2  -5 1659.73   84.49
   0   2  -5 1593.04   83.09
   0   2  -5 1551.84   82.29
   0   2   5 1579.24   82.49
   0  -2   5 1756.22   82.79
   0  -2   5 1786.82   82.59
   0  -2  -5 1623.14   83.79
   0  -2  -5 1678.53   82.59
   0  -2   5 1710.63   81.89
   0  -2   5 1693.43   82.69
   0  -2  -5 1614.24   82.99
   0  -2  -5 1611.34   82.99
   0  -2  -5 1689.03   82.59
   0  -2  -5 1712.73   82.09
   0  -2   5 1803.12   82.49
   0  -2  -5 1717.53   84.29
   0  -2  -5 1597.04   83.39
   0  -2   5 1646.04   83.39
  -2   2   3 2237.18  107.89
   2   2  -3 2270.27  108.09
   2   2  -3 2198.88  108.39
   2   2  -3 2201.28  108.19
   2   2  -3 2231.88  108.29
   2   2  -3 2210.58  107.99
  -2   2   3 2211.58  108.09
  -2   2   3 2256.17  107.89
   2   2  -3 2337.77  108.09
  -2   2   3 2420.56  108.79
   2  -2  -3 2006.40  107.79
   2  -2  -3 2129.69  108.69
   2  -2  -3 2170.28  107.99
  -2  -2   3 2241.88  107.99
   2  -2  -3 1931.31  109.39
   2  -2  -3 2101.79  108.29
  -2  -2   3 2041.60  108.79
  -2  -2   3 2015.40  109.39
  -2  -2   3 2324.17  108.29
   2  -2  -3 1930.01  107.39
  -2  -2   3 2265.67  107.79
   2  -2  -3 2172.28  107.89
  -2  -2   3 2177.18  108.39
   2  -2  -3 1866.21  108.49
  -2  -2   3 2275.27  107.99
   2  -2  -3 1868.11  108.39
   2  -2  -3 2195.28  108.59
  -2  -2   3 2325.87  107.89
  -2  -2   3 2207.48  107.79
  -2  -2   3 2174.08  108.29
   4   2  -1    1.30    3.00
  -4   2   1    2.50    2.40
  -4   2   1    3.90    3.10
  -4   2   1    3.10    2.20
  -4   2   1    2.30    2.20
   4   2  -1   -2.40    5.70
   4   2  -1    7.30    1.70
  -4   2   1    1.70    2.60
  -4   2   1    6.20    3.90
   4   2  -1    1.90    2.50
   4  -2  -1    1.80    4.00
  -4  -2   1    7.10    2.30
   4  -2  -1    2.20    2.10
   4  -2  -1    0.80    3.50
  -4  -2   1    1.70    4.30
  -4  -2   1    6.70    2.90
   4  -2  -1    0.50    1.00
   4  -2  -1    3.20    3.90
  -4  -2   1    5.90    3.70
  -4  -2   1    1.50    3.90
  -4  -2   1   13.20    4.60
   4  -2  -1    1.00    1.50
   4  -2  -1    3.60    2.80
   4  -2  -1    2.20    2.50
  -4  -2   1    1.60    3.20
  -4  -2   1    0.90    1.50
  -4  -2   1    4.70    2.60
   6   2   1  786.02   43.10
   6   2   1  750.72   42.00
   6   2   1  786.52   43.10
   6   2   1  779.92   43.00
  -6   2  -1  799.52   41.40
  -6   2  -1  809.52   42.00
  -6   2  -1  787.42   41.50
  -6   2  -1  829.52   43.20
   6  -2   1  772.42   42.80
  -6  -2  -1  797.72   41.40
  -6  -2  -1  863.71   42.00
   6  -2   1  787.02   42.30
  -6  -2  -1  841.32   43.40
  -6  -2  -1  777.32   40.80
   6  -2   1  755.32   40.80
  -6  -2  -1  772.92   41.40
  -6  -2  -1  811.82   41.10
   6  -2   1  746.53   42.40
  -1   3  -6  266.67   16.40
  -1   3  -6  288.67   21.80
  -1   3  -6  253.37   18.80
   1   3   6  265.47   17.30
  -1   3  -6  338.47   20.00
   1   3   6  210.08   15.70
  -1   3  -6  295.17   18.90
   1   3   6  249.78   16.80
  -1  -3  -6  286.67   16.50
  -1  -3  -6  269.47   16.30
  -1  -3  -6  273.37   18.80
  -1  -3  -6  282.67   18.10
   1  -3   6  263.57   17.20
   1  -3   6  253.07   19.50
   1  -3   6  262.67   17.00
  -1  -3  -6  271.17   20.50
   1  -3   6  254.77   17.10
  -1   3   4 1917.11   94.09
   1   3  -4 1823.12   96.19
   1   3  -4 1868.71   93.29
   1   3  -4 1866.91   93.79
   1   3  -4 1909.01   93.69
  -1   3   4 1841.12   93.99
   1   3  -4 1877.31   93.59
   1   3  -4 1685.13   94.89
  -1  -3   4 1988.60   94.19
  -1  -3   4 1859.71   95.09
   1  -3  -4 1731.13   95.09
  -1  -3   4 1932.71   95.19
  -1  -3   4 1869.31   94.69
   1  -3  -4 1862.71   95.09
  -1  -3   4 2016.00   94.59
   1  -3  -4 1893.31   93.49
  -1  -3   4 1977.50   94.59
   1  -3  -4 1946.61   94.89
   1  -3  -4 1829.12   94.19
  -1  -3   4 1903.21   94.09
   1  -3  -4 1884.11   96.49
   1  -3  -4 1901.11   94.69
   1  -3  -4 1749.03   93.89
   3   3  -2  447.66   23.30
  -3   3   2  526.05   24.80
  -3   3   2  530.15   24.80
  -3   3   2  448.36   24.50
   3   3  -2  509.65   24.80
   3   3  -2  426.36   25.60
   3   3  -2  481.15   25.10
   3  -3  -2  442.36   24.60
   3  -3  -2  462.85   26.50
  -3  -3   2  498.35   24.60
  -3  -3   2  453.15   25.70
   3  -3  -2  441.46   26.40
  -3  -3   2  460.75   24.00
  -3  -3   2  479.25   24.30
  -3  -3   2  471.15   24.20
  -3  -3   2  479.45   25.50
   3  -3  -2  467.35   26.10
  -3  -3   2  446.16   24.80
  -3  -3   2  416.96   26.50
   3  -3  -2  456.95   24.30
   3  -3  -2  451.65   24.40
  -3  -3   2  455.65   25.10
  -3  -3   2  488.85   25.00
  -5   3   0  347.17   18.20
  -5   3   0  318.57   18.20
   5   3   0  301.57   22.10
  -5   3   0  348.97   19.00
   5   3   0  347.17   19.40
  -5   3   0  344.57   20.30
  -5   3   0  307.97   19.30
  -5   3   0  351.66   18.60
   5   3   0  313.27   20.60
   5  -3   0  274.47   19.70
   5  -3   0  316.87   21.00
   5  -3   0  318.47   21.00
  -5  -3   0  336.97   18.60
  -5  -3   0  357.66   19.30
  -5  -3   0  361.96   18.10
  -5  -3   0  319.07   20.40
  -5  -3   0  338.17   18.70
  -5  -3   0  319.67   18.70
   5  -3   0  318.67   18.30
  -5  -3   0  329.97   21.50
   5  -3   0  335.37   19.10
   0   4   5  706.33   40.10
   0   4  -5  765.32   41.90
   0   4  -5  812.12   42.40
   0   4  -5  734.53   42.10
   0   4   5  712.43   40.20
   0   4  -5  754.22   39.60
   0   4  -5  800.22   44.50
   0  -4  -5  737.73   41.60
   0  -4   5  752.82   40.70
   0  -4  -5  872.01   41.70
   0  -4   5  803.42   41.70
   0  -4  -5  776.22   41.00
   0  -4   5  756.42   42.60
   0  -4   5  772.42   40.90
   0  -4  -5  795.32   42.00
   2   4  -3  866.71   48.90
  -2   4   3  970.50   48.20
   2   4  -3  973.00   48.10
   2   4  -3  878.71   49.50
   2   4  -3  909.41   50.39
  -2  -4   3  986.00   49.50
   2  -4  -3  896.71   49.40
  -2  -4   3  971.10   48.10
   2  -4  -3  886.91   48.50
   2  -4  -3  913.91   48.00
  -2  -4   3 1000.70   48.70
  -2  -4   3  967.10   48.20
   2  -4  -3  876.01   49.99
   2  -4  -3  896.41   51.09
   2  -4  -3  953.90   50.19
  -2  -4   3  946.01   49.20
  -2  -4   3  990.30   49.00
  -4   4   1   12.40    6.00
   4   4  -1   -5.10    3.40
  -4   4   1    8.20    5.00
   4   4  -1    7.60    6.10
  -4   4   1   14.60    5.60
   4  -4  -1   30.00   10.10
   4  -4  -1   16.80    6.60
   4  -4  -1   13.30    7.90
   4  -4  -1    9.60    4.80
  -4  -4   1    0.70    4.20
  -4  -4   1   11.30    8.90
  -4  -4   1    4.70    3.60
  -4  -4   1    6.90    8.50
  -4  -4   1    1.90    6.30
  -4  -4   1    4.40    5.30
  -1   5   4  739.43   39.40
  -1   5   4  761.32   39.80
   1   5  -4  751.22   42.40
   1   5  -4  732.73   40.30
  -1  -5   4  773.32   39.70
  -1  -5   4  748.63   39.90
   1  -5  -4  669.93   39.10
  -1  -5   4  772.52   42.30
   1  -5  -4  766.12   42.10
   1  -5  -4  667.53   40.00
  -3   5   2  218.28   14.70
  -3   5   2  204.48   13.20
  -3  -5   2  180.98   14.20
  -3  -5   2  155.98   17.00
  -3  -5   2  186.78   13.20
  -3  -5   2  184.08   16.40
   3  -5  -2  227.48   18.60
   3  -5  -2  199.58   12.70
   3  -5  -2  216.28   15.60
  -2   0  -8 1921.31   98.09
  -2   0  -8 1933.11   97.59
   2   0   8 1833.32   96.49
  -2   0  -8 1969.90   97.19
   2   0   8 1875.51   96.19
  -2   0  -8 1951.90   96.89
  -2   0  -8 1890.81   96.59
   2   0   8 1844.52   96.99
   0   0  -6 4041.70  195.98
   0   0   6 3921.31  195.38
   0   0   6 4011.80  194.28
   0   0  -6 4100.59  195.28
   0   0   6 4071.59  195.18
   0   0  -6 3934.21  195.48
   0   0  -6 3835.12  195.28
   0   0  -6 3767.32  195.18
   0   0   6 3840.62  195.08
   0   0   6 3949.60  194.78
   0   0   6 3754.12  195.28
   0   0   6 3934.41  194.28
   0   0  -6 3783.02  195.98
   0   0  -6 3941.21  196.08
   0   0  -6 3902.81  195.88
   2   0  -4  569.24   29.60
  -2   0   4  592.64   29.70
  -2   0   4  562.34   29.50
  -2   0   4  564.64   29.40
  -2   0   4  591.74   29.10
   2   0  -4  543.75   29.80
  -2   0   4  525.95   29.70
   2   0  -4  582.54   29.40
  -2   0   4  576.74   30.00
   2   0  -4  586.34   29.00
   2   0  -4  571.04   29.50
   2   0  -4  605.94   29.20
  -2   0   4  571.64   29.30
  -2   0   4  647.44   30.10
   2   0  -4  583.74   29.80
  -4   0   2  467.45   25.40
  -4   0   2  505.25   25.50
  -4   0   2  500.05   25.20
  -4   0   2  496.85   25.40
   4   0  -2  472.55   25.70
   4   0  -2  499.85   25.90
  -4   0   2  491.25   26.10
   4   0  -2  522.65   25.60
  -4   0   2  502.25   25.70
  -4   0   2  484.75   26.00
   4   0  -2  515.45   25.50
   4   0  -2  476.05   25.80
   4   0  -2  502.15   25.60
   6   0   0   32.00    5.60
  -6   0   0   43.50    5.30
  -6   0   0   50.39    7.00
   6   0   0   42.90    4.70
   6   0   0   37.40    5.80
  -6   0   0   36.50    4.40
  -6   0   0   37.90    3.90
   6   0   0   51.09    8.50
  -6   0   0   44.40    4.40
   6   0   0   28.40    3.60
  -6   0   0   49.40    5.90
   6   0   0   42.30    5.90
  -6   0   0   30.20    3.50
   8   0   2  593.14   34.80
  -8   0  -2  541.45   32.00
   8   0   2  595.24   34.00
  -8   0  -2  561.64   34.10
  -8   0  -2  523.75   30.10
  -8   0  -2  588.14   32.80
  -1   1  -7 3342.67  164.08
  -1   1  -7 3433.36  164.48
  -1   1  -7 3268.77  163.48
  -1   1  -7 3300.17  162.68
   1   1   7 3193.68  162.28
   1   1   7 3151.98  162.58
   1   1   7 2992.10  162.68
  -1   1  -7 3278.07  163.68
   1   1   7 2957.50  162.88
  -1   1  -7 3413.26  164.08
  -1   1  -7 3327.27  162.88
   1  -1   7 3105.89  163.08
  -1  -1  -7 3321.57  162.88
  -1  -1  -7 3547.45  163.68
  -1  -1  -7 3252.87  162.28
  -1  -1  -7 3257.17  163.48
  -1  -1  -7 3255.67  164.38
  -1  -1  -7 3344.77  163.58
   1  -1   7 3147.49  163.08
  -1  -1  -7 3275.87  163.18
   1  -1   7 3275.07  162.48
   1  -1   7 3200.28  162.98
   1   1  -5 2062.29  105.19
  -1   1   5 2398.66  105.79
   1   1  -5 2009.30  106.19
   1   1  -5 1961.10  105.99
  -1   1   5 2050.49  105.79
   1   1  -5 1980.40  105.49
  -1   1   5 1965.80  105.59
  -1   1   5 2006.50  105.59
  -1   1   5 2116.39  105.39
   1   1  -5 2003.50  106.69
   1   1  -5 2015.00  105.49
   1   1  -5 1981.90  105.89
  -1  -1   5 2168.68  106.39
  -1  -1   5 2375.66  105.29
   1  -1  -5 2131.39  105.59
   1  -1  -5 2217.08  105.89
  -1  -1   5 2391.56  105.79
   1  -1  -5 2071.99  106.69
  -1  -1   5 2108.79  106.99
  -1  -1   5 1976.60  105.89
   1  -1  -5 2212.68  105.99
   1  -1  -5 1849.31  106.09
  -1  -1   5 2463.75  106.49
   1  -1  -5 2169.08  106.49
   1  -1  -5 2132.99  106.29
   1  -1  -5 2068.79  105.59
  -1  -1   5 2242.58  106.09
  -3   1   3   30.70    2.70
   3   1  -3   38.60    2.70
   3   1  -3   41.80    3.20
   3   1  -3   26.00    2.50
  -3   1   3   28.70    2.50
  -3   1   3   32.90    3.00
  -3   1   3   46.10    4.00
  -3   1   3   48.80    5.00
  -3   1   3   26.00    2.70
  -3   1   3   36.40    3.50
   3   1  -3   22.30    2.50
   3   1  -3   31.60    2.90
   3   1  -3   39.50    3.40
   3  -1  -3   50.89    3.90
  -3  -1   3   30.70    3.30
  -3  -1   3   39.10    3.10
   3  -1  -3   31.80    2.70
  -3  -1   3   37.80    3.80
  -3  -1   3   24.00    2.50
   3  -1  -3   38.60    4.20
  -3  -1   3   31.40    3.70
  -3  -1   3   33.50    2.60
  -3  -1   3   35.60    3.10
  -3  -1   3   46.50    4.20
   3  -1  -3   32.90    3.30
   3  -1  -3   40.70    3.40
   3  -1  -3   25.20    2.80
  -3  -1   3   39.80    3.40
  -3  -1   3   38.90    5.00
   3  -1  -3   29.50    4.20
  -5   1   1  386.16   20.90
   5   1  -1  415.56   22.20
  -5   1   1  398.66   21.40
  -5   1   1  404.66   21.70
   5   1  -1  402.56   22.10
  -5   1   1  396.76   20.70
   5   1  -1  433.76   21.10
  -5   1   1  387.66   21.90
  -5   1   1  397.26   21.30
  -5   1   1  405.16   21.30
  -5   1   1  400.16   20.90
   5   1  -1  393.56   22.40
   5   1  -1  392.06   22.50
  -5  -1   1  404.46   22.10
  -5  -1   1  394.16   21.20
  -5  -1   1  409.26   21.60
  -5  -1   1  402.96   21.40
  -5  -1   1  431.26   20.90
   5  -1  -1  415.46   21.20
   5  -1  -1  409.76   22.40
   5  -1  -1  416.46   22.00
   5  -1  -1  415.36   21.10
   5  -1  -1  426.66   22.40
  -5  -1   1  424.56   21.60
   5  -1  -1  396.66   21.70
   5  -1  -1  391.66   20.70
  -5  -1   1  405.66   21.20
  -7   1  -1  131.89    8.30
  -7   1  -1  130.69   11.00
   7   1   1  103.59   11.20
  -7   1  -1  112.39    9.40
  -7   1  -1  143.09   13.60
  -7   1  -1  134.79   11.10
   7   1   1  113.69   12.70
   7   1   1  123.09   13.90
   7   1   1  128.99   11.60
   7  -1   1  149.39   13.00
   7  -1   1  136.89   12.60
   7  -1   1  131.59   10.10
  -7  -1  -1  118.79   10.20
  -7  -1  -1  130.39   11.90
  -7  -1  -1  123.09   10.00
   7  -1   1  104.59   10.70
  -7  -1  -1  119.69    9.20
  -7  -1  -1  121.29   11.40
   2   2   8 1240.38   73.99
  -2   2  -8 1557.04   77.09
   2   2   8 1348.17   74.49
  -2   2  -8 1538.95   76.19
  -2   2  -8 1524.75   76.39
   2   2   8 1253.27   74.79
  -2   2  -8 1571.64   74.69
  -2   2  -8 1608.54   78.29
  -2   2  -8 1556.44   75.79
  -2  -2  -8 1637.04   77.59
   2  -2   8 1323.37   75.29
   2  -2   8 1331.27   75.09
  -2  -2  -8 1528.25   76.19
  -2  -2  -8 1531.65   76.29
  -2  -2  -8 1453.65   74.99
   2  -2   8 1393.66   74.59
   0   2  -6 3010.10  141.99
   0   2   6 2803.22  139.69
   0   2  -6 2868.81  140.19
   0   2   6 2486.25  139.39
   0   2  -6 2769.32  139.19
   0   2  -6 2531.95  139.59
   0   2   6 2534.15  139.39
   0   2  -6 2786.72  140.59
   0   2  -6 2771.92  140.29
   0   2  -6 2628.24  139.29
   0  -2  -6 2782.42  139.79
   0  -2   6 3011.60  139.89
   0  -2   6 2792.62  139.79
   0  -2  -6 2786.42  141.19
   0  -2   6 3006.50  139.49
   0  -2  -6 2820.12  140.59
   0  -2  -6 2749.02  139.49
   0  -2  -6 2974.90  141.19
   0  -2  -6 2769.72  139.59
   0  -2  -6 2865.71  139.39
   0  -2   6 2889.71  140.69
  -2   2   4  353.36   18.70
   2   2  -4  271.47   17.10
   2   2  -4  350.86   17.40
   2   2  -4  342.97   17.50
   2   2  -4  317.67   17.00
  -2   2   4  346.57   17.00
  -2   2   4  337.07   17.60
   2   2  -4  335.07   17.40
   2   2  -4  363.86   17.10
   2   2  -4  322.37   17.10
  -2   2   4  318.27   16.90
  -2   2   4  330.47   17.20
   2   2  -4  331.77   17.00
   2  -2  -4  332.17   17.20
   2  -2  -4  285.97   18.50
  -2  -2   4  353.96   17.60
   2  -2  -4  320.97   16.80
  -2  -2   4  307.87   19.70
   2  -2  -4  310.57   18.00
   2  -2  -4  315.67   17.90
  -2  -2   4  291.77   17.80
  -2  -2   4  313.27   18.80
  -2  -2   4  314.57   17.00
  -2  -2   4  339.17   18.00
   2  -2  -4  328.47   18.00
   2  -2  -4  336.27   17.20
   2  -2  -4  302.77   17.80
  -2  -2   4  332.47   16.80
  -2  -2   4  338.77   17.10
   2  -2  -4  302.77   17.40
   2  -2  -4  321.27   19.00
   4   2  -2  415.46   21.50
   4   2  -2  412.46   20.20
  -4   2   2  402.96   20.90
  -4   2   2  394.06   21.30
  -4   2   2  396.86   20.40
   4   2  -2  418.46   21.10
   4   2  -2  397.56   22.00
  -4   2   2  406.36   20.50
  -4   2   2  390.86   20.80
   4  -2  -2  407.96   21.00
  -4  -2   2  411.26   21.00
   4  -2  -2  371.66   20.40
   4  -2  -2  353.66   22.40
   4  -2  -2  353.76   20.90
  -4  -2   2  420.66   22.40
  -4  -2   2  421.66   21.60
  -4  -2   2  387.76   20.50
  -4  -2   2  423.96   21.10
   4  -2  -2  385.96   21.60
   4  -2  -2  331.77   21.00
   4  -2  -2  405.16   21.20
  -4  -2   2  398.86   21.90
  -4  -2   2  397.96   20.70
  -4  -2   2  415.86   20.70
  -4  -2   2  401.46   20.30
   4  -2  -2  426.36   22.20
  -4  -2   2  387.66   21.70
  -6   2   0   51.79    8.40
   6   2   0   33.30    9.20
   6   2   0   38.90    6.90
  -6   2   0   26.70    5.40
  -6   2   0   51.19    6.40
  -6   2   0   39.30    5.20
   6   2   0   19.40    6.90
   6   2   0   21.10    8.00
   6   2   0   40.00    6.00
  -6   2   0   28.90    6.10
  -6  -2   0   40.90    7.00
   6  -2   0   28.30    7.70
   6  -2   0   39.10    4.60
  -6  -2   0   22.80    4.20
  -6  -2   0   33.70    4.70
  -6  -2   0   44.00    6.50
   6  -2   0   40.80    6.00
  -6  -2   0   40.90    5.50
   6  -2   0   35.60    7.40
   6  -2   0   27.20    6.40
  -6  -2   0   34.50    6.90
  -6  -2   0   34.60    5.20
  -1   3  -7 1892.11   96.79
  -1   3  -7 2040.00   99.69
   1   3   7 1597.44   95.79
   1   3   7 1636.94   96.29
  -1   3  -7 2054.69   97.69
  -1   3  -7 1947.01   97.69
  -1   3  -7 2158.48   98.79
   1   3   7 1939.71   97.69
   1  -3   7 1884.41   96.89
   1  -3   7 2018.20   98.09
  -1  -3  -7 1877.71   97.89
  -1  -3  -7 1937.91   96.49
   1  -3   7 1925.81   96.59
   1  -3   7 1815.42   96.79
  -1  -3  -7 1794.32   96.49
  -1  -3  -7 1978.30   96.89
   1   3  -5 1037.30   56.89
  -1   3   5 1060.69   57.19
   1   3  -5 1102.99   59.99
   1   3  -5 1090.99   56.69
   1   3  -5 1146.79   56.89
  -1   3   5 1153.28   57.29
   1   3  -5 1023.70   58.29
   1  -3  -5 1022.90   58.19
  -1  -3   5 1150.28   58.19
   1  -3  -5 1092.39   57.29
   1  -3  -5 1174.98   58.39
   1  -3  -5 1147.79   56.79
  -1  -3   5 1125.89   58.79
  -1  -3   5 1128.19   57.39
  -1  -3   5 1192.38   57.39
   1  -3  -5 1233.08   58.69
   1  -3  -5 1148.29   59.99
   1  -3  -5 1123.19   58.19
  -1  -3   5 1200.88   57.59
  -3   3   3   46.60    4.80
   3   3  -3   36.70    4.30
   3   3  -3   36.60    6.80
  -3   3   3   38.60    5.00
   3   3  -3   30.80    3.40
  -3   3   3   37.60    4.20
   3  -3  -3   27.50    7.20
  -3  -3   3   43.20    3.80
   3  -3  -3   22.20    3.40
   3  -3  -3   39.10    4.80
  -3  -3   3   34.00    6.20
  -3  -3   3   40.20    5.80
   3  -3  -3   61.99    8.40
   3  -3  -3   31.40    4.10
  -3  -3   3   36.10    5.20
  -3  -3   3   40.50    5.60
  -3  -3   3   42.60    6.40
  -3  -3   3   46.60    9.00
  -3  -3   3   40.80    4.30
  -3  -3   3   37.00    4.40
  -3  -3   3   29.40    3.60
   3  -3  -3   44.90    5.10
   3  -3  -3   45.00    7.60
  -5   3   1  272.87   15.80
  -5   3   1  333.97   16.80
  -5   3   1  298.87   15.30
   5   3  -1  229.98   16.70
   5   3  -1  283.77   15.80
   5   3  -1  238.38   17.10
  -5   3   1  236.68   14.60
   5   3  -1  264.47   15.40
  -5  -3   1  268.77   18.20
  -5  -3   1  262.97   15.30
   5  -3  -1  255.77   18.00
  -5  -3   1  267.97   17.90
   5  -3  -1  213.58   18.00
  -5  -3   1  250.27   14.50
   5  -3  -1  246.48   15.30
   5  -3  -1  244.88   14.60
  -5  -3   1  257.47   15.20
  -5  -3   1  284.47   15.40
  -5  -3   1  272.57   16.60
  -5  -3   1  226.98   14.90
   5  -3  -1  263.87   17.60
   7   3   1   64.39   14.90
  -7   3  -1   75.89   11.10
  -7   3  -1   94.89   10.20
   7   3   1   75.09   11.80
  -7   3  -1   86.29    9.50
  -7   3  -1  117.59   15.10
  -7  -3  -1  103.99    8.80
  -7  -3  -1   86.59    9.60
   7  -3   1   87.79   13.00
  -7  -3  -1   74.49   12.10
  -7  -3  -1  102.79   10.80
   7  -3   1   72.29    8.50
   7  -3   1   84.99   11.90
  -7  -3  -1   84.39    9.30
   0   4  -6 1276.67   68.49
   0   4   6 1213.98   66.69
   0   4  -6 1272.77   65.99
   0   4  -6 1434.96   68.89
   0   4  -6 1353.56   68.39
   0   4  -6 1415.66   71.19
   0   4   6 1171.08   66.29
   0  -4   6 1322.37   67.29
   0  -4  -6 1238.68   66.99
   0  -4   6 1274.77   67.89
   0  -4   6 1338.47   69.09
   0  -4   6 1264.17   67.09
   0  -4  -6 1318.77   68.09
   0  -4  -6 1337.67   68.39
   2   4  -4  147.79   12.60
   2   4  -4  121.29    7.30
  -2   4   4  128.79   10.20
   2   4  -4  134.59   14.10
   2  -4  -4  101.89   12.80
   2  -4  -4  129.39   10.20
  -2  -4   4  145.99   12.00
   2  -4  -4  120.49   13.70
   2  -4  -4  115.79    9.40
  -2  -4   4  104.39   11.50
  -2  -4   4  141.89   10.20
   2  -4  -4  127.89   10.40
  -2  -4   4  120.89    9.80
  -2  -4   4  147.09   12.10
   4   4  -2  139.79   15.70
   4   4  -2  193.08   12.80
   4   4  -2  204.28   16.20
  -4   4   2  203.68   13.00
   4   4  -2  181.18   13.60
  -4   4   2  193.68   12.50
  -4   4   2  202.58   12.60
   4  -4  -2  196.18   16.80
  -4  -4   2  187.68   11.60
  -4  -4   2  221.28   15.10
  -4  -4   2  183.38   14.30
  -4  -4   2  189.08   12.70
   4  -4  -2  191.98   16.30
   4  -4  -2  177.38   12.00
  -4  -4   2  199.38   12.00
  -4  -4   2  191.88   13.80
  -4  -4   2  205.58   16.30
  -4  -4   2  190.38   11.30
   4  -4  -2  176.18   13.40
  -3  -5   3   14.20    6.10
   2   0   9  709.83   40.50
  -2   0  -9  756.72   40.80
  -2   0  -9  793.42   41.30
   2   0   9  679.13   41.00
  -2   0  -9  748.93   40.90
  -2   0  -9  823.22   43.00
   0   0   7    1.90    4.00
   0   0  -7    4.30    3.70
   0   0   7   -2.20    4.80
   0   0  -7   44.40    7.90
   0   0  -7    6.90    5.20
   0   0  -7    5.40    4.20
   0   0  -7    3.30    4.70
   0   0   7   -3.50    4.20
   0   0   7   -0.70    5.30
   0   0  -7    3.50    4.90
   0   0  -7   15.80    6.10
   0   0  -7    2.90    4.90
   2   0  -5 1649.23   91.59
   2   0  -5 1871.41   90.59
   2   0  -5 1922.01   90.79
  -2   0   5 1796.72   91.59
   2   0  -5 1863.91   91.59
  -2   0   5 1940.51   91.19
   2   0  -5 1696.53   91.29
  -2   0   5 1847.02   91.89
  -2   0   5 1822.42   91.39
  -2   0   5 1966.00   90.69
   2   0  -5 1752.92   91.49
   2   0  -5 1763.62   91.19
   2   0  -5 1817.82   91.49
  -2   0   5 1804.02   91.19
  -4   0   3  838.32   41.00
   4   0  -3  820.32   41.20
  -4   0   3  795.22   41.80
  -4   0   3  812.42   41.20
  -4   0   3  813.32   41.40
   4   0  -3  799.72   41.40
  -4   0   3  895.11   41.50
  -4   0   3  803.82   41.60
  -4   0   3  807.72   41.20
   4   0  -3  877.81   41.30
  -4   0   3  798.52   41.20
   4   0  -3  798.62   41.40
   4   0  -3  840.42   41.40
   4   0  -3  852.11   41.80
   4   0  -3  830.52   41.40
  -4   0   3  675.33   41.10
  -6   0   1  454.05   25.10
  -6   0   1  472.45   24.30
   6   0  -1  452.75   25.40
  -6   0   1  438.06   25.80
   6   0  -1  471.25   25.90
   6   0  -1  486.45   25.70
  -6   0   1  489.15   24.70
  -6   0   1  486.55   25.00
   6   0  -1  486.15   26.20
  -6   0   1  458.75   25.00
   6   0  -1  493.25   25.00
  -8   0  -1  965.10   48.60
   8   0   1  983.90   51.39
   8   0   1  885.51   50.59
  -8   0  -1  952.50   51.09
   8   0   1  897.11   50.79
  -8   0  -1  957.60   49.60
  -8   0  -1  958.00   49.50
  -8   0  -1  896.21   49.60
  -8   0  -1  927.81   48.10
   1   1   8  282.27   18.10
  -1   1  -8  282.27   19.30
   1   1   8  274.87   17.70
  -1   1  -8  321.37   18.60
  -1   1  -8  314.47   18.60
  -1   1  -8  334.47   18.60
  -1   1  -8  327.67   21.00
  -1   1  -8  325.97   20.40
   1   1   8  275.07   17.90
  -1   1  -8  304.07   19.60
  -1  -1  -8  295.97   19.50
  -1  -1  -8  329.77   20.30
   1  -1   8  228.98   18.80
   1  -1   8  296.57   18.20
  -1  -1  -8  333.17   18.60
   1  -1   8  292.17   18.70
  -1  -1  -8  293.57   18.50
  -1  -1  -8  311.57   18.30
   1   1  -6  576.04   29.40
  -1   1   6  555.44   29.50
   1   1  -6  558.94   30.80
   1   1  -6  488.95   30.20
  -1   1   6  684.03   30.00
  -1   1   6  527.15   29.80
   1   1  -6  526.05   29.70
   1   1  -6  574.84   30.70
   1   1  -6  515.15   29.60
   1   1  -6  550.64   31.30
  -1   1   6  556.94   30.20
  -1   1   6  624.74   29.60
   1  -1  -6  569.64   29.70
   1  -1  -6  571.44   31.40
   1  -1  -6  637.64   31.10
   1  -1  -6  550.74   29.90
  -1  -1   6  595.74   30.60
   1  -1  -6  505.45   30.30
  -1  -1   6  593.24   30.80
   1  -1  -6  606.44   29.80
   1  -1  -6  557.24   29.80
   1  -1  -6  617.34   30.40
  -1  -1   6  545.65   30.40
   1  -1  -6  622.94   31.00
   1  -1  -6  615.24   30.40
  -1  -1   6  627.64   30.20
  -3   1   4 1915.81   94.39
  -3   1   4 1774.92   94.79
  -3   1   4 1932.81   94.69
  -3   1   4 1860.11   94.39
   3   1  -4 2129.59   94.69
   3   1  -4 1921.71   94.49
   3   1  -4 1871.01   94.79
   3   1  -4 1844.62   94.29
  -3   1   4 2063.79   95.19
  -3   1   4 1886.11   94.29
  -3   1   4 1971.40   94.89
  -3   1   4 2187.78   95.39
   3   1  -4 1862.71   94.29
   3   1  -4 1858.71   94.89
  -3  -1   4 1838.82   95.59
  -3  -1   4 1898.31   94.39
  -3  -1   4 1855.21   94.89
   3  -1  -4 1843.42   94.49
  -3  -1   4 1896.81   94.79
   3  -1  -4 1930.01   94.89
   3  -1  -4 1877.21   94.69
  -3  -1   4 1819.62   95.29
   3  -1  -4 1926.91   94.99
   3  -1  -4 1848.42   95.49
   3  -1  -4 1747.33   94.89
  -3  -1   4 1920.31   94.79
   3  -1  -4 1706.73   95.09
  -5   1   2    0.00    2.70
  -5   1   2    2.80    1.80
  -5   1   2    9.20    2.60
  -5   1   2   14.50    3.00
   5   1  -2    1.20    3.30
   5   1  -2    7.00    3.80
   5   1  -2    5.40    4.10
   5   1  -2    7.40    4.80
  -5   1   2    5.10    4.00
   5   1  -2    2.10    1.90
  -5   1   2   23.70    3.10
   5   1  -2    3.20    2.00
   5  -1  -2   -0.30    3.10
   5  -1  -2    2.20    2.90
   5  -1  -2    3.10    1.70
   5  -1  -2    4.60    3.20
  -5  -1   2    6.80    3.40
   5  -1  -2    4.20    4.90
   5  -1  -2    2.00    1.50
  -5  -1   2    4.30    2.00
  -5  -1   2    5.80    2.30
  -5  -1   2   -1.80    3.30
   5  -1  -2    2.50    2.60
  -5  -1   2    5.10    2.30
  -5  -1   2    9.90    4.50
   5  -1  -2    2.00    1.60
  -7   1   0  990.90   51.09
   7   1   0 1078.39   52.69
   7   1   0 1018.60   52.69
  -7   1   0  984.70   49.99
  -7   1   0  983.50   50.99
   7   1   0 1010.50   52.89
  -7   1   0 1000.50   51.69
   7   1   0  966.80   51.99
  -7   1   0  981.50   50.49
  -7   1   0  972.20   52.59
   7  -1   0  917.11   51.99
   7  -1   0 1038.70   52.39
  -7  -1   0 1026.10   50.99
  -7  -1   0  968.10   50.99
   7  -1   0  994.40   51.69
  -7  -1   0 1008.70   50.39
  -7  -1   0 1000.80   51.19
  -7  -1   0  925.01   51.99
   7  -1   0 1021.30   52.39
  -7  -1   0  980.90   51.29
  -7  -1   0  972.90   51.19
   0   2  -7    1.10    4.00
   0   2   7   23.10    5.70
   0   2   7    0.90    5.40
   0   2  -7    2.40    5.20
   0   2  -7   13.90    5.10
   0   2   7   19.10    4.80
   0   2  -7   -1.10    4.50
   0   2  -7    1.50    6.50
   0   2  -7    6.30    8.20
   0   2   7    2.90    5.00
   0  -2  -7    1.20    5.40
   0  -2  -7    8.10    5.00
   0  -2   7   24.20    6.50
   0  -2  -7   11.20    5.40
   0  -2  -7    3.50    6.10
   0  -2  -7   25.40    5.90
   0  -2  -7   -1.60    6.60
   0  -2  -7    1.70    6.90
   0  -2   7    4.90    5.20
   0  -2   7    4.60    6.50
   2   2  -5 1334.37   67.59
   2   2  -5 1214.08   67.49
  -2   2   5 1291.17   67.49
   2   2  -5 1339.17   68.19
   2   2  -5 1420.86   67.29
  -2   2   5 1364.16   67.39
  -2   2   5 1330.37   67.09
  -2   2   5 1364.26   67.09
   2   2  -5 1357.36   66.99
   2   2  -5 1416.96   67.29
   2   2  -5 1329.27   67.09
   2   2  -5 1342.57   66.59
   2   2  -5 1375.36   66.69
   2  -2  -5 1317.37   69.19
   2  -2  -5 1277.07   68.69
   2  -2  -5 1359.36   67.29
  -2  -2   5 1372.56   67.69
   2  -2  -5 1247.88   67.89
  -2  -2   5 1272.17   69.49
   2  -2  -5 1395.76   68.49
   2  -2  -5 1354.16   67.09
   2  -2  -5 1334.77   67.79
   2  -2  -5 1312.97   67.99
  -2  -2   5 1372.26   68.69
  -2  -2   5 1469.75   67.39
  -2  -2   5 1272.27   67.89
   2  -2  -5 1302.97   67.59
   4   2  -3  561.04   29.70
  -4   2   3  575.14   28.80
  -4   2   3  588.94   29.70
  -4   2   3  571.24   29.40
  -4   2   3  606.44   29.20
   4   2  -3  608.14   29.90
   4   2  -3  594.34   28.60
  -4   2   3  557.84   29.40
  -4   2   3  575.14   28.80
   4   2  -3  584.24   29.50
   4  -2  -3  492.65   29.70
  -4  -2   3  578.44   29.20
   4  -2  -3  535.85   28.90
  -4  -2   3  584.84   29.60
  -4  -2   3  531.85   30.30
   4  -2  -3  460.25   29.60
  -4  -2   3  554.54   28.90
   4  -2  -3  559.44   28.90
  -4  -2   3  551.54   29.90
   4  -2  -3  573.04   29.70
  -4  -2   3  576.04   31.10
   4  -2  -3  540.75   30.10
   4  -2  -3  572.44   29.20
   4  -2  -3  565.34   30.40
  -4  -2   3  586.34   29.00
   4  -2  -3  539.15   31.00
  -4  -2   3  607.34   29.00
  -4  -2   3  584.04   29.40
  -4  -2   3  634.74   29.70
  -6   2   1  371.06   19.50
  -6   2   1  363.86   20.40
  -6   2   1  354.36   19.30
   6   2  -1  367.16   20.70
  -6   2   1  355.26   20.50
   6   2  -1  309.67   22.00
   6   2  -1  358.66   22.30
  -6   2   1  386.16   19.60
   6   2  -1  376.26   20.40
  -6   2   1  350.26   19.80
   6   2  -1  353.96   20.60
  -6  -2   1  357.86   19.60
  -6  -2   1  352.96   19.10
   6  -2  -1  335.87   20.60
   6  -2  -1  326.17   18.70
   6  -2  -1  361.06   21.50
  -6  -2   1  358.56   19.90
   6  -2  -1  387.56   20.90
   6  -2  -1  367.86   20.30
  -6  -2   1  352.66   21.00
  -6  -2   1  331.37   20.00
  -6  -2   1  345.17   19.60
  -6  -2   1  339.97   19.90
  -8   2  -1  756.92   40.80
  -8   2  -1  779.22   42.40
  -8   2  -1  718.73   41.20
   8   2   1  831.32   45.20
  -8   2  -1  757.12   43.90
   8   2   1  740.13   42.80
  -8  -2  -1  788.12   40.30
  -8  -2  -1  753.82   41.00
   8  -2   1  772.22   42.70
  -8  -2  -1  746.93   41.20
  -8  -2  -1  789.62   41.00
   8  -2   1  729.93   43.00
  -1   3  -8  198.18   16.80
   1   3   8  210.58   14.60
  -1   3  -8  259.97   21.80
   1   3   8  158.18   13.60
   1   3   8  170.68   14.90
  -1   3  -8  260.77   19.30
  -1   3  -8  210.78   16.80
  -1   3  -8  192.58   15.50
  -1  -3  -8  156.08   14.60
  -1  -3  -8  189.08   17.00
  -1  -3  -8  193.38   15.10
   1  -3   8  137.79   15.00
   1  -3   8  184.48   16.20
   1   3  -6  304.47   20.50
  -1   3   6  335.47   19.30
   1   3  -6  299.17   18.60
  -1   3   6  307.37   18.80
   1   3  -6  342.97   23.30
   1   3  -6  352.66   21.40
   1   3  -6  373.16   19.30
   1  -3  -6  330.27   20.30
   1  -3  -6  303.17   20.50
  -1  -3   6  414.06   20.00
   1  -3  -6  353.36   21.80
   1  -3  -6  363.66   22.70
  -1  -3   6  311.37   21.00
  -1  -3   6  372.06   21.00
  -1  -3   6  341.97   19.90
   1  -3  -6  341.37   19.00
   1  -3  -6  310.97   19.20
   1  -3  -6  352.26   20.50
  -3   3   4  981.30   50.49
  -3   3   4  984.70   49.90
  -3   3   4 1000.70   49.99
   3   3  -4 1020.30   50.79
   3   3  -4  989.60   50.19
   3   3  -4  952.70   49.30
   3   3  -4 1037.70   50.39
  -3  -3   4  975.30   51.69
  -3  -3   4  982.00   49.90
   3  -3  -4  947.01   51.69
   3  -3  -4  948.41   49.99
  -3  -3   4 1019.50   50.19
   3  -3  -4  954.10   52.59
   3  -3  -4  940.01   51.29
  -3  -3   4  936.61   50.89
  -3  -3   4 1038.10   50.29
   3  -3  -4  999.00   50.99
  -3  -3   4  958.00   50.89
  -3  -3   4  939.01   53.09
  -3  -3   4 1075.19   50.29
   3  -3  -4  995.30   50.99
  -3  -3   4  994.90   49.80
   3  -3  -4  972.00   50.29
  -3  -3   4 1044.80   51.09
  -5   3   2   10.10    4.30
  -5   3   2    5.90    3.50
   5   3  -2   -5.80    8.10
   5   3  -2   -5.90    4.60
   5   3  -2    3.30    2.10
  -5   3   2    3.00    3.80
   5   3  -2    5.20    4.90
   5   3  -2    3.80    3.30
  -5   3   2   10.30    5.40
   5  -3  -2   11.20    7.80
  -5  -3   2   15.30    4.10
  -5  -3   2    7.60    8.40
   5  -3  -2    7.40    6.30
  -5  -3   2   11.40    5.20
  -5  -3   2    6.20    5.20
   5  -3  -2    4.50    5.00
  -5  -3   2    8.20    2.70
  -5  -3   2    8.50    6.40
  -5  -3   2    9.60    4.80
   5  -3  -2    2.70    3.30
   5  -3  -2    6.30    7.70
  -5  -3   2   -1.20    7.10
  -7   3   0  609.34   35.50
   7   3   0  610.64   36.30
  -7   3   0  660.43   33.30
  -7   3   0  598.44   33.70
   7   3   0  582.04   35.80
  -7  -3   0  622.54   33.30
  -7  -3   0  639.84   32.70
   7  -3   0  630.64   34.60
  -7  -3   0  616.84   33.50
   7  -3   0  586.24   32.60
   7  -3   0  594.64   34.80
  -7  -3   0  600.44   33.50
   0   4  -7    8.10   10.80
   0   4  -7    8.60    9.30
   0   4  -7    3.10    9.70
   0   4   7   -5.40    6.10
   0   4  -7   29.90   12.20
   0   4   7   -5.70    7.00
   0  -4   7  -12.90    7.90
   0  -4  -7  -15.80    9.50
   0  -4   7  -14.30    8.10
   0  -4  -7   -5.30    7.60
   0  -4   7  -22.80   10.40
   0  -4  -7   13.20    9.50
   2   4  -5  565.94   33.30
   2   4  -5  599.54   30.30
  -2   4   5  560.54   31.50
  -2   4   5  645.04   31.90
   2   4  -5  583.74   35.30
  -2  -4   5  611.94   31.70
  -2  -4   5  633.94   34.10
  -2  -4   5  605.54   32.00
   2  -4  -5  621.64   32.70
   2  -4  -5  532.35   34.00
   2  -4  -5  562.44   32.00
  -2  -4   5  574.84   33.60
   4   4  -3  243.58   17.20
   4   4  -3  205.08   17.70
   4   4  -3  228.68   14.70
  -4   4   3  239.08   14.50
   4   4  -3  229.78   15.30
  -4   4   3  256.67   15.30
  -4  -4   3  253.67   16.20
  -4  -4   3  245.28   13.70
  -4  -4   3  263.67   16.20
   4  -4  -3  223.68   14.10
  -4  -4   3  249.28   15.70
  -4  -4   3  252.17   14.10
  -4  -4   3  228.88   14.00
  -4  -4   3  251.67   15.80
   4  -4  -3  243.38   15.40
  -4  -4   3  249.97   14.90
   4  -4  -3  220.08   19.20
  -4  -4   3  203.58   17.70
   4  -4  -3  230.18   17.10
  -6   4   1  185.98   15.50
   6   4  -1  195.18   19.30
  -6   4   1  188.88   14.10
  -6   4   1  198.28   15.00
  -6  -4   1  233.08   15.50
   6  -4  -1  207.88   18.70
   6  -4  -1  178.88   15.30
   6  -4  -1  207.78   13.30
  -6  -4   1  186.28   14.10
  -6  -4   1  190.68   19.00
  -6  -4   1  187.28   12.60
  -6  -4   1  202.58   16.30
   0   0  -8  318.87   17.70
   0   0  -8  274.67   18.60
   0   0  -8  295.67   17.40
   0   0   8  267.67   17.30
   0   0   8  280.27   16.90
   0   0   8  255.47   16.40
   0   0  -8  252.87   17.10
   0   0  -8  285.17   18.50
   0   0  -8  287.37   17.90
   0   0  -8  312.07   18.70
  -2   0   6   29.90    4.60
   2   0  -6   44.60    3.50
  -2   0   6   36.80    4.30
  -2   0   6   42.50    6.00
  -2   0   6   39.20    4.40
   2   0  -6   31.20    4.70
  -2   0   6   40.40    2.60
   2   0  -6   40.20    4.80
   2   0  -6   31.40    4.50
   2   0  -6   39.70    5.60
   2   0  -6   31.40    4.40
   2   0  -6   23.50    3.90
  -2   0   6   41.00    5.40
  -4   0   4 2140.79  108.29
   4   0  -4 2135.39  108.29
  -4   0   4 2127.59  108.29
   4   0  -4 2242.78  107.99
  -4   0   4 2191.58  108.09
  -4   0   4 2345.67  108.79
   4   0  -4 2245.48  108.69
  -4   0   4 2210.48  107.99
   4   0  -4 2197.68  108.09
  -4   0   4 1843.92  108.09
   4   0  -4 2155.78  108.19
   4   0  -4 2206.68  108.09
  -4   0   4 2137.99  107.79
  -6   0   2 3809.72  189.08
  -6   0   2 3915.51  188.58
  -6   0   2 3816.52  188.88
  -6   0   2 3723.93  189.78
   6   0  -2 3891.51  189.18
   6   0  -2 3776.62  189.68
   6   0  -2 3747.83  189.48
   6   0  -2 3837.12  189.08
  -6   0   2 3762.72  189.18
   6   0  -2 3729.73  189.58
  -6   0   2 3768.92  188.98
  -8   0   0  653.43   36.70
  -8   0   0  704.43   37.10
   8   0   0  634.94   38.10
   8   0   0  762.22   38.80
   8   0   0  692.73   38.30
  -8   0   0  690.43   36.10
  -8   0   0  673.93   35.50
  -8   0   0  655.43   38.30
  -8   0   0  708.83   37.20
  -1   1  -9   12.00    7.50
  -1   1  -9   36.50   11.70
   1   1   9   29.80    8.30
  -1   1  -9   33.00    8.80
  -1   1  -9   22.50    7.80
   1   1   9   15.90    7.30
  -1   1  -9   16.40    8.20
  -1   1  -9   24.70   10.40
  -1  -1  -9   17.50   10.40
  -1  -1  -9   15.40    8.20
   1  -1   9   21.90    7.50
  -1  -1  -9   32.50    8.60
   1  -1   9   10.00    8.30
   1  -1   9   17.40    8.70
   1   1  -7  317.57   18.20
   1   1  -7  337.67   19.20
  -1   1   7  296.77   18.00
   1   1  -7  303.37   19.90
  -1   1   7  329.67   17.40
   1   1  -7  290.57   17.90
   1   1  -7  322.57   18.80
   1   1  -7  268.07   18.60
  -1   1   7  311.37   17.70
  -1   1   7  300.07   18.10
   1   1  -7  344.97   17.70
  -1  -1   7  335.07   18.90
   1  -1  -7  331.97   19.20
   1  -1  -7  311.27   19.20
   1  -1  -7  340.77   17.90
  -1  -1   7  327.47   19.10
   1  -1  -7  354.36   18.40
   1  -1  -7  327.37   18.20
   1  -1  -7  317.77   17.70
  -1  -1   7  328.57   18.50
   1  -1  -7  316.37   20.10
   1  -1  -7  329.97   18.80
   1  -1  -7  340.27   18.80
  -1  -1   7  349.37   19.10
  -3   1   5  323.87   16.80
   3   1  -5  312.67   16.40
  -3   1   5  337.57   17.50
   3   1  -5  366.56   17.10
  -3   1   5  303.47   16.60
  -3   1   5  305.37   17.00
   3   1  -5  325.27   16.10
   3   1  -5  324.77   16.30
   3   1  -5  308.37   17.20
  -3   1   5  314.37   17.10
   3   1  -5  316.57   17.00
  -3   1   5  295.87   16.50
   3   1  -5  342.57   17.00
  -3   1   5  316.27   16.50
   3  -1  -5  322.47   17.10
  -3  -1   5  354.66   16.40
   3  -1  -5  302.67   16.90
   3  -1  -5  285.47   17.20
  -3  -1   5  315.57   18.00
   3  -1  -5  320.97   17.20
  -3  -1   5  310.47   16.50
   3  -1  -5  272.67   17.70
   3  -1  -5  320.47   16.80
  -3  -1   5  303.57   18.40
  -3  -1   5  314.47   17.30
  -3  -1   5  310.57   17.40
   3  -1  -5  270.17   18.00
  -3  -1   5  313.27   17.00
  -5   1   3 3661.43  176.88
  -5   1   3 3600.74  177.18
  -5   1   3 3505.55  177.18
  -5   1   3 3475.85  177.48
   5   1  -3 3413.56  177.38
   5   1  -3 3584.44  177.48
   5   1  -3 3518.05  177.28
   5   1  -3 3513.55  177.78
   5   1  -3 3508.85  177.58
  -5   1   3 3345.77  177.18
   5   1  -3 3884.01  177.18
  -5   1   3 3543.55  177.88
   5  -1  -3 3665.13  177.58
   5  -1  -3 3542.15  177.78
   5  -1  -3 3542.95  177.78
   5  -1  -3 3640.74  177.38
   5  -1  -3 3510.75  178.28
  -5  -1   3 3561.94  177.28
   5  -1  -3 3613.04  177.08
  -5  -1   3 3650.83  177.38
  -5  -1   3 3571.54  176.98
  -5  -1   3 3469.45  177.38
  -5  -1   3 3742.33  177.88
   5  -1  -3 3623.54  177.48
  -5  -1   3 3466.75  178.08
   7   1  -1 1995.60  103.79
  -7   1   1 1963.20  102.19
   7   1  -1 2023.30  104.09
  -7   1   1 2081.79  101.89
   7   1  -1 2049.49  103.79
  -7   1   1 2005.30  103.89
  -7   1   1 2068.59  103.19
   7   1  -1 2108.29  103.19
   7   1  -1 2180.18  103.89
  -7   1   1 2058.29  102.79
  -7   1   1 2045.10  102.79
   7  -1  -1 2025.80  103.79
  -7  -1   1 2009.10  103.69
  -7  -1   1 2008.70  102.99
  -7  -1   1 2039.50  102.99
   7  -1  -1 2030.00  103.89
  -7  -1   1 2071.69  102.69
   7  -1  -1 2061.39  103.19
  -7  -1   1 2038.30  102.19
   7  -1  -1 1985.30  102.49
  -7  -1   1 1992.60  102.69
   7  -1  -1 2117.59  103.99
   0   2  -8  222.08   16.30
   0   2  -8  200.48   16.30
   0   2  -8  218.78   16.70
   0   2  -8  211.08   15.50
   0   2  -8  241.58   18.40
   0   2  -8  212.18   13.90
   0   2   8  205.48   13.90
   0   2   8  180.28   14.10
   0   2   8  182.58   13.80
   0  -2   8  191.38   15.80
   0  -2   8  188.58   14.90
   0  -2  -8  219.18   15.40
   0  -2  -8  229.18   15.00
   0  -2   8  172.58   15.30
   0  -2  -8  206.28   14.30
   0  -2  -8  203.88   16.30
   2   2  -6   37.40    4.60
   2   2  -6   34.00    8.10
   2   2  -6   38.10    6.00
  -2   2   6   35.60    4.40
   2   2  -6   33.60    4.90
  -2   2   6   37.20    5.60
  -2   2   6   38.00    4.70
   2   2  -6   48.80    4.40
   2   2  -6   30.70    3.30
   2   2  -6   32.10    3.80
  -2   2   6   36.00    4.10
   2  -2  -6   51.49    7.10
   2  -2  -6   42.90    5.90
   2  -2  -6   42.40    4.60
  -2  -2   6   29.50    5.80
  -2  -2   6   34.90    7.00
   2  -2  -6   24.00    5.10
   2  -2  -6   31.90    5.70
  -2  -2   6   45.10    5.30
   2  -2  -6   48.30    6.10
  -2  -2   6   45.00    5.10
   2  -2  -6   38.70    5.50
  -4   2   4 1515.95   72.19
  -4   2   4 1488.35   72.79
  -4   2   4 1445.46   72.19
   4   2  -4 1613.74   72.29
  -4   2   4 1470.05   72.99
  -4   2   4 1444.76   72.89
   4   2  -4 1471.75   72.89
   4   2  -4 1487.15   72.79
   4   2  -4 1439.96   72.89
   4   2  -4 1456.95   72.59
  -4  -2   4 1449.95   72.99
  -4  -2   4 1588.04   72.39
  -4  -2   4 1505.15   72.49
   4  -2  -4 1476.15   73.49
   4  -2  -4 1269.47   73.19
   4  -2  -4 1330.37   74.09
  -4  -2   4 1454.25   74.29
  -4  -2   4 1472.95   72.59
   4  -2  -4 1419.66   72.49
  -4  -2   4 1500.75   72.59
   4  -2  -4 1447.66   73.09
   4  -2  -4 1414.56   73.29
   4  -2  -4 1439.46   72.29
   4  -2  -4 1357.36   72.39
  -4  -2   4 1378.76   73.79
   4  -2  -4 1235.08   73.29
  -4  -2   4 1461.45   73.09
   6   2  -2 2894.81  142.59
  -6   2   2 2823.32  141.39
  -6   2   2 2832.32  142.09
  -6   2   2 2779.52  142.49
   6   2  -2 2647.64  142.69
   6   2  -2 2856.21  142.39
  -6   2   2 2900.31  141.49
   6   2  -2 3016.40  142.29
   6   2  -2 2869.41  142.89
  -6   2   2 2910.51  141.59
   6  -2  -2 2824.82  142.69
   6  -2  -2 2591.74  142.89
   6  -2  -2 2676.23  141.59
  -6  -2   2 2862.01  141.69
  -6  -2   2 2918.31  141.79
   6  -2  -2 2823.52  142.59
   6  -2  -2 2822.02  141.19
  -6  -2   2 2803.22  141.89
  -6  -2   2 2719.33  142.19
  -6  -2   2 2999.10  143.09
  -6  -2   2 2997.30  141.39
   6  -2  -2 2825.22  141.79
  -8   2   0  523.05   29.50
   8   2   0  484.55   33.40
   8   2   0  567.84   32.90
  -8   2   0  549.15   30.30
  -8   2   0  558.14   29.80
  -8   2   0  561.54   32.60
  -8  -2   0  522.05   29.60
  -8  -2   0  557.84   30.00
   8  -2   0  526.45   32.30
  -8  -2   0  515.75   29.50
   8  -2   0  532.55   31.10
  -8  -2   0  504.55   28.80
   1   3  -7  174.58   12.80
   1   3  -7  208.68   18.50
   1   3  -7  195.98   13.90
  -1   3   7  182.28   13.50
   1   3  -7  199.38   16.20
  -1   3   7  193.68   12.60
   1   3  -7  210.88   13.90
   1  -3  -7  211.48   13.80
   1  -3  -7  196.68   17.70
  -1  -3   7  228.58   14.40
  -1  -3   7  210.18   16.60
   1  -3  -7  230.78   16.70
  -1  -3   7  190.08   14.60
   1  -3  -7  182.28   13.40
   1  -3  -7  199.58   13.50
   1  -3  -7  201.28   14.50
   3   3  -5  183.08    9.80
  -3   3   5  157.08    9.50
   3   3  -5  150.38    9.70
  -3   3   5  147.69   10.10
  -3   3   5  175.18   10.20
   3   3  -5  134.39    9.40
   3   3  -5  117.39   13.90
   3   3  -5  151.08   10.50
   3   3  -5  170.98   12.20
   3  -3  -5  152.98   13.80
   3  -3  -5  168.48   12.90
   3  -3  -5  145.09   11.70
  -3  -3   5  152.08   12.00
  -3  -3   5  182.28   13.30
  -3  -3   5  160.38   10.60
   3  -3  -5  141.79   11.90
  -3  -3   5  150.08    9.50
   3  -3  -5  150.98   10.20
   3  -3  -5  172.88   10.10
  -3  -3   5  184.98   10.30
  -3  -3   5  166.08   16.00
   3  -3  -5  166.98   13.00
   5   3  -3 1909.21   97.69
   5   3  -3 1956.10   99.79
  -5   3   3 1989.30   99.19
   5   3  -3 1983.40   99.29
  -5   3   3 2003.60   98.89
  -5   3   3 2014.20   98.89
   5   3  -3 2149.58   99.29
  -5  -3   3 2065.99   99.19
   5  -3  -3 1941.41   99.99
   5  -3  -3 1806.02  100.79
  -5  -3   3 2060.29   99.39
  -5  -3   3 2006.50   98.29
   5  -3  -3 1910.61   98.79
  -5  -3   3 1990.00  100.99
  -5  -3   3 1803.92   99.59
  -5  -3   3 1994.10   99.19
   5  -3  -3 1880.81   99.89
  -5  -3   3 1952.60   98.59
  -5  -3   3 1951.50   99.99
   5  -3  -3 1929.91   98.29
  -7   3   1 1274.17   63.79
  -7   3   1 1202.58   65.29
  -7   3   1 1280.57   64.99
   7   3  -1 1143.19   66.89
   7   3  -1 1244.68   65.59
  -7  -3   1 1325.07   64.59
   7  -3  -1 1231.28   66.29
  -7  -3   1 1280.07   64.19
  -7  -3   1 1245.18   64.19
   7  -3  -1 1256.67   64.79
  -7  -3   1 1233.98   63.59
  -2   4   6   24.00    5.20
  -2   4   6   24.10    6.80
   2   4  -6   22.70    3.80
   2   4  -6   45.90   10.20
   2   4  -6   18.50   11.70
   2  -4  -6   10.60    6.50
  -2  -4   6   25.40    9.00
  -2  -4   6   16.90    7.10
  -2  -4   6   21.20    9.60
  -2  -4   6   20.20    7.00
   2  -4  -6   18.00    9.30
   2  -4  -6   22.20    8.30
   4   4  -4  538.25   36.40
  -4   4   4  670.93   34.40
  -4   4   4  661.03   33.90
   4   4  -4  669.63   35.10
  -4  -4   4  651.13   33.50
  -4  -4   4  659.03   33.80
  -4  -4   4  629.34   35.50
   4  -4  -4  605.94   36.10
   4  -4  -4  644.44   34.60
  -4  -4   4  639.84   35.60
   4  -4  -4  676.33   39.90
  -4  -4   4  703.73   37.10
  -4  -4   4  619.14   34.70
  -4  -4   4  673.43   34.00
  -4  -4   4  618.84   35.10
   4  -4  -4  623.04   33.80
  -4  -4   4  699.33   34.60
  -6   4   2 1391.36   70.49
  -6   4   2 1320.47   70.59
  -6   4   2 1339.87   70.99
   6  -4  -2 1314.87   72.79
   6  -4  -2 1315.17   69.59
   6  -4  -2 1346.77   70.79
  -6  -4   2 1406.76   70.79
  -6  -4   2 1423.96   73.19
  -6  -4   2 1383.36   70.19
  -6  -4   2 1406.76   70.69
  -6  -4   2 1459.95   71.69
   0   0   9  315.77   20.20
   0   0  -9  331.77   21.30
   0   0   9  311.07   19.10
   0   0  -9  342.07   21.20
   0   0  -9  319.07   19.90
   0   0  -9  293.47   19.60
   0   0  -9  321.57   19.60
   0   0   9  332.17   19.90
   0   0  -9  311.77   21.00
   2   0  -7  388.96   22.00
  -2   0   7  396.86   22.60
  -2   0   7  414.06   21.90
   2   0  -7  367.96   22.20
   2   0  -7  368.26   22.10
   2   0  -7  393.16   21.40
  -2   0   7  389.96   21.30
  -2   0   7  436.16   21.80
   2   0  -7  381.06   22.00
  -2   0   7  445.56   22.10
   2   0  -7  403.86   22.30
   4   0  -5 2473.35  122.29
  -4   0   5 2403.56  122.09
   4   0  -5 2346.57  122.49
   4   0  -5 2544.85  122.59
  -4   0   5 2389.56  122.39
   4   0  -5 2455.95  122.09
  -4   0   5 2476.85  122.29
  -4   0   5 2511.55  122.79
   4   0  -5 2391.36  122.79
  -4   0   5 2593.04  122.39
  -4   0   5 2338.57  122.69
   4   0  -5 2528.95  122.99
  -4   0   5 2456.35  123.09
  -6   0   3  452.55   23.90
  -6   0   3  448.36   23.50
   6   0  -3  443.16   23.80
   6   0  -3  445.46   24.30
   6   0  -3  448.86   23.60
  -6   0   3  453.15   23.10
  -6   0   3  446.06   23.50
   6   0  -3  470.05   24.40
  -6   0   3  457.05   24.40
  -6   0   3  422.96   23.40
   6   0  -3  440.26   24.40
  -8   0   1  245.28   17.90
  -8   0   1  243.78   15.10
  -8   0   1  256.87   15.20
   8   0  -1  266.47   17.60
   8   0  -1  226.68   17.90
   8   0  -1  307.37   18.60
  -8   0   1  249.28   16.00
  -8   0   1  243.38   14.30
  -8   0   1  231.88   16.40
   1   1  -8   12.60    5.50
  -1   1   8    7.90    5.20
   1   1  -8   13.40    4.40
   1   1  -8    7.20    5.30
  -1   1   8    5.40    5.60
   1   1  -8   10.60    7.40
   1   1  -8    5.20    5.20
   1   1  -8   13.60    7.70
   1   1  -8    5.50    4.00
  -1  -1   8    7.30    4.30
   1  -1  -8    1.40    4.60
   1  -1  -8   -1.20    6.10
  -1  -1   8    0.40    6.50
  -1  -1   8    2.10    5.50
   1  -1  -8    2.30    5.80
   1  -1  -8   23.20    5.40
   1  -1  -8   17.20    5.80
   1  -1  -8   -4.70    6.20
   1  -1  -8   10.90    6.00
   3   1  -6 1590.94   76.29
   3   1  -6 1603.54   76.19
  -3   1   6 1559.54   76.59
  -3   1   6 1444.66   75.89
  -3   1   6 1566.84   76.19
  -3   1   6 1524.65   75.89
  -3   1   6 1421.76   76.39
   3   1  -6 1413.46   76.29
   3   1  -6 1600.04   76.29
   3   1  -6 1519.15   76.69
   3   1  -6 1631.44   76.99
  -3   1   6 1789.92   76.59
  -3  -1   6 1456.75   77.49
  -3  -1   6 1575.14   76.79
   3  -1  -6 1364.06   76.69
   3  -1  -6 1492.05   76.69
  -3  -1   6 1534.25   76.49
   3  -1  -6 1552.94   76.19
  -3  -1   6 1510.35   76.89
   3  -1  -6 1537.65   76.29
   3  -1  -6 1549.84   75.99
  -3  -1   6 1446.16   76.49
   3  -1  -6 1411.06   76.09
   3  -1  -6 1296.27   76.89
   3  -1  -6 1505.95   77.19
   5   1  -4 1601.94   81.79
   5   1  -4 1746.03   81.19
  -5   1   4 1611.64   80.89
   5   1  -4 1606.14   81.39
  -5   1   4 1629.04   80.99
  -5   1   4 1634.64   81.09
  -5   1   4 1636.54   81.59
   5   1  -4 1583.74   81.49
  -5   1   4 1591.24   81.79
   5   1  -4 1587.04   81.29
  -5   1   4 1570.14   81.39
   5   1  -4 1725.13   81.19
   5  -1  -4 1537.75   81.59
  -5  -1   4 1687.23   81.09
   5  -1  -4 1633.94   81.59
   5  -1  -4 1546.95   82.29
  -5  -1   4 1586.84   80.99
  -5  -1   4 1592.04   81.29
   5  -1  -4 1616.14   80.89
  -5  -1   4 1629.44   82.39
  -5  -1   4 1635.84   81.89
   5  -1  -4 1585.44   81.59
  -5  -1   4 1648.04   81.39
   5  -1  -4 1734.13   81.89
   5  -1  -4 1626.14   81.59
  -5  -1   4 1561.44   81.39
   7   1  -2   -1.90    2.90
  -7   1   2    4.60    3.10
  -7   1   2    6.50    4.50
  -7   1   2   13.80    6.60
   7   1  -2    4.60    6.30
  -7   1   2    7.50    4.10
  -7   1   2    3.50    3.10
   7   1  -2    1.90    7.80
   7   1  -2    5.90    5.40
   7   1  -2    2.50    4.80
   7  -1  -2    1.30    2.50
  -7  -1   2    4.20    3.80
  -7  -1   2    0.70    4.30
   7  -1  -2    4.40    5.80
  -7  -1   2    6.90    4.10
  -7  -1   2    5.10    3.50
  -7  -1   2    3.80    5.00
   7  -1  -2    2.70    5.70
   7  -1  -2    8.90    5.20
   7  -1  -2    3.60    4.10
   7  -1  -2   12.50    7.10
  -7  -1   2    1.50    4.80
   0   2   9  195.28   15.80
   0   2  -9  291.87   21.00
   0   2   9  216.58   16.40
   0   2  -9  239.58   16.00
   0   2  -9  238.68   19.00
   0   2  -9  229.78   16.10
   0   2  -9  261.77   19.10
   0  -2   9  255.07   18.20
   0  -2  -9  244.68   18.20
   0  -2   9  212.18   17.00
   0  -2   9  230.08   16.50
   0  -2  -9  279.57   17.60
   0  -2  -9  245.78   18.40
   2   2  -7  312.07   18.00
   2   2  -7  329.37   21.00
   2   2  -7  303.97   19.70
  -2   2   7  305.67   18.10
   2   2  -7  299.87   17.70
   2   2  -7  326.77   19.00
   2   2  -7  291.57   18.40
  -2   2   7  320.57   18.10
   2  -2  -7  347.47   20.70
  -2  -2   7  328.97   19.30
   2  -2  -7  341.07   18.80
   2  -2  -7  337.07   20.00
  -2  -2   7  299.87   18.60
  -2  -2   7  366.66   18.50
   2  -2  -7  311.07   18.50
   2  -2  -7  354.56   20.20
   2  -2  -7  307.97   18.60
  -2  -2   7  332.67   19.40
   4   2  -5 1806.22   90.19
   4   2  -5 2017.20   90.59
   4   2  -5 1838.92   90.89
   4   2  -5 1807.32   90.59
  -4   2   5 1901.81   90.19
  -4   2   5 1885.01   90.59
  -4   2   5 1834.52   90.89
  -4   2   5 1932.51   90.69
   4   2  -5 1854.91   90.29
   4   2  -5 1799.82   90.09
  -4   2   5 1728.13   89.99
  -4  -2   5 1822.12   91.09
   4  -2  -5 1798.52   90.19
   4  -2  -5 1774.72   90.99
  -4  -2   5 1959.70   90.69
   4  -2  -5 1675.83   90.39
   4  -2  -5 1767.32   90.89
   4  -2  -5 1632.54   91.19
  -4  -2   5 1787.02   90.89
  -4  -2   5 1770.32   92.49
   4  -2  -5 1848.22   91.29
   4  -2  -5 1601.94   91.39
  -4  -2   5 1824.12   90.29
   4  -2  -5 1752.82   92.29
  -4  -2   5 1688.13   91.59
  -6   2   3  366.66   20.50
   6   2  -3  352.46   19.70
   6   2  -3  363.06   20.70
  -6   2   3  353.16   18.90
  -6   2   3  349.27   19.40
   6   2  -3  350.66   20.50
  -6   2   3  363.86   18.90
  -6   2   3  363.86   20.00
   6   2  -3  335.37   20.70
   6   2  -3  361.06   20.00
   6  -2  -3  375.26   19.50
   6  -2  -3  377.96   21.40
  -6  -2   3  346.67   21.50
  -6  -2   3  332.47   18.70
  -6  -2   3  358.36   19.70
   6  -2  -3  349.47   21.90
  -6  -2   3  358.46   19.80
  -6  -2   3  338.87   19.40
  -6  -2   3  343.07   20.70
   6  -2  -3  347.07   20.20
   6  -2  -3  335.87   19.70
  -8   2   1  185.68   12.90
   8   2  -1  176.08   16.30
  -8   2   1  192.78   15.10
  -8   2   1  192.98   13.20
   8   2  -1  155.58   17.20
  -8   2   1  184.98   16.40
   8  -2  -1  146.89   15.10
   8  -2  -1  185.08   14.80
  -8  -2   1  193.58   11.60
  -8  -2   1  176.08   13.90
  -8  -2   1  201.88   17.20
  -8  -2   1  195.78   13.70
   8  -2  -1  167.58   16.40
  -8  -2   1  194.78   13.40
  -1   3   8    6.40    6.40
   1   3  -8    5.40    9.60
   1   3  -8   11.70    6.00
   1   3  -8    3.90    7.60
  -1   3   8   11.80    6.60
   1   3  -8   10.80   11.70
   1   3  -8   -1.30    6.00
  -1  -3   8    9.80    9.30
  -1  -3   8  -12.10    8.00
   1  -3  -8   -5.20    8.80
  -1  -3   8   -5.50    7.30
   1  -3  -8    4.00    7.10
   1  -3  -8    8.10    6.60
   1  -3  -8    5.40    7.40
   3   3  -6  981.20   47.60
  -3   3   6  872.11   48.10
  -3   3   6  950.20   47.60
   3   3  -6  871.31   47.80
   3   3  -6  928.31   47.50
   3   3  -6  878.71   49.99
   3   3  -6  956.40   47.40
   3   3  -6  929.91   48.90
  -3  -3   6 1021.20   47.90
  -3  -3   6  992.10   48.30
   3  -3  -6  900.61   48.50
  -3  -3   6  957.10   49.80
   3  -3  -6  934.11   49.20
   3  -3  -6  938.81   49.70
   3  -3  -6  951.20   50.29
  -3  -3   6  835.72   48.60
   3  -3  -6  924.91   47.50
   3  -3  -6  881.71   48.90
   5   3  -4  934.81   48.90
   5   3  -4  933.31   49.00
  -5   3   4  954.40   48.60
   5   3  -4 1002.00   48.90
   5   3  -4  999.60   47.30
  -5   3   4  926.61   48.60
  -5   3   4  935.31   48.50
   5   3  -4  984.40   47.20
   5   3  -4  931.61   48.60
  -5  -3   4  983.60   48.30
  -5  -3   4  985.90   48.00
   5  -3  -4  799.02   48.70
   5  -3  -4  969.30   50.19
  -5  -3   4  950.40   49.00
  -5  -3   4  936.91   51.29
  -5  -3   4  935.71   47.80
  -5  -3   4  883.81   49.90
   5  -3  -4  903.71   48.30
   5  -3  -4  919.21   49.60
   5  -3  -4  923.01   47.90
  -5  -3   4  952.30   48.80
  -5  -3   4  970.80   48.70
  -7   3   2   11.50    4.80
   7   3  -2  -20.00   10.60
  -7   3   2    9.30    6.80
  -7   3   2   11.10    8.20
   7   3  -2    3.50    8.60
  -7   3   2   35.90    7.20
   7  -3  -2    6.50    6.80
  -7  -3   2   -1.60    5.90
   7  -3  -2    4.70    8.30
  -7  -3   2   11.70    9.60
  -7  -3   2   -1.80    5.30
  -7  -3   2    2.60    5.10
  -7  -3   2    5.30    4.70
   7  -3  -2    3.40    7.20
   2   4  -7  202.08   20.20
  -2   4   7  151.58   13.00
  -2   4   7  153.78   13.30
   2   4  -7  173.18   14.80
   2   4  -7  196.58   17.00
   2   4  -7  170.98   11.50
   2  -4  -7  158.78   13.10
   2  -4  -7  172.48   14.40
  -2  -4   7  171.28   14.30
   2  -4  -7  172.88   15.50
  -2  -4   7  202.98   14.40
  -2  -4   7  170.88   15.00
   4   4  -5  959.80   45.20
   4   4  -5  858.71   48.60
  -4   4   5  708.63   45.40
   4   4  -5  926.81   47.20
  -4   4   5  874.41   45.60
  -4  -4   5  934.01   45.60
  -4  -4   5  880.51   44.80
  -4  -4   5  840.82   44.70
  -4  -4   5  959.70   45.70
   4  -4  -5  778.22   44.90
   4  -4  -5  890.21   45.60
  -4  -4   5  916.21   47.50
   4  -4  -5  836.32   47.90
  -4  -4   5  881.91   46.90
  -6   4   3  227.58   14.70
  -6   4   3  203.68   15.60
  -6   4   3  203.18   14.60
  -6  -4   3  202.18   15.50
   6  -4  -3  196.78   16.90
  -6  -4   3  200.38   13.80
  -6  -4   3  189.78   12.80
   6  -4  -3  206.48   14.90
  -6  -4   3  189.58   16.20
  -6  -4   3  191.08   18.30
   6  -4  -3  212.88   13.00
  -6  -4   3  198.48   15.10
   0   0 -10  649.34   36.30
   0   0 -10  659.13   35.00
   0   0 -10  687.63   35.10
   0   0 -10  601.74   35.00
   0   0  10  602.94   35.20
   0   0  10  598.54   34.90
  -2   0   8 2789.92  139.59
  -2   0   8 3147.08  139.69
   2   0  -8 2532.25  140.09
   2   0  -8 2701.03  139.59
   2   0  -8 2595.84  140.29
   2   0  -8 2912.31  139.89
   2   0  -8 2701.13  140.29
  -2   0   8 3007.40  140.29
  -2   0   8 2835.42  139.79
   2   0  -8 2728.13  139.79
   2   0  -8 2720.43  140.09
   4   0  -6 1424.86   72.29
  -4   0   6 1430.96   73.39
  -4   0   6 1467.05   73.79
   4   0  -6 1404.16   73.19
   4   0  -6 1498.25   72.89
   4   0  -6 1421.46   73.19
  -4   0   6 1595.34   73.09
   4   0  -6 1428.86   73.49
  -4   0   6 1470.85   73.39
  -4   0   6 1425.86   72.99
   4   0  -6 1473.55   72.69
  -4   0   6 1451.35   72.89
   4   0  -6 1352.16   73.39
   6   0  -4   50.59    5.90
  -6   0   4   37.40    4.10
  -6   0   4   40.70    5.20
  -6   0   4   57.89    7.10
   6   0  -4   51.09    6.30
   6   0  -4   39.70    5.00
   6   0  -4   30.80    3.90
   6   0  -4   44.00    5.90
   6   0  -4   51.29    4.60
  -6   0   4   44.80    4.20
  -6   0   4   41.40    5.00
  -8   0   2  199.68   12.00
  -8   0   2  222.98   12.90
  -8   0   2  182.38   13.20
  -8   0   2  202.08   13.00
  -8   0   2  182.78   15.30
   8   0  -2  204.78   15.70
   8   0  -2  215.78   14.50
   8   0  -2  195.58   14.30
  -8   0   2  208.28   14.40
   1   1  -9 1829.72   89.29
  -1   1   9 1623.34   88.09
   1   1  -9 1678.63   89.19
   1   1  -9 1805.42   89.79
   1   1  -9 1684.33   88.29
   1   1  -9 1661.23   87.99
  -1   1   9 1664.13   87.99
   1   1  -9 1670.63   87.99
  -1  -1   9 1776.52   88.59
  -1  -1   9 1733.43   88.29
   1  -1  -9 1824.72   88.79
   1  -1  -9 1773.42   88.89
   1  -1  -9 1775.82   88.39
  -1  -1   9 1785.62   88.99
   1  -1  -9 1757.92   88.69
   3   1  -7 2457.65  121.89
  -3   1   7 2571.74  122.29
   3   1  -7 2519.35  121.79
  -3   1   7 2429.96  121.49
   3   1  -7 2531.95  121.79
   3   1  -7 2484.45  122.59
  -3   1   7 2524.65  121.89
   3   1  -7 2283.97  122.29
  -3   1   7 2509.15  121.59
  -3   1   7 2397.86  122.09
   3   1  -7 2139.49  121.99
  -3  -1   7 2644.94  122.59
  -3  -1   7 2480.25  123.49
   3  -1  -7 2268.47  122.79
   3  -1  -7 2544.65  121.69
   3  -1  -7 2296.97  121.79
   3  -1  -7 2507.75  121.39
   3  -1  -7 2351.46  122.39
   3  -1  -7 2365.36  122.69
  -3  -1   7 2479.85  122.69
   3  -1  -7 2430.06  121.99
  -3  -1   7 2473.25  122.09
   3  -1  -7 2307.27  122.39
   5   1  -5  216.08   12.30
   5   1  -5  215.78   12.10
  -5   1   5  225.68   12.70
   5   1  -5  197.28   12.20
   5   1  -5  217.98   12.10
  -5   1   5  197.08   11.80
  -5   1   5  197.78   12.50
  -5   1   5  201.18   11.60
   5   1  -5  220.38   13.00
  -5   1   5  231.18   12.60
   5   1  -5  210.78   11.80
  -5   1   5  211.38   11.70
  -5  -1   5  198.58   12.40
  -5  -1   5  210.88   12.60
  -5  -1   5  203.18   13.60
   5  -1  -5  221.18   14.30
  -5  -1   5  203.28   12.50
   5  -1  -5  210.78   12.60
   5  -1  -5  217.88   13.00
  -5  -1   5  207.48   14.00
   5  -1  -5  202.48   12.40
   5  -1  -5  195.48   12.90
  -5  -1   5  194.48   11.50
   5  -1  -5  237.28   13.10
   5  -1  -5  233.68   12.00
   7   1  -3  264.67   15.40
  -7   1   3  242.88   13.80
  -7   1   3  268.57   15.80
   7   1  -3  240.28   16.40
   7   1  -3  236.28   16.10
   7   1  -3  237.58   16.20
  -7   1   3  244.78   15.60
  -7   1   3  256.27   14.70
   7   1  -3  247.88   15.40
  -7   1   3  251.97   14.60
   7  -1  -3  241.88   15.20
  -7  -1   3  271.57   15.10
   7  -1  -3  252.07   15.70
  -7  -1   3  236.08   14.80
   7  -1  -3  232.58   16.30
   7  -1  -3  258.77   15.10
   7  -1  -3  251.37   14.80
  -7  -1   3  262.27   14.00
   7  -1  -3  260.77   17.20
  -7  -1   3  307.47   17.20
  -7  -1   3  232.58   15.00
  -7  -1   3  275.17   15.30
   9   1  -1   15.70   11.40
   9  -1  -1   20.40   11.40
  -2   2   8 2026.60  109.99
   2   2  -8 1985.00  109.79
   2   2  -8 2332.57  110.99
  -2   2   8 2022.70  110.39
   2   2  -8 1970.20  109.89
   2   2  -8 2171.38  112.19
   2   2  -8 2050.89  111.09
   2   2  -8 1880.61  110.29
   2  -2  -8 2470.35  110.69
  -2  -2   8 2340.37  111.19
   2  -2  -8 2384.46  111.39
  -2  -2   8 2498.65  110.69
   2  -2  -8 2326.57  111.89
   2  -2  -8 2133.39  110.29
  -2  -2   8 2353.66  111.59
  -2  -2   8 2187.48  110.99
  -4   2   6 1087.19   53.39
   4   2  -6 1121.29   53.69
  -4   2   6 1050.29   53.79
   4   2  -6  985.80   53.59
  -4   2   6 1024.80   54.09
  -4   2   6 1087.39   53.69
   4   2  -6 1136.89   53.79
   4   2  -6 1037.90   54.09
  -4  -2   6 1128.79   54.19
  -4  -2   6 1069.79   53.49
   4  -2  -6 1044.20   53.99
  -4  -2   6 1012.90   55.19
   4  -2  -6 1041.30   54.79
   4  -2  -6 1024.90   53.69
  -4  -2   6 1048.60   56.09
   4  -2  -6  988.30   54.89
  -4  -2   6 1089.19   54.39
   4  -2  -6 1027.30   54.29
   4  -2  -6 1009.80   55.59
   4  -2  -6 1089.59   55.29
  -4  -2   6 1050.69   54.39
   6   2  -4   32.70    5.70
   6   2  -4   17.50    3.70
  -6   2   4   45.00    4.70
   6   2  -4   31.20    5.60
  -6   2   4   36.70    6.30
  -6   2   4   31.00    5.40
  -6   2   4   27.80    3.80
   6   2  -4   33.90    7.40
  -6   2   4   38.00    5.60
   6  -2  -4   22.50    7.10
  -6  -2   4   33.60    4.30
   6  -2  -4   38.40    7.50
   6  -2  -4   19.40    4.10
   6  -2  -4   39.10    4.80
  -6  -2   4   27.30    4.50
  -6  -2   4   24.00    4.60
   6  -2  -4   35.80    7.50
  -6  -2   4   37.90    7.20
   6  -2  -4   20.30    5.50
  -6  -2   4   35.90    6.20
  -6  -2   4   31.90    6.80
  -8   2   2  160.48   14.90
   8   2  -2  162.08   15.10
  -8   2   2  125.79   12.30
  -8   2   2  150.78   10.80
  -8   2   2  144.99   11.10
   8   2  -2  165.28   14.50
   8  -2  -2  168.08   15.00
  -8  -2   2  132.69   11.40
  -8  -2   2  164.28   14.90
  -8  -2   2  130.89   11.20
  -8  -2   2  131.89   12.40
  -8  -2   2  159.28   12.40
  -8  -2   2  152.78   10.60
   8  -2  -2  152.08   12.40
  -3   3   7 1415.16   78.19
   3   3  -7 1456.95   79.49
   3   3  -7 1519.55   77.69
   3   3  -7 1679.13   78.19
   3   3  -7 1532.35   77.89
   3   3  -7 1485.55   80.89
  -3   3   7 1490.65   77.89
   3   3  -7 1441.76   78.39
   3  -3  -7 1592.14   80.19
   3  -3  -7 1567.84   82.49
   3  -3  -7 1479.05   78.99
  -3  -3   7 1662.53   80.29
   3  -3  -7 1514.75   78.69
  -3  -3   7 1437.16   79.09
   3  -3  -7 1545.75   77.89
  -3  -3   7 1715.23   78.49
   3  -3  -7 1684.43   79.89
  -5   3   5  129.69   10.00
   5   3  -5  109.99    9.30
  -5   3   5  119.79    9.00
   5   3  -5  111.79    7.60
   5   3  -5  119.29    9.00
  -5   3   5  103.89    8.70
  -5  -3   5  114.09    8.50
   5  -3  -5  106.89    8.70
   5  -3  -5  136.29   11.10
  -5  -3   5  120.09   14.50
  -5  -3   5  125.39   10.40
  -5  -3   5  119.19    9.20
   5  -3  -5  113.19   12.40
   5  -3  -5  100.79    7.90
   5  -3  -5  108.19   10.90
  -5  -3   5  114.99    8.20
  -5  -3   5  110.69   11.80
   5  -3  -5  143.19   12.10
  -5  -3   5  135.39   11.10
   7   3  -3  133.39   16.10
   7   3  -3  115.09   12.70
  -7   3   3  157.78   12.50
  -7   3   3  148.49   12.80
  -7   3   3  153.28   11.70
   7  -3  -3  151.28   11.80
  -7  -3   3  141.89   10.30
  -7  -3   3  166.48   16.10
  -7  -3   3  132.69   12.80
  -7  -3   3  163.08   12.30
   7  -3  -3  124.49   13.10
  -7  -3   3  146.69   11.40
  -7  -3   3  157.58   12.00
  -4   4   6  536.95   28.60
   4   4  -6  532.35   31.00
   4   4  -6  586.34   28.70
  -4   4   6  521.05   29.50
   4   4  -6  540.85   26.50
   4   4  -6  552.64   33.10
  -4  -4   6  504.05   28.00
   4  -4  -6  489.45   30.40
   4  -4  -6  521.85   30.30
  -4  -4   6  541.85   31.60
   4  -4  -6  480.65   28.70
  -4  -4   6  500.35   30.60
  -2   0   9  268.17   16.30
   2   0  -9  249.88   15.60
   2   0  -9  267.17   16.10
   2   0  -9  256.17   17.00
  -2   0   9  260.87   17.30
   2   0  -9  257.57   16.60
  -2   0   9  269.27   16.20
   2   0  -9  279.07   17.40
   2   0  -9  244.58   16.80
  -2   0   9  266.67   16.80
   4   0  -7  408.06   21.90
   4   0  -7  374.46   22.00
  -4   0   7  409.46   21.70
  -4   0   7  419.06   23.20
  -4   0   7  416.56   22.60
   4   0  -7  384.66   22.70
   4   0  -7  396.76   22.60
  -4   0   7  398.06   22.00
   4   0  -7  397.86   22.40
   4   0  -7  416.36   21.40
   4   0  -7  422.36   22.50
  -4   0   7  431.16   22.70
  -6   0   5  964.20   50.19
   6   0  -5  957.10   50.69
   6   0  -5 1030.20   50.59
  -6   0   5  989.90   50.19
   6   0  -5 1042.50   50.59
  -6   0   5  966.20   51.19
  -6   0   5  968.40   50.49
   6   0  -5  986.50   50.39
   6   0  -5  998.20   51.29
  -6   0   5  992.40   49.90
   6   0  -5  995.20   50.39
  -6   0   5  951.30   50.69
  -8   0   3    5.70    5.00
  -8   0   3    4.50    2.80
  -8   0   3    8.20    3.80
   8   0  -3   11.20    6.80
  -8   0   3   32.80    6.70
   8   0  -3    5.40    4.00
   8   0  -3   10.00    5.60
   8   0  -3   25.50    7.90
  -8   0   3    5.40    5.60
  -8   0   3   21.80    7.80
   1   1 -10  623.94   36.50
   1   1 -10  666.03   37.90
  -1   1  10  638.64   36.20
   1   1 -10  704.33   36.40
   1   1 -10  687.93   38.30
   1   1 -10  721.73   37.90
   1   1 -10  649.64   36.10
  -1   1  10  611.34   36.50
  -1  -1  10  657.03   37.00
   1  -1 -10  698.33   37.80
  -1  -1  10  695.73   37.60
   1  -1 -10  632.84   36.50
  -1  -1  10  677.03   36.60
   1  -1 -10  699.23   37.30
   3   1  -8   14.50    4.90
   3   1  -8    4.30    4.70
   3   1  -8   10.20    5.10
  -3   1   8   -2.80    4.10
   3   1  -8    3.30    3.50
   3   1  -8    1.90    3.40
   3   1  -8    1.90    4.40
  -3   1   8    5.80    5.10
  -3   1   8    5.50    4.70
  -3   1   8   21.50    6.00
  -3   1   8    7.10    3.70
  -3  -1   8   13.80    6.20
   3  -1  -8   24.70    5.80
  -3  -1   8    3.70    5.00
   3  -1  -8   -1.30    3.20
  -3  -1   8   -2.80    6.20
   3  -1  -8    1.00    5.70
   3  -1  -8   -0.40    3.80
  -3  -1   8   -5.50    7.20
   3  -1  -8    5.50    4.80
   3  -1  -8    5.70    7.30
   3  -1  -8   37.00    6.30
   5   1  -6  960.10   49.00
   5   1  -6 1002.10   49.30
   5   1  -6  998.30   50.09
  -5   1   6  960.60   49.70
   5   1  -6  993.50   49.70
  -5   1   6  938.21   49.90
   5   1  -6  968.60   49.60
  -5   1   6  965.70   49.40
  -5   1   6  987.80   49.30
  -5   1   6 1000.20   50.19
   5   1  -6  961.50   49.90
  -5  -1   6  974.50   50.39
  -5  -1   6  982.60   49.80
   5  -1  -6  904.01   50.29
  -5  -1   6  991.20   49.30
   5  -1  -6  984.50   50.09
  -5  -1   6  962.90   51.19
   5  -1  -6  963.50   49.50
   5  -1  -6 1034.10   49.90
  -5  -1   6  946.61   49.80
   5  -1  -6  975.40   49.50
   5  -1  -6  950.60   50.69
  -5  -1   6 1014.50   49.99
   5  -1  -6  922.91   50.09
   7   1  -4  343.27   18.90
  -7   1   4  318.57   17.60
  -7   1   4  302.87   17.50
   7   1  -4  308.57   19.30
  -7   1   4  317.47   18.10
  -7   1   4  324.97   17.00
  -7   1   4  329.37   19.30
   7   1  -4  321.97   18.40
   7   1  -4  328.57   18.70
  -7  -1   4  316.27   18.40
   7  -1  -4  310.77   18.20
   7  -1  -4  303.67   19.20
  -7  -1   4  317.27   18.20
  -7  -1   4  342.47   18.20
  -7  -1   4  315.67   19.10
  -7  -1   4  343.07   17.40
   7  -1  -4  291.07   18.40
   7  -1  -4  299.67   18.20
   7  -1  -4  307.17   18.90
  -7  -1   4  315.57   18.00
   7  -1  -4  310.07   17.60
   7  -1  -4  309.57   18.30
  -9   1   2  183.48   17.00
  -9   1   2  183.38   13.60
   9   1  -2  177.98   15.30
  -9   1   2  154.18   12.20
  -9   1   2  224.88   13.90
   9   1  -2  164.88   15.50
  -9   1   2  193.28   15.60
   9  -1  -2  185.78   15.60
  -9  -1   2  188.68   15.00
  -9  -1   2  187.28   14.00
  -9  -1   2  187.78   14.50
  -9  -1   2  180.38   12.30
  -9  -1   2  176.48   13.80
   9  -1  -2  195.98   14.80
  -9  -1   2  189.78   17.00
   2   2  -9  211.88   14.70
   2   2  -9  240.78   15.80
   2   2  -9  224.08   17.00
  -2   2   9  170.78   13.60
   2   2  -9  226.28   16.40
   2   2  -9  188.98   14.20
  -2   2   9  209.58   14.90
   2   2  -9  187.58   15.10
  -2  -2   9  224.48   15.30
   2  -2  -9  243.48   15.50
   2  -2  -9  200.18   16.50
  -2  -2   9  217.68   16.10
  -2  -2   9  232.58   16.70
   2  -2  -9  216.48   17.00
  -2  -2   9  218.38   15.10
  -4   2   7  297.87   17.70
  -4   2   7  318.17   17.60
   4   2  -7  326.17   17.90
   4   2  -7  322.37   18.50
  -4   2   7  296.87   18.50
   4   2  -7  316.27   17.80
   4   2  -7  269.07   17.90
   4   2  -7  356.56   19.00
   4   2  -7  311.37   17.70
   4  -2  -7  324.27   20.80
   4  -2  -7  360.06   20.00
  -4  -2   7  313.77   18.80
  -4  -2   7  323.57   18.80
  -4  -2   7  290.17   18.20
   4  -2  -7  295.17   18.60
  -4  -2   7  297.07   20.10
   4  -2  -7  344.07   18.00
   4  -2  -7  335.17   20.10
   4  -2  -7  344.37   18.30
  -4  -2   7  315.37   20.20
   6   2  -5  773.42   39.00
  -6   2   5  731.13   38.60
   6   2  -5  696.93   38.40
  -6   2   5  751.52   37.80
   6   2  -5  757.92   39.40
   6   2  -5  761.42   38.30
  -6   2   5  753.62   38.90
  -6   2   5  727.03   38.90
   6   2  -5  829.92   37.90
   6  -2  -5  707.33   39.10
  -6  -2   5  749.73   38.50
  -6  -2   5  726.63   39.90
   6  -2  -5  722.53   40.60
   6  -2  -5  720.23   39.50
  -6  -2   5  767.42   40.90
   6  -2  -5  707.63   38.80
   6  -2  -5  642.24   38.90
  -6  -2   5  735.83   38.80
  -6  -2   5  754.02   37.90
   6  -2  -5  717.73   39.00
  -6  -2   5  747.73   38.30
  -8   2   3    1.60    4.70
   8   2  -3   -2.80    5.90
  -8   2   3    7.30    8.20
  -8   2   3    7.00    5.30
  -8   2   3    4.20    6.90
   8  -2  -3    6.20    6.20
  -8  -2   3    2.60    5.70
  -8  -2   3   25.70    7.40
  -8  -2   3   -3.70    7.00
   8  -2  -3   -1.70    8.80
  -8  -2   3    7.60    9.10
  -8  -2   3    7.10    4.70
  -8  -2   3    6.20    5.50
   3   3  -8   -0.40    5.40
  -3   3   8    2.50    5.70
  -3   3   8    1.10    4.90
   3   3  -8    2.30    5.10
   3   3  -8    6.40    8.00
   3   3  -8   14.20    7.40
  -3  -3   8    2.80    8.60
  -3  -3   8    0.30    7.40
  -3  -3   8    8.10    7.80
   3  -3  -8   16.50    8.60
   3  -3  -8   14.30   12.40
   3  -3  -8    8.50    7.50
   5   3  -6  569.14   30.00
   5   3  -6  610.54   29.90
  -5   3   6  559.24   29.70
   5   3  -6  472.95   29.10
  -5   3   6  582.64   30.70
  -5  -3   6  541.05   29.40
   5  -3  -6  544.35   29.50
   5  -3  -6  542.15   31.00
   5  -3  -6  578.54   31.60
  -5  -3   6  568.24   31.00
  -5  -3   6  604.04   30.10
  -5  -3   6  559.34   34.00
  -5  -3   6  588.84   32.70
  -5  -3   6  565.04   31.00
   7   3  -4  167.28   14.10
  -7   3   4  176.08   13.90
   7   3  -4  180.38   11.20
  -7   3   4  189.48   13.60
  -7   3   4  174.88   13.50
  -7  -3   4  188.28   15.80
  -7  -3   4  190.08   18.00
   7  -3  -4  161.18   14.60
  -7  -3   4  185.18   12.90
   7  -3  -4  185.48   12.80
  -7  -3   4  193.38   13.90
  -7  -3   4  182.78   11.90
  -7  -3   4  195.78   13.90
   2   0 -10   19.70    5.80
  -2   0  10   25.20    7.10
   2   0 -10   27.20    7.60
  -2   0  10   23.70    8.20
  -2   0  10   18.90    6.60
   2   0 -10   19.70    7.40
   2   0 -10   58.89    9.70
   2   0 -10   33.70    6.80
   2   0 -10   41.10    9.50
   4   0  -8  216.78   13.90
   4   0  -8  214.48   14.90
  -4   0   8  231.38   14.00
   4   0  -8  214.48   13.80
  -4   0   8  239.48   13.80
   4   0  -8  222.48   14.60
   4   0  -8  235.38   14.60
   4   0  -8  220.68   14.50
  -4   0   8  226.88   15.40
  -4   0   8  236.78   14.80
   6   0  -6  151.68    9.90
   6   0  -6  136.19   10.40
   6   0  -6  145.89   10.40
  -6   0   6  131.09    9.00
  -6   0   6  138.39   10.70
  -6   0   6  142.09   10.30
   6   0  -6  150.18    9.70
  -6   0   6  134.49    9.50
   6   0  -6  146.99   11.50
  -6   0   6  152.38   11.50
   6   0  -6  148.09   10.10
  -6   0   6  138.69    9.60
   8   0  -4 1551.64   79.49
   8   0  -4 1622.64   78.99
   8   0  -4 1579.64   78.89
  -8   0   4 1506.45   79.29
  -8   0   4 1621.84   80.19
  -8   0   4 1508.05   78.09
  -8   0   4 1549.05   78.69
  -8   0   4 1487.15   78.79
   3   1  -9  153.78   12.60
  -3   1   9  171.98   12.20
  -3   1   9  173.18   13.30
   3   1  -9  186.18   14.20
  -3   1   9  181.38   12.30
  -3   1   9  191.58   13.40
   3   1  -9  183.08   13.50
   3   1  -9  161.78   11.50
   3   1  -9  217.48   14.80
  -3  -1   9  167.08   12.00
  -3  -1   9  189.18   12.70
   3  -1  -9  181.38   13.10
   3  -1  -9  207.78   13.20
   3  -1  -9  172.48   14.00
  -3  -1   9  193.98   14.40
   3  -1  -9  133.39   12.80
   3  -1  -9  179.38   14.00
  -5   1   7   32.80    4.70
   5   1  -7   33.20    5.20
  -5   1   7   43.10    6.60
  -5   1   7   24.70    5.80
   5   1  -7   38.00    5.30
   5   1  -7   34.20    5.40
   5   1  -7   20.90    4.10
  -5   1   7   37.70    5.60
  -5   1   7   38.10    5.70
   5   1  -7   41.80    4.50
  -5  -1   7   39.40    6.50
   5  -1  -7   30.10    5.50
  -5  -1   7   29.90    8.00
   5  -1  -7   20.80    4.50
  -5  -1   7   22.60    6.70
   5  -1  -7   30.70    5.10
  -5  -1   7   36.40    6.40
  -5  -1   7   45.50    4.30
   5  -1  -7   37.50    5.50
   5  -1  -7   40.40    5.70
   5  -1  -7   28.90    6.30
  -5  -1   7   30.10    5.40
   5  -1  -7   30.40    6.70
   7   1  -5  858.41   42.80
  -7   1   5  815.62   41.80
  -7   1   5  810.62   42.70
   7   1  -5  859.51   42.40
  -7   1   5  819.02   42.10
   7   1  -5  851.41   43.50
   7   1  -5  896.31   42.80
  -7   1   5  792.32   42.10
  -7   1   5  866.81   43.60
   7   1  -5  870.41   42.80
   7  -1  -5  806.82   42.90
   7  -1  -5  817.32   42.80
   7  -1  -5  765.92   43.60
  -7  -1   5  814.62   44.10
  -7  -1   5  801.72   41.90
   7  -1  -5  812.82   42.90
   7  -1  -5  797.02   42.70
   7  -1  -5  761.42   42.80
  -7  -1   5  799.62   42.30
  -7  -1   5  800.12   42.60
  -7  -1   5  803.42   43.40
  -9   1   3 1327.17   69.49
  -9   1   3 1292.57   71.29
   9   1  -3 1383.26   71.09
  -9   1   3 1396.06   70.59
  -9   1   3 1348.27   68.59
  -9   1   3 1335.47   69.49
  -9  -1   3 1376.76   70.49
  -9  -1   3 1363.96   68.99
   9  -1  -3 1341.67   69.69
  -9  -1   3 1389.46   70.09
   9  -1  -3 1362.36   70.79
  -9  -1   3 1325.47   69.49
   9  -1  -3 1391.16   69.79
  -9  -1   3 1380.76   71.49
   2   2 -10   13.10    7.00
   2   2 -10   21.80    7.80
  -2   2  10   18.70    7.00
  -2   2  10   14.30    7.90
   2   2 -10   39.70    9.60
   2   2 -10   33.70   11.00
   2   2 -10   23.90    8.00
   2  -2 -10   14.20    8.00
  -2  -2  10   10.40    8.30
   2  -2 -10   16.50    8.90
  -2  -2  10   10.10    7.50
  -2  -2  10    8.30    8.40
  -4   2   8  187.38   12.30
   4   2  -8  175.78   13.10
   4   2  -8  179.48   12.20
   4   2  -8  193.98   12.30
  -4   2   8  190.98   13.10
   4   2  -8  157.78   12.70
   4  -2  -8  192.18   12.90
   4  -2  -8  178.98   13.00
  -4  -2   8  173.38   12.30
  -4  -2   8  173.58   13.60
  -4  -2   8  184.58   16.60
   4  -2  -8  177.08   15.60
  -4  -2   8  187.18   15.00
   4  -2  -8  186.08   14.50
  -6   2   6   99.79    9.00
   6   2  -6  113.19    8.40
   6   2  -6  112.29    9.70
  -6   2   6  115.69    9.60
   6   2  -6  109.69    8.20
   6   2  -6  123.59    9.10
  -6   2   6  129.49    9.70
   6  -2  -6  111.49   10.50
   6  -2  -6   74.99    8.00
  -6  -2   6  137.89   13.60
  -6  -2   6  122.99    8.40
  -6  -2   6  123.99   10.40
  -6  -2   6   96.39   11.10
   6  -2  -6  129.59   10.60
   6  -2  -6   93.39   10.00
   6  -2  -6   94.59   10.00
  -6  -2   6  108.59    8.60
  -6  -2   6  123.79   10.00
  -8   2   4 1165.08   62.69
  -8   2   4 1177.68   60.79
  -8   2   4 1201.28   60.99
   8   2  -4 1189.68   62.19
  -8   2   4 1215.58   61.89
   8  -2  -4 1120.19   60.99
  -8  -2   4 1242.88   61.49
  -8  -2   4 1234.28   60.89
  -8  -2   4 1243.68   63.79
  -8  -2   4 1212.58   61.89
   8  -2  -4 1187.08   62.89
  -8  -2   4 1169.48   61.29
  -8  -2   4 1194.18   62.69
   3   3  -9  145.49   15.10
  -3   3   9  100.19   10.30
  -3   3   9  121.29   10.60
   3   3  -9  112.09   10.40
   3   3  -9  135.19   16.50
  -3  -3   9  102.79   12.90
  -3  -3   9  111.99   12.60
   3  -3  -9  121.39   12.60
   3  -3  -9  131.69   11.40
  -3  -3   9  133.79   13.70
   3  -3  -9  116.69   13.30
  -5   3   7   20.60    5.30
  -5   3   7   21.80    7.10
   5   3  -7   24.00    5.70
   5   3  -7   14.70    4.60
   5   3  -7   20.40    6.10
   5   3  -7   41.30   10.00
   5  -3  -7   20.40    8.30
  -5  -3   7   20.70    6.70
  -5  -3   7   23.30    5.10
  -5  -3   7   28.50    9.60
  -5  -3   7   22.10    7.60
   5  -3  -7   20.50    8.50
  -5  -3   7   21.80    8.20
  -5  -3   7   36.00   11.90
  -7   3   5  510.05   28.90
  -7   3   5  524.65   28.70
  -7   3   5  514.85   28.80
   7   3  -5  524.05   27.10
   7   3  -5  509.95   28.60
   7  -3  -5  510.65   30.70
  -7  -3   5  504.85   27.60
  -7  -3   5  503.05   32.30
   7  -3  -5  512.45   27.90
  -7  -3   5  531.85   29.10
  -7  -3   5  501.25   28.20
  -7  -3   5  551.24   29.30
  -7  -3   5  469.25   30.40
  -4   0   9   -2.00    4.20
  -4   0   9   -0.60    6.60
   4   0  -9   10.10    6.90
  -4   0   9    1.90    4.90
   4   0  -9   10.80    5.70
   4   0  -9   10.10    6.20
   4   0  -9    4.30    5.50
  -4   0   9    1.50    7.20
   4   0  -9   10.30    5.40
  -6   0   7  886.01   46.40
   6   0  -7  933.41   45.50
   6   0  -7  912.61   45.50
   6   0  -7  874.61   46.70
  -6   0   7  920.41   46.20
   6   0  -7  882.11   45.90
  -6   0   7  829.02   45.60
  -6   0   7  887.41   45.50
  -6   0   7  859.01   46.90
   6   0  -7  870.31   46.10
  -8   0   5  767.62   39.30
  -8   0   5  728.33   38.10
   8   0  -5  747.53   38.40
  -8   0   5  725.23   37.20
  -8   0   5  713.13   38.00
  -8   0   5  712.63   38.90
   8   0  -5  724.53   38.40
   8   0  -5  654.93   38.30
   8   0  -5  735.03   38.80
  -3   1  10  204.48   14.10
   3   1 -10  177.38   14.60
  -3   1  10  193.48   15.10
   3   1 -10  207.98   16.70
   3   1 -10  211.08   15.70
   3   1 -10  208.58   16.50
   3   1 -10  198.78   14.50
  -3  -1  10  206.38   16.30
  -3  -1  10  223.58   15.70
   3  -1 -10  222.98   15.10
  -3  -1  10  224.08   15.30
   3  -1 -10  220.38   15.20
   3  -1 -10  190.28   15.80
   3  -1 -10  206.48   15.80
   5   1  -8  225.38   14.80
   5   1  -8  240.48   14.30
   5   1  -8  224.58   14.70
   5   1  -8  228.78   14.10
  -5   1   8  239.38   15.30
  -5   1   8  232.38   15.20
   5   1  -8  255.17   15.90
  -5   1   8  228.78   13.80
  -5   1   8  243.58   14.80
  -5  -1   8  223.78   15.00
   5  -1  -8  250.47   14.90
   5  -1  -8  214.98   16.40
   5  -1  -8  210.08   15.60
  -5  -1   8  254.17   15.70
  -5  -1   8  251.47   17.40
   5  -1  -8  202.88   14.20
   5  -1  -8  219.78   15.30
  -5  -1   8  232.68   15.00
   5  -1  -8  242.18   14.50
  -5  -1   8  237.18   14.80
   7   1  -6 1156.68   55.39
  -7   1   6 1092.89   56.39
  -7   1   6 1076.89   55.99
   7   1  -6 1102.89   55.49
   7   1  -6 1134.99   56.49
  -7   1   6 1084.49   55.09
   7   1  -6 1080.09   55.49
  -7   1   6 1039.30   54.79
  -7   1   6 1013.60   55.79
  -7   1   6 1053.89   55.19
   7  -1  -6 1038.20   55.49
   7  -1  -6 1086.49   55.79
  -7  -1   6 1083.59   56.49
  -7  -1   6 1066.09   55.59
   7  -1  -6 1034.10   56.69
  -7  -1   6 1096.79   54.89
   7  -1  -6 1099.39   56.09
  -7  -1   6 1056.79   57.19
   7  -1  -6 1098.69   55.99
   7  -1  -6 1160.98   55.09
  -7  -1   6 1049.70   55.59
   7  -1  -6 1088.99   56.29
   9   1  -4  166.58   12.60
   9   1  -4  174.08   15.10
  -9   1   4  180.08   12.80
  -9   1   4  189.68   16.10
  -9   1   4  172.08   12.70
  -9   1   4  190.28   14.90
  -9   1   4  188.88   11.50
  -9  -1   4  169.28   11.90
  -9  -1   4  184.18   15.10
  -9  -1   4  182.88   13.40
  -9  -1   4  174.78   13.70
  -9  -1   4  179.28   14.50
  -9  -1   4  178.58   12.30
   9  -1  -4  180.38   15.70
   9  -1  -4  191.98   14.10
  -4   2   9   -0.50    6.60
   4   2  -9    5.20    5.30
   4   2  -9   10.70    4.60
   4   2  -9    7.80    6.30
   4   2  -9   17.20    9.00
   4   2  -9   15.60    9.40
  -4  -2   9   -1.90   10.30
   4  -2  -9   -9.40    6.30
   4  -2  -9    7.20    7.30
   4  -2  -9    3.30    7.50
  -4  -2   9    8.20    6.80
  -4  -2   9   -1.60    5.80
  -4  -2   9   -4.90    7.30
   6   2  -7  693.33   36.50
  -6   2   7  702.83   37.20
   6   2  -7  703.73   36.80
  -6   2   7  696.73   36.80
  -6   2   7  684.93   37.00
   6   2  -7  703.93   37.00
   6  -2  -7  686.53   37.00
   6  -2  -7  727.33   37.60
  -6  -2   7  723.73   39.00
   6  -2  -7  688.73   36.60
  -6  -2   7  686.33   35.90
  -6  -2   7  671.73   36.80
  -6  -2   7  779.62   37.10
  -6  -2   7  631.24   38.30
  -6  -2   7  688.93   37.30
   6  -2  -7  630.14   37.60
  -8   2   5  572.84   33.40
   8   2  -5  621.44   31.70
  -8   2   5  599.44   31.50
   8   2  -5  617.24   32.80
  -8   2   5  586.04   33.00
  -8  -2   5  608.84   35.10
   8  -2  -5  594.04   33.90
  -8  -2   5  586.94   31.50
  -8  -2   5  587.84   33.90
  -8  -2   5  610.54   32.30
  -8  -2   5  596.34   32.60
  -8  -2   5  583.04   32.20
   8  -2  -5  570.84   32.90
   5   3  -8  174.98   12.70
  -5   3   8  167.48   12.50
   5   3  -8  188.38   12.80
   5   3  -8  148.29   12.50
   5   3  -8  208.98   16.20
  -5  -3   8  185.78   14.70
  -5  -3   8  166.18   14.00
   5  -3  -8  178.18   15.00
  -5  -3   8  172.18   18.80
   5  -3  -8  150.38   14.10
  -5  -3   8  167.88   13.00
   7   3  -6  878.31   39.70
  -7   3   6  710.93   39.30
  -7   3   6  715.63   39.70
  -7   3   6  719.03   39.40
  -7  -3   6  746.63   40.10
  -7  -3   6  712.23   43.10
  -7  -3   6  703.63   38.40
  -7  -3   6  727.33   39.90
   7  -3  -6  712.03   41.00
  -7  -3   6  729.03   41.60
   4   0 -10 1097.49   59.89
   4   0 -10 1104.19   59.19
  -4   0  10 1155.08   59.29
  -4   0  10 1186.08   59.79
   4   0 -10 1128.39   59.89
   4   0 -10 1053.89   59.99
  -4   0  10 1260.17   59.89
  -4   0  10 1195.58   60.79
  -6   0   8 1367.46   74.29
   6   0  -8 1397.26   74.69
  -6   0   8 1470.75   75.59
   6   0  -8 1450.95   74.69
   6   0  -8 1453.15   74.09
  -6   0   8 1602.04   74.99
   6   0  -8 1418.36   75.19
  -6   0   8 1494.35   74.99
  -6   0   8 1508.95   74.19
   8   0  -6   81.29    9.60
   8   0  -6   83.49    9.00
   8   0  -6   86.49    8.50
  -8   0   6   79.79    7.50
  -8   0   6   99.09    7.70
  -8   0   6  109.19    9.40
  -8   0   6   96.89    9.00
  -8   0   6  104.49   11.90
   8   0  -6  107.99   10.80
   5   1  -9 1527.05   79.19
  -5   1   9 1630.84   79.19
   5   1  -9 1583.94   80.39
  -5   1   9 1619.44   79.99
  -5   1   9 1561.24   80.09
   5   1  -9 1541.25   79.59
   5   1  -9 1432.46   79.69
  -5   1   9 1673.53   79.69
   5  -1  -9 1430.96   79.19
  -5  -1   9 1754.12   80.49
  -5  -1   9 1601.54   80.59
  -5  -1   9 1659.53   81.69
  -5  -1   9 1615.94   79.79
   5  -1  -9 1475.35   79.89
   5  -1  -9 1504.45   79.49
   5  -1  -9 1490.65   81.39
   5  -1  -9 1455.25   80.09
  -7   1   7  601.14   34.20
   7   1  -7  609.34   34.10
  -7   1   7  609.94   32.60
  -7   1   7  648.34   33.80
   7   1  -7  663.63   33.40
  -7   1   7  648.94   33.80
   7   1  -7  625.34   33.10
  -7   1   7  590.84   32.70
   7   1  -7  655.03   33.00
  -7  -1   7  635.74   34.60
   7  -1  -7  616.44   33.50
  -7  -1   7  612.24   33.50
  -7  -1   7  613.14   33.30
   7  -1  -7  574.74   33.50
   7  -1  -7  651.73   33.70
  -7  -1   7  644.24   34.90
  -7  -1   7  593.74   32.60
  -9   1   5   16.30    9.50
  -9  -1   5   22.80   10.10
   6   2  -8 1107.19   59.59
   6   2  -8 1206.18   59.79
  -6   2   8 1120.99   60.09
   6   2  -8 1208.88   59.49
  -6   2   8 1173.88   59.69
  -6   2   8 1095.99   59.79
  -6  -2   8 1137.79   60.29
  -6  -2   8 1195.88   62.69
  -6  -2   8 1151.48   59.89
  -6  -2   8 1134.49   60.99
   6  -2  -8 1090.49   59.29
   6  -2  -8 1137.59   60.39
   6  -2  -8 1156.38   60.09
  -6  -2   8 1326.77   60.39
   8   2  -6   74.49    8.10
  -8   2   6   85.49    7.40
   8   2  -6   80.29    9.10
  -8   2   6   78.59    8.40
  -8   2   6   92.49   11.00
   8   2  -6   86.19    9.30
  -8  -2   6   72.69   13.00
   8  -2  -6   78.99   10.80
  -8  -2   6   65.79   10.90
  -8  -2   6  100.29   10.60
  -8  -2   6   66.29    7.30
   8  -2  -6   66.79   10.70
  -8  -2   6   70.49    9.10
  -6   0   9    4.00    6.70
  -6   0   9    7.40    5.20
   6   0  -9    4.40    5.60
  -6   0   9    8.20    8.30
   6   0  -9    5.20    5.80
  -6   0   9    4.20    7.00
   6   0  -9   15.70    7.40
   6   0  -9   -3.30    6.30
  -8   0   7  424.76   24.20
   8   0  -7  453.65   24.90
   8   0  -7  432.86   24.80
  -8   0   7  427.66   24.40
  -8   0   7  427.96   25.60
  -8   0   7  424.86   23.60
   8   0  -7  448.26   25.20
  -8   0   7  445.26   26.70
   5   1 -10  141.89   12.10
  -5   1  10  180.38   13.90
   5   1 -10  122.79   12.30
  -5   1  10  178.78   13.10
   5   1 -10  153.78   13.60
   5   1 -10  178.88   15.20
  -5  -1  10  173.48   12.70
  -5  -1  10  168.28   14.20
   5  -1 -10  134.09   13.30
   5  -1 -10  161.98   12.60
  -5  -1  10  149.99   12.70
  -5  -1  10  182.18   16.90
  -7   1   8  178.28   12.30
   7   1  -8  184.68   12.60
   7   1  -8  194.78   12.50
  -7   1   8  180.78   14.20
  -7   1   8  179.28   13.90
  -7   1   8  174.18   12.50
  -7   1   8  176.08   13.70
   7   1  -8  177.58   13.00
  -7  -1   8  197.18   14.80
   7  -1  -8  172.68   14.10
  -7  -1   8  186.88   13.40
   7  -1  -8  197.48   12.70
  -7  -1   8  177.58   12.00
  -7  -1   8  196.28   13.30
  -7  -1   8  190.38   16.40
   7  -1  -8  186.58   13.60
   7  -1  -8  163.98   14.00
  -7  -1   8  171.38   14.60
   6   2  -9   24.60    9.80
   6   2  -9    0.30    6.50
   6   2  -9   -2.10    6.00
  -6   2   9    9.30    6.20
  -6   2   9   11.50    7.60
  -6  -2   9   12.00    7.40
   6  -2  -9    0.00    7.40
  -6  -2   9    5.60   11.00
  -6  -2   9    4.80    8.70
   6  -2  -9    3.30    7.20
  -6  -2   9   15.70    8.10
   6  -2  -9   -5.20    8.30
   6   0 -10   85.29   10.30
   6   0 -10  139.99   12.50
  -6   0  10  124.69   11.50
  -6   0  10  119.09   13.30
   6   0 -10   76.09    9.50
  -6   0  10  128.69   11.70
   6   0 -10   84.09    9.60
  -6   0  10   96.69    9.60
  -8   0   8   18.40    7.80
  -8   0   8   27.80    9.90
  -8   0   8   10.20    5.70
   8   0  -8   11.50    6.40
   8   0  -8    7.90    7.10
   8   0  -8    8.90    5.90
   8   0  -8   16.70    6.90
  -8   0   8   26.40    7.10
   0   0   0    0.00    0.00

_computing_structure_solution     'SHELXT 2014/5 (Sheldrick, 2014)'
;
_shelx_hkl_checksum              9342
_olex2_submission_special_instructions 'No special instructions were received'
loop_
_space_group_symop_operation_xyz
'x, y, z'
'-x, y, -z'
'x+1/2, y+1/2, z'
'-x+1/2, y+1/2, -z'
'-x, -y, -z'
'x, -y, z'
'-x+1/2, -y+1/2, -z'
'x+1/2, -y+1/2, z'
loop_
_atom_site_label
_atom_site_type_symbol
_atom_site_fract_x
_atom_site_fract_y
_atom_site_fract_z
_atom_site_U_iso_or_equiv
_atom_site_adp_type
_atom_site_occupancy
_atom_site_site_symmetry_order
_atom_site_calc_flag
_atom_site_refinement_flags_posn
_atom_site_refinement_flags_adp
_atom_site_refinement_flags_occupancy
_atom_site_disorder_assembly
_atom_site_disorder_group
Se1 Se 0.77273(5) 1.0000 0.81831(4) 0.00699(15) Uani 1 2 d S T P . .
Cr1 Cr 0.5000 1.0000 1.0000 0.00622(18) Uani 1 4 d S T P . .
K1 K 0.5000 0.5000 0.5000 0.0144(2) Uani 1 4 d S T P . .
loop_
_atom_site_aniso_label
_atom_site_aniso_U_11
_atom_site_aniso_U_22
_atom_site_aniso_U_33
_atom_site_aniso_U_23
_atom_site_aniso_U_13
_atom_site_aniso_U_12
Se1 0.00640(19) 0.00741(19) 0.0062(2) 0.000 0.00027(12) 0.000
Cr1 0.0055(3) 0.0061(3) 0.0061(4) 0.000 0.0000(3) 0.000
K1 0.0144(5) 0.0161(5) 0.0115(5) 0.000 0.0017(4) 0.000
loop_
_atom_type_symbol
_atom_type_description
_atom_type_scat_dispersion_real
_atom_type_scat_dispersion_imag
_atom_type_scat_source
Cr Cr 0.3209 0.6236 'International Tables Vol C Tables 4.2.6.8 and 6.1.1.4'
K K 0.2009 0.2494 'International Tables Vol C Tables 4.2.6.8 and 6.1.1.4'
Se Se -0.0929 2.2259 'International Tables Vol C Tables 4.2.6.8 and 6.1.1.4'
loop_
_geom_angle_atom_site_label_1
_geom_angle_atom_site_label_2
_geom_angle_atom_site_label_3
_geom_angle
_geom_angle_site_symmetry_1
_geom_angle_site_symmetry_3
_geom_angle_publ_flag
Cr1 Se1 Cr1 95.236(11) 3 3_545 ?
Cr1 Se1 Cr1 95.241(9) 3 . ?
Cr1 Se1 Cr1 95.241(9) 3_545 . ?
Cr1 Se1 K1 164.466(11) 3_545 1_565 ?
Cr1 Se1 K1 164.481(13) . 3 ?
Cr1 Se1 K1 95.202(8) 3 3 ?
Cr1 Se1 K1 95.221(8) . 1_565 ?
Cr1 Se1 K1 164.466(11) 3 . ?
Cr1 Se1 K1 95.202(8) 3_545 3 ?
Cr1 Se1 K1 95.208(3) 3_545 . ?
Cr1 Se1 K1 95.221(8) . . ?
Cr1 Se1 K1 95.208(3) 3 1_565 ?
K1 Se1 K1 72.411(7) . 3 ?
K1 Se1 K1 72.417(7) . 1_565 ?
K1 Se1 K1 72.411(7) 1_565 3 ?
Se1 Cr1 Se1 180.0 7_677 3_445 ?
Se1 Cr1 Se1 84.758(9) 3_455 5_677 ?
Se1 Cr1 Se1 95.242(9) 3_455 . ?
Se1 Cr1 Se1 95.236(11) 7_677 7_667 ?
Se1 Cr1 Se1 95.242(9) 3_445 . ?
Se1 Cr1 Se1 84.764(11) 3_445 7_667 ?
Se1 Cr1 Se1 95.242(9) 7_667 5_677 ?
Se1 Cr1 Se1 84.764(11) 7_677 3_455 ?
Se1 Cr1 Se1 84.758(9) 7_677 . ?
Se1 Cr1 Se1 95.236(11) 3_445 3_455 ?
Se1 Cr1 Se1 84.758(9) 7_667 . ?
Se1 Cr1 Se1 180.0 7_667 3_455 ?
Se1 Cr1 Se1 180.000(14) 5_677 . ?
Se1 Cr1 Se1 84.758(9) 3_445 5_677 ?
Se1 Cr1 Se1 95.242(9) 7_677 5_677 ?
Se1 K1 Se1 180.0 . 5_666 ?
Se1 K1 Se1 72.411(7) 5_676 7_666 ?
Se1 K1 Se1 72.411(7) 1_545 3_445 ?
Se1 K1 Se1 107.583(7) . 5_676 ?
Se1 K1 Se1 107.589(7) 5_666 3_445 ?
Se1 K1 Se1 72.416(7) 5_666 5_676 ?
Se1 K1 Se1 72.411(7) 5_666 7_666 ?
Se1 K1 Se1 72.417(7) . 1_545 ?
Se1 K1 Se1 72.411(7) . 3_445 ?
Se1 K1 Se1 107.584(7) 5_666 1_545 ?
Se1 K1 Se1 107.589(7) 5_676 3_445 ?
Se1 K1 Se1 180.0 5_676 1_545 ?
Se1 K1 Se1 180.0 7_666 3_445 ?
Se1 K1 Se1 107.589(7) . 7_666 ?
Se1 K1 Se1 107.589(7) 1_545 7_666 ?
Se1 K1 K1 53.792(4) . 1_565 ?
Se1 K1 K1 126.194(6) 1_545 3_455 ?
Se1 K1 K1 89.991(5) 5_666 3_545 ?
Se1 K1 K1 126.208(4) 5_666 1_565 ?
Se1 K1 K1 89.991(5) 1_545 3_445 ?
Se1 K1 K1 126.208(4) 1_545 1_565 ?
Se1 K1 K1 126.216(5) 3_445 3_545 ?
Se1 K1 K1 90.0 7_666 1_565 ?
Se1 K1 K1 53.806(6) 5_666 3_445 ?
Se1 K1 K1 90.0 3_445 1_565 ?
Se1 K1 K1 53.784(5) 3_445 3_445 ?
Se1 K1 K1 126.208(4) . 1_545 ?
Se1 K1 K1 53.806(6) 1_545 3_545 ?
Se1 K1 K1 53.792(4) 5_666 1_545 ?
Se1 K1 K1 90.009(5) 5_666 3_455 ?
Se1 K1 K1 126.208(4) 5_676 1_545 ?
Se1 K1 K1 53.784(5) 3_445 3_455 ?
Se1 K1 K1 53.792(4) 1_545 1_545 ?
Se1 K1 K1 90.009(5) 5_676 3_445 ?
Se1 K1 K1 90.0 7_666 1_545 ?
Se1 K1 K1 126.216(5) 7_666 3_445 ?
Se1 K1 K1 90.0 3_445 1_545 ?
Se1 K1 K1 90.009(5) . 3_545 ?
Se1 K1 K1 53.805(6) . 3 ?
Se1 K1 K1 126.194(6) 5_676 3_545 ?
Se1 K1 K1 126.194(6) 5_666 3 ?
Se1 K1 K1 53.784(5) 7_666 3_545 ?
Se1 K1 K1 89.991(5) 5_676 3 ?
Se1 K1 K1 89.991(5) . 3_455 ?
Se1 K1 K1 90.009(5) 1_545 3 ?
Se1 K1 K1 53.806(6) 5_676 3_455 ?
Se1 K1 K1 53.784(5) 7_666 3 ?
Se1 K1 K1 126.216(5) 7_666 3_455 ?
Se1 K1 K1 126.216(5) 3_445 3 ?
Se1 K1 K1 126.195(6) . 3_445 ?
Se1 K1 K1 53.792(4) 5_676 1_565 ?
K1 K1 K1 119.998(1) 1_565 3_545 ?
K1 K1 K1 180.0 1_565 1_545 ?
K1 K1 K1 120.005(2) 3 3_455 ?
K1 K1 K1 60.002(1) 1_545 3_545 ?
K1 K1 K1 60.002(1) 1_565 3_455 ?
K1 K1 K1 59.995(2) 3 3_545 ?
K1 K1 K1 60.002(1) 1_545 3_445 ?
K1 K1 K1 120.005(2) 3_445 3_545 ?
K1 K1 K1 119.998(1) 1_565 3_445 ?
K1 K1 K1 180.0 3 3_445 ?
K1 K1 K1 119.998(1) 1_545 3_455 ?
K1 K1 K1 60.002(1) 1_565 3 ?
K1 K1 K1 59.995(2) 3_445 3_455 ?
K1 K1 K1 119.998(1) 1_545 3 ?
K1 K1 K1 180.0 3_545 3_455 ?
loop_
_geom_bond_atom_site_label_1
_geom_bond_atom_site_label_2
_geom_bond_distance
_geom_bond_site_symmetry_2
_geom_bond_publ_flag
Se1 Cr1 2.5730(2) 3 ?
Se1 Cr1 2.5730(2) 3_545 ?
Se1 Cr1 2.5732(3) . ?
Se1 K1 3.2174(3) . ?
Se1 K1 3.2183(3) 3 ?
Se1 K1 3.2174(3) 1_565 ?
Cr1 Se1 2.5730(2) 7_677 ?
Cr1 Se1 2.5730(2) 7_667 ?
Cr1 Se1 2.5730(2) 3_455 ?
Cr1 Se1 2.5730(2) 3_445 ?
Cr1 Se1 2.5731(3) 5_677 ?
K1 Se1 3.2174(3) 5_666 ?
K1 Se1 3.2174(3) 1_545 ?
K1 Se1 3.2183(3) 7_666 ?
K1 Se1 3.2174(3) 5_676 ?
K1 Se1 3.2183(3) 3_445 ?
K1 K1 3.80147(9) 3_455 ?
K1 K1 3.80147(9) 3_545 ?
K1 K1 3.80147(9) 3_445 ?
K1 K1 3.80120(10) 1_545 ?
K1 K1 3.80147(9) 3 ?
K1 K1 3.80120(10) 1_565 ?
