#------------------------------------------------------------------------------
#$Date: 2021-07-13 01:37:19 +0300 (Tue, 13 Jul 2021) $
#$Revision: 267473 $
#$URL: file:///home/coder/svn-repositories/cod/cif/4/00/40/4004001.cif $
#------------------------------------------------------------------------------
#
# This file is available in the Crystallography Open Database (COD),
# http://www.crystallography.net/
#
# All data on this site have been placed in the public domain by the
# contributors.
#
data_4004001
loop_
_publ_author_name
'Laing, Craig C.'
'Shen, Jiahong'
'Chica, Daniel G.'
'Cuthriell, Shelby A.'
'Schaller, Richard D.'
'Wolverton, Chris'
'Kanatzidis, Mercouri G.'
_publ_section_title
;
 Photoluminescent Re6Q8I2 (Q = S, Se) Semiconducting Cluster Compounds
;
_journal_name_full               'Chemistry of Materials'
_journal_paper_doi               10.1021/acs.chemmater.1c01696
_journal_year                    2021
_chemical_formula_moiety         '0.5(I4 Re12 Se16)'
_chemical_formula_sum            'I2 Re6 Se8'
_chemical_formula_weight         2002.68
_space_group_crystal_system      monoclinic
_space_group_IT_number           14
_space_group_name_Hall           '-P 2yn'
_space_group_name_H-M_alt        'P 1 21/n 1'
_atom_sites_solution_primary     dual
_audit_creation_date             2021-05-05
_audit_creation_method
;
Olex2 1.2
(compiled 2018.05.29 svn.r3508 for OlexSys, GUI svn.r5506)
;
_cell_angle_alpha                90
_cell_angle_beta                 99.63(3)
_cell_angle_gamma                90
_cell_formula_units_Z            2
_cell_length_a                   6.5735(13)
_cell_length_b                   12.029(2)
_cell_length_c                   10.402(2)
_cell_measurement_reflns_used    12470
_cell_measurement_temperature    293
_cell_measurement_theta_max      32.08
_cell_measurement_theta_min      2.06
_cell_volume                     810.9(3)
_computing_molecular_graphics    'Olex2 (Dolomanov et al., 2009)'
_computing_publication_material  'Olex2 (Dolomanov et al., 2009)'
_computing_structure_refinement  'ShelXL (Sheldrick, 2015)'
_computing_structure_solution    'ShelXT (Sheldrick, 2015)'
_diffrn_ambient_temperature      293
_diffrn_detector                 'Pilatus300K CdTe'
_diffrn_detector_area_resol_mean 5.81
_diffrn_measured_fraction_theta_full 0.987
_diffrn_measured_fraction_theta_max 0.992
_diffrn_measurement_device       'Eulerian 4-circle diffractometer'
_diffrn_measurement_device_type  'STOE STADIVARI'
_diffrn_measurement_method       'rotation method, \w scans'
_diffrn_radiation_monochromator  'Graded multilayer mirror'
_diffrn_radiation_polarisn_norm  180
_diffrn_radiation_probe          x-ray
_diffrn_radiation_type           AgK\a
_diffrn_radiation_wavelength     0.56083
_diffrn_reflns_av_R_equivalents  0.0437
_diffrn_reflns_av_unetI/netI     0.0661
_diffrn_reflns_Laue_measured_fraction_full 0.987
_diffrn_reflns_Laue_measured_fraction_max 0.992
_diffrn_reflns_limit_h_max       10
_diffrn_reflns_limit_h_min       -9
_diffrn_reflns_limit_k_max       18
_diffrn_reflns_limit_k_min       -19
_diffrn_reflns_limit_l_max       16
_diffrn_reflns_limit_l_min       -16
_diffrn_reflns_number            9869
_diffrn_reflns_point_group_measured_fraction_full 0.987
_diffrn_reflns_point_group_measured_fraction_max 0.992
_diffrn_reflns_theta_full        19.664
_diffrn_reflns_theta_max         26.499
_diffrn_reflns_theta_min         2.672
_diffrn_source                   'Axo Ag'
_diffrn_source_current           0.680
_diffrn_source_power             0.044
_diffrn_source_voltage           65
_exptl_absorpt_coefficient_mu    35.501
_exptl_absorpt_correction_T_max  0.6859
_exptl_absorpt_correction_T_min  0.1672
_exptl_absorpt_correction_type   numerical
_exptl_absorpt_process_details
;
STOE X-Red32, absorption correction by Gaussian integration, analogous to
P. Coppens, "The Evaluation of Absorption and Extinction in Single-Crystal
Structure Analysis", published in: F. R. Ahmed (Editor), "Crystallographic
Computing", Munksgaard, Copenhagen (1970), 255 - 270. Afterwards scaling of
reflection intensities was performed within STOE LANA. J. Koziskova, F. Hahn,
J. Richter, J. Kozisek, Acta Chimica Slovaca, vol. 9, no. 2, 2016, pp. 136-140.
;
_exptl_crystal_colour            black
_exptl_crystal_colour_primary    black
_exptl_crystal_density_diffrn    8.202
_exptl_crystal_description       needle
_exptl_crystal_F_000             1656
_exptl_crystal_preparation       'Grown in a NaI salt flux'
_exptl_crystal_recrystallization_method 'Grown in a NaI salt flux'
_exptl_crystal_size_max          0.035
_exptl_crystal_size_mid          0.012
_exptl_crystal_size_min          0.011
_refine_diff_density_max         4.285
_refine_diff_density_min         -4.033
_refine_diff_density_rms         0.868
_refine_ls_extinction_method     none
_refine_ls_goodness_of_fit_ref   1.101
_refine_ls_hydrogen_treatment    undef
_refine_ls_matrix_type           full
_refine_ls_number_parameters     73
_refine_ls_number_reflns         3400
_refine_ls_number_restraints     0
_refine_ls_restrained_S_all      1.101
_refine_ls_R_factor_all          0.0802
_refine_ls_R_factor_gt           0.0458
_refine_ls_shift/su_max          0.001
_refine_ls_shift/su_mean         0.000
_refine_ls_structure_factor_coef Fsqd
_refine_ls_weighting_details
'w=1/[\s^2^(Fo^2^)+(0.0308P)^2^+53.1308P] where P=(Fo^2^+2Fc^2^)/3'
_refine_ls_weighting_scheme      calc
_refine_ls_wR_factor_gt          0.0961
_refine_ls_wR_factor_ref         0.1043
_reflns_Friedel_coverage         0.000
_reflns_number_gt                2389
_reflns_number_total             3400
_reflns_threshold_expression     'I > 2\s(I)'
_cod_data_source_file            cm1c01696_si_004.cif
_cod_data_source_block           try2
_cod_database_code               4004001
_shelx_shelxl_version_number     2018/3
_shelx_space_group_comment
;
The symmetry employed for this shelxl refinement is uniquely defined
by the following loop, which should always be used as a source of
symmetry information in preference to the above space-group names.
They are only intended as comments.
;
_shelx_estimated_absorpt_t_max   0.696
_shelx_estimated_absorpt_t_min   0.370
_olex2_refinement_description
;
;
_shelx_res_file
;
TITL try2_a.res in P2(1)/n
    try2.res
    created by SHELXL-2018/3 at 18:36:39 on 05-May-2021
REM Old TITL Try2 in P2(1)/n
REM SHELXT solution in P2(1)/n: R1 0.113, Rweak 0.004, Alpha 0.016
REM <I/s> 1.646 for 88 systematic absences, Orientation as input
REM Formula found by SHELXT: Se4 I Re2
CELL 0.56083 6.5735 12.0292 10.4017 90 99.631 90
ZERR 2 0.0013 0.0024 0.0021 0 0.03 0
LATT 1
SYMM 0.5-X,0.5+Y,0.5-Z
SFAC I Re Se
UNIT 4 12 16

L.S. 99
PLAN  6
SIZE 0.011 0.012 0.035
TEMP 19.85
list 4
fmap 2 53
ACTA
OMIT 0 1 1
OMIT 2 4 2
OMIT 2 4 3
OMIT 2 1 6
OMIT 2 10 1
OMIT -2 1 3
OMIT -2 5 7
OMIT -2 7 6
OMIT 2 5 3
OMIT 2 8 3
OMIT -2 5 2
OMIT 2 13 5
OMIT 2 1 7
OMIT -2 12 4
OMIT -2 2 2
OMIT -2 4 6
REM <olex2.extras>
REM <HklSrc "%.\\Try2.hkl">
REM </olex2.extras>

WGHT    0.030800   53.130798
FVAR       0.13816
RE2   2    0.586617    0.643535    0.551803    11.00000    0.00669    0.00507 =
         0.00884   -0.00038    0.00086   -0.00038
RE3   2    0.620112    0.442687    0.661391    11.00000    0.00667    0.00611 =
         0.00770    0.00033    0.00018    0.00027
RE1   2    0.255106    0.522554    0.560760    11.00000    0.00609    0.00617 =
         0.00883   -0.00042    0.00128    0.00004
I1    1    0.703750    0.866400    0.593008    11.00000    0.02762    0.00891 =
         0.01139   -0.00047   -0.00230   -0.00406
SE4   3    0.296923    0.334338    0.666022    11.00000    0.01158    0.00842 =
         0.01191    0.00227    0.00291   -0.00265
SE3   3    0.461611    0.602787    0.763656    11.00000    0.01047    0.01031 =
         0.00950   -0.00176    0.00145    0.00112
SE1   3    0.928621    0.567458    0.662783    11.00000    0.00708    0.00970 =
         0.01077    0.00040    0.00140   -0.00055
SE2   3    0.233265    0.712044    0.458037    11.00000    0.01070    0.00702 =
         0.01472    0.00124    0.00054    0.00291
HKLF 4




REM  try2_a.res in P2(1)/n
REM wR2 = 0.1043, GooF = S = 1.101, Restrained GooF = 1.101 for all data
REM R1 = 0.0458 for 2389 Fo > 4sig(Fo) and 0.0802 for all 3400 data
REM 73 parameters refined using 0 restraints

END

WGHT      0.0308     53.1577

REM Highest difference peak  4.285,  deepest hole -4.033,  1-sigma level  0.868
Q1    1   0.0628  0.6414  0.5465  11.00000  0.05    4.29
Q2    1   0.4130  0.6182  0.5480  11.00000  0.05    3.46
Q3    1   0.3415  0.5760  0.8127  11.00000  0.05    3.13
Q4    1   0.8142  0.6003  0.6257  11.00000  0.05    3.11
Q5    1   0.7781  0.6635  0.6642  11.00000  0.05    3.02
Q6    1   0.6837  0.4401  0.7987  11.00000  0.05    3.02
;
_shelx_res_checksum              98423
_shelx_hkl_file
;
  -9   7   4  101.39   22.30
  -8   3   4  797.82   19.00
  -8  10   2  710.13   38.50
  -7  -4   9   67.29   12.80
  -6   8   0   36.10   18.30
  -5  15  -1  578.14   40.20
  -4  -5   6  608.44   17.70
  -4  -2   3 2142.39   13.50
  -3  17  -2   59.49   31.40
  -1  15  -3    2.20   26.40
   0  16  -3  465.35   33.90
   1  16  -3    1.20   21.90
   2   9  -3  306.87   16.40
   4  17  -2   73.69   25.00
   5   6  -1   17.70    5.90
   6  14  -1   20.30   18.40
  -8   9   2  266.07   27.20
  -7   8   1   83.79   19.10
  -5  16  -1  -29.50   28.00
  -4  11  -2  147.39   23.60
  -4  12  -2  310.27   28.00
  -4  13  -2  213.08   28.10
  -4  14  -2   26.20   26.90
  -2  12  -3 5990.80   78.79
  -2  13  -3   20.00   21.00
  -1   9  -3  645.24   23.90
  -1  16  -3  333.47   34.50
   0   8  -3 2607.24   38.40
   1   8  -3  693.63   20.80
   1  17  -3  107.99   25.50
   2  16  -3  -31.70   22.40
   3  11  -3   71.29   14.70
   3  12  -3   13.00   15.50
   3  13  -3  250.77   22.50
   3  14  -3   20.30   19.90
   5  11  -2  114.79   16.20
   5  12  -2   18.30   15.60
   6  15  -1  130.29   24.20
   7  10   0   18.50   11.70
  -8   5   3  172.68   17.90
  -4  -4   5   -8.60    9.30
  -4  10  -2   39.90   19.40
  -4  15  -2   19.90   27.20
  -3   7  -2  455.25   18.70
  -3  18  -2  -10.90   32.70
  -2  11  -3  143.99   22.70
  -2  14  -3 2236.88   56.19
  -1  17  -3  109.29   32.20
   2   8  -3  281.27   14.80
   2  17  -3   28.10   24.30
   3  15  -3  107.99   24.00
   4   7  -2  504.65   13.80
   6   1   3   -8.00   10.00
  -8   8   2    0.80   20.50
  -6   7   0  305.07   19.30
  -5  -2   4  243.98    7.90
  -4  -3   4  102.99    7.40
  -4  16  -2  169.28   32.20
  -2  10  -3  126.09   18.40
  -1   2  -1   45.90    7.30
  -1   8  -3  143.79   14.20
   0   4  -2   87.39   10.10
   0  18  -3   14.70   26.70
   1   4  -2 2167.38   23.90
   3  16  -3   50.09   23.50
   5  10  -2    6.00   10.60
   6   9  -1  176.18   11.40
   7   5   2   26.80    6.30
  -7   7   1  282.07   21.70
  -5  -3   5 1752.72   20.40
  -5   2   1  236.08    9.60
  -4   5  -1  528.55   17.20
  -4   9  -2  383.26   22.40
  -4  17  -2   46.10   36.60
  -2  -5   5  192.68   12.00
  -2   9  -3   49.90   16.40
  -1  18  -3  367.36   39.10
   0   7  -3 2111.69   32.90
   1   7  -3  251.97   15.00
   2  -4   4   83.39   10.40
   2  18  -3   92.19   25.70
   3  17  -3   14.20   23.50
   5  16  -2   27.10   21.80
  -9   6   4    0.50   19.00
  -7  -3   8   26.10   11.50
  -3  13  -3  113.89   24.70
  -3  14  -3   19.90   27.30
  -2  17  -3  127.29   33.20
  -9   9   3  334.37   30.10
  -7   2   3   15.50    7.80
  -7  12   0   62.79   26.70
  -7  13   0   21.30   27.60
  -7  14   0   -5.20   29.70
  -6  12  -1   23.10   26.70
  -6  13  -1   66.49   28.10
  -6  14  -1  112.69   30.00
  -6  15  -1   28.50   30.70
  -3   6  -2   13.40   10.00
  -3  11  -3  150.38   24.40
  -3  12  -3   49.00   22.40
  -3  15  -3    8.60   28.00
  -2  18  -3   52.59   34.60
  -1   4  -2  941.51   19.10
  -1   7  -3    4.70   12.70
   2  -3   3  222.18   11.80
   2  -2   2 1447.16   20.00
   3  18  -3    5.80   27.20
   4  12  -3 1821.82   40.20
   4  15  -3  278.97   27.20
   5   9  -2    5.60    9.80
  -8   7   2   57.79   19.50
  -7  11   0    6.70   24.70
  -6  11  -1  107.69   25.40
  -5  13  -2  309.47   33.20
  -5  14  -2  135.69   31.50
  -2   8  -3  121.29   14.50
   0  13  -4   14.90   19.90
   0  14  -4   58.49   25.70
   1  13  -4  289.17   27.20
   1  14  -4   65.29   24.40
   4  16  -3   19.80   27.70
   7   9   0   -3.80    9.60
  -8  12   1   37.70   31.00
  -7   6   1   96.59   17.50
  -7  10   0   35.10   22.60
  -6  10  -1  231.88   27.50
  -5  11  -2   55.89   25.90
  -5  12  -2   33.80   24.10
  -5  15  -2  140.89   29.50
  -3  10  -3   34.90   18.70
  -3  17  -3  -13.20   33.20
  -2  -4   4 4427.56   36.80
  -1  -5   5  116.19   11.10
   0  -5   5   79.99   13.50
   0  12  -4  -29.40   20.40
   0  15  -4  155.38   30.20
   0  16  -4  444.76   37.40
   1  11  -4   71.39   17.70
   1  12  -4  203.08   23.20
   1  15  -4    4.20   24.20
   1  16  -4   32.60   27.40
  -9   8   3   29.40   21.50
  -8  11   1   28.10   25.90
  -6  -4   8  161.88   14.50
  -5  16  -2  279.67   36.40
  -3   3  -1  484.25   13.90
  -1  12  -4 2050.89   50.09
  -1  13  -4  196.78   26.50
  -1  14  -4  418.26   33.00
  -1  15  -4    6.10   27.40
   0  17  -4  184.68   32.20
   1  -4   4  799.82   20.00
   3  -3   4   79.79   11.40
   4  17  -3    3.50   26.80
   5  -1   4  508.85   19.10
   5   1   2   47.30    9.20
   6   8  -1   48.90    8.20
  -8  10   1  198.38   28.70
  -7   9   0   15.00   19.80
  -4  -5   7  140.49   13.70
  -4   7  -2  527.75   21.00
  -4  13  -3  116.99   29.50
  -2  -3   3 1673.03   19.20
  -1  11  -4    4.70   20.00
  -1  16  -4  152.98   32.90
   0  10  -4  844.22   28.60
   1   6  -3   16.00    9.40
   1  10  -4  160.18   18.00
   2  11  -4   59.09   15.10
   4   6  -2  361.86   11.30
  -9   5   4   32.30   18.50
  -4   2   0   15.70    6.70
  -4   4  -1  753.92   18.70
  -4  12  -3  150.38   27.70
  -4  15  -3  -42.50   27.80
  -4  16  -3    3.20   33.20
  -2  13  -4 1930.81   52.19
  -2  14  -4  439.56   33.90
  -2  15  -4   79.89   31.30
  -1  17  -4   44.50   29.80
   0  18  -4   41.60   29.40
   2  17  -4  231.58   31.70
   5   8  -2   47.80    9.60
  -8   6   2    7.80   17.20
  -8   9   1   12.20   21.90
  -7  -2   7  380.86   13.60
  -4  11  -3   68.39   21.90
  -4  17  -3  471.15   45.30
  -3   5  -2  188.48   12.90
  -3   8  -3 1146.49   30.90
  -2  12  -4   56.09   23.60
  -2  16  -4   91.49   33.50
  -1  -4   4    4.20    7.70
  -1  10  -4    2.20   15.00
  -1  18  -4   -1.00   33.80
   0  -4   4   14.60    8.40
   0   9  -4 4142.39   53.79
   2  10  -4  201.28   17.40
   2  18  -4  459.55   35.20
   3  -2   3  552.24   15.90
   3  13  -4  -13.80   20.80
   3  14  -4   25.00   21.90
   3  15  -4   88.19   26.30
   6  13  -2   85.09   20.80
   6  14  -2  118.09   23.80
   6  15  -2  311.37   29.10
  -9   7   3   23.40   21.40
  -7   8   0  200.48   21.90
  -6   3   1   38.70   10.30
  -6   5   0   18.80   11.40
  -3   1   0  168.18    7.70
  -2   2  -1 2187.98   22.40
  -2  11  -4  686.73   32.20
  -2  17  -4  233.98   39.50
   1  -3   3  211.88   11.10
   1   9  -4  259.47   17.60
   2   6  -3 1954.50   27.80
   3  -1   2 4293.17   33.60
   3  12  -4  299.47   24.10
   3  16  -4   20.10   25.00
   6  12  -2   14.90   17.90
   7   4   3   54.49   10.10
  -7   5   1  877.51   23.60
  -7  13  -1  361.76   35.60
  -6  14  -2   82.29   30.70
  -6  15  -2  173.28   34.50
  -4   6  -2  336.47   17.40
  -4  10  -3   62.29   19.40
  -2  18  -4  301.87   41.00
   3  11  -4   74.19   16.50
   3  17  -4  589.94   36.70
   5  16  -3  176.98   26.10
   6   3   2  337.97   12.20
  -8   8   1  131.29   22.40
  -7   3   2  236.78   12.80
  -7  12  -1  -13.70   27.00
  -6  12  -2  122.29   28.40
  -5  -4   7  862.61   21.50
  -5   3   0  340.37   13.60
  -3  13  -4   19.10   25.70
  -3  14  -4   -4.10   28.10
  -3  15  -4    6.90   29.20
  -3  16  -4   28.60   32.30
  -2  10  -4  106.89   20.80
   1  -2   2  613.24   13.30
   2   9  -4  431.26   19.50
   6   1   4  524.35   19.40
  -9   9   2   35.70   25.00
  -8  12   0  127.59   32.50
  -7  11  -1  136.89   26.30
  -6   7  -1  715.53   26.30
  -5   0   2    4.40    3.60
  -5  13  -3   11.60   28.50
  -5  14  -3  377.16   37.70
  -5  15  -3   25.30   31.00
  -5  16  -3   85.09   33.60
  -4   9  -3  241.48   22.20
  -3   7  -3 1238.18   29.70
  -3  12  -4   43.10   23.00
  -1  -3   3  377.26   11.90
   0  -3   3  492.15   13.80
   0   3  -2  446.66   13.50
   0   8  -4  468.55   20.10
   1   8  -4   28.90   13.00
   6   2   3 1594.04   25.60
   6  11  -2  140.89   17.20
  -8   2   4   -4.90   10.10
  -7  -3   9   83.89   14.90
  -7   7   0 1010.20   30.90
  -6  -3   7   28.90   11.50
  -6  11  -2  103.29   24.80
  -5  12  -3    1.50   26.20
  -3  11  -4  303.97   27.00
  -2   9  -4  605.04   25.80
  -1   8  -4  824.62   26.30
   0   5  -3  334.17   15.10
   0  14  -5  178.88   30.70
   0  15  -5  241.08   32.80
   0  16  -5   11.90   29.40
   1  14  -5  182.78   30.10
   1  15  -5   24.70   26.00
   4   8  -3   -2.40    9.50
   4  14  -4  305.37   27.50
   4  15  -4   99.19   26.20
   4  16  -4   14.20   27.60
   5  11  -3  102.59   15.30
   7  12  -1  -16.50   16.00
  -9   6   3   87.29   21.10
  -8   5   2  334.37   21.10
  -8  11   0  -19.20   26.90
  -7  10  -1   16.40   21.00
  -6  10  -2  122.69   24.10
  -1   3  -2  309.77   13.60
  -1  14  -5  307.17   35.00
  -1  15  -5   73.59   31.30
  -1  16  -5  124.09   32.50
   0  13  -5   12.20   22.80
   1  -4   5 2320.97   35.80
   1   5  -3 1356.76   23.60
   1  16  -5   48.90   27.10
   2  -3   4   62.69   10.50
   4  13  -4 2792.32   52.49
   4  17  -4    7.60   28.60
  -8   7   1   -1.20   19.70
  -5  11  -3   57.99   24.40
  -4   8  -3 1152.88   32.00
  -4  14  -4  304.97   36.70
  -4  15  -4  173.18   35.10
  -4  16  -4   67.19   38.30
  -3  10  -4   48.20   20.40
  -1  13  -5  -15.10   24.00
   0  12  -5  -34.10   21.20
   1   3  -2  104.89    8.80
   1  12  -5  -16.60   19.60
   2   8  -4 1984.90   33.70
   2  16  -5   29.30   27.00
   4  12  -4  117.39   20.00
  -9   8   2  100.59   24.30
  -8  10   0    4.00   24.40
  -5  10  -3  -43.70   22.80
  -4  13  -4  849.91   43.30
  -2   8  -4  182.48   18.70
  -2  15  -5  -17.00   35.70
  -2  16  -5    7.60   35.10
  -1  -2   2  151.48    7.90
  -1  12  -5   10.00   22.20
  -1  18  -5   26.90   35.80
   0  -2   2  152.58    8.60
   0  11  -5  272.67   25.60
   2  17  -5  432.36   36.70
   5  10  -3   11.90   11.20
   6  10  -2  414.56   17.00
  -9   4   4    4.10   16.10
  -7   9  -1   59.69   21.80
  -6   6  -1  295.17   18.20
  -6   9  -2  695.13   31.40
  -4   3  -1 1977.50   27.10
  -4  12  -4   -3.70   24.90
  -3   9  -4  627.34   28.80
  -2  -4   5   47.10    9.60
  -2  13  -5  707.03   38.30
  -2  17  -5  376.56   43.30
   0   7  -4 1142.79   27.40
   1  11  -5  541.55   27.70
   4  11  -4 1667.73   36.10
   5   0   4    2.90   11.80
   5   7  -2  691.13   15.50
   7  11  -1  206.58   17.00
  -8   9   0  145.09   26.20
  -7   6   0 2263.17   40.80
  -4  11  -4  208.18   26.10
  -2   5  -3  101.39   13.90
  -1   7  -4  127.49   14.70
   0  10  -5  264.27   21.90
   1   7  -4  136.99   13.30
   3  15  -5   -6.90   25.90
   3  16  -5  288.97   32.00
  -8   3   3   39.00   12.40
  -7  -1   6  821.42   14.50
  -7  13  -2    2.20   29.40
  -6   1   2  234.88    9.20
  -6  13  -3   27.00   29.60
  -6  14  -3   50.69   30.80
  -3  15  -5   25.20   33.70
  -3  16  -5  490.75   45.90
  -1  -4   5  776.22   20.10
  -1   0   0    7.00    2.80
   1  10  -5   39.50   16.20
   2  -2   3 2821.22   31.20
   2   5  -3  386.96   13.50
   2  11  -5   61.49   19.20
   3  -2   4    6.10    9.80
   3   4  -2   62.19    7.30
   3  13  -5  398.56   29.50
   3  14  -5   20.50   23.50
   3  17  -5   25.30   26.20
  -9   7   2    9.40   21.90
  -7   8  -1 1078.29   35.60
  -6   8  -2 1776.82   42.70
  -5  -4   8  543.65   20.10
  -5  -3   6 3552.74   35.00
  -5   1   1    2.10    5.90
  -5  15  -4  116.79   33.30
  -4  10  -4   59.09   20.70
  -3   2  -1 1662.73   21.90
  -3  13  -5  -37.30   27.80
  -3  14  -5   13.10   30.60
  -3  17  -5   48.10   36.00
  -2   3  -2  385.26   14.00
  -2  11  -5  123.09   24.60
  -1  -1   1   78.89    3.90
   5  16  -4  311.17   32.20
   6   7  -1   80.89    7.70
   6  14  -3  298.87   26.90
   6  15  -3   27.30   23.50
  -8   6   1  369.66   24.20
  -6  12  -3   54.59   26.30
  -5  13  -4  220.38   33.10
  -5  14  -4  487.15   39.80
  -3   8  -4   10.60   14.90
  -2   7  -4  198.38   17.30
   1  -3   4 1798.72   27.60
   2   7  -4 1589.94   29.20
   4   7  -3   58.69    9.90
  -9   5   3  116.49   21.30
  -9   9   1  715.53   37.30
  -8   8   0   60.39   22.80
  -7  11  -2   23.10   25.00
  -6  11  -3   19.50   25.10
  -4  -4   7  983.60   24.90
  -3  12  -5   51.69   24.60
  -2  10  -5   97.29   22.50
   0   9  -5  224.18   19.40
   0  16  -6  351.36   37.70
   0  17  -6  230.28   36.10
   1   9  -5  233.58   19.50
   2  -3   5 4028.60   46.70
   2  10  -5   63.39   15.80
   4   5  -2 2580.64   22.90
   6  13  -3   -2.00   20.20
   7   4   4   10.60   12.90
  -8  11  -1   80.89   27.20
  -6  -3   8   49.80   13.70
  -5  12  -4 1015.70   43.00
  -4   9  -4  662.83   30.10
  -4  15  -5  224.88   38.40
  -4  16  -5   13.50   36.50
  -3  11  -5  108.59   24.00
  -1   9  -5   13.30   15.90
  -1  15  -6   28.20   32.20
  -1  16  -6  579.14   45.00
  -1  17  -6  217.58   41.10
   0   4  -3   55.59   11.10
   0   6  -4   -5.20   11.80
   0  14  -6   37.90   27.40
   1  14  -6  496.65   36.30
   1  16  -6   34.40   27.30
   3  11  -5  113.89   19.80
   4  15  -5  524.45   35.40
   4  16  -5   51.09   31.20
   4  17  -5  334.77   36.70
   6   2   4  -11.70   13.10
   6   9  -2  167.28   12.00
  -7  -2   8   44.90   13.20
  -7  10  -2   30.10   24.30
  -6  -2   6   79.79   11.40
  -6   2   1  200.68   11.80
  -6   5  -1  481.55   20.00
  -6  10  -3   81.99   25.20
  -4   6  -3  779.92   25.00
  -4  14  -5 1087.59   49.99
  -3   5  -3  108.79   13.70
  -1   6  -4   46.10   13.20
  -1  14  -6  255.77   33.60
   0  13  -6   28.30   24.10
   1  13  -6    4.40   24.30
   2  16  -6   47.40   27.80
   6  12  -3  183.88   20.70
   7  10  -1  350.96   14.80
  -8  10  -1   73.89   26.90
  -7   5   0   30.00   14.60
  -7   7  -1  316.07   23.40
  -6   7  -2  857.41   30.00
  -4  13  -5   89.69   28.50
  -3   7  -4 6325.87   66.69
  -2   9  -5    7.60   19.60
  -2  14  -6   48.00   34.10
  -2  15  -6   61.89   37.50
  -2  16  -6   96.89   38.00
  -2  17  -6  175.98   39.40
  -1  13  -6  148.29   27.60
   0  12  -6  158.58   23.70
   2   9  -5   40.90   15.00
   2  17  -6   65.69   27.50
   3  -1   3  158.38   11.00
   5   2   2  188.28   11.10
   7   5   3  159.38   11.90
   7   6   2   16.30    7.60
  -9   8   1  172.28   29.20
  -5   2   0   29.10    8.10
  -4  12  -5 2591.64   61.59
  -3  10  -5   34.10   21.00
  -2  -4   6   80.09   11.20
  -2  -3   4 1359.76   21.20
  -2  13  -6   16.40   26.40
  -1  -4   6   17.40   12.80
  -1   8  -5  411.86   23.80
  -1  12  -6    8.80   23.00
   0  -3   4 3753.62   37.50
   0   8  -5 3312.97   49.20
   1   4  -3 5082.59   40.60
   3  -2   5  116.69   14.90
   4   0   3   -2.50    8.90
  -9   6   2    8.10   20.50
  -8   7   0   67.39   22.50
  -7   9  -2   49.99   22.70
  -7  13  -3  702.73   44.00
  -6  14  -4   80.19   33.70
  -5  10  -4   -2.70   22.40
  -3  -2   3 1790.62   17.20
  -3   3  -2   33.20    9.90
  -3  16  -6   85.89   41.50
  -2   6  -4  392.56   19.50
   0  11  -6   31.90   22.10
   1   8  -5   18.80   12.40
   4  -1   5  727.33   24.10
   4  12  -5 1206.38   37.20
  -8   9  -1   44.70   25.50
  -7   1   3   56.89    7.20
  -7   2   2   11.70    8.80
  -6  13  -4   -2.60   29.20
  -3  -4   7 1061.19   27.00
  -3  14  -6   40.40   31.00
  -3  15  -6  -18.90   35.30
  -2  12  -6  309.27   30.10
  -1  -3   4 5708.73   43.50
  -1   1  -1  323.77    9.60
  -1  11  -6   -2.00   21.60
   1  11  -6  493.55   29.00
   3  15  -6   93.99   29.50
   3  16  -6   51.89   28.10
   3  17  -6  819.62   45.40
   5  11  -4  486.05   23.00
   6   3   3   34.90   11.90
   6  11  -3  408.46   22.40
  -7  12  -3   17.00   26.20
  -6   3   0   66.99   12.80
  -6  12  -4    1.70   27.00
  -5  14  -5  416.96   41.30
  -3   9  -5   84.39   21.40
  -3  13  -6   33.60   28.50
  -2   8  -5  758.52   28.50
   1  -3   5 1646.24   30.40
   2  -2   4  468.55   17.40
   5   3   1 1232.18   14.90
  -7   6  -1 1109.79   33.30
  -6   6  -2  663.63   25.30
  -5  -3   7  127.19   14.10
  -5  13  -5  922.21   46.70
  -4  10  -5   93.89   24.60
  -2  11  -6   67.49   23.70
   0  10  -6  551.44   29.40
   2   8  -5  956.40   27.00
   3  13  -6   35.00   23.30
   4  11  -5  514.85   27.40
   5   8  -3  212.98   13.20
   5  16  -5  -18.20   27.70
  -7  -2   9  191.68   18.30
  -7   3   1  194.38   13.40
  -7  11  -3  354.86   32.80
  -5   3  -1 1262.17   23.90
  -4   5  -3  289.97   17.20
  -4   7  -4  285.37   21.00
  -3   6  -4   41.30   14.70
  -3  12  -6  112.29   28.20
  -1  10  -6  554.14   30.00
  -1  16  -7   -1.20   37.60
  -1  17  -7   44.70   38.80
   0  15  -7   63.29   32.90
   0  16  -7  983.50   50.49
   0  17  -7  801.82   50.49
   1  16  -7   58.99   31.30
   2  11  -6 1091.79   35.50
   5  15  -5   21.60   22.10
  -9   7   1  104.19   25.00
  -9   9   0  321.37   32.70
  -8   0   7    1.10   10.20
  -8  11  -2  673.13   39.60
  -5  -2   5 1130.19   18.60
  -5  12  -5  329.87   33.10
  -4  14  -6  215.48   35.50
  -4  15  -6   79.29   37.00
  -1   7  -5  297.57   20.00
  -1  15  -7  886.11   48.90
   1  15  -7   -4.70   27.10
   2   0   1    4.20    5.60
   3   0   2   -3.20    6.90
   4   1   2  277.87   11.50
   5  10  -4   54.99   13.10
   6   4   2   82.29   10.10
  -8   6   0  -21.00   19.80
  -8   8  -1   23.30   22.80
  -7  10  -3  -10.80   24.20
  -6   4  -1    7.70   11.50
  -4  -3   6   13.10   11.60
  -4   2  -1 1018.80   19.30
  -4  13  -6  537.75   39.50
  -3   4  -3   25.20   11.80
  -3   8  -5  963.60   33.00
  -3  11  -6  234.98   27.60
  -2  10  -6   81.09   22.00
  -2  15  -7  496.95   48.40
  -2  16  -7   20.20   36.80
  -1   2  -2  625.34   15.30
  -1  14  -7  705.73   42.20
   1   7  -5   33.20   12.10
   1  14  -7    9.00   25.70
   4  15  -6   21.70   29.70
   4  16  -6  240.78   35.50
   6  14  -4    5.20   21.30
  -8  10  -2   65.79   27.90
  -7   4   0  427.76   19.50
  -6  10  -4  400.76   31.50
  -5  11  -5  588.24   34.70
  -4  -2   4  302.17   10.10
  -4   9  -5   33.00   21.00
  -2   1  -1  631.54   12.70
  -2   7  -5 1887.51   39.20
  -2  14  -7   89.39   34.00
  -1   9  -6  413.36   26.90
  -1  13  -7  991.60   44.80
   0   9  -6 1510.65   38.30
   2  10  -6  250.67   20.60
   2  15  -7  -15.30   28.40
   3  -1   4    8.30    9.80
   4   0   4   16.10   11.00
   4   6  -3  864.51   17.70
  -9   4   3  -14.20   16.90
  -4  12  -6  265.77   32.80
  -2   0   0 1822.62   12.90
  -2  13  -7  104.69   31.30
   0  12  -7   62.79   23.90
   1   9  -6  116.19   18.60
   6  13  -4  107.39   22.20
   7   5   4   12.00   13.30
  -7   7  -2  249.58   24.70
  -6  -2   7  924.61   22.30
  -6  13  -5  107.69   30.00
  -5  -3   8  698.73   22.90
  -3  10  -6  430.66   30.10
  -3  15  -7  375.86   43.50
  -2  -3   5   31.50    9.50
  -2   9  -6  142.89   23.50
  -1  12  -7   19.50   24.30
   0  -2   3   47.80    8.70
   1  12  -7   79.19   26.20
   2  -2   5  240.98   15.10
   4  13  -6  670.03   33.80
   5   1   5   44.60   14.50
   6   3   4 1344.97   28.50
   6   5   1  503.05   11.20
   6   8  -2  105.79    9.50
  -9   5   2   62.59   19.80
  -9   8   0  430.26   32.20
  -7   9  -3  218.38   27.60
  -7  12  -4   20.50   29.40
  -6   9  -4 1533.15   45.80
  -5  14  -6    1.90   31.70
  -4   3  -2 2525.15   33.20
  -4   6  -4  363.26   21.50
  -4  11  -6  863.51   41.10
  -3  14  -7  162.78   36.10
  -2  12  -7   36.40   23.90
  -1  -3   5 3185.58   37.30
  -1   3  -3  219.28   13.80
   3  15  -7   22.40   26.50
   3  16  -7  -19.70   27.10
  -8   7  -1   32.50   22.70
  -8   9  -2   -1.40   24.60
  -7   5  -1  759.92   27.50
  -6   5  -2   31.70   14.10
  -6  12  -5   73.99   27.50
  -5  13  -6  -10.30   31.00
  -3   7  -5 1196.98   33.70
  -3  13  -7  213.58   34.80
  -2  -2   3  678.83   13.30
  -1   6  -5  183.18   16.80
  -1   8  -6 1224.38   35.10
  -1  11  -7  562.04   33.70
   0   3  -3  496.65   16.20
   0   6  -5   13.20   12.60
   0   8  -6 4015.30   56.99
   0  11  -7   58.39   22.10
   2   9  -6   15.90   15.30
   5   2   3 2382.06   31.60
  -9   6   1   24.60   22.00
  -8   3   2  232.58   15.50
  -7  -1   7   87.59   12.20
  -3   9  -6  144.39   24.70
  -1  16  -8  246.98   45.30
   0  -3   6  509.95   21.50
   0  16  -8   72.09   33.70
   1  -2   4 3629.04   38.10
   1  -1   2   31.90    8.20
   1  11  -7  330.77   27.10
   2  -1   3  671.03   17.20
   5   9  -4  104.99   13.30
   6  12  -4    6.30   19.10
  -6  11  -5   90.29   27.80
  -5  12  -6  268.47   33.80
  -4  -3   7 3143.49   41.60
  -4   4  -3  694.43   21.90
  -4  10  -6  362.56   32.30
  -3  12  -7  -13.80   27.70
  -2   6  -5 1924.71   38.10
  -2   8  -6   15.20   19.70
  -2  11  -7 1028.50   41.00
  -1  -2   3 2560.54   25.00
  -1  15  -8 1149.48   55.79
   0  15  -8  205.38   34.50
   1   6  -5  310.07   17.30
   1   8  -6   24.00   14.80
   2   5  -4 1556.24   26.60
   3  -1   5   54.19   13.20
   4   0   5    7.90   13.70
  -7   8  -3  -16.50   22.10
  -6  -1   5  265.17   11.00
  -4  14  -7   28.30   29.00
  -1  10  -7  132.79   25.00
  -1  14  -8  294.57   35.70
   0  10  -7  593.44   31.80
   0  14  -8  244.28   34.50
   1  15  -8  278.57   34.90
   2  11  -7  176.18   24.50
   3  13  -7   59.49   24.00
   4   2   1  966.60   13.50
   4   7  -4   17.60   10.40
   5  11  -5  475.45   24.20
   5  15  -6  107.39   25.30
   7   6   3   51.29   12.20
  -8   2   3  243.28   12.20
  -8   5   0  978.80   30.80
  -7   6  -2    2.00   19.00
  -7  10  -4   49.50   26.20
  -6  -2   8   29.20   13.60
  -6   6  -3   45.40   17.50
  -6   8  -4   22.30   23.00
  -4  13  -7   59.59   28.90
  -3  11  -7  404.36   34.70
  -2  10  -7   58.39   24.10
  -2  15  -8   49.30   33.30
  -1  -3   6 1276.67   27.10
   0   4  -4   14.30   11.40
   0  13  -8  375.36   36.00
   1  10  -7   16.90   20.60
   1  14  -8   11.00   27.20
   2  16  -8   24.50   31.10
   4  16  -7   52.09   30.80
   5   7  -3  331.87   13.60
   6  15  -5    0.60   22.90
  -9   7   0   -3.80   24.40
  -8   8  -2  127.49   26.90
  -8  10  -3   67.19   29.50
  -6  10  -5  282.77   30.80
  -5  11  -6   13.50   25.70
  -4   7  -5   -9.10   18.50
  -3   1  -1 1472.85   19.50
  -3   2  -2 5817.82   44.50
  -3   8  -6 1170.48   38.80
  -2  -3   6  693.83   20.50
  -2  14  -8  440.06   41.50
  -1  13  -8  143.39   31.90
   1   3  -3  384.46   14.60
   1  13  -8   23.90   27.50
   3  12  -7  -19.10   22.80
   4  11  -6   35.20   20.30
  -5  -2   6 1728.63   27.00
  -4  12  -7  133.69   29.90
  -3   6  -5 1531.45   36.10
  -3  15  -8  116.09   37.20
  -2   4  -4   93.49   13.90
  -2  13  -8   98.09   32.80
  -1   7  -6   61.19   17.60
   0   7  -6  668.43   26.30
   0   9  -7  440.66   28.80
   1  -2   5 4384.26   46.70
   2   8  -6  431.46   21.50
   3   0   3   58.39    9.70
   4   1   3   13.30    9.60
   6   4   3  427.56   17.80
   6   9  -3   25.80   10.80
   6  11  -4  180.68   19.50
   6  14  -5   23.70   21.90
  -8   6  -1   -3.90   20.70
  -7  -1   8  118.79   16.50
  -7   0   5  751.32   13.40
  -4   5  -4   51.39   13.20
  -3   3  -3    0.70   11.00
  -3  10  -7 1348.86   45.30
  -3  14  -8  157.58   36.80
  -2   7  -6  443.36   24.70
  -1   9  -7  384.66   27.90
  -1  12  -8  952.30   44.40
   0  12  -8   40.80   25.60
   2   6  -5  146.59   14.70
   2  10  -7  470.25   28.80
   3  16  -8  106.29   31.80
   5   2   4 2019.70   34.10
  -7   7  -3   29.20   21.70
  -7   9  -4  302.37   28.60
  -6   2   0  351.36   15.20
  -6   3  -1  -17.80   12.20
  -6  12  -6   50.19   28.90
  -4  11  -7   20.10   27.90
  -2  -3   7  781.52   25.00
  -2   9  -7  311.47   28.10
  -2  12  -8   25.20   27.30
  -1   5  -5  103.59   15.60
   0   5  -5   79.49   14.30
   1   4  -4    0.90   11.80
   1   7  -6   62.69   14.30
   1   9  -7  181.18   22.90
   1  12  -8  121.79   27.70
   3  11  -7   28.90   21.40
   3  15  -8   12.20   26.80
   5  10  -5  245.88   20.00
  -9   8  -1  109.19   28.50
  -8   9  -3   13.40   26.00
  -6   4  -2   71.79   14.10
  -6   7  -4  261.77   25.80
  -6   9  -5  994.50   41.00
  -5   2  -1  509.25   15.70
  -5  13  -7  -21.10   28.20
  -3  13  -8   77.59   33.10
  -2   5  -5   95.79   16.20
  -1  11  -8 1789.72   52.49
   0  11  -8   44.30   22.90
   2  -1   4   28.30    9.80
   4  10  -6   15.10   17.00
   4  13  -7  151.18   26.00
   6  13  -5   -9.20   21.80
  -8   7  -2   15.60   23.90
  -7   3   0  207.58   14.80
  -7  11  -5   30.30   28.50
  -4  -2   5    5.70    8.80
  -4   8  -6  -20.00   20.60
  -4  14  -8   20.70   35.20
  -3   4  -4   84.69   12.90
  -3   7  -6  981.30   35.30
  -1  15  -9    4.00   38.40
   0  15  -9  200.88   34.60
   1  -2   6 1672.53   34.10
   3  14  -8  196.58   30.60
   5   8  -4  576.94   19.20
   7   6   4   -4.00   14.20
  -7  -1   9  -11.40   15.70
  -7   4  -1   34.50   14.60
  -6  11  -6  118.99   30.50
  -5  12  -7   24.90   28.80
  -4   6  -5   31.20   16.50
  -4  10  -7   28.00   26.30
  -3   9  -7  219.28   27.40
  -3  12  -8   -2.50   28.90
  -2  11  -8   13.10   25.00
  -2  15  -9  292.07   44.70
  -1   8  -7   12.70   21.80
  -1  14  -9   -8.10   36.10
   0   8  -7  817.42   31.90
   0  14  -9   36.80   30.60
   1  15  -9   34.20   28.60
   5   2   5  392.46   20.50
   5   3   2 3419.66   31.70
   7  10  -2  380.76   14.20
  -9   5   1   73.49   21.70
  -7   2   1   18.80    9.70
  -7   5  -2   18.10   18.90
  -6   5  -3   37.50   14.80
  -5   1   0  640.54   14.10
  -4  13  -8   14.80   30.00
  -2   8  -7  101.09   23.80
  -1  -2   4 1475.05   23.00
  -1   6  -6  332.47   22.10
  -1  10  -8 1390.06   45.90
   0  10  -8  477.85   31.90
   1   5  -5  118.79   13.50
   1  14  -9   38.30   29.10
   2   7  -6  133.19   16.20
   2   9  -7   23.90   15.20
   3   0   4    4.70   10.20
   3   4  -3   27.40    8.30
   3  10  -7  423.66   26.40
   3  13  -8  109.79   26.60
   4   1   4    9.90   11.50
   6   4   4  111.99   15.70
  -9   4   2  193.98   19.30
  -9   6   0  118.89   24.10
  -7   8  -4  103.59   25.10
  -7  10  -5   20.50   26.20
  -6   1   1 6676.13   37.30
  -6   8  -5  804.22   37.00
  -3   0   0    4.50    5.40
  -3   5  -5  302.67   19.90
  -3  11  -8   77.79   28.60
  -2  -2   4  819.62   17.40
  -2  14  -9   37.40   35.10
  -1  13  -9   13.00   30.20
   0  -2   5 3782.12   41.30
   0   6  -6  794.62   27.10
   0  13  -9   72.99   29.50
   1   8  -7 1190.08   34.70
   2  15  -9  -40.20   27.30
   5  15  -7  230.18   30.10
   6  12  -5  -13.00   20.80
  -8   8  -3  105.29   26.40
  -8  10  -4   83.59   28.80
  -6  10  -6   33.30   27.30
  -5  -2   8  400.36   20.00
  -4   2  -2 1023.50   21.80
  -4   3  -3 3190.78   40.70
  -4  12  -8   18.80   31.40
  -2   6  -6   81.59   17.20
  -2  10  -8 1138.49   43.80
  -2  13  -9   67.79   35.40
   1  -1   3    2.30    8.10
   1  10  -8   16.10   21.10
   1  13  -9   43.10   28.90
   4   5  -3   37.20    7.70
   4  15  -8   79.89   31.30
  -8   4   0 1037.60   29.80
  -7   6  -3   55.89   20.70
  -6   6  -4   18.30   20.40
  -4   7  -6   92.69   21.60
  -4   9  -7   98.89   27.50
  -3   8  -7  223.38   25.90
  -3  14  -9   40.00   35.00
  -1  12  -9   38.90   30.00
   0  -1   2  125.59    8.30
   0  12  -9   30.40   29.10
   1   6  -6   10.10   14.60
   3   3  -2   -2.20    5.80
   3  12  -8   13.40   24.30
   4   1   5  760.52   25.20
   4  11  -7    3.30   23.30
   5  14  -7  171.68   27.90
  -8   5  -1    1.00   21.10
  -6  -1   6  584.74   18.00
  -6  12  -7   67.99   27.40
  -3  10  -8 1565.24   50.69
  -1   3  -4 1835.52   30.40
  -1   9  -8  228.38   26.40
   0  -2   6   31.50   13.00
   0   9  -8  -23.00   22.00
   3   0   5   -5.90   11.40
   4   6  -4  322.57   13.80
   4  14  -8  199.68   33.00
   5   9  -5  202.78   16.60
   6  14  -6   74.09   25.50
  -8   6  -2   66.59   24.00
  -7   9  -5  369.46   32.90
  -5  -1   4   32.60    8.40
  -4  -2   6 1891.91   30.20
  -4  11  -8  102.59   28.50
  -3   6  -6   75.79   17.60
  -3  13  -9   21.90   33.00
  -2   9  -8  104.39   25.20
  -2  12  -9   99.09   32.00
  -1   2  -3 1052.99   21.50
  -1   7  -7  253.47   23.10
   0   7  -7 1261.37   36.00
   1  12  -9   42.70   27.10
   2   4  -4 4463.85   40.80
   2   8  -7   22.30   16.50
   2  10  -8   19.40   21.80
   3  15  -9  660.43   41.40
   4   4  -2 1419.76   14.60
   6   5   2   30.90   10.80
  -9   8  -2  355.76   33.70
  -8   3   1  480.25   18.80
  -8   9  -4   38.40   28.80
  -7   7  -4   34.10   22.80
  -6   7  -5  518.35   32.80
  -6   9  -6  983.50   42.00
  -2   7  -7  447.46   29.20
  -1  -2   5 4174.58   41.70
  -1   4  -5 2381.06   38.40
  -1  11  -9  915.21   44.00
   0   3  -4 3844.72   40.30
   0  11  -9  792.72   41.60
   0  15 -10  240.98   40.70
   1   9  -8   39.70   22.60
   3  11  -8   53.29   24.40
   4  13  -8   41.40   25.60
  -6  11  -7  135.89   30.60
  -5  12  -8   90.59   30.60
  -4  -2   7  821.12   24.80
  -4   8  -7   12.80   24.80
  -3  12  -9   20.60   29.30
  -2   4  -5 1433.26   31.60
  -1  14 -10   11.40   37.20
   0   4  -5  678.53   22.10
   0  14 -10   97.19   33.90
   1   7  -7  395.96   24.30
   3  14  -9   40.50   28.90
   4   2   2 1005.40   18.50
   5   3   3  459.95   17.60
   7   7   3   23.80   13.60
  -8   7  -3  236.48   28.00
  -4  10  -8    0.70   26.40
  -4  13  -9   54.79   34.60
  -3   7  -7  138.09   24.60
  -3   9  -8  768.72   38.00
  -1   5  -6  377.96   21.10
   0   2  -3   61.39   11.30
   1  11  -9  362.06   32.40
   4  10  -7  -26.70   20.70
   6  13  -6   30.90   22.50
  -7  10  -6  324.67   36.00
  -6  -1   7   35.50   14.50
  -6   3  -2  354.06   19.60
  -6   4  -3  434.06   21.30
  -4   6  -6   -9.10   19.30
  -3   3  -4   75.89   13.70
  -3  11  -9  151.68   32.60
  -2   5  -6 1788.12   38.80
  -2  14 -10   35.20   36.30
  -1  -2   6   14.00   10.90
  -1   8  -8   43.30   22.90
  -1  10  -9  226.38   30.50
  -1  13 -10  -42.00   36.30
   0   5  -6   38.40   14.30
   0  13 -10  104.79   32.20
   1  14 -10  112.49   33.00
   2   6  -6  325.97   17.70
   2  15 -10  535.45   41.50
   3   1   2 4368.06   33.70
   3  13  -9   29.60   28.60
   4  12  -8   -7.00   24.50
   6   8  -3  268.07   12.60
  -7   8  -5  196.58   27.40
  -6  -1   8    2.70   14.50
  -6   8  -6  298.67   32.00
  -6  10  -7   30.70   27.20
  -4  12  -9   32.80   29.00
  -3   2  -3  576.54   18.70
  -2   1  -2 1750.82   23.00
  -2   8  -8  302.47   28.40
  -2  10  -9  185.68   30.50
  -2  13 -10   35.00   36.40
   0  10  -9   19.70   23.80
   2   9  -8  335.07   25.70
   3  10  -8  161.58   25.60
   4  15  -9  334.97   38.00
   5   3   4 1244.68   27.90
   6   7  -2   23.00    7.20
  -9   5   0  -19.30   22.40
  -9   6  -1   14.40   23.00
  -8   1   6  139.69   11.60
  -8   8  -4  199.78   30.50
  -7   4  -2   33.50   17.50
  -7   5  -3  144.59   21.90
  -6   5  -4   80.59   17.90
  -5   3  -3  476.05   19.80
  -4   9  -8  418.96   34.90
  -2  -2   6  348.27   15.80
  -1   6  -7   55.79   19.70
   1  -1   5 1014.80   23.90
   1   8  -8   50.59   21.50
   1  10  -9  398.16   31.40
   1  13 -10    5.20   28.50
   2  14 -10  236.58   34.10
   5   7  -4  300.97   14.70
   6   9  -4 1227.48   25.10
   7   8   1 1056.49   17.10
  -9   7  -2  438.56   34.20
  -6   2  -1  128.39   14.20
  -5   2  -2  184.98   13.30
  -4   7  -7   24.90   22.50
  -3  13 -10   -2.00   37.70
  -2  -2   7  801.02   24.30
  -2   6  -7  -25.20   18.30
  -1  12 -10    5.00   31.00
   0   6  -7  944.21   30.90
   0  12 -10  -13.30   28.80
   1  -1   6  102.59   15.90
   1   3  -4 5753.02   46.90
   1   5  -6   -3.30   13.80
   2   0   3   83.69   10.40
   2   7  -7   43.70   15.80
   3  12  -9  -14.00   24.80
   5   3   5  136.59   16.10
   5  14  -8  835.92   40.00
   6   5   3   27.00   13.40
   6  12  -6   31.70   22.00
  -7   6  -4    7.90   22.30
  -7   9  -6   94.09   28.30
  -4  11  -9  244.48   35.20
  -3  10  -9    8.60   27.70
  -2  12 -10   92.79   34.50
  -1  -1   2  224.28    8.00
  -1   9  -9   95.89   26.80
   4  14  -9  -17.30   29.40
  -8   5  -2  -14.50   22.10
  -8   9  -5   56.99   29.70
  -7   1   2  527.35   10.50
  -6   9  -7  141.29   30.30
  -4   3  -4   85.39   15.10
  -2   9  -9  196.88   28.00
  -1   7  -8   63.59   22.00
  -1  11 -10  183.78   32.90
   0   9  -9  410.16   31.80
   4   2   3   45.80   10.60
   4   9  -7   26.80   17.20
   6   5   4   80.89   15.30
   6  14  -7    2.30   24.40
  -8   4  -1   13.70   19.30
  -8   6  -3   63.09   24.70
  -7   0   7   54.59   14.10
  -7   7  -5    6.90   24.30
  -6   7  -6   10.30   25.10
  -2   7  -8   -1.50   22.20
  -2  11 -10  216.28   38.20
   0   7  -8  303.17   25.50
   0  11 -10  504.55   37.80
   0  14 -11  266.17   42.60
   1   6  -7 1508.25   36.10
   2   2  -2  248.88    9.10
   2   8  -8   71.39   20.80
   3  11  -9  296.97   30.70
   3  14 -10  402.06   35.20
   4   3   0  238.38    5.50
   4  13  -9  111.49   28.00
   5  13  -8  143.89   27.60
   6  10  -5  726.23   26.30
  -8   2   2   64.69   11.20
  -7   0   8    7.20   15.30
  -5  -1   5  193.08   12.90
  -4   2  -3   24.60   11.50
  -4   5  -6   79.99   19.00
  -4   8  -8  267.37   29.80
  -4  10  -9  318.47   33.50
  -3   9  -9  544.75   39.30
  -2  -1   2  551.64    9.10
   1   9  -9   63.89   24.40
   1  11 -10  436.36   36.80
   1  14 -11  484.15   42.70
   2   0   4   -1.50    9.10
   3   1   3  178.48   11.40
   4   2   4   57.99   17.00
   5   4   1   85.69    8.90
   5   9  -6    5.10   13.90
  -8   1   7  114.59   15.60
  -7   2   0    6.60   10.30
  -5   0   1 1329.77   12.50
  -3   7  -8   24.70   23.80
  -3  11 -10  403.66   41.30
  -1   4  -6  424.76   21.20
  -1  13 -11   92.39   36.00
   0  13 -11   44.80   32.80
   1   2  -3 2681.03   28.00
   1   7  -8  705.13   30.60
   2   0   5   69.39   12.00
   2   0   6    4.90   13.20
   3  13 -10  -43.00   28.20
   4   2   5 1186.68   30.00
  -7   8  -6  164.18   28.70
  -6   8  -7   67.49   26.60
  -6  10  -8  405.26   36.80
  -4   6  -7  756.72   34.50
  -4  12 -10   18.50   33.20
  -2   3  -5 3912.11   48.50
  -2  13 -11   60.59   37.40
  -1   3  -5 1588.64   31.60
  -1  10 -10   30.10   29.00
   0   8  -9   -4.10   23.60
   0  10 -10  284.47   33.10
   4  10  -8  756.42   35.30
   6  11  -6   58.89   20.00
   6  13  -7   37.90   22.80
  -8   3   0   17.70   15.40
  -8   8  -5   69.29   29.10
  -5  -1   8    9.70   13.50
  -5   1  -1   39.80    9.40
  -2   5  -7  944.51   32.20
  -2   8  -9  364.36   31.10
  -2  10 -10   62.49   29.80
  -1   5  -7  113.29   18.90
  -1  12 -11   23.40   37.50
   0  -1   4 2438.86   29.50
   0   4  -6  203.48   17.40
   1  13 -11  142.29   32.90
   2   4  -5   52.89   11.90
   2   9  -9   23.70   23.10
   3   1   5   59.89   12.60
   4   6  -5   31.10   11.20
   5  12  -8  775.42   35.50
  -9   6  -2   -4.10   25.90
  -6   4  -4  106.49   16.20
  -6   5  -5   50.99   21.70
  -5  -1   7  344.47   18.60
  -4   9  -9  376.26   35.70
  -4  11 -10   35.60   32.20
  -3   4  -6   35.10   17.10
  -2   2  -4  446.16   18.30
  -2  12 -11  649.24   50.59
   0  -1   5  272.07   14.00
   0  -1   6   22.90   14.10
   0   5  -7  983.20   30.80
   0  12 -11  274.97   36.80
   1  10 -10  213.48   31.80
   3  12 -10   15.00   27.70
   5  14  -9  478.15   38.20
   7   8   2  133.19   13.90
   7  11  -4   25.50   15.90
  -9   5  -1   37.90   22.20
  -9   7  -3    8.60   27.50
  -7   4  -3   83.89   20.00
  -7   5  -4    4.50   20.40
  -7   9  -7  145.79   34.00
  -6   1   0  307.67   13.30
  -4   7  -8  142.19   27.60
  -3   3  -5   56.29   13.10
  -3   5  -7   69.49   20.30
  -3   8  -9  210.68   31.40
  -3  10 -10  260.07   35.50
  -2   6  -8  177.68   25.30
  -1   6  -8   -3.60   19.80
   1   8  -9  168.38   25.00
   1  12 -11   25.00   28.90
   4   5  -4  181.38   11.50
   4  14 -10  279.17   35.70
  -7   6  -5   59.19   23.70
  -6   6  -6  679.43   35.30
  -6   9  -8   44.10   28.60
  -5   3  -4 1188.78   30.00
  -3  12 -11  -14.80   37.90
  -2   9 -10   17.70   29.70
  -1   9 -10   31.80   25.90
  -1  11 -11   -2.40   34.50
   0   6  -8  922.91   32.80
   2   7  -8  123.29   18.30
   4  11  -9  261.47   30.10
   6  12  -7  180.28   26.50
  -7   3  -2  433.16   21.20
  -7   7  -6  160.28   28.10
  -3   6  -8  122.99   25.40
  -2  11 -11  280.37   38.40
  -1  -1   3  894.01   16.00
  -1   7  -9   49.30   24.30
   0  11 -11  552.94   40.30
   1   4  -6   19.50   14.30
   1   5  -7 2027.90   40.80
   4  13 -10   54.49   32.90
   5   4   2  605.64   16.90
   6   6   1  290.97   12.30
  -8   5  -3   72.39   23.60
  -8   6  -4  217.48   28.20
  -6   7  -7   93.19   28.20
  -4  -1   4  737.23   14.70
  -4   4  -6  123.19   19.40
  -4   8  -9  158.38   30.20
  -4  10 -10  743.03   44.60
  -2   7  -9   28.40   24.50
  -1  -1   7   16.50   14.70
   0   2  -4  380.86   16.40
   0   7  -9  103.19   25.20
   1   6  -8 3958.40   59.49
   1   9 -10  360.16   32.70
   1  11 -11  647.24   42.30
   3  11 -10   -3.60   25.90
   4   9  -8   52.99   21.60
   5   4   5  307.77   19.50
   5   5  -2   54.79    5.30
   5  13  -9  557.84   36.70
  -8   4  -2    7.60   19.70
  -8   7  -5   29.50   26.70
  -6   2  -2  132.49   16.70
  -4   3  -5  308.87   19.40
  -4   5  -7  392.16   29.10
  -3  11 -11    3.60   33.80
   2   8  -9  111.39   23.70
   3  13 -11   16.80   28.30
   5   4   3 2198.68   32.10
   5   4   4  831.12   24.40
   5   7  -5  107.69   13.40
   5   8  -6  362.06   19.50
   6   9  -5  827.32   23.60
  -7   8  -7   47.20   30.40
  -6   8  -8  -48.90   29.00
  -4  -1   7  297.07   19.00
  -3  -1   3 2727.03   21.90
  -3   7  -9  136.29   26.80
  -2   0  -1   -8.60    7.10
  -2   1  -3  669.13   18.40
  -2  10 -11   95.99   36.30
  -1  -1   4 1280.07   21.20
  -1  -1   6   73.39   12.20
  -1   8 -10  -34.50   25.00
   0  10 -11  608.94   40.30
   1   0   2   -6.90    7.00
   1   3  -5 3169.28   39.20
   1  13 -12  192.08   35.50
   6   8  -4  594.44   17.30
   6  10  -6  -10.40   17.00
  -4  -1   5   10.10    9.10
  -4  -1   6  191.58   14.00
  -4   6  -8  907.61   38.70
  -4   9 -10  783.92   45.00
  -2  -1   7 2263.37   37.80
  -2   4  -7 1450.95   37.60
  -1  -1   5 3029.30   35.80
  -1  12 -12  345.07   42.50
   0   8 -10   76.99   26.50
   0  12 -12   -0.60   34.10
   4  10  -9   37.70   24.70
   4  12 -10   20.20   25.30
   5  12  -9  305.07   31.00
   6   6   2  717.93   19.30
   6   6   4   22.80   15.40
   6  13  -8   -4.40   24.30
  -6   0   8   11.50   15.10
  -3   1  -3  171.18   13.80
  -3  10 -11  175.18   35.00
  -2  -1   3   97.39    7.70
  -2   3  -6 2210.68   40.10
  -2   5  -8  193.98   25.30
  -1   1  -3   17.10   10.50
  -1   3  -6 3097.09   45.40
  -1   5  -8   45.20   18.30
   1  10 -11  730.23   42.00
   2   9 -10  692.53   37.40
   3  10 -10  465.85   35.60
   3  12 -11   57.69   30.60
   6   6   3   42.90   13.50
   6  11  -7  -22.80   20.60
  -9   6  -3  806.32   37.40
  -7   5  -5  381.86   28.70
  -6   0   4  258.27   10.20
  -6   4  -5   -2.90   20.40
  -6   9  -9   -7.70   29.70
  -4   7  -9   56.39   27.10
  -3   0  -1 5515.75   33.40
  -3   4  -7  218.68   22.30
  -3   8 -10  278.77   32.80
  -2  -1   6 1268.47   26.50
  -1   6  -9   32.40   23.20
  -1   9 -11   -9.10   30.10
   0   4  -7   29.90   15.10
   0   5  -8   77.69   18.60
   1   0   3  365.76   13.50
   1   0   5   41.80   11.30
   1   8 -10   70.79   24.70
   1  12 -12   47.20   29.20
   2   5  -7  129.89   17.60
   2  13 -12  -47.30   29.60
   3   3  -3  811.12   15.10
  -9   5  -2   36.10   24.40
  -7   2  -1   43.40   12.60
  -7   4  -4    7.90   19.40
  -7   6  -6  -32.90   24.00
  -6   6  -7  167.18   27.90
  -3   3  -6   65.29   16.50
  -3   5  -8   11.00   21.60
  -2  -1   4   71.19    9.80
  -2  -1   5  117.49   11.30
  -2   6  -9 1976.10   50.99
  -2   9 -11   -1.70   30.40
  -1  11 -12   53.89   35.30
   0   6  -9 1055.69   38.30
   0  11 -12  129.89   33.10
   1   0   4   -2.30    8.90
   4   3   5  -30.50   18.40
   5   6  -4  599.94   16.60
  -8   2   1    4.40   12.80
  -6   0   7   -7.00   14.30
  -4  10 -11   -3.00   32.90
  -3  -1   5  365.16   14.00
  -2   2  -5  253.77   16.70
  -1   7 -10 1036.20   41.10
   0   3  -6  491.55   21.50
   2   1   6  145.59   16.50
   2   4  -6  108.19   14.40
   2   7  -9  287.67   25.80
   4   4  -3  537.35   12.20
   4   8  -8   45.20   16.20
   4  11 -10   77.79   27.10
   4  13 -11   34.00   31.90
   6  12  -8  -20.30   25.10
  -8   5  -4  829.92   36.10
  -8   7  -6   34.50   29.40
  -6   0   5   10.60   10.20
  -6   0   6   30.90   13.10
  -5   1  -2   42.50    9.70
  -4   8 -10  104.49   30.80
  -3   9 -11  371.96   38.00
  -2   7 -10  154.38   28.10
  -1   0  -1  612.54   10.80
   0   7 -10   38.00   24.50
   1   5  -8  189.98   21.20
   1   9 -11  235.58   33.40
   1  11 -12  237.28   33.90
   4   3   4   47.00   14.60
   5  11  -9 1098.99   41.30
   5  13 -10    2.30   27.20
  -7   3  -3  642.64   27.40
  -7   8  -8   39.90   31.90
  -4   4  -7  614.94   31.20
  -4   5  -8 1462.45   44.70
  -3   7 -10    8.50   28.80
  -1  10 -12  158.38   37.10
   1   4  -7  193.78   17.40
   1   6  -9   67.09   22.80
   2   1   5   75.79   13.20
   2   8 -10   53.69   23.10
   3   9 -10   12.60   24.90
  -8   4  -3   71.49   23.40
  -6   8  -9   46.20   28.50
  -5   2  -4 2055.19   37.30
  -4   3  -6   67.79   16.90
  -4   6  -9   51.59   29.20
  -2   8 -11  -13.90   30.40
  -2  10 -12   13.90   33.20
  -1   8 -11  379.26   34.40
   0   1  -3  436.66   15.00
   0  10 -12   79.39   30.20
   2   1   1  568.14   10.40
   4   3   2 2413.46   27.80
   4   3   3 3125.79   36.70
   4   5  -5  -10.40    9.60
   4  12 -11   63.19   33.20
   7  10  -4   54.29   12.70
  -9   4  -1   73.69   22.70
  -7   1   1  105.59    9.00
  -7   1   8  126.29   18.30
  -6   1  -1   22.40   11.30
  -6   2  -3 1680.43   34.10
  -4   9 -11   93.49   31.30
  -3  10 -12   21.60   37.20
   0   2  -5 3689.53   42.70
   0   8 -11   13.10   27.20
   1   7 -10   13.40   23.10
   1  10 -12   13.60   30.50
   2   1   4   25.50   11.00
   2   9 -11  722.33   41.90
   5   8  -7  128.49   17.00
   5  12 -10  498.75   37.70
   6   7  -3  886.91   14.30
  -9   3   1   54.59   14.10
  -9   6  -4  443.76   35.60
  -6   5  -7  466.75   35.00
  -4   7 -10   71.99   30.40
  -3   8 -11   75.29   30.70
  -1   4  -8   33.50   18.30
  -1   5  -9  863.61   36.80
   0   0   6   27.40   16.70
   1   3  -6 1290.87   29.00
   2   3  -5   30.60   11.40
   3  12 -12   55.19   29.40
   6   9  -6  684.53   25.40
   6  10  -7   12.00   19.80
   7   9   0   16.60    8.40
  -7   5  -6   83.79   25.60
  -7   6  -7   -4.00   27.20
  -6   4  -6   68.79   24.20
  -6   6  -8   84.69   29.00
  -4   2  -5 1312.77   31.50
  -2   1  -4   19.10   12.60
  -2   3  -7 1901.21   40.90
  -2   6 -10   26.20   24.00
  -2   9 -12    7.20   35.30
  -1   3  -7 1079.89   31.90
  -1   6 -10 2776.42   61.19
   0   9 -12  440.66   39.50
   0  11 -13    9.30   36.90
   1   8 -11  141.99   30.00
   2   1   2 1661.53   20.70
   2   1   3  684.63   17.40
   5  10  -9  417.76   28.50
   6  11  -8   26.70   22.60
  -9   5  -3   54.69   26.00
  -7   1   7   68.89   16.50
  -7   4  -5  767.12   32.50
  -7   7  -8   16.00   31.20
  -3   4  -8   91.99   23.40
  -3   5  -9   91.39   24.70
   0   4  -8   53.29   17.70
   0   6 -10   43.20   24.40
   2   5  -8 1957.00   41.60
   2   6  -9  505.15   27.70
   3   2   3  561.24   16.80
   4  11 -11   -0.40   28.10
   6   8  -5 1783.62   29.50
  -8   3  -2  216.38   22.90
  -6   3  -5   21.70   22.00
  -6   7  -9    8.10   27.10
  -5   0   0    3.00    6.20
  -5   0   7   82.09   14.70
  -4   8 -11  213.18   35.80
  -3   1  -4   15.80   11.40
  -3   3  -7   86.89   18.10
  -3   6 -10   37.60   28.10
  -3   9 -12   99.49   38.30
  -2   7 -11  124.49   30.90
  -1   0   7    1.20   15.10
  -1   1  -4 2943.01   35.60
   1   9 -12   -6.20   29.70
   2   7 -10   36.30   22.70
   3   2   2 5586.64   39.30
   3  11 -12   44.30   30.70
   4   7  -8   15.80   14.60
   4   8  -9  102.09   25.30
   5   5   4   -9.60   13.40
   6   7   4  234.38   21.10
  -8   5  -5  189.28   28.60
  -1  10 -13   50.79   36.00
   0   3  -7   70.19   15.80
   0   7 -11  727.03   39.00
   2   8 -11  309.57   33.30
   5  11 -10  315.77   33.60
   6  12  -9   33.30   26.50
  -7   3  -4 1173.78   35.10
  -4   4  -8  230.08   25.90
  -4   5  -9  800.12   39.30
  -3   2  -6 1554.34   35.60
  -3   7 -11   44.40   30.30
  -2   0  -2 7047.29   41.80
  -2   8 -12   98.19   36.70
  -2  10 -13  155.18   40.50
  -1   2  -6 1684.03   34.20
  -1   8 -12  399.16   38.40
   0  10 -13  338.07   40.90
   1   5  -9 2129.89   46.70
   3   9 -11  617.44   37.80
   4   9 -10  386.96   31.40
   5   6  -5  -12.40   11.20
  -8   2   0  634.84   20.30
  -8   4  -4  565.14   32.00
  -5   1  -3  271.27   15.10
  -4   3  -7  342.27   23.80
  -4   6 -10   20.30   27.60
  -3   0  -2    9.20    8.80
   1   1   6   77.29   16.20
   1   2  -5 4344.27   45.00
   1   4  -8 1952.80   41.20
   1   7 -11   52.09   24.50
   1  10 -13   15.50   31.40
   4  12 -12   82.89   35.70
   5   5   3  312.27   17.30
   7  11  -6   12.10   18.60
  -9   4  -2  -22.60   23.00
  -6   2  -4    0.40   17.90
  -5   0   6    7.10   12.30
  -4   7 -11  293.27   37.40
  -3   8 -12   87.39   32.00
  -2   0   7    0.20   12.40
  -2   4  -9 1962.10   49.80
  -1   0   6  -18.50   10.60
  -1   4  -9  -14.40   23.00
   2   9 -12   57.09   28.60
   4   4   5   34.70   16.80
   4  10 -11  152.58   29.50
   5  12 -11   76.79   31.70
   6   7   3  115.59   16.40
  -7   5  -7  100.99   28.70
  -7   6  -8  220.68   34.30
  -6   1  -2   53.89   14.30
  -6   4  -7   -7.20   23.80
  -6   5  -8   74.09   27.90
  -2   6 -11  701.33   41.30
  -2   9 -13   19.50   35.80
  -1   6 -11  962.50   42.40
  -1   9 -13  189.18   39.90
   0   2  -6   37.40   14.10
   1   3  -7  156.68   17.90
   1   8 -12   20.10   28.40
   2   2   6  951.20   29.00
   6   9  -7  763.72   30.60
   6  10  -8   34.60   20.00
  -9   3   0  147.59   17.20
  -9   5  -4   91.89   29.10
  -7   1   5  695.23   18.30
  -7   4  -6  219.68   27.30
  -6   7 -10   -3.90   30.50
  -4   2  -6  960.40   30.90
  -4   8 -12  743.93   48.20
  -3   4  -9  369.76   29.70
  -3   5 -10   45.40   25.70
  -2   3  -8   83.29   19.10
  -1   3  -8  355.16   24.40
   0   1  -4 2418.36   31.30
   0   4  -9   -4.70   18.30
   0   5 -10   16.30   23.00
   0   6 -11   75.59   26.50
   2   6 -10  366.26   30.10
   4   4  -4  128.49    9.80
   4  11 -12  462.05   40.90
   5   7  -7  219.58   18.30
   5  10 -10  205.08   30.20
   6  11  -9  315.47   28.90
   7  10  -5   99.69   14.90
  -7   1   0   18.00    9.80
  -6   3  -6   -3.60   23.00
  -3   3  -8  109.09   21.70
  -3   6 -11   20.00   28.60
  -2   1  -5   95.69   13.90
  -1   7 -12  247.28   35.50
   1   9 -13   -4.30   29.40
   2   5  -9  864.51   32.40
   2   7 -11   -4.00   26.80
   3  11 -13  119.59   33.60
   5   5  -3 2260.97   19.90
   6   7   2  862.61   22.80
  -8   2   6    4.20   14.60
  -8   3  -3   78.39   21.90
  -7   2  -3 1666.53   34.40
  -5   0   5  376.36   16.30
  -5   3  -7   67.59   23.20
  -3   1  -5   53.19   13.60
  -3   7 -12  386.26   40.00
  -2   0   6  973.00   24.00
  -2   2  -7  592.94   27.30
  -1   0  -2   -8.00    8.20
  -1   0   5  472.25   16.70
   0   3  -8    9.50   16.40
   4   7  -9  291.97   25.80
   4   8 -10   42.40   25.10
   5  11 -11   29.10   29.20
  -7   3  -5    9.30   20.00
  -4   0   6   85.69   12.40
  -4   4  -9  290.37   29.40
  -4   5 -10  103.09   28.90
  -4   6 -11  329.57   37.10
  -2   8 -13   29.00   34.20
  -1   2  -7  163.08   17.80
  -1   8 -13  180.68   38.90
   1   1  -3  958.60   18.30
   1   5 -10  624.34   33.20
   1   6 -11  119.19   26.60
   2   4  -8  911.01   29.60
   2   8 -12   80.09   28.00
   3   9 -12  241.78   32.60
   4   6  -8   70.09   16.20
   4   9 -11   14.90   28.00
   6   7  -4  260.17   11.70
   6   8  -6   64.29   14.00
  -8   4  -5 1379.36   42.90
  -7   1   4   51.19   10.20
  -5   1  -4  520.35   21.20
  -4   3  -8   76.09   22.40
  -3   0   6    7.70   10.40
  -3   2  -7  811.82   29.90
   0   8 -13 1232.18   53.49
   1   4  -9 1237.78   37.60
   1   7 -12  178.88   31.40
   1  10 -14   40.40   33.10
   2   2   5  256.17   16.70
  -9   4  -3  -14.90   23.40
  -8   2  -1  490.65   20.30
  -6   1   7   44.30   14.40
  -6   2  -5  -16.60   18.70
  -5   0  -1   17.60    7.70
  -5   2  -6   27.00   16.70
  -4   7 -12  286.07   36.10
  -3   8 -13  950.00   54.99
  -2   0  -3  102.69   11.60
  -2   4 -10 1185.68   43.10
  -2   5 -11   69.99   26.50
  -1   4 -10  989.20   40.20
  -1   5 -11  743.83   37.80
  -1   9 -14   69.79   40.20
   3   4  -7 1099.49   28.80
   3  10 -13   19.10   28.80
   4  10 -12   61.89   29.50
   5   6  -6   50.09   13.30
   7  11  -7   -5.00   19.50
  -7   5  -8   -9.40   29.20
  -7   6  -9  277.97   37.20
  -6   4  -8   44.50   28.60
  -6   6 -10  218.18   34.20
  -3   0  -3   51.29   10.20
  -2   3  -9  215.58   27.20
  -2   6 -12  194.48   34.00
   0   1   6   31.20   18.70
   0   2  -7   81.79   15.70
   0   9 -14  309.07   42.00
   1   1   4 2891.61   35.00
   1   8 -13   67.39   30.30
   5   9 -10   27.50   24.50
   6  10  -9  -30.40   21.20
  -8   2   5   50.49   12.40
  -5   0   4  -14.40    9.90
  -5   4  -9  348.17   33.90
  -4   2  -7 1000.60   33.10
  -3   4 -10   -1.60   24.60
  -3   5 -11   66.39   29.20
  -3   6 -12  236.78   35.30
  -1   0   4    1.60    9.10
  -1   3  -9  172.88   21.40
  -1   7 -13  222.78   39.70
   0   1  -5  286.27   16.80
   0   4 -10   44.40   23.60
   0   5 -11   98.19   26.00
   0   6 -12  222.68   33.30
   1   3  -8   31.00   16.50
   2   6 -11   13.70   23.80
   5   5   0  109.29    8.10
   5   6   4   -4.70   13.30
   5  10 -11   60.19   30.60
   6   9  -8  195.38   23.70
  -8   3  -4  149.49   25.20
  -6   3  -7  -22.20   25.20
  -5   3  -8   37.30   25.30
  -2   0   5    3.10    9.50
  -2   1  -6  157.18   16.10
  -2   7 -13   59.69   35.20
   0   7 -13  130.89   35.40
   1   9 -14   22.60   30.50
   2   5 -10  557.84   31.30
   2   7 -12  265.57   32.90
   3   8 -12   84.09   28.30
   4   4  -5    0.70    9.50
   4   4   3  659.33   21.20
   7  10  -6   13.00   16.80
  -7   1  -1   11.40   11.10
  -7   1   3   47.50    8.20
  -7   2  -4  737.03   29.50
  -4   0   5   10.90    9.30
  -4   4 -10  323.27   34.40
  -4   5 -11   39.50   29.50
  -3   1  -6 3158.68   47.30
  -3   7 -13   11.50   34.00
  -2   2  -8   29.10   17.30
  -1   1  -6   90.69   14.90
  -1   8 -14  365.36   46.00
   0   3  -9   61.79   20.30
   1   5 -11  340.97   30.70
   2   2  -5   80.29   12.60
   2   8 -13  370.46   37.50
   3   9 -13    6.60   30.20
   4   7 -10  160.18   26.70
   4   8 -11   -6.90   25.60
   4   9 -12  -12.90   29.60
   5  11 -12   47.80   30.70
   6   7   0  319.07   12.10
  -8   4  -6  484.05   33.80
  -7   3  -6   61.09   24.30
  -4   3  -9   98.79   26.00
  -4   6 -12  286.07   36.80
  -3   0   5   22.30    9.20
  -3   2  -8  451.05   27.50
   0   8 -14   12.60   35.30
   1   4 -10  147.19   25.40
   1   6 -12  -25.20   26.20
   1   7 -13    1.40   30.80
   2   2   4  445.46   16.70
   2   4  -9 1589.34   40.50
   4   6  -9  337.77   23.30
   5   5  -4  404.96   13.10
   6   8  -7 1321.97   32.50
  -9   4  -4  115.09   27.20
  -6   1   6  567.24   20.30
  -6   5 -10   78.29   30.40
  -5   0  -2   -1.20    9.50
  -5   1  -5   47.70   14.50
  -5   2  -7   13.30   20.60
   1   2   6 1701.63   35.00
   4  10 -13  270.67   38.30
   6   7  -5   11.10   10.00
  -7   5  -9  833.72   45.90
  -6   2  -6    5.70   22.40
  -5   1   7  324.57   18.50
  -3   0  -4   -9.90   11.10
  -2   0  -4   -6.40   10.30
  -2   1   7 2260.47   38.50
  -2   4 -11  102.69   28.70
  -2   5 -12  -13.60   28.80
  -2   6 -13    8.80   32.80
  -1   4 -11   39.40   26.10
  -1   5 -12  295.87   31.80
  -1   6 -13   32.50   32.50
   1   1   3    7.40    9.60
   1   2  -7   24.40   13.90
   1   8 -14   -4.90   29.70
   3   4  -8  224.78   19.70
   5   6  -7    6.60   13.70
   7  11  -8   -1.70   23.20
  -9   3  -2   65.89   22.20
  -7   2   7  399.06   21.90
  -7   4  -8  158.18   32.80
  -6   1  -4  532.05   24.50
  -5   0   3  115.69    8.80
  -5   4 -10  389.86   36.30
  -5   5 -11  147.29   32.50
  -5   6 -12   67.19   32.80
  -4   2  -8    7.30   20.30
  -3   4 -11  100.99   30.00
  -3   5 -12   21.80   29.10
  -2   3 -10  186.88   27.70
  -1   3 -10  480.55   31.90
   0   1   5  259.07   14.50
   0   2  -8  316.57   22.20
   0   4 -11  -29.40   24.50
   0   5 -12   -7.10   26.30
   0   6 -13   24.10   31.50
   1   3  -9  231.08   21.90
   3   3  -6  178.38   13.20
   4   5  -8  223.18   18.90
   5   6   3   65.49   14.00
   5   8 -10   46.50   21.70
   5  10 -12    2.00   30.50
  -8   3  -5  315.77   28.40
  -7   1  -2   15.30   13.10
  -6   3  -8  215.08   30.50
  -5   3  -9   56.59   29.00
  -3   3 -10   36.90   23.80
  -3   6 -13  564.44   43.80
  -2   0   4 1296.37   21.00
  -2   1  -7  182.08   19.40
  -1   0   3  627.94   13.90
  -1   1   6   79.09   13.20
  -1   7 -14  205.98   38.60
   0   1  -6   50.29   14.40
   0   7 -14  307.07   41.90
   2   5 -11  147.09   25.30
   2   6 -12  252.37   31.20
   2   7 -13  943.71   48.00
   3   8 -13  406.16   38.20
   6   7  -1   73.49    8.00
   6   9  -9  -33.90   21.30
  -8   2   4    3.20   10.00
  -7   2  -5  569.34   28.80
  -7   3  -7    6.10   26.60
  -4   1   7  311.07   19.20
  -4   5 -12  122.19   33.30
  -3   1  -7  151.48   17.40
  -2   2  -9  -29.80   21.40
  -1   0  -4    6.80   11.30
  -1   1  -7  130.29   16.90
   0   3 -10   42.10   23.90
   4   7 -11   -6.10   25.70
   4   8 -12  103.59   29.70
   7  10  -7    5.80   18.60
  -9   4  -5   46.30   28.20
  -8   4  -7   56.09   27.20
  -5   1  -6    8.40   16.70
  -4   6 -13   47.50   32.00
  -3   2  -9   99.49   23.20
  -1   2  -9   87.59   19.80
   1   5 -12  414.96   34.30
   1   6 -13    3.90   28.80
   2   2   3 2744.13   31.70
   2   4 -10 1229.08   40.20
   3   9 -14  172.98   33.60
   4   6 -10  474.65   30.60
   4   9 -13   14.10   28.50
   5   5  -5  336.07   14.80
   6   8  -8  657.63   29.20
  -8   2  -3  125.99   22.40
  -6   2  -7  -21.20   24.50
  -6   5 -11  135.89   32.90
  -5   0  -3  150.78   13.90
  -5   2  -8   14.90   24.70
  -3   0  -5    9.80   12.60
   1   7 -14  296.67   38.50
   4   5   4   27.80   15.90
   6   7  -6  624.44   20.10
   6   8   2 1715.13   31.90
  -9   3  -3   51.09   26.30
  -6   0   0 3761.82   27.10
  -6   1  -5   53.79   18.30
  -6   4 -10   48.70   28.20
  -4   2  -9  111.69   25.70
  -3   0   4   -7.60    7.40
  -2   4 -12   77.19   29.80
  -2   5 -13  -15.50   29.90
  -2   6 -14  130.59   39.80
  -1   4 -12  -23.10   25.20
  -1   5 -13   63.59   34.50
  -1   6 -14  -15.90   33.30
   0   2  -9  242.18   22.50
   1   2  -8   36.70   16.20
   1   2   5 4308.97   48.00
   1   8 -15    6.10   35.60
   3   4  -9   52.59   18.60
   7   9  -5    1.70   11.00
  -7   1  -3  775.72   24.80
  -6   1   5  239.18   15.10
  -6   3  -9   -2.50   28.30
  -5   1   6   27.10   13.10
  -5   4 -11  934.01   46.80
  -5   5 -12   35.50   31.40
  -3   4 -12   16.10   30.50
  -3   5 -13   49.20   31.10
  -2   1  -8  237.68   22.70
  -2   3 -11   94.79   25.50
   0   1  -7   13.90   14.50
   0   4 -12    9.20   25.50
   0   5 -13   19.20   29.70
   1   3 -10  114.19   24.50
   2   3  -9   72.09   19.40
   2   6 -13  268.47   35.60
   3   3  -7  828.12   25.20
   4   5  -9  206.38   21.20
   5   8 -11  106.49   26.60
   5   9 -12    9.10   30.50
  -8   3  -6  467.15   33.20
  -7   2  -6   38.70   22.00
  -7   2   6 1526.05   31.30
  -5   3 -10  157.38   30.70
  -3   1  -8  129.39   21.20
  -3   3 -11  512.55   37.70
  -2   1   6 1273.27   27.00
  -1   0  -5   41.00   13.00
   0   0  -3   -2.40   10.50
   0   1   4 2330.37   30.40
   0   7 -15  626.04   50.79
   2   5 -12 1151.78   45.80
   2   7 -14  326.47   40.30
   3   8 -14   12.50   29.90
   5   7 -10  -11.90   20.20
   6   9 -10   -9.60   21.40
  -8   2  -4  191.68   26.20
  -7   3  -8   82.19   31.60
  -6   0  -1    2.20    9.90
  -5   0  -4    5.60   12.70
  -4   4 -12  801.12   44.50
  -4   5 -13   13.70   31.80
  -2   2 -10  161.98   26.50
  -1   2 -10   18.30   21.70
   0   2   6   56.39   16.50
   0   3 -11  262.97   29.40
   1   1   2   32.80    7.80
   1   5 -13   98.69   31.00
   2   4 -11  135.49   26.10
   4   7 -12  220.98   32.30
   5   5  -6  123.29   14.10
  -6   2   7  946.81   27.00
  -5   1  -7  139.29   22.30
  -5   2  -9   22.90   26.60
  -4   3 -11  255.67   33.50
  -3   0  -6    5.00   14.30
  -3   1   6   24.50   10.80
  -3   2 -10  611.84   35.50
  -2   0  -6   -3.00   12.50
  -1   1   5 3083.09   37.40
   1   6 -14   48.20   28.60
   1   7 -15   -0.60   33.70
   4   4   1  749.03   15.50
   4   6 -11 1071.39   41.20
   4   9 -14  -12.80   34.60
   6   8  -9   16.10   19.90
  -9   3  -4  -12.90   25.90
  -7   1  -4 1120.69   32.50
  -6   0  -2   65.49   13.50
  -6   1  -6  -52.09   22.70
  -6   2  -8  391.86   33.00
  -6   4 -11   37.90   30.50
  -2   4 -13   39.90   29.50
  -2   5 -14  438.56   45.40
  -1   4 -13   32.00   31.40
  -1   5 -14  -23.50   36.40
   1   2  -9    3.30   16.70
   3   3  -8   64.39   15.50
   7   9  -6   31.70   14.00
  -5   4 -12  -15.00   29.70
  -4   2 -10   51.29   26.10
  -3   4 -13   10.60   32.50
  -3   5 -14  134.09   40.10
  -2   0   3  384.96   11.20
  -1   0  -6    5.80   13.50
  -1   0   2    4.40    6.30
  -1   3 -12  156.28   28.30
  -1   6 -15    1.80   35.70
   0   1  -8  323.97   22.40
   0   2 -10  478.35   30.40
   0   5 -14   49.80   33.00
   1   3 -11  154.98   26.70
   4   5 -10 1880.71   48.00
   5   8 -12   34.40   30.70
   5   9 -13  420.96   39.30
  -8   3  -7  132.89   29.10
  -8   3   6   12.00   16.10
  -7   2  -7   18.30   26.10
  -6   3 -10   21.00   28.10
  -5   0  -5   77.09   15.90
  -5   3 -11  246.88   34.50
  -3   1  -9   93.09   24.80
  -3   3 -12   -8.50   28.70
  -1   1  -9    3.10   19.90
   0   4 -13   -7.40   29.10
   0   6 -15   73.09   37.60
   1   1  -7    9.40   14.30
   2   2  -8 1177.78   33.10
   2   2   2 1478.35   20.50
   2   5 -13   64.09   29.90
   2   6 -14  344.67   37.60
   3   2  -4  101.79   10.20
   3   2  -2  890.51   10.50
   3   7 -14  870.31   47.10
   4   4  -8 1940.51   37.80
   4   5   3  256.17   17.10
   5   7 -11  248.38   29.50
   6   8   1  300.07   16.00
  -8   2  -5   39.80   24.50
  -7   3  -9   47.50   30.40
  -5   1  -8  220.98   28.10
  -4   4 -13   12.70   32.00
  -2   0  -7   81.29   17.50
  -2   2 -11  918.41   40.60
  -1   2 -11   24.80   25.60
   0   0  -5   -0.60   12.50
   0   3 -12    0.30   25.10
   1   2   4 3661.53   40.10
   2   7 -15  514.45   43.30
   4   7 -13  325.97   35.40
   4   8 -14    0.60   30.40
   5   7   3  143.09   16.30
   7  10  -9    1.40   22.90
  -9   3  -5   75.99   28.50
  -8   2   3  247.68   11.20
  -7   1  -5  246.28   24.50
  -5   2 -10   35.60   27.70
  -5   2   7 1088.39   28.90
  -3   0  -7 3396.76   52.69
  -3   2 -11  589.94   39.00
   1   6 -15    6.80   32.60
   2   3   4   64.09   11.90
   2   4 -12  580.94   35.80
   4   6 -12   98.49   28.50
   6   8 -10   22.70   20.90
  -6   1  -7  871.41   36.60
  -6   2  -9  110.79   28.30
  -5   1   5  172.48   14.20
   0   1  -9 6751.32   77.29
   0   2 -11   44.60   25.40
   1   2 -10  259.27   24.60
   3   3  -9  323.27   22.80
   5   6 -10  460.95   28.80
  -8   3  -8  149.69   33.60
  -6   0  -4  490.55   23.00
  -6   1   4   42.30   10.50
  -5   0  -6   16.50   15.80
  -2   1 -10   45.60   23.70
  -2   1   5  123.19   11.40
  -2   3 -13  414.36   38.30
  -2   4 -14  201.28   39.10
  -1   2   6   33.10   12.40
  -1   3 -13  405.56   39.50
  -1   4 -14  186.68   39.60
  -1   5 -15  139.39   38.10
   0   0  -6   26.80   14.10
   1   1  -8  342.27   21.20
   2   2  -9   60.79   19.00
   2   3 -11   36.30   23.80
   4   4  -9   12.00   17.40
   4   5 -11  508.25   33.10
   5   6   1   12.60   10.80
   5   8 -13  168.78   34.70
  -8   2  -6   27.40   25.90
  -7   2  -8  215.78   32.10
  -7   2   5 1505.45   27.90
  -6   3 -11  187.78   33.10
  -5   3 -12  977.50   49.20
  -3  -1  -2 4393.46   34.70
  -3   1 -10 1677.13   49.20
  -3   3 -13   30.10   30.30
  -3   4 -14   87.49   33.40
  -2   0  -8  257.97   23.00
  -1   1 -10 1131.29   40.70
   0   2   5 3676.73   43.30
   0   4 -14  158.28   34.70
   0   5 -15  -14.80   34.80
   2   1  -5  112.49   12.40
   2   6 -15  -30.90   32.70
   3   2  -6  193.18   14.20
   3   7 -15  119.59   33.00
   5   7 -12  228.48   30.60
  -7   1  -6    2.50   23.40
  -6   2   6   71.39   14.90
  -5   1  -9   30.20   26.60
  -3  -1  -3  203.78   12.30
  -3   0  -8   -6.80   16.60
  -1   2 -12  147.59   28.10
   0   3 -13  478.55   38.50
   2   5 -14  139.39   32.00
   4   7 -14   22.60   29.10
   6   7  -9  611.64   28.90
   7  10 -10    3.00   23.30
  -8   1  -1  567.04   19.30
  -6   0  -5   28.10   17.50
  -6   2 -10   13.90   27.60
  -5   2 -11  558.94   39.90
  -4   1   5    3.40    8.10
  -3  -1  -4   -5.40   10.80
  -3   1   5  376.46   14.90
  -3   2 -12   84.99   31.60
  -2  -1  -3  691.13   17.70
  -1   0  -8    3.80   15.80
  -1   1   4 1279.77   22.50
   1   2 -11   10.90   23.90
   1   5 -15   17.30   32.10
   2   4 -13  503.55   38.00
   2   4   5 1359.16   31.30
   3   3 -10   65.19   19.00
   4   6 -13   54.79   30.30
  -9   2  -2  113.39   20.00
  -8   1  -2  440.66   20.80
  -5   0  -7    1.30   16.60
  -3  -1  -1 1499.05   17.10
  -2  -1  -4   25.20   12.30
  -2  -1  -2 1706.23   21.50
   0   1 -10   42.40   22.20
   0   2 -12  401.56   33.30
   1   1  -9    7.50   16.50
   2   2 -10    0.20   19.30
   3   2  -7  558.24   22.00
   4   4 -10  745.43   32.00
   5   6 -11  227.08   27.20
  -8   2  -7   24.20   28.90
  -7   2  -9   46.80   30.70
  -3  -1  -5   63.39   13.30
  -3   1 -11 1215.28   47.80
  -2   0  -9   -6.40   19.60
  -2   1 -11  805.02   38.80
  -2   3 -14   21.10   33.70
  -2   4 -15  417.06   45.30
  -1   3 -14  914.21   52.79
  -1   4 -15  112.19   38.20
   1   3 -13  -23.20   29.90
   2   3 -12  806.02   39.10
   4   5 -12 1251.87   46.70
   7   9  -9   29.40   22.50
  -9   2  -3   14.40   21.10
  -8   3   5  446.46   20.80
  -7   1  -7  -11.10   25.40
  -6   0  -6  175.18   25.50
  -3   0  -9   98.39   24.00
  -3   3 -14   15.90   33.60
  -2   2   6  368.86   17.60
   0   0  -8 3610.04   53.79
   0   4 -15   26.10   34.70
   3   3   1  493.55   11.60
   3   6 -15  447.76   40.60
   4   4   0  634.74   11.80
   4   5   2  665.33   19.80
   5   7 -13    6.70   32.00
   6   6  -6  191.08   13.20
   6   6  -5   79.89   10.00
   6   7 -10  412.46   28.00
   6   8   0   33.50   11.20
  -6   1  -9 1123.09   44.40
  -3  -1  -6 3067.49   46.50
  -3   2 -13   13.00   31.00
  -2   2 -13   -6.40   28.40
  -1   0  -9 1634.94   41.60
  -1   2 -13  393.56   38.20
   0   3 -14  445.06   41.10
   1   0  -4    9.00   11.20
   1   1   1  293.97    8.50
   2   5 -15   -4.50   31.50
   3   2  -8 1276.97   32.20
   3   3 -11    2.40   22.40
   5   7   2  207.98   15.80
  -9   2  -4    2.00   26.60
  -8   1  -4  103.49   23.40
  -6   2 -11   20.80   30.30
  -5   0  -8   34.30   23.40
  -5   2 -12    6.50   31.00
  -5   2   6 1677.43   31.80
  -2  -1  -6  155.58   15.90
   0   1 -11  348.47   30.60
   1   4 -15    9.20   32.30
   2   2 -11  302.67   29.50
   4   3  -8  924.41   28.00
   4   4 -11  711.93   36.50
   5   5 -10   32.50   21.70
   6   6  -7  -15.80   12.10
  -8   2  -8   83.49   33.30
  -7   2 -10   -7.10   31.90
  -7   3   6 1511.95   32.70
  -3   2   6  216.58   15.40
  -2   0 -10   20.00   23.00
  -2   1 -12  228.28   33.20
  -1  -1  -4 2973.40   35.30
   0   2 -13  974.30   44.40
   1   2   3 1049.59   20.20
   1   3 -14 1297.57   53.99
   2   3 -13  467.55   38.30
   2   3   3  218.58   13.10
   4   5 -13   64.09   30.00
   7   9 -10    5.30   22.60
  -8   1  -5   11.40   24.90
  -7   0  -3  881.61   25.00
  -7   0  -2    0.60   12.00
  -5  -1  -3  250.27   15.00
  -3  -1  -7  130.49   19.30
  -3   0 -10   23.70   22.60
  -3   1 -12  419.36   37.60
  -2  -1  -7  185.48   17.50
  -2  -1  -1  617.44   11.60
  -2   3 -15  600.94   50.79
  -1  -1  -3   -4.70   10.00
  -1   0 -10    0.80   22.70
  -1   1 -12    4.20   24.20
  -1   2   5 4256.87   45.90
  -1   3 -15  197.68   43.00
   0   0  -9    5.30   17.80
   1   0  -7    3.10   13.90
   3   2  -9  136.09   19.40
   4   6   3  815.72   24.50
   5   4  -6  960.50   22.90
   6   9   1  243.78   18.20
  -9   2  -5  251.87   31.20
  -7   0  -4  -23.50   16.70
  -6   1 -10   34.50   27.70
  -5   0  -9  329.87   31.30
  -5   1 -11   36.60   28.70
  -2   1   4   50.69   10.40
  -2   2 -14  608.54   43.80
  -1   2 -14  914.91   52.09
   1   1 -11   48.60   25.40
   2   1  -9  480.35   25.70
   4   3  -9   64.59   16.90
   5   4  -5   79.99   11.00
   5   7 -14   -1.20   32.20
  -5  -1  -5   49.10   14.70
  -5   1   4   34.40   11.00
  -3   2 -14  133.99   33.90
  -2   0   2   13.40    5.70
  -1  -1  -7  114.59   16.50
   0   2   4  382.66   15.70
   0   3 -15  -23.90   35.70
   1   0  -8   -0.90   14.50
   1   2 -13  875.81   44.90
   2   2 -12   47.00   25.90
   2   4 -15   48.40   31.90
   4   4 -12   46.00   26.80
   5   5 -11 1712.73   47.40
   5   6 -13  326.97   36.90
   6   6  -9  391.96   25.90
   6   8 -13  300.57   33.70
  -8   1  -6   30.20   27.30
  -7   0  -5   31.30   20.70
  -6   0  -8 5227.78   77.69
  -6   2   5 1484.35   27.40
  -5  -1  -6   23.40   16.30
  -3   0 -11 1345.47   48.90
  -2  -1  -8  239.98   21.10
  -2   0 -11   28.40   24.90
  -2   1 -13   29.90   30.80
  -1   3   6 1307.27   32.50
   0   0 -10 4392.86   68.39
   0   2 -14  151.58   34.40
   2   3 -14  -19.40   31.80
   2   4   4   73.29   12.90
   3   2 -10   23.20   17.80
   4   6 -15  148.29   32.00
   7   9 -11   21.30   23.50
  -7   1  -9    0.80   29.30
  -3   1 -13   86.99   32.00
  -1  -1  -8 1239.38   35.30
  -1  -1  -2   31.70    9.50
  -1   0 -11  102.69   27.10
  -1   1 -13   31.10   31.40
   1   3 -15   35.80   31.70
   2   1 -10  -16.40   17.20
   4   3 -10  147.49   20.80
   4   5 -14   26.00   30.20
  -7   0  -6    9.90   22.20
  -6   1 -11   24.30   31.10
  -5   0 -10   28.10   27.30
  -5   1 -12   87.39   34.50
   1   1 -12   17.60   25.20
   1   3   4 1833.32   30.10
   2   5   5   92.19   15.40
   5   5 -12  475.45   33.90
   6   6 -10   41.70   21.60
  -8   1  -7   -2.30   28.70
  -6   0  -9  -14.10   25.10
  -5  -1  -7  152.38   19.50
  -3  -1  -9  104.59   23.40
  -3   1   4 1126.79   20.40
  -2   2 -15   67.19   37.70
  -1   2 -15  260.67   41.20
   0  -1  -6   45.50   14.60
   0   0 -11   -9.10   23.50
   0   1 -13   97.89   27.40
   0   3 -16    9.00   37.60
   0   3   5  582.94   20.30
   1   2 -14  877.11   47.80
   2   2 -13  720.63   42.90
   3   2 -11  465.55   30.90
   4   4 -13    1.50   27.50
   5   6 -14   65.69   34.10
  -7   0  -7 1182.58   42.90
  -7   1 -10   -0.60   30.60
  -3   0 -12    6.40   28.60
  -2   1 -14  106.09   35.00
  -1   0 -12   -5.00   24.10
  -1   1   3  954.00   18.00
   0  -1  -7    8.10   14.30
   0   2 -15  475.95   46.50
   1   0 -10   17.80   20.30
   1   4   5 2289.27   37.80
   2   1 -11  -12.00   22.60
   2   4 -16  152.68   35.40
   4   3 -11   46.90   25.60
   5   4 -10  386.06   28.40
  -5  -1  -8  229.58   28.10
  -5   0 -11   34.00   28.80
  -3   1 -14   36.90   34.10
  -2  -1 -10   27.90   24.40
  -2   2   5   75.49   11.20
  -1   1 -14  178.78   35.50
   0  -1  -8  312.57   22.50
   1   3 -16   11.00   39.40
   2   3 -15  -35.40   29.80
   3   1  -7  884.31   25.90
   3   1  -6   20.80   11.90
   4   5 -15  -17.20   30.60
   6   7 -13   66.79   27.60
  -3  -1 -10 1650.73   48.20
   0   0 -12  396.06   33.30
   0   1 -14  267.77   36.90
   0   1   2  125.49    9.00
   1   1 -13  280.57   33.50
   3   2 -12  724.43   40.10
   5   5 -13  223.88   31.00
  -2   0 -13    3.40   28.00
  -1  -1 -10 1087.59   39.00
   0  -1  -9 6473.45   75.99
   1   0 -11  -10.40   23.60
   1   2 -15  110.59   34.60
   2   0  -7    4.70   12.90
   2   1 -12  128.09   27.50
   2   2 -14  -11.00   28.50
  -4 -12  -9   -5.50   22.80
  -2 -12 -11  637.24   34.80
  -2   6   3 2153.88   35.80
   1 -10 -12   -7.20   28.20
   2  -9 -13  -10.80   28.20
   2  -8 -10   23.20   21.70
   2  -6  -7  256.37   20.90
   3  -5  -8   65.99   17.50
   4  -6 -14   36.30   30.70
   4   8  -4  273.97   13.00
   5  -2 -11   79.39   25.40
   5   0  -9  632.14   31.50
   6   4 -10   11.40   24.10
  -3 -12 -10    2.60   25.60
  -2  -9  -5   18.90   12.60
  -1 -11 -10  167.18   25.90
  -1  -9  -6  404.66   19.70
   0 -11 -13   23.00   28.20
   1  14   0   83.49   14.80
   2  -5  -6   -2.10   12.50
   2  -4  -5   43.60   12.50
   2  13  -1  118.49   11.90
   3  -7 -12   -7.30   27.40
   4  -5 -12 1224.68   46.50
   4  -4 -10  774.22   35.00
   5  -3 -13   53.79   28.60
   5  -1 -10  726.13   34.50
   5   4  -7  871.91   27.30
   6   3 -11   -3.00   25.00
   6   5 -10  427.76   32.60
   0   3   1   93.39    7.30
   1 -10 -14   26.80   27.20
   3  -6 -10   33.70   22.10
   4  -3  -9   51.99   21.50
   4  -2  -8  738.83   29.70
   4  -1  -7  301.57   20.30
   5  -3 -14  187.38   34.00
   6   2 -12    6.80   28.10
   6  11 -10    8.60   28.40
  -6  -6   0  274.87   12.70
  -4 -11  -7   -7.50   17.60
  -3   2   3 1903.01   30.40
  -1 -10  -8 1380.86   38.70
   0 -10 -10  236.08   27.10
   0  -7  -5   10.10   10.50
   2  -8 -11  312.57   31.30
   2  -7  -9  270.47   25.80
   3  -7 -13  137.09   30.90
   4  -5 -13   44.40   29.90
   5  -3 -15  775.82   48.90
   5  -2 -12   10.20   26.40
   6   6 -10   42.80   25.90
  -6  -3   2  217.78   15.40
  -3 -12 -11  -25.80   26.40
  -3  -3   1  129.19    6.70
  -2 -11  -9  138.59   23.00
  -1 -11 -11   -2.80   23.10
   0  -2  -1   57.19    6.10
   3  -7 -14  815.72   44.70
   3  -1  -5  335.27   18.00
   4  -5 -14    0.40   32.50
   4  -4 -11  694.73   36.00
   4   1  -6  183.18   15.90
   5  -1 -11   11.60   25.50
   5   1  -9   -4.00   20.00
   5  12  -7   76.99   20.60
   6   2 -13   -1.90   27.70
   6   3 -12    7.00   26.20
   6  10 -10  372.86   34.90
  -4 -12 -10   15.90   21.50
  -3 -11  -8   59.39   20.40
  -3  -1   2 6520.95   41.80
  -2 -10  -7   58.89   18.00
  -2  -8  -4  179.68   12.20
  -1  -5  -2  575.34   12.20
   1  -7  -7  370.96   21.60
   2  -8 -12   55.49   25.90
   3  -7 -15  119.79   36.60
   3  -6 -11  151.08   26.10
   3  -5  -9  206.58   23.20
   4  -5 -15  -14.00   32.60
   5  -2 -13   59.99   27.60
   5   0 -10  -20.10   20.00
   6   5 -11   -5.40   26.20
   6   9 -10    0.60   26.90
  -5 -10  -5  411.96   16.10
  -3 -10  -6  372.16   18.30
  -1 -11 -12   41.60   28.80
  -1   3   2  105.09    9.10
   0 -10 -11  604.74   35.40
   1  -3  -3  359.26   15.20
   1  15   0    8.50   14.70
   2  -8 -13  358.66   35.00
   2  -6  -8   28.10   17.10
   3  -4  -8  262.17   22.30
   3   1  -4 1161.18   22.80
   4  -4 -12   50.19   25.50
   4  -3 -10  168.88   24.80
   5  -2 -14  123.49   30.10
   6   2 -14  208.88   34.10
   6   3 -13   50.89   29.70
  -6 -10  -5  270.67   13.50
  -5 -11  -7   51.69   17.50
  -4  -4   1 2172.18   21.70
  -4   0   3   -8.50    9.30
  -1   0   1 4025.90   20.60
   0 -10 -12  143.79   29.60
   1  -8  -9  131.19   21.50
   2  -8 -15    0.40   29.40
   2  -8 -14  234.58   34.40
   2  -7 -10   53.29   21.50
   3  -6 -12    9.10   25.50
   3  -2  -6  223.08   16.20
   4  -2  -9   45.80   21.40
   4   0  -7   -7.30   13.30
   5  -2 -15  244.88   36.20
   6   4 -12   -8.00   27.60
  -5  -3   2   77.19   12.60
  -2 -11 -10  174.58   27.10
  -2  -7  -3  160.58    9.50
  -1 -10  -9  199.38   25.80
  -1  -9  -7  358.96   20.30
  -1  -6  -3  210.38   10.40
   0 -10 -13  328.07   34.20
   1  -6  -6   10.90   12.60
   2  14  -1  332.27   14.50
   3  -5 -10  150.68   23.50
   4  -4 -13    7.90   27.70
   5  -1 -13   10.00   27.00
   5   0 -11 2196.68   54.29
   6   3 -14   15.30   29.60
   6   7 -11   23.10   28.70
   6  11 -11  107.89   34.40
  -7  -5   1  857.31   21.70
   0   9   2 2022.10   30.00
   0  10   2   57.09   13.60
   1  -4  -4   13.40   11.50
   2  -5  -7  100.89   16.70
   3  -6 -14   34.60   28.40
   3  -6 -13  286.97   32.70
   4  -4 -15   -5.20   33.50
   4  -4 -14  240.88   36.60
   4  -3 -11   63.89   23.20
   4   2  -6 1837.42   33.50
   5  -1 -14   91.99   29.80
   5   1 -10  716.73   33.10
   5   4  -8  528.55   24.90
   5   8  -7  112.39   16.30
   6   4 -13   56.09   29.10
   6  10 -11  209.58   38.00
  -6  -5   1   -0.20   10.30
  -5  -6   0  106.99    7.70
  -4 -11  -8   80.69   22.00
  -3 -11  -9  161.68   23.30
  -3   1   3 2722.63   32.90
  -2 -11 -11  290.57   30.60
   0  11   2  452.75   21.50
   1  -5  -5   96.29   12.50
   2  -7 -11  -24.60   22.80
   2  -4  -6   60.89   13.90
   2  -3  -5   37.00   12.50
   3  -6 -15  424.06   42.00
   3   4  -3   33.20    7.50
   5  -1 -15  223.48   34.80
   5   0 -12    4.70   25.80
   5   9  -7 1016.50   29.50
   6   4 -14   87.79   31.90
   6   5 -13  107.79   30.70
   6   6 -12  187.28   31.10
  -8  -5   1  392.36   19.60
  -2 -10  -8 1173.78   35.00
  -2   3   3 1693.13   25.80
  -1 -10 -10   -3.40   23.50
  -1   8   3  583.84   20.50
   0  12   2  388.36   20.30
   1  -7  -8  695.63   27.90
   2  -7 -12  374.16   32.70
   2  -6  -9  524.05   28.60
   3  -5 -11  298.27   28.70
   3  -4  -9   53.69   20.60
   4  -3 -12  175.58   27.50
   6   7 -12   28.80   30.60
  -6  -2   3   40.50   12.90
  -3   4   4   23.20   15.70
  -2  -9  -6  139.49   16.00
  -2  -2   1 1082.39   11.70
   0  -9 -10  132.39   23.50
   0  -7  -6  638.74   21.80
   0   7   2  111.19   10.20
   1  10   1   69.89   11.80
   4   1  -7  315.87   20.20
   5   0 -13   75.29   27.80
   5   1 -11  -24.90   22.50
   5   5  -8  -14.70   14.90
   6   6 -13   35.70   32.00
   6   8 -12   79.29   31.50
  -3 -11 -10  447.66   29.60
  -3  -9  -5   83.89   12.70
  -2   0   2   22.80    6.80
  -1 -10 -11   -1.00   23.50
   1  -8 -11  139.49   26.00
   1   8   1  549.85   14.70
   1  11   1   83.49   13.00
   2  -7 -15  477.85   39.80
   2  -7 -14  357.96   34.50
   2   0  -3  380.96   13.60
   3  -5 -12  113.99   26.00
   3  -3  -8   81.39   17.50
   4  -3 -13   33.00   25.20
   4   0  -8  388.86   23.30
   4  13  -5  268.97   15.30
   5   0 -15   11.20   29.70
   5   0 -14    8.70   26.90
   6   7 -13   55.59   34.50
  -7  -4   2   95.49   14.30
  -5 -11  -8   97.49   21.30
  -1 -10 -12  154.48   27.50
  -1  -9  -8  262.77   19.60
   0  -9 -11   69.09   24.70
   1  -8 -12   -0.90   26.60
   2  -6 -10  341.37   26.90
   2  -5  -8 1933.41   40.30
   3  -5 -15   66.19   32.70
   3  -5 -14  155.58   32.20
   3  -5 -13   23.30   25.90
   3  -4 -10  164.48   23.50
   3  -2  -7  580.54   23.50
   3   2  -4  107.49   10.50
   4  -2 -11    6.80   21.50
   4   3  -6   26.70   11.40
   5   1 -12  108.09   27.20
   6   8 -13  278.77   38.10
  -4 -11  -9  238.08   26.40
  -3 -11 -11    9.10   23.20
  -2 -10  -9  192.58   23.80
  -1 -10 -13   25.10   29.50
  -1   6   3   12.90    9.90
   0  -9 -12  436.86   34.00
   0   6   2 2323.37   27.40
   1  -7  -9  439.96   27.00
   1  -6  -7 1500.45   33.50
   1  -1  -2  210.88   10.30
   1  12   1   87.59   15.00
   2  15  -1 1031.10   22.10
   5   4  -9    8.80   18.20
  -6  -4   2  112.39   12.70
  -4  -1   3 4659.33   42.70
  -1   2   2  167.98    9.10
   0  -9 -13  469.35   36.50
   2  -6 -11   19.80   22.60
   4  -2 -12  165.58   26.00
   4   6  -5   50.99   10.70
   5   1 -15  267.77   35.00
   5   1 -14   80.89   28.70
  -5  -5   1 2277.67   24.10
  -3   3   4   21.70   11.60
   1  13   1   -4.40   14.80
   2  -4  -7   96.79   16.00
   3  -4 -11   -3.90   22.30
   3  -3  -9  296.97   22.20
   4  -2 -16  656.33   46.30
   4   2  -7  790.32   25.60
   5   5  -9   85.89   22.50
  -5 -11  -9  666.03   30.80
  -2 -10 -10   57.99   21.40
  -2   2   3  679.93   16.60
  -2   6   4 1447.96   30.60
  -1  -9  -9  103.19   22.40
   0  -3  -2  452.75   11.90
   1  -7 -10   27.10   22.10
   1  -5  -6   -6.50   12.40
   2  -6 -12  307.97   30.70
   2  -5  -9  812.52   31.70
   2  -1  -4   72.89   11.40
   3  -4 -12   38.00   22.10
   4  -2 -15   42.20   30.90
   4  -2 -14  138.59   29.60
   4   0  -9   -6.30   15.20
   4   1  -8   11.20   15.80
   5   8  -8  506.45   26.50
   5  11  -8  293.37   28.10
  -4  -8  -3 1215.08   16.60
  -3 -10  -8 1527.45   36.20
  -3   0   3 6978.10   48.20
  -2  -9  -7  329.97   21.10
  -2  -8  -5  795.32   21.10
  -1   5   3 1341.77   23.90
   0  -7  -7 1214.68   30.60
   2  -6 -14  327.67   33.80
   2  -3  -6  703.73   23.20
   3  -4 -16   93.89   34.10
   3  -4 -14    8.60   31.50
   3  -4 -13   55.19   28.00
   4  -1 -11   69.49   22.40
   4   7  -5  256.97   15.90
   5   4 -10  365.46   28.50
   5   9  -8   21.30   19.40
  -5  -9  -4  108.79   10.90
  -2 -10 -11   97.19   26.60
  -1  -9 -10   31.30   23.20
   0  -4  -3   53.69    9.50
   1  -7 -11   23.90   23.30
   1  -6  -8 4071.09   55.49
   3  -3 -10   95.99   21.50
   3  -2  -8 1280.37   33.20
   4  -1 -12  511.95   34.00
  -4 -10  -7   26.70   17.30
  -3  -2   2  782.12   14.40
  -2 -10 -13  175.28   30.10
  -2 -10 -12  -12.80   25.30
  -2   5   4 1533.65   28.70
   1  -7 -15  -21.50   27.20
   1  -7 -14  313.67   34.20
   1  -7 -12  194.48   30.10
   1  14   1   38.20   14.60
   2  -5 -10  579.04   30.30
   3  -1  -7  874.51   25.80
   3   0  -6    0.80   12.20
   4  -1 -16  -13.00   31.70
   4  -1 -15  331.47   36.90
   4  -1 -13  299.57   31.50
   4   0 -10  133.69   21.70
   4  12  -5 1601.74   27.10
   5   4 -11   56.29   25.20
   5   5 -10   34.10   24.30
  -6  -3   3  250.57   16.50
  -3  -8  -4    6.00    9.80
  -1  -9 -14   38.40   28.10
  -1  -9 -11   16.30   25.00
   0   5   2 1006.40   16.80
   1  -7 -13   -4.00   25.10
   1  -3  -4 5670.83   45.40
   3  -3 -11   13.50   20.40
   4   3  -7 3056.09   44.10
   4   8  -5  354.56   16.60
  -3 -10  -9  -12.20   19.90
  -3  -9  -6  156.88   15.30
  -3   2   4  117.29   11.60
  -1  -9 -13  178.68   30.00
  -1  -9 -12  122.89   27.20
   0  -8 -14    1.30   26.30
   0   2   1   48.00    5.40
   2  -5 -11  170.78   24.50
   3  -3 -16   89.49   34.10
   3  -2  -9  139.89   20.20
   4   0 -11    3.90   21.00
   4   1  -9   86.59   17.40
   4   2  -8  743.43   27.40
   5   4 -12  359.26   32.80
  -2  -9  -8   89.99   20.70
   0  -7  -8  280.07   19.80
   2  -5 -15   -9.60   27.90
   2  -5 -13   69.19   27.20
   2  -5 -12 1050.99   41.20
   3  -3 -15   84.39   33.00
   3  -3 -14  -50.29   28.70
   3  -3 -12  189.18   25.70
   4   0 -16   18.00   33.80
   4   9  -5  -14.40   10.70
   4  11  -5  621.94   18.70
   5   4 -15  208.68   31.30
   5   4 -14  250.67   33.60
   5   4 -13   81.69   28.50
   5   5 -11 1651.33   48.00
  -7  -6   1  104.79   12.20
  -4  -9  -5   27.30   11.00
  -3 -10 -10  220.48   26.10
  -1  -8  -8   41.80   15.30
  -1  -6  -4   54.29    9.10
  -1   4   3 5002.10   40.50
   1  -5  -7 2099.69   37.80
   1  15   1    1.90   15.40
   2  -4  -9 1606.04   38.70
   2  -3  -7  835.82   25.40
   4   0 -15   35.00   28.00
   4   0 -14   19.00   29.10
   4   0 -13  -22.90   26.10
   4   0 -12  872.11   39.10
  -8  -5   2  316.67   18.80
  -4 -10  -8   12.70   18.40
  -3 -10 -12   12.90   24.10
  -3 -10 -11  187.08   27.80
  -2  -7  -4  173.98   10.80
  -2   4   4 4470.15   44.90
   1  -6 -10  603.04   30.70
   2   1  -3  102.09    9.40
   3  -2 -10   45.00   20.80
   3  -1  -8 1515.85   35.00
   4   1 -10    9.40   19.40
   5   5 -13  252.27   32.50
   5   6 -11  208.68   30.20
   5   7 -10   -2.80   22.10
  -7  -7   0  972.10   16.30
  -7  -5   2  263.97   16.10
  -5 -10  -7   51.39   18.30
  -2  -9  -9  178.88   24.40
  -2  -8  -6   27.40   11.40
   0  -7  -9  119.69   19.90
   1  -6 -15   33.00   27.10
   1  -6 -14   30.80   27.80
   1  -6 -11  136.99   24.50
   2  -4 -16   94.59   35.80
   2  11   0  151.08    9.20
   3  -2 -16   63.19   34.20
   3   2  -5   -2.40   10.20
   4   1 -16  -19.80   31.40
   4   1 -11   50.79   22.40
   4   2  -9   42.60   17.60
   5   5 -14   11.20   26.90
   5   8 -10   61.39   21.50
   5  13 -10   -2.70   28.20
  -2  -9 -10   54.89   22.30
  -2   1   3   70.39    8.60
  -1  -8  -9   33.40   19.90
   0  10   3  156.68   15.10
   0  11   3    6.30   12.10
   1  -6 -13  -15.80   24.40
   1  -6 -12   16.00   23.50
   2  -4 -10 1245.88   38.40
   2  -2  -6  350.96   17.80
   2  10   0   62.59    7.90
   2  12   0  140.49   11.30
   3  -2 -15    7.30   31.50
   3  -2 -11  407.06   29.20
   3   0  -7 3321.47   45.50
   3   1  -6    5.60   12.10
   4   1 -15  309.27   36.00
   5   6 -13  339.07   34.50
   5   6 -12  810.82   40.10
   5   7 -11  243.38   29.40
   5  12 -10  516.95   40.30
  -5  -3   3  310.07   16.00
  -4 -10  -9  291.77   25.00
  -3  -9  -7  243.68   19.20
  -2  -9 -13   -8.20   27.00
  -2  -9 -12   -1.80   23.30
  -2  -9 -11   -2.90   22.20
   0  -7 -10   86.29   20.30
   0   9   3 3115.59   40.70
   1  -5  -8  213.68   18.40
   1  -4  -6   29.00   11.90
   2  -4 -15   54.89   32.30
   2  -4 -14   43.40   28.20
   2  -4 -11  111.49   23.60
   3  -2 -13  177.08   27.80
   4   1 -14   45.00   27.70
   4   1 -13  246.48   30.60
   4   1 -12  493.65   33.30
   5   6 -14   37.70   28.70
   5  11 -10  284.67   33.70
  -7  -4   3  260.37   17.50
  -4 -10 -10  691.03   33.40
  -3   1   4 1177.38   23.20
  -1  -8 -14  362.26   33.50
  -1  -8 -13  145.69   29.20
  -1  -8 -10  -14.50   21.20
   2  -4 -13  498.45   35.50
   2   3  -2 2730.83   21.10
   4   2 -16  596.94   43.20
   4   2 -10   25.00   19.00
   5   7 -14    2.70   32.10
   5   7 -13   -0.60   26.90
   5   7 -12  208.68   28.90
   5   8 -11  136.29   28.00
  -6  -9  -4 1523.85   21.30
  -6  -6   1  303.27   12.80
  -5 -10  -8  200.68   23.90
  -4 -10 -11  -10.90   24.10
  -3  -1   3 2927.31   30.10
  -1  -8 -12  343.57   30.70
  -1  -8 -11  368.26   30.50
   0   4   2  107.29    7.90
   2   9   0 1404.66   14.80
   2  13   0   24.80   11.30
   3  -1 -16  141.49   35.70
   5   8 -13  146.29   34.00
   5   8 -12    1.90   29.50
   5   9 -11   14.10   27.00
   5  12 -11   85.59   36.90
  -6  -5   2   61.59   11.40
  -3  -7  -3 1223.98   18.00
  -2   3   4 1377.96   24.50
  -1   1   2  198.18    8.90
   1  -5 -15   48.70   26.40
   1  -5  -9 2128.39   43.30
   2  -3 -16  120.79   35.00
   2  -3  -9   86.89   19.20
   3  -1 -15    3.50   30.20
   3  -1 -10  248.78   24.30
   3   0  -8   -7.40   15.50
   4   2 -15   16.60   27.00
   4   2 -14  149.29   30.00
   4   2 -12  139.39   28.30
   4   2 -11   -1.00   20.30
   4   3  -9   63.29   15.80
   5   9 -12   31.70   29.20
  -5 -10  -9  388.56   27.40
  -4  -9  -6   83.69   13.90
  -3  -9  -8  814.02   29.30
  -3  -8  -5  926.91   22.40
  -3   3   5   36.60   13.40
  -2  -8  -7   99.09   13.60
   1  -5 -14   56.79   27.00
   1  -5 -10  604.24   29.80
   2  -3 -15   19.30   31.30
   2  -2  -7  831.52   25.90
   3  -1 -14   18.00   26.30
   3  -1 -11  316.87   27.90
   4   2 -13  134.09   27.50
   5  10 -12   12.80   28.50
  -6  -4   3   67.59   12.60
  -1   3   3  355.46   12.30
  -1   6   4  185.48   13.50
   0  -6  -8  940.41   28.70
   0  -4  -4   -1.70    9.80
   1  -5 -12  439.06   31.60
   1  -5 -11  337.17   27.40
   1  -4  -7  211.48   16.50
   2  -3 -10  480.35   27.30
   4   3 -15  523.35   41.20
   4   3 -10  143.39   22.90
  -3  -9 -12  127.49   27.50
  -3  -9  -9  653.73   29.20
  -1  -6  -5  206.98   12.90
   1  11   2   14.30   11.00
   1  12   2  173.38   15.10
   2  -3 -14  -16.30   26.30
   2  -3 -13  506.65   34.00
   2  -3 -11   54.79   20.40
   2  14   0   36.20   11.80
   3   0 -16  -23.10   32.00
   3   0  -9  248.48   21.80
   3   1  -7  882.31   25.10
   3   3  -5   28.40    9.80
   3   7  -3  279.27    9.50
   4   3 -14   17.70   27.50
   4   3 -11    8.10   23.00
  -6  -7   0  296.77    8.80
  -3  -9 -10  478.35   29.60
  -2  -8  -8  319.97   19.40
  -2  -7  -5 1978.40   30.20
  -1  -7 -14  195.58   30.60
   0  -6 -14   19.00   25.00
   0  -5  -6   46.00   12.00
   1  -4 -16  191.98   37.80
   1  -2  -4 1512.85   24.30
   1  10   2    6.20   12.50
   2  -3 -12  806.72   35.40
   2  -2 -16  398.86   42.00
   3   0 -15   12.10   27.30
   4   3 -13   11.20   25.20
   4   3 -12  146.49   28.10
  -2   5   5  197.98   16.40
   0  -6 -12  270.37   29.60
   0  -6 -10   31.00   20.50
   1  -4 -15   -0.90   27.10
   1   0  -2    7.40    7.60
   2  -2  -8 1161.08   31.00
   2  -1  -6 1323.07   27.90
   3   0 -10   -7.70   19.80
   4  13  -6  665.73   26.60
  -6  -3   4   10.30   13.00
  -2  -8  -9  379.16   25.00
   0  -6 -11   45.90   21.70
   1  -4  -8 2051.09   39.30
   1   9   2   77.79   12.30
   1  14   2   -3.80   17.20
   2  -2 -15  195.18   34.60
   3   0 -13 1504.85   48.90
   3   0 -12   14.40   22.40
   3   0 -11 2953.90   56.99
   3   1 -16  135.39   34.70
  -4  -8  -4  299.67   13.50
  -2  -8 -11   10.10   22.70
  -2  -8 -10  158.28   24.10
  -2   2   4  798.02   18.80
  -1  -7 -12  291.47   29.10
  -1   5   4  206.08   12.80
   1  -4 -14   29.40   26.70
   1   5   1 9999.00   34.80
   2  -2 -14    1.50   27.30
   2  -2  -9   71.59   18.40
   2  15   0  799.32   21.00
   3   1  -8 1483.95   34.10
   4   5 -15  -32.00   28.70
   4  10  -6   14.40   12.00
   4  11  -6   18.70   14.00
   4  12  -6   20.00   16.60
  -4  -5   1 2632.14   19.00
  -3  -8  -6 1239.58   27.90
  -3   0   4    5.40    8.10
  -1  -3  -1    6.70    4.90
   0  -5 -15    1.20   27.30
   0   6   3  263.17   12.10
   1  -4 -13  635.94   37.30
   1  -4  -9 1277.97   34.70
   1  -3 -16   32.90   33.50
   2  -2 -13  701.53   37.10
   2   0  -5   -4.30   10.50
   3   1 -15    9.20   28.30
   4   6  -8   69.29   14.50
  -4  -9 -11   49.99   24.40
  -4  -9  -8  415.66   24.90
  -2   0   3  421.96   12.80
  -1  -6 -15  -18.60   27.40
  -1  -6  -6  322.97   16.40
   0  -5  -7  965.40   26.10
   1  -4 -12  748.93   35.80
   1  -4 -11  282.67   26.30
   1  -4 -10  124.89   22.50
   1  15   2   41.40   17.90
   2  -2 -12   96.59   24.20
   2  -2 -11  284.07   25.40
   2  -2 -10    3.20   19.30
   2   8   0  155.28    4.80
   3   1 -14   18.50   24.30
   3   1  -9  674.23   26.80
   3   2 -16  111.99   32.60
   3   2  -7  554.24   21.80
   4   5 -14    0.60   26.20
  -5  -9  -6   18.70   16.00
  -5  -8  -3  159.58    9.40
  -4  -9 -10  803.82   33.70
  -4   0   5   10.40   11.20
  -2  -7  -6  437.06   18.30
  -2   4   5   48.50   13.60
   0  -5 -14   27.00   25.60
   1  -3 -15    3.80   29.10
   1   8   2   -9.30    8.20
   2  -1 -15  160.88   35.90
   2  -1  -7 2220.08   37.40
   3   1 -13  202.78   28.10
   4   5 -13   61.09   27.60
   4   6 -15  149.19   30.30
   4   8  -7  710.63   24.60
  -7  -5   3  172.98   15.40
  -3  -8 -13  964.40   43.30
  -3  -3   2    9.40    5.50
  -2  -7 -14  243.08   32.30
  -1  -5  -4  327.57   13.60
   0  -5  -8   86.19   16.60
   3   1 -12 1485.75   45.00
   3   1 -11  326.57   26.90
   3   2 -15   11.40   27.70
   3   3  -6  160.28   13.00
   4   6 -14    9.60   26.30
   4  14  -7   29.20   23.90
  -6  -9  -5 1007.10   23.00
  -5  -5   2   47.90   10.00
  -5  -4   3  129.89   12.80
  -3  -8 -12  102.79   27.80
   0  -5 -12   22.20   23.70
   0  -2  -2  174.38    9.30
   1  -3 -14 1357.46   49.90
   2  -1 -14   36.60   27.20
   2   0 -16  285.97   39.70
   3   2  -8 1304.57   32.60
   3   8  -3   18.70    6.20
   4   6 -13   47.20   25.60
   4   6 -10  458.05   28.70
   4   9  -7   34.20   13.70
  -7  -6   2  344.87   15.20
  -5  -9  -7   89.89   20.60
  -1  -6  -7   74.19   13.40
  -1   2   3 2504.15   26.20
   0  -5 -11  116.29   24.20
   0  -5 -10   -1.10   19.00
   0  -5  -9   -6.10   15.70
   0  -4 -15   25.40   27.90
   1  -2 -16   69.29   32.80
   1  -2  -5 4245.78   42.50
   2  -1 -13  139.89   26.80
   2  -1  -8 2341.77   41.30
   3   2 -14   80.39   28.20
   4   6 -12   77.39   26.00
   4   6 -11  891.91   37.70
   4   7 -14   10.00   27.60
   4  10  -7   -4.10   14.00
  -3  -8 -11   80.59   22.50
  -3  -8 -10  233.48   25.40
  -3  -8  -9  215.38   24.10
  -3  -8  -8  335.77   24.20
  -2  -7 -12   64.79   24.70
  -2  -7  -7  459.55   20.50
  -1   4   4   -6.40    8.60
  -1   7   5   37.70   13.30
   0   9   4 4416.46   49.50
   1  -3 -13   16.50   24.90
   2  -1 -12  112.29   24.70
   2  -1  -9  563.84   25.70
   2   0  -6 1001.40   24.70
   3   2 -13  171.48   28.40
   3   2  -9  128.79   18.20
   3   3 -15  111.99   31.00
   4   7  -9  287.67   21.60
   4  11  -7   -2.00   19.10
   4  12  -7  141.99   26.10
  -5  -9 -10  117.99   26.10
  -5  -9  -9   11.60   22.50
  -5  -9  -8   55.49   19.90
  -5  -3   4  462.75   18.40
  -3  -2   3 1864.31   23.40
  -3   1   5  368.86   15.90
  -2  -7 -11  110.39   24.60
  -1  -6  -8  -12.00   13.90
   0   5   3  327.07   12.90
   1  -3 -12 1314.67   42.90
   2  -1 -10   -3.50   19.20
   2   0 -15   50.79   29.20
   3   2 -12  704.43   34.20
   3   2 -11  439.36   28.80
   3   2 -10   39.70   20.50
   3   3  -7  793.12   24.20
   3   4 -16  100.59   31.30
   4   7 -12  301.97   31.60
   4   7 -11   -2.10   24.10
   4   7 -10  120.09   24.60
   4   8 -14  -30.80   29.80
  -4  -8  -5   -7.90   11.70
  -2  -7  -9   37.10   19.90
  -2  -7  -8   31.40   14.20
  -2   3   5   43.20   11.70
   0  -4 -14  136.49   28.60
   0  -4  -6  222.88   15.80
   0  -3 -16  -13.60   31.10
   1  -3 -10  125.29   21.70
   1  -3  -9  234.68   20.00
   2   0 -14   -0.70   27.00
   2   1 -16  110.99   34.70
   3   3 -14   23.10   26.90
   4   8 -13  -31.80   26.00
   4   8  -9  122.89   22.20
   4   9 -14    0.20   31.00
  -6  -9  -6 1005.90   27.30
  -4  -8 -12  698.13   37.70
  -3  -6  -2    9.10    5.40
  -2   1   4   55.29    8.70
   0  -1  -1   -5.90    3.60
   1  -2 -14  868.11   43.80
   1  -1 -16   38.80   32.80
   3   4 -15   44.00   27.10
   3   4  -6   -2.30   10.00
   4   8 -12  110.89   27.90
   4   8 -11   -5.20   25.00
   4   8 -10   35.60   23.90
   4   9 -13  -10.20   32.70
   4  10  -8  665.53   29.40
  -6  -5   3  534.55   17.70
  -6  -4   4   30.80   11.90
  -5  -6   1   11.60    6.60
  -5  -2   5 1076.59   26.60
  -2  -6 -14   86.99   26.90
  -1   6   5  334.37   17.50
   0  -4 -13   20.80   23.80
   1  -2  -6   30.80   12.10
   1  -1  -4 1271.97   22.90
   2   0 -13   -7.50   23.30
   2   0  -7   19.80   13.10
   2   1 -15  172.78   32.50
   2   1  -5  133.19   12.40
   2   4  -2 1970.40   17.60
   3   3 -13   27.40   24.30
   3   3  -8   62.49   15.60
   4   9 -12  -12.30   27.10
   4  11  -8  -21.50   22.80
   4  12  -8    5.20   25.00
   4  13  -8   -1.00   29.90
  -6  -9  -9   33.90   21.90
  -6  -9  -8   -8.00   22.10
  -6  -9  -7  113.99   20.40
  -4  -8 -11  237.48   28.30
  -4  -1   5    5.00   10.10
  -3  -7 -13  -16.80   27.20
  -3  -1   4 1139.99   21.50
   0  -4 -12   17.30   23.70
   0  -4  -7   17.00   13.40
   0  -3 -15   -2.00   28.00
   0  -3  -4 3889.11   36.40
   2   0 -12  224.48   27.40
   2   2 -16  385.86   41.80
   3   3  -9  356.76   22.10
   3   4 -14   33.00   27.10
   4  10 -12   -8.90   32.00
   4  14  -9   12.10   29.00
  -7  -7   1  290.17   11.10
  -4  -8  -6   19.00   13.20
  -2  -6 -13   33.00   26.10
   0  -4 -11  -14.20   20.20
   1  -1 -15   59.49   31.60
   2   0 -11  -23.40   21.30
   2   0  -8 1405.96   33.30
   3   3 -11   14.30   19.50
   3   3 -10   92.19   20.70
   4  10 -11  117.39   29.20
   4  11  -9  251.67   26.60
   4  13  -9  106.59   33.30
  -4  -8 -10  128.09   24.90
  -3  -7 -12  384.46   30.80
  -1  -4 -15   84.39   28.90
   0  -4 -10   36.60   19.90
   0  -4  -9   23.80   16.70
   0  -3 -14  427.66   36.10
   1  -2 -12  103.29   23.60
   1  -2  -7   38.30   13.40
   1   0 -16  -22.30   33.70
   1  12   3  376.26   20.80
   1  13   3 1519.65   32.70
   2   0 -10   64.29   20.40
   2   0  -9   23.50   15.90
   2   1 -14   23.10   26.00
   2   2  -4  802.02   17.80
   3   4 -13   49.40   25.80
   3   4  -7 1080.09   27.40
   4  11 -11   11.60   24.40
   4  12  -9  118.69   25.90
  -4  -8  -9  144.79   22.70
  -4  -8  -8  228.88   21.30
  -4  -8  -7  -23.10   17.20
  -2  -6 -12  192.08   28.10
  -1  -5 -12  325.97   29.40
  -1  -4  -3 1177.58   18.40
  -1   0   2   -0.60    6.20
   1  -2 -11   48.30   21.10
   1  -1 -14  107.79   28.00
   1  11   3  828.12   24.00
   1  14   3  293.47   22.90
   2   3 -16  104.19   36.40
   3   4 -12   57.89   25.00
  -5  -8  -4   20.80   10.60
  -3  -7 -11   88.89   24.70
  -1  -5 -11  673.13   33.50
  -1  -5  -6  405.36   16.90
  -1  -4 -14  229.28   32.30
  -1   5   5   95.69   12.70
   0  -3 -13  439.66   34.40
   1  -2 -10  240.28   23.50
   1  -2  -9  -12.70   15.20
   1  -2  -8   36.50   14.90
   2   1 -13  135.09   25.80
   2   1  -6 1277.97   27.00
   3   4  -8  257.47   19.10
  -5  -8 -11  113.49   26.20
  -3  -7 -10    3.10   22.50
  -3   0   5   11.60    9.30
  -2  -5 -14  398.06   35.00
  -2  -2   2  220.08    8.40
  -2   2   5   71.79   11.60
  -1  -5 -10   22.00   20.30
   1  -1 -13  236.78   29.00
   1   0 -15   20.50   31.40
   1   0  -3  651.03   15.40
   1  10   3  336.17   17.60
   2   1 -12  128.09   24.30
   2   2 -14  -22.80   28.00
   2  13   1  117.19   12.10
   3   4 -11   10.80   20.30
   3   4 -10  183.08   23.40
   3   4  -9   66.79   16.70
  -3  -7  -6 1058.69   25.60
  -1  -5  -8   68.29   15.00
  -1  -5  -7  113.09   13.50
   0  -3  -5  564.54   18.60
   0  -1 -16  -10.40   30.60
   0   4   3   58.89    8.30
   1   1 -16   20.60   33.60
   2   1  -7 2226.58   37.50
   2   3 -15   23.00   28.60
   2   4 -16  158.08   34.50
   2  12   1  211.68   13.60
  -5  -8 -10  -21.00   22.50
  -4  -7 -12  254.47   31.80
  -3  -7  -9  153.48   23.10
  -3  -7  -8   17.70   17.40
  -3  -7  -7  132.49   15.70
  -3  -6 -13  592.94   37.50
  -2  -6 -10   18.50   20.90
  -2  -1   3  100.99    8.50
  -1  -4 -13   -9.30   26.70
  -1  -3 -15  173.38   31.80
   0  -3 -12   -8.00   22.10
   0  -2 -14  164.68   30.60
   1  -1 -12   24.80   23.20
   2   1 -11    0.60   21.40
   2  14   1  170.38   14.20
   3  10  -3  570.54   13.30
  -4  -7  -3 2853.11   27.50
   0  -3 -11  324.77   27.00
   0   6   4   -3.50    8.70
   1   9   3  640.74   19.70
   2   1 -10  -14.80   18.10
   2   1  -9  449.86   23.50
   2   1  -8 2248.28   40.50
   2   2 -13  641.24   37.80
   2  11   1   21.50    8.90
   3  14  -3   13.20   12.90
  -5  -8  -9   17.60   20.70
  -5  -8  -5   59.89   13.00
  -1  -4 -12  -11.10   25.20
   0  -1 -15    6.90   30.00
   1  -1 -11   58.59   22.10
   1   1 -15   24.10   31.40
   1   2 -16  100.69   35.00
   2   2  -5   72.49   11.50
   2   3 -14  -14.20   27.60
   2   4 -15   53.19   28.80
   3   8 -14    2.90   28.80
  -7  -6   3  168.58   14.10
  -5  -8  -8   27.20   20.10
  -5  -4   4  -10.80   11.70
  -5  -3   5 1720.63   31.60
  -3  -6 -12  208.68   28.70
  -2  -3   1  450.45    6.80
  -1  -3 -14  929.71   43.80
   0  -3 -10   45.60   20.20
   0  -3  -6  497.55   19.00
   0  -2 -13  973.10   41.70
   0  -2  -3   48.40    9.40
   0   0 -16   64.49   34.40
   0   9   5  256.67   18.20
   1  -1  -6   57.69   13.00
   1   0 -13  160.88   28.10
   2   2 -12   62.19   22.80
   2  15   1  121.39   15.30
   3   7 -13  215.38   30.50
   3   8  -4  378.96   13.70
  -6  -8  -3 1718.73   22.80
  -5  -8  -7   22.10   19.30
  -5  -8  -6  -10.60   15.40
  -3  -5 -14  152.08   30.40
  -2  -5  -3  116.79    9.20
  -2   3   6  699.23   23.30
  -1  -4  -4  806.22   18.30
  -1   4   5  766.22   20.60
   0  -3  -9   87.89   16.90
   0  -3  -7   77.69   13.60
   1  -1 -10  172.48   23.00
   1  -1  -7   17.40   12.90
   1   1  -2  224.78    8.50
   2   3 -13  474.75   35.20
   3   7  -5    7.40    9.50
   3   9 -14  200.28   33.30
   3  11  -3   77.29    8.80
  -6  -4   5    7.40   13.10
  -4  -7 -10   71.19   22.60
  -4  -6 -13   64.19   28.50
  -4  -4   3  519.35   14.50
  -1  -4 -11   31.40   20.50
  -1  -2 -15  277.97   32.80
   0  -1 -14  237.18   32.80
   1  -1  -8  326.77   20.10
   1   4   1  167.58    5.90
   2   2 -11  308.97   26.30
   2   5 -15   23.50   28.70
   2  10   1  164.38    9.20
   3   7 -12   -7.40   24.90
   3   8 -13  401.96   36.60
  -6  -8  -9   62.99   24.70
  -3  -6 -11   28.40   23.50
  -3  -6  -3  638.24   14.80
  -1  -3 -13  427.96   33.80
   0  -2 -12  426.56   29.90
   0   8   5 3283.17   43.50
   1   0 -12   -9.80   21.50
   1   2 -15  143.69   33.90
   1   3 -16   25.20   33.70
   1   8   3  133.19   11.50
   2   2 -10   -9.20   18.30
   2   3  -4 1400.16   22.50
   3  12  -3    9.30    9.90
   3  13  -3  299.57   14.70
  -7  -8  -2  130.19   10.20
  -6  -5   4   57.39   13.50
  -4  -7  -9   80.49   21.50
  -3  -5 -13   84.99   28.10
  -2   1   5  108.79   11.90
   0   0 -15   18.00   31.00
   0   1 -16   22.50   31.80
   0   2   2  150.38    7.70
   2   6 -15  -15.90   28.70
   3   7 -11  -11.70   23.60
   3   8 -12   83.79   27.40
   3   9 -13   -5.10   26.80
  -6  -8  -8  -10.90   23.20
  -5  -7 -11   39.20   25.00
  -4  -7  -4  251.37   14.50
  -4  -6 -12  282.17   32.80
  -3  -6 -10    5.40   21.40
  -1  -4  -9  -11.20   15.70
  -1  -4  -5 2276.17   32.00
   0  -2 -11   10.30   21.10
   0  -1 -13  108.29   28.40
   0   5   4  358.96   14.40
   1   0 -11    1.90   20.80
   1   1 -13  237.08   28.60
   2   5 -14  118.39   30.20
   3   9  -4  104.99   11.50
   3  10 -13   23.00   31.00
  -4  -7  -8  145.59   21.90
  -3  -1   5  399.66   15.70
  -1  -3 -12  167.68   27.50
  -1  -2 -14  857.41   43.50
   1   2 -14  790.02   42.60
   1   3 -15   27.70   30.30
   2   3 -11   27.20   21.40
   3   7 -10   22.40   21.60
   3   8 -11  118.29   26.80
   3   9 -12  292.27   32.40
   3  11 -13  140.89   32.90
  -6  -8  -7   42.40   20.90
  -6  -8  -4   11.40   12.80
  -3  -6  -9   -0.70   18.80
  -3  -4 -14   77.99   28.80
  -2  -3 -14   12.50   27.70
  -1  -4  -8   34.40   14.10
  -1  -4  -7   82.69   14.30
   0  -2 -10  450.95   27.80
   0  -2  -4  365.86   14.60
   1   0 -10   11.90   18.50
   1  12   4 2076.39   39.70
   3   7  -9   -7.90   15.60
   3   7  -8   25.90   15.20
   3   8  -5 3402.16   38.80
  -7  -8  -8   36.00   23.00
  -6  -8  -6  331.27   22.90
  -4  -7  -7   27.90   16.90
  -4  -7  -6   52.09   14.70
  -4  -7  -5   -3.20   12.40
  -3  -5 -12   -6.20   22.80
  -2   2   6  339.67   19.30
  -1  -3  -2  300.17   10.20
   0  -1 -12  -18.30   22.50
   0   1 -15  -34.30   30.60
   0   2 -16  -15.90   32.60
   1   0  -9  680.63   28.10
   1   0  -5  468.65   17.60
   1   1 -12   37.70   22.50
   1  11   4   37.00   13.50
   2   3  -5   33.40   11.10
   2   4 -12  569.54   33.40
   2   5 -13   35.20   27.60
   2   6 -14  324.47   33.70
   3   8 -10  133.59   26.50
   3   9 -11  569.74   35.30
   3  10 -12   84.89   27.70
   3  11 -12   30.50   33.00
  -6  -7   1   72.09    6.90
  -4  -6 -11  353.36   30.00
  -4  -5 -13   19.00   27.30
  -3  -6  -8  174.68   18.30
  -3  -6  -4   21.90    9.00
  -1  -3 -11   97.39   22.80
  -1  -2 -13  433.66   33.80
   0  -2  -9  225.48   20.80
   1   4 -15  -17.00   29.00
   2   3  -9   76.69   18.10
   3  12 -12   60.49   33.30
  -7  -7   2   10.90    9.30
   0  -2  -8  318.47   20.20
   0  -2  -5 3627.04   39.50
   1   0  -8    2.60   14.60
   1   0  -6   -5.80   11.60
   1   1 -11   90.69   22.70
   1   2  -1   34.20    5.50
   1  10   4   12.50   13.50
   2   5  -2  144.29    7.70
   2   9   1  100.69    7.90
   3   8  -9  333.57   24.60
   3   9 -10   20.20   24.00
   3  10 -11  565.24   36.20
   3  10  -4  149.09   12.10
  -7  -8  -7   14.80   21.60
  -6  -7 -10    4.60   25.40
  -6  -6   3  266.37   14.60
  -5  -7  -9   -3.10   23.00
  -3  -6  -7   18.80   13.10
  -3  -6  -6   89.69   13.60
  -3  -6  -5 1527.65   27.40
  -3  -5 -11   72.79   25.00
  -3  -4 -13   -5.30   27.80
  -2  -4  -1 2521.85   15.90
  -2  -3 -13  415.46   34.30
  -1  -1 -14  190.48   31.40
  -1   0 -15   70.09   32.20
   0  -2  -7   81.09   13.90
   0  -2  -6   38.60   12.50
   0   0 -13  -19.20   22.70
   0   3 -16  -10.80   31.70
   2   3  -8  292.97   19.80
   2   3  -7  797.92   24.40
   2   5 -12 1057.09   43.50
   2   6 -13  300.77   34.20
   3   8  -8  531.75   23.10
   3   9  -5   12.50   11.90
   3  11 -11  169.38   31.10
   3  15  -4   85.99   19.40
  -4  -6 -10   13.50   21.90
  -1  -3 -10  463.95   27.50
  -1  -2 -12  120.99   26.50
   0   1 -14  191.18   31.70
   0   2 -15  499.95   40.50
   1   2 -12   81.59   24.20
   1   5   2  525.35   11.30
   2   4 -10 1218.48   38.20
   2   8 -14  178.98   33.50
   3  10 -10  455.65   31.80
   3  12 -11   65.69   32.00
  -7  -8  -6  152.38   22.90
  -7  -6   4   19.80   12.70
  -5  -7  -8   14.70   20.60
  -5  -4   5   76.69   13.40
  -4  -5 -12  123.19   26.50
  -2  -2 -14  575.94   38.80
  -2  -1 -15   58.59   29.70
  -1   4   6    1.70   12.50
   1   1 -10  220.08   23.50
   1   3 -13   17.00   24.80
   1   4 -14   49.80   27.90
   3   9  -6  167.88   16.80
   3  11 -10   11.80   23.70
   3  11  -4   57.39   10.90
  -7  -8  -3    0.90   12.30
  -5  -6 -11   41.20   25.80
  -5  -6   2 5682.53   33.00
  -3  -5 -10   52.79   23.50
  -2  -4 -10 1135.19   38.00
  -2  -3 -12  197.08   30.20
  -1  -1 -13   53.29   27.30
   0  -1 -10   36.70   21.40
   0  -1  -2  119.59    8.70
   0   0 -12  364.76   30.00
   0   4   4    0.40    8.30
   1   1  -3  923.61   17.30
   1   9   4  153.58   14.90
   2   9 -14    0.00   26.90
   3  12 -10   19.50   24.50
  -7  -8  -5  193.48   21.00
  -7  -8  -4   95.79   17.20
  -6  -7  -9   -6.90   22.80
  -4  -6  -9   73.79   22.80
  -3  -4 -12   21.20   24.00
  -2  -1   4   73.59    9.40
  -1   1 -15  163.58   37.50
   0   1 -13  142.39   26.00
   0   3 -15  -15.00   31.30
   1   1  -9   22.50   16.10
   1   2 -11   -0.40   21.90
   1   6 -15   30.90   27.60
   2   4  -9 1575.04   38.00
   2  10 -14   19.30   30.30
   2  13   2 1322.37   26.00
   3  10  -5   13.40   12.40
   3  14  -4   25.00   19.70
   3  15  -9  686.73   43.50
  -6  -5   5   18.60   12.80
  -5  -7  -7  775.82   28.10
  -5  -7  -2  220.88    9.70
  -4  -4 -13   40.80   26.30
  -2   1   6 1292.87   28.90
  -1  -3  -8  333.27   21.70
  -1  -2 -11   34.70   21.50
  -1   1   4 1281.27   21.60
   0   2 -14  170.38   31.30
   2  12   2  955.30   21.70
   2  14   2   72.89   13.90
   3  12  -4  287.47   15.60
   3  13  -4    5.40   14.20
   3  14  -9   75.69   33.70
  -5  -5 -12   81.79   31.10
  -4  -5 -11   37.80   24.50
  -3  -5  -9   75.19   20.90
  -2  -4  -9 1869.61   41.30
  -2  -2 -13   30.90   25.30
  -1  -3  -3  189.28   10.70
   0  -1  -9 6463.45   71.89
   0   0 -11  -15.60   20.50
   1   1  -8  352.26   20.70
   1   3 -12 1331.47   44.90
   1   4 -13  617.24   38.50
   1   7 -15   21.30   28.00
   2   4  -7  108.89   15.60
   2   4  -5   30.10   10.80
   2   6 -11   29.50   24.00
   2   9 -13   -2.80   27.30
   2  15   2   26.70   16.10
   3  10  -6  106.89   15.10
   3  15  -8    3.50   29.40
   3  15  -5   -0.50   24.20
  -5  -7  -6  969.30   27.90
  -4  -6  -8  935.41   34.30
  -3  -2   5   10.40    9.00
  -2  -3 -11  122.49   26.10
  -2  -2   3  776.82   14.80
  -2  -1 -14  148.09   31.40
  -2   0 -15   10.10   29.70
  -1  -3  -7 1050.59   28.10
  -1  -1 -12    4.20   22.90
   0   4 -15   46.10   32.50
   1   1  -4 1253.87   22.40
   1   2 -10  234.38   24.90
   1   8   4  823.02   22.00
   3  11  -7   26.70   17.50
   3  12  -8   15.70   20.80
   3  13  -8  107.79   26.00
   3  14  -8  220.78   34.60
   3  15  -7   42.80   27.80
   3  15  -6   69.39   28.30
  -6  -7  -8   23.80   20.70
  -1  -2 -10   45.10   20.50
  -1   2 -15  270.87   40.10
   0  -1  -8  316.47   19.90
   0   1 -12   -1.70   22.70
   0   5   5   84.09   11.20
   1   1  -7    6.80   13.20
   1   6 -14   13.40   29.20
   2  10 -13   47.80   29.40
   2  11   2 1366.16   22.80
   3  11  -6   17.20   13.80
   3  12  -7    2.40   19.40
   3  12  -5   30.90   13.90
   3  14  -7   56.69   29.20
   3  14  -5   38.70   19.60
  -5  -7  -5  -19.70   12.60
  -3  -5  -8   19.70   14.80
  -2  -4  -8  359.56   20.80
  -1  -3  -6 2990.60   40.10
  -1  -3  -5 1599.14   28.00
  -1  -3  -4 1766.52   26.10
  -1   0 -13  450.15   34.70
  -1   1 -14  177.88   31.30
   0   2 -13  942.31   41.40
   1   1  -5 3049.40   36.60
   1   3 -11  132.29   24.40
   1   5 -13  110.69   28.70
   1  11   5  306.67   20.60
   2   6 -10  317.57   27.50
   2  11 -13   89.99   32.20
   3  12  -6   65.49   15.90
   3  13  -7   46.90   22.60
   3  13  -5  347.77   21.50
   3  14  -6  -19.10   23.70
  -6  -6 -10  240.88   30.50
  -5  -7  -4   40.50   11.60
  -5  -7  -3  135.89   11.30
  -5  -6  -9   23.80   21.50
  -4  -6  -7  783.12   28.00
  -2  -2 -12  112.09   26.40
   0  -1  -7    7.40   13.30
   0   0 -10 4197.88   63.59
   0   5 -15  -38.30   32.00
   1   2  -9  -20.00   15.60
   1   4 -12  715.13   36.50
   1   7 -14  268.97   36.50
   2   9 -12   58.49   27.60
  -7  -7  -8   26.70   24.30
  -5  -5 -11  138.39   29.00
  -3  -3   4   12.30    7.50
  -2  -4  -7 1464.95   32.50
  -2  -3 -10  166.98   23.00
  -2  -1 -13    6.20   27.40
  -2   0 -14   73.79   29.90
  -2   1 -15   61.89   35.70
  -1  -2  -9  104.49   19.10
  -1  -1 -11   97.99   23.40
   0  -1  -3  431.86   13.70
   2   5  -3  368.56   11.90
  -7  -6   5   -0.90   15.30
  -6  -6   4  172.98   15.80
  -4  -6  -1   26.10    6.40
  -1   3 -15  149.99   36.60
   0  -1  -6   46.50   13.00
   0   1 -11  349.57   28.60
   0   4 -14  141.49   32.10
   1   6 -13    5.90   26.20
   1  10   5   40.10   14.20
   2   5  -7  120.79   15.30
   2   6  -9  473.85   25.70
   2  10 -12  496.25   37.80
  -7  -7   3   -6.90   10.40
  -5  -4   6  932.61   26.50
  -4  -6  -6    6.90   13.90
  -1   0 -12   13.60   23.00
  -1   1 -13   39.10   28.90
   0  -1  -5  249.08   15.30
   0  -1  -4 2361.96   29.30
   0   0  -9   -3.50   16.40
   0   2 -12  386.56   31.10
   0   2   3   43.30    8.60
   0   3 -13  448.16   35.30
   1   2  -8   29.30   15.70
   1   7   4  104.49   12.10
   2   8   1    6.10    4.40
   2  10   2   40.50    9.60
   2  11 -12   64.89   28.30
   2  12 -12   37.20   35.20
  -6  -5 -11   70.19   28.50
  -5  -6  -8  949.21   34.60
  -5  -4 -12   18.60   28.30
  -4  -5  -9  834.02   35.00
  -4  -4 -11  535.65   34.80
  -2  -4  -6 1421.26   29.50
  -2  -4  -2  393.36   10.70
   1   7 -13   23.20   29.00
   2   5  -6    2.40   11.50
   2   9 -11  713.63   37.80
   2  13 -12   14.60   32.80
  -7  -7  -7   36.30   23.60
  -6  -7  -6   -0.10   19.30
  -6  -6  -9   16.00   24.20
  -2   0   6  955.60   24.40
  -2   2 -15  103.69   35.50
  -1  -2  -8   19.80   15.20
  -1  -1 -10 1098.59   37.50
  -1   4 -15   65.29   35.40
   0   5 -14    4.90   28.40
   0   7 -15  586.94   42.90
   1   9   5   15.80   14.40
   1  10 -14   -2.60   28.30
   2   5  -5  173.08   11.90
   2  10 -11  616.14   39.80
  -5  -5 -10   24.50   23.90
  -4  -5   3   53.79   10.30
  -4  -3 -12  456.15   36.20
  -2  -4  -5 1429.26   26.90
  -2  -1 -12  228.28   30.40
  -2  -1   5  121.29   11.40
  -2   0 -13   18.70   27.00
  -2   1 -14  149.99   31.20
   0   1 -10   35.60   20.70
   0   4 -13    5.10   25.90
   1   2  -7   33.00   13.70
   1   3  -9  234.68   20.40
   1   6 -12   -7.10   25.70
  -7  -6  -9  261.47   32.80
  -4  -2 -13   -9.30   26.50
  -3  -2 -12  111.19   27.40
  -3   0 -14  -12.60   28.10
  -2  -4  -4   89.99   10.60
  -2  -4  -3  316.87   12.10
  -1   0 -11   71.29   24.00
   0   2 -11   34.70   23.10
   0   3 -12  -17.50   23.00
   0   6 -14   26.80   30.50
   1   4 -10  170.58   24.00
   1   5 -11  370.56   30.70
   2  11 -11  296.87   32.40
  -6  -7  -5  518.95   24.20
  -6  -7   2    0.50    8.40
  -5  -5   5  344.57   17.80
  -4  -6  -4  373.26   15.70
  -3  -2   6  208.68   15.20
  -3  -1 -13  122.19   28.50
  -2  -3  -8   77.59   17.80
  -2  -2 -10  155.78   24.10
  -2   3 -15  590.74   48.40
  -1   1 -12   10.60   23.40
  -1   2 -13  436.76   35.80
  -1   2   6   25.50   12.40
  -1   5 -15  162.68   35.60
   1   2  -6   21.10   12.60
   2   6  -7  219.48   17.30
   2   9 -10  701.13   36.10
   2  13 -11   64.09   34.60
   2  14 -11   10.10   35.00
  -7  -7  -6  169.48   24.90
  -6  -5 -10   58.79   27.50
  -5  -6  -7  223.28   22.20
  -5  -6   3 1259.07   20.10
  -5  -4 -11  957.80   40.90
  -4  -6  -2  337.07   11.00
  -4  -4 -10  306.47   29.50
  -2  -3   2 2454.65   19.90
  -1  -1  -9   18.70   16.20
  -1   0   4    4.70    8.30
   0   0  -7   -0.30   13.30
   0   1   2  131.99    7.90
   0   5 -13   19.80   28.30
   0   5   6   33.40   12.50
   1   3  -8   11.40   17.10
   1   5   3  282.87   11.60
   1   7 -12  169.38   29.80
   1   8   5  424.86   19.70
   2  13   3   32.80   14.20
  -6  -6  -8   63.59   24.40
  -5  -5  -9  289.97   27.60
  -5  -3 -12  998.90   45.50
  -2  -1 -11  820.22   37.00
  -2   2 -14  578.14   41.30
  -1   4 -14  218.28   36.70
  -1   6 -15  -44.50   35.90
   0   1  -9 6577.44   73.89
   0   7 -14  295.77   36.30
   1   2  -5 4338.07   43.60
   1  10 -13   23.10   31.60
   2   6  -6  348.07   18.10
   2  10 -10  605.14   35.70
   2  12   3 5954.20   51.49
  -4  -3 -11  274.37   31.20
  -2   0 -12  180.68   29.60
  -2   4 -15  440.16   46.00
  -1  -2  -6 1677.33   31.50
   0   2 -10  489.25   29.20
   0   4 -12   51.99   24.70
   1   2  -4 1491.65   24.60
   1   4  -9 1215.98   34.80
   1   5 -10  589.94   31.60
   1   6 -11  140.59   24.50
   1  11 -13   92.99   32.00
   2   9   2  163.98   10.70
   2  11 -10  290.87   31.20
  -6  -7  -4  252.67   17.00
  -6  -6   5   78.79   15.80
  -6  -4 -11   30.60   28.20
  -3  -2 -11  623.04   36.10
  -3   1 -14   45.60   29.00
   0   0  -6   24.20   14.90
   0   3 -11  289.67   27.40
   0   6 -13   20.00   28.30
   0   8 -14   32.00   28.90
   2   9  -9    9.70   22.40
   2  13 -10   14.20   31.40
  -7  -7   4   46.40   12.90
  -7  -6  -8  213.88   29.80
  -5  -6  -6  951.30   29.50
  -4  -5  -7  447.66   22.30
  -3  -1 -12  402.96   34.50
  -3   0 -13   21.10   27.70
  -2  -2  -9    7.40   17.00
  -1  -1  -8 1263.17   33.80
  -1   1 -11  158.58   24.60
   1   3  -7  172.18   16.40
   2  11   3  137.99   15.10
  -7  -7  -5   -9.60   19.50
  -5  -4 -10  358.46   31.80
  -2   3 -14   32.50   31.00
  -1  -2  -5 4408.56   45.30
   0   1  -8  319.17   21.30
   0   5 -12  -14.80   25.50
   1   7 -11   57.39   26.00
   1   7   5  323.67   16.50
   2  10  -9  436.46   30.90
  -6  -6  -7  147.79   24.00
  -6  -5  -9   57.49   24.60
  -5  -5  -8  171.58   25.00
  -2  -1 -10   13.60   21.60
  -2   2 -13   10.80   27.80
  -1   4 -13    9.30   26.60
   0   7 -13  185.68   32.60
   1   4  -8 1985.40   40.80
   1   6 -10  686.73   34.10
   1  10 -12   17.50   27.80
   2  11  -9   59.99   26.50
  -6  -7  -3  143.79   13.20
  -5  -3 -11  225.88   31.40
  -4  -3 -10  309.07   30.10
  -3   2 -14  110.59   31.80
  -2  -1   6 1281.67   27.30
  -2   0 -11    8.40   23.60
  -2   1 -12  250.87   31.20
  -1  -1   3  945.11   16.40
  -1   0  -9 1706.23   41.00
  -1   6 -14  -46.50   32.10
   0   0  -5    4.30   12.00
   0   2  -9  241.98   21.70
   0   2   4  370.56   13.60
   0   3 -10   13.00   21.30
   1   3  -6 1251.97   28.80
   1   5  -9 2144.89   45.90
   1  12 -12   48.80   31.40
   2   9  -8  334.17   22.40
   2  12  -9   64.49   25.60
   2  13  -9   44.90   28.40
  -8  -7  -5   43.10   24.00
  -7  -5  -9  887.21   41.00
  -5  -5   6  132.29   16.10
  -5  -2 -12   12.30   28.10
  -4  -5   4  183.78   14.50
  -3  -2 -10  626.84   32.70
  -3   1 -13   87.19   30.40
  -2  -3  -6 2326.37   37.10
  -2   4 -14  180.38   36.50
  -1   1   6   48.80   15.30
  -1   3 -12  180.68   28.60
   0   6 -12  264.57   32.60
   0   8 -13 1303.17   53.19
   1  13 -12  150.58   41.40
   2  10   3  141.19   13.20
  -7  -6  -7   -1.70   22.80
  -5  -6  -5   35.70   14.70
  -4   0 -13  -22.80   28.40
  -3  -1 -11 1252.17   45.00
  -3   0 -12   -3.80   26.30
  -2  -2  -8   36.30   15.90
  -1  -1  -7  128.99   15.40
  -1   1 -10 1092.99   38.10
  -1   2 -11   18.60   22.20
  -1   7 -14  192.58   34.40
   0   1  -7   13.00   13.80
   1   7 -10   19.90   21.90
   2  10  -8    6.80   17.90
   2  16  -8   51.69   33.40
  -7  -7  -4   66.39   18.80
  -6  -7  -2  881.61   18.30
  -6  -7   3  866.61   17.40
  -6  -3 -11  136.79   32.70
  -5  -6   4  586.74   17.70
  -3  -3  -8  112.79   18.30
  -2   3 -13  447.06   37.90
   0   0  -4  479.05   16.70
   0   9 -13  452.25   40.10
   1   3   1    8.50    4.60
   1   8   6 1300.47   31.20
   2  11  -8  111.09   24.90
  -8  -6  -7    3.40   26.30
  -6  -6  -6  724.73   29.90
  -6  -6   6  187.68   17.70
  -6  -5  -8   67.99   24.40
  -3  -3   6  157.38   14.40
  -2  -1  -9   -1.90   17.60
  -2   5 -14  399.36   43.30
  -1   8 -14  336.97   38.50
   0   2  -8  320.37   22.70
   0   5 -11   96.59   24.40
   0   7 -12  294.87   33.40
   1   4  -7  196.48   16.60
   1   5  -8  194.78   20.70
   1   6  -9   59.19   19.20
   1  10 -11  752.62   41.10
   2   9  -7   32.20   13.60
   2  13   4 1937.61   37.80
  -7  -7   5    6.10   13.90
  -5  -5  -7 4150.68   59.79
  -3   2 -13  -17.50   28.90
  -2  -3  -5 4029.00   44.30
  -2   2 -12  119.49   28.80
  -1   0  -8  -14.00   15.20
  -1   4 -12   11.60   23.20
  -1   6 -13    3.30   29.80
  -1   9 -14   44.90   31.90
   0   1   3  426.66   13.60
   0   4 -10   40.40   21.90
   0  11 -13   42.80   30.30
   2   8   2   75.09    9.70
   2  12   4   59.09   16.90
   2  17  -7   -5.60   28.30
  -8  -7  -4  470.25   27.40
  -5  -3 -10  136.69   28.50
  -5  -2 -11  579.74   38.60
  -5  -1 -12  107.39   30.80
  -4   1 -13   56.79   29.60
  -3  -2  -9   91.19   22.90
  -3   4 -14  135.49   38.20
  -2  -3   3 1693.23   21.00
  -2   0 -10    8.60   22.30
  -2   1 -11  819.02   37.60
  -2   6 -14  118.29   36.90
  -1  -1  -6   96.99   15.60
  -1   3 -11   67.79   25.90
   0   0  -3    5.00   10.00
   0   1  -6   35.00   13.40
   0   8 -12  352.06   36.30
   1   4   3 1126.49   18.80
   1  12 -11   -9.80   29.70
   1  13 -11  191.38   39.60
   1  14 -11  664.13   50.99
  -7  -5  -8   -9.90   26.30
  -5  -6  -4    1.00   12.90
  -4  -5  -5    5.70   12.00
  -4   0 -12   80.09   30.40
  -2  -2  -7  575.14   23.30
  -2   4 -13   22.20   30.00
  -1   1  -9   11.20   18.00
  -1   2 -10   17.10   22.60
  -1   7 -13  227.98   35.30
   0   3   6  505.85   19.50
   0   6 -11   98.49   24.80
   1   7  -9  399.46   28.50
   1   7   6   59.49   15.10
   2   9   3   37.80   11.30
   2  16  -7    8.40   30.20
  -7  -6  -6  -17.60   21.80
  -6  -7  -1  762.02   15.10
  -6  -4  -9   23.70   22.30
  -4  -4  -7  590.64   26.00
  -3  -1 -10 1715.73   47.60
  -3   0 -11 1288.07   47.20
  -1   5 -12  281.87   33.30
   0   9 -12  461.55   37.70
   1   3  -4 5868.81   46.30
   2  11   4  743.23   24.20
  -7  -7  -3   12.10   14.80
  -6  -3 -10   16.30   26.50
  -6  -2 -11   15.40   28.80
  -5  -4  -8  660.13   33.60
  -4  -5   5   -1.90   13.30
  -3  -3  -7   85.59   15.70
  -3   3 -13   16.30   27.30
  -3   5 -14  162.78   39.40
  -2   3 -12  214.68   31.40
  -2   7 -14  225.98   39.70
  -1  -2  -1   60.19    6.10
  -1  -1   4 1255.97   21.90
   0   0  -2 1221.38   16.60
   0   2   5 3693.43   40.80
   1   5  -7 2056.89   39.10
   1  10 -10  241.08   30.60
   2  15  -7   28.60   28.40
   2  17  -6    5.90   28.30
  -8  -6  -6   41.70   24.80
  -7  -4  -9  110.89   30.30
  -6  -6  -5    8.10   18.30
  -6  -5  -7  446.66   28.20
  -5  -6   5    0.30   12.10
  -4   2 -13  -10.90   27.90
  -2  -3  -4   61.69   10.90
  -2  -1  -8  254.87   20.80
  -2   5 -13    3.00   30.90
  -1   4 -11   43.00   23.00
  -1   8 -13  188.18   33.00
   0   4  -9    4.70   19.70
   0   7 -11  695.63   38.10
   1  11 -10  473.55   35.90
  -7  -7   6  226.98   19.40
  -6  -7   4  262.37   15.00
  -5  -5  -6   69.39   18.10
  -3   2 -12  112.19   31.50
  -2   0  -9  -15.30   18.60
  -2   1 -10   46.50   23.10
  -2   2 -11  951.60   40.40
  -1   0  -7   89.09   15.50
  -1   0   6  -15.60   12.60
  -1   6 -12  382.46   36.50
  -1   9 -13  161.48   35.20
   0   3  -8   17.70   16.30
   0  11 -12   40.60   30.60
   0  12 -12  -21.00   32.20
   1  12 -10  972.60   45.30
   1  13 -10   87.69   32.00
   1  15 -10  200.68   41.70
   2  10   4   77.99   13.60
  -5  -3  -9   65.49   25.20
  -4  -5  -4   88.99   12.50
  -4   1 -12  163.68   33.90
  -2  -2  -6 1004.60   27.00
  -2   4 -12  103.09   29.50
  -2   6 -13   24.90   34.10
  -1  -1  -5 1022.80   24.30
  -1   3 -10  453.05   31.10
  -1  10 -13   22.90   33.20
   0   1  -5  280.47   16.40
   0   6 -10   20.10   23.40
   0   8 -11   31.50   26.70
   1   3  -3  392.26   12.50
   1   5   5   88.89   11.60
   2  16  -6   16.00   27.60
  -8  -7  -3  245.98   23.00
  -5  -2 -10   49.90   24.90
  -4   0 -11   30.20   28.70
  -3   1 -11 1195.18   46.80
  -2  -3   4 1370.96   23.10
  -1   2  -9  105.69   19.70
  -1   7 -12  264.07   34.30
   1   4  -5  752.12   21.90
   1   7  -8  690.63   28.30
   2   8  -4 1946.31   29.60
  -6  -7   0  327.07   10.80
  -6  -4  -8   83.49   24.10
  -4  -4  -6  163.98   17.00
  -4   3 -13   18.20   30.80
  -3  -1  -9   87.29   22.00
  -3   0 -10   19.60   22.40
   0   1   4 2340.07   29.30
   0   9 -11   75.09   30.40
   1   6  -7 1470.05   35.30
   2  12  -6  112.79   21.40
   2  12   5  195.28   20.50
  -8  -5  -7  228.38   31.80
  -6  -3  -9   46.20   25.60
  -6  -1 -11   37.70   29.90
  -3  -3  -6   90.69   14.40
  -3   3 -12   13.40   28.60
  -3   5 -13   37.60   35.60
  -2   3 -11  117.49   27.10
  -1  -2   1   22.50    4.30
   0   2  -6   59.39   15.70
   0   5  -9    9.10   17.80
   1   5  -6  -13.70   11.60
   1  10  -9  377.86   31.40
   1  16  -9   15.00   33.70
   2   8   3  120.69   12.00
   2  14  -6  333.97   31.40
  -7  -7  -2  204.78   17.10
  -6  -7   5   16.10   13.90
  -6  -6  -4   -0.60   14.00
  -6  -2 -10   15.30   25.70
  -5  -6   6   34.80   13.80
  -5  -4  -7    0.00   19.20
  -4   2 -12  111.59   32.10
  -2   5 -12    7.40   29.10
  -1  -1   5 3087.99   37.20
  -1   4 -10 1016.20   38.90
  -1   8 -12  323.97   37.40
   0   2   6   29.80   11.50
   0   4  -8   61.99   18.10
   0   7 -10   60.19   24.40
   1  11  -9  380.16   32.70
   1  15  -9   -2.30   35.40
   2   9   4  620.14   20.50
   2  10  -5   92.19   14.90
  -8  -6  -5  659.03   33.40
  -6  -5  -6  637.84   29.30
  -5  -5  -5   31.90   17.00
  -4   4 -13   18.90   33.50
  -2   2 -10  143.09   26.60
  -2   8 -13   58.29   32.30
  -1   0  -6    0.90   12.90
  -1   6 -11 1067.99   43.50
  -1   9 -12   89.29   32.40
   0   3  -7   71.19   15.80
   0  11 -11  520.65   40.90
   0  12 -11  264.67   38.00
   0  14 -11  408.06   47.20
   1  12  -9    7.50   29.70
   1  13  -9   77.69   30.50
   1  14  -9   48.30   35.50
   2  16  -5   16.90   26.20
  -7  -3  -9   42.50   29.30
  -7  -2 -10   34.80   31.80
  -3   2 -11  649.64   39.20
  -3   6 -13  592.84   46.20
  -2   1  -9   10.70   21.20
  -2   9 -13   -0.30   34.50
  -1  -1  -4 2976.20   34.60
  -1   3  -9  183.98   21.70
   0   1  -4 2418.16   31.50
   0   8 -10  134.59   27.70
   0  13 -11   34.80   33.30
   2   8  -3  293.97   12.10
   2   9  -4  452.85   17.80
   2  11  -5   77.39   16.80
  -5  -2  -9   -1.80   24.70
  -4   1 -11   34.50   27.60
  -3  -2  -7  857.41   29.60
  -3   1 -10 1733.43   49.60
  -3   4 -12   21.70   28.30
  -2  -3   5   40.30   10.60
  -2   6 -12  212.08   32.00
  -2  10 -13  201.98   38.20
  -1   1  -7  124.49   16.40
  -1   2  -8   27.40   17.00
   0   6  -9 1053.59   37.70
   1   4  -4   10.30   10.60
   2   7   2   53.49    7.30
   2  10   5  112.79   16.90
   2  15  -5  -18.00   26.30
  -7  -5  -6   65.79   25.40
  -6   0 -11   24.50   29.10
  -5  -6  -2   33.70   10.20
  -4  -6   2  349.37    9.70
  -4   0 -10   76.69   28.90
  -4   3 -12  461.35   39.50
  -4   5 -13    0.60   34.00
  -3  -1  -8  156.48   21.00
  -3   0  -9    0.10   24.00
  -3   7 -13   -4.60   36.20
  -1  -2   2  166.88    8.00
  -1   5 -10    1.30   23.90
  -1   7 -11  354.96   35.10
  -1  12 -12  395.26   41.30
   0   1   5  260.67   14.00
   0   9 -10  115.49   29.30
   2  13  -5  454.85   26.10
  -8  -7  -2   20.30   18.90
  -6  -7   6  643.94   23.60
  -6  -4  -7   26.50   22.80
  -4  -1  -9   83.09   23.00
  -2   3 -10  198.48   28.50
  -2   7 -12   70.59   30.70
   0   5  -8   88.19   18.50
   1   3   3  204.08   10.30
   1   4   5 2164.48   32.90
   1   5  -5  109.49   14.10
   1   6  -6    8.50   12.20
   1  10  -8   14.30   21.40
  -8  -5  -6   45.00   29.10
  -7  -6  -4    8.50   20.50
  -6  -3  -8  193.58   28.50
  -6  -1 -10   38.50   30.80
  -4  -6   3  896.71   17.00
  -4   6 -13   77.19   38.70
  -3   5 -12    6.10   30.70
  -3   8 -13  951.10   54.49
  -1   8 -11  419.96   36.20
   0   0   2 1142.99   15.40
   0   7  -9  129.09   23.80
   1  11  -8  137.79   26.40
   1  15  -8  270.27   37.10
   2   8   4  196.88   16.00
   2   9   5   27.30   14.60
   2  11   6   50.79   19.80
   2  16  -4   87.19   25.60
  -7  -1 -10   -9.10   34.70
  -6  -2  -9  119.29   29.40
  -5  -4  -6  782.82   28.40
  -5   1 -11    0.60   29.50
  -4   2 -11  452.55   37.10
  -2  -1  -6  156.58   16.90
  -2   2  -9   -1.10   22.80
  -2   8 -12  103.09   33.50
  -1  -2   3 2653.13   26.70
  -1   4  -9   -9.00   21.30
  -1   6 -10 2766.22   60.49
   0   4  -7   22.10   14.40
   0  12 -10    8.30   30.90
   0  15 -10  260.47   43.20
   1  12  -8  113.09   30.20
   1  13  -8   55.59   28.70
   1  14  -8   29.40   32.00
  -8  -6  -4  206.58   26.50
  -8  -4  -7  111.29   29.10
  -7  -4  -7  236.08   30.30
  -6  -6  -3   27.60   13.30
  -6  -5  -5   51.89   20.20
  -5   3 -12  953.90   50.59
  -4   4 -12  822.72   46.60
  -3   2 -10  642.14   36.50
  -1   0  -5   39.40   13.10
  -1   9 -11   33.90   27.70
   0  13 -10   77.49   34.00
   0  14 -10   97.69   36.90
   2   7   3  159.68   11.10
   2   9  -3  326.07   13.90
  -8  -3  -8  194.18   31.80
  -7  -7  -1  323.17   17.20
  -7  -3  -8  111.39   30.70
  -7  -2  -9   18.90   29.00
  -4  -6   4  326.17   15.20
  -4   1 -10  240.48   32.10
  -3   6 -12  246.88   36.30
  -2   0  -7   92.89   16.50
  -2   1  -8  240.38   21.90
  -2   9 -12   12.40   30.00
  -1  10 -11   -0.30   32.20
   0   0   3    1.40    8.60
   0   8  -9  -30.00   21.30
   2  11  -4   42.60   14.60
   2  15  -4    2.80   24.40
  -5  -3  -7  115.09   21.90
  -5  -2  -8   14.20   23.90
  -3  -2  -6 1539.15   34.20
  -3   1  -9  102.69   24.30
  -3   4 -11   79.79   27.80
  -2   4 -10 1182.28   42.60
  -2  10 -12  -26.70   31.20
  -1  -1  -3   -3.20   11.00
  -1   2  -7  194.58   18.40
  -1   7 -10  947.91   41.70
   1   3  -1  411.66    8.70
   1   3   4 1778.12   26.70
   1   4   6  433.96   19.50
   1   7  -6   79.99   15.00
   2  14  -4  297.77   27.10
  -7  -8   4   62.19   10.90
  -6   0 -10  343.57   36.50
  -5   2 -11  609.54   41.10
  -5   4 -12   28.10   31.10
  -4   0  -9  -20.60   23.10
  -4   3 -11  289.27   34.60
  -4   5 -12  105.79   34.20
  -3   7 -12  438.56   42.10
  -2  -2  -4  473.95   17.70
  -2  11 -12  828.92   50.59
  -1  -2   4 1485.25   24.00
  -1   5  -9  865.41   36.70
  -1  12 -11    4.20   31.60
  -1  13 -11   69.69   36.60
   0   9  -9  421.66   30.90
   1  10  -7   39.50   19.60
   2   8   5  729.33   25.00
   2  13  -4   63.29   16.50
  -7  -8   5  197.28   16.00
  -7  -5  -5  347.97   28.30
  -6  -4  -6   49.50   22.90
  -4  -6   5   34.80   14.10
  -4  -1  -8  257.57   26.40
  -3  -1  -7  156.88   17.50
  -3   0  -8  -10.00   17.20
  -2   3  -9  195.18   27.50
  -2   7 -11  144.49   30.90
   0   0   4  477.45   15.90
   2   9   6  136.69   18.10
  -7   0 -10   -8.10   30.10
  -6  -1  -9 1104.79   45.90
  -5  -7   3  309.97   11.60
  -5  -7   4  286.07   14.90
  -4  -5  -2  692.73   16.20
  -4   6 -12  308.17   39.80
  -3   3 -10   61.59   26.10
  -3   5 -11   73.89   29.00
  -3   8 -12   87.29   35.50
  -2   5 -10 1541.85   48.40
  -1   8 -10  -14.00   24.50
   0   7  -8  268.27   23.30
   0  11  -9  769.92   42.40
   0  15  -9  174.88   41.50
   1   5  -4  199.88   13.20
   1  11  -7  347.97   26.20
   2   7   4  166.78   15.10
   2  10  -3    3.90   11.40
  -8  -5  -5  208.38   30.40
  -6  -2  -8  441.86   34.50
  -5   1 -10   48.80   28.20
  -4  -4  -4   93.59   12.90
  -4   2 -10   26.90   27.30
  -3  -5   5   30.00   10.60
  -3   9 -12  108.49   38.60
  -1  -2   5 4311.37   44.80
  -1   4  -8   33.50   18.30
  -1   9 -10   15.00   30.80
   0   4  -6  237.38   18.90
   0  12  -9   31.10   29.10
   0  13  -9  163.88   35.70
   0  14  -9   -5.80   32.50
   1   3   5 1669.03   29.30
   1  12  -7   96.19   26.60
   1  13  -7 1026.50   43.80
   1  14  -7   32.80   25.30
  -8  -7  -1   -1.00   16.70
  -7  -4  -6  205.38   27.80
  -7  -1  -9   27.50   28.00
  -5  -7   5   98.39   14.90
  -5  -6  -1   14.70    8.90
  -5  -4  -5  330.27   20.00
  -5   3 -11  235.48   35.40
  -4  -6   6  469.45   21.20
  -4   4 -11  574.54   40.00
  -4   7 -12  283.37   43.00
  -3  -3  -4   58.19   11.30
  -3  10 -12   32.70   38.20
  -2   2  -8   24.80   18.30
  -2   9 -11  -10.40   30.80
  -1   6  -9   33.10   22.10
   0   0   5    0.00    9.60
  -8  -4  -6  444.96   34.10
  -8  -2  -8  128.19   33.20
  -7  -3  -7    8.10   24.10
  -7  -2  -8  217.68   31.90
  -3   2  -9  104.49   24.70
  -3   6 -11   -5.20   27.90
  -2   6 -10   18.70   24.00
  -1  10 -10   31.70   27.20
   0   3  -5  570.94   21.10
   0   8  -8   56.09   21.00
   2   8   6   19.40   16.20
  -8  -6  -3   56.69   22.40
  -8  -3  -7  136.19   32.70
  -7   1 -10    1.70   31.80
  -6   3 -11  156.98   34.20
  -4   1  -9  115.29   25.10
  -4   8 -12  690.23   49.90
  -2  -4   3 5023.00   36.00
  -2   0  -6   -4.10   13.20
  -2   4  -9 2038.30   51.49
  -1  -2   6   22.30   12.10
  -1   0  -4    0.10   11.70
  -1   3  -7 1031.50   31.60
  -1   7  -9   49.50   25.30
  -1  13 -10  -10.80   34.90
  -1  14 -10   10.20   34.90
   0   6  -7  895.31   29.90
   2   7   5 1837.42   33.80
   2   9  -2 1425.06   21.20
  -5  -7   6  295.97   19.20
  -5  -3  -6    9.40   15.60
  -5  -2  -7  -10.90   20.40
  -5   2 -10   55.49   30.00
  -5   4 -11  938.41   49.40
  -4   3 -10  285.57   34.00
  -3   1  -8  134.49   20.80
  -3   7 -11   95.39   32.50
  -2  -4   4 4330.87   39.50
  -1   2  -6 1693.03   35.20
   0   9  -8   -4.90   21.90
   2  12  -3   72.79   14.30
   2  14  -3   23.80   16.90
  -6   0  -9   -4.00   29.20
  -5  -5  -3  309.47   17.80
  -4   0  -8  565.44   31.70
  -3  -2  -5  133.99   15.40
  -2  -4   5   55.09   10.70
  -1   5  -8   51.79   18.80
   0   0   6   18.00   13.60
   0  16  -8  100.19   38.10
   1  10  -6  170.68   18.60
   2   6   3  138.59   10.00
  -7   0  -9  328.17   36.70
  -6   4 -11   -5.40   33.40
  -5  -7   7  219.88   19.60
  -4  -1  -7 1030.80   34.10
  -4   6 -11  347.17   40.00
  -3  -1  -6 3113.69   48.20
  -3   0  -7 3524.25   55.29
  -3   3  -9   69.79   25.50
  -3   5 -10   24.50   27.50
  -3   8 -11   93.89   31.50
  -2  -4   2 1877.51   17.70
  -1   8  -9   55.69   24.40
   0   5  -6   33.70   15.60
   0  15  -8  144.19   41.50
   1  11  -6  499.75   26.70
   1  18  -5  -13.30   27.60
   2  16  -2  337.97   26.20
  -9  -5  -4  103.09   29.90
  -7  -5  -4    1.30   22.20
  -6  -4  -5    5.90   21.90
  -6  -1  -8  154.38   30.20
  -5   1  -9   24.50   27.00
  -3   9 -11  372.86   40.50
  -2  -4   6   89.39   13.70
  -2   5  -9  963.70   39.40
  -2   8 -10  134.39   31.50
   0   7  -7 1239.28   35.40
   0  11  -8   49.70   26.90
   0  12  -8   82.79   29.00
   0  13  -8  411.56   41.90
   0  14  -8  304.57   36.10
   1   2   3 1033.60   18.70
   1   6  -4  197.38   12.40
   1  12  -6 1897.91   46.90
   2   6   4  399.36   16.60
  -8  -5  -4  811.82   36.60
  -8  -1  -8  -22.50   33.60
  -7  -1  -8  430.86   36.40
  -7   2 -10   19.10   30.70
  -6  -3  -6    5.80   22.50
  -6  -2  -7   -2.30   25.20
  -5   3 -10  107.29   31.70
  -4   2  -9   70.19   24.90
  -4   4 -10  275.57   34.20
  -4   7 -11  311.37   43.40
  -3  10 -11  142.99   36.30
  -2  -2  -3 2882.51   32.50
  -1   4  -7  105.99   18.40
  -1   6  -8   13.00   18.20
  -9  -4  -5   50.99   31.00
  -6   5 -11  111.09   36.70
  -5   6 -11    9.70   36.70
  -3   6 -10   -5.40   25.80
  -3  11 -11   42.50   33.50
  -3  12 -11   -6.50   35.70
  -2   9 -10   43.30   29.10
  -1  -1  -2   23.60    9.40
  -1  10  -9  210.88   34.00
  -1  15  -9  -51.19   36.00
   1   2   5 4167.18   46.00
   1  17  -5   -4.10   28.50
   2   6   5 1762.12   32.80
   2  10  -2 2670.03   31.00
  -8  -4  -5 1319.37   44.70
  -8  -2  -7   80.39   31.30
  -7  -4  -5  777.52   33.90
  -7  -2  -7   -4.90   26.20
  -6   3 -10   34.20   32.20
  -4   8 -11  177.28   39.00
  -3   2  -8  477.35   30.80
  -3   4  -9  358.36   31.40
  -2  -3  -1 3005.80   21.30
  -2   6  -9 1948.21   52.39
  -2  10 -10   71.19   30.50
  -1  14  -9    0.90   35.00
   0   8  -7  833.82   31.50
   0  17  -7  844.22   48.10
  -8  -3  -6  391.46   36.60
  -7  -3  -6   84.09   24.80
  -7   1  -9  -16.30   30.60
  -6  -8   6   68.99   17.00
  -5  -4  -4  864.31   25.50
  -5   4 -10  396.16   38.60
  -5   7 -11   42.50   39.00
  -4   1  -8  260.57   27.30
  -4   5 -10  128.29   31.50
  -4   9 -11   69.59   38.60
  -3   7 -10   28.20   26.30
  -2   1  -6  153.78   17.50
  -2   4  -8  325.57   25.70
  -2  11 -10  176.18   35.50
  -2  14 -10   -1.00   34.80
  -1   7  -8   81.49   24.40
  -1  13  -9   50.79   32.20
   0   6  -6  772.62   27.40
   1  16  -5   56.09   26.90
  -9  -6  -2    0.30   25.50
  -5   2  -9   24.40   27.00
  -4   3  -9   96.39   27.00
  -4  10 -11   60.29   41.10
  -3  -3  -3   -9.50    9.40
  -2  -1  -4   37.80   12.60
  -2   7  -9   35.30   25.10
  -1   3  -6 2994.00   46.30
   0   2  -3   54.29   11.80
   0   3  -4 3918.21   42.00
   0   9  -7  407.16   26.40
   0  16  -7 1047.90   53.19
  -6   0  -8 5410.06   85.09
  -6   4 -10   32.70   33.20
  -5  -3  -5  129.69   17.10
  -4   0  -7  -17.20   18.70
  -3   1  -7  150.58   20.30
  -3   8 -10  256.17   34.50
  -2   0  -5   70.59   14.50
  -1   5  -7  108.99   18.30
   0  15  -7   41.50   36.70
   1  15  -5   38.90   27.40
  -8   0  -8   86.59   37.30
  -7   0  -8   16.60   31.20
  -5   5 -10    9.60   31.70
  -4   6 -10   45.50   29.20
  -3   5  -9   78.49   27.00
  -1  -3   5 3178.48   39.90
   0  -1   4 2342.57   30.90
   0  -1   5  264.97   15.40
   0  14  -7   84.39   32.80
  -7   2  -9   19.80   30.50
  -6  -1  -7  857.51   39.90
  -5   1  -8  210.68   30.10
  -4  -1  -6  570.14   26.90
  -3   0  -6   16.40   14.00
  -3   3  -8   87.49   23.50
  -3   9 -10  547.05   40.90
  -2   3  -7 1873.81   42.70
  -2   5  -8  188.68   26.20
  -2   8  -9  354.96   32.20
  -1  -3   4 5762.52   46.60
  -1  -3   6 1257.77   29.20
  -1   0  -3  375.36   15.70
  -1  16  -8  246.68   45.40
   0  -1   6   48.20   15.00
   0   7  -6  662.43   26.50
   0  11  -7  -11.00   25.40
   0  12  -7   52.89   28.20
   0  13  -7    2.60   32.70
  -5   3  -9   68.09   30.00
  -4  -2  -5 1198.58   31.10
  -4   2  -8   13.30   23.10
  -4   4  -9  211.38   31.00
  -4   7 -10   68.89   34.90
  -3  -2  -4   12.20   11.60
  -3  10 -10  245.58   37.50
  -3  11 -10  468.15   44.30
  -2   9  -9  199.28   33.40
  -1   1  -4 2943.11   37.60
  -1   9  -8  215.58   28.40
   0  -1   3  413.06   13.90
   0   5  -5   94.49   14.70
  -5   6 -10   39.90   32.30
  -3   6  -9   -5.20   25.20
  -3  12 -10   11.70   34.60
  -1   6  -7   61.19   19.60
  -4  -4  10  745.33   32.20
  -3   9  -6  160.88   21.10
  -3   9  -5   57.99   19.00
  -2 -17   5  333.37   38.30
  -1 -12   5  -21.90   18.10
   0  -5 -15   17.50   48.90
   0   2 -10  439.06   20.30
   1 -14  -8   28.70   46.50
   1 -14  -7   16.80   40.30
   1 -14  -5  196.28   41.40
   1 -13  -3   40.90   33.70
   1 -11 -11  598.94   54.49
   1  -9  -1   35.00   22.60
   1  -8  -1   20.30   20.40
  -2   6   0 1393.96   32.10
   0 -18  -3  -15.70   38.70
   0 -17  -1  279.27   41.80
   0 -16   0   40.40   33.50
   0 -13   2   50.19   22.70
   1 -14  -9   63.69   47.90
   1 -14  -4   73.89   37.80
   1 -13 -10   49.60   42.30
   1 -12 -11    8.90   39.70
   1 -12  -2  828.42   43.20
   1 -10 -12    3.70   41.70
   1  -6  -1   29.20   27.60
  -2   1   5  108.99   13.60
  -1 -19   1    9.60   39.10
  -1 -18   2    8.30   37.20
  -1 -15   4   11.60   27.20
   0 -15   1   40.70   32.30
   0 -10   3  162.18   19.40
   0  -4 -15   22.10   42.30
   1 -15  -8  199.08   53.49
   1 -15  -7   -0.60   41.10
   1  -5 -12  412.96   49.00
  -3  -2   8 1316.67   32.60
  -2 -13   7   33.60   20.10
  -2   7  -8   14.40   11.30
   0   3  -7   73.49    6.90
   1 -15  -9    8.30   48.30
   1 -14 -10  128.49   46.40
   1 -14  -3  946.01   50.89
   1 -13  -2  408.46   37.00
   1  -3 -11  150.48   29.70
   1  -2 -10  277.87   25.50
  -1 -13   5 1953.50   42.00
  -1   4  -1  174.78   11.70
   0 -14   2  320.27   35.00
   0 -11   3   -3.20   16.30
   0   0 -13    2.70   24.70
   1 -16  -7   53.99   46.60
   1 -15  -4   37.40   36.90
   1 -12  -1  608.34   35.70
   1  -9 -13   39.30   41.10
   1  -8 -13   28.10   43.80
   1  -7 -13   16.60   47.60
   1  -4 -12  714.93   51.69
  -3   2   6  189.98   21.20
   0 -18  -1   18.90   36.30
   0 -17   0  -39.00   33.50
   0 -16   1  139.29   35.80
   0  -1 -14  234.48   33.20
   1 -16  -8   12.00   45.60
   1 -16  -6   55.19   37.40
   1 -15 -10  258.27   54.59
   1 -15  -3  616.64   48.70
   1 -13 -12  152.58   45.10
   1  -1  -5 3120.99   40.60
  -2   7  -4  147.19   17.60
  -1 -16   4  -11.60   29.60
   0 -12   3   47.50   19.70
   1 -16  -9   -8.40   47.50
   1 -16  -4   14.70   38.10
   1 -10   0 1780.32   46.40
   1  -9   0  174.98   25.20
   1  -5 -13   82.99   43.10
   1  -3  -2  100.39   18.80
  -2   2   4  774.72   23.10
  -1   5  -8   17.60    5.00
   0   3  -8    1.60    8.10
   1 -17  -7   30.50   48.70
   1 -17  -6   71.29   43.00
   1  -9 -14   50.19   46.20
   1  -8 -14  -14.30   49.60
   1  -3 -12 1318.17   54.89
  -3   8  -2 1503.35   37.70
  -2 -14   7  105.09   25.70
  -2   4   2 1854.71   33.30
  -1 -18   3  158.28   36.30
  -1 -14   5  203.78   27.40
  -1   4 -12   -2.50   12.50
   0 -18   0  -29.80   37.00
   0 -15   2  714.03   41.10
   0   2 -11   38.80   14.30
   1 -17  -5   12.50   40.80
   1  -4 -13  650.53   51.29
  -5  -6  11  231.58   28.30
  -4  -2   9   72.59   19.10
  -3   3   5   43.90   17.00
  -3   8  -9  226.08   17.60
  -1   0   3  603.94   14.30
   0 -19  -1  -60.79   43.30
   0 -13   3   25.80   23.20
   1 -17  -4  132.39   43.60
   1  -6 -14   49.90   43.20
   1  -4  -1 1831.12   34.90
   2 -10  -8   22.10   35.70
   2  -9  -8  272.87   44.10
   2  -9  -7   12.30   38.00
   2  -8  -8   84.79   46.20
  -3   4   4   13.20   19.10
  -3   5   3  209.18   22.20
  -3   7   0  197.88   20.50
  -2 -17   6   53.99   32.90
  -1 -17   4  143.69   34.70
   1  -6   0 2386.96   45.50
   1  -5 -14   33.30   41.90
   1  -1  -4 1294.27   25.90
   2 -11  -8   57.69   38.40
   2 -11  -6  903.61   50.89
   2  -9  -9    9.80   38.90
   2  -8  -9  131.49   47.10
   2  -8  -6  441.56   47.80
   2  -7  -8  111.89   36.90
   2  -7  -7   48.70   36.70
  -3   8  -3 1131.09   33.20
   0 -16   2  205.68   34.00
   0   0 -14   24.10   26.70
   1 -18  -5   13.80   41.40
   1  -8 -15    5.40   55.19
   1  -3 -13   28.30   32.90
   2 -12  -8   52.79   38.40
   2 -12  -7 1285.27   59.29
   2 -12  -6   75.09   37.50
   2 -10 -10  585.14   53.89
   2 -10  -5  107.29   36.10
   2  -9 -10  670.53   58.09
   2  -9  -5   19.80   32.40
   2  -8 -10   82.99   46.20
   2  -7  -9  306.47   46.10
   2  -7  -6  140.69   38.40
   2  -6  -8   36.60   33.50
  -2   0   5    3.90   10.60
  -1 -15   5   34.80   26.40
  -1   3   0  459.25   14.50
  -1   5  -5   95.29    7.00
   0 -19   0  -23.50   38.80
   0 -14   3  528.05   35.20
   0  -1 -15    9.60   31.10
   0   1 -13  102.79   23.20
   1  -7 -15   33.70   54.09
   2 -13  -8  135.29   42.50
   2 -13  -7   42.20   38.70
   2 -13  -6 3321.27   84.79
   2 -12 -10  119.69   43.90
   2 -12  -5  703.03   45.90
   2  -7 -10   43.50   43.50
   2  -7  -5  908.11   49.80
   2  -6  -9  541.15   44.00
   2  -6  -7  252.17   35.70
  -1 -10   6  142.39   14.70
  -1  -9   6  150.38   13.40
   0 -18   1   42.70   36.90
   0   3  -9   67.79   10.10
   1 -17  -2   25.60   35.20
   1 -14   0   66.09   32.20
   1  -4 -14   36.90   35.50
   2 -14  -8   35.60   47.70
   2 -14  -7   83.09   42.70
   2 -13 -10    6.50   43.90
   2 -13  -5  308.77   42.10
   2 -11 -11  244.58   46.60
   2 -11  -4   32.50   32.10
   2 -10 -11  672.43   55.69
   2  -6 -10  351.56   44.90
  -4  -9  10  392.96   21.30
  -3   1   6   24.10   13.30
  -3   8  -8  294.57   18.80
  -3   8  -4  -10.70   16.10
  -1 -11   6  512.95   20.90
   0 -17   2  841.02   48.20
   0  -2 -16   21.00   35.50
   1 -18  -3   95.69   40.80
   1 -16  -1  291.27   38.70
   1  -9   1  344.67   25.60
   1  -5   0  211.18   18.70
   1   0  -9  625.54   22.90
   2 -12 -11   14.90   41.70
   2 -12  -4  302.67   40.30
   2  -5  -9  834.72   44.30
   2  -5  -7  142.59   26.70
  -3  -1   7  893.11   25.80
  -3   6   1    9.30   16.40
  -1 -18   4   93.59   35.50
  -1   1   2  217.98   11.30
   0 -15   3   50.69   27.50
   1 -15   0   27.60   31.60
   1  -5 -15    0.10   45.40
   2 -15  -9  -75.19   49.70
   2 -15  -8  219.68   52.09
   2 -15  -7   11.10   39.70
   2 -14 -10  246.38   49.40
   2 -14  -5  491.55   48.90
   2 -13 -11   66.09   44.80
   2 -13  -4   34.90   34.20
   2 -12 -12   74.79   45.00
   2 -11 -12   -1.10   42.30
   2 -10 -12  497.15   54.89
   2  -7  -4 2095.69   59.59
   2  -5  -6   -1.20   22.00
  -3   8  -7  210.38   19.70
  -3   8  -6 1153.08   31.50
  -1 -16   5   29.30   30.70
  -1   2   1   21.10   10.00
   0 -19   1  -28.00   37.70
   0 -11   4   37.60   20.60
   0 -10   4  889.21   28.10
   1 -18  -2   25.40   36.20
   1 -17  -1  -38.40   36.10
   1  -2  -2  185.18   15.80
   2 -15  -6   58.39   38.70
   2 -14 -11   29.80   45.90
   2 -13 -12  -47.10   47.60
   2 -10  -3    2.10   27.80
  -3  -4   8  248.38   17.80
  -1 -12   6 1843.52   35.00
  -1  -8   6   27.30    9.60
   1 -13   1    4.30   22.20
   1  -4 -15  -27.30   39.00
   1  -3  -1  412.06   18.90
   2 -16  -8    9.80   46.90
   2 -16  -6   34.20   41.00
   2 -15  -5  -13.10   36.50
   2  -6  -4 1479.55   46.60
   2  -4  -8  878.81   37.30
  -3   2   5   -9.40   13.50
  -3   5   2    8.20   18.10
  -2   1   4   43.10   12.70
   0 -18   2  819.22   48.10
   0 -16   3  435.46   36.50
   1 -16   0  128.39   35.80
   1 -14   1   59.29   31.60
   2 -15  -4   24.60   37.40
   2  -7  -3 1061.39   44.60
  -4  -1   8    9.60   17.90
  -1 -13   6    1.20   18.80
   0 -13   4   -2.80   21.10
   0  -8   4  567.54   21.20
   0   0 -15   22.40   26.00
   0   3 -10   30.10    9.90
   1 -18  -1   32.30   35.20
   2 -17  -7    0.60   46.00
   2 -16  -5   46.90   38.20
   2 -14  -3   -3.20   37.60
   2  -7 -13  958.10   64.19
  -3   3   4  -12.10   13.40
  -3   4   3   12.00   16.70
  -1 -17   5   32.60   31.40
   0  -1 -16    3.80   29.40
   0   1 -14  209.58   24.80
   1 -17   0    3.30   34.60
   2 -16  -4   84.89   39.90
   2 -12  -2   51.59   33.00
   2 -11  -2  213.98   30.80
   2 -10 -14   93.79   47.20
   2 -10  -2 2776.92   67.19
   2  -9 -14  -29.20   49.10
   2  -5 -12 1195.18   56.39
   2  -4 -11  112.99   31.80
  -2   2   3  701.03   20.80
   0 -17   3 1167.18   50.29
   1 -15   1   21.60   30.00
   1  -6   1 1970.90   35.90
   1  -4   0 1686.03   29.40
   2 -17  -5  303.87   45.90
   2 -15  -3  -24.80   35.10
   2 -13  -2  176.58   35.60
   2  -8  -2   50.19   29.90
   2  -6  -3 2131.49   49.50
   2  -4  -5   34.20   20.10
  -3   6   0   20.40   16.00
  -2  -6   7  231.88   10.70
  -2   3   2 2392.76   34.20
   0 -14   4   51.79   26.00
   1 -19  -1  -18.60   40.90
   2  -7 -14  318.47   50.49
  -3  -2   7  574.44   21.20
  -3   0   6   -5.50   11.40
  -2   5  -1 2074.99   32.40
   1 -18   0  159.78   38.00
   1 -16   1  288.47   37.00
   1 -12   2  195.38   25.50
   1 -11   2   22.50   19.10
   1  -4 -16  215.78   38.10
   2 -18  -5  227.38   45.20
   2  -5 -13   36.20   38.70
  -2   6 -10   22.80    9.40
  -1 -18   5   10.40   32.50
   0 -15   4  157.78   29.70
   0   2 -13  950.80   27.70
   1 -13   2   55.89   24.30
   1   0 -12   -5.20   16.20
   1   1  -8  324.67   15.50
   2 -11  -1 1245.48   49.50
   2  -8 -15   -1.30   54.09
   2  -7  -2   38.40   23.00
   2  -3 -11   12.60   25.10
  -3  -5   8   84.69   14.40
  -2  -1   5  119.69   11.30
  -2   6  -4  402.66   17.50
  -1 -15   6  286.67   29.40
   1 -17   1  -43.90   31.50
   1 -14   2   -3.30   30.10
   1  -2 -15  122.29   31.00
   1   1  -9   12.40   11.40
   2 -12  -1  109.39   29.20
   2 -10  -1  392.66   31.30
   3 -12  -9   24.40   40.80
   3 -12  -8   35.60   39.10
   3 -11 -10  -23.90   48.20
   3 -11  -9  256.97   50.39
   3 -10  -9 1028.90   71.99
   3 -10  -8  139.09   53.29
  -4  -2   8  745.93   27.30
   0   3 -11  289.97   14.00
   1 -19   0  184.28   43.20
   1  -1 -14  114.59   25.60
   2  -9  -1 1667.03   52.49
   3 -14  -9   74.79   51.79
   3 -13  -8  153.88   47.70
   3 -12 -10   -0.10   44.00
   3 -12  -7   16.40   41.30
   3 -11 -11  187.98   52.99
   3  -9  -9 1298.57   70.99
  -4  -5   9  203.58   21.50
  -3   5   1  142.99   15.90
   1 -15   2   13.80   29.00
   1  -8   2    9.80   15.00
   1   1 -10  206.48   17.90
   2 -18  -3   25.40   39.20
   2  -6 -15   19.40   45.40
   2  -6  -2  178.68   22.50
   2  -2  -8 1137.69   33.60
   3 -14 -10  354.46   55.29
   3 -14  -8  175.88   49.00
   3 -13 -11   22.40   47.20
   3 -12  -6   70.19   39.60
   3 -11  -6   27.60   42.80
   3 -10 -11  593.64   68.69
   3 -10  -6  113.39   48.70
   3  -8 -10  157.08   48.80
   3  -8  -9  436.96   50.09
  -3   7 -10    2.40   14.80
   0   1 -15   -5.10   23.70
   1 -18   1  121.29   38.40
   1   0 -13  169.98   24.00
   2 -17  -2  195.78   40.70
   2 -15  -1 1003.30   51.29
   2  -8  -1  524.95   31.20
   2  -2 -10  -17.00   19.10
   3 -15  -7   41.10   40.40
   3 -14  -6  -50.79   39.20
   3 -12 -12  -12.90   44.70
   3 -11 -12   66.49   48.80
   3 -10 -12   89.39   54.59
   3  -8 -11   62.89   47.20
   3  -8  -7  537.85   51.29
  -3   6  -1   59.59   13.80
  -1 -16   6   32.70   26.20
  -1   3  -1    9.10    8.20
   1 -16   2  -42.30   29.10
   2 -16  -1  261.27   39.60
   2  -4 -14   38.80   33.40
   3 -16  -8   82.49   45.90
   3 -16  -7  -26.60   48.60
   3 -15  -6  116.49   43.50
   3 -12  -5   30.30   39.20
   3  -7 -10   34.40   39.50
   3  -7  -9   16.80   37.30
   3  -7  -8   33.00   37.60
  -3   4   2   57.79   15.90
  -2   4   0 1226.08   25.80
   0 -17   4  171.88   34.10
   0  -4   3   63.09    6.80
   1   1 -11   71.89   15.10
   1   1  -6   84.49   10.60
   2 -18  -2   -6.50   37.80
   2 -11   0  167.18   28.00
   2  -5 -15   31.80   39.60
   2  -3 -13  512.75   38.40
   2  -2 -11  272.77   23.10
   3 -14  -5    1.70   40.30
   3  -7 -11   66.49   44.50
  -3   2   4   98.59   13.70
   1  -7   2 4907.21   52.69
   1  -1 -15   46.70   29.50
   2 -17  -1  169.28   40.30
   2 -14   0   29.00   31.50
   2 -10   0   58.39   28.70
   2  -4  -3 5032.50   58.29
   2  -2  -6  330.77   21.60
   3 -16  -6   69.19   39.60
   3 -15  -5  -15.50   38.60
   3 -13  -4    7.60   36.80
   3 -12  -4  280.87   42.30
   3  -6  -9    6.20   34.00
   3  -6  -8  237.28   34.50
   1 -17   2  550.44   41.80
   1  -2  -1   26.10   10.30
   2  -3  -4 1404.06   32.50
   3 -16  -5  279.27   43.60
   3 -14  -4    5.70   39.20
   3 -10  -4  158.58   47.40
   3  -8 -13  415.66   54.79
   3  -7  -6 2048.20   59.69
  -3  -3   7  814.32   24.00
  -2 -13   8  173.18   13.60
  -1 -17   6   38.10   31.60
   0 -18   4   30.20   33.60
   0 -13   5   32.90   20.10
   0 -12   5   15.50   16.80
   1 -13   3 1580.24   48.60
   1 -12   3  410.56   28.80
   1  -1  -2  223.88   13.00
   1   0 -14    5.80   23.90
   2  -4 -15   81.89   38.40
   2  -3 -14   19.70   29.80
   3  -9 -14  222.88   52.59
   3  -9  -4   92.59   34.20
   3  -7 -13  178.38   46.80
   3  -6  -7  147.99   28.90
  -5  -7  10    2.30   21.20
  -4  -1   7  287.27   21.80
  -3  -6   8  186.88   15.00
  -2   6  -6   64.99   13.20
   0 -14   5  136.09   28.70
   0 -11   5  381.46   22.90
   0   3 -12    0.50   12.50
   1 -18   2  217.08   39.10
   1 -14   3  294.87   32.40
   1 -11   3  824.52   32.50
   2 -18  -1   51.09   36.50
   2 -16   0  144.09   36.80
   3 -17  -5   39.70   39.90
   3 -16  -4   13.30   39.70
   3  -7  -5   19.50   25.70
   3  -6 -12   15.90   39.10
   3  -5  -9  215.08   30.10
  -3   5   0  135.29   15.80
  -3   7  -6  983.10   28.10
  -2   3   1  433.06   16.40
   3 -14  -3   12.90   39.80
   3 -13  -3  310.77   41.80
   3  -6  -6  162.38   27.40
   3  -5 -10  137.99   31.70
  -3   7  -8   24.40   16.30
  -2   6  -8  173.58   14.30
  -2   6  -7  -11.50   10.90
   0 -15   5  270.07   31.30
   0 -10   5  275.07   21.20
   2 -17   0   38.90   34.30
   3  -7 -14  856.71   59.69
   3  -5  -7   22.80   23.00
  -2   1   3   97.39   11.10
  -2   2   2  238.28   13.90
   1 -16   3  284.07   37.80
   1  -1 -16   22.90   28.60
   2 -12   1  222.28   30.30
   2  -4 -16  132.79   35.90
   2  -1  -7 2226.18   38.60
   3  -5 -12  130.09   35.90
   1  -6   2 2677.43   34.80
   1   1  -5 3077.29   29.00
   2 -18   0   10.20   38.70
   3  -7 -15   96.39   53.79
   3  -7  -4 2782.72   60.29
   3  -6 -14    9.60   37.70
   3  -5  -6  163.38   26.90
  -3   0   5   14.80   11.90
   1 -17   3  134.59   34.90
   1   0 -15   45.40   25.60
   2 -15   1  131.29   36.40
   2  -4  -2 1944.21   35.90
   2  -3  -3 1651.03   32.90
   3 -13  -2  263.87   40.30
   3 -12  -2  167.98   38.20
   3 -11  -2 1355.06   63.49
   3  -8  -3   31.50   27.60
   3  -5 -13    4.10   35.50
   3  -4 -11   11.10   29.40
   3  -4  -9   73.79   22.30
   3  -4  -8  268.87   27.20
   4 -14 -10  252.27   56.39
   4 -13  -8   -7.80   58.19
   4 -12 -11   43.70   57.59
   4 -12 -10   46.10   56.69
   4 -12  -9  132.19   58.79
   4 -11 -10   73.79   62.19
   4 -11  -9  242.68   69.19
  -4  -7   9  277.37   20.90
  -3   4   1  560.54   22.00
  -2  -4   6  103.29    9.40
  -2  -2   5   83.79   10.10
   2 -16   1   14.00   32.50
   3 -18  -3   11.00   35.60
   4 -15  -9  209.28   56.19
   4 -15  -8   13.70   55.39
   4 -14  -8  211.68   56.89
   4 -13  -7  156.58   52.29
   4 -12 -12   63.09   56.39
   4 -11 -12  456.55   69.89
   4 -11 -11   40.20   58.09
   4 -10 -10  448.86   62.19
  -4  -4   8 1892.91   36.60
   0 -17   5   52.29   31.00
   2  -2  -4  837.12   25.50
   3 -16  -2  412.86   46.00
   3  -6 -15  426.16   51.69
   3  -6  -4 1539.35   43.10
   3  -5 -14  151.18   38.70
   3  -4  -7 1071.69   36.40
   4 -15  -7   -7.90   54.59
   4 -14  -7   53.19   48.00
   4 -11  -7   -8.00   51.69
   4 -10 -12    3.00   52.59
   4  -9 -10  358.66   55.49
   4  -9  -9 1185.18   68.79
  -1   0   2    4.80    7.50
   0  -1   1   -6.30    2.40
   1 -18   3  284.37   35.90
   2 -17   1   82.69   36.00
   2  -9   1  136.19   21.70
   2  -1 -13  146.89   24.90
   3 -17  -2   18.70   38.50
   3  -9  -2 1931.41   55.49
   3  -5  -5   34.90   19.70
   4 -16  -7   13.50   50.99
   4 -14  -6  241.08   51.99
   4  -9  -8   73.29   42.80
  -4  -2   7  811.82   27.90
  -4   1   5   16.20   15.60
  -3   5  -1  108.69   15.40
  -1   1   1   96.39    9.00
   0   3 -13  476.55   19.00
   1   2  -9   10.60   10.80
   3  -7  -3  279.07   27.60
   3  -4 -13   69.29   35.00
   4 -16  -6  185.18   50.89
   4 -15  -6   87.69   45.30
   4 -11  -6   10.40   47.90
   4  -8 -11  -13.60   43.80
   4  -8 -10   86.39   44.70
   4  -8  -9   85.19   41.50
  -3  -7   8   28.20   14.00
  -2  -7   7   27.90    8.40
  -1 -14   7    3.20   19.10
  -1 -13   7 1018.70   27.10
   0 -18   5  -11.40   32.90
   1   1 -14   98.49   23.00
   1   2 -10  257.07   15.30
   2 -18   1  248.88   42.50
   3 -18  -2   71.39   38.40
   3 -15  -1 2045.20   67.79
   3 -12  -1   15.50   33.80
   3  -4  -6  -15.20   17.60
   3  -3 -11   58.59   26.00
   4 -14  -5  609.34   59.69
   4 -13  -5  290.47   54.99
   4 -10  -6  -12.30   44.10
   4  -9  -7   21.70   38.90
   1 -14   4  436.26   33.10
   1 -13   4  179.38   25.80
   1   2  -8   34.70    8.90
   2  -6   0 1511.95   34.30
   3 -16  -1    5.70   37.30
   3 -11  -1 1081.29   52.79
   4 -16  -5  115.19   45.00
   4 -15  -5  446.36   52.39
   4 -12  -5 1420.56   74.09
   4  -9 -14  -42.80   48.90
   4  -8 -13  -36.60   45.40
   4  -7 -10  131.29   42.10
  -4  -8   9  118.19   18.20
  -3   6  -4   30.30   17.00
  -1 -15   7    6.40   23.50
   1 -15   4  -11.90   29.80
   1 -12   4 2098.49   48.80
   1   0 -16  -22.40   27.50
   1   2 -11   28.20   11.90
   2 -15   2    5.30   31.60
   2 -14   2   81.59   34.80
   2 -13   2 1209.58   45.70
   2 -12   2 1070.39   43.80
   2  -8   1   15.20   16.30
   2  -1 -14   36.30   25.40
   2   0 -11    6.30   16.30
   3 -10  -1  225.48   33.50
   3  -5  -4   88.99   20.30
   3  -3 -12  223.58   33.30
   4 -17  -5  246.18   48.80
   4 -10  -5  344.07   49.00
   4  -9  -6   -6.20   36.30
   4  -8  -7  720.43   48.90
   4  -7 -11    0.20   37.30
  -4   7  -9   48.20   22.70
   1 -16   4  148.69   32.90
   2 -16   2   -6.00   32.30
   3  -4  -5    9.10   19.50
   3  -3  -7  844.32   31.70
   4 -14  -4  342.07   50.09
   4  -7  -8   14.60   33.10
   2  -2 -16  369.36   36.70
   2   0 -12  223.18   20.80
   3 -18  -1   14.20   38.50
   3  -9  -1 1652.33   49.40
   3  -4 -15   21.10   36.60
   3  -3 -13   22.70   29.50
   4 -16  -4   49.00   44.10
   4  -8  -6  602.34   46.10
   4  -7 -13  355.26   49.50
  -2   3   0  919.21   21.50
  -1   3  -2  291.47   10.20
   1 -17   4   15.20   34.30
   1   2 -12   68.79   14.10
   2 -17   2   31.70   36.70
   2  -3  -2 2640.44   37.90
   3 -14   0  265.77   43.10
   3  -7  -2  203.58   23.10
   4  -6  -9  325.07   38.30
  -3   4   0  324.57   18.70
  -2  -1   4   52.99    9.00
  -1 -11   7  337.27   15.70
   2 -18   2    3.40   37.90
   2  -4  -1  948.51   25.90
   2  -2  -3  764.22   23.20
   2  -1 -15  132.69   30.40
   3 -16   0 2179.88   71.49
   3 -15   0   61.59   37.00
   3  -3 -14  -15.50   30.40
   3  -3  -6  154.28   20.80
   3  -2 -10   22.10   20.70
   4 -14  -3   61.19   48.90
   4 -10  -4   97.79   40.10
   4  -6  -8   75.29   31.10
  -4  -3   7 2965.90   45.50
  -3  -1   5  351.66   16.80
  -3   5  -2  157.28   16.00
  -3   6  -5 1482.75   33.10
   1 -18   4  -11.50   34.20
   1 -10   4    1.20   17.00
   2  -7   1  511.35   23.60
   2   0 -13   13.20   20.70
   3 -17   0  118.19   38.70
   3 -11   0   28.90   27.90
   3  -2 -11  433.56   27.90
   4 -15  -3  174.28   46.20
   4 -13  -3  -25.40   44.50
   4  -8  -5  328.47   39.70
   4  -7  -6 1129.09   49.20
   4  -6 -13   62.09   38.20
   3  -8  -1  644.74   31.10
   3  -5  -3  181.48   21.70
   3  -4 -16   87.69   35.60
   3  -2 -12  704.93   38.90
   4 -17  -3   32.70   41.00
   4 -11  -3 1007.80   60.39
   4  -9  -4   15.20   34.60
   4  -6 -14   23.30   39.10
   4  -6  -7   71.59   28.30
   4  -5 -10 1734.83   58.79
   5 -14  -9  422.56   71.59
   5 -13  -9  552.64   85.39
   5 -12 -10  507.25   78.69
   5 -12  -9  282.57   80.39
  -4  -9   9 1090.39   29.70
  -4   0   5   11.50   15.90
   0 -15   6  192.78   28.40
   0 -13   6   14.70   20.40
   1   1  -4 1289.97   18.10
   2  -5   0 6350.27   58.39
   3 -18   0    2.70   40.50
   3 -10   0 2399.26   58.09
   3  -6  -2    9.30   18.00
   3  -4  -4   28.40   18.00
   3  -3 -15   62.39   31.10
   4  -5 -12 1266.77   55.39
   5 -14  -8  925.81   78.89
   5 -13  -8  260.87   71.69
   5 -12  -8  919.11   87.39
   5 -11 -12  -58.49   57.09
   5 -11 -11  -16.50   56.69
   5 -11  -9 1315.17   85.89
  -3   3   1  121.09   14.40
  -3   6  -6   80.49   17.40
  -2   2   1 1078.09   22.30
   0 -16   6  413.46   34.80
   1   2 -13  823.22   26.20
   4 -10  -3  332.47   43.00
   4  -7  -5  249.97   34.00
   4  -5 -13   78.29   38.20
   4  -5  -8  203.08   29.40
   5 -15  -7  240.98   62.09
   5 -14  -7  182.68   61.89
   5 -13  -7   42.60   65.49
   5 -10 -12    4.60   53.09
   5 -10 -11   72.69   52.19
   5 -10 -10  130.59   54.99
  -3  -8   8  551.74   19.50
  -3  -5   7   32.70   13.60
  -2   0   3  448.86   15.30
   0 -12   6  176.98   20.60
   1  -2   0  597.74   15.40
   2 -15   3   98.49   31.70
   2 -14   3 2091.29   56.39
   2  -1 -16   83.39   29.40
   2   0 -14    3.80   23.70
   3  -3  -5   44.80   16.80
   3  -2  -7  560.14   26.20
   4 -16  -2  144.49   44.10
   4 -13  -2   27.30   42.60
   4  -6 -15  130.59   45.80
   5 -12  -7  114.49   61.89
   5 -10  -9  402.46   58.39
  -3  -3   6  186.48   14.50
  -3   0   4    1.20   10.50
  -3   6 -10   21.10   16.30
  -2   1   2  577.94   17.10
  -2   5  -5  103.19   13.00
   1  -9   4  166.38   16.00
   1  -1  -1   88.09   10.10
   2 -16   3  174.88   37.40
   3 -16   1  177.38   41.10
   3 -15   1  654.43   49.30
   3 -14   1  211.68   38.70
   3 -13   1  119.49   40.80
   3  -9   0 1386.66   42.60
   3  -7  -1   75.59   18.90
   4 -17  -2   74.59   41.80
   4 -12  -2   30.10   39.80
   4  -9  -3   72.19   31.70
   4  -5 -14   47.20   35.90
   4  -5  -7  150.58   25.00
   5 -15  -6  114.69   52.59
   5 -14  -6   53.39   50.99
   5 -13  -6  211.68   61.79
   5 -10  -8  270.67   52.69
   5  -9 -12   -7.70   49.80
   5  -9 -11   54.39   48.30
   5  -9  -9  370.76   54.19
  -4  -6   8   80.09   17.80
  -3   6  -7   11.50   15.20
   3 -17   1   19.60   41.90
   4  -4 -11  739.23   44.20
   5 -12  -6  222.38   61.29
   5 -10  -7   66.29   41.60
  -3   1   3 2699.03   38.80
  -3   6  -9  -10.10   16.40
  -3   6  -8  150.38   19.10
  -2   5 -12   25.40   11.90
   2 -18   3  -24.70   38.60
   2  -6   1 2122.39   36.40
   2   1 -10   -2.60   14.60
   3 -12   1  -40.80   32.50
   3  -1 -10  231.28   20.40
   4  -6  -5   45.00   24.20
   4  -5 -15   18.40   40.50
   4  -4  -9   26.10   25.90
   5 -15  -5    2.40   47.90
   5 -14  -5  252.87   58.89
   5 -11  -6  144.89   46.70
  -4 -10   9   38.20   18.80
  -3   4  -1    2.40   13.60
   0 -11   6   55.29   14.50
   1 -15   5   70.19   29.70
   2   0 -15   12.80   26.80
   2   1  -9  447.26   19.80
   3 -18   1  -27.90   38.30
   3  -4  -3   15.20   17.30
   3  -2  -6  211.08   18.80
   4 -10  -2  -64.49   33.20
   4  -8  -3   13.80   25.10
   4  -4 -13   -6.40   33.10
   4  -4  -8 1867.11   50.59
   5 -16  -5   57.09   48.50
   5 -13  -5  639.04   70.39
   5 -12  -5   81.19   56.19
   5  -9  -7  868.11   54.29
   5  -8 -13  180.38   49.30
   5  -8  -9   44.20   41.40
   1 -16   5   79.79   33.90
   1 -14   5  303.07   32.00
   2   1 -12  140.69   17.50
   3  -8   0  992.00   35.00
   3  -5  -2    7.80   17.70
   4 -17  -1  143.29   45.40
   4 -16  -1  599.74   56.19
   4 -15  -1  328.87   48.50
   4  -4 -14  224.98   39.50
   5 -10  -6  -11.20   38.80
   5  -7 -11  218.28   45.80
  -2  -5   6   10.50    8.50
   1 -17   5  -30.80   33.10
   1 -13   5    6.50   23.80
   1  -6   3  215.68   12.70
   3  -3  -4  -15.20   16.00
   4 -12  -1  307.37   47.40
   4  -4  -7  982.00   38.80
   5 -15  -4  412.26   59.89
   5 -14  -4  281.17   57.09
   5 -11  -5  487.25   52.89
   5  -7 -13   -8.00   42.40
   5  -7 -10  -28.60   36.10
   5  -7  -9  -28.10   35.40
  -2   5  -6 1756.42   28.70
   2  -2  -2  242.68   17.30
   2   0  -5    2.10    8.20
   2   1  -8 2236.58   34.10
   3  -6  -1   -2.10   16.10
   4  -9  -2   18.40   25.50
   4  -3 -11   44.80   29.80
   5 -13  -4   -7.40   55.99
   5 -10  -5  247.38   45.40
   5  -9  -6   19.40   35.00
   5  -8  -7  120.79   38.20
   1 -18   5   11.40   35.10
   2  -4   0 1411.46   29.00
   2   1 -13  139.99   22.50
   3  -2 -16   49.70   33.00
   4 -11  -1   14.30   33.50
   4  -7  -3   67.09   24.50
   4  -4 -15  -13.80   36.80
   4  -3 -12  138.89   34.80
   4  -3  -9   88.29   23.40
   5 -12  -4 1465.55   74.99
   5  -7 -14   18.30   41.60
   5  -7  -8  131.89   36.00
  -4  -1   5   -1.30   14.00
  -4   3   1   41.80   19.00
  -3   5  -4  197.78   16.70
   1  -8   4  815.52   21.30
   3 -16   2  178.48   44.00
   3 -15   2    6.00   32.30
   3 -14   2   61.99   35.50
   3  -2  -5    0.60   14.70
   3  -1 -14  -17.80   25.70
   4  -3 -13   36.00   31.10
   5  -8  -6  450.35   40.10
   5  -6 -12  824.82   56.09
   5  -6 -10  389.06   45.70
   6 -13  -9  124.79   82.99
   6 -12 -10  -37.70   73.99
  -3  -2   5   -7.20    9.80
  -1   2  -1   53.29    8.40
   3 -13   2  105.69   41.70
   3  -7   0  191.58   21.50
   4 -16   0  735.63   56.09
   4 -15   0  220.08   45.30
   4 -10  -1  453.35   41.00
   4  -8  -2  148.59   26.60
   4  -4  -6 1105.19   38.40
   4  -3  -8  928.71   37.10
   5 -14  -3   30.20   53.19
   5  -9  -5  227.88   39.40
   5  -7  -7  206.18   36.70
   5  -6 -13  362.16   47.10
   5  -6  -9   31.20   32.00
   6 -12  -9  139.39   69.49
   6 -11 -11  326.57   71.19
  -4  -7   8   -6.40   17.40
  -4   0   4 1129.09   32.20
  -4   2   2  187.08   21.10
   2 -16   4  104.29   33.50
   2 -15   4   81.79   32.70
   2  -1  -3  101.09   14.20
   3 -18   2   26.50   39.50
   4 -17   0    4.90   44.10
   4 -14   0  352.06   49.10
   4 -13   0   14.50   45.30
   4  -3 -14   17.10   34.80
   5 -13  -3   70.89   52.99
   5 -10  -4   41.20   37.60
   5  -6 -14   49.60   39.80
   6 -13  -8   17.00   72.69
   6 -11 -10  -23.20   59.89
   6 -11  -9  430.46   72.39
  -4   4  -1  729.43   29.60
  -3  -9   8 1404.36   26.30
  -2   5 -11   78.99   13.00
  -2   5  -7  907.61   22.10
   0 -10   6  571.34   17.30
   0  -7   5   -0.60    6.60
   1 -11   5  295.07   22.60
   1  -4   2  918.01   17.90
   2 -14   4  369.56   38.30
   2   1 -14   11.90   22.20
   3 -12   2  383.76   33.60
   3  -1 -15   13.90   28.20
   5 -12  -3  107.89   47.80
   6 -14  -7   93.29   71.09
   6 -13  -7  -84.59   68.69
   6 -12  -8  -86.59   60.99
   6 -10 -11  211.08   57.29
   6 -10 -10  397.56   61.29
  -3   4  -2    3.50   12.30
   2 -18   4  290.37   42.90
   2  -5   1 2170.08   34.30
   3  -4  -2   44.40   17.10
   4  -9  -1  281.47   31.30
   4  -6  -3  826.42   35.30
   4  -5  -4  145.79   24.00
   4  -3 -15  536.65   43.50
   5 -11  -3  100.39   40.40
   5  -8  -5  329.77   37.80
   5  -7  -6  279.47   36.90
   5  -5 -12  425.76   44.40
   5  -5 -10   38.80   36.70
   6 -12  -7  192.68   67.59
   6 -11  -8   -1.20   58.69
   6 -10  -9  -16.80   46.90
  -3  -4   6   -1.20   11.50
   3 -11   2  187.08   25.70
   3  -5  -1  118.39   18.70
   3   0 -12   12.10   22.20
   4  -7  -2  475.45   30.10
   4  -4  -5    6.00   20.50
   4  -2 -12  105.99   32.20
   4  -2 -10    7.50   21.90
   5 -16  -2  -11.20   45.00
   5  -9  -4  126.69   35.00
   5  -5 -13  216.58   42.20
   5  -5  -9   68.39   30.90
   6 -14  -6  111.19   70.39
   6  -9 -11  138.99   48.60
   6  -9 -10   -1.50   45.70
  -4  -5   7  128.99   18.00
  -3  -1   4 1160.98   26.20
  -3   2   1  327.17   17.40
  -3   5  -5  320.07   21.90
  -2  -8   7   -2.70    8.90
  -2  -2   4  799.92   17.40
  -2   5  -8  175.18   14.70
   3  -8   1  557.94   27.50
   4  -2 -13  160.98   32.80
   5 -13  -2  -27.80   50.69
   6 -13  -6   62.29   60.09
   6 -11  -7  -20.80   55.39
   6 -10  -8   35.50   46.90
   6  -9  -9    0.20   46.70
  -1   3  -3  181.08    9.10
   3  -1 -16  152.88   33.00
   3   0 -13 1459.85   43.10
   5  -7  -5   82.79   33.90
   6 -15  -5   43.80   58.19
   6 -12  -6  -14.10   53.29
   6 -10  -7  -40.70   48.60
   6  -8 -11   31.90   45.60
  -3   1   2 6378.26   58.19
  -2   2   0  102.89   11.70
  -2   5  -9  961.60   23.30
   1   3 -11  147.59   12.20
   2   0  -4 1326.17   25.00
   3  -6   0   11.80   15.40
   4 -17   1    8.20   47.40
   4 -16   1    5.50   41.50
   4 -15   1  589.44   51.19
   4 -10   0 1539.15   50.59
   5 -12  -2  -31.60   44.00
   5  -8  -4  542.95   42.00
   5  -5 -15   59.59   41.40
   6 -14  -5   54.09   61.39
   6 -13  -5   42.60   57.19
   6 -11  -6  116.39   50.09
   6  -8 -13  296.77   49.90
   6  -8 -10   11.30   42.00
  -4   3   0  214.28   22.40
  -3   0   3 6896.41   59.39
   1 -10   5   43.70   16.20
   3 -17   3   17.80   37.90
   3 -16   3  375.66   44.50
   3 -15   3  -21.40   37.00
   4 -14   1   61.19   44.80
   5  -9  -3  105.49   33.50
   5  -5  -7  171.68   32.70
   5  -4 -13   67.19   36.50
   5  -4 -12  380.96   41.80
   5  -4 -11   40.50   33.20
   6  -8  -9   37.20   42.00
  -4  -8   8   62.09   18.80
  -4   4  -2 1351.76   36.40
  -3   5  -6  187.38   19.40
   1   3  -9  221.78   11.90
   3 -14   3   54.59   37.50
   3   0 -14  -39.10   23.50
   4 -13   1  238.38   45.60
   4  -5  -3   61.19   21.30
   5 -16  -1   65.59   46.80
   5 -15  -1   36.90   42.90
   5  -4  -9   29.50   28.30
   6 -15  -4  616.94   71.69
   6 -10  -6  -12.30   42.70
   6  -9  -7  986.70   60.29
   6  -7 -11   13.70   42.90
   3 -13   3   58.49   37.60
   4 -12   1  106.59   38.70
   5 -14  -1   10.30   49.70
   5  -7  -4  287.97   36.50
   5  -4 -14  321.57   46.40
   6 -14  -4   88.19   59.49
   6 -11  -5  -16.90   47.30
   6  -7 -13   48.10   41.70
   6  -7 -10  506.15   50.29
  -4   2   1  177.68   20.90
  -3   3  -1  470.35   21.10
  -3   4  -3   19.50   12.70
   1 -16   6  601.44   38.30
   1   2  -5 4242.88   28.80
   2   2 -11  293.07   18.10
   2   2 -10    3.80   13.60
   3  -7   1  583.34   26.50
   4  -3  -5  707.03   33.70
   4  -2  -7  766.62   31.70
   5 -10  -2   -1.00   34.40
   5  -8  -3  187.58   35.10
   5  -4 -15  247.98   44.40
   5  -4  -8  516.75   38.00
   6 -13  -4  156.98   56.99
   6  -9  -6  683.33   52.89
   6  -7  -9  597.74   52.19
  -2   1   1   70.79   11.60
   1 -15   6   69.19   28.60
   2  -2  -1 1096.29   24.70
   2   2 -12   69.59   16.10
   3 -12   3   61.89   34.00
   3   0 -15    4.90   27.70
   4  -7  -1  528.05   30.60
   4  -1 -12  526.95   35.10
   5  -5  -6  110.09   31.40
   6 -12  -4    1.90   49.30
   6  -8  -7 1292.37   59.59
  -4  -1   4  762.32   26.50
  -3   5 -11   49.20   18.40
  -3   5  -7   90.39   17.90
  -2   0   2    6.80   11.00
   1 -14   6  272.77   33.40
   1  -5   3  294.27   12.70
   2   2  -9   74.59   12.30
   4  -1 -10  -15.50   19.20
   5  -3 -12   63.69   33.00
   5  -3 -11  118.09   34.10
   6  -7  -8   31.50   39.40
   6  -6 -13  -22.80   41.60
   6  -6 -12  254.47   45.80
   6  -6 -10   16.80   40.30
  -4  -6   7   88.59   17.60
  -4  -4   6 1099.19   32.00
  -4   0   3    4.00   14.90
  -3 -10   8  174.78   16.80
   0 -14   7   67.99   22.90
   2 -17   5  345.17   40.50
   2 -16   5   59.29   34.30
   3  -2  -3 1781.92   35.80
   4 -16   2  104.69   44.80
   5 -11  -1 1074.59   57.99
   5  -9  -2  -45.80   30.90
   5  -3 -13   55.69   35.30
   6 -14  -3  304.07   66.99
   6 -11  -4  205.28   49.80
   7 -12  -8  897.61   85.29
   7 -11  -9   83.49   61.19
  -3   5 -10   36.80   19.30
  -3   5  -8   21.80   17.80
   1   3 -13   -0.10   14.70
   2 -15   5    3.90   36.10
   2  -1  -2  548.95   19.70
   2   2 -13  648.74   26.50
   3 -11   3  122.49   24.70
   4 -17   2   58.19   44.00
   4 -15   2    0.90   38.90
   4  -8   0  783.52   36.10
   5 -16   0   36.20   45.00
   5 -15   0  858.21   63.09
   5  -3 -14  186.98   43.60
   5  -3  -9   48.30   29.60
   6 -13  -3  -29.30   49.90
   6  -9  -5  788.72   51.99
   6  -7  -7 1511.95   60.29
   6  -6  -9  425.06   45.30
   7 -10 -10  152.28   57.09
  -4   3  -1 1949.10   41.20
  -3  -7   7 1188.98   26.10
  -3   5  -9   51.69   19.50
   0  -9   6 1463.45   20.20
   1 -13   6  157.28   24.90
   1  -9   5   12.30   14.30
   1   3  -8   30.60    7.60
   2 -14   5  231.68   37.70
   2  -4   1 2492.35   34.50
   3   0 -16   12.40   29.50
   3   1 -11  331.07   23.60
   4 -14   2   -2.20   42.10
   5 -14   0  771.12   63.79
   5  -7  -3  309.67   32.10
   5  -5  -5  359.46   29.90
   6 -12  -3  142.79   49.50
   6 -10  -4  464.95   50.79
   6  -6  -8  577.84   45.80
   7 -12  -7   36.80   60.79
   7 -11  -8  -11.50   57.79
   7 -10  -9  -46.20   54.49
   7  -9 -11   29.80   52.69
  -4  -9   8   69.59   20.20
  -3   2   0 1233.98   28.80
   3   0  -6   -3.70   13.30
   3   1 -12 1444.16   38.40
   4  -6  -1 2886.31   56.09
   4  -3  -4  120.59   22.00
   5 -13   0   64.09   45.10
   5  -8  -2   57.39   30.30
   5  -4  -6  929.61   41.20
   5  -3 -15  832.22   53.69
   5  -3  -8  716.63   39.70
   6  -5 -13   68.39   39.70
   6  -5 -12   18.40   39.20
   7 -13  -6  101.39   69.29
   7  -9 -10  -17.20   47.50
  -2  -6   6  347.57   14.50
   0 -13   7  -13.20   19.10
   2 -13   5  762.42   38.50
   3 -17   4 1312.57   59.69
   3 -16   4    1.50   35.40
   3  -1  -4 1205.88   30.80
   3   1 -13  220.98   26.90
   6 -11  -3  413.46   52.39
   6  -9  -4 1190.98   58.29
   6  -8  -5 1748.63   64.19
   6  -5 -14   51.69   45.00
   6  -5 -10  390.46   43.10
   7 -11  -7  509.55   68.49
   7 -10  -8  -61.59   50.29
   7  -9  -9  -44.70   47.40
  -1  -1   2  195.28    8.60
  -1   0   1 4100.79   26.20
   2   2 -14   -1.70   21.80
   3 -15   4   -3.40   38.60
   3  -6   1   61.29   15.40
   6  -6  -7   -6.80   32.50
   6  -5  -9   55.99   38.20
   7 -12  -6  896.21   75.69
   7  -8 -11  147.79   47.70
  -3  -2   4  114.59   13.60
  -1   4  -7   63.19   10.40
   3 -14   4   -8.40   39.50
   4  -9   1 1085.79   39.90
   4  -7   0   25.60   22.20
   4  -1  -7  280.37   23.70
   5  -9  -1   -8.90   29.20
   5  -6  -3 1264.97   45.80
   5  -5  -4  419.36   33.60
   5  -3  -7  170.18   27.50
   5  -2 -12   10.00   32.80
   5  -2 -11   96.39   32.60
   6 -10  -3  977.80   56.19
   7 -13  -5   38.00   64.59
   7 -11  -6   86.39   51.99
   7 -10  -7   84.09   52.89
   7  -9  -8   20.10   46.20
   7  -8 -10   82.69   45.30
  -4   4  -4   51.29   19.40
   1 -12   6   -4.60   17.80
   2  -5   2  244.58   16.00
   3   1 -14  -14.80   24.80
   4  -1 -16   -1.50   31.70
   5  -2 -10   36.40   29.90
   6 -12  -2   11.30   43.10
   6  -7  -5    5.50   31.40
   6  -5  -8   85.19   33.40
   7  -8  -9  203.38   47.50
  -3   1   1  251.47   16.40
   2 -12   5  185.58   23.90
   3 -13   4  -13.40   30.70
   4 -11   2  131.69   32.80
   5 -15   1  664.33   59.99
   5 -14   1  844.12   65.49
   5  -4  -5   90.69   24.20
   5  -2 -14  159.58   39.40
   6 -15  -1   83.49   58.79
   6  -8  -4  587.74   46.60
   6  -6  -6  212.58   36.60
   6  -4 -13   46.20   38.40
   6  -4 -12   17.90   36.00
   6  -4 -11   18.40   36.20
   7 -12  -5  -24.10   50.09
   7 -10  -6   10.10   52.09
   7  -9  -7  -30.40   43.40
  -4  -7   7  620.64   26.60
  -3  -1   3 2914.21   40.10
   4 -17   3  439.06   47.70
   4 -16   3   18.60   41.40
   6 -14  -1  -10.00   54.29
   6 -11  -2  138.19   46.60
   6  -9  -3   16.40   35.40
   6  -5  -7   13.90   31.50
   6  -4 -14  107.09   45.80
   7 -11  -5   20.50   52.19
   7  -8  -8    4.10   43.70
   7  -7 -10  312.57   50.39
  -4 -10   8  677.53   30.70
  -4  -5   6  594.84   26.40
  -4  -2   4  272.57   21.30
   1  -2   1   57.79   10.80
   3  -7   2  478.45   24.10
   3  -3  -1  131.29   18.00
   3   1 -15   42.20   27.70
   4 -15   3  -15.90   49.30
   4  -8   1  554.34   30.90
   4  -5  -1 2511.85   50.99
   4  -3  -3   -2.80   20.10
   5 -13   1 1600.94   68.39
   5 -10   0 1049.49   48.90
   5  -8  -1   -0.40   28.20
   5  -3  -6 3397.46   64.49
   5  -2 -15  235.58   38.30
   6  -4  -9  -39.70   36.20
   7 -13  -4  117.69   56.99
   7  -7  -9  555.64   50.89
  -4   1   1   11.50   23.10
  -3   4  -5   10.20   17.20
  -1   4 -12    3.90   10.10
   1  -1   0 2022.40   21.40
   3 -12   4   16.80   30.20
   3  -9   3  238.38   21.90
   4 -14   3  268.97   44.30
   4 -10   2   53.09   25.70
   4   0 -14   85.39   28.10
   4   0  -9   14.20   17.40
   5  -2  -8  410.76   30.10
   6 -10  -2  412.46   47.60
   7 -12  -4   39.70   49.80
   7  -9  -6   47.70   48.90
   7  -8  -7  143.09   45.30
   7  -6 -12   32.40   41.70
  -4  -1   3 4471.45   57.99
  -4   0   2 1231.18   33.30
   0 -12   7   43.30   15.90
   5 -12   1   -5.70   38.00
   6  -8  -3  272.47   39.60
   6  -6  -5   88.19   31.90
   7  -7  -8  876.71   59.09
   7  -6 -10  863.91   58.09
  -1   3  -4 1718.73   20.10
   1 -11   6    7.90   15.40
   4 -13   3  136.09   39.20
   4  -6   0  519.95   28.00
   4  -2  -4  291.87   23.60
   4   0 -15   18.90   31.00
   5  -9   0   49.99   31.60
   5  -6  -2 5613.24   82.99
   6  -5  -6   16.20   31.00
   6  -3 -13   23.70   38.80
   6  -3 -12  -24.60   37.50
   6  -3 -11   41.70   36.70
   7 -11  -4  186.18   50.69
  -3  -8   7  510.65   22.60
  -2  -3   4 1425.26   22.30
   2  -8   4  177.28   15.90
   3  -1  -3 2731.43   42.00
   5  -1 -13   15.00   30.30
   5  -1 -12  104.89   32.30
   6 -15   0  130.59   57.39
   6 -11  -1  669.63   56.79
   6  -9  -2  159.38   38.10
   6  -3 -14   75.69   43.50
   7 -13  -3   91.39   52.89
   7  -8  -6  -12.40   40.50
   7  -7  -7  -38.80   41.60
   7  -6  -9  506.05   49.99
  -3   2  -1 1588.44   32.30
  -2  -9   7   18.50   12.90
  -1   4  -8   42.80    9.80
   1  -8   5  434.06   16.10
   1  -3   2  304.87   12.70
   1   3  -7  163.78    8.20
   2  -6   3  115.99   14.40
   3 -11   4  262.57   29.30
   4 -12   3   61.69   36.60
   5 -15   2  144.29   58.79
   5  -7  -1  182.88   26.90
   5  -3  -5 1727.13   47.80
   5  -1 -10  706.03   40.80
   6 -14   0  486.95   61.89
   6  -4  -7  133.29   32.70
   7 -12  -3   12.20   49.30
   7 -10  -4   35.90   43.80
   7  -5 -13  158.58   45.20
   7  -5 -12  186.18   45.60
  -4   2  -1  968.70   32.50
  -4   3  -3 3138.59   52.39
  -3   3  -3    6.90   12.50
   4  -7   1  550.44   29.60
   6  -6  -4  215.78   36.70
   6  -3  -9  -30.40   31.70
   7  -6  -8  447.16   50.39
   8 -10  -8   45.50   52.39
   8  -9  -9   -4.80   56.69
  -4 -11   8   42.80   22.80
  -4  -4   5    6.50   14.10
   2  -2   0   97.59   14.80
   3 -17   5    9.50   36.40
   3 -16   5  487.55   46.80
   4  -1  -5   16.90   16.50
   4   0 -16   -1.50   30.60
   4   0  -7  -21.80   16.60
   5  -8   0    3.30   27.00
   6 -10  -1   36.40   41.70
   6  -7  -3  906.61   47.30
   6  -5  -5   15.90   29.90
   7 -11  -3  507.25   55.19
   7  -8  -5  192.88   38.80
   7  -7  -6  247.48   39.90
  -4  -8   7  709.43   30.50
  -3  -6   6  106.19   17.40
  -2   1   0  507.85   17.60
  -2   4  -7 1441.16   28.80
   3 -15   5   13.90   42.70
   5 -13   2  324.17   46.70
   6  -8  -2  117.69   34.40
   6  -4  -6  -14.40   29.00
   6  -3  -8   33.80   32.30
   7  -6  -7   34.20   40.90
   7  -5  -9  786.62   55.49
   8 -11  -6  201.18   61.39
   8 -10  -7  -42.90   55.99
   8  -9  -8   10.40   51.89
   8  -8 -10  -86.89   48.40
  -3 -12   8   29.10   19.70
  -3   4  -7  234.38   20.90
  -2   4 -12   79.19   17.30
  -1   4 -11   36.10   11.00
   2 -10   5  113.29   20.10
   2  -1  -1   58.39   14.50
   3   0  -4    3.90   16.00
   3   1  -6   14.70   11.20
   3   2 -12  759.02   28.90
   4 -16   4  102.89   45.50
   4 -11   3   88.39   32.30
   4  -4  -1 2139.69   46.00
   4  -3  -2    9.40   19.30
   5  -5  -2   38.90   23.50
   5  -4  -3  100.29   24.50
   6  -2 -12  -20.20   37.20
   7 -10  -3  877.41   61.99
   8  -8  -9   46.00   48.90
  -4   1   0  335.87   24.90
  -1   4  -9   -9.80    9.90
   2 -14   6   28.60   31.10
   3 -14   5   37.80   33.50
   3 -10   4   20.30   22.80
   3   2 -13  173.28   24.50
   3   2 -10   27.30   16.90
   4  -5   0  136.09   22.30
   4  -2  -3 2172.48   45.10
   4   1 -13  276.67   31.80
   4   1 -12  543.25   32.50
   5 -12   2    6.50   37.90
   5  -6  -1   30.30   23.10
   5  -3  -4  468.35   31.00
   6  -9  -1  154.88   36.80
   6  -2 -13   23.40   36.90
   6  -2 -11  356.86   40.30
   7 -12  -2  543.15   56.59
   7  -4 -13  378.56   49.99
   7  -4 -12   95.09   41.60
   8  -9  -7   -6.10   55.89
  -3  -3   4   -4.90   12.10
  -3   4 -11   79.39   21.50
  -2  -2   3  767.12   18.30
   6  -6  -3  328.27   37.00
   6  -5  -4   56.49   32.00
   6  -2 -14  311.37   44.80
   6  -2 -10  456.25   42.50
   7  -7  -5   50.39   37.40
   7  -6  -6  104.19   38.30
   7  -4 -11  377.26   46.80
   8 -11  -5   99.09   58.99
   8 -10  -6   29.90   50.99
   8  -8  -8   55.49   49.99
   8  -7 -10  -12.10   44.10
  -3   4  -8  112.09   18.60
   1 -15   7  972.10   39.90
   2  -4   2  384.46   17.60
   2   3 -11    4.10   12.90
   3 -13   5   52.09   34.40
   3   2  -9  107.49   16.80
   4 -14   4  362.56   46.80
   4   0  -6   86.19   19.10
   4   1 -14   51.09   30.00
   7 -14  -1   62.19   53.79
   7 -11  -2  847.02   58.89
   7  -9  -3  437.76   51.09
   8  -7  -9   27.10   44.50
  -4   0   1   20.60   17.10
  -4   2  -2 1006.10   34.10
  -3   4 -10   32.20   20.30
  -3   4  -9  351.76   24.70
  -2   3  -4   66.69   11.90
  -2   4 -11  107.59   16.70
   1 -10   6  578.64   20.60
   2 -13   6   35.80   30.20
   2   3 -12  814.62   23.80
   2   3 -10  486.25   18.70
   3  -2  -1  324.67   21.50
   3   2 -14  112.69   25.50
   4 -10   3  108.49   23.20
   4  -6   1  151.98   21.80
   4  -1  -4  767.62   30.80
   5 -16   3   72.99   47.50
   5 -11   2    4.90   34.60
   5  -2  -5 1078.79   39.40
   5   0 -12   55.39   26.40
   5   0 -11 2045.20   59.79
   6 -13   1   45.20   48.70
   7 -13  -1   60.69   49.50
   7  -5  -7   60.49   38.20
   7  -4  -9   47.30   41.00
   8 -12  -4   75.39   63.99
   8  -9  -6   50.39   50.99
   8  -8  -7   22.00   51.59
  -4  -2   3 2113.59   42.70
  -2   4  -9 1890.11   34.10
   1  -4   3 1193.68   19.50
   2   0  -2    9.50   13.30
   4 -13   4  759.72   47.70
   5 -15   3   37.20   49.50
   5   0 -10   17.60   24.90
   6 -10   0  209.68   42.80
   6  -3  -6 1404.36   52.39
   7 -10  -2  475.15   53.69
   8 -10  -5    3.00   51.59
   8  -7  -8   60.89   45.50
   8  -6 -10   50.39   46.80
  -4  -1   2  519.95   25.40
  -3  -9   7 1093.39   30.10
  -3  -2   3 1862.91   33.70
  -3   2  -2 5726.53   59.19
  -2  -5   5  177.38   12.10
  -2   4 -10 1124.79   27.80
   1 -14   7  811.82   32.80
   2  -7   4  193.78   15.70
   3  -4   1   44.30   15.20
   3  -1  -2 6613.94   62.69
   5 -14   3  363.36   55.89
   6  -2  -8   15.60   29.20
   7  -7  -4   14.10   35.90
   7  -6  -5  -12.50   34.30
   7  -4  -8  217.48   41.90
   7  -3 -13  230.28   49.80
   7  -3 -12  148.19   42.30
  -3  -1   2 6560.04   60.29
   2   3 -13  554.24   23.70
   3 -12   5   71.49   28.50
   3  -9   4  625.84   28.90
   3   2  -8 1314.77   31.00
   5  -8   1   13.20   24.80
   5  -5  -1 2139.79   53.29
   5  -4  -2 2416.06   54.49
   5  -3  -3  288.97   28.00
   5   0 -15   -3.70   35.40
   6 -12   1    0.30   39.00
   7  -8  -3  228.88   44.70
   7  -5  -6    2.80   35.20
   7  -3 -11    8.60   38.70
   8  -9  -5   20.10   54.79
   8  -8  -6  202.78   52.39
   8  -6  -9  119.79   46.40
  -2  -7   6  125.59   14.10
   2  -9   5   17.30   17.70
   2   3  -9  102.59   13.90
   3   1  -5  401.86   20.80
   3   2 -15    9.60   25.50
   4 -12   4    8.30   30.70
   4  -9   3  253.27   26.80
   4  -7   2  531.25   29.60
   5 -10   2  517.85   42.10
   6  -9   0    9.30   37.80
   6  -6  -2  324.87   37.10
   6  -5  -3  552.54   39.60
   6  -4  -4   22.00   30.70
   6  -1 -13  252.17   44.80
   6  -1 -12  -63.89   34.70
   6  -1 -11 1612.94   60.09
   7  -9  -2  767.02   55.29
   8 -12  -3  -18.60   54.59
   8 -10  -4  472.65   58.49
   8  -7  -7  464.75   53.99
   5  -6   0   67.09   26.60
   5  -2  -4  232.58   28.20
   6 -15   2  219.48   61.49
   6 -11   1   93.49   40.90
   6  -1 -14  154.48   41.60
   7 -14   0   40.10   52.69
   7  -4  -7   36.60   36.70
   8  -6  -8  -16.60   43.50
  -4  -7   6 1160.48   34.30
  -3  -5   5   31.80   13.60
  -1  -4   4    8.90    5.80
   2  -5   3  116.09   14.10
   4  -4   0  693.93   29.70
   4  -2  -2  188.88   22.00
   4   0  -5   17.30   16.40
   6  -3  -5  167.28   33.20
   7 -13   0   77.99   47.70
   7  -6  -4   47.80   36.00
   7  -3  -9   41.80   37.30
   8 -11  -3  460.85   60.99
   8  -8  -5  342.77   57.19
   8  -7  -6  226.98   53.59
  -3   3  -5   47.90   15.10
   3   0  -3 7059.29   64.39
   5 -12   3   14.00   36.50
   7 -10  -1  389.46   48.90
   7  -7  -3  -19.90   33.30
   7  -5  -5  323.37   41.60
   8  -9  -4   43.50   44.90
   8  -6  -7   -7.50   43.50
   8  -5  -9   43.10   43.10
  -3  -7   6 1999.50   36.60
   1 -13   7 1026.50   31.80
   2   3 -14   32.70   16.70
   3 -11   5   77.89   25.40
   4 -16   5   -8.10   48.10
   4 -11   4  206.58   35.00
   4  -5   1  542.35   27.20
   4  -1  -3 4494.65   62.19
   5  -7   1  212.38   28.40
   6 -13   2  -34.50   42.20
   6  -8   0   49.30   33.10
   7 -12   0   84.59   45.10
   7  -8  -2   11.20   39.40
   7  -4  -6   38.00   33.80
   7  -3  -8   39.60   37.20
   2   2  -5   79.39   12.70
   3 -16   6   41.60   47.10
   5  -1  -5  174.88   24.50
   6  -1  -8   11.60   30.30
   7  -2 -13   88.29   44.30
   7  -2 -12   26.20   38.20
   7  -2 -11  -10.60   37.90
   8 -10  -3  226.88   49.80
   8  -5  -8   -8.30   43.30
   8  -4 -12   -0.80   41.40
  -4 -10   7  -17.40   21.70
  -4   0   0   45.40   22.50
  -3   1  -1 1450.75   31.70
   2   1  -3   86.79   12.50
   2   3  -8  284.87   14.90
   3  -8   4  -29.70   17.70
   4 -15   5  253.57   51.19
   5 -11   3   80.69   37.80
   6 -12   2   71.79   42.20
   6  -4  -3   71.09   30.20
   7  -9  -1  186.98   42.40
   7  -2 -10  -15.20   36.40
   8  -8  -4   69.79   42.80
   8  -7  -5  718.93   61.39
   8  -6  -6  520.95   55.99
  -1   1  -1  296.17   11.80
   4 -14   5 1069.49   55.99
   4   2 -13  150.38   29.50
   4   2 -12  135.89   25.60
   4   2 -11   30.80   19.40
   5 -15   4   66.89   49.70
   5  -4  -1    9.70   22.00
   5  -3  -2   88.09   24.30
   6  -6  -1  326.47   36.70
   6  -3  -4  -14.00   29.90
   7  -5  -4  616.74   46.40
   7  -3  -7   24.20   33.60
   8  -9  -3  370.46   54.49
  -3 -10   7  410.36   25.40
   2 -11   6   52.39   19.00
   4 -10   4   93.09   30.70
   4   2 -10  -12.30   20.90
   5 -14   4  534.85   54.59
   5  -5   0  107.29   23.60
   5  -2  -3   33.10   21.90
   5   1 -14   68.39   32.80
   6   0 -13  -24.00   37.20
   6   0 -12  474.95   42.70
   7  -7  -2   -7.30   34.20
   7  -4  -5  613.34   46.30
   8  -5  -7   42.20   41.10
   8  -4  -9  138.39   43.00
   9  -8  -7  494.45   68.09
  -4  -1   1   33.20   18.60
  -2   1  -1  636.14   19.10
   3 -14   6  -22.90   36.90
   4   0  -4 1119.19   34.00
   6 -11   2  184.68   41.80
   6  -7   0  308.77   38.00
   6  -2  -5 1462.65   51.19
   6  -1  -7   82.09   29.30
   6   0 -11    4.90   37.30
   7 -13   1  371.76   56.69
   8 -10  -2  627.34   60.59
   9  -7  -8  208.18   58.29
  -4  -8   6  623.14   28.90
  -4  -2   2  165.18   18.90
   1  -9   6  424.16   17.60
   3  -3   1  483.75   24.40
   3  -2   0 1239.88   31.40
   4 -13   5   62.19   37.40
   5  -6   1   14.20   24.20
   5   0  -6   37.90   20.30
   5   1 -15  172.28   36.90
   5   1  -9    6.80   21.00
   6   0 -10 3626.34   78.59
   7  -8  -1   50.09   40.00
   7  -3  -6 1479.55   59.49
   8  -7  -4  241.68   48.90
   8  -6  -5  725.83   56.69
   8  -4  -8  168.08   44.40
   8  -3 -12   -5.80   42.90
   8  -3 -11  169.98   45.30
   9  -8  -6   37.20   56.49
  -3   0   0    9.20   14.00
  -3   3  -7  108.99   20.30
  -2  -4   4 4501.15   40.00
   2  -2   1 2202.18   33.30
   3  -1  -1  258.37   20.80
   5 -13   4  178.18   46.00
   6 -14   3   24.30   49.60
   6   0  -9   21.00   34.00
   7 -12   1    5.20   46.90
   7  -1 -13  -18.60   42.30
   7  -1 -12  -29.80   37.60
   8  -8  -3   57.69   44.20
   8  -5  -6  245.98   46.20
   9  -9  -5   36.60   56.59
   9  -7  -7  188.98   55.49
  -4 -11   7    6.80   24.10
  -2   2  -3 2751.52   35.60
   1 -12   7   85.69   20.80
   3 -13   6   19.60   34.50
   3   3 -12  207.88   20.10
   3   3 -11  -26.40   15.20
   4  -2  -1  136.59   21.60
   6 -10   2   87.29   39.20
   6  -8   1  285.37   39.80
   6  -5  -1   -0.20   30.90
   6  -4  -2  104.39   33.10
   6  -1  -6  572.04   41.40
   7  -9   0   -0.30   42.00
   7  -6  -2  348.57   43.80
   7  -5  -3  118.69   37.20
   7  -1 -11    3.50   38.00
   8  -9  -2  319.07   49.40
   8  -4  -7   20.50   42.60
   9  -6  -8  156.08   52.59
   2  -3   2  394.06   19.60
   3  -4   2   -0.50   16.00
   3   3 -10  117.19   17.60
   4  -4   1  785.02   30.50
   4  -1  -2  510.05   29.20
   5 -12   4 1055.49   53.59
   6 -13   3   69.99   49.99
   7 -11   1  144.19   45.80
   7  -1 -10   72.19   39.30
  -3  -3   3  785.22   24.80
  -3   3 -10   25.50   23.00
  -1   2  -3 1040.70   17.10
   3   3 -13   22.70   20.30
   4  -9   4  671.03   31.90
   5  -9   3    1.10   31.40
   6  -2  -4  363.96   32.90
   7  -7  -1  289.17   41.20
   8  -7  -3   45.40   39.40
   8  -6  -4   52.99   44.30
   9  -9  -4  220.58   62.79
   9  -7  -6 1117.59   74.39
   9  -5  -9   35.10   48.00
  -4   0  -1  -10.60   21.10
  -3  -8   6 1568.44   34.60
  -3  -6   5 3095.79   45.20
  -3  -1   1  249.48   17.20
  -3   2  -4   24.90   14.40
  -3   3  -9   59.59   21.40
   2   3  -7  775.42   19.80
   3   0  -2   29.60   16.70
   4   1  -5   21.20   17.90
   5  -3  -1  117.39   25.30
   5  -2  -2  222.68   26.40
   5   0  -5  363.56   28.60
   6 -12   3   85.19   39.20
   8 -10  -1  183.48   48.80
   8  -8  -2    1.00   44.50
   8  -4  -6    0.80   43.60
   8  -3  -8  119.69   42.30
   8  -2 -12   12.80   44.20
  -4   1  -3   23.30   20.50
  -3  -2   2  837.02   25.60
  -2   0   0 1726.43   28.00
   2 -10   6   71.89   17.90
   2   0  -1  133.39   16.60
   3   3  -9  356.36   21.80
   4  -5   2  690.83   30.70
   7 -13   2   13.10   53.09
   7  -8   0  191.58   44.10
   7  -2  -6 1503.05   59.59
   8  -2 -11   32.80   43.10
   9  -5  -8   63.69   46.20
  -3 -11   7   44.40   20.20
   3 -12   6  107.19   31.60
   3   3 -14    7.30   21.10
   4 -11   5  321.57   35.40
   4   0  -3    2.80   18.40
   5 -11   4  108.49   35.20
   5  -5   1  156.78   26.60
   5  -1  -3  136.29   24.70
   6  -7   1  800.22   44.80
   6   0  -7  -40.00   28.70
   7  -5  -2  278.97   40.90
   7  -4  -3  231.08   36.90
   8  -9  -1  -35.20   44.20
   8  -2 -10  227.58   45.80
   9  -8  -4   27.10   51.19
   9  -7  -5  283.97   55.99
   9  -6  -6   84.29   54.09
  -4  -9   6   -7.30   21.50
  -2  -3   3 1697.93   26.60
  -2   3  -7 1937.71   35.40
  -1   3  -6 2880.91   29.50
   3  -5   3   95.99   17.10
   5 -15   5  -26.20   51.59
   5   2 -12  -11.60   26.30
   6 -11   3   13.50   40.60
   7  -6  -1  103.29   37.90
   7  -3  -4 1081.89   53.49
   8 -11   0  -22.50   45.60
   8  -6  -3   -4.80   40.20
   8  -3  -7  -28.30   41.40
   9  -9  -3  283.47   65.89
   9  -4  -9   17.00   48.20
  -2  -8   6  433.26   19.00
   2  -4   3  317.97   17.40
   5  -8   3  171.88   27.60
   5   2 -13    3.80   27.80
   6  -4  -1   47.00   29.40
   6  -3  -2  240.68   30.30
   6   1 -10   48.80   36.80
   7   0 -13  -34.80   42.00
   7   0 -12   13.70   39.80
   7   0 -11  205.08   42.90
   8  -7  -2   22.70   42.90
   8  -4  -5  886.51   59.69
  -4  -4   3  557.74   27.60
  -2  -6   5  159.28   13.90
   4 -15   6  -10.00   43.40
   5 -14   5  543.55   52.19
   5  -6   2   59.29   24.10
   5   2 -14   94.79   34.70
   6 -14   4   45.70   49.00
   6  -5   0  -21.20   31.50
   6  -2  -3   30.60   25.70
   7  -7   0 1020.50   56.49
   7  -2  -5 1533.45   58.69
   7  -1  -7   79.79   34.60
   7   0 -10   -2.70   38.60
   9  -4  -8  147.39   48.70
  -4  -3   2   30.00   20.80
  -4  -2   1  159.68   23.20
  -2  -1   1   51.69   12.60
  -1   0   0    2.00    8.60
   2 -13   7   96.19   28.50
   3   1  -3 3000.20   44.20
   3   3  -8   60.39   14.50
   5 -10   4   -2.80   33.10
   5   0  -4   26.00   19.70
   5   1  -6   44.70   19.70
   6 -10   3   79.59   39.70
   6   0  -6   68.69   27.80
   7 -11   2   31.90   42.80
   8  -8  -1  176.48   46.10
   8  -2  -8  472.65   49.99
   9  -8  -3   45.80   54.39
   9  -7  -4   64.59   52.59
   9  -6  -5  596.94   61.49
   9  -5  -6  190.48   54.09
  -2   3 -11  119.09   20.50
  -2   3  -8   83.09   17.00
  -1  -3   3  362.06   10.20
   3 -11   6  204.78   28.50
   4 -14   6  137.09   44.90
   4 -10   5   91.09   31.80
   4  -2   0   24.30   19.80
   4   1  -4  779.22   31.60
   5 -13   5 1024.30   58.09
   5   2  -9   -4.80   18.80
   6 -13   4   21.90   47.20
   6  -6   1  301.57   36.10
   6  -1  -4   28.70   25.70
   7   0  -9  332.37   44.10
   8  -1 -12   53.69   47.80
   8  -1 -11   50.49   42.20
  -4   0  -2  160.18   24.90
  -3   0  -1 5386.56   58.79
  -2   2  -4  454.65   18.10
  -2   3 -10  162.28   21.40
  -2   3  -9  226.68   20.50
   4   3 -11   27.80   19.50
   5  -3   0  356.06   31.70
   5  -2  -1  274.97   27.70
   7 -10   2   76.99   42.50
   7  -4  -2   76.39   36.40
   7  -1  -6  790.02   49.10
   8  -6  -2   40.90   40.20
   8  -5  -3  108.49   43.30
   8  -4  -4  702.93   52.79
   8  -2  -7  314.47   49.20
   8  -1 -10   72.69   44.20
   9  -9  -2   49.90   47.20
   9  -4  -7   -9.60   44.10
  -3 -12   7    7.10   22.60
  -2   1  -2 1706.23   29.30
   2   1  -2  549.15   21.60
   4   3 -13   27.40   27.00
   4   3 -10  150.78   22.40
   7 -13   3  684.03   66.49
   8 -11   1   80.19   47.40
   8  -3  -5  504.85   52.59
   9  -6  -4   28.70   48.90
  -4  -6   4  292.17   24.90
  -3  -9   6  166.48   20.80
  -3   1  -3  207.68   19.90
   1  -2   2  624.54   16.30
   1  -1   1  351.36   13.90
   3  -2   1 1651.13   35.80
   3  -1   0  169.18   19.90
   4 -13   6  573.34   48.00
   5 -12   5  385.86   45.80
   5  -4   1   89.29   24.00
   5  -1  -2 1020.90   39.50
   5   2  -8  444.96   30.20
   6  -9   3  135.19   39.00
   9  -7  -3   13.70   51.19
   9  -3  -8    7.00   43.70
  -3   2  -6 1510.25   38.60
   3  -3   2   53.89   17.70
   3   3  -7  842.22   26.60
   4   0  -2 1229.58   36.80
   5   1  -5  196.38   24.10
   6  -4   0   13.50   28.30
   6  -3  -1   49.60   26.20
   6   0  -5   10.50   24.80
   7 -12   3  -10.00   49.20
   8  -2  -6    4.80   42.50
   9  -8  -2   98.79   51.19
   9  -4  -6   31.90   47.60
  -3  -7   5   16.70   18.10
   4  -7   4  278.17   24.80
   4   3  -9   47.00   21.50
   5  -5   2  279.27   29.30
   7  -9   2   65.59   42.80
   7  -1  -5  634.84   46.40
   7   0  -7   35.30   37.80
   7   1 -13   -4.30   40.40
   7   1 -12   -5.30   42.80
   8 -10   1   61.39   46.20
   8  -8   0   74.09   42.80
   9  -2 -10  287.67   53.79
  -3  -4   3   27.50   14.10
  -3  -1   0  171.68   16.60
  -3   2  -7  835.12   32.60
   3   0  -1  144.99   19.60
   4  -9   5   34.90   27.40
   5   0  -3   98.79   23.00
   6 -11   4   52.59   38.50
   6  -5   1  538.25   40.20
   6  -1  -3  214.98   30.50
   6   2 -11  366.26   38.00
   7   1 -11  -20.70   37.50
   8  -5  -2  274.07   49.60
   8  -4  -3  226.28   41.40
   8  -3  -4  824.12   54.39
   9  -9  -1  716.13   64.49
   9  -6  -3   36.50   55.39
   9  -3  -7   65.69   45.00
   4  -5   3  256.97   23.90
   5 -11   5  590.84   44.60
   6   2 -10  523.25   43.10
   7 -11   3  374.16   49.50
   7  -4  -1 1013.70   52.89
   7  -3  -2  207.28   39.50
   7   1 -10   49.99   41.60
   8  -6  -1  309.77   49.20
   8   0 -12   13.00   45.70
   8   0 -11  -52.79   40.60
   9  -7  -2   45.50   48.70
   9  -4  -5   30.50   46.30
   3  -4   3   13.20   16.80
   4   2  -5    0.10   18.40
   6  -8   3 1744.73   62.99
   7  -5   0   13.20   34.80
   7  -2  -3   56.59   35.10
   7   1  -9  -33.00   38.10
   8  -7   0   28.00   43.20
   8  -2  -5   65.99   43.60
   8  -1  -7   85.89   42.10
   8   0 -10  104.89   45.40
   9  -2  -8  397.96   58.19
  -3  -3   2   11.10   13.80
  -3  -2   1  311.67   19.30
   4   1  -3 4434.06   62.39
   6  -6   2  706.13   42.80
   6   0  -4  273.27   31.30
   7   0  -6  -66.89   32.20
   9  -8  -1  216.88   51.79
   9  -3  -6   16.00   43.40
   1  10  10  -16.30   45.30
   3  13   8  100.19   58.29
   3  13   9   31.30   64.59
   3  13  10  -33.80   62.89
   4   9  -2    5.20   42.60
   4  10  -1  411.46   55.69
   4  14   7   67.49   61.19
   4  14   8   -1.60   70.19
   5  12   0 1556.84   83.29
   6  13   0  559.74   82.09
   7  13  -1  102.69   75.29
   8   2  -9  735.03   54.19
   8  11  -4   -5.90   64.29
  -2   1  11    3.00   16.60
  -1  -3   2   89.59   22.10
  -1   4   7  188.38   15.70
   2   6  -1  115.89   29.10
   2   9   2  111.39   33.80
   3   7  -2  227.68   32.40
   3  10   1 1782.42   69.99
   4  12   2  220.88   57.99
   4  13   4  654.33   73.39
   6  12  -1   15.20   64.59
   6  14   2  -20.00   73.49
   7  12  -2  552.04   75.09
   1  -6  -3   33.50   21.60
   1  -5  -3 1331.37   34.50
   3  -7  -6 1989.10   41.80
   3   9   0 1173.18   58.59
   4   6  -4  322.07   38.50
   5   9  -3   85.59   47.50
   5  10  -2  -26.90   51.99
   5  13   2  292.37   68.39
   6   1  -8   -3.30   24.60
   6   4  -7  108.29   30.80
   6   9  -4 1209.48   75.49
   7  10  -4  103.39   61.19
   7  11  -3  624.44   75.59
  -2   0   8 1447.96   30.30
  -2   1  10    5.40   13.30
   0  -6  -1  262.37   31.50
   0  -5  -1 1482.75   41.90
   2   7   0  148.59   31.70
   2   8   1   24.50   29.10
   2  10   4   75.19   37.60
   2  11   7 1145.79   68.39
   5   6  -5  -16.60   33.00
   6  10  -3  958.50   77.59
   7   7  -6  228.98   57.39
   9   7  -7  117.99   68.79
  -2   1  12  124.29   16.60
   0  -7  -1   61.39   29.00
   0   2   1   58.49   14.50
   0   7   7 1252.67   42.60
   1  -7  -3  245.38   26.80
   1   8   4  792.02   39.50
   2  11  12  892.41   75.09
   4  -9  -7   19.50   25.40
   4  11   1  807.32   68.09
   5  -9  -8   31.50   23.20
   6  13   1   55.79   69.39
   7   5  -7   71.59   50.29
   7  13   0   53.19   73.59
   8   1  -9  534.75   52.69
   8   4  -8  168.28   52.69
   8   6  -7   -1.40   54.79
   8  12  -2   88.69   80.89
   0   6   5   14.40   20.30
   1   9  13  221.48   52.59
   2  11   8   33.10   52.29
   4   7  -3   56.39   36.70
   4  12   3  -35.50   57.69
   5  12   1   19.80   53.89
   5  13   3   20.60   62.69
   8  11  -3  406.16   75.09
   9   2  -9   98.69   52.99
   9   8  -6   14.90   62.89
  -2  -6   5  137.39   45.00
   0  -8  -1  138.79   33.90
   1   9   7  348.37   38.90
   2   4  -2 1926.01   46.10
   2  11   9  163.08   51.99
   2  11  10  180.28   62.39
   3   5  -3  184.58   28.60
   3  10   2  490.05   55.59
   3  12   7  -25.40   54.49
   4  10   0 1521.65   72.99
   6  12   0   18.70   67.29
   6  14   4   12.60   66.79
   7  12  -1  -17.00   71.09
  -2  -5   5  185.78   32.20
   1   4   0 1577.14   40.00
   1   7   3  -28.90   26.10
   2   9   3   34.60   30.90
   2  10   5  106.39   39.50
   3   3  -4    3.90   20.50
   3  11   4  214.38   51.49
   3  12   8   70.39   59.19
   3  12  11   13.10   59.89
   4   8  -2  121.19   39.10
   4   9  -1  323.87   49.00
   4  13   7   80.39   61.69
   6   0  -8   30.60   23.40
   6  13   2    6.70   66.79
   7   9  -4   43.00   58.49
   7  11  -2  641.24   77.29
   7  13   1  394.26   88.39
   9   9  -5  -17.30   63.29
  -2  -4   5   43.70   26.20
   0   7  12  316.77   44.70
   1   9   8  257.57   41.60
   1   9  12   95.09   54.19
   3  12   9   -4.40   58.39
   3  12  10  -63.79   63.39
   4 -10  -7   -0.50   26.60
   4  12   4   27.90   60.39
   4  13   8   89.19   61.89
   4  13   9  -24.70   68.29
   5   8  -3  242.58   50.09
   5  10  -1  122.69   52.29
   5  12   2   42.80   63.89
   6   5  -6  -13.30   33.30
   6   8  -4  619.74   60.49
   6  11  -1  765.92   74.69
   7  -2  -9  226.78   30.60
   7   2  -8   18.70   36.90
   7  10  -3  811.82   77.49
   8   7  -6  312.27   65.09
   9   4  -8   94.09   57.29
   9   6  -7  264.27   69.39
  -1   4  13  621.04   29.90
   0  -3  -1  115.99   19.20
   0   5   4  363.86   24.80
   1  -3  -3  384.76   15.70
   1   5   1 9997.70   93.39
   1   6   2 2497.75   53.89
   1   8   5  453.65   35.50
   1   9   9  106.99   46.70
   1   9  11   -4.10   48.80
   3   6  -2   14.40   27.80
   3   9   1  414.86   46.00
   4   5  -4  219.58   32.50
   5   9  -2  -27.70   48.60
   6   9  -3   58.99   50.79
   8   0  -9   -2.80   42.40
   8  12  -1   33.70   74.79
  -1  -7   1    3.40   38.10
  -1  -6   1   18.20   25.60
   2   8   2  144.09   31.10
   3 -10  -6  114.69   30.70
   3   8   0  976.40   51.49
   3  11   5  138.99   52.99
   6  12   1   24.30   63.89
   7   4  -7   10.10   45.00
   7  12   0  106.89   73.29
   7  13   2   14.90   77.19
   8   5  -7   40.50   54.59
   8  11  -2   23.60   70.79
   9   1  -9  381.56   55.19
   9   7  -6 1089.29   81.09
  -1  -5   1 1181.28   41.70
   2  -1  -4   53.69   10.40
   2   5  -1 2253.37   52.79
   2  10  13  216.08   66.19
   3   7  -1   54.69   30.40
   3  10   3   30.20   44.20
   4 -11  -7    7.10   32.40
   4  10   1  454.15   55.79
   4  12   5 2476.85   99.09
   5  11   1  958.00   75.19
   8  10  -3  207.08   67.89
   0   3   2  431.46   21.00
   0   4   3   43.90   19.30
   1   8  14  309.37   62.69
   2  -8  -5 1010.30   41.30
   2  -7  -5  875.21   36.40
   2   6   0 1450.65   48.00
   2   7   1  513.55   37.40
   2  10   7   53.49   46.20
   5  12   3   35.50   62.19
   6  11   0  199.98   64.79
   6  13   4    8.40   70.39
   7  11  -1  446.26   74.79
   8  12   0  148.39   78.59
   9   8  -5  242.88   67.59
  -2  -6   4 1561.34   60.79
   2  10  12  -14.30   55.49
   4   9   0  387.46   52.89
   5   0  -7   78.49   23.60
   5  13   7    7.90   63.89
   6  12   2  110.09   67.59
   7   8  -4   80.39   61.49
   7  10  -2  423.46   73.09
   8   6  -6  440.76   70.59
   9   3  -8   -1.70   46.10
   9   5  -7   32.30   64.29
  -2   0   7   20.50   11.80
  -1  -4   1 1797.92   43.30
   1   2  -1   37.70   19.00
   1   7   4  143.39   27.20
   2  -9  -5    9.90   30.20
   2  10   8 1169.58   69.79
   3  11   7  349.96   61.99
   4   8  -1  270.17   45.70
   4  12   7   96.79   63.89
   6  -1  -8  -27.30   21.20
   6  13   5   38.20   67.29
   7  -3  -9   60.39   30.00
   7   1  -8  133.59   36.40
   7  12   1  -15.60   70.69
   8  -1  -9  455.65   47.10
   1   0  -2    1.40   11.20
   2 -10  -5   62.29   31.90
   2  -5  -5  175.38   17.40
   2  10   9  200.18   54.09
   3   9   2  135.29   38.60
   4  12   8   44.20   64.99
   5  11   2   29.50   55.49
   5  12   4 1003.20   82.59
   6   4  -6   52.69   32.40
   7   5  -6  -24.90   47.10
   8  11  -1   87.29   69.79
   9   0  -9  209.78   50.19
   3  11   9  184.08   60.49
   3  11  10  407.46   70.59
   4   0  -6   81.89   17.20
   4  10   2   38.50   50.79
   4  12  10   28.20   67.19
   5   7  -3  282.47   42.50
   5   8  -2   71.29   47.00
   6  12   3   97.99   67.29
   7   3  -7    5.90   42.40
   7  11   0   25.50   65.99
   8   7  -5  610.64   73.79
   8  10  -2  734.03   76.89
   9   6  -6  108.99   61.69
  -2  -4   4 4420.76   69.99
   1   8   7   33.90   27.70
   1   8  13  193.48   54.59
   2   3  -2 2588.14   48.40
   3   8   1  483.05   43.70
   5  12   5  365.06   69.09
   6  11   1  125.29   65.39
   7  12   2  708.73   88.19
   8   9  -3  409.16   69.39
  -3  -4  11   29.40   35.60
  -1  -1   2  203.68   13.90
   0  -8  -2 1571.94   53.09
   0  -7  -2  118.69   27.70
   0   6   7  905.81   34.30
   3   5  -2   -8.90   26.20
   3  10   5   -2.60   48.40
   4   4  -4  141.99   26.60
   8  11   0  -22.90   76.99
   9   7  -5  234.78   66.39
   9   8  -4   71.89   64.79
  -1   4   9 1287.77   29.60
  -1   4  12  739.83   31.10
   1   8   8   44.90   32.60
   1   8  12  384.16   53.49
   3   7   0  246.58   35.40
   4   9   1 1052.09   65.89
   4  11   5  320.77   64.99
   5  10   1  232.68   58.19
   6  10   0  215.38   58.59
   6  12   4  -15.40   64.89
   8   5  -6  236.08   61.79
  -1  -7   0  226.88   37.30
   0  -6  -2 2339.37   51.29
   0   5   5   85.79   19.90
   3   9   3  226.28   41.40
   6  11   2  147.49   68.99
   7   0  -8   14.50   33.30
   7   8  -3  205.48   62.19
   7   9  -2  774.82   74.59
   9  -1  -9  201.38   48.60
  -2  -3   4 1411.86   39.90
   1  -9  -4  243.48   36.60
   1  -8  -4   30.30   25.80
   1   8  10    8.80   40.60
   1   8  11  407.56   51.99
   2   8   4  165.08   35.10
   4   8   0  808.32   56.79
   5   9   0   87.29   51.69
   5  12   8    3.40   60.59
   6   1  -7   60.49   30.00
   6   9  -1  195.98   54.39
   6  12   5    1.50   63.89
   7  -4  -9   49.50   27.80
   8   3  -7   31.50   49.50
   8  10  -1  145.29   67.19
  -3  -5   8   71.19   37.00
  -3  -3  11  -31.10   32.70
  -3  -3  12  170.28   38.60
  -1  -6   0 2133.69   55.19
  -1   4  10  149.69   19.40
  -1   4  11  254.87   22.50
   0  -2  -1   66.29   12.20
   1   5   2  581.44   31.30
   2   4  -1  875.51   36.50
   2   6   1 2129.49   56.09
   2   9   7  284.77   41.40
   5  11   4   92.29   59.69
   6  -2  -8   49.20   21.10
   6   3  -6 1346.07   52.49
   6   8  -2  118.89   53.69
   7   4  -6   24.20   46.60
   7  12   4  141.69   73.29
   8   6  -5  777.32   72.89
   8   9  -2  315.97   68.59
   8  11   1  125.59   72.69
   9   5  -6  169.88   58.09
   0  -5  -2 1055.19   35.10
   2   5   0 6331.47   82.49
   2   9  12   16.30   52.59
   3  10   7 1420.36   77.39
   3  10  12   26.40   60.59
   4   6  -2  365.26   40.30
   4   7  -1  541.35   46.70
   4  11   8   58.09   59.19
   5  -1  -7  311.57   25.80
   5   6  -3 1215.68   58.79
   5   8  -1   21.20   47.80
   5  10   2  446.46   63.59
   6  11   3   15.20   64.89
   6  12   6   18.70   65.29
   7  11   2   10.10   75.59
   8   8  -3  105.09   61.19
   9   9  -2   70.89   66.59
  -3  -3  10   70.29   30.90
   0   6   9 1034.10   42.30
   2   9   8   94.69   47.40
   3   8   2 1523.25   61.19
   3   9   4  629.74   49.70
   3  10   8 1602.54   81.19
   4   9   2  428.76   53.79
   4  10   4   69.79   51.29
   4  11   9  286.97   66.09
   5   7  -2  674.63   51.59
   6  10   1  214.38   61.79
   9   3  -7   46.20   59.49
   9   7  -4  126.79   63.89
  -3  -4   8  233.88   34.50
  -1  -5   0  182.88   24.70
   0   6  10   44.30   28.30
   2   9   9  208.88   51.89
   2   9  10   63.59   50.49
   3   3  -3  798.02   35.10
   3  10   9    5.70   54.49
   3  10  10  258.77   61.49
   3  10  11  157.28   64.69
   7   9  -1  300.87   64.09
   8  11   2  581.94   88.19
  -3  -5   7    7.50   33.10
   5   9   1  105.89   51.59
   5  11   6  -84.19   61.89
   6  11   4   54.89   58.99
   7   8  -2   -9.60   58.09
   7  11   3  312.17   76.89
   8  -3  -9  396.96   45.30
   8   4  -6   34.80   52.19
  -2  -4   3 5085.89   71.29
   4  10   5   60.59   51.99
   5  10   3  -62.19   51.49
   6  10   2  117.79   60.79
   7  -1  -8  146.69   34.30
   7   7  -3   -3.80   54.09
   7  10   1   43.00   66.19
   8   0  -8  215.98   45.50
   8   9  -1  -15.40   62.49
   9   4  -6   19.60   54.09
   4   8   1  587.14   50.49
   5  11   8   74.69   66.39
   6   8  -1   -0.30   51.49
   6  11   5  -18.10   59.49
   7  11   4  -19.50   73.09
   8   2  -7  336.47   48.30
   8   5  -5   17.30   54.39
   9   9  -1  653.63   82.09
  10   4  -6  133.79   60.39
  -2  -6   2  173.58   31.10
   1   7   7  310.47   33.30
   4  -1  -6  202.78   17.00
   4  10   6  320.37   62.79
   5   8   0   -5.40   49.30
   5  11   9  711.23   77.09
   6   5  -4   99.29   39.80
   7   3  -6 1517.15   69.29
   8   7  -3   -8.90   56.49
   8   8  -2  -35.30   56.19
   9   5  -5  109.69   59.99
   9   8  -2   69.69   67.39
  -3  -4   7 1084.39   45.90
  -3  -2  12  716.43   37.20
  -1  -8  -1  507.75   44.40
   3 -11  -7   61.79   33.70
   3 -10  -7  463.35   36.70
   3  -9  -7 1133.59   42.20
   4   7   0   34.20   37.70
   5   4  -4   -2.30   31.70
   5  10   4   17.80   58.99
   6  11   6   40.70   64.69
   7  10   2   56.29   66.29
   7  11   5  106.69   73.09
   9   0  -8   10.30   44.70
   9   2  -7   56.79   54.69
   9   6  -4  -22.00   58.99
  10   2  -7    6.90   52.99
  -1  -4   0 1538.25   38.60
  -1  -2   1   36.50   15.90
   0  -8  -3 2486.55   61.69
   1  -5  -4  177.28   18.60
   1   7   8   45.20   31.40
   1   7  12  286.97   51.19
   2   6   2  241.08   32.10
   2   8  13   11.40   60.49
   4  10  11   49.20   65.99
   5   9   2  115.79   52.09
   6   9   1  336.57   60.39
   6  10   3   93.99   64.79
   8   9   0   94.39   62.39
   8  10   2   11.80   74.99
  -1  -7  -1 3354.16   71.19
   1   5   3  290.47   28.80
   2 -10  -6  275.97   34.10
   2  -9  -6   16.10   27.40
   3  -8  -7  523.55   30.30
   4 -11  -8   17.60   31.90
   4 -10  -8  709.13   35.70
   4   5  -2 2567.44   66.19
   4   6  -1 3035.80   77.39
   4   9   4  651.83   62.29
   4  10   8   32.20   56.49
   4  10   9  302.37   66.99
   5   5  -3 2259.27   68.69
   5   6  -2 5725.63  107.09
   5  10   5  323.07   64.89
   6  -3  -8   49.30   21.10
   7   4  -5  538.45   60.09
   7   8  -1   86.49   59.29
   8   3  -6   24.60   53.29
  -1   3  14 1265.67   38.20
   1   7   9   63.99   37.40
   1   7  11  350.76   48.00
   2   2  -2  249.48   22.00
   2   8  12   87.59   57.19
   3   8   4  -22.10   37.50
   4  -9  -8   44.10   22.00
   4   8   2  140.09   43.70
   6  10   4  405.46   71.29
   7   7  -2   -7.80   55.29
   7  10   3  -32.80   67.59
   8  -1  -8  268.27   45.00
   8   8  -1  176.68   65.39
   9   3  -6    3.40   53.19
  10   3  -6    2.00   57.29
  -2  -3   3 1690.53   40.30
  -1   3   7  161.38   13.50
   0  -7  -3 2155.88   53.09
   0   3   3  491.65   23.20
   0   5   7 1002.00   34.40
   2  -8  -6  478.45   33.00
   3   9   9  599.44   69.29
   3   9  10  531.15   63.99
   3   9  11  391.46   67.79
   5   8   1   39.80   49.50
   5  10   6   20.40   60.89
   7   6  -3  153.38   56.59
   7   9   1   57.89   59.99
   8  10   3   56.79   76.19
   9   8  -1  196.98   67.59
  -3  -2   9  114.89   25.80
   2   8  11  -20.20   49.50
   5  -2  -7 1138.39   32.90
   5   9   3   62.49   48.70
   6   9   2  649.34   67.19
   6  10   5  274.97   68.89
   7  10   4   61.79   66.29
   8   4  -5  952.70   69.89
   8   7  -2   -1.80   62.79
  10   1  -7  263.87   54.99
  -2  -7   1    5.10   38.10
  -1  -6  -1 1941.51   50.89
   2   3  -1  455.15   29.90
   2   4   0 1437.76   43.00
   5  10   8  206.78   66.99
   5  10   9  440.16   73.79
   5  10  10  407.06   74.49
   8   6  -3   17.40   61.29
   8  10   4   38.40   78.09
   9  -1  -8  143.19   51.09
   9   1  -7    5.70   46.20
  10   5  -4  521.55   70.09
   1  -9  -5  258.27   34.90
   1   4   2  945.51   35.50
   2   7   5 2007.40   62.79
   3  -7  -7 1192.98   29.30
   5   7   0  124.69   49.00
   6   4  -4   37.60   37.40
   6  10   6   17.00   58.89
   7   9   2   85.49   63.29
   7  10   5  -86.39   68.49
   0  -6  -3  291.37   25.40
   1   6  14    3.90   48.50
   2   6   3  136.29   33.00
   2   7  14  245.88   67.49
   4   2  -4  278.67   29.20
   4   9   6   87.29   52.49
   5   0  -6   38.70   21.50
   5   9   4  109.29   53.09
   6   5  -3  567.34   51.79
   6   6  -2  326.07   53.59
   6   9   3  142.89   56.39
   7   0  -7   58.29   37.80
   8   8   0   86.69   61.39
   8   9   2   58.49   72.69
   9   8   0  357.86   77.69
  -3  -2   8 1253.77   39.60
   0   4   5  658.13   26.70
   0   5   8   90.39   23.40
   2  -7  -6  124.39   24.00
   3   2  -3 1838.92   43.00
   3   7   3 1219.68   55.69
   5   8   2  731.03   63.69
   6  -1  -7   60.59   27.40
   7   3  -5   48.20   48.20
   7   7  -1  307.07   59.69
   7  10   6  362.66   76.29
   8   2  -6   38.70   51.59
  10   2  -6   29.20   57.99
   1  -8  -5  -29.10   29.40
   3   5   0  143.89   32.40
   3   8   6 1256.17   62.69
   3   8  13  968.20   78.79
   4   6   0  487.05   45.00
   4   9  11   68.39   66.79
   5   6  -1   17.60   38.00
   5   9   5   52.19   58.79
   7   9   3  139.09   67.49
   8  -2  -8  530.15   49.10
   8   7  -1   50.69   56.19
   8   9   3   59.09   77.49
   9   2  -6  125.19   51.89
   9   7  -1   67.99   65.19
  -1  -5  -1 9601.04   93.09
  -1  -3   0  460.75   24.00
   0   5   9  -17.60   26.50
   1   5   4  320.57   28.80
   2   7   6  437.96   41.20
   4   8   4  290.87   53.29
   4   9   9  396.36   66.19
   5   4  -3  122.29   34.30
   5   5  -2   55.19   36.40
   7   5  -3  156.58   52.09
   8   8   1  -42.00   64.49
   9   8   1  109.49   78.39
  10   3  -5   32.10   62.09
  10   4  -4   17.30   59.29
  10   5  -3  219.98   65.29
  -3  -1  11  333.97   27.40
   0   2   2  168.28   15.70
   0   5  10   29.20   27.90
   0   5  11  111.59   30.70
   1   3   1   -5.90   21.30
   2   7  13    3.30   55.89
   3   3  -2   14.50   23.80
   3   8  12   67.69   66.19
   4   5  -1 2528.55   68.49
   4   7   2  564.24   49.20
   5   9   6   36.10   61.79
   7   9   4  340.57   71.69
   8   3  -5  452.15   57.89
   8   6  -2   71.39   55.99
   9  -2  -8  334.07   48.20
   9   3  -5   93.19   52.89
   9   6  -2   14.60   58.89
  -3  -1  12 1421.26   36.10
  -1   3  13   -1.40   28.80
   0  -3  -2  417.96   18.90
   1  -4  -4   -4.90   11.80
   3   8  11   62.39   56.59
   4   4  -2 1358.36   50.79
   5   7   1  131.39   51.39
   5   8   3  186.68   53.49
   6   2  -5 1507.75   58.39
   8   4  -4  648.64   66.79
   8   9   4   89.09   79.39
   9   4  -4   13.70   55.19
  -3  -5   4   82.79   28.20
  -2  -5   1 2374.46   53.39
   0  -9  -4 4101.79   81.69
   1  -7  -5   18.60   24.00
   1   2   0  590.64   23.30
   1   6  12  379.16   55.79
   2   7  12   63.79   52.69
   3   7   4 6624.54  111.09
   3   8  10  290.87   59.39
   4   8   5   -8.80   48.70
   5   9   9   -3.00   60.49
   5   9  10  138.19   66.39
   6  -4  -8  159.78   23.30
   6   6  -1  315.67   53.09
   7   7   0  932.21   70.99
   7   9   5  303.37   76.59
   8   9   5  -17.00   82.79
   9   7   0   89.19   67.89
   9   8   2  442.56   89.89
  10   1  -6   24.60   57.19
  -3  -1  10  222.38   26.40
  -1  -7  -2 4876.61   80.09
  -1   3   8   36.30   14.70
   0  -5  -3  314.87   24.80
   1   6   8   14.90   28.60
   2   7   8   15.20   36.00
   8   7   0   88.69   60.19
   8   8   2   83.29   72.49
  -3  -2   7  590.54   32.20
  -3  -1  13  196.68   23.20
  -2  -7   0  106.19   38.40
  -2  -2   3  671.83   25.40
   1   6   9   24.10   34.80
   1   6  11 1160.88   57.49
   2   0  -3  432.16   19.30
   2   7  10  150.48   51.99
   2   7  11  107.09   49.40
   5   8   4   39.50   50.49
   6   8   3 1779.82   85.59
   6   9   9   44.70   63.19
   7  -1  -7   51.19   33.90
   7   6  -1   68.69   52.69
   7   9   6   71.59   67.99
   7   9   7  129.99   72.29
   8   1  -6  146.69   46.60
   9   1  -6   57.19   51.69
   9   6  -1   38.00   66.49
  10   2  -5  122.29   67.19
   1   6  10 2815.62   71.79
   4  -2  -6 1867.01   32.90
   4   6   1   89.89   38.50
   4   7   3 2848.22   82.99
   4   8  12  775.52   80.29
   6   7   1  766.72   63.69
   7   2  -5 1449.55   64.19
   8   8   3  187.18   73.09
   9   7   1  503.05   86.19
  10   3  -4   39.60   57.49
  10   4  -3  252.17   67.39
  -2  -3   2 2405.66   46.00
   0   1   1   -1.80    6.90
   1   5   5  112.29   26.60
   3   7   5 1281.07   58.59
   4   8  11  216.38   66.89
   7   5  -2  309.67   54.29
   7   7   1  293.97   57.79
   8  -3  -8  114.39   41.40
   9  -3  -8   -1.20   42.30
   9   2  -5  162.28   54.89
  -3  -1   9  673.23   27.80
  -1   3  12 1322.07   38.00
   0   4  14  170.38   47.80
   2 -11  -7  198.38   37.00
   2   4   1 2484.75   54.89
   2   6   5 1902.61   58.69
   3   0  -4    6.40   16.60
   4   8  10   82.79   58.39
   5   5  -1 2154.78   70.89
   7   4  -3  227.88   48.80
   8   2  -5   61.99   49.80
   8   8   4   59.69   87.09
   9   3  -4   42.40   55.69
  -4  -4  12   16.10   35.70
  -2  -6   0 1608.84   51.39
  -1  -6  -2 2639.84   56.39
  -1  -4  -1  162.58   21.40
   1   4   3 1165.18   36.30
   2   6  14  101.89   64.19
   3  -6  -7  172.98   13.90
   3   6   3  665.23   45.50
   4   5   0   54.79   35.00
   5  -3  -7  179.68   21.20
   5  -1  -6    4.00   21.10
   6   6   0  297.57   54.19
   7   8   4   89.39   65.29
   9   7   2  532.85   91.39
  10   0  -6  -13.90   56.29
  -1   3   9  246.48   21.90
   1  -6  -5  302.17   24.30
   1   5  14  -47.80   53.89
   2 -10  -7  460.85   38.90
   3 -11  -8   33.90   35.00
   5   4  -2 2447.76   70.39
   5   8  11   80.89   73.89
   6   7   2  859.51   66.59
   6   8   5  681.93   74.29
   7   6   0 2114.79   89.99
   7   8   5  202.78   70.19
   8   6   0   52.19   64.09
   8   7   2    6.70   69.19
   8   8   5    0.30   79.59
  -3  -5   3  188.08   29.90
  -2  -4   1  907.11   33.30
   4   6   2  350.66   47.20
   5   7   3  146.39   51.89
   5   8   7  -34.50   54.89
   5   8  10  -15.90   62.69
   7  -7  -9  257.37   28.30
   9   7   3  -90.19   88.49
  10   1  -5  369.26   71.09
  -4  -4   9    8.40   28.00
  -1   3  10  120.49   21.10
  -1   3  11  162.08   22.50
   0   3   4 3734.63   45.10
   2   3   0  919.11   36.70
   2   6   6   77.39   30.70
   2   6  13   41.80   55.09
   3   7  11   49.00   52.39
   6   1  -5  232.38   33.40
   6   8   7   17.10   63.69
   9   0  -6  -10.70   48.80
   9   5  -1   93.69   64.39
  10   2  -4  109.99   62.19
  10   3  -3   19.60   60.99
  -3  -2   6  210.08   21.90
  -2   0   5    5.50   10.50
   1   5   6  392.46   29.80
   3 -10  -8  164.98   30.00
   3   7   8   27.70   45.70
   3   7   9  156.78   55.59
   3   7  10    9.80   51.39
   6   7   3  124.29   54.59
   6   8   9   61.19   66.59
   7   5  -1  846.72   66.69
   8   0  -6    2.30   37.90
   9   6   1   11.70   70.59
   1  -9  -6  107.09   30.70
   1   5  13   64.49   49.50
   2  -9  -7   28.10   28.40
   2   2  -1 1177.68   35.30
   4   3  -2   25.80   27.30
   5   7   4   16.30   48.00
   6   4  -2   87.19   38.30
   7  -2  -7  374.26   36.50
   9  -4  -8   94.09   42.00
   9   1  -5  125.89   53.69
  -1  -1   1   99.19   12.50
   3   3  -1  145.99   28.80
   4   7  12  268.57   71.79
   6   3  -3  261.87   39.00
   7   1  -5  715.13   46.30
   7   4  -2   93.09   48.30
   7   6   1 1141.19   76.19
   8  -4  -8  127.49   40.00
   8   1  -5  189.78   52.19
   8   4  -2  642.14   71.79
   8   7   4  437.96   83.49
   9   2  -4  261.27   62.19
   9   3  -3   18.70   55.29
  10  -1  -6   17.10   54.09
  -2  -5   0 6375.56   82.89
   0  -4  -3   48.20   16.70
   2   6  11  726.33   60.59
   3   2  -2  871.81   35.50
   4   6   3  776.12   51.99
   4   7  11  296.67   66.79
   6   7   4  270.37   59.39
   7   3  -3  190.38   47.60
   7   7   4   52.39   64.79
   8   2  -4   16.00   49.60
   9   5   0   25.40   65.59
  -1  -5  -2  506.05   29.40
   1   3   2  311.77   27.80
   1   5  12  314.67   52.39
   2   5   4   62.49   30.10
   8   6   2   95.49   68.99
   8   7   5   40.10   75.99
  10   0  -5  -56.99   62.19
  10   3  -2   19.70   64.39
  -4  -3  11   13.90   31.30
  -4  -3  12  120.89   34.50
  -1  -7  -3   -4.90   25.00
  -1  -2   0  606.14   22.60
   0  -9  -5  229.48   36.10
   0   4   8   51.19   22.10
   1   4   4  824.02   34.60
   2   4   2  368.46   32.10
   3   6  13  586.44   72.49
   4   7   9   62.69   56.69
   5   4  -1  -15.90   32.80
   5   7   6 1058.99   71.09
   6  -5  -8   83.79   22.70
   6   5   0    8.90   45.90
   6   7   5  536.15   71.79
   7   6   2   -2.00   56.79
   7   7   5   -6.80   65.69
   8   5   0  926.51   80.29
   8   7   6  -11.70   85.79
   9  -1  -6   39.50   48.30
   9   6   3  710.23   99.19
  10   1  -4  188.78   66.19
  10   2  -3   77.39   61.19
  -4  -4   7  957.90   45.00
  -4  -3  10  161.48   32.30
  -3  -4   3   47.40   23.10
  -3  -3   4    2.60   20.00
   1  -8  -6    6.60   27.50
   1   5  11  699.03   51.09
   5  -6  -8   49.10   17.40
   5   7   7  777.72   73.89
   5   7  10   38.60   61.59
   6   7   6   -6.90   62.29
   9   5   1   82.39   67.19
  10   4   0  497.65   81.69
  -3  -5   2  -11.20   24.00
   0   4  11    9.80   28.30
   1   5   9  892.21   45.00
   1   5  10   11.10   35.80
   2  -8  -7   47.20   23.00
   6   7   7   84.39   64.99
   7   7   7   47.30   67.29
   7   7   8   20.70   71.59
   8   4  -1 1222.48   83.69
  -4  -3   9   55.99   26.80
  -2  -6  -1 2137.59   56.29
   0   4  10   23.10   28.40
   3   6   6   98.09   35.80
   3   6  12  214.28   64.19
   5   2  -3   -5.30   29.50
   5   5   1  152.18   39.90
   6  -3  -7   53.19   24.90
   6   4  -1   61.19   37.50
   6   7   8   19.70   62.79
   7   4  -1  954.10   66.19
   7   6   3   56.59   55.09
   8   5   1  -27.80   65.49
   9  -5  -8    9.70   38.60
   9  -3  -7    7.20   43.20
   9   0  -5 1097.69   70.29
  10  -2  -6   77.79   53.29
  -2  -3   1  448.86   25.60
   3   5   3  110.19   32.50
   4   5   2  699.53   47.90
   4   6  13  106.49   68.19
   9   1  -4 1477.85   82.39
   9   4   0  113.09   71.79
   9   5   2   36.10   76.69
  -1  -3  -1    4.70   17.70
   3   6  11   -6.00   50.59
   4   6   5   47.90   40.50
   6   3  -2  206.08   41.40
   6   5   1  515.65   57.09
   7   3  -2  233.38   51.89
   7   5   1  726.93   67.59
   8  -5  -8  -12.60   37.20
   8   0  -5  -37.00   49.50
   8   6   5  668.53   96.19
  10  -1  -5  270.67   66.79
  -4  -4   6 1113.79   47.40
  -4  -3   8  921.61   41.20
  -1   2  14  954.10   43.80
   1   4  14  194.38   57.99
   2  -5  -6    2.00   11.60
   2   5  13  -38.50   53.89
   4   3  -1   50.59   31.70
   4   6  12  320.17   73.29
   5  -2  -6 1729.93   43.50
   6   6   4   12.40   53.59
   7  -5  -8   22.70   27.70
   7  -3  -7   13.80   28.10
   7   0  -5  682.53   43.80
   8  -3  -7  -24.80   36.60
   8   1  -4  -16.90   49.10
   8   6   6   40.00   84.99
   9   5   3  125.99   80.99
  10   0  -4 1368.96   93.59
  10   1  -3  196.38   67.29
  -2  -4   0 1304.67   39.30
   0   3   5  578.24   24.50
   2   3   1 2973.80   56.59
   3   5  14  160.28   64.49
   4 -10  -9   18.50   20.70
   5   4   0   85.69   35.70
   5   6  12   53.89   71.19
   7   6   5   51.99   66.99
   8   4   0 1072.39   83.09
   8   5   2    4.20   60.99
   8   6   7   20.00   85.19
   9   3  -1   29.90   62.59
  10   3   0  347.27   81.79
   0   3  14  425.46   52.49
   2   4   3  314.37   34.70
   2   5  12   25.30   51.49
   3   5   4  222.78   37.20
   4   6  11  332.27   63.09
   5   5   2  264.47   43.10
   5   6   5   62.79   48.70
   7   4   0  394.46   59.79
   7   6   6   -1.10   71.19
   9   4   1   97.99   70.99
   9   5   4  102.79   86.39
   1  -7  -6   72.69   26.00
   1   2   1   50.09   21.00
   2 -11  -8   61.09   37.60
   2   4  15  444.76   70.69
   3   3   0  369.06   34.50
   4   6  10    2.10   54.69
   5   6   6  963.50   68.59
   6   5   2   24.10   49.30
   7   6   7   25.60   69.19
   8   5   3   90.99   71.29
   9  -6  -8  -27.50   44.40
  10  -3  -6   20.40   48.50
  -1  -4  -2  905.41   31.30
   0  -5  -4  367.06   23.80
   1 -10  -7   11.20   30.60
   1   4  13   11.80   48.70
   3   5  13   55.19   65.59
   5  -4  -7  857.01   29.30
   5   6   7  184.28   63.09
   5   6  10   24.00   61.49
   6   6   7  144.59   68.39
   8   3  -1  467.15   67.89
   9  -4  -7    2.70   44.50
   9   0  -4   23.90   57.49
   9   1  -3   20.60   59.89
   9   4   2  -21.70   73.39
  -4  -3   7 2997.20   62.89
  -3  -4   2   44.20   23.60
  -3  -3   3  760.82   34.20
  -2  -5  -1 2263.97   53.79
   0  -7  -5   -4.20   21.50
   2   5  11   85.09   48.20
   3  -8  -8  556.14   25.20
   3   4   2    3.80   29.60
   5   3  -1  105.19   31.50
  10  -2  -5   47.90   63.49
  10   1  -2  -49.30   62.69
  -3  -5   1  158.58   31.20
   0  -2  -2  151.18   14.20
   1   3   3  197.98   26.10
   2   5   9  992.80   52.89
   2   5  10 1532.95   70.99
   3   5   5  327.17   40.20
   7   3  -1  226.88   51.89
  10  -1  -4   75.59   73.39
  10   0  -3    3.70   61.79
  -4  -2  11   19.50   27.60
   1   4   6  431.36   30.00
   3   5  12  -13.80   54.99
   4  -3  -6   11.50   14.70
   4   5   4   85.59   37.40
   4   5  13    2.10   65.59
   5   4   1   72.19   37.50
   7   4   1   58.99   54.49
   8  -1  -5  194.68   50.89
   8   5   6   69.29   85.19
   9   4   3   47.80   82.39
  -4  -2  10    6.60   28.20
  -4  -2  12  126.79   28.50
  -3   0  10   -4.90   16.70
   2 -10  -8  -10.50   30.60
   2   2   0   89.89   26.20
   2   4  14  250.07   62.39
   6   4   1   24.50   47.50
   8  -6  -8   22.00   34.90
   8  -4  -7   21.90   35.50
   8   0  -4  265.17   55.09
   8   3   0   38.10   65.19
   9   2  -1   55.19   65.79
   9   3   1  673.93   85.69
   9   4   4   42.40   90.39
  -3  -2   4   93.29   19.90
  -2  -6  -2  224.08   29.00
  -1   2  13  919.81   43.00
   0  -9  -6 1483.05   53.49
   1   3  15  184.48   58.69
   3   5   6  183.28   35.20
   3   5  11   62.59   54.79
   4   3   0  223.28   37.00
   4   5  12  153.78   61.99
   5   5   4   -3.40   47.80
   6   2  -2  332.67   39.20
   7  -1  -5  651.43   43.00
   9   4   5   43.70   91.39
  -4  -3   6    8.50   30.20
   1  -9  -7  170.58   30.70
   1   4  11   41.20   38.50
   3   1  -2 6655.03   74.99
   4   4   2 1381.16   56.39
   6   5  11   98.19   73.49
   7   0  -4   13.40   33.50
   7   4   2   39.20   53.79
   7   5   8  -54.79   76.19
   8   4   3   82.89   67.49
  10   2   1  514.95   81.39
   3   4   3   23.60   29.20
   3   5   9   80.19   46.20
   5   5   5   15.70   49.99
   5   5  11  111.99   68.69
   6  -6  -8  580.14   30.30
   6  -4  -7   88.29   23.20
   6   1  -3  226.58   32.50
   6   5   5   65.79   52.09
   6   5  10   56.99   68.59
   7  -4  -7   -8.90   30.20
   7   3   0  271.07   55.99
   8   2  -1  -33.30   58.09
   9  -5  -7   16.10   44.40
   9  -2  -5   61.89   52.89
   9  -1  -4 1457.15   83.29
   9   0  -3 1856.91   90.99
   9   3   2  131.69   72.09
  10   0  -2    2.40   70.39
  -3   0   9  260.47   17.60
   1   4  10 1006.00   49.99
   2   3   2  384.06   32.40
   2   4  13   47.70   53.39
   3 -11  -9  265.27   33.10
   5   3   0  367.66   40.50
   5   4   2  592.54   51.79
   6   3   0   63.69   39.00
   8   3   1  331.87   72.69
   8   4   4  601.04   90.69
   9   2   0 1268.77   91.19
  10  -3  -5  -29.40   60.39
  10  -2  -4  197.48   74.39
  10  -1  -3  179.28   66.39
  -4  -4   4  116.99   29.00
  -4  -2   8  728.43   36.90
   0  -3  -3  482.75   19.90
   5   5   6   44.50   51.89
   5   5   7 4111.49  116.19
   6   5   8   47.80   65.99
   7   4   3   69.79   59.49
   9   3   3  107.49   84.09
  -2  -3   0  953.10   32.70
   0   2  15  524.35   58.89
   1   3  14  915.71   69.09
   2   4   5 1379.96   46.80
   4   2  -1  149.29   30.20
   5   5   8   80.49   61.79
   7   2  -1    3.90   50.49
   8   4   6  432.06   91.69
   8   4   7   63.79   84.09
  -3  -4   1  547.95   34.80
  -2  -4  -1 2390.56   50.29
  -2  -2   1 1161.98   32.10
  -2   0   4 1317.77   22.50
   0  -8  -6 3939.11   72.39
   2  -9  -8  275.17   31.00
   2   1  -1   68.49   22.00
   2   3  15  738.83   79.19
   2   4  12   84.19   46.70
   3   4  13  -26.50   64.09
   4   4   3  667.93   47.80
   8  -2  -5   60.39   46.20
   8   0  -3  -29.00   53.79
   8   3   2  199.88   72.19
   9   2   1  344.97   78.19
  10   0  -1   35.70   68.99
  -3  -5   0  134.49   34.50
  -3  -3   2   -1.70   20.50
  -1   2  12   93.39   26.10
   0   3  11  258.47   33.80
   3   4   4   41.80   29.10
   4  -5  -7  159.08   14.20
   5   2  -1  262.07   37.10
   5   4   3 2402.06   78.39
   6   2  -1  221.98   40.80
   7  -3  -6 1486.75   54.29
   8  -5  -7    0.60   38.60
   8  -1  -4  -44.30   50.59
   8   2   0  608.34   74.69
   9   0  -2  -12.00   63.39
   9   3   5   27.90   90.99
  10   1   1  207.38   74.69
  -1  -6  -4   59.79   24.00
   1  -8  -7 1126.19   41.30
   2   4   6 1341.57   49.60
   2   4  11   97.09   49.80
   4   3   1 1937.71   58.69
   5  -3  -6 3757.22   57.69
   5   4  12    1.70   67.19
   6   3   1 -133.39   48.30
   7   1  -2  507.25   55.29
   8  -7  -8   24.50   39.10
   9  -3  -5   77.19   60.89
   9   2   2  153.78   76.39
  10  -4  -5   27.80   62.69
  -4  -2   7  792.12   38.10
  -2  -5  -2  249.48   27.20
   0   3   8    7.60   20.80
   4   4   4   69.29   41.00
   5   3   1 1242.38   58.19
   7   3   2  479.15   65.59
   7   4   7  269.17   74.59
   7   4   8  156.08   74.39
   9  -6  -7  208.18   48.50
   9  -2  -4  215.58   58.79
   9  -1  -3   52.19   61.59
   9   1   0  329.67   75.69
  10  -3  -4  -25.20   67.89
  10  -2  -3   58.29   65.49
  10   1   2   11.50   82.79
  -3   0   8    4.40   17.40
  -1   2   7   17.30   12.90
   2   3  14   46.90   55.89
   2   4  10 1168.58   59.69
   3  -4  -6   -2.00    8.00
   3   2   0 1275.57   43.80
   3   4   5   18.70   32.60
   5   4   4  836.32   64.99
   6   4   5   24.70   56.49
   7  -1  -4   46.10   37.10
   7   2   0   19.50   51.19
   8   1  -1  266.77   64.29
   8   2   1  476.35   76.09
   8   3   4  156.58   77.39
   9   2   3  111.39   77.79
  -4  -4   3  500.85   38.50
  -3  -2   3 1832.02   42.90
   0  -4  -4   18.90   18.00
   2   3   3  224.38   31.00
   2   4   9 1985.50   64.09
   3 -10  -9 1046.20   35.90
   3   3   2   47.90   28.40
   3   4  11   47.40   56.89
   4   0  -3    6.10   20.20
   4   4  11  585.74   75.19
   5   1  -2 1001.50   44.10
   8   3   5  350.96   85.99
  -2  -1   2  569.64   22.90
  -1   2  11   22.10   22.40
   0   2  14  138.49   48.20
   1   2   2  615.84   27.70
   3   3  14   19.40   62.19
   3   4   6   45.80   35.00
   4   4   5   -1.50   38.60
   5   4   5  324.07   55.89
   5   4  10  388.96   72.49
   6   4   8   40.20   63.79
   7  -5  -7   45.50   31.90
   7   3   3  678.73   73.19
   8   3   6  516.25   94.09
   8   3   8  185.98   91.69
   9   1   1  846.12   86.59
   9   2   4   85.29   81.69
  10  -1  -1   21.40   67.49
  -2   1  11   16.90   17.50
   1   2  15  285.97   61.99
   2   2   1 2234.58   47.70
   3   4  10    0.50   51.39
   4   4  10  308.17   63.59
   5  -2  -5 1024.90   36.10
   5   0  -3  125.59   28.30
   5   4   6  988.10   69.49
   6   2   0  354.46   45.90
  10   0   1    2.20   69.19
   1 -10  -8  -30.90   32.80
   1   3   5 1690.63   43.30
   4   2   0   23.10   29.20
   4   4   6   -4.50   42.30
   5   2   0   41.70   38.60
   5   3   2 3663.03   89.79
   5   4   7    9.50   53.09
   5   4   8  697.53   71.49
   7   1  -1  104.79   50.19
   7   2   1   43.20   52.59
   8  -3  -5  465.85   53.79
   8   1   0  536.15   78.99
   9  -1  -2   87.69   63.69
  10  -2  -2  -68.49   62.79
  -4  -2   6 1855.31   50.39
  -1  -4  -3 1133.29   34.50
  -1   2  10  257.47   25.20
   2   3  13  418.36   63.69
   4   4   7  630.24   57.79
   4   4   8  226.08   51.99
   6   3   3   31.00   55.29
   7   3   5  -18.80   61.69
   7   3   9   34.00   72.99
   8   2   3   75.49   73.29
   9  -7  -7  138.89   50.79
   9  -4  -5   35.50   58.59
   9   1   2  161.58   72.99
  10  -4  -4   -9.50   68.19
  10  -3  -3   -3.50   71.19
  -5  -3  10    2.40   30.70
  -5  -3  11  105.69   33.80
  -3  -4   0  402.16   32.00
   0  -9  -7  415.86   38.30
   2 -11  -9   99.39   34.10
   3   3  13   63.89   62.99
   6  -5  -7    4.60   21.40
   7   3   7   47.90   66.69
   7   3   8  101.69   72.49
   8  -8  -8   25.80   41.60
   8  -6  -7   -2.40   42.00
   9  -3  -4   20.70   52.69
   9  -2  -3  369.96   68.69
   9   0   0  -46.20   64.29
  -5  -3   9   81.69   32.20
  -3  -5  -1  107.09   36.60
  -3  -3   1  121.39   28.20
  -1  -1   0 1980.80   29.40
  -1   2   9  -24.30   20.00
   1   3  11   88.09   36.40
   2  -6  -7  240.28   19.30
   2   2  15   55.89   68.49
   2   3   4   51.69   28.20
   3   3   3    1.50   28.90
   5  -5  -7  157.08   20.00
   5   3   3  454.25   50.99
   5   3  12  980.10   85.59
   6   1  -1 6569.34  116.89
   7  -4  -6   11.30   32.10
   7   0  -2   -2.10   44.10
   7   2   2   28.60   57.99
   8   0  -1  -23.90   60.99
   9   1   3  -34.60   71.79
  -4  -4   2 1379.16   52.99
  -1   1  14   82.99   38.80
   1   3   6 2864.31   56.59
   2  -8  -8   65.89   24.20
   2   3  12  238.38   51.49
   4   3   3 3271.97   78.89
   6   2   1  106.39   43.80
   8   2   5   51.79   80.19
   8   2   6   32.10   81.49
   8   2   7  115.89   87.49
   8   2   8  107.89   83.89
   9   1   4  283.47   82.89
  10  -2  -1   75.79   64.59
  -3  -1   4 1171.28   32.90
  -3   0   7 3396.76   40.10
  -1  -5  -4  315.07   26.80
   1   2  14  906.81   67.19
   1   3  10  495.75   43.20
   3   3  12   15.40   54.49
   6  -7  -8   22.10   24.80
   6   3   5   15.10   55.29
   7   1   0    3.70   53.49
   9   0   1  707.03   81.19
   9   1   5   73.09   83.99
  -2  -4  -2  379.56   30.00
  -2  -3  -1 2827.82   52.19
   1  -7  -7  374.56   30.00
   3   2   1 1600.34   48.70
   5   2   1  554.14   47.70
   6   3   7  -19.00   66.59
   6   3   8  234.08   67.39
   7  -2  -4  -27.60   31.20
   7   2   3 1654.63   90.69
   8   1   2  442.56   76.79
  10  -3  -2   35.20   66.59
  10  -1   2    4.40   76.19
  -4  -3   3  -18.10   25.80
  -4  -1  10   -4.00   24.60
  -2   1  10   11.50   14.30
   1  -9  -8   80.19   34.20
   1   3   9  181.38   31.40
   2   3  11  145.59   50.39
   4   3  11  321.57   67.59
   6   0  -2 4263.97   91.29
   6   2   2  126.59   55.29
   9  -2  -2    0.80   61.99
   9   0   2  -19.20   72.29
  10  -4  -3  251.17   78.49
  -5  -3   7  108.99   33.30
  -4  -1  11   65.19   22.40
  -3  -2   2  840.12   33.20
   0   1  15    1.80   51.49
   3   3  11  521.65   65.09
   5   3   5  145.39   54.29
   7   2   4  816.52   80.19
   8  -4  -5  896.11   58.09
   8   0   0  223.28   65.89
   8   1   3  -14.80   71.49
   9  -8  -7    2.50   50.19
   9  -5  -5   80.39   56.89
   9  -1   0  307.77   76.49
  -2  -2   0  103.59   20.40
   2   3  10  190.98   41.40
   3   0  -2   33.20   19.40
   4   3   5  136.29   45.10
   4   3  10  303.77   63.79
   5  -7  -8  128.89   19.60
   5   3   6  -12.90   51.99
   5   3   7  159.88   56.59
   6   1   0  298.47   45.70
   6   2  11   13.20   68.89
   7  -6  -7   22.80   34.10
   7   0  -1 1219.58   71.79
   7   1   1  -13.30   54.09
   7   2   5  578.04   74.99
   7   2   6   69.39   70.69
   7   2   7   34.80   72.79
   8  -3  -4  794.42   68.09
   9  -4  -4   29.50   55.39
   9   0   3  -71.09   70.49
   0  -8  -7  831.42   43.30
   1   2  13  438.96   56.19
   2 -10  -9  395.16   33.80
   2   2   2 1434.36   42.30
   2   3   6 2264.57   59.19
   3  -9  -9 1240.18   30.10
   3   3   5   34.50   30.30
   3   3  10   33.90   51.69
   4   2  13   16.70   69.19
   5   0  -2    8.40   26.00
   5   2   2  199.08   47.20
   6   2   3 1645.14   82.99
   8  -7  -7  461.45   52.19
   8   1   4  168.68   69.29
   9   0   4   33.80   78.99
  10  -3  -1  -36.80   69.49
  -5  -3   6 3591.54   76.39
  -2   0  14    5.30   30.60
   2   1   0  535.85   29.30
   4   0  -2 1212.08   42.70
   4   3   6  -14.20   41.60
   4   3   7  342.17   55.29
   4   3   8   88.49   52.29
   7  -8  -8  -16.40   35.20
   8   0   1  -14.60   62.69
   8   1   5  -12.60   80.39
   8   1   6   60.79   80.09
   8   1   7  -48.00   79.99
   9  -1   1  555.84   82.79
   9   0   5 1201.08  108.79
  10  -4  -2  310.87   74.49
   0  -6  -6  782.32   34.80
   1  -5  -6    6.10   16.40
   1   1  15  220.88   64.59
   2   2  13  -12.00   56.59
   3   2  13  -54.49   62.19
   3   3   6   58.09   31.10
   5  -4  -6  925.21   34.00
   5   1   0  650.43   45.70
   6   2   9  135.49   74.29
   7   1   2  -33.00   55.99
  10  -5  -3  125.89   79.19
  -1   1  13  261.77   37.40
   2   1  15   37.70   70.19
   4   2   2 1030.70   50.69
   4   2  12   85.99   63.69
   6   0  -1 -124.09   41.60
   6   1   1    9.80   42.30
   6   2   5   -2.40   57.79
   6   2   8  416.96   76.89
   7   0   0  -74.39   52.09
   8   0   2  124.79   72.29
   9  -3  -2   46.00   61.69
   9  -1   2   25.50   70.59
  10  -3   0  291.37   81.49
  -4  -1   7  307.87   29.60
  -4  -1  12  527.75   22.20
  -3  -3   0  367.76   28.60
  -3   0   6    2.80   15.40
   0   2  11   58.59   32.70
   4  -4  -6 1103.99   27.20
   5   2   3 2652.63   83.69
   6   2   6    5.80   57.79
   6   2   7   20.00   66.19
   7  -5  -6   -5.60   34.30
   7  -2  -3   52.79   39.10
   7   1   3  773.02   74.59
   8  -6  -6  476.75   52.89
   0   1   2  126.99   13.90
   0   1  14  230.88   53.19
   1   2  12  187.08   48.00
   3   1   0  182.38   28.60
   3   2  12  140.59   58.59
   4   1   0  300.27   35.00
   7   1   4 1109.99   84.69
   8  -1   0  558.24   73.19
   8   0   3    7.50   72.09
   9  -6  -5  653.03   66.99
   9  -5  -4    5.20   65.49
   9  -1   3   20.60   72.39
  10  -4  -1   63.39   70.49
  -3  -1   3 2887.61   49.30
  -2  -1   1   62.99   19.80
   2   2  12  114.89   51.99
   7  -3  -4 1281.47   56.59
   7   1   5  301.07   65.59
   7   1   7  -22.90   72.19
   7   1   8  432.76   80.49
   9  -1   4   94.99   84.99
  -5  -2   9   21.70   31.50
  -5  -2  10   39.00   30.30
  -1   0  15   36.70   50.39
   0   2  10  460.05   37.00
   1   1   1  329.67   21.70
   3   1  14   19.10   66.49
   4   2   3   49.70   33.80
   5   2   5  442.76   61.19
   6   1   2   75.39   54.69
   7  -1  -1   84.79   52.69
   7   0   1   42.00   53.99
   7   1   6  -71.19   65.79
   8  -4  -4  693.63   66.39
   8   0   4  165.78   69.69
   8   0   5 -140.69   75.39
   8   0   6   24.00   83.49
   8   0   7  -34.50   78.09
   9  -2   1  212.18   75.89
   9  -1   5  123.49   85.59
  10  -5  -2  600.64   91.29
   1  -8  -8   73.89   30.00
   1   1  14  219.08   57.79
   1   2   4 3601.64   54.99
   3  -2  -4  101.89   16.40
   3   2   3  559.54   40.20
   5   0  -1 1314.57   52.89
   5   1  12  105.79   72.59
   8  -8  -7   39.20   44.90
   8  -1   1  527.05   73.59
  10  -4   0  455.35   79.49
  -5  -2   8  396.76   33.80
  -5  -2  11   83.39   30.20
  -1  -4  -4  789.12   32.80
   1   2  11   32.20   37.30
   2   1  14  118.39   62.79
   6   0   0 3721.23   95.09
   6   1   3  -21.00   52.89
   9  -2   2  173.58   74.79
  -2  -4  -3  316.07   29.00
   0  -7  -7 1232.98   46.80
   0   2   9  225.38   27.40
   1 -10  -9  350.46   42.00
   2   2  11  959.50   65.49
   6   1   9 1165.78   89.79
   7  -7  -7   45.20   36.30
   7   0   2    6.20   55.69
   7   0  10   39.80   74.49
   9  -4  -2  234.38   68.59
  10  -5  -1  251.37   76.19
  -5  -2   7 1092.89   46.60
  -2  -5  -4   77.39   27.70
  -2  -3  -2  348.07   27.20
  -1   1  12   34.30   27.50
   2  -9  -9   -2.40   24.80
   5   1  11   44.50   67.79
   6  -8  -8  618.24   36.50
   6   1   8  138.59   73.49
   8  -3  -2  286.97   62.29
   9  -5  -3  112.29   62.49
   9  -2   3  -79.59   70.29
  -5  -2  12   -4.70   30.50
  -1  -2  -2  620.64   25.30
   1  -6  -7 1451.55   38.30
   1   2  10   32.90   31.20
   2  -7  -8  127.09   20.00
   2   2   4  451.85   32.90
   4   1  12   79.69   66.69
   4   2   7 1142.29   65.09
   5   0  13    0.80   76.19
   6   1   5  115.89   57.39
   6   1   6   25.30   58.69
   6   1   7  921.01   82.29
   7  -9  -8   60.19   41.10
   7  -1   0  -43.90   49.40
   8  -7  -6  264.67   50.09
   8  -2   0  664.53   75.89
   8  -1   3   76.29   67.89
   8  -1   8  -32.70   87.79
   9  -6  -4   -1.00   63.89
   9  -2   4    7.50   81.49
   9  -2   5  278.97   89.09
  -4  -3   1   47.70   31.00
  -3  -4  -2  -13.80   34.80
   0  -3  -4 3692.33   44.30
   1   2   5 4250.77   62.79
   4   0  14  263.17   82.39
   6   0   1    6.20   43.50
   7  -3  -3  163.88   46.80
   7   0   4    5.20   59.29
   7   0   7 1132.59   96.19
   7   0   8   34.70   66.79
   8  -4  -3  277.87   58.79
   8  -1   4   31.70   74.89
   8  -1   7   56.59   77.29
   9  -3   1  706.73   86.69
  -5  -2   6 1713.43   54.89
   1   1  13   33.60   49.99
   2   0  -1  139.49   18.80
   2   0  15   55.89   59.69
   2   1   1  578.74   31.50
   3   0  -1  160.08   27.60
   3   1   1 1500.85   48.60
   3   2   5  128.69   33.60
   3   2   8  452.75   49.00
   5   0   0    6.20   35.70
   6  -1  -1 6382.26  114.29
   7  -6  -6  134.39   38.20
   7   0   5  -18.60   61.49
   7   0   6   46.10   67.99
   8  -5  -4 1684.73   80.49
   8  -1   5   34.10   80.79
   8  -1   6   56.09   77.79
   9  -4  -1    5.10   64.49
  -4  -1   5  -13.60   22.50
  -1   0   1 4022.70   29.20
   1   0  15  110.19   62.09
   3   2   7  832.92   53.19
   4   1  11   93.19   62.19
   5  -6  -7   10.90   18.20
   6   0  10  288.17   78.39
   7  -4  -4  601.94   52.59
   7  -1   1   21.30   53.59
   8  -2   1  478.35   71.49
   9  -3   2  100.09   72.89
  -1  -6  -6  307.27   32.30
   0  -2  -3   47.40   14.20
   1   2   6 1715.13   45.20
   5   0  12  -85.19   72.09
   6   0   2  105.99   53.79
   7  -2  -1    4.00   49.50
   7  -1  10  -12.40   73.09
   8  -9  -7   22.50   48.20
   9  -5  -2   25.80   64.29
   9  -3   3   36.30   77.39
  -3  -1   2 6546.15   74.59
  -2   0  13   -9.80   31.00
   2   2   6 1013.40   43.60
   4   0  13    5.70   66.19
   5   1   5   36.80   50.99
   5   1   7  118.29   58.69
   8  -2   2   29.50   62.19
   9  -3   4  -35.50   85.39
  -5  -2   5 1131.09   49.99
  -4  -2   2  192.48   29.90
   0  -8  -8   46.30   30.40
   0  -5  -6   27.30   21.30
   0   1  12  -14.10   31.70
   6  -2  -2  312.97   42.40
   6   0   3   35.30   54.79
   7  -1   2  -16.00   54.89
   7  -1   9   31.10   71.49
   8  -2   8  114.19   82.69
  -3  -2   0 1250.87   41.10
  -1   1  11   71.99   25.50
   0  -1  16  -30.30   63.39
   1  -9  -9  143.69   34.30
   2   0  14   50.89   67.29
   4  -1  -2  511.75   34.50
   4   1   3   -2.30   34.50
   5   0   1   29.40   38.60
   6  -1   0  269.77   49.30
   6   0   8 5266.07  147.79
   7  -1   3  804.12   74.69
   7  -1   8  448.36   85.99
   8  -4  -2  686.93   69.49
   8  -2   4  157.58   76.79
   9  -4   1   49.50   74.69
   4   0   0   71.69   32.60
   6  -7  -7 1492.25   48.20
   6   0   4  509.85   64.69
   6   0   5  -24.00   56.19
   6   0   6  152.58   58.89
   6   0   7   17.70   61.59
   7  -8  -7  150.48   42.40
   7  -2   0   34.10   52.09
   7  -1   7  -53.79   67.89
   8  -8  -6  188.18   50.29
  -4  -3   0  250.57   38.40
  -1  -1  -1  325.27   21.70
   0   0  14   67.99   51.79
   1   0  14  -32.80   53.19
   4   0  12   55.89   69.29
   5  -5  -6  128.79   25.20
   5  -1  -1  -34.00   28.40
   7  -1   5  224.98   66.49
   8  -5  -3  215.88   61.19
   9  -4   2   25.00   71.09
  -2  -1   0  522.55   26.60
   1  -7  -8  714.83   33.30
   1   1   2   38.60   22.10
   2   1  11  836.82   66.49
   5  -4  -5   92.49   23.30
   6  -1   1   -1.20   45.90
   7 -10  -8  -52.99   42.80
   7  -4  -3  249.78   49.60
   7  -2  10   10.50   76.09
   8  -6  -4   32.50   52.09
   8  -3   1  371.16   69.39
   9  -4   3   55.99   70.39
   9  -4   4  -15.90   86.79
   4   1   6  643.74   53.89
   4   1   7 1139.59   63.79
   5   0   2   47.70   40.00
   5   0   9  403.46   70.89
   7  -7  -6  207.38   44.40
   7  -2   1   17.40   54.39
   8 -10  -7   55.49   50.29
   9  -8  -4   30.40   64.59
   9  -4   5   86.49   81.99
  -2  -5  -5   98.09   33.90
  -2  -3  -3  220.58   30.00
  -2   0   2   11.10   15.50
   1   1  11  129.29   42.40
   2  -1  15   30.30   66.69
   3   1   3  153.68   34.20
   4   0  11  -53.49   62.89
   6  -6  -6  217.88   31.90
   6  -2  -1  201.38   44.30
   6  -1   9 1122.69   94.39
   7  -3  -1  259.77   57.69
   8  -3   2  230.38   72.59
  -1   1  10  263.47   28.00
   2   0  13  -10.90   51.59
   3   0  12   -6.90   58.09
   4  -1  13   66.29   65.19
   4   0   1  -30.30   35.80
   5   0   3  161.88   47.80
   5   0   8    1.50   54.99
   6  -1   2   39.80   52.79
   7  -2   2    5.30   57.19
   7  -2   8  236.78   81.09
   8  -5  -2  377.66   66.59
   8  -3   3  111.49   70.19
   8  -3   6  429.66   98.99
   8  -3   7  167.68   81.29
  -4  -2   1  153.68   28.70
   1  -1  15  156.38   69.69
   3   1   8  125.69   43.10
   5  -2  -2  215.18   34.00
   5   0   7    4.00   50.89
   6  -9  -8  186.98   36.10
   6  -1   8  131.09   68.89
   8  -9  -6   29.00   58.79
   8  -4   0 1055.79   83.29
   8  -3   4  129.29   71.89
   8  -3   5  359.96   84.19
  -4  -1   3 4677.53   72.89
  -1  -4  -5 2293.37   50.99
  -1  -1  15   48.60   53.29
   0  -9  -9  389.06   42.20
   1   0  13  461.95   59.39
   5   0   5   70.09   53.39
   5   0   6   24.50   54.19
   6  -1   3  -44.80   53.39
   7  -2   7   17.40   68.89
   8  -6  -3   26.40   60.39
   9  -5   3   59.79   73.89
   9  -5   4  131.29   92.99
  -5  -1   7  312.17   31.80
  -2  -2  -2 1481.05   40.70
  -1  -3  -4 1751.12   42.40
   0  -1  15   28.80   58.59
   1   1  10 1114.69   52.09
   2   1   3  696.33   36.40
   3   1   7  147.69   38.60
   6  -1   5   76.09   55.99
   6  -1   6  -17.50   58.09
   8  -7  -4  272.57   60.49
   8  -4   1   51.19   67.39
   9  -9  -4  223.58   75.69
   9  -8  -3   26.90   74.99
   9  -6   0   93.09   73.59
  -6  -2   8   -5.70   33.60
  -6  -2   9  103.39   37.50
   0  -7  -8  299.67   34.40
   0   0  13  -41.80   46.10
   0   1   3  445.66   18.80
   0   1  10   40.90   32.60
   2   0  12  187.28   58.79
   4  -1  12   94.89   67.59
   4   0   2  125.79   43.00
   4   0   9  -55.29   52.79
   6  -3  -2  221.18   39.80
   6  -2  10   16.80   68.09
   7  -9  -7  -24.10   44.20
   7  -3   9   55.79   74.79
  -5  -1   6   10.00   29.80
   2   0   0 1761.12   39.90
   5  -2  12   17.00   71.69
   5  -1   1   57.99   42.30
   8  -4   2   17.00   67.09
   8  -4   7   84.99   84.19
   9  -7  -1   90.79   73.89
   4   0   8  515.95   65.09
   5  -1   9   44.30   66.39
   6  -2   9   91.39   70.49
   7  -5  -3  105.39   53.19
   7  -3   1  -62.39   50.59
   8  -4   4  502.55   84.79
   8  -4   5 1416.06  110.59
   9  -6   2  -29.20   74.99
  -1  -2  -3 1080.79   31.40
   1   1   9   18.80   30.30
   2   1   7  174.08   34.40
   4  -2  13  -33.90   66.69
   4  -1  11   24.00   65.59
   8  -6  -2   35.00   58.49
   9  -8  -2  121.89   72.69
   9  -6   4  447.86   94.49
  -4  -2   0   25.20   31.40
  -3   0   3 6902.61   67.89
   4   0   7  -44.00   43.40
   5  -2  -1  254.97   39.20
   5  -1   8  212.88   60.79
   6  -2   8  414.26   76.19
   7  -6  -4    5.50   46.90
   7  -3   2  515.45   66.29
   7  -3   7  -19.10   69.99
   9  -7   0   59.19   70.69
  -4  -1   2  529.45   33.00
   4   0   4    9.00   39.70
   4   0   5  -56.39   38.00
   4   0   6 5269.47  111.59
   7  -3   5  -25.80   58.39
   7  -3   6   35.60   70.09
  -4   3   5  800.52   11.90
  -4   8   7  736.33   30.00
   0  15   8  175.88   67.89
   1  13   5   -6.40   51.09
   3  15   6    5.40   61.49
   4   7   0   60.79   35.90
   6  12   3  122.49   60.09
   6  13   4   19.50   73.39
  -6  -1   8   -1.50   35.00
  -6   3   9  -17.10   18.80
  -3  -5   3  165.18   27.50
  -3   5   4   68.89   11.70
  -2  12   7 1750.42   70.39
  -1  -6   1   29.20   17.30
  -1  15   9    5.60   63.29
   0  11   4   31.70   36.10
   1   9   2   92.99   33.80
   2   8   1   34.50   29.70
   3  12   3   73.19   51.19
   8   8   1    3.00   55.29
   9  -3  -1   39.60   27.80
   9   4   0   58.29   53.19
  10   1   0   48.60   48.40
  -5  -1   6   25.70   27.00
  -2  11   6 1301.57   52.19
  -2  14   9  504.35   62.89
   0  -4   0 1367.66   30.80
   1  -8   0   25.90   17.70
   1   7   1 3511.85   67.29
   1  16   8  276.57   67.79
   2  10   2   75.69   36.50
   2  14   5  137.89   60.39
   2  15   6   68.19   59.79
   6  -3  -2  206.08   12.50
   6  -2  -2  327.07   18.30
   6  11   2  130.89   53.59
   7  12   3   17.90   57.89
   8   6   0    9.80   46.70
   9  -1  -1  264.57   37.40
   9   7   1  399.06   64.09
   1  11   3  841.32   51.29
   2  -5  -1 2313.27   31.90
   2  13   4 1889.11   83.09
   6 -11   0  235.88   28.00
   6  -1  -2  265.37   21.10
  10   2   0  140.29   49.90
  -2  -5   2  162.38   22.80
  -2  15  10  629.74   66.29
   0   8   2 1569.44   46.80
   3  -7  -1   65.99   14.80
   3  11   2  246.98   49.00
   4  -8  -1  279.17   21.00
   4  15   5  251.57   67.69
   5   8   0   23.60   37.50
   5  10   1  235.58   48.10
   5  14   4  480.85   74.29
   5  15   5  -48.40   68.39
   6  -8  -1   34.70   13.40
   9   0  -1   54.79   34.90
   9   5   0    5.70   55.09
  -3  -1   3 3029.20   40.70
   0  -3   0    7.90   13.40
   0  10   3  164.28   30.20
   0  14   6   20.90   46.90
   0  15   7   70.99   53.99
   3   4  -1  619.24   31.90
   4  10   1  532.35   51.09
   5 -11   0 1241.78   41.20
   5   0  -2    5.10   12.90
   5  13   3    1.90   50.89
   6   0  -2 4237.08   55.89
   6   8   0   72.29   37.80
   6  10   1  242.48   52.09
   6  13   3   18.20   54.29
   9   1  -1  342.67   38.80
  -4  11   9  277.07   38.60
  -4  12  10   42.60   39.50
  -3  12   8   37.70   37.30
  -3  13   9   -7.70   39.60
  -2   6   3 1892.01   34.70
  -2  10   5   86.99   22.90
  -1   6   2   -6.00   15.80
  -1  14   7   41.40   46.80
   3  16   6   87.19   55.29
   5  -8  -1  -11.10   16.20
   5  12   2   34.70   46.40
   7   5  -1  854.81   49.10
   8   4  -1 1263.27   55.29
   8   7   0   48.90   44.50
   8   9   1   43.30   46.30
  -3  11   7   32.60   30.60
  -2  -4   2 1895.81   38.80
  -1  15   8  206.78   51.69
   1  13   4  215.08   43.60
   1  16   7    2.40   52.49
   2   9   1  115.99   28.20
   3  13   3   94.49   46.00
   4  12   2  213.38   49.60
   5   6  -1    3.50   27.50
   6   1  -2  263.27   23.00
   6  12   2   51.09   47.80
   7  -7  -1  266.07   12.60
   7  13   3  656.13   72.99
   9   2  -1   54.09   35.20
   9   6   0  168.88   52.69
  -4  13  11    2.70   44.00
  -3  14  10  343.47   52.99
  -1  16   9   -8.60   52.69
   0  -2   0 2250.47   24.00
   0  12   4  -44.90   32.50
   1  10   2   50.79   28.70
   2  11   2 1401.76   59.89
   2  16   6  108.79   57.09
   3  10   1 1843.62   66.29
   7  -2  -2   -1.70   13.80
   7  12   2  724.33   65.39
  -6   2   9  156.58   25.30
  -3   8   5 3741.63   51.19
  -2  13   7   25.10   37.00
  -2  14   8  159.68   45.70
   0   6   1  244.08   22.90
   1   8   1  467.05   31.40
   2  14   4  382.46   56.29
   3   8   0 1058.19   46.10
   3  12   2  327.97   48.00
   4  15   4  112.09   62.29
   4  16   5   44.30   60.79
   5   9   0   40.20   37.60
   5  11   1  967.30   59.29
   5  15   4   70.19   57.39
   6   9   0    6.00   37.70
   6  11   1   91.09   45.60
   7   0  -2   -5.60   18.50
   7   6  -1  126.39   35.00
  -5   7   8  118.29   15.60
  -2  -3   2 2391.36   40.30
  -2  12   6   93.89   36.50
  -2  15   9  -54.99   49.50
  -1   9   3  666.63   31.70
   1   5   0  187.48   22.50
   2   7   0  129.59   26.50
   3   5  -1  141.09   23.90
   4   9   0  395.06   43.70
   4  11   1  813.82   55.99
   4  14   3  243.58   52.99
   5  14   3  371.06   59.19
   6  14   3   42.30   54.19
   7  -3  -2  202.28   13.60
   8   5  -1  437.46   45.00
  -5  10  10  166.68   30.70
  -3  10   6  132.39   24.70
   0   9   2 2109.09   51.09
   0  11   3   14.20   26.80
   3  15   4  -37.00   49.20
   5  13   2  258.97   50.79
   6  13   2    5.00   47.20
   7  11   1  131.69   44.20
   9   7   0   -5.70   47.80
  -4   7   6 1126.99   25.10
   0  15   6  204.58   48.20
   1  16   6  590.84   61.39
   2  10   1  159.08   34.40
   3  -6  -1    3.80   10.30
   3  14   3   18.30   45.90
   4  13   2  120.89   45.50
   5   7  -1  168.88   30.50
  -6   1   9 1032.70   41.80
  -4   9   7   16.80   19.20
  -2  11   5   77.49   24.10
  -1  14   6  472.25   48.90
  -1  15   7   35.50   43.50
  -1  16   8  -23.20   50.89
   0  -7   1  -10.00   16.00
   1  17   7   36.80   53.79
   2  12   2  851.71   53.29
   3  11   1  113.19   41.10
   5  10   0  929.51   55.19
   6 -10   0  194.08   23.80
   6  10   0  242.28   44.70
   7   7  -1  284.27   40.80
   7  13   2  -16.00   46.40
   8   6  -1  320.17   43.90
   8   9   0  205.08   44.10
  -6  -1   9 1008.00   47.90
  -6   0   9    2.10   31.30
  -3  13   8  141.79   39.00
  -3  14   9   82.89   42.30
  -1   7   2  520.65   25.00
   1  11   2    3.00   26.40
   2  15   4   57.29   49.50
   2  16   5   39.80   46.00
   3   6  -1    6.70   21.70
   3   9   0 1251.07   49.80
   3  13   2  -39.00   42.70
   4   7  -1  528.65   36.70
   5  12   1    4.10   44.70
   5  15   3   41.40   54.69
   6  12   1    2.50   42.80
   9   8   0  296.17   54.99
  10   0  -1    2.50   37.10
  -5   3   7  182.18   18.10
  -5   9   9  358.66   26.50
  -4  12   9  125.29   37.60
  -4  13  10   77.19   41.50
  -3   6   4 1470.45   26.20
  -2  -1   2  560.84   17.70
  -1  -2   1   20.90   13.80
  -1  13   5 1967.30   64.69
   1   6   0 1821.52   42.20
   1   9   1  351.46   29.10
   2   4  -1  942.01   31.20
   2   8   0  143.89   26.40
   4  10   0 1393.06   61.19
   4  12   1  151.98   43.90
   4  15   3  -16.30   57.19
   4  16   4   93.99   58.99
   6   8  -1   39.40   34.90
   7  12   1   16.30   44.00
   8  -1  -2  -12.10   18.80
   8   0  -2   33.90   19.90
   8   1  -2   51.99   25.50
   9   5  -1   92.79   42.50
  10   1  -1    6.00   34.00
  -3  12   7   -4.00   30.90
  -2   0   2   22.10    9.40
  -2  14   7  105.19   38.60
  -2  15   8  239.48   49.20
   3  16   4    7.90   51.49
   5   4  -2 2426.66   53.19
   5  14   2  127.39   54.19
   6  14   2    0.30   51.49
   7   4  -2   69.89   24.70
   8   2  -2   56.09   27.30
   8   7  -1   59.59   39.10
  10   2  -1   -3.30   39.60
  -4  11   8   18.80   31.90
  -3  -5   4   65.99   19.90
  -2  13   6 3484.75   79.79
   0  10   2   43.80   25.70
   4   3  -2   37.60   18.20
   6  11   0  189.38   47.70
   8  -2  -2   54.09   18.60
   8  10   0   39.50   41.70
   9   6  -1   27.70   44.70
   9   9   0  286.07   57.69
  10   3  -1   11.00   42.70
  -5  -2   7 1097.29   39.60
  -3   9   5    4.20   22.20
  -1   3   1  426.46   16.00
   0  12   3   15.30   28.40
   0  17   7  770.62   66.29
   1  17   6  263.17   55.19
   2  11   1   23.60   35.40
   3   7  -1   77.19   24.40
   3  10   0 2000.60   64.39
   3  12   1   16.70   39.60
   4   8  -1  272.77   34.40
   5  -7  -1  151.58   15.00
   5  11   0 1321.47   63.99
   5  13   1 1281.47   71.49
   6  13   1   38.40   47.90
   7  11   0   59.29   44.20
  -5  -1   7  322.27   32.00
  -4  -1   5   -6.90   19.20
  -4   2   5    7.70   11.70
  -3  11   6   20.10   25.70
  -2  10   4  180.18   25.10
  -1  16   7   43.20   53.49
   2   5  -1 2448.06   48.00
   3  14   2   -7.00   49.50
   4  11   0    7.80   39.40
   5   9  -1   23.40   36.40
   6  -7  -1   85.69   14.90
   6   9  -1  127.99   38.50
   7   5  -2  316.57   38.30
  -1  -6   2    4.00   14.90
  -1  -1   1   87.09   11.40
  -1  15   6  309.67   47.40
   0   2   0 2477.35   26.80
   1   7   0  245.88   26.00
   1  10   1   99.79   27.80
   2   9   0 1352.06   49.00
   4  -9   0  372.26   25.00
   4   4  -2 1396.16   40.70
   4  13   1  139.79   46.40
   4  16   3    5.80   61.09
   5  15   2  141.29   63.69
   6  15   2  137.19   62.79
   9   7  -1   34.20   50.69
  -5   0   7   49.90   26.40
  -4   1   5    2.90   14.10
  -2  12   5  756.12   43.90
  -1  14   5  155.58   42.00
   0   8   1  170.78   23.60
   2  15   3    9.60   48.60
   6  12   0   24.00   49.50
   7   6  -2  336.97   45.70
   8  11   0  -19.30   44.50
  10   5  -1  215.58   45.20
  -6   4  10   39.80   22.60
  -3  14   8  200.58   45.80
   3  -8   0  907.71   32.10
   3   8  -1  622.74   41.10
   3  16   3  375.16   64.79
   3  17   4 1331.67   87.19
   4   9  -1  299.07   37.30
   4  15   2   42.70   59.09
   5  12   0 1698.63   76.89
   6  10  -1   22.50   47.20
   6  14   1    3.30   53.59
   7  12   0   44.60   49.80
   8  -3  -2  277.57   19.00
   8   5  -2  351.26   42.60
   8   9  -1  -46.70   42.20
   9   1  -2   74.59   36.90
   9   2  -2    9.20   33.70
  -3  13   7   -9.90   39.90
  -2  15   7   -6.70   47.60
  -2  16   8   12.40   49.00
   0   3   0  -12.00   17.90
   0  11   2  429.26   34.80
   2   6  -1  147.29   25.80
   2  12   1  193.68   41.40
   2  14   2   92.29   48.70
   3  11   0    8.30   38.80
   3  13   1   34.80   42.50
   5  10  -1  110.79   43.30
   5  14   1  601.24   64.89
   9   0  -2   26.90   28.50
   9   3  -2    2.20   35.70
   9   8  -1  165.98   55.69
  -4  14  10  271.37   51.09
  -3   7   4 2903.21   42.10
  -2  14   6  320.07   43.80
  -1  13   4  287.87   43.90
   0  16   5   10.00   49.00
   0  17   6  206.28   55.79
   1   8   0   22.10   24.20
   1  13   2   61.19   42.70
   1  17   5  -43.20   54.39
   2  10   0   35.10   31.40
   3  15   2    8.10   53.49
   4  12   0   44.40   43.60
   4  14   1  116.09   51.19
   5  -9   0   61.39   23.70
   6  -9   0   19.30   21.50
   7   7  -2  -42.70   40.70
   8   6  -2   50.49   41.50
  -3  -3   4   19.40   15.80
   1  11   1   42.70   30.20
   2  17   4  249.28   60.19
   4  -6  -1 2873.31   35.10
   4   6  -2  396.36   33.10
   4  17   3  495.75   74.39
   5  16   2  277.87   68.99
   6  13   0  584.34   62.89
   8  10  -1  163.78   45.70
  -6   0  10 4433.26   85.19
  -6   3  10  -22.50   31.60
  -4  12   8   63.79   37.80
  -2  11   4   47.50   25.50
  -1  -5   2   99.19   16.40
  -1   9   2  620.04   32.50
  -1  16   6   21.80   47.70
  -1  17   7  -15.50   54.49
   0   4   0 1440.46   32.40
   0   9   1  290.87   28.40
   0  15   4  158.48   51.59
   1  15   3   -6.70   48.40
   2   7  -1  -10.10   24.50
   2  16   3  169.38   55.79
   3   3  -2    8.00   20.10
   3   9  -1 1581.84   59.09
   4  16   2  145.49   70.39
   5  13   0   39.90   52.09
   6   8  -2   86.19   40.30
   6  11  -1  718.93   60.59
   8   7  -2   54.19   42.10
   9   5  -2   69.99   40.10
  -6   1  10   43.80   36.00
  -5   8   8  516.85   21.80
  -5  10   9  423.76   30.60
  -2  13   5  378.76   44.70
  -1  15   5   51.59   43.70
   2  13   1  109.29   43.80
   3   4  -2   74.39   24.20
   3  12   0  -22.10   41.80
   3  14   1  161.38   51.29
   5  11  -1 1170.98   65.89
   6  15   1   42.90   58.29
   7   8  -2   49.00   42.40
  -2  -4   3 5315.47   61.49
  -1   5   1 1122.69   28.80
   0  12   2  353.06   36.90
   1   9   0  184.08   30.80
   2  11   0  143.59   37.50
   2  15   2   -1.90   49.90
   3   0  -2    6.80   12.80
   4   7  -2  490.85   38.70
   4  13   0   -9.60   46.80
   8  11  -1  -23.70   46.50
   9   6  -2    1.20   44.80
  -4  -3   6    5.40   20.70
  -3  15   8   -2.40   47.90
  -2  16   7   13.40   51.49
  -1  -7   3  264.17   27.60
  -1   0   1 3974.70   20.00
   0   5   0   10.70   19.30
   1  12   1  137.49   39.20
   1  14   2   13.80   40.80
   1  18   5  -18.70   51.49
   3   5  -2   26.50   24.10
   3  16   2  189.58   58.79
   4  11  -1   10.30   43.60
   4  15   1  377.96   67.99
   6   9  -2  140.99   45.70
   6  12  -1   36.70   48.30
   6  14   0  370.36   60.09
   8   8  -2   16.10   44.50
   9  -2  -2   11.70   19.60
  -5  -2   8  408.06   30.70
  -3  -2   4  111.39   15.40
  -3  14   7   26.50   42.60
  -1  14   4   70.49   40.60
   0  10   1  256.67   31.80
   0  17   5   51.69   53.09
   1  -4   0 1539.45   25.30
   2   8  -1  451.85   33.40
   3  10  -1  171.68   36.70
   4  -8   0  770.42   29.80
   5   9  -2    5.30   39.50
   5  12  -1  148.19   51.99
   5  14   0  606.74   65.59
   7  12  -1  -34.40   46.80
   9   7  -2    4.40   49.30
  10   2  -2    2.20   36.60
  10   3  -2   25.70   39.10
  -3   8   4  431.06   24.60
  -2  15   6   52.79   42.50
  -1  10   2 1480.55   46.00
   0  16   4  462.55   57.09
   2  17   3   98.19   57.69
   3  13   0  -18.60   41.20
   5  16   1  -67.39   61.79
   8  12  -1   79.09   50.49
  10   1  -2  -49.90   35.70
  -4  14   9   24.20   43.90
  -2  12   4  338.37   32.80
  -1   6   1   18.60   17.90
  -1  17   6   34.50   56.99
   0   6   0  495.15   27.20
   1   2  -1   29.10   17.60
   1   3  -1  393.56   23.10
   1   4  -1 1869.11   39.00
   1  10   0 1866.41   58.19
   2  12   0  116.59   42.50
   2  14   1  177.98   47.20
   3  -9   1  372.16   27.80
   3  15   1  705.63   65.79
   5 -10   1  264.37   29.20
   6   4  -3   71.79   23.30
   6  10  -2  398.06   55.09
   9   8  -2  132.69   53.79
  -5  -1   8    3.80   20.50
  -4   9   6    7.20   19.30
  -3  11   5  134.19   28.20
  -2  14   5  533.35   47.60
   0  13   2   61.89   36.70
   2   9  -1 1286.27   49.40
   2  16   2  -25.20   49.10
   3  -7   0  193.78   18.30
   3  11  -1 1000.90   56.09
   4   9  -2   34.40   34.80
   4  12  -1  245.98   49.20
   4  16   1   79.09   62.99
   6   1  -3  252.97   21.10
   6  13  -1   98.69   50.89
   6  15   0  104.69   60.49
   7   5  -3  158.48   33.10
  -3  13   6   36.00   34.10
  -2  10   3   22.30   22.10
  -1  13   3    0.70   35.60
   1   5  -1 1109.59   35.00
   1  13   1   13.10   37.90
   3   7  -2  248.48   29.80
   3  17   2   57.49   53.99
   5  13  -1   20.20   50.89
   5  15   0  729.23   75.29
   7   6  -3  167.68   39.10
   8   2  -3  260.37   32.10
   8   3  -3   59.39   29.20
  -3  -4   5  -11.50   18.10
  -1   7   1  -14.30   18.80
  -1  15   4   29.50   42.20
   0  11   1  435.56   33.60
   0  18   5  -59.79   49.80
   3  14   0  410.16   51.59
   5  -6  -1   25.10   12.30
   5   5  -3 2347.97   57.49
   6  11  -2  184.38   50.49
   7   0  -3   49.10   17.40
   8   5  -3  229.28   39.30
  -3  -1   4 1168.78   26.50
  -2  17   7   68.19   52.19
   1  -8   2    7.30   18.90
   1   6  -1    1.50   22.60
   1  11   0  300.17   35.70
   2  10  -1  280.07   35.30
   2  13   0    2.50   40.70
   2  15   1  116.89   48.60
   2  18   3   16.90   53.79
   3   8  -2  160.68   31.20
   3  16   1  161.88   58.09
   4  13  -1   50.49   43.40
   4  15   0  198.98   62.09
   5  -8   0   -3.10   18.60
   5  11  -2  149.09   45.50
   6   0  -3  -30.90   15.80
   7  -8   0  178.28   21.20
   7   7  -3   26.20   38.70
   8   1  -3   13.50   20.40
   8   6  -3   36.00   39.70
   8  11  -2   93.59   48.50
  -5   0   8   -2.20   21.10
  -3   9   4   81.39   23.20
  -3  15   7   67.79   42.90
  -2   6   2  134.89   17.60
  -2  13   4    2.90   39.50
  -2  16   6   53.09   47.30
   0  17   4  176.18   50.79
   3  12  -1   44.60   41.00
   4  17   1   47.50   66.09
   5   1  -3  124.49   15.50
   5  14  -1  -36.70   52.09
   7  14  -1  -27.80   51.59
   8   7  -3   27.20   42.10
  -5  11   9 1110.19   38.40
  -4  -1   6  165.58   23.30
  -4  12   7  177.68   37.00
  -2  -5   4 1553.14   39.20
  -1  17   5   49.00   49.80
   0   8   0   -8.90   20.70
   1   7  -1   -0.40   23.20
   1  14   1   82.89   42.00
   2  17   2  134.09   54.89
   3  18   2   66.79   63.69
   5   7  -3  332.07   38.10
   5  16   0   28.90   64.69
   6  -8   0   32.70   19.60
   7  -6  -1   84.79   12.30
   7   8  -3  211.98   45.70
   9   3  -3   20.60   30.90
  -6   2  11  353.36   39.50
  -5   9   8   28.50   22.70
  -3  12   5   10.80   32.30
  -2  11   3   20.00   26.40
  -2  15   5   12.20   38.60
   0  12   1  631.54   40.50
   1  16   2  -68.59   44.10
   2  11  -1 1304.67   56.89
   3   9  -2 1848.32   59.39
   3  15   0    5.20   48.70
   4  11  -2  228.08   45.20
   5  12  -2   -6.00   50.49
   8   0  -3  -12.80   18.00
   8   8  -3   92.29   43.30
   8  12  -2   36.00   45.80
   9   2  -3  293.87   35.90
   9   6  -3   33.80   44.00
  -5   1   8    5.70   21.20
  -3  14   6  -19.80   38.90
  -1  16   4   -4.00   43.00
   1   8  -1   -9.40   23.70
   1  12   0  149.99   38.90
   2  16   1  125.29   51.99
   3  13  -1   57.09   39.40
   3  17   1   -2.70   52.49
   4   5  -3   45.20   24.60
   4  14  -1   45.10   48.80
   4  16   0  706.03   74.89
   5   8  -3  235.78   38.80
   6  15  -1  153.98   59.69
   7   9  -3  402.46   48.90
   9   7  -3   -5.40   46.50
  -4  -3   7 3081.59   58.69
  -4  14   8  240.28   48.10
   0   9   0    3.70   21.50
   2   3  -2 2722.43   44.00
   2   5  -2  174.48   24.30
   2   6  -2  155.68   25.70
   3  10  -2 1136.19   51.79
   5  15  -1   27.60   56.99
   6  -6  -1  296.17   16.40
   6  13  -2  113.49   50.09
   7  -1  -3   50.59   13.90
   7  13  -2   78.19   50.09
   8   9  -3  454.05   53.19
   9   1  -3  105.79   27.40
  -3  -3   5   26.40   14.10
  -2  17   6  104.39   49.70
  -1   9   1   23.60   21.90
   0  18   4   42.70   48.50
   1  15   1   26.40   44.60
   2  -7   1  463.75   22.20
   2  18   2    3.40   55.59
   3  -8   1  517.75   28.60
   4   7  -3   79.29   31.40
   4  12  -2   25.70   44.10
   5   0  -3  106.49   12.90
   5   9  -3   68.49   39.30
   5  13  -2  -33.80   50.69
   6  -1  -3  224.88   16.00
   9   8  -3   30.20   46.80
  -4   0   6   82.59   19.80
  -3  16   7    1.90   48.20
  -2  14   4  291.77   42.90
   0  13   1  217.48   37.90
   0  17   3 1293.67   72.49
   1   9  -1   21.50   24.50
   2   7  -2   29.80   25.50
   2  12  -1   89.99   40.80
   3  16   0 2242.08   92.29
   4  -7   0   26.10   17.80
   4  15  -1  254.47   67.09
   5  -9   1  162.68   26.10
   8  10  -3  228.88   49.60
  10   4  -3  185.08   44.30
  -5   2   8  435.16   27.50
  -3  13   5  439.66   40.40
  -2  12   3   81.09   25.60
  -2  16   5   45.70   47.40
  -1  15   3  782.62   56.49
  -1  18   5   40.80   52.19
   0  10   0 1943.21   54.29
   1  13   0  -29.80   36.40
   2   2  -2  228.58   17.80
   2   8  -2   64.69   25.60
   2  15   0  781.42   61.39
   2  17   1  -57.59   52.09
   3  11  -2 1255.67   59.39
   3  14  -1   22.30   43.70
   3  18   1   45.80   66.39
   4   8  -3   32.40   29.80
   4  17   0   91.09   61.69
   5  10  -3   31.00   39.40
   5  16  -1    2.10   66.39
   6  14  -2  132.19   51.99
   7  14  -2   48.80   49.60
   8  -1  -3   11.70   16.90
  10   3  -3   -4.10   34.80
  -4  13   7  163.58   38.80
  -1  10   1 2337.37   55.69
   1  -3   0  440.56   13.60
   1  10  -1 2391.86   62.29
   4   9  -3  136.49   36.90
   4  13  -2   32.70   45.20
   5  14  -2  100.79   54.29
   6  -9   1  228.68   29.50
   8  11  -3  382.86   55.49
   1  16   1  311.97   54.39
   2   9  -2 1444.56   51.99
   2  13  -1   96.19   40.80
  -3  11   4   47.60   28.40
  -2  15   4    3.50   38.60
   0  -3   1  106.19   13.10
   0  11   0   10.20   26.30
   0  14   1  399.66   45.60
   3  12  -2  118.19   41.00
   3  15  -1 1929.11   85.19
   3  17   0   95.69   57.09
   4   1  -3 4623.04   48.40
   4  10  -3  389.96   47.30
   4  16  -1  719.73   73.09
   6  12  -3  187.98   52.39
   6  15  -2  278.87   64.09
   7   5  -4  653.63   47.30
   7   6  -4   21.80   39.50
   8  12  -3   36.90   45.50
  -5   0   9  627.14   32.50
  -5   3   8  730.43   27.60
  -5  10   8  310.37   27.70
  -4  15   8   50.29   43.00
  -2  13   3  241.88   36.30
  -1  11   1 3262.77   68.39
  -1  14   2  855.71   54.29
  -1  16   3   28.10   44.50
   0  18   3  -24.50   46.80
   1  -5   1 9594.84   69.09
   1  11  -1 3224.78   74.19
   2  10  -2 2717.93   68.89
   2  16   0  249.78   51.49
   4  14  -2    2.50   50.49
   6   5  -4  110.89   29.70
   7   7  -4   28.40   39.50
   8   6  -4   24.30   36.40
  -3  14   5   -3.60   38.00
  -1  -6   4  200.48   25.30
   2  14  -1  272.47   48.30
   2  18   1  268.47   57.69
   3   6  -3  285.27   28.20
   3   7  -3  300.97   30.10
   3  13  -2  157.18   48.10
   5  12  -3  132.79   47.60
   5  15  -2  -30.80   53.99
   6  13  -3   34.20   51.79
  -4   1   6  201.08   19.80
  -2  -5   5  183.88   23.10
  -1  18   4  120.09   53.39
   0  12   0  501.35   38.60
   1  17   1   -7.40   49.30
   3   8  -3   10.70   28.00
   3  16  -1   -5.80   53.59
   4  11  -3  888.61   57.09
   4  17  -1  337.67   71.89
   7   9  -4   70.29   45.30
   8   3  -4  805.22   39.80
   8   8  -4   16.80   41.30
  -4  12   6    1.50   33.40
  -4  14   7   50.39   41.10
  -3  12   4  259.47   32.60
  -3  16   6   47.90   44.10
   0  17   2  960.10   64.39
   1  12  -1  735.23   50.89
   1  15   0  -21.20   43.10
   2  11  -2  238.78   39.80
   3   9  -3 1186.38   51.19
   3  18   0   17.30   62.39
   4  15  -2  175.88   58.89
   5  -7   0  122.19   17.80
   5   6  -4  621.64   38.30
   5  13  -3   -1.80   50.69
   7  10  -4  113.39   49.20
   7  14  -3  659.43   66.29
   8   9  -4   13.60   43.50
   9   6  -4   37.20   38.20
   9   7  -4   50.89   47.20
  -5   4   8  536.65   24.50
  -4  -1   7  283.57   25.00
  -4   8   5  355.06   23.50
  -2  16   4  107.69   43.30
  -1  15   2  637.54   53.49
   2  15  -1 1015.00   67.69
   2  17   0   21.30   49.90
   3   3  -3  815.72   28.20
   3  14  -2  366.56   49.70
   4  12  -3 1641.44   72.59
   5  -1  -3  110.69   10.50
   5   7  -4  309.07   35.40
   6  10  -4  484.35   55.49
   6  14  -3  294.97   57.59
   7   2  -4  -23.80   19.40
   8  10  -4  433.76   55.19
   9  -1  -3   71.49   20.60
   9   4  -4   12.50   31.10
   9   8  -4   57.79   47.80
  -5   1   9    8.50   25.00
  -3   6   3  323.47   16.70
  -3   7   3  285.07   20.00
  -2  11   2  216.88   28.30
  -1  17   3  119.29   47.40
   0  13   0    2.60   37.50
   1  13  -1  965.60   55.69
   2  12  -2  -44.30   38.00
   3  10  -3  538.65   47.70
   5   9  -4   95.29   41.10
   9   9  -4  214.78   51.59
  -3  -3   6  164.78   21.00
  -3  15   5  -31.50   42.10
  -2  18   5  291.87   56.19
   0  -6   3  267.47   22.40
   1  16   0   71.49   48.90
   3  -7   1  567.04   25.30
   3  17  -1  549.85   68.89
   4  13  -3  -19.40   44.90
   4  16  -2  175.58   60.99
   5  14  -3   40.90   50.19
   6  11  -4  215.98   49.70
   8  11  -4  -24.10   47.30
   9   3  -4    4.40   31.30
  -5  11   8  256.87   30.10
  -4   9   5    0.60   21.20
  -3   8   3    4.70   18.70
  -3  13   4   13.60   35.00
   0   8  -1  169.28   25.70
   0  18   2  843.62   68.09
   1   7  -2  573.54   33.00
   2  18   0   97.59   57.09
   3  15  -2  442.36   57.29
   5  10  -4   67.79   41.80
   6  -7   0  310.67   22.10
   6  15  -3   60.09   55.89
   8  12  -4    6.80   48.60
  -3  17   6  745.43   63.99
  -2  12   2    6.70   26.20
  -1   7   0  246.98   24.00
  -1  16   2  444.96   51.59
   0   5  -1 1484.15   35.70
   0   9  -1  442.56   32.50
   0  14   0  774.32   51.89
   1   8  -2  202.08   27.40
   1  14  -1 1280.97   63.69
   2  16  -1  172.88   53.99
   5  -8   1   17.10   18.90
   5  11  -4  463.65   52.89
   5  15  -3   67.29   51.89
   6  12  -4   -9.10   47.90
  10   5  -4  555.04   49.40
  -4  13   6  589.44   45.20
  -4  15   7    9.90   41.60
  -3  -1   5  370.66   18.90
  -3   9   3 1254.37   37.30
  -2  17   4  200.88   50.99
  -1   6   0 2107.69   41.10
  -1  18   3  124.09   52.49
   0  10  -1  300.17   34.70
   1   5  -2  129.69   22.60
   1   9  -2  642.34   38.80
   3  -8   2 1453.45   40.60
   3  18  -1   23.70   66.09
   4   6  -4  319.17   30.50
   4   7  -4   15.50   27.30
   4   8  -4  310.27   36.80
   4  14  -3   81.99   48.40
   4  17  -2   95.39   67.09
   7   1  -4   53.29   17.80
   9   2  -4  175.68   29.90
  10   4  -4  -11.10   34.50
  -5   2   9   11.60   23.60
  -4  10   5  326.47   27.90
  -2  -4   5   44.80   18.80
  -1  -5   4  188.58   21.20
  -1   9   0  181.28   24.60
   0  17   1  338.17   53.79
   1  10  -2 1568.04   54.49
   1  17   0   42.10   46.20
   2  -7   2   53.09   16.90
   2  14  -2  491.85   51.29
   3  16  -2  465.95   60.29
   4   9  -4   25.40   37.80
   5  12  -4 1241.48   71.69
   6  13  -4  157.38   54.29
  -4   0   7  -24.40   20.00
  -3  14   4  -11.40   35.60
  -2  13   2  177.58   32.10
  -1   5   0  215.78   19.30
  -1  10   0 1814.12   51.59
   0   4  -1  142.99   18.20
   0  11  -1  416.36   36.40
   0  15   0   72.39   44.40
   1  -7   3  -16.50   18.50
   1  15  -1  376.16   52.19
   2   6  -3 2047.60   49.30
   2   7  -3  901.51   39.40
   2   8  -3  300.87   32.30
   2   9  -3  338.57   37.20
   2  17  -1  197.88   54.39
   3  13  -3  285.17   48.40
   4  10  -4   88.69   41.10
   4  15  -3  224.58   57.39
   5  16  -3  189.28   65.59
   6  -8   1  303.37   27.00
   6   1  -4   19.90   17.20
  10   3  -4   10.20   32.80
  -2  16   3    4.90   40.20
  -1  17   2  -16.90   44.10
   0  -4   2   93.59   14.70
   1   4  -2 2104.19   38.80
   1  11  -2  521.95   41.10
   2  10  -3   18.30   32.80
   4  -6   0  496.05   22.10
   4   4  -4  171.98   21.60
   4  11  -4 1666.83   69.99
   5  13  -4    7.50   49.70
   6  14  -4   51.19   52.79
   7   7  -5   30.70   38.50
  -4  14   6  174.28   43.90
  -3  11   3   90.99   30.70
  -2  18   4  370.76   56.19
  -1  11   0  319.87   34.10
  -1  15   1  331.47   48.50
   0  12  -1  613.24   43.80
   1  12  -2  883.91   53.49
   2  15  -2    0.70   46.20
   3  14  -3   14.20   43.80
   3  17  -2   21.70   53.49
   4  12  -4  101.89   45.80
   7   9  -5  -12.70   45.80
   7  10  -5  106.19   49.00
   8   8  -5  338.07   47.60
   8   9  -5   44.70   44.60
  -5   1  10  718.03   36.30
  -4  11   5  529.75   33.40
  -4  16   7   14.30   43.70
  -2  14   2  520.25   48.70
   0  18   1   38.10   49.10
   1  16  -1  316.47   53.89
   2  11  -3   80.19   39.60
   2  18  -1   16.80   54.39
   4  16  -3  -38.10   59.69
   5  14  -4  250.57   56.49
   6  15  -4  670.43   69.99
   7   5  -5  309.07   38.90
   7  11  -5  143.29   50.99
   8  10  -5   16.70   46.70
   9   8  -5  248.68   52.79
  -4  -1   8    2.60   20.00
  -3  15   4   78.09   43.80
  -1  12   0  189.68   33.90
   0  13  -1  213.68   39.40
   1  -4   1  177.68   14.20
   1  13  -2  497.35   48.00
   2  16  -2  380.16   57.09
   3  15  -3  101.89   51.89
   4  13  -4 2722.53   89.49
   8  11  -5  -13.70   47.10
   9   9  -5  -67.69   45.70
  -3  17   5   16.60   42.30
  -2   7   1    1.70   17.30
  -2  17   3   52.39   49.90
  -1   4   0 1675.23   27.50
   2   4  -3 5197.28   59.69
   3   7  -4 2860.71   63.29
   3   8  -4  386.96   35.40
   3   9  -4   86.89   31.30
   3  10  -4  169.38   40.70
   3  18  -2  129.89   65.39
   4  -7   1  538.25   25.80
   4  17  -3   20.20   61.79
   5  15  -4  213.28   59.89
   6   5  -5   16.90   23.40
   6  11  -5  -15.20   46.50
  -2  15   2  103.19   41.30
   0  -5   3  302.37   18.90
   1   3  -2  105.09   16.90
   1  17  -1  -55.39   47.00
   2  13  -3  242.68   45.30
   3   6  -4 1523.75   45.40
   4  -8   2  138.09   23.70
   4  14  -4  333.27   51.79
   5   7  -5  108.09   31.80
   5   8  -5  475.95   43.00
   5   9  -5  199.48   40.70
   6  12  -5   23.60   48.70
   0  -6   4   -3.40   21.70
   0  -2   1   61.59   10.30
   0   3  -1  115.09   15.00
   0  14  -1  543.25   47.00
   1  14  -2  808.42   55.59
   2  17  -2  261.17   56.19
   3  16  -3   49.90   53.69
   5  11  -5  526.95   57.39
   5  16  -4  285.77   69.79
   6   4  -5   19.50   17.10
   6  13  -5   18.20   50.69
   2  14  -3  -23.80   41.50
   3   5  -4   68.29   21.00
   4  15  -4   97.59   56.09
   5  12  -5   31.60   48.30
  -2  -3   5   35.20   15.50
   0  15  -1  -22.30   42.10
   1  15  -2  781.02   59.39
   1  18  -1   20.30   47.70
   3  13  -4  -16.40   37.60
   6  14  -5   12.30   50.09
  -1  -4   4   15.40   13.40
   2  15  -3  -20.60   43.70
   3  17  -3  -40.00   52.09
   5  13  -5  547.75   60.79
  -8  -4   8  199.78   32.80
  -8  -1  -1  555.64   19.80
  -7  -4   5  562.04   23.90
  -7  -4  10  502.35   38.30
  -5  -4   9   29.50   23.70
  -4  -3  12  156.08   37.10
  -3  -2  13  182.18   40.00
  -2   0  15   27.60   44.50
  -2   1  -4   26.40   12.30
  -1  -2   8   27.60   19.30
  -1   1  15   34.20   38.40
   0   1  13  113.59   37.40
   1   5  -5  114.29   16.90
  -8  -4   7   17.90   27.30
  -8  -4   9  123.99   33.30
  -7   0  -3  825.62   27.60
  -6  -4   4   47.60   14.30
  -4  -1  16  -34.40   46.50
  -3  -1  15   41.90   43.50
  -2  -3   7  759.92   30.70
   0  -1   3  438.76   17.70
   1   0   7   79.99   19.90
   1   4  -4    6.80   12.30
   1   4  15  111.79   43.90
   3   7  13  -17.50   37.60
   4   7   9   79.49   27.30
  -8  -4   6   -3.50   24.80
  -8  -4  10  493.05   41.10
  -7  -4  11  433.16   39.40
  -6  -4  11   45.30   30.10
  -5  -4   4   12.50   11.60
  -4  -4   8 1956.00   46.40
  -2  -3   8  278.37   25.60
  -2  -2  12   82.49   31.50
  -1  -1  12   56.89   31.30
  -1   0  14  -14.80   39.10
   0   2  15  522.35   52.19
   0   3  16  -15.40   37.70
   1   1  11  119.49   31.50
   2   2   9  -12.30   18.40
   3   4   9  374.06   28.30
   3   5  11   95.19   34.20
   4   6   7  799.92   30.40
  -4  -4   9    7.70   21.10
  -4  -3  13   32.60   37.00
  -4  -2  15   25.30   42.70
  -1  -2   3 2567.54   32.20
  -1   1  -3    5.30    9.80
   0   0  12  391.66   39.40
   1   0   8  -12.50   19.00
   1   2  13  403.16   43.10
   4   8  11  194.78   39.00
  -8  -4  11  427.26   41.80
  -7  -2   0   -2.20    9.90
  -6  -1  -2   39.40   13.30
  -2   0  16  217.28   53.89
  -1  -2  10  265.77   33.40
  -1   3  -5 1595.34   34.60
   0   1  14  239.88   42.70
   0   2  -3   55.39   11.70
   0   4  -5  674.73   25.90
   2   5  -3  374.46   15.70
   4   6   8  932.51   37.30
   4   7  10   48.70   33.70
   5   9   5   57.39   15.20
   5  10   8  204.78   29.40
  -7  -4   4  626.04   20.60
  -7  -4  12   25.50   33.90
  -6  -4  12   12.40   31.20
  -4  -4  10  740.43   39.60
  -3  -3   2   -4.60    7.30
  -3  -3  12  207.48   35.30
  -2  -3   4 1374.56   27.50
  -2  -2  13  749.33   48.20
  -1  -1  13  270.77   39.70
  -1   2  -4 3637.44   43.60
   0  -1  10   30.30   27.20
   0   3  -4 3864.21   45.50
   3   4  10    7.30   29.50
   3   6  13  613.64   51.89
   3   9  -4   90.49   16.80
   5   9   4   94.29   10.40
   5   9   6   22.80   16.90
  -9  -4   8  124.09   31.60
  -9  -4   9   34.40   32.60
  -8  -4   5  971.20   28.50
  -8  -4  12   19.40   34.50
  -4  -4  11  697.13   45.30
  -4  -3  14   26.10   38.00
  -2  -3  10  497.65   37.10
  -1  -2  11   49.80   31.70
  -1   0  15   28.30   39.80
   0   0  13  -11.40   38.20
   1   0   3  372.46   15.80
   3   5  12   39.70   33.90
   4  10  -2  -47.10   17.30
  -9  -4   7   17.00   30.60
  -8   0  -2  194.98   20.70
  -7  -4  13  459.15   45.80
  -4  -1  -2  317.37   13.00
  -3  -4   7 1092.79   33.30
  -3  -4   8  224.88   23.70
  -3  -3  13    0.00   37.50
  -3   2  -5  126.79   17.00
   1   2  14  937.21   55.29
   2   1   7  164.48   20.50
   2   4  14  240.08   43.50
   4   6   9   42.00   26.80
  -6   0  -3   22.90   15.40
  -6   1  -4  511.65   24.50
  -5  -1  -2   44.00   12.90
  -3  -4   9   42.10   23.30
  -3   1  -4   -0.60   11.20
  -2  -3  11   31.90   28.70
  -2  -2  14  -26.80   39.80
  -1  -1  14  143.69   40.70
   0   1  15   34.50   35.90
   1   6  -5  323.07   22.30
   2   1   5   97.99   15.10
   2   1   8  226.68   24.40
   3   3   8   85.79   20.00
   4   7  11  289.07   40.30
   4   8  12  720.13   48.50
  -4  -4  12   35.40   33.00
  -3  -4  10  199.98   29.90
  -2  -1  16   80.39   53.09
  -1  -2  12   83.09   33.50
   1   1  13   30.50   35.20
   4   9  -1  304.77   16.50
  -6  -5   9   91.19   29.30
  -6  -4   3   55.49   10.90
  -5  -4   3  135.79   11.10
  -4  -3  15  566.94   51.99
  -3  -4   5   29.00   13.30
  -3  -3  14  -49.99   38.00
  -3  -2  16  104.19   51.19
  -2  -3  12  810.02   47.40
   0  -1  12   26.10   31.90
   0   0  14   52.59   36.60
   2   1   4   10.70   12.70
   2   1   9    2.80   21.60
   3   3   9   73.39   20.90
   3   5  13   70.09   38.10
   4   6  10   18.60   30.10
   5   9   8   49.20   26.00
  -7  -5   8   31.60   24.10
  -7  -5  10  283.77   33.80
  -6  -5   7  -15.80   18.90
  -6  -5  10  423.26   36.60
  -5  -5   8   -6.90   17.90
  -5   0  -3  167.68   17.10
  -5   1  -4  509.85   24.10
  -4  -4  13    2.60   35.10
  -4   0  -3   -5.50   10.10
  -4   1  -4   30.80   13.00
  -3  -4  11   -7.60   28.70
  -1  -3   8   26.30   20.80
   0  -2   6   40.40   17.30
   0  -2   7   65.29   19.00
   0  -2   8  300.27   26.30
   0   1  16   44.30   44.20
   2   4  15  413.76   46.70
   4   5   5   -1.20   14.00
   4   5   6   73.79   17.90
   4   8   0  805.92   17.20
  -7  -5  11  266.57   40.30
  -6  -5  11   15.50   29.40
  -5  -5   7  153.88   19.50
  -5  -5  10   46.50   27.70
  -2  -2  15  218.68   49.20
  -2   3  -5 4004.60   53.49
  -1  -3   6 1255.27   33.70
  -1  -3   9  249.58   27.30
  -1  -2  13  932.81   52.49
   1   1  14  193.08   42.00
   2   1  10   59.99   27.80
   3   3  10   53.09   27.20
   3   4  12   -6.40   33.30
   3   7  -2  221.28   14.40
   4   5   8 1362.36   41.70
   4   7  12  317.57   40.90
   4  11  -2  223.98   19.90
  -8  -5  10  486.35   40.50
  -7  -5   7   56.39   23.10
  -7  -5  12  317.47   42.00
  -6  -5  12   15.80   30.60
  -3  -4  12   44.50   34.50
  -3  -3  15  106.99   42.20
  -1  -3  10  131.09   30.50
   0  -2   5 3677.63   47.80
   0  -2  10  459.85   36.40
   0  -1  13  126.69   37.90
   0   0  15  -19.90   39.20
   0   5  -5   84.79   19.40
   1  -1   7  121.19   18.90
   1  -1   8 1274.27   39.30
   5   9   9    6.30   30.30
  -8  -5   9   68.79   29.00
  -8  -5  11  267.97   36.20
  -8  -4   4  640.64   21.50
  -6  -5   6   16.10   18.00
  -5  -5   6  139.19   17.40
  -5  -5  12  488.65   42.30
  -4  -4  14  272.07   41.70
  -2  -4   7   91.39   18.20
  -2  -4   8  919.61   35.30
  -1  -3   5 3241.28   46.00
  -1  -2   2  162.58   11.80
  -1   4  -5 2197.78   42.10
   1  -1   6   80.99   17.00
   1  -1   9   -5.30   21.40
   3   5  14  110.19   43.30
   3   6  -1    1.50    8.40
   4   6  11  354.66   40.30
  -8  -5   8   13.90   28.50
  -7  -5  13  157.58   39.50
  -6  -5  13   74.39   35.30
  -3  -4   4   12.70   11.30
  -2   2  -4  431.26   19.20
  -1  -2  14  938.61   56.29
  -1  -1  16   55.09   46.70
   1   0  13  438.96   45.30
   1   4  -3 5127.99   47.20
   2   6  -3 1890.21   32.10
   3   3  11  442.96   38.20
   3   4  13   -1.40   36.40
   4   5   4   34.40   11.70
  -7  -5   6  -14.20   16.70
  -4  -5  11  502.25   39.20
  -4  -4  15   10.30   38.80
  -3  -3  16   53.59   50.19
  -2  -4   6   79.49   16.60
   0   0  16   32.30   44.00
   1  -1   5 1044.60   28.00
   1   1  15  209.08   42.80
   4  12  -2   21.30   17.40
   5   8   6   23.80   15.20
  -8  -5   7   41.60   27.50
  -7  -1  -1   -5.40   12.90
  -7   1  -3  749.23   27.70
  -6  -5  14   49.50   35.40
  -4  -5  12 1276.87   55.69
  -3  -4  14   15.00   38.50
  -2   0  -2 6919.81   42.10
  -2   1  -3  674.53   19.30
   0  -2  12  428.26   40.60
   1   3  -2  121.09   10.20
   2   2  14  613.24   48.50
   4   5  10  105.29   28.60
   4   6  12  310.67   40.00
   5   8   8   52.99   24.40
  -6  -5   5   13.10   15.50
  -5  -5  14   42.40   37.00
  -2  -4  12  562.94   42.60
  -2  -3  15  -31.40   44.20
  -1   3  -4 1707.43   31.80
   0  -2   4  353.06   19.00
   1   0  14    3.40   36.70
   2   0   7   73.79   19.60
   2   0   8  243.28   24.90
   3   2   9  106.49   21.60
   3   3  12   -1.30   32.90
   4  10  -1  445.26   21.60
   5   8   5   50.39   12.20
  -9  -5   9   26.70   31.60
  -7   0  -2    8.90   15.60
  -4  -5  13   50.89   34.80
  -3  -5   8  103.49   21.00
  -3  -5  10  147.69   28.90
  -3  -5  11  326.97   36.30
  -2  -4   5   27.90   15.00
  -1  -3   4 5867.11   53.49
  -1  -3  13    1.70   34.10
   0  -2  13 1012.00   54.29
   0  -1  15   19.90   39.30
   3   4  14  123.39   41.70
   4   5  11   45.20   31.30
   5   8   9  -32.50   28.20
  -3  -5   7   42.30   18.40
  -3  -4  15   39.70   38.00
  -2  -4  13  511.25   47.20
   1  -1   4 2972.50   38.80
   1   6  -4  178.38   17.30
   2   0  10   33.50   25.50
   2   2  15   85.99   38.30
  -9  -5   8   43.80   31.90
  -6  -6  10   51.79   28.20
  -5  -5  15   74.09   37.00
  -4  -5  14   25.00   34.50
  -3  -5  12  118.19   35.10
  -3   2  -4    6.40   12.40
  -2  -3  16   71.79   47.60
  -1  -2  16  111.39   47.60
   0  -3   8   24.70   20.00
   0  -3   9   78.59   23.10
   0   3  -3  495.25   17.30
   1  -1  13   64.49   37.00
   1   0  15   45.80   42.00
   2   0  11   28.50   30.10
   3   3  13   54.09   33.70
  -7  -6  10  893.11   44.80
  -7  -6  11   85.19   32.80
  -7  -5   5  279.47   18.50
  -6  -6   9  407.06   33.70
  -6  -6  11  -30.30   26.50
  -6  -6  12  218.28   34.40
  -5  -6  10  440.56   34.60
  -5  -6  11  239.48   33.10
  -3  -5  13   29.30   36.30
  -3  -4  16   62.59   50.89
  -2  -4  14   66.29   38.00
  -1  -4   8 2012.20   47.00
  -1  -4  10  153.18   30.90
   0  -3   7   69.59   18.90
   0  -2  14  178.88   42.00
   0  -1  16   17.20   43.70
   3   8  -2  133.39   16.10
   4   4   6   14.10   17.70
   4   4   9  208.88   30.20
   4   5  12  100.29   36.50
  -7  -6   9  513.95   36.20
  -7  -6  12   28.80   34.00
  -6  -6   8  594.64   32.40
  -6  -6  13    4.40   32.60
  -6   1  -3    5.10   14.50
  -5  -6   9   41.10   24.30
  -5   2  -4 2035.60   40.10
  -4  -5  15    5.90   38.30
  -4   2  -4  117.89   15.90
  -3  -5   6  170.78   18.30
  -1  -4   7  213.88   21.30
  -1  -4  11  312.47   35.70
   1  -2   8   11.90   19.70
   1  -2   9   92.59   24.30
   1  -2  10   -1.20   27.70
   2   0  12  213.18   36.30
   3   2  12   83.99   34.40
   4   4  10  287.67   31.50
   4  11  -1   10.00   16.20
  -8  -6  11   76.59   34.70
  -8   1  -2  395.16   24.40
  -5  -6   8   50.69   18.00
  -3  -4   3   29.00   10.00
  -2  -5   9  849.52   36.40
  -1  -4  12  712.23   46.00
  -1  -3  15   61.99   42.20
   0  -2  15  526.05   50.99
   3   3  14    9.80   34.30
   5   7   8    8.80   25.00
   5   8  11  128.49   35.80
  -8  -6  10  -48.80   33.60
  -7  -6   8  597.14   33.10
  -3   1  -3  203.98   13.60
  -2  -5   8 1921.21   46.50
  -2  -5  11  170.08   32.40
  -2  -4   4 4423.46   46.40
  -2  -3   2 2562.44   25.40
  -1   1  -2   28.10    9.80
   0   2  -2  165.08   11.40
   1  -2  11    8.10   28.10
   2   1  15   51.79   41.40
   4   4   5   38.10   13.50
   4   4  11  624.44   40.80
   4   5  13    2.90   35.40
   5   7   9   27.90   29.80
  -8  -6   9  153.58   34.30
  -6  -6   7  -16.70   21.00
  -5  -6   7   26.50   15.70
  -5  -6  14   69.59   36.40
  -3  -5  15   21.80   40.40
  -1  -4   6   16.30   15.80
  -1  -4  13  641.24   46.50
  -1  -3  16   27.00   49.30
   0  -3  13  461.15   45.40
   1  -2   6 1670.33   37.40
   1  -2  12  191.18   34.70
   3   2  13   20.10   35.10
   5   7  10   45.60   32.90
  -5   1  -3  267.47   18.70
  -2  -5   7  110.39   19.10
  -2  -5  13    9.10   37.00
  -2   3  -4   54.19   12.70
  -1   0  -1  614.44   10.70
   0  -2  16   30.10   47.50
   1  -1  15  174.48   44.10
   1   5  -3 1344.57   26.90
   1   7  -4  129.89   16.50
   2  -1   9    4.40   21.20
   2  -1  10   16.60   27.60
   4   4  12  840.02   48.80
  -3  -6  10   26.00   26.20
  -3  -6  11  178.38   33.60
  -1  -4  14   39.90   41.80
  -1  -3   3  373.26   16.80
  -1   4  -4  762.22   24.00
   1  -2  13  379.76   43.70
   2   0   4    5.20   12.30
   3   1  11 1294.57   50.89
  -3  -6   9   24.80   23.30
  -3  -6  12   -6.30   30.70
  -2  -5  14  133.49   40.90
   1  -1   3    4.00   13.20
   2  -1   7  190.88   20.50
  -3  -6  13  275.37   40.90
  -2  -5   6   -7.20   14.20
  -1  -4  15   32.00   44.10
   0  -3  15  -41.00   39.40
   1  -2   5 4284.37   51.59
   1  -2  14  952.40   55.89
  -7  -6   6  122.19   20.70
  -5  -5   6  115.49   18.80
  -5  -2  -9   -4.60   32.40
  -5  -1 -10   53.99   34.50
  -2   3 -11  118.49   34.00
  -1   0  -6   13.10   17.70
  -1   7 -12  300.07   43.50
   2  10   6   91.19   21.00
   3  12  -3    2.70   12.90
  -6  -6   4  179.38   17.20
  -5  -5  -4   -5.70   16.00
  -5   0 -11   41.40   34.10
  -4  -5   2 2464.55   21.80
  -3   3 -12   15.30   36.20
  -2  -3   2 2548.25   22.80
  -2  -2  -5  268.67   18.40
  -1   9 -13  171.58   42.20
   1   3  -4 5686.53   51.99
   1   3   3  182.58   11.40
   1   5  -7 2124.09   46.10
   1   6  -8 4062.69   67.09
   1  14 -11  627.74   59.39
   2   9  -7   -3.40   20.20
   2  11  -8   91.59   32.20
   3  16  -4   36.40   30.90
  -6  -4  -7   10.00   25.00
  -5  -3  -8   16.70   26.10
  -2   4 -12   87.19   37.10
   0   7 -11  718.23   45.40
   1   4  -6   31.80   15.70
   1  13 -11  174.18   41.20
   3  13  -4    0.80   15.80
  -8  -5  -6   95.69   30.80
  -7  -2 -10    9.30   35.40
  -4  -5  -2  686.63   15.60
  -4   3 -13   59.49   38.10
  -3  -3   6  188.88   16.80
  -3   4 -13   -7.70   35.90
  -1   0   6  -11.90   15.60
  -1   1  -8 1283.97   38.90
  -1   3 -10  454.25   36.70
  -1   6 -12  405.06   42.00
   0   1   4 2359.36   32.70
   0   4  -9   -5.40   22.10
   0   9 -12  474.45   45.90
   1   7  -9  436.86   33.60
   1  12 -11   30.60   34.50
   2   9   5   20.80   16.20
   2  10  -8   -9.30   28.60
   2  14  -9  554.74   48.20
  -8  -6  -4  194.28   26.20
  -7  -5  -6   55.89   25.60
  -6  -2 -10   29.30   29.60
  -6  -1 -11   21.00   33.80
  -3  -1  -9   84.89   27.00
   0   2  -7   88.09   18.00
   0   5 -10  -22.80   25.90
   2   7   3  158.48   12.90
   2  13  -9   59.19   31.50
   3  12  -4  281.97   18.70
  -7  -6   5    2.30   16.50
  -6  -3  -9    1.00   27.80
  -4   1 -12  160.38   38.20
  -3   2 -12  131.09   34.10
  -2  -2   5   82.19   13.70
  -2   1 -10   34.20   26.40
  -2   7 -14  186.58   49.50
   0   8 -12  438.16   42.10
   1   8 -10   80.29   28.10
   2  12  -9   64.69   31.50
   3  11  -3   61.39   11.70
   3  14  -5   27.40   24.30
   3  15  -5    7.60   27.10
  -7  -4  -8  146.69   31.90
  -6  -6  -3   24.80   12.90
  -6  -6   3  254.67   14.70
  -5  -5   5  356.06   19.90
  -5  -4  -7   -7.90   24.70
  -5  -1 -11   31.70   32.80
  -2   0  -9  -27.70   19.30
  -1   0  -7   72.29   17.30
  -1   7 -13  241.08   38.30
   0   6 -11   54.49   28.40
   1   5  -8  203.48   24.10
   2   9  -8  330.37   27.50
   3  13  -5  432.46   26.60
  -6  -5  -6  633.44   30.50
  -5  -5  -5   23.10   17.00
  -5  -2 -10   32.70   30.80
  -5   0 -12   25.70   33.70
  -4   2 -13   -9.50   33.20
  -3  -2  -8  489.95   27.90
  -3   3 -13   -8.50   33.90
  -2  -2  -6  971.50   28.70
  -1   9 -14   24.80   41.70
   0   0  -2 1185.78   18.20
   1   4   4  759.32   20.40
   1   6  -9   47.70   22.40
   1  13 -12  205.28   44.00
   2   6  -5  128.29   12.60
   2  11  -9   39.00   30.00
  -6  -4  -8   69.09   25.70
  -4  -4  -6   90.29   18.10
  -4  -3  -8   93.19   22.50
  -2  -3   1  464.85    7.20
  -2  -1  -8  229.78   22.20
  -2   4 -13   41.60   33.80
  -2   6 -14   68.99   40.60
  -1   2 -10   28.60   25.40
  -1   6 -13   44.80   33.50
   0   1  -6   41.80   15.60
   0   3  -9   99.59   23.20
   0   4 -10   16.50   26.30
   0   7 -12  278.47   36.60
   1  12 -12   16.90   34.90
   2  10   5   84.39   17.10
   2  14 -10  304.57   45.20
   3  11  -4   56.69   13.10
   3  12  -5   48.50   16.20
  -5  -3  -9   39.00   29.70
  -4  -5  -3  260.07   13.80
  -3   4 -14  103.99   40.10
  -1   1  -9   34.80   21.10
  -1   3 -11   87.99   27.60
  -1   8 -14  345.37   48.10
   0   5 -11   84.89   29.50
   0   9 -13  491.75   43.60
   1  11 -12  277.07   38.20
   2  10  -9  438.56   34.10
   2  13 -10   -4.70   36.00
   3  14  -6   12.40   24.40
   3  15  -6  101.29   30.80
  -8  -5  -7  196.18   30.50
  -7  -5  -7   87.99   28.20
  -6  -5   6   14.90   16.10
  -6  -2 -11   18.70   36.60
  -4  -4   5    1.30   13.60
  -3  -3   5   38.80   11.00
  -3  -1 -10 1671.13   50.69
  -3   0 -11 1331.97   50.39
  -3   1 -12  396.16   39.20
  -1   4 -12  -20.80   28.00
   0   0  -3    0.30   11.00
   0   2  -8  334.97   23.90
   1   3   2  296.37   10.50
   1   8 -11  143.59   32.50
   2  12 -10  147.49   32.60
   3  13  -6   43.60   23.00
  -7  -6   4   19.30   13.60
  -4   1 -13   76.89   33.70
  -3   2 -13  -20.30   31.70
  -2   0 -10    3.20   25.50
  -2   1 -11  800.12   41.10
  -2   2 -12   92.49   34.60
  -2   5 -14  445.76   46.20
  -1  -1  -6   75.09   16.70
  -1  -1   3  953.10   18.10
  -1   0  -8  -18.80   19.50
  -1   0   5  469.65   18.00
  -1   7 -14  184.48   43.40
   0   3   6  499.85   21.00
   0   6 -12  211.88   35.70
   0   8 -13 1274.57   55.79
   1   5  -9 2154.88   49.90
   2   5  -2  168.98    9.50
   2   9  -9   -9.80   26.70
   2  11   5  129.79   20.20
   3  10  -3  550.94   17.10
   3  10  -2 1048.70   17.00
  -7  -4  -9   88.89   30.30
  -6  -6  -4   13.20   14.30
  -5  -4  -8  676.93   35.80
  -2  -3  -4   76.89   12.50
  -2  -2  -7  608.84   26.30
  -2  -1   6 1306.17   29.50
  -1   5 -13   80.59   33.30
   0   1   3  414.96   13.90
   1   4  -8 2016.40   44.70
   1   6 -10  620.14   35.30
   2   5  -3  398.26   14.00
   2   6  -6  352.46   19.50
   2   9   4  621.74   21.70
   2  11 -10  243.98   35.10
   3  12  -6   66.09   19.30
  -7  -6  -5   28.50   21.70
  -6  -6   2  321.77   12.60
  -5  -5   4  392.56   17.30
  -5  -2 -11  536.45   40.90
  -5  -1 -12  104.29   33.70
  -5   0 -13   20.50   32.30
  -3  -2  -9   83.39   23.70
  -3   3 -14   10.10   34.20
  -2  -2   4  816.02   20.00
  -2  -1  -9   13.60   20.20
   0   0  -4  478.55   18.40
   0   1  -7   -7.90   15.50
   1   2  -3 2592.04   29.20
   1   7 -11   36.20   30.50
   3  14  -7   45.90   26.90
   3  15  -7   79.69   33.10
   3  16  -7  -18.60   37.00
  -6  -4  -9   10.50   28.50
  -4  -5  -4   63.59   12.90
  -4  -4  -7  638.64   26.60
  -2   4 -14  218.88   43.30
  -1   2 -11   32.60   26.10
  -1   3 -12  124.49   31.10
  -1   6 -14  -20.40   39.00
   0   3 -10   47.50   24.40
   0   4 -11  -37.30   25.20
   0   9 -14  277.37   41.60
   2  10 -10  594.44   38.90
   2  12   5  187.98   22.30
   2  13 -11   54.19   37.80
   2  14 -11   47.00   37.00
   3  13  -7   28.80   24.60
  -5  -3 -10  116.99   30.30
  -3   0 -12  -32.70   29.50
  -1   4 -13    6.90   32.60
   0   2  -9  219.98   23.70
   0   5 -12   24.20   27.80
   1   2  -4 1474.25   26.90
   1   3  -7  159.18   17.40
   1  11 -13   68.99   33.20
   2   8   3  100.89   13.40
   2  12 -11  -12.20   29.40
   3  10  -5   25.60   15.30
   3  11  -6    0.40   15.50
  -7  -5  -8  -44.20   28.30
  -5  -4   6  954.10   29.00
  -3  -1 -11 1257.17   49.10
  -3   1 -13  102.19   33.50
  -2  -3  -5 4019.50   46.50
  -2   1 -12  236.88   36.30
  -1  -2  -2  628.94   14.20
  -1  -1  -7  121.29   17.20
   0   0  -5   11.50   13.50
   0   8 -14   11.90   34.10
   1   5 -10  614.44   35.50
   2   5  -5  181.78   15.10
   2   6  -7  238.58   18.50
   2   7   2   44.20    8.20
   2   9 -10  713.83   39.70
   2  11 -11  297.87   38.90
   3  12  -7    9.80   21.60
  -8  -6  -6    5.70   28.10
  -6  -6  -5    8.60   17.30
  -6  -5   5   28.40   15.60
  -6  -3 -11  156.48   36.40
  -4  -2 -11  467.25   37.30
  -3  -2   6  209.78   16.90
  -3   2 -14   91.49   35.60
  -2  -2  -8   21.10   18.70
  -1  -2  -3 1079.29   20.60
  -1   5 -14  -19.10   34.60
   0   1  -8  311.77   23.40
   0   6 -13   23.10   30.60
   2  10   4   97.19   15.60
   3  14  -8  239.68   32.30
   3  15  -8   -2.00   33.50
  -7  -6  -6    4.80   24.90
  -5  -4  -9  381.16   32.90
  -4  -4   4   66.49   13.20
  -4  -3   6   30.90   13.40
  -2  -1 -10   32.10   24.30
  -2   3 -14   26.00   36.20
   1   2  -5 4238.08   46.60
   1   4   3 1110.79   19.90
   2  10 -11  650.33   42.50
  -6  -5  -8   60.19   27.60
  -5  -6  -3   68.69   12.00
  -5  -2 -12   17.30   31.20
  -4  -4  -8  205.18   22.20
  -4  -3 -10  268.17   33.10
  -3  -3   4  -14.00    8.80
  -1  -2  -4 3685.13   39.30
  -1   2 -12  160.58   31.00
  -1   3 -13  375.66   41.10
  -1   6 -15  -27.20   40.30
   0   2   4  365.86   14.70
   0   3 -11  289.07   30.60
   0   4 -12   51.89   28.60
   0   4   6  206.58   18.00
   2   5  -6   -4.90   13.70
   2   6  -8   33.90   18.70
   2  13 -12    5.90   39.40
  -6  -4 -10    9.70   32.00
  -5  -3 -11  258.57   33.70
  -2   4 -15  449.16   50.29
  -1  -1  -8 1277.67   36.20
  -1   0   4   -0.70   10.60
   0   3   5  555.44   20.40
   0   5 -13   28.70   32.40
   1   2  -6   20.50   14.80
   2  12 -12   56.49   37.50
   3   9  -4   98.09   13.90
  -3  -1 -12  459.95   39.00
  -3   0 -13   13.90   30.80
  -3   1 -14    7.60   33.60
  -2  -1   5  115.29   12.80
  -2   1 -13  -21.60   31.90
  -1  -2  -5 4318.47   47.80
  -1  -2  -1   49.40    6.40
  -1   0 -10  -16.80   23.90
  -1   4 -14  183.38   39.80
   1   5 -11  354.76   32.80
   1  10 -14    3.90   33.90
   2   9 -11  704.73   41.80
   2  11   4  678.53   26.60
   3   9  -5    4.10   13.80
  -7  -5  -9  843.82   44.90
  -6  -6  -6  681.53   31.70
  -4  -5  -6   94.69   16.90
  -4  -1 -13   29.30   31.80
  -2  -2  -9  -11.00   18.10
  -2   2 -14  628.74   45.30
  -1   5 -15  182.18   44.90
   0   0  -7   -2.70   17.50
   0   1  -9 6663.83   80.49
   0   6 -14   -3.70   33.30
   1   6 -12  -21.60   29.60
   2   5  -7  111.39   17.70
  -7  -6  -7  -13.70   27.20
  -5  -5  -8  124.79   25.20
  -4  -2 -12  111.29   33.40
  -2  -3  -7 1883.71   39.60
  -2   3 -15  661.03   55.39
  -1  -1   2  201.08    9.60
   1   2  -7   28.90   15.20
   1   3  -9  234.58   23.50
   1   7 -13   34.40   33.30
   2   6  -9  471.15   28.70
  -6  -5  -9   51.29   28.40
  -5  -4   5   87.99   16.50
  -4  -3 -11  292.07   34.30
  -2  -2   3  778.72   16.50
  -1  -2  -6 1689.83   34.00
  -1  -1  -9   24.10   18.20
  -1   1 -12    3.80   27.60
  -1   1   5 2993.70   39.10
  -1   2 -13  424.46   40.30
  -1   3 -14  941.81   54.99
   0   2 -11   13.20   26.40
   0   4 -13   24.90   30.60
   0   7 -15  619.44   51.99
  -6  -4 -11   26.30   32.80
  -5  -3 -12  942.21   49.50
  -1   0 -11   71.69   27.40
   0   1 -10   54.99   25.60
   0   5 -14   38.90   34.30
   1   4 -11  284.47   32.10
   1   5 -12  417.96   37.00
   1   7   5  312.67   17.00
   1   8 -14   12.60   33.70
   3  11  -9  276.17   30.90
   3  13 -10  -19.30   29.70
  -3  -1 -13   54.89   34.10
  -3   0 -14  -24.90   32.50
  -2  -2 -10  140.59   26.30
  -2   1 -14  114.59   36.20
  -1   4 -15   87.99   39.40
   0   0  -8 3608.54   56.09
   0   1   2  125.69    8.70
   1   3 -10  141.79   26.40
   1   6 -13  -25.30   30.70
   2  11 -13   14.90   34.80
  -2   2 -15  140.09   39.90
  -1  -2  -7  183.18   17.70
   0   5   6   34.80   14.50
   0   6 -15  106.09   38.60
  -8   1   8  288.67   38.60
  -8   3   7   -4.10   27.90
  -7  -2   8   55.59   37.00
  -7   1   6  779.92   32.70
  -4  -9  11   13.20   51.19
  -4  -4   5    9.80   20.50
  -3  -8   8  564.74   51.19
  -3  -4   4    9.60   19.00
  -2 -10  10  600.94   61.69
  -2  -8   7   40.40   35.80
   0  -9   7  427.16   41.00
   0   3  -1  102.39   13.10
   4  -8   6  -18.40   26.00
   8   0   3  -16.60   16.80
  -7  -5  11  323.27   48.70
  -6   2   4  371.36   19.90
  -5  -9  13  468.05   69.39
  -5  -8  11  119.39   48.20
  -5  -6   8   20.70   33.60
  -5  -5   7  161.88   32.90
  -4 -10  13  272.97   70.89
  -4  -8   9  105.99   42.40
  -3 -10  11  622.84   68.29
  -3   7   0  239.18   18.90
  -2   3   0  923.21   13.80
  -1 -11  11  659.83   61.19
  -1  -7   5   41.50   22.60
   3 -11  11   31.30   47.70
   5   4  -1   -2.70   18.80
   6  -8   8  -34.60   34.30
   6   0   1   14.80   12.70
   8   2   2   15.30   21.70
  -8  -3  11  196.38   47.30
  -8  -2  10  236.78   46.80
  -7  -1   7  108.39   32.30
  -6  -2   6   46.50   24.00
  -5  12   2   22.40   29.30
  -2  -9   8  268.17   42.30
  -1  -6   4  186.58   24.10
   0 -11  10  442.26   54.99
   2 -11  10  192.38   46.40
   4 -10   9  340.97   45.00
   7   2   1   50.19   19.30
  -9   3   9  578.14   50.39
  -8  -4  12   12.70   45.60
  -6  -7  11   42.30   42.00
  -5  -7   9  -18.00   39.10
  -3 -11  13  101.49   56.59
  -3   9   0 1370.96   39.50
  -3  10   0 2430.56   51.69
  -2  -4   3 5089.49   58.79
  -1  -9   7  140.89   36.60
   0 -10   8  515.95   44.70
   2   2  -1 1154.88   23.50
   5   1   0  644.44   22.50
  -9   1  10   84.39   45.30
  -7   3   5   51.59   17.40
  -5  -9  12   15.10   47.00
  -5  -8  10   48.90   43.30
  -4 -10  12   41.80   56.39
  -2 -11  11  259.47   52.99
   0  -4   2   88.99   16.50
   1  -8   5  439.76   29.70
   1  -7   4  118.79   21.00
   3 -11  10  433.56   53.59
   3 -10   8 1556.64   59.49
   4  -9   7  103.09   32.20
   4   3  -1   41.50   12.40
   5 -10  10  409.66   51.49
   6  -6   5    2.80   17.60
  -7  -5  10  239.08   42.50
  -7  -4   9   78.89   36.80
  -6  -8  12   60.19   49.40
  -5   1   3  113.69   13.20
  -5  11   2  143.99   27.40
  -4  11   1   39.00   25.30
  -3 -10  10  534.65   51.99
  -3  -1   2 6383.36   48.90
  -1  -5   3 1334.07   34.50
  -1   6  -1 2015.70   37.30
   1  -9   6  435.46   33.30
  -8   0   8  230.78   37.60
  -8   2   7  320.77   35.40
  -7  -6  11  104.89   42.50
  -4  -7   7  661.33   44.10
  -4  -6   6  469.55   35.70
  -3  -8   7  523.75   43.00
  -3  -7   6 2031.00   55.19
   0 -11   9  735.53   57.59
   0  -8   5 3276.47   63.59
   2 -11   9  155.38   42.90
   3  -8   5  958.60   35.40
   3  -7   4 6480.95   70.09
   5  -7   5  -11.90   18.40
   5  -6   4    6.10   14.40
   6  -7   6   18.10   21.80
  -8  -4  11  462.85   53.19
  -8  -3  10  136.69   45.70
  -7   0   6  -45.00   23.30
  -6  -1   5  247.58   24.00
  -4 -10  11  130.29   50.69
  -4  -8   8   40.30   35.40
  -3  -9   8 1389.86   61.19
  -3  -6   5 3056.49   60.49
  -2  -8   6  468.65   36.90
  -1   7  -1 3548.15   53.79
  -1   8  -1  590.24   29.30
  -1   9  -1  369.76   30.70
   0  -9   6 1543.65   51.89
   0  -7   4 1149.48   38.10
   1  -6   3  214.68   20.20
   2 -12  11  683.53   58.59
   2  -3   1 2815.32   24.50
   3  -9   6  141.59   26.90
   6  -9   9    6.40   40.50
  -9   0  10  -32.50   45.70
  -9   2   9   95.69   41.50
  -7  -7  12   35.80   42.50
  -5  -7   8  144.89   36.90
  -5  -6   7   29.20   31.60
  -4  -5   5   12.80   22.00
  -2  -9   7   14.10   33.90
  -1 -12  11    9.10   47.60
  -1 -11   9  387.66   51.89
   0   4  -1  123.59   14.60
   2 -10   7   85.19   33.70
   4 -11  10   78.49   45.60
   4 -10   8   41.40   37.20
   4   4  -1 2259.67   43.90
   5 -10   9  443.86   51.99
   5  -8   6   -3.40   28.00
   7   3   1    6.80   21.20
  -7  -2   7  412.86   39.30
  -6  -8  11   39.30   46.00
  -6  -3   6 1390.96   45.10
  -5  -8   9   20.40   43.10
  -3 -10   9 1046.20   61.49
  -3  -5   4   80.59   22.60
  -2 -10   8   40.70   37.90
  -2  -6   4 1325.57   40.30
   1 -12  10    6.70   46.20
   3   3  -1  135.09   16.30
  -5  -5   6  101.09   26.40
  -4 -11  12  433.86   65.39
  -4 -10  10  466.85   56.79
  -1  -9   6  144.59   32.20
  -1  -8   5   68.79   27.10
   0  -6   3  276.27   24.20
   1   3  -1  412.66   17.20
   2 -12  10   58.49   43.50
  -8  -1   8  248.58   40.40
  -7  -5   9  816.62   51.49
  -6  -9  12  170.68   54.19
  -5  -9  10   47.10   44.80
  -2 -12  11   31.70   50.29
  -1 -10   7   19.40   34.70
   1  -3   1    0.60   11.30
   2 -11   8   12.00   36.30
   4   5  -1 2598.94   53.49
   5   2   0   38.10   17.00
  -8  -5  11  232.78   48.60
  -8  -4  10  379.96   50.99
  -7  -7  11   19.20   40.30
  -7  -4   8  268.67   39.30
  -4  -2   3 2028.10   37.00
  -3 -11  10   34.60   46.20
  -1 -12  10 1016.60   66.49
   0   5  -1 1524.95   32.90
   3 -12  10   59.69   47.50
   4 -11   9  242.28   46.10
  -6  -8  10   40.80   41.10
  -5 -10  11   61.49   47.40
  -4  -4   4  160.78   19.60
  -3  -9   7 1068.19   50.79
  -3  -8   6 1658.63   54.19
  -2  -3   2 2589.24   37.90
  -1 -11   8  152.48   39.00
  -1  -4   2 2146.59   36.40
   1 -12   9    6.10   40.90
  -4  -9   8   49.10   36.20
  -3 -10   8  175.18   36.50
   0 -12   9   39.70   40.30
   0   6  -1  278.47   20.00
   1 -13  11   66.59   44.00
  -1  -2   4 1516.05   23.20
   4   1  -9   97.39   20.60
   4   1   7 1086.49   30.10
   4   2  -7  785.92   32.60
   4   3  -3  -24.80   19.40
   5   2  -8  418.86   29.90
   5   3  -5 1714.43   46.10
   6  -1  10   56.59   31.70
   6   3  -6 1398.46   49.90
   8   0   8  117.49   42.20
   8   2  -9  741.93   53.29
   8   3  -6   23.90   37.60
   9   3   0  151.58   41.60
  -1  -7 -10  941.81   24.30
   2   2  -1 1143.49   26.80
   2   2   0  101.99   15.40
   4  -2 -13  169.18   26.50
   5   1 -10  716.73   38.90
   5   3   3  481.95   27.40
   7   1 -11   -5.90   34.80
   8   1 -11  -16.60   37.00
   8   2   5   13.50   34.80
   9   2   4   41.40   39.20
  -1  -4  -7   73.99   11.60
   1  -6  12  398.26   23.60
   2  -3 -12  828.82   21.70
   3   2   4   12.80   12.20
   4  -3 -14   37.80   25.40
   4   3  -4  101.59   21.60
   4   3   2 2461.55   45.00
   7   3  -7  -24.20   30.20
   8   3  -7   15.60   38.20
   9   3  -6  -16.70   39.10
  10   3  -4   14.30   48.70
  10   3  -3   33.40   48.80
  10   3  -2   63.99   42.80
  -2  -4   4 4394.46   51.99
   0  -6  11   71.59   19.30
   1   0  -6   -7.30    8.50
   2  -2 -11  303.97   15.80
   2   2   1 2199.08   31.20
   3  -4 -14    6.30   21.20
   5   3  -6 3496.05   63.79
   6   1 -11 1561.64   56.59
   6   2   6   20.70   28.90
   6   3  -7   44.10   27.10
   7   4  -3  257.17   36.90
   7   4  -2  102.79   32.80
   7   4  -1  972.90   48.50
   8   1   7   22.60   36.50
   8   3   3   67.49   37.60
   9   3  -7   37.20   44.10
  10   3  -5    0.90   48.70
  -3  -6  -1   44.70   18.20
  -2  -5  -5   78.39   14.70
  -2  -4  -3  310.07   16.50
   0  -3   8    5.40   13.10
   1  -1  -8  360.96   11.80
   1   1   2   21.70    8.60
   5  -2 -14  127.69   32.90
   5   2   6   10.30   20.60
   6   3   4 1437.26   44.40
   6   4  -3   70.49   29.10
   6   4  -2  131.99   30.50
   7   2 -10    6.00   34.70
   7   2   6   29.50   30.70
   7   3   4 1217.28   52.09
   7   4  -4  587.34   43.70
   8   4  -3  241.38   39.40
   8   4  -2  747.53   51.89
  -3  -6   0   36.10   19.20
  -1  -6  -9   25.20   14.00
  -1  -2  -3 1027.30   15.70
   3   0 -10  -13.30   17.20
   4   3  -5  698.23   32.00
   6   4   0   30.60   23.40
   7   0 -13   37.60   38.90
   7   0   9  319.37   38.30
   7   3  -8   61.89   33.20
   8   3  -8  114.59   39.80
   8   4  -4  631.94   50.09
   8   4   0 1046.90   55.29
   9   2   5  290.97   46.60
   0  -5  10    8.80   18.00
   4   3   3 3211.08   49.70
   5   4  -2 2422.56   52.79
   5   4  -1  -23.40   22.30
   6   2 -10  451.15   40.00
   6   3  -8   74.29   30.10
   6   4   1    7.40   23.30
   7   4  -5  600.64   42.60
   7   4   1   33.00   29.30
   8   1 -12  -30.60   35.60
   8   2   6  -22.00   37.40
   9   3  -8   -0.40   40.50
   9   3   3   83.49   40.50
   9   4  -4  -22.70   48.30
   9   4  -3   46.50   40.80
   9   4  -2  250.57   45.00
   9   4  -1   -1.70   40.90
  -2  -8  -8  286.87   24.50
  -2  -6  -6   78.19   17.50
  -1  -4   7  205.58   16.80
  -1  -2   3 2578.24   28.80
   0  -4   9    5.80   14.00
   2  -1 -10   -3.50   12.80
   3   3   0  388.66   21.80
   5   1   8  209.28   22.90
   5   4  -3  106.69   23.80
   5   4   0   60.19   21.90
   6   4  -5   68.39   27.70
   7   1 -12    7.50   33.20
   7   1   8  406.36   37.20
   8   4   1  -15.90   33.90
   9   4  -5   32.30   48.20
   9   4   0   68.19   41.70
  -2  -7  -7  434.86   23.00
  -2  -4   3 5297.27   55.69
   4   3  -6    7.30   19.30
   6   0 -13  -42.40   33.50
   6   4   2   75.09   24.30
   7   4  -6    4.30   30.40
   8   2 -11  -26.90   37.70
   8   3  -9  536.85   48.50
   8   4  -6    2.60   36.00
   9   3  -9  567.44   55.99
  -2  -4  -2  400.36   17.60
  -1  -6   9   59.29   18.50
  -1  -5   8  204.08   20.00
   3   3   1  477.35   22.10
   4   2   6 1005.70   28.80
   5   4   1   96.39   21.20
   6   1 -12  -27.70   31.90
   6   4  -6   20.70   28.60
   7   2 -11   -5.90   35.10
   7   3   5   23.80   31.30
   9   3   4   28.20   36.30
   9   4  -6   12.90   40.90
  10   4  -5   31.40   51.49
  10   4  -2  294.57   52.39
  10   4  -1  -68.09   43.50
   2   2  -4  817.72   23.80
   3   2  -7  569.54   24.60
   5   3  -8  687.93   35.20
   6   2   7   -1.10   26.00
   7   2   7    1.00   32.00
   7   4  -7  -12.80   31.60
   8   1   8   16.70   36.70
   8   3   5  349.47   40.40
   9   4  -7  -10.60   41.80
  -2  -4   2 1856.71   33.60
   5   2 -10   65.99   28.10
   5   3   5  114.39   20.80
   5   4   2  612.74   31.30
   9   4   2  -32.10   38.10
  10   4  -6  163.38   50.39
  -2  -4   1  928.71   24.70
  -1  -3   5 3155.48   36.70
   3   3   2   42.20   15.20
   4   2  -9   11.20   19.70
   4   4  -1 2112.79   45.90
   6   2 -11  353.36   40.40
   6   4  -7  119.89   30.60
   7   5  -3  133.69   34.00
   7   5  -2  273.77   35.50
   8   2   7   68.29   35.40
   8   4  -8  172.18   40.60
   8   4   3   56.09   34.10
   8   5  -2  324.87   43.70
  -2  -4   0 1345.27   28.20
   4   3  -7 3078.99   56.59
   4   4  -3  541.55   28.40
   4   4   0  624.74   28.90
   5   4  -6  943.21   40.30
   7   1 -13   14.90   37.90
   7   4  -8  249.88   38.00
   7   5  -4  641.54   43.10
   8   2 -12    1.20   37.00
   8   5  -4 1704.03   64.79
   8   5  -1  489.45   46.10
   9   3   5   46.40   40.20
  -2  -5   4 1595.94   34.90
  -1  -2   2  148.09   11.40
   6   5  -3  547.15   38.80
   6   5  -2   35.10   28.60
   6   5  -1   13.80   27.60
   7   5   0   19.20   29.80
   8   5  -5   20.70   39.10
   8   5   0  981.40   54.39
   9   5  -4  -18.30   44.20
   9   5  -1   32.70   41.60
   0   0   0    0.00    0.00

_computing_structure_solution     'SHELXT 2018/2 (Sheldrick, 2018)'
;
_shelx_hkl_checksum              8882
_olex2_exptl_crystal_mounting_method 'super glued to a glass fiber'
_olex2_submission_special_instructions 'No special instructions were received'
loop_
_space_group_symop_operation_xyz
'x, y, z'
'-x+1/2, y+1/2, -z+1/2'
'-x, -y, -z'
'x-1/2, -y-1/2, z-1/2'
loop_
_atom_site_label
_atom_site_type_symbol
_atom_site_fract_x
_atom_site_fract_y
_atom_site_fract_z
_atom_site_U_iso_or_equiv
_atom_site_adp_type
_atom_site_occupancy
_atom_site_site_symmetry_order
_atom_site_calc_flag
_atom_site_refinement_flags_posn
_atom_site_refinement_flags_adp
_atom_site_refinement_flags_occupancy
_atom_site_disorder_assembly
_atom_site_disorder_group
Re2 Re 0.58662(8) 0.64353(5) 0.55180(5) 0.00691(11) Uani 1 1 d . . . . .
Re3 Re 0.62011(8) 0.44269(5) 0.66139(5) 0.00694(11) Uani 1 1 d . . . . .
Re1 Re 0.25511(8) 0.52255(5) 0.56076(5) 0.00702(11) Uani 1 1 d . . . . .
I1 I 0.70375(18) 0.86640(9) 0.59301(10) 0.0166(2) Uani 1 1 d . . . . .
Se4 Se 0.2969(2) 0.33434(13) 0.66602(14) 0.0105(3) Uani 1 1 d . . . . .
Se3 Se 0.4616(2) 0.60279(13) 0.76366(13) 0.0101(3) Uani 1 1 d . . . . .
Se1 Se 0.9286(2) 0.56746(13) 0.66278(13) 0.0092(2) Uani 1 1 d . . . . .
Se2 Se 0.2333(2) 0.71204(12) 0.45804(14) 0.0110(3) Uani 1 1 d . . . . .
loop_
_atom_site_aniso_label
_atom_site_aniso_U_11
_atom_site_aniso_U_22
_atom_site_aniso_U_33
_atom_site_aniso_U_23
_atom_site_aniso_U_13
_atom_site_aniso_U_12
Re2 0.0067(2) 0.0051(2) 0.0088(2) -0.00038(17) 0.00086(17) -0.00038(18)
Re3 0.0067(2) 0.0061(2) 0.0077(2) 0.00033(17) 0.00018(17) 0.00027(18)
Re1 0.0061(2) 0.0062(2) 0.0088(2) -0.00042(17) 0.00128(16) 0.00004(18)
I1 0.0276(5) 0.0089(5) 0.0114(4) -0.0005(3) -0.0023(4) -0.0041(4)
Se4 0.0116(6) 0.0084(7) 0.0119(6) 0.0023(5) 0.0029(5) -0.0027(5)
Se3 0.0105(6) 0.0103(7) 0.0095(5) -0.0018(5) 0.0014(5) 0.0011(5)
Se1 0.0071(6) 0.0097(6) 0.0108(5) 0.0004(5) 0.0014(4) -0.0005(5)
Se2 0.0107(6) 0.0070(6) 0.0147(6) 0.0012(5) 0.0005(5) 0.0029(5)
loop_
_atom_type_symbol
_atom_type_description
_atom_type_scat_dispersion_real
_atom_type_scat_dispersion_imag
_atom_type_scat_source
I I -0.8919 1.1868 'International Tables Vol C Tables 4.2.6.8 and 6.1.1.4'
Re Re -0.4693 4.8944 'International Tables Vol C Tables 4.2.6.8 and 6.1.1.4'
Se Se 0.2367 1.4831 'International Tables Vol C Tables 4.2.6.8 and 6.1.1.4'
loop_
_geom_angle_atom_site_label_1
_geom_angle_atom_site_label_2
_geom_angle_atom_site_label_3
_geom_angle
_geom_angle_site_symmetry_1
_geom_angle_site_symmetry_3
_geom_angle_publ_flag
Re3 Re2 Re3 89.84(3) 3_666 . ?
Re3 Re2 Re1 60.45(2) 3_666 3_666 ?
Re3 Re2 Re1 59.68(3) 3_666 . ?
Re3 Re2 I1 126.86(3) 3_666 . ?
Re3 Re2 I1 143.23(3) . . ?
Re1 Re2 Re3 59.59(3) . . ?
Re1 Re2 Re3 59.25(2) 3_666 . ?
Re1 Re2 Re1 89.27(3) 3_666 . ?
Re1 Re2 I1 132.76(4) 3_666 . ?
Re1 Re2 I1 136.94(4) . . ?
Se4 Re2 Re3 58.19(4) 3_666 3_666 ?
Se4 Re2 Re3 117.63(4) 3_666 . ?
Se4 Re2 Re1 58.40(4) 3_666 3_666 ?
Se4 Re2 Re1 117.83(5) 3_666 . ?
Se4 Re2 I1 85.39(4) 3_666 . ?
Se4 Re2 Se3 174.63(6) 3_666 . ?
Se3 Re2 Re3 117.67(4) . 3_666 ?
Se3 Re2 Re3 57.75(4) . . ?
Se3 Re2 Re1 58.01(4) . . ?
Se3 Re2 Re1 116.99(4) . 3_666 ?
Se3 Re2 I1 99.99(5) . . ?
Se1 Re2 Re3 58.10(4) . . ?
Se1 Re2 Re3 122.80(5) . 3_666 ?
Se1 Re2 Re1 117.56(4) . . ?
Se1 Re2 Re1 62.42(4) . 3_666 ?
Se1 Re2 I1 94.36(5) . . ?
Se1 Re2 Se4 93.91(5) . 3_666 ?
Se1 Re2 Se3 85.72(5) . . ?
Se2 Re2 Re3 58.89(4) . 3_666 ?
Se2 Re2 Re3 118.03(4) . . ?
Se2 Re2 Re1 119.29(4) . 3_666 ?
Se2 Re2 Re1 58.45(4) . . ?
Se2 Re2 I1 87.59(5) . . ?
Se2 Re2 Se4 90.95(6) . 3_666 ?
Se2 Re2 Se3 89.30(6) . . ?
Se2 Re2 Se1 174.90(5) . . ?
Re2 Re3 Re2 90.16(3) 3_666 . ?
Re2 Re3 Re1 59.85(3) 3_666 . ?
Re2 Re3 I1 136.60(4) 3_666 2_646 ?
Re2 Re3 I1 133.21(3) . 2_646 ?
Re1 Re3 Re2 59.64(2) . . ?
Re1 Re3 Re2 60.56(2) 3_666 3_666 ?
Re1 Re3 Re2 59.48(2) 3_666 . ?
Re1 Re3 Re1 89.43(3) 3_666 . ?
Re1 Re3 I1 134.25(4) . 2_646 ?
Re1 Re3 I1 136.23(4) 3_666 2_646 ?
Se4 Re3 Re2 59.11(4) . 3_666 ?
Se4 Re3 Re2 118.12(4) . . ?
Se4 Re3 Re1 119.62(5) . 3_666 ?
Se4 Re3 Re1 58.47(4) . . ?
Se4 Re3 I1 92.00(5) . 2_646 ?
Se4 Re3 Se3 88.71(6) . . ?
Se4 Re3 Se1 174.70(6) . . ?
Se4 Re3 Se2 91.19(6) . 3_666 ?
Se3 Re3 Re2 118.06(4) . 3_666 ?
Se3 Re3 Re2 58.33(4) . . ?
Se3 Re3 Re1 58.21(4) . . ?
Se3 Re3 Re1 117.80(4) . 3_666 ?
Se3 Re3 I1 90.14(4) . 2_646 ?
Se3 Re3 Se1 86.06(5) . . ?
Se3 Re3 Se2 175.59(5) . 3_666 ?
Se1 Re3 Re2 58.10(4) . . ?
Se1 Re3 Re2 123.00(4) . 3_666 ?
Se1 Re3 Re1 62.51(4) . 3_666 ?
Se1 Re3 Re1 117.62(4) . . ?
Se1 Re3 I1 88.87(5) . 2_646 ?
Se2 Re3 Re2 58.37(4) 3_666 3_666 ?
Se2 Re3 Re2 118.06(4) 3_666 . ?
Se2 Re3 Re1 118.18(4) 3_666 . ?
Se2 Re3 Re1 58.59(4) 3_666 3_666 ?
Se2 Re3 I1 94.27(5) 3_666 2_646 ?
Se2 Re3 Se1 93.96(6) 3_666 . ?
Re2 Re1 Re2 90.73(3) 3_666 . ?
Re2 Re1 Re3 59.70(2) 3_666 . ?
Re2 Re1 Se1 116.77(4) . 3_666 ?
Re2 Re1 Se1 57.01(4) 3_666 3_666 ?
Re3 Re1 Re2 60.77(2) . . ?
Re3 Re1 Re2 59.76(3) 3_666 . ?
Re3 Re1 Re2 61.27(2) 3_666 3_666 ?
Re3 Re1 Re3 90.57(3) 3_666 . ?
Re3 Re1 Se1 116.65(4) . 3_666 ?
Re3 Re1 Se1 57.08(4) 3_666 3_666 ?
Se4 Re1 Re2 118.87(4) . . ?
Se4 Re1 Re2 58.93(4) . 3_666 ?
Se4 Re1 Re3 58.10(4) . . ?
Se4 Re1 Re3 120.18(4) . 3_666 ?
Se4 Re1 Se1 92.69(5) . 1_455 ?
Se4 Re1 Se1 90.84(5) . 3_666 ?
Se4 Re1 Se2 177.02(5) . . ?
Se3 Re1 Re2 58.80(4) . . ?
Se3 Re1 Re2 118.11(4) . 3_666 ?
Se3 Re1 Re3 118.54(4) . 3_666 ?
Se3 Re1 Re3 58.41(4) . . ?
Se3 Re1 Se4 88.60(5) . . ?
Se3 Re1 Se1 174.24(5) . 3_666 ?
Se3 Re1 Se1 86.80(5) . 1_455 ?
Se3 Re1 Se2 89.60(5) . . ?
Se1 Re1 Re2 129.98(4) 1_455 . ?
Se1 Re1 Re2 139.17(4) 1_455 3_666 ?
Se1 Re1 Re3 136.83(4) 1_455 3_666 ?
Se1 Re1 Re3 132.19(4) 1_455 . ?
Se1 Re1 Se1 98.96(5) 1_455 3_666 ?
Se2 Re1 Re2 120.08(4) . 3_666 ?
Se2 Re1 Re2 58.16(4) . . ?
Se2 Re1 Re3 118.93(4) . . ?
Se2 Re1 Re3 58.82(4) . 3_666 ?
Se2 Re1 Se1 90.70(5) . 3_666 ?
Se2 Re1 Se1 89.59(5) . 1_455 ?
Re3 I1 Re2 121.21(4) 2_656 . ?
Re3 Se4 Re2 62.70(4) . 3_666 ?
Re3 Se4 Re1 63.43(4) . . ?
Re1 Se4 Re2 62.67(4) . 3_666 ?
Re3 Se3 Re2 63.91(4) . . ?
Re1 Se3 Re2 63.19(4) . . ?
Re1 Se3 Re3 63.38(4) . . ?
Re2 Se1 Re3 63.81(4) . . ?
Re2 Se1 Re1 60.57(4) . 3_666 ?
Re2 Se1 Re1 128.39(6) . 1_655 ?
Re3 Se1 Re1 126.23(6) . 1_655 ?
Re3 Se1 Re1 60.41(4) . 3_666 ?
Re1 Se1 Re1 81.04(5) 1_655 3_666 ?
Re2 Se2 Re3 62.74(4) . 3_666 ?
Re2 Se2 Re1 63.40(4) . . ?
Re1 Se2 Re3 62.58(4) . 3_666 ?
loop_
_geom_bond_atom_site_label_1
_geom_bond_atom_site_label_2
_geom_bond_distance
_geom_bond_site_symmetry_2
_geom_bond_publ_flag
Re2 Re3 2.6138(10) 3_666 ?
Re2 Re3 2.6648(9) . ?
Re2 Re1 2.6350(9) . ?
Re2 Re1 2.6178(9) 3_666 ?
Re2 I1 2.8024(13) . ?
Re2 Se4 2.5241(16) 3_666 ?
Re2 Se3 2.5253(16) . ?
Re2 Se1 2.5211(16) . ?
Re2 Se2 2.5035(17) . ?
Re3 Re1 2.6335(10) . ?
Re3 Re1 2.6118(9) 3_666 ?
Re3 I1 2.7784(13) 2_646 ?
Re3 Se4 2.4998(16) . ?
Re3 Se3 2.5094(16) . ?
Re3 Se1 2.5211(16) . ?
Re3 Se2 2.5173(16) 3_666 ?
Re1 Se4 2.5099(16) . ?
Re1 Se3 2.5039(17) . ?
Re1 Se1 2.6050(16) 1_455 ?
Re1 Se1 2.6642(17) 3_666 ?
Re1 Se2 2.5113(16) . ?
