#------------------------------------------------------------------------------
#$Date: 2021-07-13 01:37:00 +0300 (Tue, 13 Jul 2021) $
#$Revision: 267472 $
#$URL: file:///home/coder/svn-repositories/cod/cif/4/00/40/4004000.cif $
#------------------------------------------------------------------------------
#
# This file is available in the Crystallography Open Database (COD),
# http://www.crystallography.net/
#
# All data on this site have been placed in the public domain by the
# contributors.
#
data_4004000
loop_
_publ_author_name
'Laing, Craig C.'
'Shen, Jiahong'
'Chica, Daniel G.'
'Cuthriell, Shelby A.'
'Schaller, Richard D.'
'Wolverton, Chris'
'Kanatzidis, Mercouri G.'
_publ_section_title
;
 Photoluminescent Re6Q8I2 (Q = S, Se) Semiconducting Cluster Compounds
;
_journal_name_full               'Chemistry of Materials'
_journal_paper_doi               10.1021/acs.chemmater.1c01696
_journal_year                    2021
_chemical_formula_moiety         'Re6 S4 Se4 I2'
_chemical_formula_sum            'I2 Re6 S4 Se4'
_chemical_formula_weight         1815.08
_space_group_crystal_system      monoclinic
_space_group_IT_number           14
_space_group_name_Hall           '-P 2yn'
_space_group_name_H-M_alt        'P 1 21/n 1'
_atom_sites_solution_primary     dual
_audit_creation_date             2021-05-05
_audit_creation_method
;
Olex2 1.2
(compiled 2018.05.29 svn.r3508 for OlexSys, GUI svn.r5506)
;
_cell_angle_alpha                90
_cell_angle_beta                 99.20(3)
_cell_angle_gamma                90
_cell_formula_units_Z            2
_cell_length_a                   6.4555(13)
_cell_length_b                   11.848(2)
_cell_length_c                   10.308(2)
_cell_measurement_reflns_used    8997
_cell_measurement_temperature    293
_cell_measurement_theta_max      31.54
_cell_measurement_theta_min      2.71
_cell_volume                     778.3(3)
_computing_molecular_graphics    'Olex2 (Dolomanov et al., 2009)'
_computing_publication_material  'Olex2 (Dolomanov et al., 2009)'
_computing_structure_refinement  'ShelXL (Sheldrick, 2015)'
_computing_structure_solution    'ShelXT (Sheldrick, 2015)'
_diffrn_ambient_temperature      293
_diffrn_detector                 'Pilatus300K CdTe'
_diffrn_detector_area_resol_mean 5.81
_diffrn_measured_fraction_theta_full 0.996
_diffrn_measured_fraction_theta_max 0.995
_diffrn_measurement_device       'Eulerian 4-circle diffractometer'
_diffrn_measurement_device_type  'STOE STADIVARI'
_diffrn_measurement_method       'rotation method, \w scans'
_diffrn_radiation_monochromator  'Graded multilayer mirror'
_diffrn_radiation_polarisn_norm  180
_diffrn_radiation_probe          x-ray
_diffrn_radiation_type           AgK\a
_diffrn_radiation_wavelength     0.56083
_diffrn_reflns_av_R_equivalents  0.0477
_diffrn_reflns_av_unetI/netI     0.0613
_diffrn_reflns_Laue_measured_fraction_full 0.996
_diffrn_reflns_Laue_measured_fraction_max 0.995
_diffrn_reflns_limit_h_max       10
_diffrn_reflns_limit_h_min       -9
_diffrn_reflns_limit_k_max       18
_diffrn_reflns_limit_k_min       -18
_diffrn_reflns_limit_l_max       16
_diffrn_reflns_limit_l_min       -16
_diffrn_reflns_number            8995
_diffrn_reflns_point_group_measured_fraction_full 0.996
_diffrn_reflns_point_group_measured_fraction_max 0.995
_diffrn_reflns_theta_full        19.664
_diffrn_reflns_theta_max         26.495
_diffrn_reflns_theta_min         2.713
_diffrn_source                   'Axo Ag'
_diffrn_source_current           0.680
_diffrn_source_power             0.044
_diffrn_source_voltage           65
_exptl_absorpt_coefficient_mu    32.310
_exptl_absorpt_correction_T_max  0.0285
_exptl_absorpt_correction_T_min  0.0071
_exptl_absorpt_correction_type   numerical
_exptl_absorpt_process_details
;
STOE X-Red32, absorption correction by Gaussian integration, analogous to
P. Coppens, "The Evaluation of Absorption and Extinction in Single-Crystal
Structure Analysis", published in: F. R. Ahmed (Editor), "Crystallographic
Computing", Munksgaard, Copenhagen (1970), 255 - 270. Afterwards scaling of
reflection intensities was performed within STOE LANA. J. Koziskova, F. Hahn,
J. Richter, J. Kozisek, Acta Chimica Slovaca, vol. 9, no. 2, 2016, pp. 136-140.
;
_exptl_crystal_colour            black
_exptl_crystal_colour_primary    black
_exptl_crystal_density_diffrn    7.746
_exptl_crystal_description       needle
_exptl_crystal_F_000             1512
_exptl_crystal_preparation       'Grown in a NaI salt flux'
_exptl_crystal_recrystallization_method 'Grown in a NaI salt flux'
_exptl_crystal_size_max          0.011
_exptl_crystal_size_mid          0.006
_exptl_crystal_size_min          0.006
_refine_diff_density_max         3.393
_refine_diff_density_min         -2.918
_refine_diff_density_rms         0.678
_refine_ls_extinction_method     none
_refine_ls_goodness_of_fit_ref   1.031
_refine_ls_hydrogen_treatment    undef
_refine_ls_matrix_type           full
_refine_ls_number_parameters     77
_refine_ls_number_reflns         3264
_refine_ls_number_restraints     1
_refine_ls_restrained_S_all      1.031
_refine_ls_R_factor_all          0.0789
_refine_ls_R_factor_gt           0.0478
_refine_ls_shift/su_max          0.001
_refine_ls_shift/su_mean         0.000
_refine_ls_structure_factor_coef Fsqd
_refine_ls_weighting_details
'w=1/[\s^2^(Fo^2^)+(0.0499P)^2^+11.6236P] where P=(Fo^2^+2Fc^2^)/3'
_refine_ls_weighting_scheme      calc
_refine_ls_wR_factor_gt          0.1034
_refine_ls_wR_factor_ref         0.1149
_reflns_Friedel_coverage         0.000
_reflns_number_gt                2299
_reflns_number_total             3264
_reflns_threshold_expression     'I > 2\s(I)'
_cod_data_source_file            cm1c01696_si_003.cif
_cod_data_source_block           try1
_cod_original_formula_sum        'Re6 S4 Se4 I2'
_cod_database_code               4004000
_shelx_shelxl_version_number     2018/3
_shelx_space_group_comment
;
The symmetry employed for this shelxl refinement is uniquely defined
by the following loop, which should always be used as a source of
symmetry information in preference to the above space-group names.
They are only intended as comments.
;
_shelx_estimated_absorpt_t_max   0.830
_shelx_estimated_absorpt_t_min   0.718
_olex2_refinement_description
;
1. Shared sites
{Se4, S4}
{Se2, S2}
{Se1, S1}
{Se3, S3}
2. Uiso/Uaniso restraints and constraints
Uanis(S4) = Uanis(Se4)
Uanis(Se4) = Uanis(S4)
Uanis(Se2) = Uanis(S2)
Uanis(S3) = Uanis(Se3)
Uanis(S1) = Uanis(Se1)
Uanis(Se1) = Uanis(S1)
Uanis(Se3) = Uanis(S3)
3. Others
 1*[Sof(S4)+Sof(Se4)]+1*[Sof(Se2)+Sof(S2)]+1*[Sof(S1)+Sof(Se1)]+1*[Sof(S3)+
 Sof(Se3)]=2 with esd of 0
 Sof(S4)=1-FVAR(1)
 Sof(Se4)=FVAR(1)
 Sof(S2)=1-FVAR(2)
 Sof(Se2)=FVAR(2)
 Sof(S1)=1-FVAR(3)
 Sof(Se1)=FVAR(3)
 Sof(S3)=1-FVAR(4)
 Sof(Se3)=FVAR(4)
;
_shelx_res_file
;
TITL try1_a.res in P2(1)/n
    try1.res
    created by SHELXL-2018/3 at 21:20:12 on 05-May-2021
REM Old TITL Try1 in P2(1)/n
REM SHELXT solution in P2(1)/n: R1 0.098, Rweak 0.004, Alpha 0.014
REM <I/s> 0.497 for 86 systematic absences, Orientation as input
REM Formula found by SHELXT: Se2 I Re2
CELL 0.56083 6.4555 11.8476 10.3083 90 99.203 90
ZERR 2 0.0013 0.0024 0.0021 0 0.03 0
LATT 1
SYMM 0.5-X,0.5+Y,0.5-Z
SFAC I Re S Se
UNIT 4 12 8 8
EADP S4 Se4
EADP Se4 S4
EADP Se2 S2
EADP S3 Se3
EADP S1 Se1
EADP Se1 S1
EADP Se3 S3
EXYZ Se4 S4
EXYZ Se2 S2
EXYZ Se1 S1
EXYZ Se3 S3
SUMP 2 0 1 2 1 3 1 4 1 5

L.S. 99
PLAN  5
SIZE 0.006 0.006 0.011
TEMP 19.85
list 4
fmap 2 53
acta
OMIT 0 1 1
OMIT 9 0 5
REM <olex2.extras>
REM <HklSrc "%.\\Try1.hkl">
REM </olex2.extras>

WGHT    0.049900   11.623601
FVAR       0.13795   0.56331   0.49130   0.46354   0.48184
RE2   2    0.587223    0.645599    0.549056    11.00000    0.01891    0.01743 =
         0.01792   -0.00027    0.00155   -0.00030
RE3   2    0.619392    0.444798    0.662891    11.00000    0.01848    0.01813 =
         0.01736    0.00071    0.00123    0.00001
RE1   2    0.251388    0.524496    0.561015    11.00000    0.01790    0.01849 =
         0.01764   -0.00023    0.00200    0.00024
I1    1    0.792895    0.371159    0.911845    11.00000    0.04310    0.02137 =
         0.02147    0.00145   -0.00178    0.00523
PART 4
S4    3    0.295032    0.336908    0.669661   -21.00000    0.02549    0.02210 =
         0.02602    0.00028    0.00293   -0.00088
PART 0
PART 10
S3    3    0.458572    0.606981    0.760063   -51.00000    0.02495    0.02208 =
         0.02148   -0.00147    0.00363    0.00032
PART 0
PART 5
SE2   4    0.233504    0.712877    0.454090    31.00000    0.02111    0.02388 =
         0.02292    0.00184    0.00116    0.00087
PART 0
PART 8
S1    3    0.925242    0.570214    0.661074   -41.00000    0.02150    0.02725 =
         0.03547    0.00546    0.00623    0.00104
PART 0
PART 3
SE4   4    0.295032    0.336908    0.669661    21.00000    0.02549    0.02210 =
         0.02602    0.00028    0.00293   -0.00088
PART 0
PART 6
S2    3    0.233504    0.712877    0.454090   -31.00000    0.02111    0.02388 =
         0.02292    0.00184    0.00116    0.00087
PART 0
PART 9
SE3   4    0.458572    0.606981    0.760063    51.00000    0.02495    0.02208 =
         0.02148   -0.00147    0.00363    0.00032
PART 0
PART 7
SE1   4    0.925242    0.570214    0.661074    41.00000    0.02150    0.02725 =
         0.03547    0.00546    0.00623    0.00104
HKLF 4




REM  try1_a.res in P2(1)/n
REM wR2 = 0.1149, GooF = S = 1.031, Restrained GooF = 1.031 for all data
REM R1 = 0.0478 for 2299 Fo > 4sig(Fo) and 0.0789 for all 3264 data
REM 77 parameters refined using 1 restraints

END

WGHT      0.0499     11.6070

REM Highest difference peak  3.393,  deepest hole -2.918,  1-sigma level  0.678
Q1    1   0.1631  0.5202  0.6186  11.00000  0.05    3.39
Q2    1   0.7115  0.4418  0.6090  11.00000  0.05    3.12
Q3    1   0.6789  0.6422  0.4930  11.00000  0.05    3.12
Q4    1   0.5026  0.6443  0.6201  11.00000  0.05    2.99
Q5    1   0.4025  0.2798  0.6841  11.00000  0.05    2.80
;
_shelx_res_checksum              63414
_shelx_hkl_file
;
  -7  -7  -2   95.69    8.80
  -7  -6  -5    0.10   13.10
  -6 -13   5    8.60    9.30
  -6  -4  -9   13.10   18.20
  -5 -12   6   53.89   14.60
  -4 -12   7   15.70   12.30
  -3 -10   7  227.38   20.00
  -3   0 -10   -6.80   18.50
  -2   1 -10    7.90   21.60
  -1   0 -15  155.78   31.70
   0   1  -2  230.18   10.90
   0   2 -11   14.60   20.90
   2   2  -4  679.83   18.20
   4  -3   3 2611.34   44.70
   4  -2   2  853.11   23.50
   4   2 -13   73.59   21.40
   6   1 -14   14.10   19.90
   7  -5   2   59.49   15.80
   7  -3   0  164.58   14.30
   8   0 -10   72.09   11.40
  -7  -6  -8  111.29   18.40
  -4  -2 -13    6.00   21.90
  -3  -8   6  723.53   26.30
  -3   0 -11  326.97   31.30
  -3   0  -4  -22.30   13.50
  -2  -7   6   -5.50   12.50
  -2   1  -5   38.70   14.20
  -1  -8   7  588.54   27.90
  -1   1 -13   37.70   23.30
   0   2  -5 2756.92   45.20
   1   2 -13  589.24   35.30
   2  -6   6   90.69   18.50
   2   1 -16   52.49   24.70
   5   2 -12   14.30   16.30
   5   2  -7  620.24   20.00
   6  -5   3   72.39   16.60
   7  -4   1   63.19   13.80
   8   0 -11   -1.50   11.50
   8   0  -9   -4.30    8.90
  -8 -10  -2    4.10    6.20
  -8  -9  -4   -3.60    9.50
  -7  -6  -4   12.70    9.30
  -6  -4 -10  -11.40   17.00
  -5 -10   5   74.29   11.30
  -4  -8   5   58.19   13.80
  -4  -1 -11  -14.60   23.40
  -4  -1  -4    8.90   10.70
  -3  -1 -14  -11.80   21.10
  -2   0 -14  114.59   27.60
  -1  -5   5   89.69   16.10
  -1   2  -8   19.50   17.30
   0  -6   6  437.56   23.20
   0   1 -15   10.70   24.10
   0   2 -12  229.68   26.60
   1  -6   6  369.56   24.50
   1   2  -4  726.83   21.50
   2  -8   7   54.19   19.50
   2   2 -14   -7.80   19.40
   6  -2   0  223.18   14.10
   7   1 -11  -18.40   13.30
   7   1 -10    2.50   10.20
   8   0 -12   20.80   14.00
  -6 -11   4   32.40    8.50
  -4 -10   6    9.80    9.90
  -3   0 -12   26.30   24.90
  -1   1 -14   89.09   28.70
  -1   2 -10   11.30   18.80
  -1   2  -9   90.59   22.10
  -1   2  -7  139.79   19.80
   0  -8   7  313.17   23.30
   1  -8   7   24.00   18.10
   1   1 -16   10.00   25.20
   4  -6   5   48.50   16.00
   4   2 -14   77.89   22.90
   5   2 -13   10.40   16.40
   6  -4   2   37.30   15.80
   7  -1  -3   12.50    5.40
   7   1 -12    1.20   15.50
  -7 -11   2  116.89    6.40
  -6 -14   5    7.90   10.20
  -6  -4 -11   11.70   18.70
  -5 -13   6   84.89   16.20
  -5  -7   3   70.89    6.80
  -4 -13   7  118.19   16.70
  -1   2  -6 1442.06   36.90
   0   2 -13  450.15   31.50
   1   2 -14  203.18   27.60
   3  -7   6  695.23   32.40
   3  -4   4   37.40   14.40
   3   2  -4  143.49    9.30
   6  -3   1   14.60   11.80
   8  -6   1  -10.00   15.50
   8  -3  -2   32.80    9.50
  -5  -4   0    2.00    4.00
  -4  -1 -12   95.99   24.50
  -3 -11   7   -5.30   11.80
  -2   0 -15  -21.30   25.80
  -2   1  -4   52.29   13.60
  -1   2 -11   -1.70   18.50
   2  -5   5   84.09   17.00
   2   2 -15   42.30   22.00
   2   3 -11   -2.60   15.60
   2   3  -8  121.39   16.10
   3   3 -11   15.70   19.90
   3   3 -10   93.09   17.20
   3   3  -9   93.89   15.40
   7   1 -13   -8.50   15.30
   9  -1 -10    4.60    8.20
  -8  -9  -3    1.70    7.70
  -6  -3  -7   -4.10   18.50
  -4  -2  -1  881.21   17.80
  -3  -1  -1  959.60   18.80
  -3   0 -13  -15.20   20.40
  -2  -6   5  118.29   14.20
  -2   1 -13   18.20   23.10
  -1  -9   7   57.69   16.10
  -1  -7   6   41.00   14.90
  -1  -4   4    2.20   10.70
  -1   2 -12  209.68   25.60
   0  -5   5  194.88   17.50
   0   1 -16  -13.70   22.30
   1   2 -15   31.10   23.90
   2   3 -12  392.06   29.80
   2   3  -7  465.35   23.60
   3   3  -8   12.90   11.40
   4   2 -15   -2.60   19.70
   5   2 -14   90.59   19.20
   6   2 -11   39.30   15.70
   7   1  -8  105.79    9.50
   8  -5   0  398.36   22.50
   9  -4  -3  -13.10    8.90
  -7  -6  -3    6.60    7.20
  -7  -5  -8  -12.50   15.40
  -6  -8   2   35.20    4.30
  -6  -3  -9    1.80   17.60
  -6  -3  -8   94.79   18.80
  -6  -3  -6   23.30   12.50
  -5 -14   6   15.60   12.60
  -4  -1 -13   -0.60   22.70
  -4   0  -9   -5.50   20.20
  -4   0  -8  563.94   29.80
  -4   0  -7   11.10   19.10
  -3  -9   6   13.10   14.50
  -3   0  -3  122.99   12.90
  -3   1  -8  157.28   22.20
   0   2  -4  326.57   16.10
   1  -5   5   -4.40   14.20
   1   3 -11   67.39   18.70
   1   3  -7   19.30   18.70
   2  -7   6  357.26   26.50
   3  -3   3   72.39   12.90
   4  -5   4   15.90   16.90
   6   2 -12    4.10   16.60
   7  -6   2   12.10   13.50
   9  -6  -1    0.20   11.20
   9  -5  -2   27.90   12.30
  -7  -5  -9  276.77   24.50
  -6  -3 -10  -26.50   18.80
  -4   0 -10  -38.30   18.90
  -3 -12   7   26.80   12.60
  -3   0 -14  -14.50   20.40
  -2  -8   6  235.58   19.80
  -2   1 -14   78.89   28.30
  -1   2 -13  145.19   24.40
  -1   2  -5 3632.84   53.99
   1  -9   7  182.88   20.40
   1   3 -12  966.80   40.40
   2   2 -16  147.69   27.20
   2   3 -13  225.58   24.50
   3  -6   5 1178.38   37.10
   3  -2   2 4611.84   49.80
   3   2 -16   11.60   19.70
   4   3 -11   86.29   16.30
   5   2 -15  120.39   23.50
   5   2  -6 1075.59   20.80
   6   2  -9   16.90   10.60
  -7  -5  -5  217.38   17.30
  -4  -7   4   -5.80   10.70
  -4   0 -11  -49.20   23.10
  -4   0  -6 3063.39   55.29
  -2   2 -10  272.37   27.20
  -2   2  -8   49.30   17.10
  -1  -3   3  215.48   13.80
   0  -7   6  393.36   23.40
   0   2 -15  248.28   29.20
   0   3 -11  201.38   23.80
   0   3 -10   30.70   18.40
   0   3  -8  109.79   19.90
   1  -7   6   99.39   16.00
   1   2 -16   15.50   24.00
   2  -4   4  162.18   17.00
   3  -8   6  554.84   28.20
   4  -7   5   34.60   16.00
   6   1  -5  162.98    6.40
   6   2 -13   15.50   17.00
  -6 -12   4   -0.70    9.70
  -6  -3 -11   25.50   19.50
  -3   1 -12  227.68   30.20
  -2 -11   7  202.08   19.10
  -2   2 -11  442.76   32.20
  -2   2  -7  334.77   23.60
  -1 -10   7   20.80   14.90
  -1  -2   2   76.39    9.40
  -1   2 -14  500.35   37.80
   0  -4   4    0.50   12.40
   0   3 -12   17.90   22.30
   1   3 -13  -15.80   19.30
   2   3 -14   14.20   23.70
   2   3  -6  400.36   18.70
   4   0  -1   -4.40    3.80
   4   3 -13   23.40   20.60
   7  -5   1  438.26   23.40
   9  -1  -9  114.19    7.70
  -5  -9   4   74.19   10.80
  -5  -6   2 2560.64   19.10
  -4   0 -12    4.40   22.50
  -4   0  -5   -1.70   15.20
  -2   1 -15   59.49   27.90
  -2   2 -12   -5.10   21.90
   0   3  -7   69.79   18.00
   1  -4   4  371.26   21.00
   1   3  -6  641.94   24.20
   6   2 -14  132.99   20.80
   6   2  -8    9.70    8.60
  -7  -7  -1  113.69    7.20
  -4 -12   6   93.49   13.30
  -3   1 -13   50.69   22.80
  -3   1  -5   34.20   16.00
  -2  -5   4  976.00   24.50
  -2   1  -3  497.35   21.30
  -2   2  -6  609.84   27.90
  -1  -6   5  149.19   14.40
  -1   1  -2   53.59   12.70
   0 -10   7  229.08   19.60
   0   2 -16    6.20   22.10
   0   3 -13  374.06   31.80
   2  -8   6   13.80   17.40
   2  -3   3  112.69   15.40
   2   3 -15   -3.90   22.70
   5   3 -11   87.99   18.70
   6  -5   2    4.40   13.80
   7  -4   0  370.86   20.20
   7  -2  -2    8.80    8.00
  -8  -7  -6   -8.20   12.60
  -7  -5  -4    8.50    7.90
  -6  -4  -2   34.80    8.40
  -6  -3  -4  694.53   23.70
  -4   0 -13   -6.70   20.90
  -3 -10   6   99.09   15.00
  -2   2 -13   51.69   24.10
  -1  -8   6   40.30   15.00
  -1   2 -15  123.49   30.10
  -1   3 -10  279.97   25.60
  -1   3  -9  116.49   22.50
   1   2  -3 3138.49   34.90
   3   3  -6   24.40   10.20
   5   3 -12  -23.30   17.60
   5   3 -10    5.20   13.20
   7  -7   2  106.99   17.70
   7  -3  -1  146.09   14.20
  -7  -4  -9   73.09   19.40
  -7  -4  -8  104.69   20.80
  -6 -10   3  300.67   12.00
  -6  -2  -9   89.89   20.70
  -6  -2  -8  217.68   23.70
  -5 -12   5   34.80   11.80
  -1   2  -4 3244.38   47.80
  -1   3 -12   23.10   19.50
  -1   3  -8  222.48   22.50
   0  -8   6 1883.01   43.70
   0   3  -6  448.76   23.10
   1  -8   6  536.35   27.70
   1  -6   5   89.89   15.50
   1   3 -15   18.60   22.90
   3  -7   5  705.93   29.70
   4  -8   5   -1.20   14.70
   4  -6   4  231.18   21.10
   4  -3   2 1496.85   32.40
   4   3 -15  253.97   26.30
   5   3 -13   45.60   17.90
   8  -6   0   -4.70   14.50
   8  -2  -4   -3.60    7.20
   9  -7  -1   18.90   13.80
  -8  -7  -5    4.30   10.70
  -7  -6  -2    9.90    6.40
  -6 -13   4   49.60   10.90
  -6  -2  -7   26.40   16.70
  -4 -13   6  125.49   16.30
  -2  -7   5  572.34   23.40
  -2   2 -14  229.38   31.70
  -1   3  -7  668.53   31.00
   0  -6   5  106.89   15.70
   0  -3   3  499.75   20.30
   1  -3   3  323.27   19.50
   2  -2   2 1595.74   30.00
   2   2  -3  561.14   14.50
   3   3 -16   41.90   22.90
   5   3  -9    5.20   12.10
   9  -3  -5   19.50    6.20
  -6  -2 -11   -0.80   18.50
  -6  -2  -6    9.30   13.10
  -4   0  -4   19.60   12.40
  -4   1 -10  185.38   25.60
  -4   1  -9   66.69   20.90
  -4   1  -8  102.59   21.20
  -3   2 -11  311.27   29.60
  -3   2 -10  432.26   30.10
  -3   2  -9   61.99   22.90
  -1   3 -13  124.09   22.90
   0   3 -15   12.90   21.60
   1   3 -16   -4.70   19.00
   1   4 -11  267.07   25.40
   1   4 -10  110.09   20.50
   2  -9   6  124.49   18.90
   2  -1   1  787.72   18.00
   2   4 -12  286.27   25.60
   2   4 -11   63.49   18.00
   2   4 -10  587.44   28.80
   4  -1   0   58.39    8.10
   6  -1  -2   96.19    8.10
   7   1  -7   35.60    6.30
   8  -5  -1  120.09   16.30
   9  -6  -2    2.00   13.20
  -8  -8  -3   -6.40    6.90
  -7 -12   2   75.69    7.70
  -5   0  -9  262.77   28.10
  -4 -10   5  199.58   15.80
  -4   1 -11   -0.90   19.80
  -4   1  -7  850.41   35.90
  -3 -11   6   -5.80   12.00
  -3   1  -4  134.99   15.40
  -3   2 -12  148.69   28.40
  -3   2  -8  372.06   27.10
  -2   2 -15   11.60   22.90
  -1   3 -14  347.67   34.10
   0   2  -3   10.00   12.50
   1   4  -9  593.54   28.80
   2   3  -5   73.19   11.30
   2   4 -13  196.28   26.70
   3   4 -10  157.18   18.90
   5   3 -15  226.08   26.00
   7  -6   1  391.26   23.90
   7   2 -12    3.00   13.70
  -6 -14   4  -14.30   10.50
  -5   0 -10    5.20   22.60
  -5   0  -8    0.00   16.80
  -4   1 -12   97.89   23.40
  -3   2  -7  546.85   29.30
  -2   3 -11  118.39   22.50
  -2   3 -10  211.08   26.20
  -2   3  -9  409.86   28.80
  -1  -9   6  119.79   17.50
   0   4 -11   21.90   21.40
   1  -9   6  222.48   21.10
   1   4 -13  379.96   31.30
   2  -5   4    7.00   14.20
   2   4 -14   36.80   24.10
   3  -4   3   20.80   12.60
   6  -2  -1   69.39   11.30
   7   2 -13   77.59   16.50
   7   2 -11  -12.10   12.60
   8  -4  -2  247.08   16.30
   8  -3  -3   28.40    9.80
   8   1 -12   12.70   11.90
   9  -5  -3   93.19   12.90
   9  -4  -4    1.20    8.70
  -7  -5  -3   91.69    9.90
  -5 -14   5  104.39   15.80
  -5 -10   4   11.50    9.50
  -5   0  -7   -2.60   15.70
  -4   1 -13   24.60   20.30
  -3   2 -13   25.80   22.00
  -2  -4   3 3374.76   37.70
  -2   3 -12   89.29   23.30
  -2   3  -8   57.19   20.90
  -1  -5   4   95.79   13.90
  -1   3 -15   51.89   29.50
   0  -9   6  859.71   32.50
   0   3  -5  398.96   21.30
   0   4 -12    0.90   19.60
   0   4 -10   32.20   18.70
   0   4  -9   63.59   20.30
   1  -2   2  355.16   18.40
   1   4 -14   16.20   23.40
   1   4  -8 1646.14   41.80
   2   4  -8  351.16   21.70
   3  -8   5  269.17   22.80
   4  -5   3  188.98   18.20
   4   4 -12   57.59   19.10
   6  -6   2  455.15   24.90
   8   1 -11  -10.80   11.10
  -8  -6  -6   20.40   12.80
  -7  -3  -9   21.60   21.20
  -4  -8   4  138.59   13.60
  -3 -12   6   17.20   12.30
  -3   2 -14   91.29   27.80
  -2   3 -13  207.08   27.20
  -1  -7   5   11.20   13.70
   0   4 -13   24.60   23.50
   3  -6   4    5.90   16.50
   4  -7   4   58.99   17.30
   4   4 -13  -12.70   17.80
   4   4 -11  503.25   26.70
   6   3 -13  105.09   18.90
   6   3 -12   13.90   15.00
   8  -7   0   10.10   16.00
  -7  -3  -8   51.99   19.80
  -6  -1 -10    0.10   19.30
  -6  -1  -9  467.15   29.90
  -5   0  -6   -2.00   16.60
  -3   2  -6 1074.99   36.00
  -2   3  -7 1297.47   39.80
   0   4  -8    7.70   16.50
   1   4 -15   -1.20   20.00
   3   4 -15   14.90   20.80
   3   4  -8   97.59   15.90
   4   4 -14   92.69   23.30
   4   4 -10  418.66   22.40
   6   3 -14   38.20   17.50
   6   3 -11    6.10   13.40
   7  -5   0   11.30   13.50
   7   2 -10    8.50    9.70
  -7  -3  -7  -11.20   12.50
  -6 -11   3  118.19   10.90
  -6  -1 -11   -1.40   19.40
  -5  -8   3  117.89   10.10
  -4 -11   5   84.09   14.20
  -3  -9   5   -0.60   12.30
  -3  -5   3   45.90    8.60
  -2 -11   6  522.55   27.00
  -2   2  -4  442.16   23.00
  -2   3 -14    0.10   23.10
  -1 -10   6  245.28   21.00
  -1   4 -12   -5.00   17.40
  -1   4 -11   42.30   20.20
  -1   4 -10  631.44   34.70
   0  -7   5   -8.20   12.50
   0  -5   4   89.39   13.70
   1 -10   6  390.46   27.30
   1   4  -7  100.19   16.70
   2   4  -7   45.00   16.60
   3   3  -5   56.99    9.90
   4   4 -15   15.70   18.20
  -7  -4  -4   21.90    9.50
  -4   2 -10   21.60   24.10
  -2   3 -15  263.37   35.50
  -1   4 -13   13.20   23.90
   0   4 -15   16.70   21.40
   1  -1   1  376.06   13.10
   2  -8   5  319.17   25.60
   3  -9   5   35.90   17.80
   3  -3   2   28.60   11.70
   6   3 -10   -1.40   10.00
   7  -7   1  117.89   16.10
   8   1 -10   34.00    9.30
   9  -7  -2   12.80   14.80
  -5 -11   4  116.39   15.40
  -4   1  -5  495.45   24.40
  -4   2 -12  123.39   26.60
  -4   2 -11  183.08   25.60
  -4   2  -9   19.00   20.00
  -3   3 -11  300.47   28.40
  -3   3 -10   53.59   21.80
  -2 -12   6   81.99   17.00
  -1   2  -3  524.85   19.50
  -1   3  -5  784.12   28.70
   0   4  -7  113.59   18.90
   2  -4   3   35.40   12.90
   4  -8   4  145.09   18.00
   5   4 -13    4.80   17.40
   5   4 -12  128.99   19.30
   6  -7   2  380.16   24.40
   8  -6  -1   85.19   16.60
  -8  -5  -7   60.69   13.10
  -6  -1  -6   25.00   16.80
  -5   0  -5   69.19   13.80
  -5   1 -11   13.90   21.00
  -5   1 -10   30.70   22.20
  -5   1  -9   46.50   22.30
  -4   2  -8   31.40   21.00
  -3   1  -3  207.18   17.10
  -3   2  -5   94.79   18.00
  -3   3 -13   28.90   24.60
  -3   3 -12    3.00   19.90
  -3   3  -9   58.99   20.60
  -2   1  -2 1307.77   27.70
  -1 -11   6  262.87   21.40
  -1   4  -8   -1.00   18.10
   2  -6   4  352.76   21.80
   4  -4   2  815.62   26.80
   5   4 -14   54.29   20.30
   5   4 -11   39.10   17.80
   7  -4  -1  499.15   21.60
  -5   1 -12  130.89   24.80
  -5   1  -8  237.78   25.40
  -3 -10   5    2.40   12.80
  -2   4 -11   72.29   20.60
  -1  -8   5   13.90   14.50
  -1   4 -15    3.90   24.00
   1  -8   5  394.76   24.80
   1   5 -13   42.40   20.40
   1   5 -12   85.69   23.70
   1   5 -11  150.78   24.30
   2   5 -13   16.10   20.20
   2   5 -12  345.97   27.50
   2   5 -11   15.20   17.70
   3  -7   4 3396.46   59.39
   3   4  -7  703.33   24.50
   4  -6   3  473.85   26.10
   5   3  -7   59.09    9.60
   7   2  -9  106.49   10.70
   9  -2  -7   -5.90    5.00
  -8  -5  -6   53.19   13.60
  -7  -2  -9   -1.40   19.00
  -6 -12   3  101.29   12.50
  -4 -13   5  119.89   16.00
  -3   3 -14  -11.10   21.60
  -2   4 -13   -7.40   20.00
  -2   4 -12   41.60   19.90
  -2   4 -10  700.43   35.10
  -1  -4   3 5161.98   52.49
  -1   4  -7  148.49   21.20
   0   3  -4 3676.73   49.20
   0   5 -12   23.60   22.80
   1   4  -6   -4.40   12.20
   1   5 -14   48.50   22.50
   1   5 -10  153.88   21.90
   2  -9   5   37.60   18.50
   2   5 -14   51.29   22.40
   2   5 -10  332.27   26.00
   5   4 -10  177.88   17.50
   6   3  -9   -5.50    9.50
   9  -6  -3   33.40   13.70
  -8  -7  -3    6.20    7.80
  -7  -3  -5    6.80   11.40
  -7  -2  -8  120.29   18.50
  -6   0 -11   -4.50   20.20
  -6   0 -10  213.18   26.70
  -6   0  -9   15.10   20.20
  -5 -12   4  279.67   19.00
  -5   1  -7   69.59   17.90
  -4 -14   5  173.38   19.90
  -4  -9   4    8.40   11.90
  -3   3  -7    7.80   17.70
  -2  -9   5   17.30   13.70
  -2  -3   2 2362.96   25.60
  -2   4 -14   69.89   29.60
  -2   4  -9 1050.89   39.90
   0   4  -6  141.29   17.50
   0   5 -13    4.20   22.70
   0   5 -10   -1.20   19.10
   1  -4   3 1040.80   29.40
   1   5 -15   -7.60   22.20
   1   5  -9 1791.62   47.30
   2   4  -6   65.69   15.80
   3  -2   1 1246.58   26.90
   3   5 -14   35.30   20.90
   6  -4   0    3.10   14.80
  -7  -2  -7  -12.40   14.70
  -6  -9   2  121.69    9.00
  -6  -4  -1    3.20    7.20
  -4   1  -4   10.50   16.60
  -2   4  -8  191.38   24.70
  -1  -6   4   95.29   13.40
   0   5 -14   16.70   23.70
   1  -6   4  -14.40   13.70
   2   3  -4 1317.37   25.60
   2   5  -9  316.07   22.50
   3   5 -15   36.20   21.70
   6  -8   2  738.73   30.70
   7  -6   0 1024.20   31.50
   7  -3  -2  134.09   12.80
  -6 -13   3    1.40   10.50
  -6  -3  -2  193.28   13.30
  -5 -13   4   -4.40   14.80
  -4   2  -6  578.84   28.50
  -3 -11   5   31.30   13.30
  -1   5 -12   58.29   21.80
  -1   5 -11  323.97   28.30
   0  -6   4   64.19   13.20
   0   5 -15    8.10   22.70
   0   5  -9   52.49   20.30
   1  -9   5  117.99   20.20
   2 -10   5   39.10   17.80
   3  -8   4   18.80   14.60
   4   5 -14   30.30   18.00
   4   5 -13   20.80   18.00
   4   5 -12  571.04   31.50
   6  -6   1  199.88   20.00
   7   3 -13   62.99   18.80
   8  -7  -1    9.60   14.20
   9  -5  -4   21.90   11.20
  -7  -5  -2   41.80    7.40
  -7  -4  -3   45.90    9.70
  -6   0  -7   -6.30   19.10
  -5   0  -4   -3.90    9.60
  -5   1  -6   15.40   15.50
  -4   3 -12  225.58   28.80
  -4   3 -11  161.38   27.40
  -4   3 -10  229.78   29.40
  -1   5 -14  -13.60   24.00
  -1   5 -13   12.90   21.60
  -1   5 -10  -16.60   22.50
   0  -9   5   67.19   17.50
   1   5  -8  130.79   19.20
   2  -7   4   15.80   15.60
   2  -3   2  176.18   16.20
   4  -7   3 1612.54   43.50
   4   5 -15   -2.40   17.50
   4   5 -11   90.79   20.60
   5   4  -9    7.60   11.90
   6   4 -14   98.59   20.50
   7  -2  -3   49.90    9.60
   7  -1  -4   60.29    6.90
  -8  -5  -5   26.40   10.90
  -8  -4  -7   17.50   13.10
  -6  -7   1   48.90    3.60
  -5 -15   4  110.59   17.10
  -5 -14   4   28.30   14.80
  -5  -9   3   22.40    9.70
  -5   2 -11  343.57   30.80
  -4   3 -13   31.30   19.60
  -4   3  -9  110.49   23.90
  -3   2  -4   -0.40   14.40
  -3   3  -6   78.69   18.80
  -3   4 -13    6.10   20.80
  -3   4 -12   -2.10   20.40
  -3   4 -11   92.99   22.40
  -3   4 -10    4.50   21.20
  -2  -7   4  970.40   28.30
  -2   2  -3 2898.81   46.30
  -2   4  -7  836.12   35.90
  -1   4  -6  312.47   24.50
   0   5  -8  278.97   23.70
   6   4 -13    4.00   16.30
   7   3 -12   94.59   16.50
   8  -4  -3  116.19   13.00
   9  -4  -5    9.10    9.10
  -7  -1 -10  -13.30   19.00
  -7  -1  -9    6.50   17.50
  -5   2  -9    8.50   19.90
  -4 -10   4   66.79   13.80
  -4  -7   3   18.70    7.90
  -3   4 -14   44.80   27.50
  -3   4  -9  215.98   24.40
  -1   5 -15   53.49   24.50
  -1   5  -9  640.84   34.70
   1 -10   5   61.29   19.60
   2  -5   3   47.80   13.20
   4  -5   2  416.56   23.00
   6   4 -12   22.00   15.10
   8  -1  -6   46.60    6.00
   8   1  -9  306.57   11.10
   9  -7  -3   19.70   13.60
   9  -3  -6    0.50    7.20
  -7  -3  -4  487.25   20.10
  -6   0  -6   75.09   18.50
  -6   1 -11   -9.70   17.90
  -5   2  -8    4.50   16.60
  -4  -1  -1   40.50    9.00
  -4   3  -8   58.49   20.60
  -3 -13   5  171.88   18.60
  -2   5 -13   21.00   23.60
  -2   5 -12   40.00   21.70
  -2   5 -11   20.70   19.10
   1   6 -13   43.20   23.40
   3  -9   4  327.67   26.20
   3  -6   3  584.24   26.30
   3  -4   2  112.29   14.60
   3   4  -6   90.89   12.10
   6  -3  -1    8.60   11.70
   7  -7   0  294.07   20.90
   7  -5  -1  555.44   24.10
   7   3 -11    1.70   14.70
   8   2 -12   19.60   12.10
  -8  -4  -6  128.09   15.20
  -7  -6  -1  359.36   10.00
  -7  -1  -8  129.39   19.80
  -6   1  -9  467.95   31.00
  -4   2  -5  821.32   31.90
  -3   4  -8   95.39   23.30
  -2  -5   3  115.39   11.40
  -2   5 -14  243.68   33.30
  -2   5 -10  783.12   39.40
  -1   5  -8   37.40   18.30
   0   4  -5  627.74   26.40
   1  -7   4  117.69   17.60
   1   4  -5 1048.60   29.30
   1   6 -14   29.80   21.30
   1   6 -11   22.30   21.30
   2  -8   4  178.78   19.00
   2   6 -13   67.19   21.30
   2   6 -12   94.09   23.80
   3  -1   0  106.39    9.30
   5   5 -14   -0.70   17.60
   6   3  -8    6.00    9.20
   6   4 -11    9.10   13.90
   8  -6  -2   -1.00   13.90
   8  -3  -4  341.07   15.70
  -4 -11   4  794.72   27.50
  -3  -4   2   65.79    6.60
  -2 -12   5  435.76   26.20
  -1 -11   5  246.28   24.00
  -1  -7   4  184.68   15.80
   0  -7   4 1086.19   32.50
   0   5  -7  718.73   31.70
   0   6 -14    7.00   20.10
   0   6 -13   55.19   24.00
   0   6 -12  185.38   27.70
   0   6 -11   17.40   22.70
   1   1  -1  165.58    7.10
   1   5  -7 1963.10   44.70
   1   6 -15    6.50   21.90
   2   6 -11   35.60   18.40
   3   5  -8   18.90   12.60
   3   6 -14   11.40   21.00
   5   5 -12  139.79   20.70
  -7 -11   1  141.19    8.60
  -7  -2  -5  352.66   21.50
  -7  -1  -7   -1.70   16.50
  -6   1  -8   70.29   22.20
  -5   2  -7   19.90   16.60
  -4  -2   0    3.00    6.10
  -3   3  -5  124.69   21.90
  -2   3  -4   76.89   16.60
  -2   5  -9  422.06   31.20
   0 -11   5  107.59   18.60
   0   2  -2   73.29   13.90
   0   6 -15    9.40   24.20
   1  -3   2  377.76   19.80
   1   6 -10  456.25   30.80
   2   5  -7   67.09   18.10
   3   6 -15  145.29   25.60
   4  -2   0    9.70    9.50
   4   5  -9  100.49   17.40
   7   2  -8   31.50    7.40
  -8  -5  -4  244.78   17.20
  -6 -10   2  271.47   13.40
  -5 -10   3   -0.20   10.20
  -5  -7   2  374.36   12.20
  -5   3 -12  471.15   34.10
  -4   1  -3   49.90   16.90
  -4   4 -13  -14.90   21.50
  -4   4 -12  232.18   28.40
  -4   4 -11  205.18   28.80
  -3   4  -7   78.29   22.60
  -1 -12   5   28.50   16.70
  -1   4  -5 1984.00   44.30
  -1   6 -14  -11.20   24.10
  -1   6 -13   35.80   23.80
  -1   6 -12  153.68   26.30
   1  -5   3  262.57   18.50
   2   4  -5   52.19   11.50
   2   6 -10   97.19   19.60
   5   5 -11  545.85   27.10
   6   2  -6   61.29    7.20
   7  -8   0   81.49   16.20
   9  -6  -4    2.00   11.80
  -8  -6  -3    8.10    7.70
  -7   0 -10    3.30   19.30
  -6  -5   0   86.99    4.80
  -6   0  -5  -21.00   12.70
  -6   1  -7  453.85   30.30
  -4 -12   4   12.00   12.90
  -4   4 -10   77.39   22.40
  -3   5 -14  107.39   30.30
  -3   5 -13   55.29   25.40
  -3   5 -12   43.60   22.70
  -3   5 -11   -1.30   24.00
  -2   5  -8   69.59   23.10
  -1   5  -7   56.69   19.00
  -1   6 -11  482.55   33.60
   1  -8   4  659.93   29.70
   1   2  -2   73.09   10.00
   1   6  -9  -12.40   20.60
   3   3  -4   -4.80    8.00
   4  -9   3  215.58   21.10
   4  -6   2  235.48   20.30
   4   6 -15  -22.20   23.20
   5  -8   2  262.67   22.20
   6  -8   1   60.89   16.50
   6   4 -10   -4.50   10.00
   8   2 -11    9.20    9.90
  -8  -4  -5  289.87   17.60
  -7   0  -9  135.79   19.80
  -5   2  -6  -27.40   17.10
  -5   3  -9   34.10   22.40
  -4 -14   4   46.00   15.50
  -4   3  -6   24.10   18.30
  -4   4  -9  101.99   23.10
  -3   5 -10  -20.20   20.60
  -1  -5   3  845.82   24.40
  -1  -3   2  300.97   13.20
  -1   2  -2  348.97   19.50
  -1   6 -10 1287.77   46.80
   0  -5   3  207.48   16.90
   0   6  -9  628.54   34.80
   2  -6   3  132.59   17.60
   2  -2   1 1295.57   26.80
   4   6 -13   -2.70   18.10
   7  -4  -2   29.90   11.40
   7   3 -10  172.08   13.70
  -7   0  -8   -3.30   17.60
  -6   2 -10   -0.70   20.70
  -5 -11   3  101.39   14.20
  -4  -8   3    1.10   12.10
  -3 -10   4   91.29   15.30
  -3   2  -3  339.47   22.30
  -2   6 -13   -8.90   26.40
  -2   6 -12   26.40   22.30
  -1  -8   4   99.69   16.60
   0  -3   2  287.67   17.20
   0   3  -3  496.95   21.50
   2 -10   4   18.60   19.90
   2   6  -9  276.37   21.90
   4  -4   1  429.36   19.90
   4   6 -12   31.10   18.40
   5  -9   2   52.39   18.50
   5   5 -10   26.00   14.00
   8  -7  -2   19.40   15.30
   8  -5  -3   42.10   12.10
  -8  -3  -6  101.19   15.60
  -7 -12   1   -7.10    8.20
  -5   1  -4  243.58   20.10
  -5   3  -8    9.40   18.50
  -4   4  -8   36.00   20.90
  -3   5  -9   79.09   21.30
  -2   6 -14   41.80   24.50
  -2   6 -11  417.96   32.60
  -1   6  -9   61.59   23.40
   0   5  -6   38.20   17.60
   1   3  -3  224.68   16.40
   1   5  -6   43.70   15.40
   3  -5   2   33.60   12.80
   3   5  -7  232.08   18.20
  -6 -11   2   94.29   12.10
  -6   1  -6   13.80   16.90
  -3   4  -6  149.19   21.90
  -2   4  -5 1019.40   35.30
  -2   5  -7  617.54   33.70
  -2   6 -10  -18.90   18.20
   0   6  -8  515.25   29.50
   0   7 -14  204.18   29.90
   1   6  -8 2470.55   51.49
   1   7 -15   -2.70   21.60
   1   7 -14  147.09   24.80
   1   7 -13   -4.20   20.80
   1   7 -12   74.29   25.20
   2  -4   2   73.39   14.10
   3  -8   3  465.35   27.20
   3  -3   1  319.37   16.90
   4   5  -8  221.48   18.00
   4   6 -11  554.24   29.40
   6  -6   0  209.38   19.40
   6   5 -13    2.10   15.20
   7   4 -13   97.89   18.50
   9  -5  -5   16.80   10.90
  -7  -2  -4  209.48   15.50
  -7   0  -7  392.16   24.80
  -5 -15   3   84.69   18.00
  -5 -12   3   57.99   13.70
  -5   4 -12   13.50   22.20
  -4   5 -13   -9.80   23.20
  -4   5 -12   19.10   22.00
  -3 -11   4   83.39   16.00
  -3   5  -8   19.60   19.80
  -1   5  -6  213.28   21.40
   0  -9   4 2869.21   56.89
   0   7 -15   73.69   23.60
   0   7 -12  165.78   26.30
   2   7 -12  263.27   27.60
   4  -7   2  485.15   27.40
   5   6 -14   37.90   19.50
   6  -4  -1   56.69   14.90
   9  -7  -4   44.40   13.70
  -7   1 -10    9.40   18.80
  -6  -2  -2   33.80   11.10
  -6  -1  -3   13.10   10.30
  -5 -14   3   -4.50   13.10
  -5 -13   3   -1.80   14.40
  -5   3  -7   50.59   17.60
  -5   4 -11  423.66   32.40
  -4   5 -11   -2.70   21.80
  -3 -12   4  298.77   23.10
  -3   3  -4  136.09   18.90
  -2  -6   3 1952.80   35.20
  -2   6  -9 1086.59   41.80
  -1  -9   4  122.09   18.20
  -1   6  -8   -4.40   18.80
  -1   7 -14   41.00   23.60
  -1   7 -13  132.09   27.00
   0   4  -4    5.30   13.90
   0   7 -11  364.96   29.50
   1 -10   4    5.10   16.40
   1   7 -11   65.79   18.40
   2  -7   3    5.60   14.70
   2   5  -6   -6.10   12.60
   2   6  -8   53.69   14.30
   3  -9   3  225.08   22.30
   3   0  -1  135.29    6.60
   3   7 -15   67.39   20.40
   3   7 -14  215.78   25.80
   5   6 -13   89.69   23.00
   6  -1  -3  133.79    9.30
   8  -8  -2  -11.90   14.40
  -7  -4  -2    0.50    6.90
  -6 -12   2    5.40   10.40
  -5   2  -5  155.88   16.70
  -4   3  -5   14.80   15.70
  -4   5 -10   22.50   21.70
  -3 -13   4   -5.10   13.10
  -3   6 -13  217.18   27.40
  -3   6 -11    8.70   23.10
  -1   7 -12  309.77   29.70
   1 -11   4   15.10   20.10
   2   7 -11   20.80   20.80
   3   7 -12   -5.90   19.90
   4  -1  -1   24.60    8.20
   4   6 -10   82.19   18.00
   6   4  -9   97.19   12.20
   7  -3  -3   59.49   10.50
   7   4 -12   27.10   14.90
  -8  -7  -2   -4.10    4.90
  -6 -13   2   31.90   12.60
  -5   4  -9   96.49   24.30
  -2   2  -2 1672.33   32.90
  -1 -10   4   54.79   17.70
  -1   7 -11   68.29   23.00
   0 -10   4  196.78   23.80
   0   7 -10   34.60   20.50
   1   4  -4    4.00   11.60
   1   7 -10   20.50   20.50
   3 -10   3  -12.00   18.00
   4  -8   2   39.60   18.90
   5   5  -9   15.90   12.20
   5   6 -12  273.17   21.90
   6  -7   0  135.09   17.90
   8  -6  -3   26.90   13.60
   8  -4  -4  219.38   15.10
   9  -4  -6   -1.30    9.10
  -8  -4  -4  105.59   13.50
  -8  -3  -5   95.69   13.20
  -8  -1  -8   -1.40   14.40
  -7   0  -6    0.10   13.00
  -7   1  -8  123.29   20.40
  -6   1  -5   38.30   15.50
  -4   5  -9  380.46   30.20
  -3   5  -7   87.59   22.00
  -3   6 -10    3.20   20.20
  -2   3  -3  139.19   19.70
  -2   5  -6 1356.26   40.60
  -2   6  -8   19.30   20.60
  -2   7 -14   51.39   27.80
  -2   7 -13   85.49   26.90
  -1  -6   3   20.20   12.40
   0 -11   4   -3.00   17.70
   0   6  -7  624.74   29.50
   1   6  -7  570.34   27.00
   2   7 -10   35.10   16.40
   3  -6   2   16.30   14.90
   4  -5   1  458.45   26.00
   5   4  -7  278.17   15.10
   7  -5  -2  137.39   15.10
  -8  -2  -6    4.00   11.90
  -5   3  -6    6.90   17.50
  -3   4  -5   77.19   19.10
  -2   7 -12   27.70   22.50
  -1 -11   4   94.49   20.10
  -1   6  -7   -4.70   16.50
  -1   7 -10  609.54   33.10
   2  -8   3   22.00   15.80
   4   7 -13   53.89   19.10
   6   5 -11  -13.50   14.70
   7  -8  -1   22.90   12.70
  -8  -5  -3   24.00    8.60
  -5  -8   2    7.80    8.50
  -5   4  -8  409.56   29.20
  -4 -10   3  129.69   16.30
  -4   4  -6   28.20   18.50
  -4   5  -8  831.92   36.10
  -3   6  -9  -13.50   20.40
  -2   7 -11   63.99   22.20
  -1 -12   4  138.89   22.30
   0   5  -5  202.08   18.60
   0   7  -9   67.79   18.70
   1  -7   3   30.20   15.60
   1  -4   2 1135.89   29.50
   1   7  -9  315.57   24.60
   1   8 -14   -8.30   21.40
   4  -9   2  349.87   26.20
   5   6 -11  132.69   17.50
   6  -8   0   18.90   14.90
   6   3  -7   -0.50    7.20
   7   3  -9   65.09   10.00
  -7   1  -7    6.30   17.20
  -6  -3  -1    0.20    7.20
  -5   5 -11   19.40   21.50
  -4   6 -12   96.19   23.50
  -2   4  -4  142.89   18.10
  -2   7 -10   62.89   23.40
  -1   5  -5   -4.30   14.20
  -1   7  -9  122.59   23.20
   0   8 -14   27.10   21.10
   0   8 -13  483.75   33.90
   1   5  -5   96.19   14.30
   1   8 -13   10.50   21.80
   2   3  -3 1538.75   24.70
   2   6  -7  107.09   15.30
   4  -3   0  123.59   12.70
   4   6  -9  166.08   17.10
   4   7 -12  130.29   20.50
   6  -5  -1   17.80   14.50
   7   4 -11   90.69   14.50
  -7   2  -9   17.90   16.90
  -4 -11   3  417.46   22.90
  -4   2  -3   46.00   14.30
  -4   6 -11  179.88   25.80
  -3   7 -13    5.20   19.80
  -2  -7   3  618.14   22.80
  -2  -4   2 1230.18   21.90
  -2   6  -7   36.10   20.50
  -1   8 -14  193.48   27.40
   0   8 -12   89.09   24.00
   1  -2   1   24.90    8.20
   1   8 -12   -9.90   19.90
   2   7  -9   98.19   17.40
   3   5  -6  157.58   13.50
   4 -10   2   77.49   17.50
   5  -9   1   90.99   20.00
   6  -3  -2   65.29   12.10
   8  -7  -3   -1.00   14.70
   9  -3  -7   19.10    8.40
  -7  -1  -4  549.15   22.30
  -5   2  -4 1136.29   33.40
  -5   4  -7   28.20   18.90
  -5   5 -10   28.90   17.90
  -4 -14   3   53.19   15.90
  -4 -13   3   40.00   14.40
  -4 -12   3  710.43   28.00
  -4   3  -4   46.40   18.60
  -4   6 -10   31.00   22.00
  -3   6  -8  132.09   24.40
  -3   7 -12  166.58   24.30
  -1   8 -13   58.49   21.20
  -1   8 -12   91.79   26.20
   0   7  -8   37.60   22.30
   0   8 -11   26.40   21.80
   1  -8   3   69.79   17.40
   1   8 -11   28.70   22.10
   2 -10   3   64.49   22.70
   3  -4   1   16.30   11.60
   3   8 -14    8.70   18.00
   6  -9   0   17.40   14.60
   7  -6  -2  181.68   16.50
   8  -3  -5  142.49   12.40
  -7  -2  -3  582.34   20.80
  -6  -8   1   31.80    6.50
  -4   5  -7  230.38   24.90
  -3   7 -11   72.79   22.30
  -2   5  -5   65.89   18.30
  -2   7  -9   16.50   20.20
   1   7  -8  159.98   19.20
   2 -11   3   49.70   22.70
   4  -6   1    4.50   14.70
   4   7 -11   11.70   17.20
   5   7 -14   30.00   17.50
   6   0  -4  164.38    7.10
   6   6 -13   -2.20   15.90
   7  -2  -4    9.30    7.00
   8  -5  -4  560.04   22.50
   9  -7  -5   56.39   13.50
  -8  -2  -5    7.60   12.50
  -8   0  -8   28.60   14.70
  -7   2  -8  125.49   19.20
  -5  -9   2   -1.50   10.10
  -5   5  -9  204.28   23.80
  -4   6  -9    6.00   19.50
  -3   3  -3   56.59   14.00
  -3   7 -10    5.90   17.30
  -2   8 -13   -0.70   20.30
  -1   6  -6  358.86   24.90
  -1   8 -11  196.88   26.20
   0  -4   2    5.80    9.90
   1   6  -6   21.50   14.50
   2   2  -2   79.39    7.80
   2   8 -11  271.27   25.70
   5   5  -8    1.70   11.20
   5   6 -10  216.18   17.50
   8  -8  -3   40.20   17.10
  -8  -1  -6    9.30   14.10
  -7   1  -6    7.70   16.90
  -6   0  -3    0.90   11.40
  -4   0  -1   14.10    9.50
  -4   4  -5    6.10   15.30
  -3  -5   2   -3.60    6.90
  -3   2  -2 5065.29   57.39
  -2  -8   3  523.65   25.00
  -2   8 -12   22.30   22.30
  -1  -4   2 1156.98   24.70
   0   8 -10   16.30   19.80
   1  -9   3  274.17   25.20
   2  -6   2   45.40   14.20
   2   5  -5  187.48   14.00
   3  -8   2 1289.37   40.10
   3  -2   0 1082.59   23.30
   3   8 -12   80.39   21.10
   6  -6  -1  186.38   19.10
   7  -4  -3  188.78   14.50
   9  -5  -6   16.10   10.90
   9  -2  -8  120.59    9.20
  -5 -15   2   -5.90   13.30
  -5   5  -8   46.90   21.40
  -4   7 -12   61.49   22.50
  -3 -10   3  470.05   24.20
  -3   4  -4   59.49   16.40
  -3   6  -7   21.60   19.20
  -2   7  -8   -3.50   17.40
  -2   8 -11   -6.60   16.80
  -1   8 -10   21.30   20.10
   0  -8   3 1783.22   43.30
   2   7  -8   62.99   14.70
   4   8 -14  -16.30   18.70
   6   4  -8   61.89   10.00
   6   6 -12   28.20   16.90
   9  -1  -9   97.79    6.80
  -7   2  -7    9.40   15.50
  -5 -14   2   14.70   15.20
  -5 -10   2    1.90   10.80
  -5   4  -6  407.76   26.80
  -5   6 -11   33.30   19.40
  -4   6  -8  275.47   24.90
  -4   7 -11   80.99   24.90
  -3 -14   3    5.70   14.20
  -3 -13   3  144.59   19.60
  -3 -11   3   -4.30   15.20
  -3   7  -9  113.09   20.90
  -2   6  -6   79.59   17.80
   0   9 -14   88.19   22.30
   1 -11   3  595.84   35.00
   1  -5   2  213.88   18.10
   1   9 -14   27.10   19.90
   3  -9   2  128.89   19.50
   3   8 -11   62.59   20.60
   4   6  -8    4.00   11.80
   4   7 -10  145.99   17.40
   4   8 -13   16.20   17.60
   5   7 -12  137.19   18.50
  -7  -9   0   -0.40    5.20
  -7  -3  -2  100.59    9.60
  -7   3  -9   20.10   16.80
  -6  -1  -2   58.39   10.20
  -5 -13   2    5.30   13.90
  -5   6 -10  -22.60   18.70
  -4   5  -6  121.99   20.30
  -3 -12   3   -7.80   14.20
  -3   5  -5  373.06   24.50
  -3   8 -13  233.38   28.40
  -3   8 -12  101.29   25.40
  -2  -9   3  251.27   22.00
  -2   8 -10  119.09   20.80
  -1   7  -7  180.58   21.50
   0  -9   3 1108.39   37.70
   0   7  -7  381.86   23.80
   0   8  -9    0.00   18.60
   0   9 -13   30.20   19.20
   1   9 -13   -3.60   18.20
   2   6  -6  227.28   18.70
   2   9 -14   22.70   19.90
   3 -10   2  477.55   30.70
   4  -4   0  476.35   21.90
   7   4 -10  253.07   14.70
   8  -6  -4   33.00   14.80
  -5 -11   2   88.09   12.40
  -4   7 -10   77.59   20.10
  -1   8  -9   82.89   21.30
  -1   9 -13   61.69   22.10
   0 -10   3   48.60   19.60
   0   4  -3   33.40   14.10
   0   9 -12  199.38   25.30
   1   7  -7  250.67   20.20
   1   8  -9   30.80   17.40
   1   9 -12   -5.80   19.70
   2  -7   2    9.40   14.60
   3  -5   1   72.59   13.90
   4  -8   1  401.06   26.00
   6  -7  -1   93.69   15.90
   7  -8  -2    6.00   12.50
   7   5 -12   68.59   15.60
   8   3 -11    0.10    8.60
  -8   1  -8   -6.40   14.10
  -7   3  -8   54.19   16.80
  -6  -9   1  131.49   10.70
  -4  -7   2  239.38   12.50
  -3   8 -11   34.90   21.50
  -2 -13   3  211.48   22.10
  -2 -10   3    5.10   14.90
  -1   5  -4  105.69   16.90
  -1   9 -12   31.50   21.10
   0 -12   3  -14.40   17.50
   0 -11   3   24.20   18.80
   0  -2   1  127.09   10.70
   3   9 -14   18.80   17.10
   4   8 -12   67.49   17.50
   5   6  -9   29.30   13.60
   9  -6  -6   10.50   11.50
  -8  -6  -2    9.60    5.00
  -7   0  -4   -4.50   10.10
  -5   6  -9   20.30   17.70
  -2   7  -7  198.88   22.40
  -2   8  -9   40.70   20.00
  -2   9 -13   33.30   22.00
  -1 -12   3    5.00   17.50
  -1 -11   3   48.00   18.30
  -1 -10   3   22.90   16.60
  -1   3  -2  354.16   17.70
  -1   9 -11  -18.70   20.10
   0   6  -5   96.89   20.30
   0   9 -11   12.30   18.50
   1   9 -11   33.10   19.80
   2   8  -9   55.99   16.50
   4  -9   1  561.84   30.00
   5   7 -11   60.29   16.30
   6   6 -11  -22.00   14.20
   7  -5  -3   82.39   12.80
   8  -4  -5  267.37   16.00
   9  -4  -7   14.80    9.60
  -7   2  -6    9.70   15.40
  -5   2  -3 1546.25   37.70
  -5   3  -4  757.82   28.50
  -4   7  -9   32.20   20.10
  -2   5  -4   -9.30   13.80
  -2   9 -12   13.30   21.50
   0  -5   2  962.90   27.30
   2  -8   2   44.70   16.30
   3   9 -13   12.90   18.00
   4   7  -9   95.89   14.70
   6  -2  -3   12.80    8.80
   8  -7  -4  173.38   18.10
  -8  -2  -4   56.69   12.10
  -8   1  -7   -2.40   13.90
  -7 -12   0   19.70    8.70
  -7 -10   0    6.20    6.20
  -6 -12   1    0.10   11.70
  -6 -10   1   16.60    8.70
  -5   4  -5  250.07   19.90
  -5   7 -11   19.30   16.00
  -4   3  -3 2491.15   45.50
  -4   4  -4   94.69   16.60
  -4   8 -12  225.98   25.10
  -2   3  -2  174.38   16.70
   0   9 -10   81.49   18.70
   1   8  -8   53.09   16.80
   3  -6   1   45.20   13.10
   4  -2  -1  183.98   12.20
   6  -9  -1  112.29   18.60
   9  -7  -6  216.98   18.90
  -7 -11   0   -3.80    8.00
  -6 -11   1  310.47   16.80
  -5   6  -8  449.06   28.40
  -4 -14   2   -0.10   13.90
  -4   5  -5    8.60   13.90
  -3   7  -7  172.08   21.90
  -3   8  -9   89.99   20.40
  -2   6  -5 1513.15   39.80
  -2   9 -11    3.10   18.30
  -1   9 -10   19.00   17.30
   1   9 -10  208.18   24.00
   2 -11   2  897.31   37.70
   2  -4   1 2089.69   37.30
   3   9 -12   92.89   22.10
   4  -5   0  141.29   16.20
   5   8 -13  132.19   19.80
   6   7 -13   35.60   15.60
   8  -8  -4    7.90   14.80
  -5   5  -6   26.10   17.30
  -5   7 -10   -4.30   16.70
  -4   7  -8   68.59   20.60
  -3  -6   2   11.80    8.50
  -3   9 -12   67.79   23.10
  -2   8  -8  231.08   23.20
  -1  -5   2   37.00   11.70
   0  10 -13   83.29   21.20
   1  10 -13  -23.50   18.90
   3   5  -5   82.29   10.90
   6  -5  -2   69.79   14.80
   7  -6  -3   28.80   11.50
   7  -3  -4  682.03   20.20
  -4 -13   2    2.80   11.70
  -4   6  -6   29.60   17.10
  -3   5  -4   78.19   16.60
  -2   7  -6  324.07   25.60
  -2   9 -10    2.80   18.90
  -1  -2   1   17.10    6.80
  -1  10 -13   -9.50   19.20
   0  10 -12  -10.80   20.00
   1  -7   2 2837.52   52.09
   1   7  -6   58.19   15.10
   2   8  -8   49.99   16.30
   2   9 -10  376.46   28.40
   3  -7   1  798.62   30.20
   3   4  -4   18.70    8.50
   5   7 -10   13.40   14.40
   7   5 -11   86.49   13.50
  -7   4  -8  104.29   18.50
  -6  -2  -1   43.90    8.50
  -5   6  -7  102.29   21.20
  -5   7  -9   26.60   19.80
  -4 -12   2   36.30   12.20
  -4  -9   2   10.80   14.50
  -3   6  -5 1038.10   36.90
  -3   9 -11  157.18   23.10
  -1   9  -9   65.59   20.50
   0  -6   2 1537.05   35.50
   0   8  -7  287.67   25.60
   0   9  -9  208.88   22.10
   1  10 -12   17.60   18.80
   2  10 -13   76.19   21.10
   3   9 -11  326.87   25.00
   4   9 -13   -2.00   17.90
   5   5  -7   81.49   11.30
   8  -5  -5   11.20   10.90
  -9  -5  -4    1.40    7.40
  -8  -3  -3   22.10    8.20
  -7   2  -5  333.97   21.30
  -4 -11   2  255.37   18.80
  -4 -10   2   54.09   14.50
  -3   8  -8  136.09   21.50
  -1   2  -1   35.40   13.30
  -1   8  -7   19.20   17.20
   0  10 -11  174.38   25.20
   1  -8   2   -3.10   16.00
   1   9  -9    6.40   17.50
   3  -8   1  297.37   23.40
   4  -6   0  294.97   20.80
   5   8 -12   10.40   14.60
   6   6 -10   38.70   13.10
   6   7 -12    4.40   13.80
   7  -7  -3    9.30   12.90
   9  -5  -7    4.50   10.20
  -9  -3  -5    7.50    9.90
  -8   0  -5  -11.50   11.70
  -8   2  -7   44.00   15.80
  -7  -2  -2   29.90    8.50
  -7   3  -6   69.99   16.80
  -6   0  -2   87.79   11.40
  -5   8 -11   55.79   21.50
  -4   7  -7    9.70   18.50
  -4   8  -9  117.59   20.90
  -3 -14   2  133.49   18.00
  -3   3  -2   17.10   12.30
  -3   9 -10  108.59   22.80
  -2   8  -7   55.49   18.50
  -2   9  -9   38.70   18.60
  -2  10 -12   -6.10   20.10
   1 -12   2  234.58   24.60
   1 -11   2    3.20   21.10
   1 -10   2   98.69   21.60
   1  -9   2  191.58   24.50
   1  10 -11  213.28   25.70
   3  -9   1  474.55   27.30
   4   9 -12    3.70   14.70
   5   3  -5  881.11   14.90
   6  -6  -2  234.08   19.30
   8  -1  -7   82.39    8.10
   9  -3  -8    9.00    8.80
  -7   5  -9  297.47   23.50
  -5  -6   1    5.10    5.40
  -4  -1   0   74.19    7.50
  -3 -13   2   20.80   14.20
  -3  -7   2  131.19   12.70
  -2  -6   2   28.40   10.00
  -1  -6   2    6.70   12.00
   0  -7   2   82.09   15.80
   2  -5   1 1647.84   36.20
   2   5  -4 1021.20   26.90
   2   6  -5  120.69   14.30
   3 -11   1   14.00   15.90
   3 -10   1  991.40   37.20
   3  10 -13   34.80   17.20
   4   7  -8   24.50   12.90
   5   6  -8   10.90   11.80
   7  -8  -3   59.69   14.60
  -8  -1  -4   19.80   10.30
  -7   4  -7  111.19   18.50
  -5 -14   1    3.20   14.30
  -5   4  -4  377.56   22.40
  -5   5  -5   49.10   16.00
  -5   8 -10    3.50   19.30
  -4   9 -11   34.00   17.40
  -2  10 -11   20.20   17.60
  -1   6  -4    0.10   13.50
  -1   9  -8  217.78   23.70
   0   9  -8    2.80   16.10
   0  10 -10  203.98   23.20
   2   7  -6   16.40   12.00
   2   9  -9   11.00   16.00
   3   9 -10   -8.00   17.20
   6  -7  -2   27.30   14.30
   7  -4  -4  265.07   16.00
   7   3  -8   19.80    6.60
   8  -6  -5  221.08   17.90
   8  -3  -6    1.00    7.60
   9  -6  -7   72.59   13.00
  -7   0  -3  373.76   17.90
  -5   3  -3  169.18   17.00
  -4   5  -4   13.80   14.90
  -3 -12   2    5.20   13.90
  -3   9  -9  246.18   23.50
  -3  10 -12   -6.60   19.40
  -2 -13   2   57.39   17.80
  -1 -13   2  414.26   27.30
   0 -12   2   84.29   20.20
   0  -8   2  992.60   35.60
   0  11 -13   15.60   17.40
   1  10 -10   54.89   21.80
   4  -8   0  513.25   27.70
   5   8 -11   80.39   16.60
   6  -3  -3  156.08   12.70
   7   6 -12    3.70   13.70
  -8  -5  -2    1.20    5.10
  -7   5  -8    4.00   15.20
  -5 -13   1   31.30   12.80
  -4   4  -3  379.56   22.50
  -4   6  -5   65.69   17.80
  -4   9 -10  276.97   26.00
  -3  10 -11   45.10   20.40
  -2  -7   2   43.20   13.60
  -2   6  -4  343.97   23.60
  -2   7  -5 1216.28   37.00
  -2   9  -8   13.30   16.60
  -2  10 -10  -15.00   19.30
  -1  -7   2  211.58   17.70
   0 -11   2  375.16   26.80
   0   2  -1  150.48   12.10
   0   7  -5    7.10   14.70
   1   9  -8   46.50   15.90
   2   8  -7   31.30   14.60
   3  10 -12  -12.40   16.50
   4 -10   0  600.64   30.40
   4  -9   0  153.78   20.00
   4  -3  -1  154.48   13.30
   4   9 -11  -10.00   14.30
   6  -8  -2   41.40   15.60
   8  -7  -5  239.48   20.50
  -5   8  -9    2.40   17.40
  -2   5  -3   43.00   15.20
  -1   8  -6  537.25   28.20
   0   5  -3  214.08   18.90
   2  -2   0  206.58   13.30
   3  -4   0  269.07   16.70
   3   3  -3  913.11   16.50
   4   8  -9   45.50   15.00
   5   9 -13  108.19   18.40
   6   7 -11   11.30   12.60
  -9  -2  -5    1.70   10.20
  -8   3  -7   39.10   18.20
  -7   3  -5   13.60   14.50
  -6 -14   0   39.20   12.50
  -5 -12   1   39.60   13.00
  -5   7  -7  338.17   24.90
  -4   9  -9  142.29   23.70
  -3   9  -8  277.07   25.00
  -2  -8   2   94.29   15.50
  -2   8  -6   25.20   15.50
  -2  11 -12  247.88   29.70
  -1 -11   2  126.39   21.50
  -1 -10   2  756.62   32.70
  -1  -8   2  127.49   16.50
   1  -4   1  138.89   13.10
   1  11 -12   41.40   17.80
   2  -7   1  440.66   24.90
   4  10 -13  116.49   20.50
  -8  -2  -3   48.00    9.40
  -7   4  -6   77.09   17.50
  -4   3  -2 1526.35   36.10
  -4   8  -7    7.60   14.80
  -3   0   0   -1.70    6.60
  -3   6  -4    4.10   15.60
  -3  10 -10   68.79   20.00
  -2 -10   2 1465.75   38.70
  -2  -9   2 1110.69   33.30
  -2  10  -9   36.80   18.70
  -1   9  -7  198.18   21.60
   0  -3   1  151.28   14.50
   0  11 -11  159.78   23.60
   2 -11   1   33.00   19.50
   2   9  -8  231.08   21.30
   3  -1  -1  227.98    9.90
   3  10 -11  192.48   21.70
   6   5  -8   80.89   11.20
   7  -5  -4  220.58   15.80
   7   5 -10   83.79   11.60
   9  -4  -8   57.59   10.20
  -7   5  -7   67.29   16.80
  -5   8  -8   -2.10   15.50
  -5   9 -10   28.30   20.00
  -4 -14   1   28.30   13.80
  -4  10 -11    4.70   19.00
  -3   5  -3  197.58   19.90
  -2  11 -11   83.19   24.20
  -1   4  -2 1192.08   29.50
   0   9  -7   96.09   18.40
   1   6  -4   95.49   14.90
   1   8  -6   21.30   14.40
   1  10  -9  167.48   20.60
   1  11 -11  228.78   24.20
   2 -10   1   22.20   15.60
   2  -9   1  159.08   21.10
   2  11 -12  -12.40   18.30
   6   4  -7   33.60    8.60
   8  -4  -6   10.60    9.50
  -8   0  -4   26.90   12.00
  -6 -13   0  118.69   16.80
  -5 -10   1  206.98   15.80
  -3   8  -6  563.94   29.00
   3  -5   0   77.29   13.60
   3  11 -13   64.89   18.30
   4   9 -10    2.60   17.10
   4  10 -12   -4.00   17.50
   5   8 -10   -6.10   12.70
   5   9 -12    6.00   14.10
   6  -4  -3   43.00   12.50
   6  -1  -4    4.70    6.00
   7  -6  -4   40.30   13.00
  -7  -1  -2    6.70    7.90
  -7   6  -8   93.79   18.60
  -6   1  -2   57.29   11.50
  -5  -9   1   12.30   10.50
  -5   5  -4    3.10   13.00
  -5   6  -5   54.79   16.80
  -4   9  -8  133.59   22.30
  -4  10 -10  211.48   23.50
  -3  10  -9   -3.40   17.10
  -1  10  -8  621.24   31.80
  -1  11 -10   97.09   22.50
   1  -5   1 9964.90   82.79
   1   9  -7   74.09   17.20
   4  -4  -1 1542.75   32.00
   6   8 -12   20.20   14.90
   7   0  -6   -2.80    5.10
   8   3 -10   17.20    6.00
  -9  -3  -4    5.90    8.00
  -9  -1  -5    7.70   11.20
  -7   1  -3  268.97   16.90
  -5   9  -9   -9.00   14.90
  -4 -13   1   32.10   13.10
  -4   6  -4  239.48   24.40
  -3 -14   1   -0.70   14.00
  -3  11 -11  -16.80   20.20
  -2  10  -8  481.25   29.80
   0   4  -2   15.20   14.30
   0  10  -8  234.18   22.00
   1 -12   1   37.00   20.30
   3  10 -10  101.19   19.60
   4   7  -7  424.46   21.00
   7  -8  -4    2.50   12.70
   7  -7  -4   48.20   13.50
  -8   3  -6  114.69   17.50
  -8   4  -7    8.00   15.50
  -6 -12   0   13.70   13.10
  -5   4  -3 1394.46   37.10
  -5   8  -7    6.40   19.10
  -3   4  -2  125.29   16.10
  -1  12 -12   88.19   20.90
   0  12 -12   17.50   18.60
   1 -11   1   56.09   17.40
   1  11 -10  103.69   20.20
   3 -11   0   24.20   16.20
   3   6  -5 1692.33   35.50
   3  11 -12   30.60   16.70
   6  -5  -3   90.79   15.20
   7   6 -11   27.30   12.10
   8  -5  -6   70.59   13.70
  -7   4  -5  362.26   25.20
  -7   5  -6   28.50   16.10
  -4 -12   1   95.29   15.10
  -4   5  -3  201.28   19.30
  -4  10  -9   38.10   18.60
  -3  10  -8  604.14   30.70
  -3  11 -10  126.59   22.30
  -2   7  -4   31.20   17.10
  -1   7  -4  121.49   20.10
  -1   8  -5  410.16   25.30
  -1   9  -6  171.88   24.00
  -1  11  -9  234.38   25.90
   1  -1   0 1645.04   17.70
   1  10  -8   22.80   16.60
   2   8  -6  244.48   19.90
   3 -10   0  990.20   35.10
   3  -8   0  759.52   31.00
   3  -7   0  150.48   16.70
   4   8  -8   11.40   12.70
   4  10 -11   52.69   16.80
   5   9 -11   17.80   15.60
   6   7 -10  158.98   16.60
   8  -2  -7  104.09   10.10
  -8  -4  -2    2.80    5.80
  -8  -1  -3   10.60    8.50
  -7 -12  -1    1.30    9.80
  -7   3  -4  583.04   26.50
  -7   6  -7   -6.10   16.00
  -4   9  -7  115.19   18.70
  -3 -13   1   48.70   18.10
  -2  11  -9   57.79   18.80
   0   8  -5 2370.66   48.80
   0  12 -11  175.18   23.80
   1 -10   1   95.69   18.10
   1  -9   1   93.59   17.80
   1  -7   1 2908.21   54.49
   2   7  -5  605.04   25.00
   4  -5  -1 1073.89   29.60
   6  -6  -3  127.99   17.00
   8  -6  -6  231.88   18.80
  -6 -11   0   37.10   11.50
  -5 -14   0  130.99   19.20
  -5   9  -8   37.40   16.80
  -4 -11   1   27.30   13.90
  -3   7  -4 3214.08   58.19
  -2   6  -3  111.69   17.80
  -2  12 -11  237.48   25.90
  -1 -13   1  493.65   29.00
  -1   6  -3  347.87   22.40
  -1  10  -7   79.59   18.90
   0  -4   1   -2.90   13.80
   0   7  -4 1107.79   35.60
   0   9  -6  835.02   32.60
   1  -8   1  260.17   22.90
   2  -3   0  508.95   19.40
   2   9  -7   66.19   15.60
   3  11 -11   29.20   17.00
   4 -10  -1  110.09   18.80
   4  -6  -1 2358.36   46.70
   4   9  -9  515.15   27.00
   5   6  -7   36.80   12.60
   5   7  -8  136.19   15.50
   6  -9  -3   13.20   15.10
   6  -8  -3  131.39   18.20
   6  -7  -3  351.16   22.60
   7  -3  -5    8.50    8.90
   8  -7  -6   81.59   15.90
   8   0  -8  189.68    8.50
  -7   7  -8   11.90   16.00
  -5   3  -2 2105.29   40.20
  -4  11 -10   -2.80   18.80
  -3   9  -6   96.99   21.40
  -3  11  -9   61.99   18.80
  -2  10  -7   69.19   19.70
  -1  -3   1  271.97   11.80
   0  10  -7  269.97   22.90
   1  11  -9  227.48   23.60
   2  12 -12   -7.50   17.20
   4  -9  -1  115.59   18.30
   4  -8  -1   60.39   18.40
   4  -7  -1  145.39   20.20
   4  -1  -2  209.28    9.60
   6   8 -11    3.00   15.50
  -9   0  -5    4.10    9.90
  -8   4  -6  145.19   19.30
  -5   6  -4  -13.60   18.30
  -5   7  -5   -5.10   16.30
  -5   8  -6   -3.70   20.00
  -5  10  -9  148.99   23.30
  -4   4  -2  813.62   28.50
  -4  10  -8  -24.50   16.80
  -3 -12   1   24.80   15.20
  -2   3  -1 3100.29   42.90
  -1 -12   1  309.17   24.40
  -1  12 -10   -8.00   17.20
   0  12 -10    2.80   20.30
   2  10  -8  107.69   17.80
   3   5  -4   63.49   10.90
   3  10  -9  305.77   24.30
   5   8  -9    3.00   11.10
  -8   5  -7   55.09   17.10
  -7   0  -2   -1.40    8.60
  -6 -10   0  131.79   13.10
  -5 -13   0  -10.10   14.60
  -4 -10   1  110.89   16.10
  -3  10  -7  590.94   31.50
  -2  11  -8   11.60   15.90
  -1   3  -1   38.70   14.20
  -1  11  -8  629.44   32.50
   0 -10   1  115.79   21.40
   1   8  -5   33.70   15.30
   1   9  -6  124.19   18.50
   5  10 -12   27.60   15.00
  -7 -11  -1   68.39   10.70
  -7  -3  -1    6.20    5.40
  -7   5  -5  229.08   21.20
  -7   6  -6   -0.20   15.00
  -6 -14  -1   21.90   15.70
  -5   5  -3  138.09   19.40
  -4   7  -4   60.29   19.40
  -4   8  -5   -2.30   16.20
  -4   9  -6   30.90   19.40
  -4  11  -9   72.09   21.30
  -3 -11   1  310.67   21.80
  -2   5  -2  444.96   23.60
   0  -5   1 1230.68   32.00
   1  10  -7   -1.40   17.80
   1  12 -10  284.57   27.60
   2 -11   0  -10.30   17.10
   2  12 -11    0.90   17.20
   6  -2  -4  228.98   13.00
   7  -4  -5  324.27   16.80
  -7   7  -7   15.60   17.00
  -4 -14   0  144.89   18.70
  -4  -9   1  116.79   15.50
  -3  11  -8   42.50   20.50
  -3  12 -10   -6.40   18.30
  -2  -3   1  539.05   12.00
   0  -9   1  532.15   27.80
   2 -10   0   -3.80   15.70
   2  -4   0  979.70   26.80
   3  12 -12   53.79   17.40
  -8   0  -3   -2.60    8.10
  -8   2  -4   47.00   12.80
  -6   0  -1   15.20    9.70
  -5  10  -8  131.29   21.30
  -4  -8   1   58.39   12.00
  -4   0   0   21.70    6.90
  -4   6  -3  460.75   25.80
  -4  10  -7   33.70   18.30
  -3   5  -2   33.30   14.20
  -2   9  -5   54.89   19.40
  -1 -10   1 1534.65   43.30
  -1   9  -5   98.59   21.10
  -1  12  -9    6.60   17.40
  -1  13 -11  -16.30   17.50
   0  -8   1   44.90   15.40
   0  12  -9   -1.60   20.00
   0  13 -11   29.90   19.90
   1  11  -8   54.59   17.30
   6   9 -12   33.90   16.20
  -9  -5  -3   -3.10    5.30
  -9  -1  -4    8.30    9.10
  -9   1  -5   30.40   10.90
  -5 -12   0  506.65   24.10
  -4  -7   1  152.38   11.60
  -2   8  -4  185.18   23.50
  -2  10  -6  103.39   19.80
  -1  10  -6  423.96   27.00
   1 -12   0  186.18   24.10
   2  -9   0  648.74   28.80
   2  -5   0 5198.38   61.99
   2   3  -2 2519.75   27.20
   3 -11  -1  318.47   26.30
   4  11 -11   42.50   17.80
   6   3  -6  671.03    8.50
   7  -8  -5   73.89   14.10
   7  -7  -5   -8.30   11.20
   7  -6  -5   15.60   11.10
  -8   5  -6   40.20   19.10
  -7 -10  -1    2.80    7.10
  -6  -8   0   18.30    7.50
  -5   8  -5   62.99   19.00
  -5  11  -9  148.09   24.60
  -4  11  -8   10.60   17.40
  -3   8  -4   -0.60   18.60
  -3   9  -5   38.80   18.30
  -3  10  -6  158.48   21.00
  -3  12  -9    7.70   20.20
  -2 -10   1   64.09   16.80
  -2  11  -7  412.86   28.30
  -1  -9   1   49.10   16.80
  -1  11  -7  158.58   22.40
   0   9  -5   56.49   18.10
   0  10  -6  304.57   25.90
   2  -8   0  139.49   17.70
   2  -7   0  195.68   19.40
   2  -6   0  575.24   24.80
   2   5  -3  129.79   13.80
   3  10  -8  156.38   19.80
   4   8  -7  275.37   20.10
   8  -4  -7   18.30   11.00
  -8   4  -5  404.66   24.90
  -6 -13  -1   34.90   12.90
  -6   9  -7   77.19   21.00
  -5   4  -2  157.38   16.40
  -5   7  -4   17.60   18.90
  -4 -13   0   19.10   12.80
  -2   7  -3    5.10   17.60
  -1  13 -10  -10.10   17.80
   0   8  -4  223.78   23.10
   0  11  -7   12.00   17.90
   1   6  -3   10.00   12.60
   2  10  -7  274.77   22.50
   3 -10  -1  142.99   19.00
   3  12 -11   15.70   15.80
   4   9  -8    6.10   13.60
   6  -3  -4   -4.50    9.80
   6   7  -9  197.28   16.50
   7  -1  -6  218.28   11.20
   7   6 -10  443.96   17.50
   8  -5  -7   29.40   13.30
  -7   1  -2    4.50   10.30
  -7   6  -5  -14.20   16.50
  -7   7  -6   17.30   16.30
  -7   8  -7   20.90   16.70
  -6  -7   0  117.39    8.10
  -6  -6   0  184.08    7.00
  -5  10  -7   20.40   18.00
  -4   3  -1 1539.25   33.00
  -4   5  -2  423.06   25.50
  -4  12  -9   -3.00   18.30
  -3  -4   1  447.56   11.70
  -3   7  -3  960.90   34.40
  -3  11  -7   82.49   18.00
  -2  -9   1  794.62   28.30
  -2  12  -8   10.80   19.50
  -1  -8   1   13.60   12.90
  -1   7  -3    8.40   17.40
  -1  12  -8  283.77   25.90
   0  13 -10   57.19   18.40
   1 -11   0  352.46   24.80
   2   8  -5  343.07   21.80
   3   7  -5   21.10   11.20
   3  11  -9  178.88   20.90
   4  10  -9    9.30   16.10
   6  -9  -4  508.75   27.10
   6   6  -8  256.57   13.50
   6   8 -10   19.30   14.50
   7   7 -11    3.50   12.60
   8  -7  -7  162.58   16.90
   8  -6  -7   23.60   12.10
  -6  10  -8  182.18   22.10
  -5 -11   0  570.24   22.80
  -4   8  -4  138.69   24.30
  -3 -13   0   38.30   17.50
  -1 -13   0   27.10   16.50
  -1  -7   1  136.19   16.90
  -1  -6   1   -1.70   13.60
   0 -12   0  482.65   29.00
   0   3  -1  141.09   14.70
   0  12  -8   54.19   20.10
   1   2  -1   16.90    8.60
   1  10  -6  268.97   24.40
   2  13 -11   20.10   17.90
   3  -9  -1  739.03   31.50
   3  -3  -1   76.19   11.40
   4 -10  -2   44.80   15.20
   6  -4  -4   -6.40   12.10
  -9   0  -4   -3.40    9.90
  -9   2  -5   81.19   12.60
  -8  -9  -2    2.20    5.80
  -8   1  -3   15.50   10.30
  -7  -9  -1   -0.20    6.80
  -7   5  -4   18.50   16.40
  -5 -14  -1  138.89   22.20
  -5   6  -3   42.90   16.40
  -5  11  -8   82.99   19.30
  -4  11  -7   24.70   17.70
  -3  -7   1   52.09   11.50
  -3  12  -8   65.19   18.60
  -2  -8   1  359.66   19.90
  -1  13  -9    1.30   19.70
   1 -10   0 1207.48   38.50
   1  11  -7  227.88   22.70
   1  13 -10    9.80   17.70
   4  11 -10   36.40   16.70
   5   8  -8  233.08   19.10
   6  -8  -4  180.98   19.20
   6   9 -11  102.39   17.30
  -8  -2  -2   22.70    7.00
  -8   6  -6    6.00   16.00
  -7  -2  -1   52.79    7.10
  -6 -12  -1   10.30   14.00
  -4 -12   0   12.50   12.60
  -3  -6   1   12.10    9.40
  -2  -7   1   14.60   12.30
  -2   4  -1 2195.38   39.00
  -2  13  -9   64.49   18.10
   0  13  -9  -12.70   19.10
   1  -2   0  766.92   18.10
   2   7  -4 1043.20   32.00
   3  -8  -1  369.36   22.90
   3  -4  -1  526.65   22.00
   4  -9  -2   17.90   14.70
   5   9  -9  204.58   19.90
   6  -6  -4  112.09   15.10
   6  -5  -4   31.70   13.90
  -8   5  -5   21.60   16.60
  -6   1  -1   51.09   11.50
  -6   9  -6  308.67   27.30
  -5 -10   0  495.15   21.00
  -4   7  -3 1427.26   40.30
  -3   4  -1   13.50   15.00
  -2  -6   1    5.50   12.30
  -2  -5   1 1491.95   29.00
  -2   6  -2   53.39   16.40
  -2   9  -4  304.07   26.70
  -2  10  -5    9.70   17.40
  -1 -12   0  198.38   22.70
  -1  10  -5   46.40   22.00
  -1  11  -6   -7.50   18.90
   0 -11   0   -2.80   15.40
   1  -9   0  397.16   25.20
   1  12  -8   91.69   19.70
   3  -6  -1   17.00   11.90
   3  -5  -1  231.78   18.90
   5   7  -7  144.39   15.40
   5  10 -10   54.19   19.50
  -9  -3  -3    4.80    6.10
  -7   4  -3   42.40   13.60
  -7   8  -6   60.39   17.40
  -6  10  -7   39.20   15.30
  -5   9  -5   26.10   18.80
  -3 -12   0   -7.90   14.60
  -3   6  -2   32.20   16.40
  -3   9  -4  332.97   28.30
  -3  10  -5   84.09   18.90
  -3  11  -6  228.08   24.00
  -2  12  -7   23.80   16.70
  -1   6  -2 1716.03   39.70
  -1   9  -4  142.19   20.80
  -1  12  -7   10.30   17.40
  -1  14 -10    2.60   18.50
   2 -11  -1  525.95   30.80
   2  13 -10   28.30   17.50
   3   4  -3    6.60    7.70
   4  -8  -2  111.29   18.20
   4  -3  -2  146.49   12.00
  -7   7  -5   21.90   17.10
  -7   9  -7   45.30   16.50
  -6 -14  -2   -1.70   15.20
  -5   5  -2  118.59   18.10
  -5   8  -4   82.39   18.90
  -3  12  -7   14.80   18.00
  -1   4  -1  140.69   16.50
   0  10  -5  153.28   21.90
   0  11  -6   19.10   18.90
   1  -8   0   65.59   15.40
   3   6  -4  989.50   24.80
   3  13 -11    7.60   14.70
   4  -7  -2  260.07   20.80
   4  12 -11   57.29   17.40
   6   5  -7   26.40    7.50
   7  -2  -6  437.56   17.10
  -9   1  -4   12.70    9.50
  -9   3  -5   13.50   12.50
  -7 -12  -2  288.47   17.40
  -7  -8  -1  330.07   11.70
  -5 -13  -1  528.85   27.50
  -4 -11   0   40.50   13.50
  -4  10  -5   42.20   19.30
  -4  11  -6  454.55   30.30
  -2   8  -3   37.70   20.30
  -2  13  -8   36.10   18.00
   0 -10   0 1519.85   41.80
   0  12  -7   24.20   16.20
   2  10  -6  174.78   22.30
   2  11  -7  202.08   22.90
   4  -6  -2  120.29   15.00
   4  -5  -2 2029.40   39.50
   5  11 -11   19.10   15.10
  -8  -8  -2   35.80    5.70
  -8  -1  -2  179.08   11.40
  -8   7  -6  -12.30   16.30
  -7   6  -4   23.60   16.10
  -6 -11  -1   17.20   12.40
  -5   7  -3  218.38   20.70
  -5  12  -8   68.99   16.90
  -4   1   0   68.69    9.70
  -4  12  -7   69.09   21.00
  -3   8  -3  490.55   27.20
  -3  13  -8   43.00   20.10
  -1   8  -3   83.69   19.50
   0  13  -8  149.79   22.50
   1 -12  -1  313.27   26.10
   1  -7   0  194.88   17.80
   1  -3   0  456.25   20.20
   2 -10  -1   69.69   16.30
   3 -11  -2  656.43   32.20
   5   4  -5   68.99    6.80
   7  -3  -6  638.04   22.20
   8  -2  -8  154.68   11.40
  -9  -2  -3   -9.10    6.80
  -8   6  -5  277.67   23.70
  -5  -9   0   58.39   12.00
  -3 -11   0   15.20   15.20
  -2  14  -9    5.20   20.40
  -1  14  -9   19.90   17.90
   1  -6   0 1679.53   37.00
   1   5  -2   36.50   12.00
   2   9  -5   15.00   12.80
   3  12  -9    3.50   15.40
   4   9  -7   -5.50   15.20
   4  11  -9  105.79   18.00
   6   0  -5    1.50    5.20
   7  -6  -6   53.19   11.50
   7  -4  -6   -1.90   10.40
  -6   9  -5  328.47   26.80
  -6  10  -6  -13.70   16.90
  -4   8  -3  586.44   29.30
  -4  13  -8   11.40   17.20
  -2  11  -5   12.90   20.60
  -2  12  -6  149.09   22.90
   0  -9   0    2.70   14.50
   0  14  -9    9.60   18.90
   1  -5   0   40.70   15.30
   1  -4   0 2303.77   38.30
   1   7  -3   44.80   13.40
   1  10  -5   43.20   21.60
   1  11  -6  240.08   22.00
   1  12  -7   17.00   17.10
   2  -9  -1  729.53   30.10
   5   6  -6   21.60   10.90
   7  -5  -6   -8.00   10.30
   8  -6  -8    6.20   11.90
   8  -3  -8   48.80   10.90
   8   5 -11   28.70    7.20
  -9   2  -4   17.10   10.80
  -7   5  -3   73.89   19.70
  -7   8  -5   60.79   18.80
  -7   9  -6   44.80   17.60
  -6   2  -1   58.49   11.40
  -6  11  -7   58.29   18.00
  -5  11  -6   19.60   19.00
  -4 -13  -1   91.89   16.60
  -4 -10   0  720.53   26.50
  -3  12  -6   42.20   17.10
  -2  13  -7   30.50   20.90
  -1 -10   0 1189.88   35.90
  -1  11  -5  197.48   22.50
  -1  12  -6    4.10   18.10
   1 -11  -1 1187.38   41.20
   1  13  -8   50.49   19.40
   2   6  -3 2045.90   36.10
   3 -10  -2  480.75   27.70
   4  12 -10   15.40   18.20
   6   8  -9   13.50   12.10
   6   9 -10    7.40   15.30
   8  -5  -8   -8.30    9.90
   8  -4  -8   65.29   11.90
  -9  -1  -3    3.20    8.30
  -8   5  -4  267.47   19.60
  -6 -13  -2   -2.70   14.10
  -5 -12  -1    3.50   12.90
  -5  12  -7   14.90   16.70
  -3   7  -2  359.06   24.10
  -3  13  -7   57.09   17.70
  -2   2   0  183.18   11.10
  -2   5  -1 1707.53   36.50
  -2   7  -2   14.90   17.50
  -1 -13  -1   12.80   16.10
   2  14 -10   47.10   17.60
   4 -10  -3  149.59   20.00
   5   1  -4   13.20    3.80
   6  -8  -5  752.72   29.40
   6  10 -11  101.79   20.10
  -8   0  -2  110.99   10.80
  -7 -11  -2    7.20   10.10
  -7  -7  -1  111.89    7.60
  -7   7  -4   56.29   17.50
  -5  -8   0   -5.40    9.80
  -4  11  -5  153.88   20.00
  -4  12  -6  128.49   23.10
  -3 -13  -1   30.60   15.40
  -3   5  -1   78.79   14.00
  -2 -10   0   10.80   15.20
  -2  14  -8  171.18   22.50
  -1  10  -4   -4.60   19.90
  -1  14  -8   46.20   20.90
   0 -12  -1  315.97   24.40
   0  12  -6   55.09   19.40
   1   9  -4  112.29   18.00
   2  -8  -1  365.06   22.60
   5   9  -8   -0.60   13.60
   7   1  -7   32.20    7.20
   7   8 -11   44.30   14.10
  -8   7  -5   10.90   16.40
  -6 -10  -1   86.49   13.20
  -5   4  -1   98.89   15.30
  -4  10  -4    9.70   16.50
  -4  13  -7    6.70   15.50
  -3  14  -8   84.39   21.50
  -2   9  -3    2.60   16.90
  -1   7  -2 2857.01   50.99
   0   4  -1   11.90   14.40
   0  13  -7    2.70   16.80
   3  -9  -2  693.03   30.90
   5  11 -10  156.68   21.20
   6  -7  -5   39.00   13.40
   6   7  -8    2.60   10.10
   7   7 -10   41.30   11.30
  -7   0  -1   18.30    7.60
  -6  11  -6   33.80   18.90
  -4  -9   0  144.59   16.50
  -1  -9   0  355.16   22.60
  -1  15  -9    8.90   18.10
   0  14  -8   25.80   18.10
   1 -10  -1 1342.57   40.20
   3  12  -8    2.30   18.00
   4  -9  -3   14.20   13.60
   6  -1  -5  181.48   12.40
  -9   0  -3   -0.60    8.60
  -7   6  -3    2.50   15.90
  -7   9  -5   98.69   19.40
  -7  10  -6   80.39   17.60
  -6  10  -5   81.39   18.90
  -5  11  -5  232.58   24.80
  -4 -12  -1   39.70   14.50
  -1 -12  -1   51.09   16.80
  -1   9  -3  299.87   24.90
   0  -7   0    6.90   13.00
   2 -11  -2  125.29   22.40
   2   4  -2 1315.47   23.70
   2  11  -6  554.74   29.50
   3  -8  -2  343.47   24.70
   3  13  -9   26.60   17.50
   5   8  -7   94.19   14.10
  -8   1  -2  170.38   13.00
  -8   6  -4   80.69   15.40
  -6   9  -4  740.03   33.60
  -5 -11  -1  348.37   19.80
  -5  13  -7    5.20   18.40
  -3  12  -5   74.89   20.60
  -3  13  -6    7.40   19.70
  -2  12  -5   98.29   22.80
  -2  13  -6   43.50   18.30
   0 -11  -1  323.17   25.60
   0  15  -9  -15.90   17.00
   1  12  -6  937.01   37.10
   1  13  -7  384.96   26.50
   2  14  -9  254.77   24.00
   4  11  -8   12.50   17.10
   4  12  -9   25.50   18.20
   6  -5  -5   28.40   14.10
  -8  -7  -2   -1.90    4.10
  -7   8  -4   89.29   17.20
  -6 -12  -2   18.00   13.80
  -5  -7   0   79.49   10.40
  -5   7  -2  254.47   22.20
  -3 -12  -1   -0.90   14.90
  -3  11  -4  112.79   20.10
  -3  14  -7   50.29   18.50
  -2  -9   0  609.94   24.50
  -2  14  -7   32.50   18.00
  -1  12  -5   48.90   20.90
  -1  13  -6  145.39   20.40
  -1  14  -7  209.68   23.30
   1  -9  -1   48.40   15.70
   1   8  -3  762.22   31.20
   1  11  -5  227.58   23.30
   1  14  -8   15.10   17.90
   2  -6  -1    6.50   12.20
   2  10  -5   72.19   17.30
   3 -11  -3   10.80   18.40
   3   7  -4 1661.03   33.10
   3  14 -10  276.17   23.30
   4   7  -5  318.97   16.90
   4  10  -7   13.40   14.70
   6  -4  -5   47.10   14.10
   6  -2  -5  961.50   24.70
   7  -7  -7    4.10    9.40
  -9   1  -3   -3.10    9.90
  -9   4  -4   45.60   12.50
  -8   8  -5   38.70   16.80
  -5 -13  -2  209.38   21.20
  -4  13  -6  162.68   22.60
  -3   6  -1   39.60   15.60
  -3   8  -2 1320.07   39.30
  -2  15  -8   10.70   19.40
  -1  11  -4   29.10   19.30
   0  -6   0  527.35   23.60
   0   7  -2   96.59   16.20
   0   9  -3 1011.00   35.50
   1 -12  -2  514.05   30.20
   1   6  -2   27.30   15.20
   3  -7  -2  140.09   17.10
   4  13 -10    6.70   17.30
   6  -3  -5  245.58   16.40
  -7 -10  -2   40.90   10.90
  -6  -9  -1   51.29   11.40
  -5   5  -1   28.10   12.80
  -5   9  -3   39.90   17.20
  -4  -8   0  505.65   21.40
  -4  14  -7   33.70   19.20
  -3   3   0  240.48   14.90
  -2   6  -1 1915.91   40.40
  -1  15  -8  210.18   22.90
   0  13  -6    3.20   17.30
   0  14  -7   62.29   18.20
   1   3  -1  284.47   14.50
   2 -10  -2 1442.36   43.10
   2  -5  -1 1253.17   31.10
   4  -7  -3   31.90   14.00
   7  -6  -7    4.40   10.60
   8  -6  -9   11.40   12.00
   8   0  -9    1.40    6.40
  -8   2  -2   23.30    9.00
  -8   7  -4  141.79   17.60
  -7   7  -3    3.00   15.80
  -7  10  -5   -2.90   16.90
  -6  12  -6    4.00   14.60
  -3  10  -3  -17.20   17.20
  -2  10  -3   90.19   20.80
  -1 -11  -1   52.09   18.30
  -1   8  -2    8.70   16.20
   0 -10  -1   86.49   20.00
   0  12  -5   59.69   18.70
   0  15  -8  141.99   22.40
   2  -1  -1    5.50    7.70
   2   7  -3  630.54   22.70
   3   5  -3   49.80    8.70
   4   9  -6   -7.40   13.10
   6  10 -10  231.48   20.30
   8  -5  -9   19.70   11.60
  -7   5  -2   62.19   13.90
  -6  -2   0  243.88    8.10
  -6  10  -4   88.09   20.50
  -5  12  -5   77.19   20.30
  -5  13  -6   -7.20   16.80
  -4 -11  -1  369.76   22.20
  -4  10  -3   10.40   16.70
  -2  -8   0  139.19   14.10
  -1  -7   0  187.58   18.40
  -1  10  -3  144.19   24.10
   0  -5   0    8.10   14.60
   1  -8  -1    6.00   13.30
   2  -4  -1  610.14   21.60
   2   9  -4  469.85   23.50
   3 -10  -3  513.15   30.00
   3  -6  -2    5.30   11.20
   5  11  -9  372.96   25.10
   6  -8  -6   32.80   12.70
   6   9  -9   16.80   14.20
   7  -5  -7   11.40    9.20
   7   0  -7    5.60    7.90
  -9   2  -3   -3.20    9.10
  -7   2  -1   45.00   10.90
  -7   9  -4   56.39   18.80
  -5 -10  -1  169.68   15.20
  -5   2   0   20.90    9.90
  -5  11  -4   20.20   18.80
  -4 -13  -2   13.00   13.70
  -3 -11  -1    6.70   15.20
  -3  13  -5   30.50   15.20
  -2 -11  -1   52.09   17.20
  -2  13  -5  212.48   24.90
  -2  14  -6   62.89   20.30
   0   5  -1 1172.78   29.90
   0  11  -4  -10.80   17.20
   1 -11  -2  139.19   22.90
   2  -9  -2 1073.19   36.60
   2  -3  -1  628.24   20.60
   2  -2  -1  550.04   17.40
   2  14  -8   28.60   18.00
   3  12  -7   13.50   20.90
   5   7  -6  213.98   14.40
   5  10  -8  120.99   17.80
   8  -4  -9   21.40    9.30
   8  -1  -9  252.77   13.10
  -6 -13  -3    7.60   13.80
  -5  -6   0   68.99    8.00
  -5   8  -2  252.87   21.90
  -3 -13  -2   -5.90   16.10
  -3  12  -4    4.10   16.50
  -3  15  -7  113.69   22.70
  -2  12  -4   77.29   20.20
  -1  13  -5    6.90   16.80
  -1  14  -6  137.39   22.50
  -1  15  -7  444.36   30.00
   0 -12  -2   82.09   19.40
   1  13  -6   31.60   19.50
   1  14  -7   30.50   17.30
   2  15  -9    3.80   16.40
   3  -5  -2   -6.20   13.70
   3  14  -9   36.50   17.50
   5   0  -4   -6.90    5.40
   6   6  -7    6.10    7.10
   7  -4  -7    9.60    9.30
   7  -1  -7   38.10    9.80
  -8   3  -2   83.89   12.70
  -6 -11  -2   72.89   14.40
  -6  -1   0  153.78    8.70
  -5   6  -1   46.90   15.90
  -5  10  -3   12.60   16.30
  -4  13  -5   36.40   16.90
  -4  14  -6   18.80   16.60
  -3   9  -2  150.58   22.10
  -2   9  -2   32.90   17.40
  -1 -10  -1  125.19   21.10
   0  -9  -1  551.84   27.30
   0  -4   0  982.90   24.40
   1  12  -5   24.30   17.80
   2  11  -5   61.79   15.30
   4  -9  -4   11.40   15.90
   4  -5  -3   39.70   12.80
   4  12  -8   16.40   16.90
   4  13  -9  123.29   21.20
   6  -7  -6  363.46   21.10
   7  -2  -7   60.69   10.90
  -9   3  -3   -2.10   10.50
  -8   8  -4  114.19   17.80
  -7   6  -2    3.70   14.90
  -7   8  -3   -3.30   15.30
  -7  11  -5  -12.70   16.90
  -6  12  -5   30.20   17.20
  -4  -7   0   44.50    9.80
  -4  12  -4   25.50   19.30
  -3  11  -3  136.99   23.30
  -1  12  -4  997.80   40.30
  -1  16  -8   71.39   17.20
   0   8  -2 1045.20   34.20
   0  10  -3   67.19   20.20
   0  14  -6   11.70   17.50
   0  15  -7   51.19   20.20
   1  -7  -1  145.59   17.50
   1   9  -3  370.16   23.30
   3  -9  -3  815.82   33.70
   4  11  -7   16.10   18.50
   5   9  -7  419.66   20.50
  -7   3  -1    4.70    9.80
  -6  -8  -1   69.59   10.30
  -6   0   0 2211.48   29.00
  -6  11  -4   24.70   17.30
  -5  13  -5  199.68   22.30
  -5  14  -6   -3.10   13.30
  -4   7  -1  198.78   19.50
  -2  -7   0  142.59   13.80
  -2  11  -3   31.70   19.10
  -1 -12  -2  213.48   22.00
  -1  -6   0 1763.02   35.50
  -1   9  -2  179.08   20.90
   0  -3   0   -3.40   12.00
   0  13  -5  -25.20   19.10
   0  16  -8   47.50   19.70
   1 -10  -2  773.32   33.30
   2  -8  -2   91.59   16.70
   2   5  -2   31.20   12.00
   3  -4  -2   66.79   12.50
   3   8  -4  378.16   18.90
   7   8 -10   17.30    9.50
  -8   4  -2    2.90   11.00
  -7  -9  -2    4.00    7.90
  -7  10  -4    1.60   15.80
  -4 -10  -1  191.58   16.80
  -3  -7   0  155.58   14.00
  -2 -10  -1   25.20   16.80
  -2   4   0 1000.40   27.90
  -1   3   0  451.45   20.50
   0 -11  -2  359.46   25.90
   1   7  -2  199.78   16.80
   1  11  -4   79.39   19.10
   4  -4  -3  526.65   20.90
   4   8  -5   57.69   12.50
   5   5  -5  161.88    9.20
   6  -6  -6   67.69   14.30
  -9   4  -3   14.70   10.90
  -8   7  -3   98.29   17.20
  -7 -11  -3  152.48   15.60
  -6  10  -3   57.19   19.60
  -5   9  -2   60.89   18.30
  -4 -12  -2  150.98   18.60
  -3  14  -5   33.70   18.10
  -3  15  -6  -12.90   18.40
  -2  14  -5   83.49   21.70
  -2  15  -6   62.89   18.20
  -2  16  -7  -20.20   21.20
  -1  11  -3  453.95   29.00
   0  12  -4   44.10   19.90
   2   8  -3  631.74   25.50
   2  10  -4   38.60   16.40
   2  15  -8  108.09   20.20
   3  -3  -2   27.20   12.20
   4  -8  -4  150.98   17.70
  -8   9  -4   19.50   15.90
  -7   9  -3   76.69   18.40
  -6   1   0  144.29   11.10
  -5 -13  -3   -8.80   16.70
  -5  -9  -1   87.29   13.70
  -5   7  -1   82.49   15.10
  -5  11  -3   41.00   16.20
  -4  14  -5  357.06   27.90
  -4  15  -6   12.00   17.60
  -3 -12  -2  187.78   19.70
  -3  13  -4    3.60   18.40
  -2  13  -4  667.63   34.00
  -1   7  -1 2773.32   49.00
  -1  14  -5  149.39   23.30
  -1  15  -6   24.40   18.90
  -1  16  -7  -11.50   17.70
   0  -8  -1   39.70   13.90
   0  -2   0 2759.52   27.50
   1  -6  -1   -4.10   13.60
   1   4  -1 1716.53   29.20
   1  14  -6   97.29   23.80
   3  -8  -3   24.40   16.10
   3  13  -7  -13.10   18.60
   3  14  -8   67.89   19.30
   3  15  -9  258.37   25.20
   4  -3  -3   25.00    8.70
   4  10  -6   -4.10   12.40
   6  11 -10   10.00   13.10
   7  -6  -8  158.58   15.20
   8  -5 -10   64.39   13.90
  -7   7  -2  103.99   18.50
  -6 -12  -3   38.50   14.30
  -6  13  -5   -1.00   15.20
  -4  10  -2   96.39   19.20
  -4  13  -4  246.48   24.80
  -2  10  -2   97.69   20.50
  -1  -9  -1  108.69   17.80
   0   6  -1  225.48   15.50
   3  -2  -2  770.72   19.90
   3   6  -3  290.47   14.00
   5  11  -8  121.59   18.70
   6  -5  -6   26.70   12.00
  -6  12  -4   -1.40   15.30
  -4   8  -1  414.06   23.50
  -3  12  -3   19.50   19.10
  -2   8  -1   28.00   16.00
  -2  12  -3 2240.68   53.19
  -1  -5   0   55.29   12.80
  -1  13  -4  201.68   23.00
   1  -9  -2  566.94   28.30
   1  13  -5  818.32   33.60
   2  12  -5  420.76   26.20
   3 -10  -4  106.09   18.90
   3  12  -6    3.30   18.20
  -8   1   9  342.77   27.90
  -8   2   6   20.90   18.60
  -8   3   4  313.27   24.90
  -7   0   8   -5.60   17.10
  -7   1   5  247.28   22.80
  -7   6  -1  385.66   17.50
  -6  -1  13   54.89   19.70
  -5   0   3   82.39   15.50
  -3  -2   5   -9.60   14.10
  -2  13  -8   28.80    8.10
  -1  -3   9  136.89   15.50
  -1   9  -7  173.98   12.00
   0  -2   4  334.07   12.50
   0  -2  14   36.50   13.80
   3   8  -6  844.62   31.50
   4   2   0   10.60   10.10
   7   5   2   24.00    9.60
  -9   3   8   -1.90   17.30
  -9   5   4   24.90   15.70
  -9   6   3   40.20   14.60
  -9   7   2   -3.10   14.40
  -8   1  10   53.49   17.20
  -8   1  11   -6.90   18.60
  -8   1  12   10.60   19.40
  -7   0   9  127.59   19.00
  -7   0  13   13.20   18.00
  -6  -1   9  441.76   28.80
  -6  -1  12   24.90   16.30
  -6   0   5    9.80   15.30
  -6   1   3  149.29   18.60
  -6  12  -5    0.80    4.10
   0   5  -5  180.28   11.80
   2   3  -3 1496.35   31.70
   2   7  -6    4.30   14.00
   5   1   4  214.68   14.00
   5   3   0  186.58   16.50
   5   7  -4  244.08   22.20
   6   2  10    4.30    7.20
   7   4   4   16.40    8.60
  -9   3   9  106.39   20.50
  -7   0  10   -6.10   17.50
  -7   0  11   41.60   20.30
  -7   0  12   15.40   15.50
  -6  -1  10   -1.10   15.30
  -6  -1  11  669.83   32.40
  -4  -2   7  392.56   23.00
  -3  -2  14   41.60   17.20
  -3   0   1  142.79   13.80
   1   5  -5  110.79   13.40
   1  11  -8   39.80   12.10
   2   2  -2   73.59   13.70
   3   6  -5 1697.73   40.80
   4   7  -5  325.47   24.60
   6   2   5   15.60    9.30
   6   5  -1    3.10   11.00
   6   6  -2  184.08   19.00
  -8   2   7  108.19   21.10
  -8   5   2   87.79   18.50
  -7   1   6  207.08   22.70
  -5  -1   6   54.99   16.10
  -4  -2   8  306.57   24.30
  -4  -2  12   45.50   18.70
   2  -2   8   31.00    5.80
   2  -2   9   20.00    6.50
   2   4  -4 3352.06   48.70
   3   1   0  111.19   11.90
  -9   4   7   39.00   18.00
  -8   3   5  164.58   21.30
  -8   9  -1   20.20   10.20
  -7   2   4    5.10   15.20
  -7   8  -2   28.10    8.50
  -6   0   6   22.40   18.30
  -6   2   2  175.88   17.80
  -6   6  -2  410.26   16.30
  -4  -2   9   24.00   18.10
  -4  -2  11  -17.40   15.70
  -3  -1   3 2011.10   36.60
  -3  -1  16   11.80   19.30
  -2  -2  14  -13.70   14.10
   1  -2   5 3632.74   26.80
   1  -1  15   44.20   11.60
   2  11  -8   15.70   11.40
   6   4   0    6.40   11.80
   7   4   3   36.90    9.70
  -8   2   8  163.88   21.50
  -7   1   7   46.00   20.10
  -7  10  -3    4.60    7.20
  -6   0  14   -8.80   19.50
  -5  -1  13   32.10   19.30
  -5   1   2  820.22   27.00
  -4  -2  10    4.60   15.40
  -4  -1  15  182.08   22.30
  -3  -2   6  378.96   21.60
  -2   2  -2 1653.33   15.70
  -1   5  -5   -2.00    6.10
   0  -2  13  372.96   17.90
   3   9  -7  422.66   23.30
   4   1   1   54.09   11.50
   4   4  -3  520.65   25.60
   4   8  -6  251.17   22.80
   5   2   1  274.87   16.80
   6   2   4   22.80    9.70
  -9   4   8   72.79   17.50
  -9   6   4   -6.80   14.60
  -9   8   2   19.50   14.40
  -8   2   9  172.28   23.40
  -8   2  10   78.39   20.60
  -8   2  11   32.40   21.40
  -8   2  12    5.80   18.50
  -6   0   7   10.80   18.40
  -6   1   4    0.30   15.30
  -5   0   4    5.70   13.80
  -4   6  -4  231.58    7.40
  -2  -2   5   78.09   12.90
  -2  -1  16   31.90   16.60
  -2  12  -8   -2.20    6.00
  -1  -1  16   59.69   15.00
   0  14  -9   15.30   11.30
   2   5  -5  198.28   15.50
   3   7  -6 1088.89   33.90
   4   5  -4   94.09   19.10
   5   4  -2 1735.53   43.60
   5   5  -3 1262.67   41.00
   7   3   6   59.89   11.70
   7   3   7    0.20    9.00
  -9   4   9   45.00   15.80
  -7   1   8   76.29   19.50
  -7   1  13   -7.20   17.60
  -6   0  13   -3.10   17.20
  -6   3   1    6.80   11.20
  -5  -1   8   22.30   18.70
  -5  -1  12   51.69   19.60
  -3  -2   7  174.78   17.10
  -2  -2  13  317.37   22.80
   1  10  -8   36.60   11.70
   2   1  -1   20.70   11.20
   5   6  -4  227.88   24.70
   7   3   5   -3.30    9.30
   7   4   2    8.20    8.90
  -8   5   3   41.60   18.10
  -7   1   9    4.70   16.60
  -7   1  10   -2.10   17.60
  -7   1  11    0.80   19.50
  -7   1  12   -3.20   17.90
  -7   2   5  772.92   31.40
  -7   7  -1  117.09   11.60
  -6   0   8   -2.20   18.00
  -6   0  12   57.19   18.30
  -5  -1   9   22.60   17.60
  -5  -1  10  538.35   29.10
  -5  -1  11   22.20   17.30
  -5   6  -3   52.09    7.40
  -3  -2  11  418.96   25.30
  -3  -1  15   19.40   15.30
  -1  -1   2  224.08   13.30
   0  10  -8  239.68   14.30
   1   6  -6    3.60    7.90
   1  13  -9    1.10   11.60
   2  10  -8  101.69   15.00
   3   3  -3  854.91   26.90
   4   0   3   14.00    6.90
   4   6  -5    1.10   16.00
   5   3  -1  135.89   16.50
   6   5  -2   58.49   16.10
   7   3   9   12.10    8.00
  -9   5   7  -36.90   17.00
  -8   3   7   -8.60   17.10
  -8   6   2    8.20   15.90
  -8   7   1    8.60   13.60
  -6   0   9   -4.40   17.50
  -6   0  10 1200.08   40.20
  -6   0  11   12.40   19.20
  -5   2   1  263.07   17.50
  -3  -2   9   19.40   15.80
  -3  -2  10   -4.80   14.50
  -2   7  -6  288.87    8.00
  -2   9  -7  149.69    7.70
   0  -1  15   -7.40   12.60
   0  13  -9   -1.50   12.00
   1  -2  11   13.20    8.90
   3   0  14    0.50    5.90
   3   4  -4   17.50   12.60
   4   2  -1  175.98   14.80
   5   7  -5  232.18   22.60
   6   4  -1   68.79   14.10
  -8   3   8   45.00   20.90
  -8   4   5  234.58   22.80
  -8  10  -1   20.40   10.00
  -7   5   1  575.54   25.50
  -6   1   5  173.88   20.20
  -6   2   3    1.20   14.40
  -6   8  -3  919.41   19.70
  -5   0   5  211.98   19.50
  -4  -1  13   39.70   18.70
  -4   0   3    2.00   11.30
  -2  -2   6  214.98   15.40
  -2  -1  15  138.19   17.00
  -1  -2   5 2837.02   36.60
  -1  14  -9   31.10    9.60
   2   6  -6  219.18   17.10
   3  -1  11  498.65   10.10
   3   2  -2  736.93   23.30
   3   5  -5   76.59   15.30
   3   8  -7  253.37   20.40
  -9   5   8   17.40   16.50
  -9   8   3    6.70   16.30
  -8   3   9  119.69   21.90
  -7   3   4  771.72   32.30
  -6  10  -4   93.09    7.70
  -5   0  14   17.10   18.60
  -4  -1   6  159.88   18.20
  -3  -1   4 1083.09   28.30
  -3  -1  14   11.80   17.60
  -1  -2  12  108.39   15.80
  -1  -1  15   38.10   15.10
  -1   8  -7   15.10    7.80
   0  -2   5 2788.92   30.60
   4   7  -6  511.25   27.50
   5   2   0   28.30   12.70
   7   4   1   55.99   11.70
  -7   9  -2    9.30    9.60
  -6   1  14   19.80   20.00
  -5   1   3   31.40   13.40
  -5   5  -2  124.69   12.10
  -4  -1  12  231.88   23.30
  -2  -2   7  385.16   21.00
  -2  -1   3   14.50   11.40
   1  -1  14  116.89   12.00
   1   0   0   -3.10    4.80
   1  12  -9   36.40   11.20
   5   0   7   -4.10    6.00
   6   2   2   31.30   11.80
   6   3   0  106.59   14.90
   7   3   3  195.68   15.50
  -7   2  13   56.99   18.40
  -6   1  13   95.29   22.80
  -5   0   6   11.90   14.20
  -5   0  13   32.90   18.90
  -4  -1   7  202.88   18.60
  -4  -1  11   46.20   18.80
  -4   0  15   -5.70   16.50
  -4   2   0    5.70    6.20
  -3   0  16    4.90   16.00
  -2  -2  10    0.60   10.60
  -1  10  -8  564.34   16.40
   0  -2  11   12.30   12.10
   1  -2  10    4.70    8.70
   1   9  -8   48.00   12.10
   2   0  15   -2.90    9.20
   3   0   1 3901.71   37.60
   3   6  -6  224.88   19.50
   5   0   8    5.80    6.10
   5   4  -3   63.39   16.70
   5   5  -4  215.68   22.20
  -9   7   5   73.49   17.00
  -7   2  11   -0.10   19.50
  -7   2  12    5.40   18.30
  -6   3   2   55.39   13.80
  -5   0  12  -12.80   20.00
  -4  -1  10    5.00   15.10
  -2  -2   8  854.71   26.70
  -2  -1  14   17.90   14.50
  -2   0   1   22.10   10.70
  -1  -2   6   25.10   11.20
  -1  -2  11   83.69   13.80
  -1  13  -9   11.90    8.80
   0  -1   2  253.67    8.90
   0  12  -9   20.90   10.10
   2   9  -8  240.48   17.40
   4   1   0   76.09   12.40
   4   8  -7  237.88   21.60
   5   0   6  -11.20    7.40
   5   6  -5   -7.40   16.10
   6   1   6   28.10    8.80
   6   1   7  383.56   14.90
   8   4   6  138.09   13.20
   8   4   7    8.50    7.90
  -8   4   7   13.20   16.80
  -8   8   1   66.29   14.10
  -7   2   9  122.69   19.80
  -7   3   5    7.70   16.80
  -7   4   3  217.38   19.90
  -6   1   7   10.20   16.50
  -6   2   4  276.67   20.30
  -5   0   7   28.70   14.70
  -4  -1   9   25.50   15.60
  -3  13  -8   35.30    5.20
  -2   0  16  240.28   21.80
  -2  11  -8    0.20    5.50
   0  -1  14   82.29   15.30
   0   0  16    5.40   13.30
   1   3  -4 5097.09   48.20
   4   3  -3   35.30   13.30
   4   4  -4   46.20   14.70
   4   5  -5   54.19   14.80
   5   3  -2   44.80   14.40
   6   1   8   83.69    9.20
   7   3   2   91.09   13.20
  -9   6   8  111.49   18.70
  -9   8   4   21.50   13.40
  -9   9   3   98.29   17.10
  -8   4   8   48.00   17.00
  -8   5   5   30.80   15.50
  -8   7   2   33.70   14.30
  -8  11  -1    0.90    8.60
  -6   1   8    2.20   18.40
  -6   1  10   17.20   19.10
  -6   7  -2  401.66   15.80
  -5   0  11 1265.17   41.20
  -4   0   4  425.36   21.10
  -3  -1   5  242.88   17.70
  -1  -1  14   20.90   13.90
  -1   0  16   -0.50   13.50
   0   9  -8    4.80    9.10
   2  11  -9   42.10   11.50
   5   0   5   74.39    9.70
  -8   4   9   33.20   18.20
  -8   4  10   66.99   20.60
  -8   4  11   31.80   21.20
  -7   8  -1  432.56   18.70
  -5   0   9  619.54   30.00
  -5   8  -4   78.09    6.30
  -4   1   2  205.28   15.40
  -3  -1  12  635.74   30.40
  -3   0  15   15.90   16.00
  -1  -2   7   36.30    9.10
  -1  -2   8    0.70   12.00
  -1  -2   9   -8.00   11.70
   0   7  -7  427.46   16.30
   1   2  -3 3043.00   33.60
   1   4  -5 1083.79   25.20
   2   3  -4 1319.97   29.30
   2   4  -5   50.29   11.60
   3   7  -7  947.81   31.60
  -7   3  13   82.49   22.70
  -7   6   1   26.80   14.00
  -6   2  14  157.18   22.70
  -6   6  -1  229.28   14.70
  -5   1  14    6.70   18.80
  -4   0  13   40.60   20.10
  -2  -1  13   32.70   17.80
   1  -1  13   40.70   10.10
   4   2  -2  345.57   17.70
   5   1   1   57.49    9.50
   5   2  -1  261.67   18.20
   6   1   4  347.57   16.70
   6   3  -1   10.60   12.40
   7   2   6    1.60    8.80
   7   2   7    0.10    9.30
  -9   8   5   81.99   16.90
  -8   5   6   78.49   17.90
  -7   3   7   -1.60   15.00
  -7   3  12   92.19   25.80
  -7   4   4  328.87   23.40
  -5  10  -5  196.08    7.10
  -3  -1   6   16.90   13.30
  -3  -1  11  328.07   24.30
  -2  14  -9    9.80    6.60
  -1  12  -9    6.90    8.20
   0  -2   7   93.19    9.90
   0   3  -4 3802.52   32.90
   0  11  -9  353.76   16.50
   2  -1  12  115.69    8.80
   2   0   0 1573.44   21.10
   2   5  -6    7.80   12.90
   6   1   9  370.46   11.50
   7   2   5  354.36   17.40
   7   3   1   -2.30   10.60
  -8   5   7   29.70   18.40
  -7   3  11  -11.30   18.10
  -7  10  -2   52.59   10.60
  -7  12  -3   -6.40    7.50
  -6   2  13   39.20   17.30
  -5   1  13   22.60   18.80
  -4   0   5  -14.90   13.80
  -3   0  14    7.10   17.30
  -3   1  16   13.20   15.10
  -3   3  -2   25.10    6.30
  -2   0  15   25.30   14.20
  -1  -1  13   69.09   15.80
   0  -2   8  262.07   14.80
   1   0  15  109.09   14.80
   2  10  -9   98.39   13.20
   3   3  -4   -3.40   10.40
   4   7  -7  409.76   24.70
   5   0   4    4.30    8.30
   7   2   8  109.19   10.60
  -8   5   8    4.30   18.30
  -8   7   3   -5.10   15.00
  -8   9   1   18.70   12.10
  -7   3   9   66.49   19.00
  -7   3  10  245.08   24.50
  -6   2   6   66.89   19.90
  -6   2  12    1.90   20.60
  -5   3   1  118.39   16.40
  -4   0  12  283.67   24.50
  -3  -1   8  825.82   29.30
  -3  -1   9  375.96   23.10
  -3   4  -3   33.30    5.00
   0  -1  13    3.60   10.80
   0  14 -10   33.80   11.10
   1   8  -8   18.40   10.20
   1  10  -9  190.68   14.70
   3   5  -6  178.68   17.80
   5   4  -4   12.50   14.10
   6   1   3   14.40    9.60
   6   4  -3   62.19   16.80
  -8   5   9   11.00   18.30
  -8   5  10  131.29   22.40
  -8   5  11   32.10   21.10
  -7   4   5  336.77   24.20
  -7   5   3   79.49   17.70
  -6   9  -3   16.60    6.70
  -4   0   6  214.28   19.70
  -4   0  11  -13.00   18.40
  -1  -1   3  547.85   16.50
  -1   0  15   10.60   15.90
   0   0  15    0.20   12.80
   3   2  -3 1503.35   31.20
   5   3  -3  177.08   18.30
  -7   4  13  121.79   23.30
  -6   2   7  589.94   29.40
  -6   2   8   13.50   15.90
  -6   2  11   37.90   18.80
  -6   3  14   48.10   21.30
  -6   4   2   37.50   15.40
  -6  11  -4    5.70    6.20
  -5   1   6   70.39   18.50
  -5   1  11   15.50   18.40
  -5   2   3   31.80   14.60
  -4   8  -5    2.30    3.30
   0   2  -3    2.00    6.10
   2   0  14   90.19   12.90
   2   6  -7   86.99   14.40
   3  -1   3  159.48    7.20
   4  -1   6  163.98    6.50
   4   1  -1   17.00    9.00
   6   3  -2   73.59   13.80
   7   3   0  178.18   16.50
   8   3   5   77.79   13.40
   8   3   6   99.79   12.40
  -8   6   6  243.78   22.30
  -8   7   4  183.48   21.50
  -8  11   0   -1.70   10.10
  -7   4   6    0.90   14.60
  -7   9  -1   -4.10    8.80
  -6   2   9   19.30   16.40
  -6   3   4   -8.40   15.10
  -5   2  14   85.59   20.90
  -4   0   7    8.70   14.10
  -4   0  10   83.19   18.00
  -4   2   1  199.38   14.20
  -2  -1   5   70.39   12.50
  -2   0  14   39.00   16.20
  -2   1  16   47.40   16.80
  -1  -1  12   57.29   14.90
  -1   9  -8  184.28   10.40
   2   1  -2  734.43   20.00
   3  -1  10  841.62   12.70
   3   0  13   11.70    6.40
   3   6  -7  170.48   18.10
   4   0   1   -2.30    8.50
   5   0   3   20.70    9.40
   5   1   0  719.43   23.10
   7   2   9    6.80    7.20
   8   3   4   62.29   13.20
   8   3   7   49.99   11.00
  -8   6   7   19.60   17.80
  -7   4  12   21.20   19.70
  -5   1   8   51.49   19.70
  -5   1   9   -8.50   18.30
  -5   7  -3  219.58   11.20
  -3   1  15   28.50   16.90
  -2  13  -9   47.00    6.90
   0   5  -6   41.80    8.60
   0   8  -8   15.50    9.30
   0  13 -10   66.29   11.60
   1  -1  12    7.80    9.20
   1   1  -2  219.28   11.10
   1  12 -10  263.57   17.10
   3   0   0   -8.30    9.70
   5   2  -2   81.79   13.50
   6   1   2   39.70   11.40
   7   2   2   30.50   10.70
   8   3   3   26.60   11.80
  -8   6   8   13.80   18.10
  -8   8   3   77.09   16.70
  -7   4   8  182.78   24.30
  -7   4  11  109.49   24.60
  -7   5   4  231.78   21.60
  -7   7   1  159.88   18.10
  -4   1  13   34.10   18.70
  -3   0  12  -34.30   17.00
  -1   1  16   34.10   16.60
  -1   7  -7  190.78    9.60
   0  -1  12   -2.20   11.50
   0  10  -9   15.90    7.90
   3   9  -9  534.15   23.90
   4   6  -7  108.99   15.50
  -8   6  10    9.40   14.90
  -8   9   2  150.98   17.10
  -7   4   9   37.60   19.40
  -6   3   5  251.17   21.70
  -6   3  12   15.30   20.90
  -6   8  -2  766.12   21.10
  -5   2   4  425.16   23.90
  -3   0   4   -6.20   11.50
  -2  -1   9  500.55   25.40
  -1   0  14    2.50   15.30
  -1  11  -9  238.68   11.50
   0   1  16  -15.10   13.30
   3   1  -2 5323.47   52.49
   3   7  -8   12.40   14.30
   4   2  -3 1346.07   32.40
   6   1  10    8.20    4.60
   6   2  -1   65.29   14.20
  -6   4   3   47.30   16.80
  -6   7  -1  383.06   18.20
  -3   2  16   17.60   15.00
  -3  12  -8   39.50    4.10
  -2  -1   7 2014.60   39.10
  -2  -1   8 1229.68   32.80
  -2   0  13  -22.60   19.50
  -2  10  -8  524.15   12.00
   0   0  14   25.20   13.00
   1   0  14    2.10    9.70
   1   9  -9   20.50   10.30
   2  -1  11  362.76   12.50
   5   4  -5   62.49   16.40
   7   2   1   58.79   12.80
  -8   7   6   58.29   19.80
  -8   8   4    9.90   16.30
  -7   5   5  213.78   20.90
  -7   5  12   83.69   26.50
  -6   4  14   99.49   21.30
  -5   2  12   13.50   19.20
  -5   3   2   41.20   13.10
  -5  13  -6   -0.90    4.00
  -4   1  12  272.97   26.50
  -3   0  11 1647.94   44.50
  -2   1  15  157.78   18.80
  -2   8  -7   69.69    4.90
   1   7  -8  136.59   13.40
   4   7  -8   44.50   14.60
   5   5  -6   91.19   18.70
  -8   7   7  196.78   23.90
  -7   5   6   -8.80   16.80
  -5   2   5  579.64   27.20
  -5   3  14   56.49   22.30
  -4   2  14   72.19   23.10
  -3   0   5   24.20   12.40
   0  12 -10   13.60    9.00
   1  11 -10  128.89   13.00
   5   3  -4  222.58   17.70
  -8   7   8   31.50   17.90
  -8   7   9   -6.90   15.30
  -8   7  10    9.60   17.60
  -8   9   3  205.08   19.30
  -8  10   2  214.78   21.10
  -7   5  11  156.58   24.40
  -7   7   2    2.80   16.20
  -7  10  -1   -1.80   10.30
  -6   3   8  -12.70   15.70
  -6   4  13  -10.80   18.30
  -5   2  11   87.39   18.30
  -4   1  11   59.19   19.50
  -3   0  10    8.20   15.80
   1  -1  11   50.49   10.40
   2   1  15   19.50   11.60
   2   3  -5   67.19   11.90
   2   4  -6   60.69   11.40
   3   3  -5   47.20   11.40
   3   4  -6   99.89   14.90
   3   8  -9   95.19   14.90
   5   1  -1    4.10    9.80
   7   3  -2  154.68   17.40
  -7   5   7   21.10   18.90
  -7   5   8   -2.70   16.30
  -7   5   9  422.06   27.10
  -7   5  10   93.99   21.80
  -7   6   4   54.79   18.40
  -7   8   1   29.40   15.00
  -6  10  -3   48.10    8.00
  -6  12  -4    3.10    6.60
  -5   2  10   11.30   18.10
  -4   1   5    1.20   14.90
  -4   2   2  335.27   18.40
  -4  10  -6  319.97    6.50
  -3   0   9  347.87   23.30
  -3   1   2 4785.22   50.69
  -3   2  15   10.70   17.60
  -2   2  16  132.89   19.60
  -1   0  13  129.79   18.60
  -1   1  -1  419.36    7.10
  -1   1  15   17.40   15.40
   2   8  -9   66.09   12.60
   3   5  -7  224.98   20.10
   4   0   0   15.30    8.30
   4   1  -2  215.88   15.00
   5   2  -3   37.50   11.10
   7   1   5  112.09   12.10
  -6   4  12   30.80   18.90
  -5   2   7  637.24   28.20
  -5   2   9   19.10   18.50
  -5   3  13   51.19   20.40
  -4   1  10   11.70   16.20
  -4   2  13   69.99   21.40
  -3   0   7 2615.64   47.50
  -3   0   8    6.30   14.10
  -2   1  14    6.00   16.60
  -1  -1   9   14.20   13.00
   0   1  15   -3.40   15.30
   2   0  13   -5.60    7.90
   2   2  -4  687.33   21.20
   2   5  -7   63.09   12.60
   3   2  -4  139.39   13.60
   4   3  -5  857.21   28.40
   7   1   4  538.75   19.50
   7   1   6    3.40    8.10
  -8   9   4    5.00   15.40
  -7   6  12  -17.80   20.00
  -5   3   3  206.68   18.30
  -5   4   1   11.20   11.20
  -5   9  -4   66.09    6.90
  -4   1   7  161.78   19.20
  -4   1   9   30.20   16.70
  -3   3  16   33.60   16.60
  -2  12  -9   14.70    5.00
  -1  -1   5 2117.99   31.70
  -1  13 -10    3.50    6.50
   0   0  13   -6.90   13.80
   0   9  -9  182.88   11.80
   1   1  15   44.10   13.20
   1   4  -6   15.40    9.70
   3   6  -8  158.38   18.20
   4   5  -7  112.29   17.30
   6   0   5   -9.40    7.50
   6   0   6  105.89   10.70
   6   4  -5   44.60   16.70
   7   1   3  270.17   15.40
   8   2   4   55.19   12.40
   8   2   5    7.50    9.10
  -8   8   7  -11.20   17.00
  -8   8   8  -30.40   17.80
  -8   8   9   23.40   16.60
  -8  10   3  104.19   16.50
  -6   4   5   49.70   16.00
  -6   4  11   -1.90   17.70
  -5   3  12  -21.90   20.00
  -2   0  11    8.50   12.40
  -1   2  16   55.09   16.90
   1   0  13  228.08   14.50
   1   8  -9   44.50   10.80
   4   6  -8    3.00   14.30
   6   0   4  327.37   14.90
   6   3  -4   -6.20   13.40
   7   1   7    1.90    7.60
   8   2   3   40.70   10.60
   8   2   6   -5.20    8.70
  -8   9   5   10.90   15.50
  -8  11   2    4.70   14.30
  -7   6   6   59.99   20.80
  -7   6  11   38.00   18.40
  -6   5  13   21.80   18.20
  -6   9  -2  281.97   14.20
  -5   4  14   53.19   19.40
  -4   2  12   49.00   19.80
  -1  -1   6   12.40    9.10
  -1  -1   7   74.09   12.70
  -1   0  12    2.20   14.00
  -1  10  -9  317.07   12.30
   0  -1   3  295.97    9.60
   0   7  -8   39.90   10.00
   0  11 -10  227.78   13.20
   1   5  -7 1918.91   34.20
   1  10 -10   51.39    9.20
   2  -1  10   12.50    7.20
   2   0  -1   15.80    9.60
   3   0  -1  142.99   11.50
   3   1  14    1.70    8.50
   5   4  -6  325.77   24.00
   5   5  -7   73.39   17.40
   7   1   2    6.40    9.00
   8   2   2   16.10   10.20
  -7   6   7  -10.80   15.60
  -7   6   9  132.19   22.40
  -7   6  10  410.16   29.50
  -7  11  -1  102.79   12.40
  -6   4   7   24.30   17.50
  -6   4   9  108.09   20.10
  -6   5   3  112.79   17.00
  -5   3   4  190.48   18.50
  -5   3  11   98.59   20.90
  -4   2   3 1121.19   29.70
  -4   3  14   36.90   19.70
  -2   2  15   34.50   15.70
  -1   1  14    3.70   14.10
  -1   8  -8   68.09    8.10
   0   2  16   -6.40   14.10
   1   2  -4  723.23   19.30
   3   0  12   14.10    6.90
   6   0   3    0.30    9.70
   6   0   7   -0.50    7.20
   8   2   7   11.20    8.10
  -8  10   4  152.68   18.20
  -7  13  -2   -6.00    9.20
  -6   5  12   -8.90   15.90
  -6   8  -1   63.69   10.90
  -4   7  -4   68.39    6.50
   2   9 -10  380.46   18.60
   4   0  11   -1.30    4.70
   6   1  -1 3358.26   52.79
   6   2  -3   13.60   12.40
  -8   9   8   34.70   16.00
  -8  11   3  116.09   18.50
  -7   9   1   74.89   14.40
  -5   3  10    9.40   17.70
  -5   4  13   15.20   19.00
  -4   2  11  -13.00   17.20
  -3   1   3 2221.48   37.10
  -3   3  15   49.50   19.10
  -2   3  16   51.89   18.40
  -1   4  -5 1955.50   19.40
   1  12 -11   -2.10    9.90
   2   1  -3   -2.40   10.70
   2   7  -9  115.29   14.30
   3  -1   9   50.19    5.30
   4   1  13    5.30    5.90
   5   2  -4  404.56   21.70
   6   0   2   81.79   11.30
   7   1   1    9.10    9.60
   7   1   8  116.59    9.20
   8   2   1  200.38   15.50
  -8  10   5   11.30   16.20
  -7   7  11    6.70   18.90
  -6   5   4   40.20   15.10
  -6   5  11   11.40   17.60
  -6  13  -4    0.20    7.00
  -5   3   5  933.41   31.00
  -5   3   9  -13.90   15.20
  -5   4   2 1690.03   36.60
  -5   8  -3  174.38   10.60
  -4   3   1  164.38   13.20
  -4   3  13   34.90   16.10
  -3   2  13   92.29   20.30
  -2   0   4  983.70   24.50
  -2   0   9   -2.10   12.10
  -1  12 -10    3.40    7.20
   0   0  12  129.29   14.80
   0   1  14   67.39   13.40
   4   0  -1   -7.00    7.90
   4   1  -3 2659.63   42.20
   7   2  -2   16.40   11.60
  -6   6   2  214.38   18.40
  -6   6  13  -16.40   19.70
  -6  11  -3    5.60    6.60
  -5   3   6 1966.70   44.30
  -5   3   7   79.59   17.10
  -5   3   8  318.67   23.60
  -5   4  12  121.79   24.20
  -5   5  14   27.40   16.30
  -5   7  -2  291.47   14.90
  -4   2  10    3.60   17.90
  -3   1  10  220.78   20.80
  -1   2  15   15.10   13.40
   0  13 -11   17.40    8.80
   2   1  14   80.69   12.70
   3   3  -6   13.50   14.10
   3   4  -7  732.43   26.90
  -8  10   6   -6.40   14.90
  -8  11   4    8.40   13.10
  -7   7   6  113.59   19.50
  -7   7   7    8.90   18.00
  -7   7   8  147.89   22.60
  -7   7   9  178.08   22.70
  -7  12  -1   -2.60    8.70
  -6   5  10  206.88   21.70
  -3   1   4  945.41   26.50
  -2   0   8 2085.99   40.90
  -2   2  14    1.80   15.30
  -1   1  13   85.19   16.60
   0  -1   8  110.19   12.30
   2   0  12   16.80    8.40
   3   5  -8    4.40   14.10
   3   8 -10  119.79   14.80
   4   3  -6   17.00   13.10
   4   5  -8  238.18   21.60
   7   1   0   17.90   10.40
  -7   9   2  361.46   22.20
  -6   5   6   29.50   17.10
  -6   5   8  121.09   20.40
  -6   5   9   35.60   18.10
  -6   6  12   25.50   19.90
  -4   2   5   39.20   14.50
  -4   2   9    8.60   15.80
  -4   3  12   20.90   21.20
  -4   4  14   94.59   20.60
  -3   1   9  378.56   22.60
  -2   0   5  -14.00   10.30
  -2   0   7  -35.60   13.10
  -1   3  16    8.60   13.80
   0   8  -9   -2.20    8.80
   0  10 -10  176.18   11.90
   1  -1   9   17.60    9.40
   1   0  12   -2.50    9.40
   2   4  -7   42.80   14.10
   3   2  -5    8.20    9.80
   5   1  -3   22.60   10.40
   5   4  -7  300.27   22.10
   6   1  -2  122.39   15.10
  -8  11   5  -13.40   14.20
  -7   8  11   48.00   21.30
  -7  10   1  187.28   17.20
  -6   5   7   30.70   15.60
  -6   6   3  121.19   17.90
  -5   4   3   68.89   13.60
  -5   5  13   17.70   17.40
  -4   2   6 1384.06   36.30
  -4   2   7  364.56   22.60
  -4   2   8  336.77   23.30
  -3   2  12  383.56   24.60
  -2   0   6 1576.04   32.50
  -2   1   1   18.00    9.60
  -2   3  15   12.70   15.10
   0  -1   4 2432.56   25.40
   0   2  15  265.17   20.60
   0   4  -6  140.29    9.90
   1   0  -1 4455.55   28.50
   1   7  -9  290.37   16.20
   1  11 -11  254.87   16.00
   2   8 -10   -0.70    9.80
   2  10 -11  150.68   14.10
   3  -1   1  821.72   16.30
   4   2  -5   37.20   12.40
   4   6  -9  164.48   17.30
   5  -1   4  208.28   10.90
   5  -1   5   63.39    7.90
   5   3  -6 1910.31   44.80
   6   0   8 1675.33   18.50
   6   2  -4  268.87   19.60
   7   2  -3   53.09   13.50
  -7   8  10   -6.10   18.90
  -6   6  11   -7.40   18.20
  -6   7  13   44.40   20.20
  -6  10  -2   23.50    7.70
  -5   5   1 1555.34   33.40
  -3   1   5  235.58   17.50
  -3   1   6   13.00   14.30
  -3   1   7  434.56   22.90
  -3   4  15    1.40   17.20
  -2   1  11  -20.10   15.90
  -1   0  10  -20.90   10.20
   0  -1   7   -5.90    6.60
   1   2  15  142.09   16.70
   2  -1   9   23.00    6.90
   2   2  15    8.30   12.60
   2   5  -8 1374.96   33.60
  -7   8   5   75.59   18.10
  -7   8   9   42.40   19.80
  -7  13  -1  106.89   12.30
  -6   9  -1   66.89    9.90
  -5   4  10  158.88   22.10
  -5   6  14   43.40   19.50
  -4   3   2  153.78   14.10
  -4   3  11   63.59   18.90
  -2   4  16   41.10   16.30
  -2   9  -8   10.50    4.70
  -2  11  -9   40.80    5.30
  -1   6  -7    7.30    5.80
   0  -1   5  298.17   12.30
   0   0  11   -4.40   11.00
   0   3  -5  387.16   12.80
   0  12 -11  152.98   11.90
   1   1  -3  486.75   14.80
   2  -1   1  739.03   12.00
   2   2  -5   77.89   11.60
   3   0  -2  -11.70    9.60
   5  -1   3  100.59    9.50
   5   2  -5  615.24   25.80
   8   1   3   21.80   10.40
   8   1   4   30.20   10.70
  -7   8   6   34.10   16.40
  -7   8   7   35.90   17.70
  -7   8   8  -10.00   17.20
  -7   9   3   59.79   16.10
  -6   6   4   99.39   15.70
  -5   4   4   -9.90   12.40
  -4   4  13    9.80   16.00
  -3   2  11  430.26   26.50
  -3   3  13   55.09   20.10
  -1   2  14  196.08   19.40
  -1   9  -9   63.39    8.10
   0   1  13    7.50   14.40
   4  -1   1   44.50    7.30
   4   0  -2  879.71   23.80
   5  -1   6    9.70    5.50
   7   1   9    0.20    5.40
   8   1   2  168.48   13.50
   8   1   5    2.50    8.60
  -7  10   2   77.59   16.10
  -6   6   9  239.38   22.60
  -6   7  12   12.10   17.50
  -6  12  -3   32.70    8.90
  -5   4   5   68.39   16.30
  -5  10  -4    7.50    6.00
  -1   0   2    3.10    8.90
  -1   0   9  702.43   25.80
   3   1  -4 1068.49   26.70
   3   7 -10    1.40   11.90
   4   1  -4  498.95   21.70
   7   0   4   -0.90    7.80
  -7   9  10  -12.50   17.50
  -7  11   1  234.28   17.20
  -6   6   5    6.50   13.40
  -6   6   6   76.59   18.50
  -6   6   8  255.37   23.20
  -5   4   6  281.07   19.90
  -5   4   7  303.37   23.70
  -5   6  13  115.69   19.50
  -4   3  10  138.69   20.20
  -4   5  14    5.10   16.40
  -4   6  15   14.20   18.70
  -2   1  10   70.39   13.90
  -2   3  14    0.00   16.20
  -1   3  15   14.40   14.50
   0   6  -8  517.65   17.90
   1  10 -11  198.48   14.30
   2   0  -2   61.79   11.30
   3   1  13   48.00   10.00
   6   2  -5  934.91   32.40
   7   0   2    4.40    9.20
   7   0   5   18.60    8.00
   8   1   6    0.50    8.60
  -7   9   9   24.70   16.40
  -6   6   7    4.30   14.00
  -6   7  11   15.50   20.40
  -5   5   2   35.60   11.70
  -5   7  14   23.70   20.00
  -4   3   3   26.60   13.00
  -3   2  10   19.50   15.30
  -2   6  -6   67.69    3.60
   1   0  11   41.30   10.70
   1   3  -6  644.64   19.70
   1   4  -7  112.19   10.60
   1   8 -10   15.40    9.40
   4   3  -7 1956.80   43.20
   5   0  -2    5.00    9.90
   5   1  -4   11.70   11.10
   6   0  -1    5.20   10.20
   8   1   0  213.78   15.70
  -7   9   6   20.70   15.90
  -7   9   7  -19.90   16.80
  -7  10   3  240.68   21.50
  -6   7   3  376.16   22.80
  -6   8   1   39.20   13.40
  -6   8  12   13.00   23.30
  -4   3   9   49.99   17.20
  -3   2   2  807.02   22.50
  -3   3  12  179.78   21.50
  -2   4  15   18.90   15.70
   0   2  14   38.80   14.70
   0   9 -10   41.20    9.60
   2   1  -4   64.49   11.30
   2   1  13    7.30    9.90
   2   7 -10   21.50   10.30
   3   0  11  296.47   11.10
   3   3  -7  536.05   23.30
   3   4  -8  107.69   14.80
   4   5  -9   98.99   17.70
   5   3  -7   45.60   17.80
   7   0   1   17.60    9.30
   7   0   6    2.20    7.50
  -6   7  10  196.68   22.20
  -6  11  -2   51.09    9.70
  -5   5  10   48.80   18.40
  -5   6  12  254.27   24.50
  -4   3   8  260.67   22.60
  -4   5  13    5.70   19.40
  -1   0   8   -7.20   11.00
  -1   2  13  573.14   27.30
   1  12 -12   13.90   10.50
   2   0  11   -0.30    7.50
  -7  10   4    8.40   15.90
  -7  12   1  -13.50   12.70
  -6   7   9  212.28   23.40
  -6  10  -1   82.69   11.60
  -5   9  -3   14.30    7.20
  -4   3   4  108.19   15.70
  -3   4  -2  122.49    8.20
  -1   7  -8   37.70    6.90
   0   1  12   38.40   12.30
   0   2  -4  318.47   10.50
   0   3  15   23.00   14.30
   0  11 -11  146.59   11.00
   3   2  -6  381.16   19.50
   5   2  -6 1170.98   35.90
   6   1  -4   -7.20   12.00
   7   0   0    3.80    9.30
   7   1  -3    8.60   11.50
   8   1   7   10.20    7.50
  -7  10   8    3.90   18.40
  -7  10   9   12.60   15.30
  -6   7   4  204.08   18.40
  -6   7   8   -6.20   14.50
  -6   8  11   13.90   20.30
  -6  13  -3    1.70    8.40
  -5   5   9    4.70   15.70
  -5   7  13    4.00   16.00
  -4   3   6    0.90   13.70
  -4   4   1 1497.55   30.50
  -4   6  14    1.70   16.20
  -3   4  13  -15.90   16.70
  -1   0   7    8.60   11.60
   0   7  -9   48.50   10.20
   1   2  -5 2758.02   34.40
   1   2  14  399.96   20.70
   1   6  -9    7.30   10.90
   2  -1   8   49.50    7.40
   3   2  14   74.69   11.90
   4   0  -3    4.40    9.10
   6   0  -2 2043.10   40.50
  -7  10   6   10.90   16.80
  -7  11   3  105.39   16.70
  -6   7   5   45.10   15.90
  -6   7   6  390.46   25.00
  -6   7   7  539.85   28.50
  -6   9  12   34.20   21.80
  -5   5   4  169.88   16.30
  -5   5   8   13.90   16.70
  -5   6   1   17.50   11.80
  -5   6  11  130.19   23.20
  -3   2   3 1511.05   30.90
  -3   2   8  732.73   28.10
  -3   3  11   37.40   17.10
  -2   1   8 1248.88   32.60
  -2   2  11  234.98   20.10
  -2  13 -10    0.00    4.90
  -1   0   3  307.97   13.20
  -1   3  14  595.44   27.70
   2   2  14  248.58   16.70
   2   3  -7  445.76   20.20
   3   0  -3 4679.23   50.19
   3   6 -10   -2.30   11.60
   4   1  -5   15.30   14.30
   5  -1   0  748.43   22.00
   5   0  -3   83.19   12.40
   6  -1   3   -1.60    8.90
   6  -1   4  356.46   14.00
   6   2  -6   74.49   16.80
  -6   8  10   32.20   19.10
  -5   5   5  146.19   18.00
  -5   5   6  100.99   19.70
  -4   5  12  591.94   31.70
  -4   9  -5   47.90    5.30
  -3   2   7  170.78   17.80
  -2   4  14   17.90   17.40
  -1   0   6  -11.90   11.10
  -1   4  15    1.50   13.40
   1   3  15   37.00   13.10
   1   9 -11   34.70   10.10
   3  -1   8  142.99    6.40
   5  -1   7   60.29    3.80
   5   1  -5  218.18   18.20
   6  -1   2   53.09   10.20
   7   0  -1  553.44   22.50
  -7  11   4   50.49   16.00
  -7  13   1  -10.30   12.40
  -5   7  12  124.49   22.60
  -4   6  13    4.50   18.40
  -3   2   4  116.19   14.10
  -2   1   7 1836.02   37.40
  -2   5  15    2.70   15.30
  -1   1  10   95.59   15.40
   0   0   9   -2.30    9.90
   1   0  10   11.90   10.90
   1  11 -12   15.20   10.60
   2   3  15  229.98   18.70
   3   1  -5  233.78   15.80
   6  -1   1   60.39   11.20
   6  -1   5   26.30    6.50
   7   0   7  376.46   11.70
   9   1   3    5.60    9.90
  -7  11   7  265.67   24.70
  -7  11   8   13.00   16.10
  -6   9   1  114.39   15.00
  -6   9  11   72.29   20.80
  -6  12  -2   20.40    9.20
  -5   8  13  106.99   22.10
  -4   4   9   16.80   16.20
  -4   7  14   -0.80   15.10
  -3   2   5  -14.50   11.10
  -3   2   6  397.76   21.20
  -3   3  10   78.99   18.10
  -1   0   5  209.58   13.10
  -1  10 -10   -1.20    5.70
   0   2  13  382.06   21.80
   1   1  12   12.30   10.50
   1   7 -10   28.80   10.20
   2   2  -6  220.08   14.10
   3   7 -11   -3.80   10.60
   4  -1  -1   22.00    8.40
   4   4  -9   15.30   15.60
   6   0  -3   26.60   11.70
   6   1  -5  143.29   17.40
   8   0   2   85.19   11.70
   8   0   3   11.90    9.80
  -7  12   3    2.00   12.30
  -6   8   4  168.38   19.10
  -6   8   8  167.08   23.10
  -6  11  -1    4.60    9.40
  -6  14  -3    1.20    6.90
  -5  11  -4   11.70    6.80
  -4   4   2  892.51   25.70
  -2   1   4   71.79   12.60
  -2   1   6  864.11   25.40
  -2   2  10   -8.50   12.40
   0   1  11  217.68   17.10
   1  -1   6  366.86   11.70
   2  -1   0  426.76   11.20
   2   6 -10   88.29   13.60
   4   1  12   84.49    8.20
   5  -1  -1   11.70    9.90
   5   2  -7  561.64   27.40
   8   0   1    0.50    8.70
   8   0   4   31.80   11.00
  -7  12   4  -10.20   14.60
  -7  13   2   28.60   15.10
  -6   8   5  771.82   30.40
  -6   8   6   42.80   14.70
  -6   8   7  481.85   28.50
  -6   9  10    1.10   18.10
  -3   5  13  -32.20   17.10
  -2   1   5   78.49   12.60
  -2   7  -7  187.28    5.50
   0   3  14  184.68   17.30
   0  10 -11  158.38   12.20
   3  -1  -1  221.48   12.50
   4   2  -7  430.16   23.70
  -7  12   5   51.09   17.20
  -6  10  11  111.79   24.50
  -5   6   8   13.70   16.90
  -5   8  12   19.00   17.30
  -5   9  13  104.59   25.00
  -4   6  12   37.80   17.00
  -4   7  -3 1546.65   23.80
  -3   3   9  119.69   21.50
  -3   6  14    1.70   17.20
  -1   3  13  -20.20   15.70
  -1   8  -9   84.79    7.70
   0   4  15   11.10   14.40
   0   8 -10   18.70    8.30
   2   0  -3   61.69   11.60
   2   1  12  122.59   11.50
   2   9 -12   89.79   13.80
   3   3  -8   25.10   12.90
   4   0  -4  437.56   19.50
   5   0  -4    1.70   11.80
  -7  13   3   13.00   13.20
  -6   9   9    4.40   16.60
  -5   6   3  621.14   24.40
  -5   6   7   24.90   17.20
  -5   7  10   31.60   16.20
  -4   5  10  923.91   35.80
  -4   8  14    0.90   18.70
  -4  13  -7    1.30    4.00
  -3   4  11   64.99   16.30
  -1   1   9   20.30   11.50
  -1  12 -11   21.70    7.10
   0   0   8 3136.49   43.20
   1   1  -4 1575.14   24.90
   1   2  13  137.59   15.80
   2   1  -5   80.19   11.30
   3   1  12  177.28   11.90
   3   2  -7  238.58   17.30
   5   1  -6   81.09   16.10
   6  -1   6   20.20    6.80
   7   0  -3   33.10   11.60
   8   0  -1   -4.20   10.20
   8   0   5   -0.30    7.40
  -7  13   4   54.69   15.80
  -6   9   8   53.29   19.20
  -6  10   1    6.30   13.40
  -6  10  10  145.99   22.90
  -6  13  -2    6.50    9.00
  -5   6   4  206.58   17.00
  -5   6   5  -11.00   16.50
  -5   6   6   22.50   15.00
  -5  10  -3   -2.50    6.60
  -4   4   4   49.00   13.50
  -4   4   5   12.00   12.70
  -4   4   6  704.33   27.50
  -2   6  15    3.70   16.30
  -2  10  -9   39.00    5.10
  -1   4  14   -3.40   14.80
  -1   5  15   13.30   15.30
   1   0  -2    7.80    7.60
   1   8 -11   26.60    9.00
   1  10 -12  -14.10    9.70
   2   0  10   57.59    9.00
   2   7 -11    4.20    9.60
   3   0  -4    9.30   10.10
   6   0  -4  200.58   17.40
   6   1  -6  286.57   21.50
   7  -1   3  269.07   14.00
  -7  13   5   42.80   15.80
  -6   9   4  556.84   27.60
  -6   9   7  275.07   24.20
  -5   7   1  132.19   14.20
  -5   8  11   97.39   20.90
  -5   9  -2   49.20    9.30
  -3   3   8   27.20   14.10
  -2   3  11  -10.00   15.40
   0   2  12  201.88   18.20
   0   5  -8  258.47   15.50
   1  -1   5  856.01   14.40
   1   3  14  304.17   20.50
   4   0  10    7.90    4.70
   5  -1  -2  864.41   25.30
   7  -1   1   15.20    9.20
  -6   9   5  217.88   22.20
  -6   9   6  314.07   24.40
  -6  10   9   16.60   17.70
  -5   7   9   18.10   14.20
  -5   9  12   11.30   18.50
  -3   5  12   81.89   17.60
   1   3  -7   39.00    8.80
   1   4  15   35.20   13.50
   1   5  -9 1754.62   34.30
   3   6 -11   18.50   11.90
   4   2  13   11.20    8.70
   7  -1   0   14.40   11.10
   7  -1   4  528.95   16.70
  -6  11  10   23.10   17.80
  -6  14  -2    7.00    9.20
  -5   7   8  124.99   20.50
  -4   8  13    0.90   18.00
  -3   4  10  169.98   21.30
  -3   6  13   91.59   19.30
  -3   7  14  234.28   24.20
  -1   1   8  235.78   18.90
   1   1  11   52.39   10.50
   2   2  13   45.30   12.50
   2   3  -8  117.09   15.50
   3   0  10    4.70    6.40
   3   1  -6   -1.50   11.10
   4   3  -9   64.09   16.50
   5   0  -5  209.68   16.80
   5   2  -8  113.79   18.00
   6  -1  -2  106.79   13.80
   7   0  -4    6.50   10.70
   8   0   6   56.69    8.90
  -6  10   8   -9.90   16.00
  -5   7   2  319.67   18.20
  -5   8  10    9.70   15.10
  -4   5   8  189.48   20.00
  -3   3   7  573.34   25.30
  -2   4  12  266.67   22.30
  -2  12 -10   24.40    4.70
   0   0   7   -4.60    9.20
   0   6  -9  606.14   19.10
   2   3  14    4.60   12.80
   2   8 -12   25.50   11.00
   3  -1  -2 5315.37   49.90
   3   2  13  -10.00   10.00
   4   0  -5    1.10    9.90
   4   2  -8  346.47   20.90
   4   4 -10  469.35   26.10
   6   0  -5   -2.20   13.20
   7  -1  -1   44.10   10.40
   9   0   2    8.90   11.90
  -6  10   7   30.70   18.00
  -6  11   9  115.49   21.10
  -5   7   7  119.29   19.50
  -5  10  12   49.50   19.80
  -4   6  10   97.59   19.60
  -3   3   2   15.50    9.80
  -3   3   6    5.70   13.50
  -2   3  10   48.10   18.10
  -2   7  15  190.58   22.00
   0   4  14   97.49   15.10
   0   5  15   21.70   15.30
   0   9 -11   20.80    8.60
   1   6 -10  476.35   19.30
   2   5 -10  291.57   18.90
   5  -1  -3   19.60   11.30
   5   1  -7  184.58   18.80
   7  -1   5   92.59    9.80
   7   0   8   -0.30    4.40
   9   0   3    6.10   11.40
  -6  10   4  119.39   18.90
  -6  10   5  231.78   22.80
  -6  10   6    7.00   15.40
  -5   8   9   -6.10   17.30
  -4   5   7  103.89   18.40
  -3   4   9  149.79   21.70
  -3   5  11  256.47   22.10
  -1   2  10  199.58   16.80
  -1   4  13  286.27   23.30
  -1   5  14   33.70   16.90
  -1   6  15    2.10   14.60
   1  -1   4 2822.92   21.00
   3   3  14   -0.40    9.80
   4  -1  -3 2766.42   42.50
   6  -1  -3  139.79   15.60
  -6  11   8   16.20   18.10
  -5   7   4  240.68   19.60
  -5   7   5  236.78   20.10
  -4   5   2 1916.51   36.10
  -4   7  11   -0.60   16.10
  -4   8  12   65.39   18.30
  -4   9  13   20.80   17.40
  -3   3   3  847.62   24.30
  -3   3   4   -1.80   10.90
  -3   3   5   49.00   12.90
  -3   6  12   -3.40   15.70
  -3   8  14    6.20   18.10
  -2   2   7  400.46   21.50
   0  11 -12    5.40    7.80
   1   9 -12    7.70    9.50
   3   3  -9  103.69   16.30
   4  -2   2  841.72   17.40
   4   1  -7  226.78   19.60
   8  -1   1  265.17   16.40
   9   0   4   -1.20    9.20
  -6  11   2  107.99   16.10
  -6  11   7   11.80   15.10
  -6  12   9   -5.30   16.20
  -5   8   8  209.28   21.10
  -5   9  10   64.89   20.30
  -5  10  11   51.09   22.50
  -5  11  -3   27.40    7.70
  -4   5   6  490.25   24.40
  -4   6   9  159.78   21.50
  -1   1   7   71.99   12.00
  -1   5  -7   47.90    6.60
  -1   9 -10    8.40    5.70
  -1  11 -11   11.00    6.10
   1   2  12  212.58   15.20
   2   1  11  363.56   15.90
   3   0  -5   15.60   10.30
   3   2  -8  733.03   27.40
   5  -2   3 1465.55   22.90
   8  -1   0  185.88   15.00
  -6  11   6   45.00   17.10
  -6  12   8  -21.50   17.00
  -4   5   3   42.90   12.70
  -4   5   4   82.19   14.50
  -4   5   5   14.90   13.50
  -2   4  11   46.00   15.80
   0   0   6   82.29   10.70
   0   1   9 3739.93   49.40
   0   7 -10   34.10    9.00
   1   5  15   68.69   15.60
   1   7 -11   49.50   10.20
   2   1  -6  893.11   25.40
   3   5 -11  241.08   18.50
   5   0  -6   -0.40   13.00
   6   0  -6   46.80   15.50
   8  -1   3   15.20    9.30
  -6  11   5    4.30   16.60
  -5   8   7   97.69   19.60
  -5   9   9  226.18   23.90
  -4   7  10  127.69   20.30
  -4  10  13   98.59   20.10
  -3   5  10   40.40   18.30
  -2   2   1  528.65   16.10
  -2   3  -2  166.38    7.20
  -2   3   9   33.30   16.20
  -2   5  12  352.86   26.20
  -2   8  -8  215.48    5.70
  -1   3  11   58.09   14.70
  -1   6  -8   -2.10    5.50
   1  -1   3  156.88    5.30
   1   3  13  117.99   15.90
   1   4  14   28.00   14.40
   5  -1  -4    9.20   12.70
   6  -1  -4   -0.50   11.60
  -6  12   2    7.60   14.30
  -6  12   7   66.59   18.40
  -5   8   2   -8.10   10.00
  -5   8   6  416.46   26.80
  -5  10  10   39.00   19.90
  -5  11  11    9.00   20.20
  -5  13  -4   85.89   10.00
  -4   8  11   11.50   18.00
  -3   6  11   15.90   17.70
  -3   9  14   39.60   17.60
  -2   6  13   62.09   19.00
  -1   2   9   -6.00   11.90
  -1   7  15  -10.00   14.10
   0   2  -5 2702.03   29.50
   0   3  12    3.60   13.30
   0   6  15   45.10   17.10
   1   1  10  767.82   22.80
   2   0   9    3.10    6.80
   3   1  -7  429.56   20.90
   4  -2   0    1.20    6.80
   4   0  -6  234.98   18.90
   4   3 -10  127.29   18.30
   5   1  -8   24.90   14.90
   6  -2   1   54.19   11.20
   6  -2   2   45.80   10.70
   6  -1   7  393.26    8.60
   8   0   7    0.40    6.10
  -6  12   3  108.59   18.60
  -6  12   6   25.90   16.90
  -6  13   1   -7.10   14.00
  -5   8   3  106.69   17.40
  -5   8   5  148.39   20.70
  -5   9   0   65.69   10.70
  -3   8  13  141.59   21.70
  -2   2   5   85.99   13.50
  -1   1   6   21.60   10.30
  -1   6  14   15.10   15.60
   0   4  13   16.00   16.60
   0   5  14   40.20   15.10
   1   1  -5 2093.89   30.60
   4  -2   4  201.98    7.60
   4   2  -9    6.20   14.10
   5  -2  -1  246.08   14.00
   5  -2   4 1148.19   18.00
   6  -2   3  852.51   20.70
   7  -1  -4   75.99   13.10
   7  -1   6    3.70    5.80
   8  -1   4   26.90    8.70
  -6  13   7    0.60   15.60
  -5   8   4  290.57   20.40
  -4   6   7   98.49   19.10
  -4   7   9   77.99   19.80
  -4   8  -3  594.34   17.10
  -3   4   7  703.23   27.50
  -3   5   9  169.78   21.50
  -2   2   2   59.59   12.10
   2   2  12   19.70    9.70
   3   1  11  492.95   15.60
  -6  13   2   49.60   15.30
  -5   9   7  500.35   29.10
  -5  10   9  190.88   24.20
  -5  11  10  170.58   24.50
  -5  12  -3   52.99   10.40
  -4   8  10  -13.00   17.50
  -4   9  -4  344.67   12.80
  -2   2   3  579.14   19.90
  -2   2   4  677.13   22.20
  -2   3   8  112.19   16.70
  -1   7  -9  131.59    8.70
   0   0   5   -2.80    8.80
   0  10 -12   11.30    8.30
   1   0  -3  240.48   10.90
   1   3  -8    2.80   12.90
   1   8 -12    8.10    8.80
   2   3  13  215.18   19.20
   2   4 -10  582.94   25.70
   2   4  14   52.09   14.40
   4  -2  -1  184.58   12.30
   4   1  -8   -2.20   12.90
   4   1  11   14.10    7.30
   5  -1  -5  196.98   17.80
   5   0  -7   14.60   17.50
   6  -1  -5  162.68   17.60
  -6  13   4   65.49   18.50
  -6  14   1  -11.00   15.30
  -6  15   0   62.49   13.30
  -4   6   6  233.78   19.40
  -4   9  11   -5.30   18.10
  -3   4   6   94.19   15.80
  -3   9  13    5.70   18.70
  -1   1   5 2115.89   33.80
   0   8 -11   13.10    8.50
   1   5 -10  170.28   14.60
   2   5 -11   12.00   11.20
   3  -2   1 1114.99   18.60
   3  -2   2 4548.35   30.80
   3   0  -6  -10.90   11.70
   5  -2  -2   80.69   11.90
   6  -2  -2  174.28   15.30
   7  -2   1   42.80    9.90
   7  -2   2   32.50    9.70
  -5   9   6   18.20   16.90
  -5  11   9  438.46   31.00
  -5  12  10   62.69   22.40
  -4   6   5   24.00   18.30
  -4   7   8   36.50   18.50
  -3   5  -2   39.80    7.60
  -3   8  12   81.49   21.10
  -2   6  12   85.09   19.30
  -2   7  13  334.87   26.80
  -1   2   8   16.60   15.00
  -1   3  10   90.69   14.40
   0   1   8  113.99   14.60
   0   7  15  108.59   19.50
   1   2  11    1.70   11.10
   1   6  15   22.70   14.90
   2   0  -5   -6.30    9.70
   3  -1  -4  979.70   26.00
   3  -1   7   68.39    5.50
   3   2  -9   19.30   13.80
   3   4 -11   55.99   15.30
   5   2  12    3.50    7.10
   6  -2   4   27.80    7.60
   7  -2  -1   -2.40   10.10
   8  -1   5    4.70    7.30
   9  -1   2    7.90   10.20
  -6  14   2   31.40   14.30
  -6  14   3  142.69   19.30
  -6  14   5   -4.30   14.40
  -6  15   1   12.30   15.30
  -5   9   2   -8.40   12.60
  -5   9   5  135.49   19.50
  -4   6   2  104.89   14.00
  -4   6   4   64.19   17.10
  -4  11  12   90.69   24.60
  -3   4   1  468.75   17.70
  -3   4   5   20.30   14.50
  -3   5   8    7.90   16.50
  -3   7  11   12.60   14.30
  -1   7  14  145.29   20.90
   1   2  -7   30.80   10.80
   1   6 -11   22.00    9.90
   3   2  12  124.39   12.30
   3   4  14   87.09   13.70
   4  -2  -2  323.37   16.60
   4  -1  -5   14.70   11.90
   4   0  -7   -1.20   13.00
  -6  15   2  143.59   19.70
  -5   9   3   43.80   14.80
  -5   9   4   96.49   17.80
  -5  10   0  528.95   22.00
  -5  10   7   42.90   19.40
  -4   6   3  877.71   27.50
  -4   8   9   28.80   19.00
  -4   9  10   18.00   19.00
  -2   4   9  784.72   30.10
  -1   4  11  287.27   21.10
  -1  10 -11   -4.90    5.60
   0   5  -9   45.50   12.60
   0   6  14  -20.80   14.40
   1   3  12    9.60   13.30
   1   5  14    8.60   16.60
   2   6 -12   88.19   13.50
   3  -2   0 1083.49   20.30
   3   1  -8  811.22   29.60
   3   3  13   10.20   10.60
   4   2  12   86.49   10.90
   5  -2  -3   19.90   11.30
   6  -2  -3   20.10   10.90
   6  -1  -6  275.97   21.30
   7  -2   3  573.84   17.70
   9  -1   3    6.50    8.40
  -6  15   3   -5.20   14.10
  -6  15   4  207.48   21.90
  -5  11   8  148.59   23.00
  -5  12   9   61.49   19.80
  -5  13  -3    6.20    9.60
  -4   7   7  438.16   26.20
  -3   4   2   80.99   12.00
  -3   4   4    9.10   11.40
  -3  10  13   33.70   16.50
   0   0   4  307.27   13.00
   1   0   7   78.39    9.50
   1   4  13   10.10   12.60
   2   1  -7 1898.31   36.60
   4   2 -10  -11.40   12.40
   4   3  13   17.60   10.90
   5  -1  -6   80.59   16.70
  -5  10   6   37.00   17.80
  -3   6   9   -8.90   14.60
  -3   9  12  117.49   20.20
  -2   8  13  142.49   23.10
  -1   1   1  136.99    9.70
   0   3  -7   66.69    9.30
   0   4  12   -5.80   15.70
   0   5  13   29.90   15.70
   0   6 -10   62.49   10.90
   1   9 -13   -5.90    9.40
   2   1  10    5.60    9.20
   4   1  -9   13.30   12.70
   5  -2   5  138.69    6.60
   5   0  -8   -9.20   15.80
   8  -2  -1    3.40    9.10
   8  -2   0  343.87   18.30
   8  -2   1  183.98   14.30
  -5  10   5   61.89   16.10
  -5  11   7   13.90   18.20
  -5  12  -2   32.40   10.40
  -5  13   9  106.09   22.30
  -4   7   6  500.55   27.00
  -4   8   8   21.00   18.90
  -4  11  11   36.50   20.80
  -3   7  10   12.50   17.90
  -3   8  11   59.99   20.10
  -2   6  11   24.10   17.00
  -2   7  12  257.57   24.70
  -1   1   3  523.45   17.30
  -1   3   9  161.68   18.30
  -1   8 -10   17.50    7.10
  -1   8  14   -3.50   16.90
   1   7 -12  111.29   12.40
   2  -1  -3    5.30    7.70
   3  -2  -1  337.77   14.10
   4  -2  -3 1252.17   29.40
   6  -2  -4  277.17   19.40
   8  -2   2    7.40    9.70
   9  -1   4   82.79   10.60
  -5  10   3    0.00   14.60
  -5  10   4   21.70   15.30
  -5  12   8  203.78   24.30
  -4   7   0   59.09    8.80
  -4   8  -2   40.40    9.40
  -4   9   9  496.95   31.50
  -4  10  10  168.38   21.30
  -2   3   6  405.56   20.90
  -2  11 -10   86.19    4.50
  -1   1   2  195.38   10.40
  -1   2   7   37.70   14.10
   0   9 -12  177.98   12.60
   2   5  14  242.98   19.40
   3  -1  -5  214.28   15.70
   4  -1  -6  134.09   18.30
   7  -2  -4   -7.10   11.10
   7  -2   4  226.48   12.60
  -5  11   0  568.14   24.20
  -5  11   6   12.20   18.50
  -4   7   5  323.47   22.50
  -4  11  -5  151.48    9.40
  -4  12  11   65.49   22.90
  -3   5   6  148.09   18.50
  -1   3  -5  806.02   11.90
   0   1   7  -13.20    8.90
   0   2   9  337.07   18.80
   1   1  -6    4.50    9.00
   2   2  11  478.35   19.90
   4   0  -8  156.38   18.10
   6  -2   5   28.80    6.00
  -5  12   7   82.69   21.60
  -5  13   8   41.00   17.50
  -4   7   4   15.40   15.00
  -4   8   7  272.67   23.50
  -3   6   8  171.38   20.70
  -2   9  13   -8.90   17.60
   0   0   3   -0.60    8.30
   0   7 -11  388.16   16.50
   0   7  14  253.67   21.60
   1   0  -4    9.00    9.80
   1   6  14  -15.20   15.50
   2   0  -6 1527.75   33.30
   2   2  -9   14.10   14.80
   2   4 -11   54.09   14.00
   2   4  13   -2.90   12.80
   3  -2  -2  716.03   20.80
   3   2 -10   13.50   13.70
   3   3 -11   28.40   14.90
   6  -2  -5  975.60   32.40
   8  -2   3   56.09    9.40
   8  -1   6   18.50    6.90
  -5  11   1  440.16   22.60
  -5  11   5  191.88   20.80
  -5  13  -2  214.48   16.10
  -5  14   8  285.47   26.30
  -5  15  -3   19.90    9.80
  -4   7   3   16.40   12.80
  -4   9  -3  215.88   12.70
  -4   9   8   19.00   18.90
  -4  10   9   -1.80   18.30
  -3   7   9   -0.60   17.90
  -3   9  11  336.07   26.80
  -2   3   5   90.59   14.10
  -2   5   9  335.47   25.10
  -1   6  12   -0.40   16.50
   1   4 -10   94.89   15.60
   2   3  12   80.39   13.60
   2   5 -12  345.07   20.40
   3   4 -12   11.90   12.70
   4  -2  -4  115.09   14.30
  -5  11   3  119.69   20.60
  -5  11   4  155.68   20.20
  -5  12   6   49.50   19.60
  -5  13   7   35.80   20.00
  -4  10  -4   20.50    7.60
  -3   5   5   82.39   15.70
  -2   9  -9   65.19    4.10
   0   3  10   -9.90   11.00
   0   6  13   20.60   16.30
   1   5  13   32.60   14.90
   3   1  -9  370.66   23.40
   3   5  14   34.70   13.10
   4   0   9   -5.10    5.50
   7  -1   7    5.50    4.20
   9  -2   1   70.39   11.70
  -5  12   5   -7.80   19.00
  -5  14  -2   62.69   13.50
  -5  14   7   52.39   22.50
  -4  12  10  -16.40   20.00
  -3   6   7  203.98   22.60
  -2   4   7   58.59   14.90
  -2   6  10   93.39   17.70
  -1   2   6   16.90   11.90
  -1   3   8   -2.30   15.00
   0   1  -4 2399.76   25.00
   0   2  -6   27.90    8.80
   1   3  11   49.30   13.30
   1   4  12    9.60   14.00
   1   5 -11  143.79   14.50
   1   8 -13   24.40   11.00
   2  -1  -4   74.59   12.80
   2   1  -8 1289.77   33.00
   3   1  10  835.92   20.00
   4   1 -10    9.20   14.10
   6  -3   0  128.19   12.40
  -5  13   6   80.49   21.40
  -4   8   5   66.79   17.00
  -4  10   8  329.27   27.70
  -4  11   9   85.59   22.00
  -3  10  11  202.38   25.40
  -2   3   4 1355.36   30.50
   0   8  14  -29.40   15.20
   1   2  -8   10.20    9.90
   2   6 -13   38.00   12.90
   3  -2  -3 1438.56   29.80
   3  -1  -6   -2.80   12.20
   3   4  13    9.40   13.30
   4  -1  -7  195.98   18.20
   5  -3   0  186.48   12.50
   6  -3  -2   48.70   12.60
   6  -3   1   10.00    9.60
   6  -2  -6   76.89   17.80
   7  -3  -1  188.08   15.50
   7  -3   0  164.28   14.50
   9  -2   2   80.49   11.10
  -5  12   1   56.09   15.40
  -5  13   5  141.59   22.50
  -5  14   6   18.00   19.40
  -5  15   7  112.69   21.40
  -4  13  10  -27.10   19.80
  -3   9  10  -12.50   17.10
  -2  11  13   10.10   19.30
   0   0   2 1682.93   17.60
   1   7  14   47.10   18.50
   2   6  14   30.70   14.50
   3   0  -8   -6.10   14.60
   4  -2  -5   31.00   12.50
   4   0  -9    3.30   13.00
   5  -1  -8   47.90   16.80
   7  -3   1    4.50    9.60
   8  -2   4   59.39    9.50
  -5  13   0    0.60   13.50
  -4   8   0  530.25   20.50
  -4   8   4  157.78   17.20
  -4  12   9   42.00   19.50
  -4  14  -6   -2.30    7.40
  -3   5   3   60.19   12.50
  -3   8   9   74.89   19.00
  -3  11  11   15.80   21.70
  -1   4   9  493.55   23.50
  -1   9 -11    1.40    5.70
   0   1   6  175.98   14.60
   0   8 -12   75.59   10.70
   0  10 -13   92.09   10.20
   1   0   6    6.70    7.30
   1   6 -12    8.00   10.40
   3   2  11  327.87   15.40
   3   3  12    3.20   12.00
   5  -3  -2   40.70   11.30
   5   0   9  265.27    7.80
   6  -3  -3  164.48   15.70
   6  -3   2  201.98   14.20
  -5  14   5   87.89   19.10
  -5  15   6   31.80   17.70
  -4   8   3  -13.90   15.60
  -4   9   6    2.20   15.70
  -4  11   8   19.40   18.00
  -3   5   1  245.28   14.60
  -3   5   2   -3.40   10.00
  -3   6   6  203.48   19.60
  -2   3   3 1594.24   30.60
  -1   5  10  141.89   20.70
  -1   6  11   15.10   16.80
   0   7  13  131.09   20.20
   4   4  13    9.00   12.20
   8  -3  -1  194.78   16.00
   8  -3   0   13.80    9.50
   9  -2   3    2.60    9.20
  -5  13   2    7.40   15.40
  -5  14   0  109.89   17.30
  -4   8   1   57.69   11.50
  -4   8   2  139.89   14.70
  -4  13   9   74.89   21.00
  -2   4   6   56.79   15.60
  -2   6   9  281.77   22.50
  -2   7  10   12.90   18.20
  -2  10  12  153.98   21.20
  -1   2   5 2749.23   40.60
  -1   5  -8   35.00    6.70
  -1   6  -9   77.89    8.60
  -1  11 -12    0.40    6.10
   0   9  14   91.89   18.80
   1   6  13   16.10   15.10
   2   0  -7   13.60   10.40
   2   1   9   13.10    8.70
   2   3 -11   12.90   15.60
   2   5  13   31.10   13.00
   3  -2  -4  113.39   13.60
   5  -3  -3  177.78   16.00
   7  -3   2   99.09   11.00
  -5  14   1   11.70   15.90
  -5  16  -1    6.80   11.40
  -4   9   5    6.10   17.20
  -4  10  -3   -1.40    8.20
  -4  12   8   -7.20   20.40
  -4  14   9  -12.50   22.80
  -3   7   7  915.41   34.40
   0   5 -10   -3.90   10.60
   1   0  -5  209.58   13.70
   1   1  -7   82.79   11.60
   1   9 -14    6.20   10.50
   2   4 -12  266.17   19.70
   3   1 -10  224.68   20.20
   4  -3  -1  161.68   11.60
   4  -1  -8   13.40   15.20
   4   1  10  191.68   10.60
   8  -3   1  224.28   15.10
  -5  14   2    9.90   15.90
  -5  15   0  126.69   18.10
  -5  16   4   42.40   18.70
  -4  11  -4  187.38   10.80
  -4  11   7   16.10   16.10
  -4  15  -6   -4.30    6.80
  -3   6   5 1672.43   39.30
  -3   8   8  453.35   27.90
  -3  13  11    9.60   23.00
  -2   9  11  504.75   31.10
  -1   8  12    4.60   17.50
  -1  10  13   -5.00   19.20
   0   3   9   -7.10   10.80
   1   7 -13    0.50   11.10
   1   8  14  200.78   22.80
   2   7  14   66.69   17.20
   4  -3  -2  152.78   13.70
   4  -3   1 1503.75   25.50
   4   3  12  196.78   15.20
   5  -3  -4  218.48   18.30
   6  -3  -5  250.47   21.10
   6  -3   3    7.60    8.20
  -5  15   1   -9.00   15.00
  -5  15   2    0.40   15.00
  -5  15   3   90.69   17.90
  -5  16   0   21.40   14.30
  -5  16   3  132.09   18.90
  -4   9   4   16.80   12.70
  -4  13   8   33.10   20.60
  -3  11  10  -15.20   19.20
  -2   5   7   52.69   15.20
  -2  11  12   -9.00   17.90
   0   4  10   22.80   10.90
   0   6 -11   12.60    9.20
   1   5  12   68.49   16.50
   2   1  -9  474.35   23.90
   2   2  10  247.38   14.60
   2   3  11  138.09   14.70
   2   5 -13   -8.10   10.40
   4   0 -10   78.09   15.60
   4   2  11  194.68   12.20
   5   3  12  411.46   17.30
   6   1  10    1.60    6.00
   6   2  11   10.20    7.00
  -5  16   1   12.50   14.80
  -5  16   2    6.10   14.20
  -4   9   3   30.70   16.40
  -4  13  -5   26.80    7.30
  -3   6   4 1010.40   31.80
  -2   4   5   50.09   12.80
  -1   7  11   59.69   15.90
   1   3 -10   77.59   14.60
   1   4 -11  304.07   19.60
   1   4  11   28.20   13.90
   2  -2   0  224.78   10.60
   2  -1   5   65.09    5.30
   3   0  -9  345.27   23.00
   4  -3  -3   17.60    9.70
   7  -3   3  226.18   13.20
   8  -3   2  101.19   12.20
  -4   9   2   19.00   13.60
  -4  10   5  190.68   21.10
  -4  11   6  -27.70   17.00
  -4  14   8  145.29   24.30
  -3   7   6 1153.48   36.70
  -3  12  10    5.70   18.10
  -2   6   8   33.70   14.70
  -2   7   9  130.99   19.60
  -2  12  12   -1.90   18.30
  -1   4   8 1735.83   38.20
  -1   6  10  446.96   26.80
  -1   7 -10  656.43   15.50
  -1  11  13    4.80   16.80
   2  -2  -1  528.25   15.70
   3  -2  -5   -3.00   11.00
   3   0   8   -6.00    7.20
   3   5  13   55.09   14.80
   5  -3   3  191.68   10.40
   5   1  10   28.30    7.90
   5   2  11  317.77   13.90
   6  -3  -6  647.14   29.70
   8  -2   5   -0.80    6.90
   9  -2   4    4.90    8.20
  -4   9   1  108.49   13.30
  -4  10  -2   83.19   10.80
  -4  13   7  137.09   24.40
  -4  15   8   17.00   18.00
  -3   8   7  244.98   21.80
  -3   9   8  718.83   32.40
  -1   2   4  772.92   22.30
  -1   5   9 1740.23   41.30
  -1   9  12    0.60   17.20
   0   2   7   93.79   14.60
   0   9 -13   92.39   10.40
   1  -1  -2  201.18    9.60
   1   7  13  203.78   19.80
   2   6  13    1.70   14.50
   4  -1  -9   18.90   13.40
   5  -2  -8  127.69   21.20
   9  -3   1  267.77   16.90
  -4  12  -4   40.70    8.00
  -4  12   6   81.49   22.60
  -3   6   3  291.87   18.80
  -3   9  -6  121.09    7.10
  -3  11   9  163.08   20.60
  -3  13  10   -1.60   19.50
   0   1  -5  312.77   13.50
   1   8 -14    1.10   10.80
   2  -2   1 1298.97   16.20
   2  -1  -6  898.31   26.80
   2   0  -8 2150.98   43.20
   3   2 -12  340.47   24.50
   4  -3  -4   92.89   13.00
  -4  11  -3   -0.30    8.10
  -4  11   5   74.79   19.20
  -4  14   7   39.20   20.90
  -3   7   5   15.70   14.40
  -3  14  10  289.27   30.30
  -2   4   4 3241.18   45.80
  -2   5   6   21.40   13.90
  -2  11  11   77.89   20.80
   0   7 -12  169.38   12.60
   3   4  12  -12.50   14.00
   4   5  13   -3.90   13.90
   6  -2   6   -2.80    4.70
   8  -3   3   24.70    9.80
   8  -1   7    3.70    5.30
  -4  10   3  136.09   16.70
  -4  13   6  196.18   22.50
  -4  15   7    9.80   15.90
  -3   6   0  109.39   10.80
  -3  10   8  146.59   22.50
  -3  12   9    9.70   15.70
  -2   4  -3   29.30    5.20
  -2   8   9   69.79   19.70
  -1  10  12   -3.00   18.70
   1   0  -6   -2.30    9.50
   1   1   7   58.49   10.10
   1   6 -13   27.40   12.90
   1   6  12  123.69   19.10
   2   2 -11  299.77   21.50
   2   3 -12  478.35   25.40
   3  -2  -6  424.16   22.40
   7  -4  -2   40.00   12.90
   9  -3   2   -4.10    9.80
  -4  10   1   90.69   14.30
  -4  10   2   52.19   12.50
  -4  12   5  742.63   33.50
  -4  15  -5   10.40    8.80
  -3   6   1   12.80    9.20
  -3   8   6  837.62   32.70
  -3   9   7  524.65   27.80
  -2   6   7  102.79   16.40
  -2   7   8   92.19   17.30
  -2  12  11    8.20   18.70
  -1  10 -12   26.60    6.30
   0   3   8   86.49   13.40
   0   5  10    5.90   16.20
   1  -1  -3  476.05   16.80
   1   0   5  275.97   11.40
   1   8  13   78.19   17.50
   2   4 -13  191.28   17.90
   2   5  12   32.70   15.10
   3   0 -10   -6.30   13.90
   6  -4  -3   58.29   13.70
   6  -4   0   -4.00   11.50
   7  -4   0  376.56   19.10
   8  -4  -1  330.27   20.40
  -4  13  -4  249.38   15.20
  -4  14   6  134.59   20.60
  -4  15   6    2.30   18.80
  -3   7   4 1725.63   39.50
  -3  11   8  101.19   21.50
  -3  13   9    8.30   20.20
  -2  10  10  199.88   24.80
  -2  13  11   43.20   22.10
  -1   7  10   33.00   15.10
  -1   8 -11  191.48    9.50
  -1  11  12   10.90   18.80
   0   4   9   60.49   12.60
   3   1   9   46.90    9.30
   3   3  11  296.47   16.20
   3   6  13  173.78   18.60
   5  -3  -7   61.79   16.40
   6  -4  -4   -3.00   11.20
   6  -3   4  686.93   15.60
   7  -2   6    2.10    5.30
  -4  11   3  427.56   24.60
  -4  12  -3   43.20    9.50
  -4  12   4   -1.30   16.90
  -4  16   6   49.80   17.90
  -3  14   9   69.29   23.50
  -2   4   3 3601.64   45.70
  -1   6   9  -10.30   14.60
   1   5  11  260.17   19.30
   2   7  13   66.29   14.90
   3  -3  -2   18.10    9.60
   3  -3  -1   77.19   10.10
   3   2  10  397.16   16.20
   4  -1 -10    4.60   12.70
   5  -4  -2 1605.54   35.50
   5  -4  -1    1.90   10.30
   7  -3   4  536.55   16.10
   8  -4   0  411.86   20.30
  -4  11   2  200.48   18.00
  -4  14  -4  106.19   12.60
  -4  14   5  175.38   23.40
  -3   8   5 1642.24   41.90
  -3  12   8  -13.20   18.30
  -3  15   9  278.77   30.20
  -2   9   9    3.40   17.10
  -2  11  10   58.39   19.20
  -1  12  12   36.70   19.10
   0   4 -10   17.90   11.50
   1   2   8   16.70   11.90
   1   9  13   46.90   17.40
   2   4  11   69.89   13.20
   3  -3   0  233.58   11.80
   4  -3  -6  -11.90   15.00
   4   4  12  247.08   16.40
   5  -4  -3   78.89   13.50
   6  -4   1   15.70   10.00
   7  -4   1   53.79   11.30
  -4  12   3  746.23   31.50
  -4  13   4  873.71   35.20
  -4  15   5  100.59   20.70
  -4  16   5   20.50   18.90
  -3   7   3  221.88   18.20
  -3   9   6    5.60   15.90
  -1   3  -6 2135.89   21.50
  -1   3   5 2430.46   38.90
   0   3  -9    5.30   11.90
   0   5 -11   10.60    9.40
   0   8 -13  485.65   17.90
   1   3 -11   70.59   15.80
   1   7  12  193.68   20.30
   2   0  -9    5.20   13.60
   3  -3  -3  925.81   25.70
   5  -4  -4   10.40   13.20
   8  -4   1    3.70    9.90
  -4  13  -3   77.09   11.10
  -4  15  -4   71.19   10.40
  -4  16  -4   20.10   10.90
  -3  11   7  -18.80   17.80
  -3  13   8   29.90   21.10
  -2   6   6  236.18   19.40
  -2   8   8   26.10   16.20
  -2  12  10   62.39   20.80
  -1   8  10   36.80   17.00
  -1  10  11  241.08   25.40
   0   2   6   35.00   10.10
   1   2 -10  237.08   19.00
   1   4 -12  240.88   18.60
   2   3  10  215.18   15.40
   3   1 -12  667.63   31.80
   4  -2  -9   -4.50   15.70
   5  -3  -8  318.27   27.20
   8  -3   4   70.79   10.10
  -4  12   2   25.90   15.70
  -4  13   3   44.70   18.70
  -4  15   4   15.80   18.40
  -3  15   8    1.90   19.20
  -2  13  10   30.10   21.10
   0   1   4 2332.27   30.70
   0   6  10   38.70   14.90
   1   0  -7   24.90   10.40
   1  10  13   -4.40   15.80
   2   6  12   47.00   14.50
   2   8  13   -1.80   13.30
   3  -3  -4    1.40   11.10
   3   5  12   -5.30   13.10
   5  -3   4  718.13   13.90
  -4  12   0   20.40   12.80
  -4  14  -3   96.19   12.90
  -3   7  -2  339.07   13.80
  -3  10   6  112.69   20.70
  -3  12   7   22.00   16.90
  -2  14  10   33.80   20.30
  -1   7   9  269.97   23.30
  -1  11  11  286.17   27.50
   0   0  -2 1531.35   15.40
   0   1  -6  191.88   12.40
   0   6 -12  162.28   13.70
   1   5 -13   23.20   12.60
   2  -2  -5   77.69   13.30
   2   2 -12   -4.20   14.30
   3  -3   1  328.27   12.60
   3   7  13    4.80   15.10
   4   3  11  134.09   12.30
   7  -4   2    5.10    8.10
  -4  15  -3   10.00   10.10
  -2   4   1  523.35   17.40
  -2   5   4  903.41   27.00
  -2   9   8  214.58   21.30
  -2  11   9   51.39   17.50
  -1   4   6   10.90   10.60
  -1   9  10  235.98   23.20
   0   5   9   29.70   14.20
   0   8  11   17.50   17.70
   1   8  12   60.09   17.70
   2   1 -11   -8.10   14.70
   2   3 -13  187.38   17.60
   3  -3  -5   49.60   15.10
   3  -2  -8  718.03   29.60
   5  -4  -6  313.97   23.40
   6  -4   2   35.60   10.00
   9  -4   1    3.80   10.20
  -4  13  -1  108.19   15.70
  -4  13   0    9.00   15.60
  -4  15   2   98.29   19.80
  -3   7   0  136.69   12.20
  -3   8   3   16.80   15.90
  -3  11   6   10.00   16.40
  -3  13   7  -15.90   18.00
  -2   4  -2   74.89    6.70
  -1   5  -9  653.93   15.90
  -1   6   8 2412.46   46.40
  -1  12  11   -8.70   16.90
   0   4   8   25.50   12.40
   0  11  12   13.30   17.80
   2   9  13   23.10   16.90
   3  -1 -10  237.18   21.30
   4  -4  -3  533.75   22.40
   4  -4  -2  902.11   25.30
   8  -4   2   -5.60    9.00
   8  -2   6    0.80    5.90
  -4  14  -1   40.90   14.90
  -4  14   0  140.59   18.30
  -4  14   1   18.30   15.50
  -4  16   2   50.69   17.60
  -4  17  -2    4.70   10.20
  -3  10   5   -8.70   17.60
  -3  14   7   61.69   18.40
  -3  15   7   13.00   16.60
  -3  16   7   17.50   20.00
  -2   6   5  131.59   16.80
  -2   8   7   21.30   16.50
  -2  12   9   19.40   19.50
  -1   6 -10 1231.98   20.50
  -1  13  11   96.19   21.90
   0  12  12    4.20   19.40
   2   0 -10   80.09   19.60
   2   5  11   16.20   15.50
   3   4  11  132.49   15.30
   4  -4  -4   52.89   13.30
   4   2  10    2.80    7.70
   7  -5  -3  101.39   15.10
   7  -5  -2  134.89   15.20
  -4  15  -1  166.98   17.50
  -4  15   0   59.29   16.80
  -4  16  -1   -3.50   13.70
  -4  16   1  158.08   18.60
  -4  17  -1    5.40   14.70
  -3   9   4   13.40   15.60
  -3  12   6   13.70   18.40
  -2   7   6   21.00   14.20
  -2  10   8  118.99   21.20
  -2  13   9   47.10   18.30
  -1   3   4 5040.90   51.99
  -1   8   9   23.70   17.30
   0   7  10   42.70   16.40
   0   9  11    2.00   16.90
   1   1   6  365.76   14.70
   1   9  12   62.29   18.10
   2  -2  -6  217.28   16.30
   2   7  12  -13.30   15.60
   3   8  13  249.68   22.10
   4   0   8  511.35   12.90
   4   5  12   -1.40   11.90
   5   3  11   45.00   11.70
   7  -5  -1  638.44   24.90
  -3   8   2  320.67   19.30
  -3  13   6   33.70   22.50
  -2  14   9  228.58   28.70
  -2  15   9   11.60   23.70
  -1   4  -8   10.00    6.10
   0   0  -3   -5.60    5.90
   0   7 -13  128.09   12.20
   3  -3  -6   17.90   12.30
   3   6  12   81.09   15.30
   4  -4  -5   22.20   13.60
   4   1   9   45.10    7.40
   6  -5  -4   53.89   13.30
   6   3  11   28.30   10.60
   8  -5  -1  114.09   12.70
   9  -4   2    2.60    9.90
  -3  11   5   40.80   18.50
  -3  14   6    8.60   16.70
  -2  11   8   18.90   16.20
  -1   7   8  155.08   20.60
   0  10  11  176.58   22.80
   1   0  -8   -3.90   10.30
   1   3 -12  963.40   30.30
   1   4   9  -15.60   11.30
   2   4  10  618.74   23.90
   3  -2  -9   33.00   15.10
   6  -5  -5   10.90   13.10
   6  -5  -1    3.80   10.90
  -3   8   1  363.96   19.50
  -3   9   3  795.32   29.00
  -3  10   4  118.49   18.70
  -3  15   6   80.29   18.50
  -3  16   6   -3.90   15.40
  -1   2   1   28.90    9.40
  -1   9   9   26.20   16.40
   0   6   9  587.14   26.50
   1   2 -11   86.79   14.70
   3   3  10   60.79   11.40
   4  -3  -9   46.40   17.50
   7  -4   3   52.19    9.10
   8  -5   0  290.47   16.90
  -3  12   5    4.70   14.90
  -2   6   4  887.91   28.00
  -2   8   6  227.28   20.70
  -2  12   8   94.59   21.00
   0   2   5 2740.03   36.00
   0   8  10   33.90   16.80
   1  -1  -6   17.20   10.10
   1   3   8  240.78   15.70
   2   8  12   31.20   16.10
   3  -1 -11  299.47   21.90
  -5 -10  -4   22.10   13.80
  -3  -4  -8   74.19   23.20
  -1 -15   9   12.50   13.70
  -1   0  -6   14.60   14.80
  -1   0  -5  250.97   19.90
   0 -11   9  390.56   24.80
   2  -3   6 1436.06   41.30
   2   3  -6  408.16   15.60
   3   1   2 2926.31   44.70
   4  -5   8  887.91   39.70
   5  -7   9   45.00   22.70
   5  -5   8   29.80   21.60
   5   2   1  281.27   18.80
   5   3 -13   39.40   13.90
   7  -6   8  130.59   26.50
   7   4 -10  230.18    8.10
  -5 -12   0  474.95   21.10
  -5 -10  -3   12.00   13.10
  -4  -6  -6   18.40   15.60
  -4  -6  -5   49.20   18.50
  -4  -6  -4  243.58   21.20
  -3 -13   6   14.80    5.60
  -2  -2  -9   16.70   20.70
  -1   0  -7   70.09   16.70
  -1   0  -4  -14.00   14.90
   0   1  -3  311.47   15.10
   1  -7   8   22.00   14.70
   1   1 -12   71.59   20.20
   2 -11  10   50.59   21.40
   2  -8   9   55.69   19.00
   2  -6   8   41.80   18.80
   2  -2   5  244.58   20.40
   2  -1   4   44.20   15.40
   2   3  -7  435.06   17.40
   4 -10  10  214.88   28.90
   4   4  -7  656.93   14.30
   6  -4   7   36.90   22.40
   7   4  -6   -0.60    5.30
  -4  -6  -3  445.66   23.00
  -1 -11   8   27.00   13.00
  -1   0  -8  -21.20   21.50
   0   1  -9 3818.12   66.99
   1  -4   6  337.37   24.10
   2   2 -12  -14.60   15.90
   2   2  -1  480.65   10.60
   2   3  -5   80.69    8.40
   3  -4   7  104.39   23.50
   3   3 -11   21.90   12.90
   4   4  -8 1088.79   21.10
   4   4  -6  734.63   11.10
   5   4 -10  165.98   13.10
   6  -8   9   24.90   21.70
   6  -6   8   69.89   24.00
   6   4  -5   41.50    6.70
   7  -2   5  350.06   29.50
   7   0   3  384.26   27.00
   7   3  -2  123.49   14.00
   8   3  -3   14.40    9.50
   9   1   0   70.79   16.10
   9   2  -2    6.80   15.00
   9   3  -5   32.10   14.10
  10   2  -4   18.50   15.60
   0 -12   9   -2.30   16.00
   1  -1   3  147.99   16.60
   2 -12  10   41.50   19.70
   4  -4   7  499.25   33.80
   5  -4   7    5.60   23.60
   6  -3   6   43.60   23.30
   7  -7   8   23.10   22.30
   7  -5   7   62.89   23.40
   7   2   0    3.90   13.50
   8  -3   5  111.09   25.80
  10   0   0    8.60   15.90
  -5 -13   1   22.10    9.20
  -5  -9  -4   60.29   18.00
  -4  -8   1   46.80    9.30
  -3  -3  -6   71.99   18.90
  -3  -3  -5  124.79   17.70
  -1   0  -9 1085.29   41.10
   0   1 -10    5.80   15.90
   1 -10   9  319.67   25.80
   1  -3   5  768.72   28.40
   1   2  -3 3251.77   28.90
   2   1   1  713.23   20.10
   2   3  -9   27.00   16.80
   3  -6   8  163.18   22.60
   3  -3   6   42.10   19.70
   4  -8   9   94.89   23.70
   5  -6   8  481.55   32.90
   6  -9   9   18.40   23.80
   6   4 -11    1.30    8.80
   8   2  -1   11.60   13.00
   9   0   1  197.28   22.10
  10   1  -2   -4.50   13.60
  -4  -9   2   18.50    7.20
  -3  -3  -4  106.89   15.60
  -1   0  -3  360.16   20.70
   0  -7   7  407.06   21.20
   0  -2   3    0.00   11.30
   2 -13  10    1.90   16.50
   2  -9   9   47.60   20.80
   2  -5   7  642.84   31.50
   3 -12  10   11.00   20.80
   3   0   3  139.09   17.30
   4  -6   8  327.77   27.00
   5   1   2   82.99   16.00
   5   3 -14   50.19   16.70
   6  -2   5   40.70   21.90
   6   0   3   -3.40   16.90
   9  -1   2   18.40   18.90
  -5  -9  -3   25.70   12.70
  -4  -7   0   40.60   10.00
  -3  -3  -8   20.70   18.90
  -2  -1  -7  137.19   22.30
  -2  -1  -6    7.30   16.80
  -2  -1  -5   64.39   16.40
  -1 -12   8   96.49   13.20
  -1  -9   7   44.80   12.60
   0 -13   9    8.60   15.40
   0  -3   4 3815.62   47.30
   1  -8   8   70.99   20.00
   1  -6   7   16.40   18.50
   2  -7   8    0.70   17.00
   2   2 -13  353.06   26.90
   3  -2   5   97.29   21.20
   3  -1   4  114.69   18.30
   3   3 -12  167.98   18.00
   4  -3   6    6.70   21.80
   5  -9   9  -24.00   21.60
   5   4 -11   26.30   12.40
   6  -7   8   18.70   22.00
   6  -5   7  205.08   26.80
   6  -1   4  372.06   27.30
   7  -4   6   79.39   23.00
   8  -5   6   48.70   23.70
   9   3  -6    3.80   11.50
  -5 -10  -1  117.79   13.80
  -4  -5  -5   -2.00   16.40
  -2  -1  -8   40.30   20.50
  -1   0 -10   13.20   19.70
   0   1 -11  217.68   25.30
   1 -11   9  237.68   24.20
   2   3 -10   53.59   15.30
   3  -9   9  237.18   26.70
   4  -9   9  108.49   23.10
   4  -2   5  841.52   36.80
   4   0   3   15.60   16.80
   5   0   3   18.20   16.00
   6   3  -2   70.39   11.70
   7   4 -11  112.49    8.60
   7   4  -7   -2.90    4.90
   9   1  -1  108.79   18.20
  10   2  -5   18.10   11.60
  -5 -15   2    0.40    7.40
  -5  -8  -5   35.00   16.90
  -4  -5  -7  224.68   23.80
  -4  -5  -4   25.20   14.90
  -3  -3  -3   64.79   14.00
  -2  -2  -1 1246.58   25.30
  -2  -1  -4   39.80   15.20
   0 -14   9    6.60   17.20
   3  -7   8   -9.50   21.60
   3  -5   7   60.49   21.80
   4   4 -10  436.76   19.40
   5  -5   7 2075.99   58.39
   8  -4   5  527.25   36.90
   8   1   0  198.78   21.90
   8   3  -4  313.47   16.30
   9   2  -3  180.78   18.20
  10   0  -1   11.40   15.90
  -5 -12   1   25.50    9.10
  -5  -8  -4   73.79   16.80
  -1 -13   8   48.20   14.20
   0 -15   9   -9.00   14.20
   0 -10   8  230.08   20.50
   2  -4   6  837.22   35.40
   4  -7   8  105.09   23.40
   4  -5   7  214.88   27.00
   4   2   0    7.20   10.20
   4   3 -14   37.30   19.80
   5   2   0   31.10   13.10
   6  -8   8  -12.40   22.80
   6  -4   6   40.20   22.80
   7   0   2    0.10   14.60
   7   3  -3   52.79   11.80
  10   1  -3   67.99   17.00
  -3  -5   1  230.18   11.20
  -2 -13   7   25.60    9.40
  -2  -5   3  105.59    4.50
   1 -12   9   28.10   17.10
   1   2 -12  102.09   20.80
   2   3 -11   -3.70   14.50
   2   3  -4 1378.56   18.10
   3 -10   9  -16.90   20.00
   3   3 -13   41.80   17.90
   4 -10   9   42.70   22.50
   6  -6   7   40.30   22.40
   6   4 -12   18.00   11.30
   7  -5   6   31.70   24.80
   7   2  -1    9.30   12.20
   8  -6   6   24.90   21.30
   8  -3   4   66.59   21.40
   8   2  -2    8.70   12.00
   9   0   0   12.60   16.30
   9   3  -7   30.90   11.00
  10  -1   0   18.00   20.10
  -5  -8  -3  157.18   18.00
   0  -6   6  460.15   23.50
   1  -5   6  189.68   21.90
   2  -8   8  248.58   24.60
   2  -6   7   49.10   17.70
   4   4 -11  538.75   22.60
   5  -8   8   22.50   23.40
   5   4 -12  130.69   16.30
   6  -3   5   33.90   23.80
   6   1   1   73.69   16.40
   8  -2   3   54.69   24.30
  -3 -16   6   -0.80    6.60
  -2  -1  -3  438.46   23.00
  -1 -14   8   24.70   14.70
  -1 -10   7    3.10   11.60
   0   2  -8  236.88   21.40
   0   2  -7   96.79   15.20
   0   2  -6   26.60   15.60
   1 -13   9   16.40   17.00
   2  -3   5 2755.82   55.59
   3  -4   6  121.89   23.30
   3   4  -8  123.69   12.50
   4 -11   9   67.19   26.10
   4  -4   6   35.40   23.30
   5  -6   7   83.39   23.20
   6  -9   8   25.80   20.70
   9  -1   1  247.58   26.00
  -5 -14   2    3.80    6.20
  -5  -9  -1   85.69   13.60
  -5  -7  -5    4.90   16.50
  -3 -11   5   28.40    5.40
  -2 -14   7    3.90    9.00
  -1 -15   8   41.50   15.60
  -1   0  -2    3.20   15.20
  -1   1  -8 1035.50   39.40
  -1   1  -6  359.16   23.40
   0 -11   8  -12.90   13.80
   0   1  -2  251.37   12.90
   0   2  -9  286.77   24.40
   2 -12   9   21.60   17.40
   2   3 -12  461.55   27.20
   3  -8   8  133.09   22.10
   3   1   1  841.62   25.10
   3   4  -9  130.89   15.50
   4  -8   8  122.19   24.90
   6   4  -6   18.10    5.70
   7  -8   7   64.59   27.40
   7  -4   5  374.36   34.40
   9   1  -2   62.69   17.20
   9   2  -4   92.79   16.80
  10   0  -2  -15.00   14.30
  -6 -14  -2    2.70   13.10
  -4  -4  -5    1.90   16.00
  -3  -2  -5   84.89   17.70
  -1 -16   8    8.20   14.00
  -1   1  -9   41.70   20.40
   0   2 -10  211.28   25.00
   1 -15   9   13.90   18.00
   1   3  -8    2.50   13.80
   2  -1   3  450.35   24.50
   3   3 -14   18.00   17.30
   3   4  -7  705.63   18.70
   4  -6   7  669.63   35.60
   5   1   1   49.99   16.70
   6  -7   7   10.20   22.30
   6  -5   6  375.16   30.50
   6  -1   3    8.70   18.70
   7  -6   6   12.20   22.30
   7   4  -8  103.39    5.80
   8   3  -5  138.29   12.80
   9  -5   4   46.20   22.70
   9   3  -8   21.40    8.90
  10   1  -4   59.29   15.30
  -5  -7  -4   25.90   15.70
  -2 -15   7    5.10   11.00
  -1   1 -10  805.02   37.30
   0   2  -5 2708.73   43.90
   1   3  -7   24.20   11.00
   2 -13   9   55.19   21.00
   2  -9   8    0.60   19.40
   3  -3   5  137.09   23.90
   3   4 -10  179.08   17.00
   4   4 -12   34.20   13.90
   7  -3   4  591.04   35.80
   7   4 -12   20.30    8.80
   8  -4   4  200.48   26.60
   8   1  -1  154.68   19.40
  10  -1  -1  -22.50   19.40
  -6 -13  -2  -11.20   13.80
  -5 -11   1  438.96   17.40
  -4  -4  -4  120.09   18.70
  -3  -2  -4   -0.10   12.90
  -2 -16   7   -2.00   10.70
  -2   0  -8   85.59   23.30
  -2   0  -7   60.59   20.40
  -2   0  -6   20.20   17.70
   0 -12   8   53.19   18.20
   2 -14   9   18.20   17.40
   2  -5   6 1496.95   43.40
   3 -13   9   68.29   22.70
   3  -9   8  275.27   27.80
   4  -9   8  118.49   24.50
   5  -5   6   37.60   21.60
   5   0   2    6.30   19.20
   5   4 -13   -3.20   13.80
   6   3  -3  138.59   13.00
   6   4 -13    3.00   12.40
   7  -9   7   69.19   26.20
   9  -4   3   -1.50   22.20
   9   0  -1   31.40   16.30
  10  -2   0   83.09   19.80
  -2   0  -9   17.90   23.60
  -1 -11   7  236.28   17.70
   0  -5   5  203.58   17.40
   2  -7   7  217.68   21.70
   3  -2   4    1.50   17.20
   3   0   2   20.60   14.80
   3   4 -11   51.59   14.60
   4  -2   4  206.48   25.70
   5 -10   8  106.19   26.30
   6  -8   7   72.49   23.60
   6  -4   5   -4.60   22.80
   7  -1   2    9.40   16.50
   7   0   1   17.50   16.20
   7   3  -4  772.32   22.40
   8  -6   5  309.47   29.30
   9   3  -9  170.78   11.10
  -2   0  -5    4.80   14.60
   1 -11   8  684.23   33.30
   1   0   1  637.24   17.90
   3  -7   7  174.28   26.60
   3  -5   6   35.70   18.90
   4  -7   7    4.20   20.90
   4  -5   6  124.99   26.70
   4  -1   3   27.00   19.20
   4   0   2  229.88   19.90
   4   4 -13   14.90   16.80
   6  -6   6  198.78   27.20
   7  -7   6   29.50   24.10
   7  -5   5  229.78   28.20
   7   2  -2   -5.30   11.60
   8  -2   2   12.70   22.90
   8   0   0  217.18   22.20
   9  -1   0   85.29   19.70
  -6 -14  -1    7.20   10.70
  -6 -12  -2    6.30   15.80
  -5 -13   2   -8.80    6.10
  -4 -10   3  125.79    5.20
  -4  -4  -3  392.36   25.00
  -2  -1  -2 1334.57   32.30
  -1   1  -4 2823.12   47.00
   0  -7   6  425.06   23.70
   1  -8   7   14.30   14.30
   3   4 -12    8.80   14.90
   4 -10   8  -12.30   21.50
   9   1  -3   57.99   16.30
   9   2  -5   52.99   14.90
  10   0  -3    9.30   16.00
  10   1  -5   19.50   18.00
  -5  -9   0   49.10   12.30
  -5  -8  -1   -4.40   12.80
  -4  -3  -7  159.38   23.10
  -3  -2  -3  310.37   20.40
   0 -14   8   31.90   17.10
   1  -3   4 1129.39   33.20
   5  -8   7  -12.10   22.70
   5   2  -1  268.67   16.50
   6  -9   7   65.39   24.80
   6   1   0  146.49   17.20
   7  -4   4   17.00   24.70
   8  -7   5   25.70   22.50
   8   3  -6    0.30   10.60
   9  -5   3   17.90   24.20
  -3  -1  -8  147.69   24.70
  -3  -1  -7   51.89   19.10
  -3  -1  -6 2400.76   54.79
  -1 -12   7   24.60   12.60
   0 -15   8  154.68   21.00
   1 -12   8  261.57   27.20
   2   4  -9  834.72   27.90
   3   2  -1  314.57   12.80
   4 -11   8   -3.70   21.90
   5 -12   8   57.79   23.10
   5   4 -14   59.39   14.40
   6  -2   3  855.11   37.00
   7  -8   6   57.49   26.20
  10  -1  -2  -10.70   17.20
  -4  -3  -5   14.50   17.50
  -2   0  -4  -32.90   14.70
   0 -16   8   53.39   18.20
   1   3  -5 2446.16   36.10
   2   4 -10  592.04   26.50
   3 -11   8   55.79   22.20
   3   4 -13   45.60   15.70
   4   4 -14  111.99   19.90
   6  -7   6    8.00   21.30
   6  -5   5   -9.80   21.70
   6  -1   2   47.80   18.40
   6   0   1    0.20   14.70
   7  -6   5  -19.50   21.00
   8  -4   3   46.70   24.30
  10  -3   0   78.39   19.40
  10  -2  -1   12.60   19.10
   1 -13   8   30.10   18.60
   1  -9   7  197.48   21.70
   2 -12   8   -6.70   21.30
   2  -6   6   88.79   18.70
   2   4 -11   65.49   15.30
   3  -8   7  100.89   20.00
   3  -4   5   66.39   20.80
   4 -12   8   37.60   23.10
   4  -6   6    6.70   19.40
   5  -9   7   26.60   22.90
   7  -3   3  213.58   26.30
   8  -8   5   50.69   22.10
   9   0  -2    0.10   15.90
  -5 -10   1  215.18   13.00
  -5  -6  -3   31.50   16.50
  -4  -3  -4   41.10   18.80
  -1   2 -10    9.70   21.40
  -1   2  -9   84.79   21.10
  -1   2  -8   27.00   17.60
   3  -6   6  142.99   20.60
   7  -2   2   37.90   20.70
   8  -6   4   75.19   23.30
   8   2  -4   -2.20   11.20
   9  -6   3  184.48   27.00
  10   0  -4  324.07   24.00
  -6 -12  -1   12.80   10.70
  -4  -8   2  117.79    8.30
  -3 -12   5   -4.90    4.80
  -2 -12   6   65.79   10.90
  -1   2  -7  122.79   19.00
   0   3  -9    2.30   16.40
   0   3  -8  100.09   16.70
   1 -15   8  211.38   25.10
   2  -3   4   69.59   17.80
   2   4 -12  272.57   20.80
   4  -9   7  127.69   23.80
   4  -3   4   55.49   21.30
   5  -7   6  368.46   30.30
   5  -5   5   38.30   20.90
   5  -2   3 1542.85   45.70
   5   1   0  707.43   25.00
   6  -8   6   91.69   24.30
   7  -7   5   -8.90   21.20
   7  -5   4    8.00   21.30
   8   0  -1    4.20   15.50
   9   2  -6   25.40   13.90
  -2   1  -7  138.69   22.60
  -1 -14   7  -15.80   16.20
   0 -11   7   21.80   14.40
   1 -16   8   76.39   21.30
   1  -7   6   83.69   16.30
   1  -5   5    7.90   13.40
   2 -14   8  183.68   24.50
   2  -9   7  210.68   23.70
   3  -9   7  175.68   22.60
   3  -3   4  116.79   22.70
   3   4 -14   14.10   17.70
   4   4 -15    4.70   17.10
   5 -10   7    4.50   19.50
   6  -6   5   -1.80   18.20
   7   3  -5    4.90    9.10
   9   1  -4  577.34   26.50
  -6 -10  -2   10.80   13.00
  -6  -9  -3    0.50   12.90
  -5 -12   2   20.00    6.50
  -4  -2  -7  343.07   28.70
  -3  -1  -4  142.09   17.70
  -2  -9   5    8.20    8.30
  -1   2  -6 1463.05   38.10
   0  -8   6 1927.71   39.60
   0   3  -7   58.49   13.40
   2 -15   8   19.90   17.80
   3 -14   8   97.59   20.80
   4   3  -3   12.60    5.30
   5   0   1  -14.00   12.90
   7   2  -3   51.29   12.00
   8  -7   4  172.18   26.30
   8  -5   3   28.90   22.70
   9  -5   2   -6.70   22.90
  10  -1  -3   66.89   19.50
  -6  -8  -4    8.80   13.70
  -3   0  -8   -9.50   19.70
  -2   0  -3   21.20   14.90
  -2   1  -6   28.00   17.00
  -1 -17   7   22.40   14.30
  -1 -16   7   14.60   14.80
  -1 -15   7    4.20   13.90
   2  -2   3 2946.81   49.60
   4 -10   7   27.10   20.60
   4  -7   6   -5.70   18.90
   4  -5   5   15.10   17.70
   4  -2   3   47.60   19.60
   5 -11   7   44.30   21.80
   6  -3   3   18.70   20.60
   7  -8   5  113.39   26.00
   7  -4   3   33.10   19.40
   7   4  -9   35.70    4.80
   8   3  -7   -7.00    8.90
  10  -3  -1   58.99   20.60
  -5  -8   0   -5.50   11.60
  -5  -6  -2   15.80   12.10
  -5  -4  -6  400.56   27.00
  -4 -14   4   42.20    4.30
  -4  -3  -3 2461.85   47.80
  -3   0  -7 2313.47   57.59
  -2 -13   6 1132.09   26.00
   0 -12   7   10.40   14.00
   1   4 -10  107.39   17.80
   2  -5   5   68.39   18.20
   3 -10   7  656.73   34.80
   3  -7   6  654.93   32.80
   3  -5   5  374.06   26.70
   5 -12   7   23.60   22.20
   5  -8   6  -11.20   18.50
   5  -4   4  375.46   29.50
   7  -6   4   31.40   24.70
   9   0  -3  815.62   32.50
  -4  -2  -5  758.52   33.40
  -1 -10   6  255.57   17.20
   0   3  -6  482.35   21.80
   1   4 -11  286.37   22.00
   3  -2   3  329.47   23.40
   3   1   0  104.49   11.60
   4 -11   7   27.70   19.70
   4  -1   2  265.07   22.90
   5  -6   5   56.79   22.60
   6 -10   6    0.50   22.20
   6  -7   5  164.08   25.30
   6  -5   4  -13.10   18.80
   8  -8   4   92.29   23.50
   8  -4   2    9.60   19.30
  -6  -8  -3  804.72   32.10
  -5  -4  -5  234.38   23.40
  -3   0  -6  -12.60   18.00
  -2   1  -5   44.80   15.40
  -1  -4   3 5212.98   39.20
  -1   2  -5 3577.84   54.69
   1   4 -12  257.67   22.20
   2  -1   2 1270.57   31.30
   2   0   1    2.50   12.70
   4  -8   6   -9.70   20.40
   4   0   1   11.20   12.30
   5 -13   7   29.20   20.20
   6   4  -7   26.90    4.90
   7  -9   5  106.49   25.20
   7  -3   2   97.59   22.80
   7   1  -2  157.18   16.10
   8  -6   3   16.30   22.50
   9  -6   2   10.50   22.40
   9  -2  -1    7.40   17.80
   9   2  -7    3.80   12.10
  -3  -1  -3  211.88   18.40
  -2 -14   6   72.19   11.60
  -1   0  -1  749.33   19.30
   0 -13   7  -11.20   15.30
   1  -8   6  561.34   25.30
   1  -4   4  354.66   20.80
   3 -11   7   77.89   22.30
   3   0   1 3999.80   51.89
   4 -12   7   59.69   22.30
   4   5 -11   95.19   13.70
   4   5 -10  900.51   22.90
   5  -9   6   49.00   22.60
   6 -11   6   40.30   23.90
   6   0   0 2039.40   43.50
   8  -3   1  231.48   28.00
   8   2  -5   43.90   12.00
   9   1  -5   62.79   16.40
  -6 -10  -1   75.09   13.70
  -6  -7  -4  199.58   20.60
  -4  -2  -4  203.78   21.20
   0   2  -3   -9.60   10.40
   1 -12   7   11.10   20.20
   1   3  -4 5048.59   43.20
   3  -8   6  578.84   30.90
   4 -13   7    3.70   22.10
   4  -6   5   48.00   19.80
   4   5 -12  586.24   23.20
   5  -3   3  174.38   23.20
   5   2  -2   79.49   10.90
   6  -8   5  427.36   32.60
   7 -10   5  -23.20   26.10
   7  -7   4    9.30   22.80
   7  -5   3   73.39   22.70
   7  -2   1   41.00   17.40
   8  -9   4    5.50   22.80
   8  -1  -1  142.79   21.70
  10  -1  -4   47.00   18.10
  -5  -9   1    7.10    7.70
  -4  -1  -7  759.32   36.60
  -3   0  -5   79.79   17.80
  -2 -17   6    5.80   10.80
  -2 -16   6    6.50   11.30
  -2 -15   6   34.40   12.00
  -2   2  -9   26.10   18.80
  -1 -11   6  233.58   17.90
  -1   3 -10  247.78   24.50
  -1   3  -9  159.88   22.20
   0 -16   7  305.87   24.20
   0 -15   7   53.89   17.90
   1  -6   5   85.09   16.20
   3 -12   7   13.40   20.20
   3   5 -11  259.57   17.40
   3   5 -10   64.19   14.50
   5 -10   6   47.60   20.60
   5   5 -12  136.39   13.10
   5   5 -11  514.85   16.60
   6 -12   6    7.60   20.20
   6  -4   3  273.57   27.70
   8  -7   3  192.28   30.20
   8  -5   2   -1.30   19.70
   9  -7   2  183.48   25.60
  10  -3  -2   19.90   19.20
  10  -2  -3    0.60   18.00
  -5  -3  -6   10.40   15.60
  -4  -1  -6  169.48   23.70
  -1   3  -8  226.28   22.30
   0  -2   2   63.39   10.60
   1 -13   7  429.76   28.10
   2  -4   4  158.08   18.70
   3  -6   5 1050.79   36.50
   3  -4   4   47.60   18.80
   3   5 -12   83.59   16.00
   4  -9   6   41.00   20.50
   4   5 -13   15.10   13.40
   4   5  -9   94.29   10.70
   5  -5   4   18.20   22.50
   6  -6   4   -4.90   21.20
   7 -11   5   10.60   22.40
  10   0  -6    3.20   15.70
  -4 -17   4    3.60    4.80
  -4 -15   4   12.80    4.90
  -3 -14   5    5.20    7.40
  -2   2  -7  296.87   23.50
   2  -6   5 1531.55   40.70
   3   5 -13   25.40   15.50
   3   5  -9  151.38   14.50
   5  -2   2  113.49   19.60
   5   5 -13   16.00   11.80
   5   5 -10   36.90    9.20
   6  -9   5  331.17   29.90
   7  -8   4   68.69   22.40
   7   3  -6  630.14   18.00
   9   0  -4    3.10   12.50
  -6  -7  -3   90.19   16.30
  -5 -11   2   98.39    7.90
  -5  -3  -5  112.49   19.40
  -4 -16   4    4.00    5.00
  -3 -17   5    6.70    8.20
  -1   3  -7  662.23   30.10
   0  -7   5    0.80   11.50
   0   4 -11   -2.30   16.70
   1 -16   7    5.90   18.20
   1 -15   7  529.15   29.50
   1  -9   6  229.58   18.80
   2   5 -11   21.30   14.20
   3 -15   7  116.19   23.60
   4 -10   6  328.27   29.60
   4   5 -14   25.10   15.10
   5   1  -1    9.40   11.80
   6   2  -3    1.70   10.60
   7  -6   3   12.30   20.10
   8  -8   3  -11.20   22.90
   8  -4   1   -3.20   21.70
   9  -6   1   -9.10   22.30
   9  -3  -1   17.00   19.80
   9   2  -8  148.09   15.40
  -6 -11   0   33.70    9.90
  -6  -9  -1   50.29   12.00
  -6  -6  -4   -6.10   14.40
  -5  -7   0   82.29   13.00
  -4  -1  -5  498.45   28.10
  -3 -16   5  152.48   11.10
  -3 -15   5    0.80    8.10
  -3  -4   1  533.85   14.80
  -3  -2  -1 1171.98   28.60
  -3   0  -4   -0.10   14.10
  -3   1  -7   66.79   19.90
  -2   0  -2 6684.23   65.29
  -1 -12   6  891.41   27.00
  -1   2  -4 3283.37   49.90
   2 -16   7  -15.10   19.30
   2  -9   6  103.49   19.40
   2   5 -12  321.77   21.50
   2   5 -10  286.17   21.30
   3   5 -14   20.70   17.10
   4  -7   5   16.90   19.10
   5 -12   6  147.49   26.10
   5  -8   5   42.90   21.10
   5  -1   1   50.49   15.10
   5   0   0   12.10   14.80
   5   5 -14   18.30   12.90
   8  -6   2   40.50   20.60
   8   1  -4   16.80   11.80
   9  -2  -2    1.70   16.40
   9  -1  -3   70.69   18.00
  -2   2  -6  623.54   29.50
   1  -3   3  330.87   19.50
   1   2  -2   96.59    6.20
   2   5 -13    4.40   13.70
   5 -13   6  -17.00   19.90
   6  -5   3   65.19   22.00
   7  -9   4  112.89   24.00
   7  -3   1   13.10   17.30
   9   1  -6    6.50   12.70
  10  -4  -2   67.59   19.50
  -3   1  -6 2280.47   53.09
   1   4  -6   -2.10   10.40
   2   5  -9  326.07   20.00
   3 -10   6  182.88   23.50
   3  -7   5  730.03   32.60
   3  -3   3   76.39   17.60
   4 -11   6  521.45   31.90
   4   5 -15   -9.70   11.20
   5  -6   4   14.90   18.30
   6 -11   5   47.20   19.40
   8  -9   3   18.00   21.50
   8   0  -3   -7.20   14.40
   8   2  -6   17.10   10.70
  10  -3  -3  -29.30   17.80
  10  -2  -4   36.60   18.30
  -6 -14   1    3.80    7.10
  -5  -3  -4  695.43   30.60
  -5  -2  -6    1.50   18.10
  -4   0  -7   -9.10   20.00
  -3  -1  -2 3067.89   49.00
  -1 -13   6   20.00   12.30
  -1   1  -2   59.29   16.10
  -1   3  -6 2091.99   44.30
   0 -11   6   13.60   14.60
   1  -7   5  313.67   20.60
   2 -10   6   99.09   19.10
   3   5  -8   -8.20    9.30
   4 -12   6  147.69   25.90
   4   2  -2  304.37   12.80
   5  -9   5   34.40   20.40
   7 -10   4   22.90   24.10
   7  -7   3   22.80   22.90
   7  -5   2   40.90   18.90
   7   1  -3   29.70   12.90
   8  -1  -2   15.50   16.90
   9  -7   1  186.78   26.10
  -7 -12  -2  179.38   17.30
  -6  -6  -3   67.19   15.90
  -4  -1  -4   14.60   18.60
  -1 -17   6   32.70   14.80
  -1 -14   6   93.39   15.40
   0   4  -7  122.39   16.90
   1   5 -12  102.29   19.10
   1   5 -11  131.39   18.50
   2  -7   5 1203.18   36.10
   3 -11   6  216.88   24.60
   3  -5   4   50.79   18.60
   4 -13   6  168.08   28.00
   4  -8   5   -7.20   17.70
   6 -12   5   11.40   20.70
   6  -8   4   12.20   20.40
   6   0  -1    5.50   13.30
   8 -10   3   72.09   25.40
   8  -5   1   37.50   20.10
  -6 -10   0  157.98   13.20
  -6  -5  -4  -10.80   15.20
  -4   0  -6 3046.20   61.59
  -2   3  -9  410.66   28.60
  -1 -16   6    0.40   13.50
  -1 -15   6  121.29   17.60
   1  -5   4  130.49   15.00
   1   5 -10  198.38   19.20
   4 -14   6   14.90   23.20
   4  -1   1   58.29   14.50
   5 -10   5  208.08   27.40
   5  -3   2 2264.17   51.29
   6 -13   5   12.70   20.20
   6  -4   2   19.20   18.80
   6   5 -13    3.40    9.10
   6   5 -12   -1.40    6.80
   7 -11   4   41.60   21.30
   9  -4  -1   -7.90   18.40
   9   0  -5  432.16   25.50
   9   2  -9   20.40   12.00
  -6 -13   1    1.10    6.60
  -6  -8  -1   49.60   12.10
  -5  -8   1   36.30    9.60
  -3   1  -5   34.00   17.00
  -2 -11   5   39.90    9.70
  -2   1  -3  508.25   24.90
  -2   2  -5  263.27   20.30
  -1   4 -10  521.35   30.30
   0  -8   5 2367.06   42.10
   2 -11   6   -2.00   17.40
   2   5  -8 1348.37   30.00
   3 -12   6   56.19   22.10
   4  -6   4  239.58   23.00
   4  -4   3  385.36   26.20
   4   5  -8  217.68    9.60
   5   5  -9   18.30    5.60
   6  -6   3   62.09   20.60
   7 -12   4   48.90   24.40
   8   3  -9  126.79   11.00
   9  -8   1   16.90   18.70
   9  -6   0   34.90   22.30
  10  -1  -6   30.90   15.90
  -7 -11  -2    0.20   10.40
  -4  -3  -1 1482.55   33.60
  -3   0  -3  146.89   17.50
  -3   2  -8  377.16   29.10
  -2   3  -8   50.19   18.10
  -1   4  -9    0.10   15.90
   2   4  -5   58.69    7.30
   3  -8   5  249.38   24.00
   4  -9   5   34.00   21.00
   4   0   0   10.90   11.20
   4   1  -1   21.80    8.40
   5 -11   5  229.88   29.10
   5  -5   3  125.19   23.30
   7  -6   2   13.50   22.10
   8  -4   0  430.46   31.30
  10  -4  -3  157.78   23.90
  -5  -3  -3  198.48   19.50
  -4  -2  -2  845.92   29.10
   0 -17   6   39.70   18.30
   0 -13   6   17.30   15.40
   0   3  -4 3696.23   46.30
   1  -2   2  296.07   18.40
   3 -16   6   11.40   19.80
   3 -15   6  -10.90   20.10
   5 -12   5   93.29   25.80
   7  -9   3  176.78   26.70
   7   2  -5  786.02   23.40
   8   1  -5   62.39   11.80
   9   1  -7    7.20   14.10
  10  -3  -4   -1.90   17.20
  10  -2  -5   17.90   17.30
  -4   0  -5  -14.50   18.30
  -3   2  -7  522.25   30.50
  -2   3  -7 1338.87   42.10
  -1   3  -5  785.22   28.70
  -1   4  -8   13.00   17.50
   0 -16   6   70.79   17.00
   0 -15   6  118.29   19.30
   0   5 -11   12.80   16.10
   1 -13   6  162.38   22.00
   1  -8   5  376.26   21.70
   2  -2   2 1650.43   36.00
   4 -10   5   69.79   19.50
   5  -2   1  274.97   22.40
   6 -10   4   96.49   24.00
   6  -7   3   98.59   22.10
   8  -9   2    8.80   20.40
   9  -7   0    3.30   21.80
  -7 -10  -2   51.59   13.20
  -6  -5  -3   60.29   16.30
  -5  -6   0   51.39   12.80
  -5  -1  -6   12.40   18.00
  -4  -7   2  244.08    9.10
  -2 -12   5  415.56   16.90
  -1  -3   2  305.97    8.20
   0  -6   4   59.49   12.80
   0  -4   3   40.80   12.30
   1 -17   6   61.09   20.10
   1 -16   6  194.08   23.30
   1 -14   6   89.59   20.90
   2 -16   6   48.90   19.50
   2 -15   6   35.80   20.20
   2 -14   6   62.59   21.90
   3  -9   5   49.20   19.20
   3  -6   4   23.50   19.90
   3  -1   1  910.41   28.00
   4  -7   4   73.89   23.10
   5 -14   5  154.88   23.40
   5 -13   5  197.88   25.70
   6  -5   2   19.90   17.90
   6   5 -11   -2.80    5.00
   7  -3   0  158.78   24.00
   7   3  -7    0.10    7.50
  -6 -12   1    2.40    6.70
  -6  -9   0   22.50   10.20
  -6  -4  -4   62.69   17.70
  -5 -10   2    6.60    5.30
  -4  -1  -3   43.20   15.50
  -4   1  -7  779.62   37.20
  -1 -10   5   33.60   14.70
  -1   2  -3  599.74   23.80
   1 -15   6    8.20   16.80
   4 -11   5  166.58   24.00
   4  -3   2 1549.14   41.50
   7 -10   3   -2.20   19.60
   7  -7   2  106.89   25.70
   8 -10   2    6.90   19.80
   8  -7   1   38.00   20.40
   8  -5   0  387.76   29.70
   8  -2  -2   10.30   19.60
   8  -1  -3   15.70   17.00
   8   0  -4  240.68   18.90
   8   2  -7  111.09   13.20
   9  -4  -2   99.29   22.40
  -7 -12  -1    2.20    9.60
  -7  -8  -3   -2.20   12.30
  -6  -7  -1  333.17   19.00
  -3   2  -6  970.40   36.80
  -2   2  -4  428.66   24.30
  -1   4  -7  131.59   19.00
   0  -9   5   58.29   13.00
   1   4  -5 1012.40   23.30
   2  -9   5   44.80   19.60
   2  -6   4  355.16   22.90
   5  -9   4   58.79   22.30
   5  -6   3   45.80   19.40
   5  -4   2  162.58   21.00
   5  -1   0  799.82   28.80
   6  -2   0  205.38   19.60
   6   2  -4  249.68   14.40
   7 -11   3  157.28   26.20
   7  -5   1  426.16   30.90
   9  -8   0  161.38   25.90
   9   0  -6   17.80   14.20
  -5  -1  -5   65.99   18.90
  -2 -17   5  260.07   19.30
  -2 -13   5  268.57   15.10
  -2   3  -6 1386.76   40.50
   1  -9   5  126.99   18.50
   1  -6   4   24.10   11.50
   2  -4   3   36.50   14.60
   3 -10   5   82.19   19.40
   3   6 -13   86.79   16.30
   3   6 -12   13.30   12.50
   5   0  -1 1128.79   31.30
   7 -12   3   33.50   23.60
   7   1  -4   60.49   12.20
   9  -3  -3   -9.40   16.90
  -7  -9  -2   10.60   12.30
  -4   0  -4   12.60   14.90
  -2   4  -9  886.11   38.80
  -1  -7   4  175.48   12.10
   0   1  -1    3.60    4.00
   1  -4   3  971.20   26.50
   2  -1   1  843.42   25.10
   2   6 -13   32.60   17.70
   2   6 -12  102.59   15.90
   3   5  -7  219.48   10.40
   3   6 -14   19.10   15.20
   3   6 -11   32.00   13.40
   4 -13   5   24.70   21.50
   4  -8   4  122.39   21.70
   5 -10   4   16.90   19.00
   7  -8   2   23.70   22.90
   7   0  -3   34.20   13.80
   8  -8   1   -4.60   19.60
   9  -2  -4   77.49   17.00
   9  -1  -5   50.79   17.30
  10  -3  -5    6.80   17.50
  -7 -11  -1   71.29   12.60
  -3   3  -8   26.60   19.00
  -2 -16   5   14.30   11.90
  -2 -15   5   18.90   12.50
   2 -10   5  -19.40   18.40
   2   6 -11   32.30   13.30
   3 -11   5   79.19   20.80
   3  -7   4 3145.49   57.99
   3   1  -1  224.58   13.00
   3   6 -15   93.09   18.80
   4   6 -14    4.50   12.90
   4   6 -13   -5.10   12.30
   4   6 -12   44.50   13.00
   6  -9   3   13.30   20.80
   6  -4   1   16.00   18.70
   6   0  -2 2045.70   41.60
   8  -6   0  -13.60   20.10
  -7  -7  -3   16.50   12.30
  -6  -4  -3  269.37   22.60
  -3  -5   2   -8.00    4.30
  -1 -11   5  204.58   16.10
   1  -1   1  338.27   13.50
   1   6 -12   -2.00   13.40
   3 -12   5   60.39   24.20
   4  -2   1  895.31   30.70
   5 -11   4   20.60   22.00
   7  -6   1  400.66   30.90
   7  -4   0  379.76   27.10
   8   3 -10   18.70    7.90
   9  -7  -1   22.70   20.60
  -6  -8   0   22.80    9.40
  -6  -5  -2   16.80   13.30
  -5  -7   1  138.29   11.70
  -5   0  -6   11.00   18.60
  -3   0  -2   14.40   15.20
  -3   2  -5   88.79   19.20
  -2   0  -1    0.70   14.80
  -2   4  -8  184.98   21.50
  -1   4  -6  333.97   22.50
   1 -10   5   43.60   13.70
   1   6 -11   18.50   15.70
   2   6 -10   95.39   15.30
   3 -13   5   12.40   22.90
   3  -5   3  172.88   20.10
   3  -3   2   10.10   14.50
   4  -9   4  338.37   27.60
   5 -12   4  283.87   27.50
   5  -5   2  123.19   24.80
   5  -3   1  576.94   28.00
   6 -10   3   68.39   21.90
   8   1  -6   41.80   12.40
  -7 -10  -1    4.90   11.20
  -5  -1  -4  221.98   22.90
  -4   1  -5  493.65   29.70
  -3 -11   4   66.99    7.30
  -3   3  -7   -5.50   19.30
  -1 -12   5   41.10   14.20
  -1   3  -4 1207.18   32.20
  -1   5  -9  615.04   30.50
   0   4  -5  585.34   22.90
   2 -11   5   23.50   16.00
   2  -7   4   23.20   15.20
   3 -16   5  305.47   27.40
   3   6 -10  -14.00   10.70
   4   6 -11  571.14   19.60
   5 -13   4  106.59   22.30
   6  -7   2  364.76   28.60
   8 -10   1   19.80   20.50
   9  -4  -3   -0.40   16.70
  -4  -1  -2  272.77   20.00
  -4   2  -7  316.37   28.30
  -2   3  -5 2820.42   54.59
  -1  -5   3  777.52   16.40
   1   6 -10  474.65   25.30
   2 -12   5  103.59   21.70
   3  -8   4   -1.70   18.30
   4 -10   4    3.40   21.90
   5 -15   4   15.70   19.20
   5 -14   4  142.99   22.90
   5  -8   3  159.28   25.70
   7  -3  -1  183.78   22.20
   8 -11   1   12.00   26.10
   8  -5  -1  116.59   23.70
   8  -2  -3  150.68   22.00
   8   0  -5   13.60   13.10
   9  -8  -1   75.39   20.60
   9   0  -7   -8.20   13.60
  -3   1  -3  173.28   19.90
  -2   4  -7  825.62   35.20
   0   2  -2   68.79   10.10
   0   5  -7  713.93   26.60
   0   6 -11   21.90   17.20
   1  -7   4  110.69   15.90
   2 -17   5  105.39   20.50
   2 -16   5  -20.10   18.90
   2   0   0 1747.13   27.50
   6 -12   3   23.80   20.80
   6  -5   1  277.57   27.10
   6   4  -8   63.39    5.50
   7  -5   0    1.90   17.70
   8  -1  -4    4.40   15.70
   9  -3  -4   26.60   16.40
  -7  -6  -3   -7.70   13.60
  -4   0  -3    1.60   15.50
  -1 -15   5   42.00   12.50
  -1 -14   5  137.99   15.50
  -1   5  -8   21.20   17.80
   0 -17   5   46.60   16.70
   0 -12   5   61.69   15.50
   1 -17   5  -10.80   18.50
   2 -15   5   33.80   19.90
   2  -5   3   33.40   13.90
   2   6  -9  242.28   17.50
   5  -9   3   11.40   22.40
   5  -2   0   23.70   15.00
   6 -14   3    8.30   19.50
   6  -8   2  754.12   36.70
   7 -13   2  -26.00   25.60
   8  -8   0   64.69   21.80
   9  -2  -5   64.29   17.10
   9  -1  -6   19.00   16.30
  -7  -9  -1   12.80   11.60
  -6 -10   1    0.50    8.10
  -4   2  -6  587.64   33.30
  -3   3  -6   57.99   19.30
   0 -16   5   14.50   16.80
   0 -13   5  -12.50   13.90
   0   6 -10   44.10   18.80
   1 -16   5    6.50   16.40
   1   3  -3  232.88    9.90
   1   6  -9   -8.00   15.40
   4  -7   3 1440.06   43.50
   5  -6   2   14.10   16.90
   5   6 -13  122.99   12.10
   7  -8   1  436.66   32.00
  -4   1  -4    7.80   16.00
  -3 -17   4  231.58   14.60
  -3   2  -4  -12.60   13.70
   0 -15   5  117.69   19.00
   0 -14   5   47.00   18.70
   1 -15   5   80.39   19.70
   1 -14   5  156.68   23.10
   4 -15   4   87.59   23.90
   5  -4   1  102.19   19.40
   6  -2  -1   61.39   17.40
   7   1  -5  241.48   18.80
   7   3  -8   22.40    8.30
   8  -9   0   93.19   20.80
   8  -6  -1  111.19   22.00
   9  -5  -3   61.29   19.80
  -7 -12   0   -3.60    8.70
  -6  -7   0  151.08   14.20
  -5  -9   2   -4.20    4.90
  -5  -2  -2  111.59   19.70
  -5  -1  -3   87.49   18.30
  -5   1  -6   11.40   19.90
  -3   4  -8  101.89   22.80
  -2   5  -9  450.55   28.80
   1  -5   3  247.38   16.60
   3 -10   4   25.80   18.90
   4 -14   4   55.49   20.70
   4   6 -10   82.29   11.40
   5 -10   3   -5.00   18.20
   6  -6   1  223.88   24.80
   7  -6   0 1028.40   39.20
   7  -4  -1  494.35   31.30
   7   0  -4   11.90   12.60
  -3 -16   4   12.60    9.10
  -2   4  -6  822.52   32.90
  -1   4  -5 1978.20   41.00
  -1   5  -7   43.40   16.00
   0  -5   3  191.38   12.90
   1  -8   4  633.14   25.70
   1  -3   2  339.57   17.90
   1   5  -6   30.40   10.20
   2   1  -1    4.70    7.40
   4  -8   3  588.14   31.40
   4  -3   1 1460.15   38.80
   5 -11   3   31.30   21.20
   5  -1  -1    7.40   12.50
   5   6 -12  263.77   12.20
   8 -10   0  -21.80   20.30
   8   1  -7   81.69   14.50
   8   3 -11   17.50    7.90
   9  -8  -2   10.20   18.10
   9  -4  -4  -10.70   16.10
  -7  -5  -3   73.79   15.90
  -5   0  -4   -5.90   16.20
  -3 -13   4    7.20    6.00
  -2   3  -4   76.09   16.00
   0   3  -3  503.85   17.80
   2  -9   4  302.47   24.20
   3 -17   4  433.16   30.00
   3 -11   4  114.09   22.70
   5 -12   3   41.50   22.10
   5  -7   2  287.57   26.90
   6 -10   2   22.40   18.90
   6  -1  -2  123.59   15.20
   8 -11   0   -2.80   18.60
   8  -7  -1    7.30   19.30
   8  -5  -2   86.39   23.50
   9   0  -8    4.40   13.80
  -7 -11   0   -2.60    9.90
  -7  -8  -1  362.06   19.30
  -4   3  -7  156.48   23.10
  -3 -15   4   36.80    8.00
  -3 -14   4   10.70    7.20
  -3  -3   1   91.59    8.80
  -3   4  -7   54.49   18.60
  -2   5  -8   60.69   18.60
   0   5  -6   57.19   13.30
   1   0   0   -8.70    7.20
   2   7 -14  101.49   18.50
   2   7 -13  346.07   22.70
   3 -12   4   -5.60   17.00
   4   1  -2  211.18   12.40
   5 -15   3   31.10   20.00
   5 -14   3  184.18   25.70
   5 -13   3    3.00   21.00
   6 -11   2   78.29   22.50
   7  -7   0  293.67   27.80
   8  -2  -4    7.70   15.90
   9  -9  -2   -2.00   17.20
   9  -3  -5   21.30   16.30
  -6  -9   1  129.39   11.60
  -5  -6   1   12.00    8.40
  -5   1  -5   71.79   18.80
  -2 -18   4  116.19   17.90
   1   7 -12   82.39   15.70
   2 -10   4   19.00   20.00
   2  -6   3  115.89   16.30
   2   6  -8   63.39   13.30
   2   7 -12  251.07   18.70
   3 -14   4   -2.90   20.00
   3 -13   4    4.40   21.60
   4  -9   3  221.78   24.80
   5   0  -2   15.00   10.70
   6 -13   2  -17.90   21.10
   6 -12   2    0.40   20.90
   6  -7   1  360.56   27.90
   7 -12   1    0.50   22.20
   7  -3  -2  149.69   19.60
   8  -8  -1   66.89   20.20
   8  -1  -5   61.89   18.50
   8   0  -6   15.60   15.30
   9  -2  -6   30.80   17.90
   9   1 -10   -5.00   13.20
  -1   2  -2  297.47   18.30
   3   7 -13   47.80   13.60
   5  -8   2  269.47   26.00
   5  -3   0  196.68   20.60
   6 -14   2    3.00   16.60
   7 -13   1  105.99   24.40
   7  -5  -1  627.54   32.60
   8   2  -9  171.98   13.90
   9  -5  -4   11.30   17.50
  -8 -10  -2    3.40    9.80
  -4   0  -2  223.68   19.50
  -4   3  -6   -1.00   18.40
  -1   1  -1  359.56   13.90
   1   7 -11   46.90   14.50
   2 -17   4   48.50   19.10
   2 -11   4  699.33   32.90
   2   7 -11   13.20   11.60
   3  -1   0   98.69   14.50
   3   7 -12    1.30   12.40
   4 -10   3   12.60   20.60
   6  -8   1   60.29   21.20
   6  -5   0   96.99   20.60
   8  -9  -1   23.00   18.00
   8  -6  -2    5.20   19.90
  -7 -10   0   15.70    9.90
  -7  -4  -3   29.30   16.00
  -6  -6   0  194.88   16.70
  -4  -4   1 1579.64   26.80
  -3   1  -2 3050.29   49.80
  -2 -17   4   46.30   12.90
  -2   4  -5 1089.39   34.00
  -1 -18   4   42.60   16.70
  -1   3  -3  279.27   18.10
   1 -18   4   -5.80   17.70
   2 -16   4   69.79   20.40
   2 -12   4   82.49   22.40
   3  -8   3  461.85   26.90
   4 -11   3   -5.50   17.00
  -7  -7  -1  104.99   13.50
  -5   0  -3    4.50   18.50
  -3   2  -3  275.27   20.60
  -2 -11   4    9.10    9.90
  -1   6  -8    5.30   16.00
   0 -18   4   13.20   18.30
   0   4  -4   13.10    9.90
   0   7 -11  401.06   23.70
   1 -17   4   -6.10   15.60
   1 -10   4  -12.90   12.80
   1  -6   3  308.47   18.50
   1   4  -4    5.20    7.10
   2 -15   4  -13.60   20.90
   2 -13   4  692.33   35.50
   2  -4   2   80.39   15.50
   3  -5   2   34.00   15.00
   4 -16   3    0.90   18.90
   4 -12   3   53.49   20.80
   4  -4   1  416.56   25.70
   7   2  -7   54.89   10.60
   8 -10  -1   50.59   20.20
   9  -4  -5   33.10   15.50
   9   0  -9   69.79   17.70
  -7  -5  -2   21.90   13.30
  -5  -1  -2   74.79   17.60
  -4 -17   3    7.10    7.40
  -4   2  -4  204.78   20.50
  -3   5  -8   -6.60   17.70
  -2 -16   4   54.39   13.60
  -2  -2   1  565.34   12.40
   1   7 -10   37.90   13.60
   2  -7   3   -7.80   15.40
   4 -14   3  119.39   23.00
   4 -13   3   84.89   21.10
   4  -7   2  482.15   30.40
   4   7 -14   13.20   10.30
   5  -6   1   45.90   21.20
   7  -6  -1   38.20   19.60
   8 -11  -1    1.60   19.90
   8  -7  -2   45.70   20.40
   9  -9  -3   88.39   23.50
   9  -6  -4    2.10   17.60
  -5   1  -4  201.88   21.50
  -3   3  -4  111.29   18.60
  -2 -15   4  -12.30   13.40
  -1 -17   4   62.99   16.90
   0 -17   4   18.00   20.00
   0   7 -10   43.30   15.60
   1 -16   4   26.60   18.00
   1 -11   4   48.80   16.50
   2   7 -10   22.00   10.90
   3  -9   3  232.68   24.50
   5 -16   2   46.00   18.20
   5 -11   2    9.60   19.90
   6  -6   0  196.68   24.00
   6  -2  -2  162.28   17.10
   8   1  -8  145.69   17.70
   9  -3  -6   -0.90   14.20
   9  -1  -8   58.29   18.00
  -7  -9   0   -2.30    9.60
  -6  -8   1   43.80   10.20
  -4   3  -5   12.90   15.40
  -2 -14   4   80.89   12.60
  -2 -13   4   32.30   11.10
  -2 -12   4   27.50   10.30
  -1 -16   4  -12.70   18.70
  -1  -6   3   25.20    7.90
  -1   4  -4  353.66   19.10
   0 -16   4  141.09   19.90
   0  -6   3  429.46   18.70
   0   6  -7  663.43   25.00
   1 -14   4  151.08   24.30
   3 -17   3   15.50   18.70
   3   6  -8  170.68   10.30
   4   7 -13   60.59   11.80
   5 -15   2   17.50   19.20
   5 -14   2   79.29   20.50
   5 -12   2   41.20   22.90
   5  -4   0    7.70   16.70
   6 -11   1   21.90   18.20
   6  -4  -1   70.39   18.80
   7   0  -5  389.66   21.60
   7   1  -6  200.58   16.00
   8  -8  -2  -27.00   21.20
   8  -2  -5   59.29   17.50
   9  -2  -7    0.10   15.40
  -8  -8  -2   42.00   14.00
  -7  -3  -3  196.88   21.00
  -3   5  -7   74.89   20.10
  -1 -11   4  104.59   14.80
   3 -10   3   -4.10   20.70
   6 -15   1   31.30   21.10
   6 -14   1   34.60   19.50
   6 -13   1   47.10   20.20
   6 -12   1    2.10   22.70
   7  -7  -1  166.58   23.90
   8   0  -7    0.30   14.90
   9  -5  -5   27.50   16.60
  -6   0  -4  365.96   25.50
  -3   4  -5   58.79   16.50
  -2   3  -3  132.09   16.60
  -2   6  -8   29.60   17.00
  -1 -15   4   -4.40   14.80
   0 -15   4   33.00   17.50
   0 -14   4    1.70   16.90
   0 -13   4   33.30   18.90
   2  -8   3   24.10   16.20
   3 -11   3  127.19   21.30
   3  -6   2   15.60   17.50
   4  -1  -1   14.20   14.10
   7   3  -9   51.09    8.90
   8  -9  -2  151.78   23.00
  -6  -5   0   93.79   14.20
  -1 -14   4   81.69   15.50
  -1 -13   4  377.76   21.20
  -1   6  -7   22.80   12.80
   0   5  -5  194.48   13.80
   0   7  -9   65.59   15.20
   2 -18   3   -2.50   17.00
   3 -15   3    0.40   19.10
   3 -14   3  -25.00   18.30
   3 -13   3   32.30   22.10
   6   3  -7    1.80    7.30
   7  -3  -3   43.80   14.40
   8 -10  -2  212.68   26.90
   8  -6  -3   24.40   17.90
   8   2 -10   63.69   12.90
   9  -4  -6    5.80   15.10
  -8 -10  -1   13.60   10.50
  -7  -8   0   92.89   12.90
  -5  -5   1 1433.46   27.80
  -4   4  -6   19.50   17.60
   1   5  -5   88.49   10.10
   2   6  -7   89.09   10.60
   2   8 -14  140.59   17.00
   4  -9   2  345.07   27.50
   4  -3   0  108.19   20.10
   5  -8   1    3.40   21.20
   6  -8   0   11.80   18.90
   9  -6  -5  158.58   22.00
   9   0 -10   27.30   13.90
  -6  -3  -1   -7.30   13.80
  -4   1  -2  269.07   22.00
  -4   2  -3   37.70   15.30
   1  -2   1   36.60   13.00
   1   8 -12    5.40   12.10
   2 -17   3   66.39   19.30
   2  -9   3  -20.20   14.70
   4 -16   2   76.29   18.40
   4 -10   2   76.69   21.00
   5  -5   0   58.29   18.60
   6  -5  -1    7.80   17.80
   6  -3  -2   61.49   18.90
   7  -9  -1   81.79   22.70
   8  -7  -3    8.30   21.10
  -5   0  -2  -21.30   17.90
  -5   1  -3   91.99   18.70
  -5   2  -4 1190.48   39.20
  -3   5  -6   38.20   18.10
  -2   6  -7   43.90   16.30
   3  -7   2  374.26   24.70
   3  -4   1  -12.50   14.40
   4 -15   2    3.80   16.60
   4 -11   2   11.80   18.10
   6  -9   0   24.90   17.60
   7 -10  -1  187.38   23.90
   7  -6  -2  209.08   22.10
  -7   1   8   75.29   14.10
  -4  -3   5  809.62   30.70
  -3  -6   6  200.08   19.00
  -2  -8   7   20.50   16.70
  -1  -8   6   39.00   16.00
   2 -10   7   47.90   13.70
   2  11  -2  136.69   19.10
   3  12  -2   -3.20   15.50
   4  12  -2   25.00   14.80
   5   6  -2 2562.04   47.10
   5  11  -2   75.99   14.90
   7   1   0   21.10    9.30
   7  12  -1   -0.60   12.90
  -8   5   9   13.20   10.80
  -6   1   6  288.47   18.50
  -3  13   1   63.79   11.60
  -2  -7   6    5.50   17.60
  -2  -6   5  103.39   16.80
  -1  -7   5   23.30   13.60
  -1  -3   2  288.67   15.00
  -1  -1   1  150.58   11.30
  -1   8  -1  279.47   17.30
  -1   9  -1  111.99   15.60
  -1  18   1    8.60   17.30
   0  -4   2   11.50   11.90
   0  17   0   -2.70   14.40
   1  -6   3  343.87   17.40
   1  18   0   70.09   16.40
   2  12  -2   -2.60   14.40
   2  16  -1  116.99   17.20
   3 -11   9   42.80   16.40
   4  -9   6   24.00   11.90
   5   1  -1    8.70   12.50
   6  -8   6   92.79   10.00
   7  13  -1  -15.50   14.10
   8   3   0   10.20   12.30
   9   3   1  207.28   16.80
  -7   4   7   -2.90    8.50
  -6   4   5   56.29   10.80
  -5  -2   6 1103.09   35.30
  -4  13   2   -5.10    7.90
  -1   7  -1 2920.41   41.10
  -1  10  -1  122.09   16.10
   1   8  -2  110.79   20.60
   1   9  -2  570.34   29.40
   2  -5   2  434.16   14.80
   2   5  -2   35.40   12.20
   3   4  -2   70.79   16.30
   3  13  -2   26.70   13.60
   3  17  -1   62.89   17.30
   4   4  -2  900.81   32.10
   4  13  -2    5.50   12.40
   5  12  -2   19.40   12.90
   6   2  -1   51.89   10.50
   6   8  -2   28.70   15.40
   6   9  -2  103.69   17.60
   6  10  -2  268.47   21.30
   8   0   1    0.90    8.30
  -8   6   9   18.10    9.90
  -4  -4   6  749.33   31.60
  -4  -1   4  494.75   22.10
  -2  13   0    3.80   11.50
  -1  16   0   -6.30   18.00
   1  -7   4  126.69   14.50
   1   7  -2  203.48   19.90
   2  13  -2   65.09   17.30
   4 -11  10    1.50   13.10
   4  17  -1   42.60   15.00
   5  13  -2    4.50   13.40
   6   7  -2    1.00   13.10
   6  11  -2   79.69   17.10
   8  10  -1   40.90   15.70
   9   0   2    5.80   10.20
   9   7   0   17.10   13.10
  -8   7   9    7.00    9.00
  -7   2   8   32.80   10.80
  -5  -4   8  172.58   20.80
  -5  -3   7   78.39   17.00
  -5   0   5  201.88   16.60
  -4  -5   7  133.59   18.90
  -3  -3   4   -4.70   13.10
   3  -9   6  109.79   15.10
   3  14  -2  116.19   17.80
   4  -2   0    2.40    5.60
   5   4  -2 1447.06   36.80
   6   6  -2  177.88   18.00
   6  12  -2    4.70   14.40
   8  -2   2   19.80    8.40
   8  11  -1   13.20   12.50
   9  -3   4    0.50    7.20
   9   2   1   69.49   11.50
   9   6   0   34.50   12.50
  -6   0   7    6.50   13.70
  -3  14   1    5.40   10.60
  -2  -3   3 1567.64   34.50
  -2  17   1   84.59   19.40
  -1  -9   8   46.80   17.40
   0   3  -1  147.99   11.70
   0  15  -1    1.30   19.00
   0  18   0   16.20   13.70
   2   4  -2 1290.47   33.30
   2  14  -2  123.69   19.20
   3  18  -1   -5.90   14.70
   4 -10   8    1.70   12.70
   4  15  -2   97.59   18.90
   5  14  -2   19.70   13.80
   6  -1   0  154.08   13.20
   6   5  -2   44.80   16.10
   6  13  -2   41.00   16.50
   9   5   0    0.10   11.10
  -7   5   7   13.30    9.40
  -6   5   5   31.30   10.00
  -5  12   3   43.80    5.50
  -4  17   3   -4.90   11.20
  -3  -7   8   24.20   16.80
  -2  -8   8   16.60   17.20
  -2  14   0   52.39   15.70
  -1   6  -1 1217.98   24.40
   1  17  -1  -16.80   15.50
   2  -8   5  347.27   20.60
   3  15  -2   14.40   15.90
   4  -8   5    3.80   10.20
   4   3  -2  157.08   16.00
   5 -10   9  155.88   16.20
   5  15  -2   -1.90   16.00
   7   0   0   -8.80    9.00
   7   8  -2    0.70   15.10
   7   9  -2  242.78   20.80
   7  10  -2   90.49   16.00
   8   5  -1   99.69   15.50
  -7   1   9    4.10   11.80
  -5  16   4   41.00    8.40
  -3  -6   7  189.48   23.50
  -3  -4   5   14.40   15.80
  -3  -1   3 2145.39   38.10
  -1  17   0    3.40   15.30
   0  -8   6 1946.21   44.60
   1  13  -2  408.36   26.20
   2  15  -2    0.20   16.70
   3 -10   8  681.43   28.30
   3   3  -2   35.10   14.10
   5  -9   7   42.50   11.20
   6  -9   8   24.30   11.00
   6  14  -2   32.20   16.00
   7  -2   1   61.29    9.90
   7   7  -2    4.70   14.30
   7  11  -2  125.99   18.30
   7  12  -2   76.99   17.50
   9  -2   3   -1.00    9.70
  -5  -1   6   90.29   15.70
  -4  -2   5   26.20   13.00
  -4  14   2    3.50    7.70
  -2  -1   2  741.13   22.40
  -1  -4   3 5315.07   59.49
   0  16  -1   90.49   20.40
   1   5  -2   29.20   14.70
   3  -8   5  266.17   18.00
   3  16  -2  112.99   18.40
   4  16  -2   50.59   16.50
   5   3  -2   31.20   15.20
   6   4  -2   58.69   14.20
   6  15  -2   61.19   19.90
   7   2  -1    7.50   11.70
  -7   6   7   -4.80    7.70
  -3  15   1  824.42   27.90
  -2  -7   7   -9.90   15.50
  -2  18   1   25.60   18.90
   0  -7   5   17.90   13.80
   0  -2   1  139.39   10.20
   1  -9   7  192.18   20.90
   1  14  -2  341.17   25.80
   3   9  -3  878.31   38.70
   3  10  -3  484.35   29.00
   4   8  -3   15.60   20.00
   4   9  -3   13.30   17.90
   4  10  -3  131.29   19.50
   5  10  -3  -10.70   17.00
   5  16  -2   -4.80   14.90
   6  -3   1    5.50    8.10
   7  13  -2   12.40   13.60
   8   1   0  189.98   14.60
   8   4  -1  347.97   20.60
  -8   6  10    3.10    9.40
  -4  -5   8  210.48   24.80
  -4  -3   6   12.60   15.70
  -2  -5   5  185.48   21.00
  -2  15   0  365.86   21.90
  -1  14  -1    9.20   16.00
   0   9  -2 1331.67   35.80
   0  10  -2   65.29   15.80
   1  18  -1   -1.20   15.10
   2  16  -2   58.29   16.10
   3   8  -3   43.00   20.30
   3  11  -3   14.40   16.60
   4  -7   4   83.89   10.40
   4  12  -3  672.43   30.00
   4  17  -2   13.60   14.10
   5   0  -1 1059.69   26.10
   5   8  -3  128.59   19.90
   7   5  -2  117.99   17.50
   8  -1   1  297.67   15.80
   9  -1   2   11.70   11.60
   9   3   0   21.80    9.50
   9   8  -1   53.09   14.20
  -7   2   9  127.49   15.70
  -7   7   7   -1.50    8.40
  -6   6   5    1.40    7.50
  -5  -3   8  343.87   23.30
  -5   8   3  128.59    5.60
  -4  -4   7  654.73   30.50
  -4   0   4  456.35   23.30
  -4   2   3 1248.48   26.10
  -1  -6   5  147.99   18.40
   0   8  -2 1021.50   31.70
   0  12  -2   87.79   18.80
   0  17  -1  191.58   22.20
   3  12  -3    5.40   14.60
   3  17  -2    7.20   13.10
   8  11  -2   25.20   12.50
  -1   5  -1 9667.53   58.79
   2 -10   9   50.29   17.40
   2  -9   7  219.88   21.10
   2   3  -2 2362.06   38.70
   2  11  -3  -24.20   20.70
   3  13  -3  154.68   20.10
   4  -9   7  113.09   16.30
   4  14  -3   35.10   17.50
   5  13  -3    2.10   12.70
   6   3  -2   71.09   13.30
   6   8  -3  132.99   17.70
   6   9  -3   -3.20   13.20
   6  10  -3  294.47   21.20
   6  11  -3   97.79   18.80
   6  12  -3   92.79   18.50
   7  -7   6   17.30    7.20
   8   3  -1  180.78   16.60
  -7   8   7   27.10    8.50
  -6   0   8   -1.70   13.60
  -1  15  -1    5.30   16.60
   0   7  -2   94.89   14.60
   2  12  -3   20.40   19.60
   3 -10   9   -6.30   13.00
   3  -9   7  143.79   17.00
   3  14  -3   14.00   14.90
   5   2  -2   95.49   16.80
   5   6  -3  657.73   29.40
   5  14  -3   -1.90   13.90
   6  -7   5  186.68   10.60
   6  13  -3    6.50   13.40
  -5  13   3    6.30    5.10
  -3  16   1   41.00   15.00
  -2  16   0   21.00   15.20
   1   1  -1  160.08   11.30
   1   4  -2 1259.97   29.20
   2  13  -3  249.38   24.40
   4  15  -3   30.50   16.00
   5  15  -3   68.29   17.30
   6  14  -3  129.79   21.60
   7   1  -1   34.40   12.40
   9   2   0  341.67   19.20
  -7   5   8    9.10   11.10
  -6   7   5   39.60    8.40
  -5   0   6    5.00   12.80
  -3  -5   7  214.88   21.80
   0  18  -1   -7.60   14.50
   3  15  -3    3.40   15.60
   4   5  -3   54.59   17.20
   5  -8   6  -12.30   11.40
   5   5  -3 1242.58   38.70
   6   6  -3  114.89   17.20
   7  -1   0   14.10   10.80
   7   9  -3   66.19   16.60
   7  10  -3  249.68   20.40
   7  11  -3   90.69   17.30
   7  12  -3    9.40   12.60
   9   0   1  143.19   13.70
  -7  10   7   -4.60    6.90
  -6   4   6   25.20   10.80
  -5   4   4   -4.40    7.80
  -4  -1   5   14.70   11.30
  -3  -4   6  100.59   17.10
  -3  -3   5   41.60   14.50
  -1  16  -1  150.68   19.80
   0   6  -2 1535.45   31.90
   1  -7   5  338.07   19.40
   1  17  -2    0.80   16.30
   2   0  -1   21.20    9.80
   2  14  -3   -1.70   15.80
   3   5  -3   38.90   16.20
   4  16  -3    8.70   14.60
   5  -9   8   52.79   13.80
   5  16  -3   74.89   18.50
   6  15  -3    6.20   15.40
   7   8  -3   68.79   15.60
   7  13  -3   11.60   13.50
   8   0   0  226.78   15.60
   8   2  -1    2.90   11.60
   9   4  -1    3.70   12.20
  -5  -2   8  103.89   18.00
  -5  -1   7  156.98   19.30
  -4  -4   8 1077.79   38.30
  -2  -6   7   86.09   18.50
  -2  -2   3  551.94   23.40
  -2  17   0   13.40   17.30
  -1  -7   7  263.27   23.30
   0  15  -2  355.06   25.60
   1  10  -3   25.60   16.00
   1  11  -3   47.70   18.80
   2  -8   6   19.20   13.70
   2  15  -3    0.30   17.80
   3  16  -3   55.09   17.10
   6   2  -2  198.88   17.00
   6   5  -3   89.59   20.40
   7   7  -3  -15.30   15.00
   9   8  -2   20.60   13.70
   9   9  -2   -5.10   13.10
  -6   1   8    5.50   12.80
  -4  -3   7 1888.31   46.20
  -4  -2   6 1369.46   38.70
  -4  16   2   55.39   11.20
  -3  17   1   82.29   16.30
  -1  -2   2   87.19   15.40
   0  -7   6  419.76   24.60
   1   9  -3  340.47   24.50
   1  12  -3   -2.20   16.70
   2  -9   8   21.50   14.50
   4  17  -3   -2.30   13.90
   8  -4   3   32.60    6.70
  -7   6   8  182.08   15.00
  -6   0   9    1.30   13.70
  -2  11  -1   34.20   12.30
  -2  12  -1  137.09   16.10
  -1  17  -1    3.70   15.90
   0  16  -2  138.79   21.40
   1  -6   4   22.50    9.80
   1   8  -3  770.42   30.70
   1  13  -3   54.89   17.40
   1  18  -2   -9.70   15.10
   2  16  -3   26.40   18.30
   3  17  -3   27.50   15.70
   4  -9   8  141.09   17.30
   4  11  -4  812.32   34.90
   5   4  -3   68.99   16.50
   7   6  -3   31.00   14.10
   8  -3   2  110.09   10.50
   8   9  -3  167.68   18.40
   8  10  -3  101.29   17.20
   8  11  -3   59.19   15.40
  -3  11   0   34.10   10.60
  -3  12   0    0.30    9.50
  -1  -6   6  -16.80   14.40
   0  -8   8   10.10   16.20
   1  -5   3  276.77   14.70
   1  14  -3  521.35   29.40
   4  -8   6   -6.00   11.40
   4  10  -4   81.99   21.00
   4  12  -4    7.20   15.60
   4  13  -4  765.22   31.90
   5   9  -4  117.49   21.60
   5  12  -4  228.38   22.20
   5  13  -4    0.60   14.70
   9   1   0   73.49   12.90
   9   3  -1   20.20   10.60
   9   6  -2   11.40   12.80
  10   3   0   40.60   12.40
  -5  14   3    1.80    4.80
  -3  -5   8   -7.50   19.50
  -3   2   2  796.92   17.90
  -2  -4   5   59.29   14.90
  -2  13  -1   60.29   14.00
  -2  18   0   17.00   15.00
   0  -6   5  100.79   14.40
   2   2  -2   62.19   14.00
   2   5  -3  106.79   16.90
   3   4  -3   20.20   14.90
   3  11  -4   84.79   24.50
   3  12  -4  342.57   27.50
   4  -1  -1   19.90    8.00
   4   8  -4  164.88   25.10
   4  14  -4   33.50   16.80
   5   1  -2  841.02   25.40
   5   8  -4  270.87   26.10
   5  14  -4   15.60   14.70
   6   4  -3   59.49   16.00
   6  10  -4   81.39   18.30
   6  11  -4   31.10   15.50
   6  12  -4   10.20   16.10
   6  13  -4   37.80   17.40
   7   5  -3   89.59   15.30
   9  -3   3    1.50    8.10
   9  -2   2   93.59   12.10
  10   1   1   55.69   13.60
  -7   7   8  146.19   14.00
  -5  -2   9   18.30   16.20
  -4  -4   9   -2.50   16.30
  -4   3   3    9.80    8.30
  -3   9   0  765.12   18.00
  -1  10  -2  101.29   13.70
  -1  13  -2   56.29   15.40
  -1  18  -1   32.80   17.30
   0  -3   2  317.97   15.20
   0  17  -2  276.37   22.80
   3  13  -4   -5.80   18.60
   5  15  -4   90.49   17.60
   6   8  -4  171.68   21.50
   6  14  -4  -12.50   13.90
   7   0  -1  509.05   21.70
   8  -2   1  198.28   13.00
   8   1  -1  138.69   14.70
  -5  -1   8   38.50   14.80
  -5   0   7   26.60   15.70
  -5   9   3   23.10    3.40
  -3  -4   7  731.93   31.40
  -3  18   1  -10.70   15.30
  -2  -6   8   59.29   18.50
  -2  14  -1   81.29   14.60
  -1  -5   5  103.99   16.10
   1   3  -2  303.27   17.00
   2  -9   9   70.79   16.50
   3  14  -4  -10.40   18.00
   4   7  -4   11.40   18.20
   5   7  -4  263.97   26.10
   6  15  -4  232.68   23.00
   7  -4   2   -1.70    4.40
   7  10  -4    7.00   14.00
   7  11  -4    6.60   15.60
   7  12  -4   -2.90   14.10
   7  13  -4   31.00   15.70
   8   3  -2   32.00   13.70
  -6   1   9  362.76   22.50
  -6   2   8   12.60   12.40
  -6   9   5  211.88    9.80
  -5   5   4  175.98   11.10
  -4  -3   8  284.97   24.10
  -4  17   2   19.10    9.00
  -3  -1   4  932.61   28.30
  -3  14   0  259.77   15.50
  -2   8  -1   37.20    8.90
  -1  14  -2    5.10   15.30
   0  -5   4   75.49   13.90
   0  -4   3   48.90   13.10
   0   2  -1  148.99    9.80
   3  15  -4   37.80   18.00
   4  -9   9  123.79   20.60
   4   3  -3   23.70   15.20
   4  16  -4    9.90   14.70
   5   3  -3  200.88   18.70
   6   7  -4  204.08   22.60
   7   9  -4   -2.60   16.00
   8  -6   6   -0.40    6.40
   9  -1   1  243.98   17.00
  -3  -3   6   25.70   14.80
  -2  15  -1   86.59   15.70
  -1   4  -1  139.09    9.70
   0  -7   7  404.66   25.30
   0  11  -3    6.40   15.40
   0  12  -3   37.50   16.40
   0  18  -2  289.87   23.40
   2  10  -4   48.90   18.40
   2  11  -4    3.80   19.30
   2  12  -4   21.50   19.10
   3  -9   9  265.37   20.10
   5  -9  10   29.60   15.90
   5   6  -4  216.68   23.80
   6   3  -3  154.38   19.50
   7  -3   1   -7.30    6.60
   7   8  -4    9.40   14.60
   9  -4   4   31.30    6.30
   9   2  -1    4.50   12.10
   9   8  -3    2.00   13.10
  -4  -2   7  385.86   24.20
  -4  -1   6  136.39   17.90
  -3  -2   5   -4.60   12.60
  -1   8  -2   11.00    9.30
   1  -7   6  105.79   16.30
   1   6  -3   13.50   13.40
   1  17  -3   62.39   19.90
   2  14  -4   80.29   21.80
   3  16  -4   24.10   15.00
   4   6  -4   66.09   18.30
   4  17  -4  -12.10   13.60
   5  -8   7    1.70   10.90
   5  -7   5   -4.90    8.10
   6  -1  -1 3368.16   43.30
   8  11  -4   -8.20   12.60
  -7   6   9   92.79   13.90
  -6   6   6   73.79   10.40
  -6  10   5  205.98    9.00
  -6  13   5    0.70    3.20
  -3  15   0  -14.00   10.30
  -2  -5   7   50.29   15.60
  -2  16  -1   47.50   16.20
  -1  -7   9  298.27   23.60
  -1  -6   7  560.24   28.20
   0   9  -3 1125.29   34.10
   2  -6   4  355.96   16.70
   2   4  -3 3353.76   48.90
   2  15  -4   10.00   17.60
   3  -7   5  786.82   25.20
   3  -1  -1  213.88   10.90
   3   3  -3  825.72   27.20
   3  17  -4  220.58   22.70
   6  -8   8    4.20   12.20
   7   7  -4   44.10   15.50
   8   9  -4   25.10   15.70
   8  10  -4   86.59   16.80
   9   0   0   -1.40   12.60
   9   7  -3   12.10   13.10
  -7   9   8   15.30    9.30
  -5  -1   9   13.30   15.90
  -1  16  -2   23.40   16.70
   0  15  -3   27.20   17.60
   1  18  -3   16.50   16.50
   2   8  -4 1562.64   42.40
   3  -8   7  102.39   16.70
   4  -9  10  343.97   25.50
   4  -7   5   16.40   12.40
   5   5  -4  190.88   21.90
   6  -6   4   -2.80    7.50
   7  -2   0   -2.70    8.00
   7   1  -2  193.28   17.00
   8   8  -4   14.00   16.20
  10   0   1  -10.10   10.80
  -6   2   9   14.20   13.00
  -6   3   8   -7.40   11.20
  -4  12   1   88.69    7.60
  -3  -4   8   98.69   20.50
   2  16  -4   23.70   18.70
   4  -8   7   -0.60   11.20
   4   5  -4  100.39   19.00
   4  12  -5  675.53   37.70
   5  10  -5   57.09   19.80
   5  11  -5  186.88   23.90
   5  12  -5   12.30   15.20
   5  13  -5  146.59   21.00
   6   5  -4   45.40   20.20
   6  11  -5   -0.30   18.70
   6  12  -5   12.40   14.90
   6  13  -5   17.80   19.20
   9   6  -3   45.30   14.30
  10   3  -1   12.20   10.70
  -7   7   9  115.49   13.80
  -7  10   8   -4.10    8.30
  -6  11   5   10.10    4.80
  -5   0   8    3.20   16.00
  -4  11   1    7.10    6.20
  -3  16   0  676.13   23.50
  -2  -4   6   74.29   17.50
  -2   7  -1  429.86   14.00
  -2  17  -1    7.20   14.70
  -1   7  -2 2990.00   40.50
  -1  17  -2  243.58   21.10
   0  -7   8   55.59   18.20
   0  -6   6  432.46   24.00
   0   8  -3 1799.72   38.50
   0  16  -3  183.88   21.50
   1  -8   9   83.69   18.40
   1  12  -4  113.59   21.90
   2   7  -4  907.11   32.70
   4  10  -5  206.38   28.20
   4  13  -5  134.59   21.80
   4  14  -5  163.58   21.60
   5   2  -3   30.90   12.80
   5   9  -5  153.48   23.90
   5  15  -5   -7.40   16.30
   6  10  -5  226.18   24.50
   6  14  -5   -2.70   15.90
   8   0  -1   -2.30    9.10
   9   3  -2   13.40   12.50
  -6  12   5    1.40    3.90
  -4  -2   8  300.37   25.20
   1  -6   5   84.69   13.40
   1   5  -3  869.61   26.60
   1  10  -4   54.39   21.40
   1  11  -4   93.39   19.10
   1  13  -4  314.87   24.10
   1  14  -4   53.19   20.70
   4   2  -3 1124.69   29.90
   4   9  -5    7.90   20.70
   4  15  -5   68.39   18.00
   5   0  -2   12.20   10.90
   6   2  -3    5.00   13.50
   7  -7   7   34.60   10.00
   7  11  -5   26.00   17.00
   7  12  -5   54.49   16.70
   7  13  -5   14.90   16.20
   9   1  -1  101.39   15.40
  10   1   0   19.90   11.30
  -4  14   1   24.90    7.60
  -3  -3   7  510.55   28.10
  -2  -5   8 1338.97   42.00
  -2  -3   5   80.29   15.10
  -1  -6   8 2392.96   53.89
  -1  -5   6   39.60   13.20
   0   4  -2    1.40   10.50
   0  17  -3  348.47   25.10
   2  -5   3   49.40    9.80
   2  18  -4  121.09   20.20
   3  12  -5   -9.10   21.50
   3  13  -5  208.58   25.80
   3  14  -5  -16.60   21.70
   4   0  -2  915.71   24.10
   4  16  -5   23.80   17.80
   5   8  -5  171.28   25.50
   6  -8   9   29.80   12.90
   6  -7   6   10.40    9.30
   6   8  -5  842.12   35.30
   7  -1  -1   37.00   11.80
   7  10  -5   21.60   15.10
   9   5  -3   77.99   15.10
  -7   8   9   14.30   12.20
  -6   5   7   18.40   10.70
  -5   4   5   67.79   12.30
  -3  -4   9  125.79   21.20
  -3  17   0   33.80   13.50
  -2  18  -1   45.70   15.00
  -1  18  -2   91.89   18.10
   1   9  -4  100.69   18.00
   3  -8   8  132.19   18.50
   3   5  -4   69.79   18.70
   3  15  -5   24.00   17.40
   5  -8   8   -2.00   13.60
   5   4  -4  -12.70   14.10
   7   9  -5   -0.20   14.80
   9   8  -4   13.90   13.90
  10   4  -2   45.40   14.00
  -5   6   4  185.08   10.40
  -4  -1   7  163.38   19.50
  -4   1   5    1.90   12.10
  -4  10   1  127.69    7.00
   0  -7   9   77.99   19.20
   0   7  -3 1483.55   33.10
   2  -8   9   65.79   16.20
   2   6  -4  852.91   29.60
   3   9  -5    1.00   19.50
   3  16  -5  173.38   24.30
   4  -8   8  141.89   18.30
   4   4  -4   37.30   16.80
   6   7  -5   29.40   20.70
   7   8  -5   81.39   18.70
   8   1  -2    7.80   12.60
   8   3  -3   28.30   17.10
   8  10  -5   42.00   16.50
   8  11  -5    9.50   13.40
  -7   7  10   36.20   12.70
  -6   3   9    0.00   12.10
  -4   0   6  206.38   17.80
  -4  15   1  114.79   10.00
  -3  -2   6  421.96   24.00
   1   8  -4   92.79   20.10
   1  17  -4   64.89   19.80
   2   1  -2  763.82   20.60
   4   7  -5  282.37   26.10
   8   9  -5  -20.70   15.70
   9   2  -2    3.60   11.00
   9   4  -3   14.30   13.60
   9   7  -4   53.09   14.60
  -7   9   9    6.30   10.30
  -4  -2   9   10.80   16.70
  -3   0   4   -5.50   11.80
  -2  -5   9  334.47   26.90
  -1  -6   9    0.50   17.00
   1  -5   4  125.59   15.50
   2  11  -5   18.40   18.30
   2  13  -5  282.27   26.30
   2  14  -5  154.48   23.00
   3   8  -5 1763.02   46.50
   3  17  -5    1.50   16.20
   7  -6   5    2.70    6.40
   7   7  -5  -10.30   17.90
  -3  -3   8   23.20   19.70
  -3  18   0   -2.40   10.90
  -2  13  -2  419.46   21.10
  -1   6  -2 1670.13   29.10
  -1  13  -3  621.24   26.90
  -1  14  -3   57.89   16.20
   0  -6   7  640.34   28.50
   1   2  -2   84.19   13.10
   2  -8  10  123.19   18.40
   2  -4   2   58.59    8.00
   2  10  -5   74.29   22.90
   3  -8   9  111.99   18.00
   5  -8   9    6.20   14.00
   5   6  -5   16.60   15.50
   6   6  -5    5.50   16.80
   7   0  -2    5.10   10.30
   8   8  -5   86.29   18.40
   9  -2   1   51.89   10.50
   9  -1   0   98.89   13.10
   9   6  -4    3.50   14.60
  -6   6   7    7.30    9.10
  -6   8   6   26.50    9.60
  -2  12  -2  627.64   24.60
  -2  14  -2   -3.10   10.90
  -1  15  -3   -4.00   16.40
   2  -7   7  229.98   19.90
   3   4  -4   13.80   13.90
   4  -8   9  103.39   16.70
   5   1  -3   17.30   13.80
   5   3  -4  197.88   18.80
   5  11  -6  -20.30   20.90
   5  13  -6   97.69   20.60
   5  14  -6   21.00   17.70
   5  15  -6   34.50   19.00
   6   3  -4  -20.70   15.10
   6  11  -6   27.00   20.10
   6  12  -6   -9.60   16.10
   6  13  -6  -10.60   16.70
   6  14  -6   37.00   18.00
  10   3  -2    5.80   11.80
  -6   3  10   -8.40   13.00
  -4  -1   8   20.40   15.50
  -2   2   1  575.74   11.80
  -2  11  -2  897.01   26.60
  -2  15  -2   16.70   13.90
   0   6  -3  404.56   20.60
   0  12  -4   21.30   12.70
   1  -6   6  400.96   22.70
   1   7  -4  202.88   19.50
   2   5  -4  911.11   29.00
   2   9  -5   15.00   18.00
   3  -8  10  180.38   19.30
   3   0  -2    0.40   10.90
   4  -7   6   15.20   13.40
   4  13  -6  269.17   30.10
   4  14  -6  113.89   23.90
   5  -8  10    8.60   12.30
   5  -6   4    0.60    8.60
   6  10  -6  -17.20   20.20
   7   6  -5   10.50   19.50
   7  11  -6   16.40   14.70
   7  12  -6  178.58   22.50
   8  -2   0  331.07   14.80
   8   2  -3  148.99   19.10
   8   4  -4  255.97   24.50
   9   0  -1   12.70   12.40
  10  -1   1   68.79   12.60
  10   0   0   -4.20   12.40
  -6   4   9   93.19   15.60
  -1  10  -3  143.79   15.00
  -1  16  -3  256.87   21.20
   0  -4   4    1.60   11.90
   0  11  -4  -18.40   12.60
   0  15  -4   14.50   17.00
   4  -8  10   85.29   16.90
   4  11  -6   -7.60   19.50
   4  15  -6   28.20   17.50
   4  16  -6   27.00   20.20
   5   9  -6   45.70   20.40
   7  10  -6   -7.90   17.00
   8  -1  -1  136.79   12.80
   9   3  -3   -9.00   12.80
  -7   9  10   12.30   12.10
  -3  -3   9  113.69   21.50
  -3  -2   7  206.98   20.70
  -2  -4   8  354.36   25.60
  -2  -3   6  407.36   24.40
  -2   6  -1 1906.71   24.00
  -2  16  -2   22.40   16.40
  -1  -2   3 3119.99   44.30
   0  -6   8  517.05   27.80
   0  10  -4  177.38   20.10
   0  16  -4  125.69   19.70
   4   1  -3 2760.02   42.80
   5   5  -5  173.08   21.30
   6  -7   7   10.80   10.80
   6   5  -5   24.30   16.90
   7   9  -6   30.00   19.70
   9   8  -5   62.99   16.30
  10   1  -1  -15.30   11.00
  -5   5   5  133.79   12.90
  -4  17   1   64.09    9.80
  -3  13  -1   46.40   10.80
  -1  -5   8  169.88   22.60
  -1  17  -3   -8.70   15.50
   0  17  -4   13.50   17.30
   1  13  -5  810.12   35.50
   2   8  -5  355.36   24.40
   3  12  -6   33.20   21.00
   3  13  -6   43.80   21.70
   3  14  -6    4.70   20.30
   3  15  -6   69.49   23.20
   5   8  -6  396.86   29.10
   6  -3   0  103.69    8.00
   7   1  -3   22.90   13.30
   7   5  -5  203.98   23.00
   8  10  -6    4.30   16.30
   9   1  -2   60.39   15.70
  10   4  -3  130.79   17.50
  -6   4  10   -3.00   13.20
  -6   9   6  286.87   13.80
  -5  10   3    1.20    3.20
  -4  -1   9    4.60   16.90
  -3   3   2   25.50    7.30
  -3  12  -1   12.30   10.50
  -3  14  -1   16.40    9.30
  -2  17  -2   16.80   15.10
  -1  -4   6    6.90   14.60
  -1   9  -3  293.57   17.90
   0  -5   6   60.79   12.70
   1  -7  10  620.74   31.40
   2  -7   8    8.10   14.80
   3  11  -6  -22.50   19.30
   4   5  -5   34.00   16.50
   7   8  -6   26.50   19.70
  -5   7   4  240.08   11.60
  -4   1   6  144.49   15.40
  -3  -3  10   70.49   21.40
  -3  15  -1  325.47   17.10
  -1  18  -3  166.28   20.90
   0   9  -4 2738.03   49.40
   0  18  -4   10.10   17.80
   1   6  -4   91.29   15.20
   1  16  -5    3.90   16.90
   3  10  -6  109.99   23.80
   4   8  -6  226.08   25.00
   8   3  -4  298.17   25.90
   8   9  -6   18.70   14.80
   9   4  -4  -11.50   14.00
  10   2  -2    1.60   11.70
  -6   5   9   30.40   12.20
  -5   3   7   42.50   14.00
  -4   2   5   29.90    8.10
  -3  -1   6    8.20   12.70
  -3  11  -1   23.90   10.70
  -3  16  -1   25.40   12.90
  -2  -2   5   80.39   15.80
  -2  18  -2    1.10   14.50
   1  -6   7   -3.90   14.00
   1  10  -5   22.10   17.30
   1  17  -5  -16.00   16.60
   3   3  -4    3.60   13.10
   4  -7   7   12.20   13.00
   4  -3   0  121.69    4.90
   5  -7   7  349.87   19.70
   5  -1  -2  831.62   22.00
   5   4  -5   58.09   18.90
   5   7  -6  202.78   25.00
   6   4  -5   67.49   17.20
   7   7  -6   95.49   24.30
   8   8  -6   66.79   20.30
   9   2  -3  168.68   18.30
  -4  -1  10    9.50   15.20
  -3  -2   8  663.83   31.70
   0   3  -2  297.67   15.00
   2  -7   9   24.40   15.20
   2   2  -3  532.75   20.90
   2   4  -4 3129.29   48.50
   2  13  -6 1229.58   43.60
   2  14  -6   88.69   19.50
   2  15  -6   36.40   21.00
   3   9  -6   11.30   18.60
   4  -2  -1  191.08    9.00
   5  12  -7   99.29   26.60
   5  13  -7   85.99   22.70
   5  14  -7   49.70   21.60
   5  15  -7   81.69   23.80
   6  -7   8   -5.00   12.30
   6  12  -7   68.19   22.70
   6  13  -7    4.00   18.40
   7   4  -5  331.17   27.60
   8   1  -3   16.00   13.00
   9   6  -5  154.68   20.00
  -4   0   8  131.29   19.30
  -3  17  -1  -11.60   13.50
  -2  -4  10  586.44   33.20
  -1   8  -3   67.89   13.00
   0   8  -4  252.57   21.40
   1  -5   5    5.00   10.20
   1   9  -5  210.98   20.00
   2  -7  10   43.00   16.50
   3  -7   8    5.80   15.00
   3  -6   5 1180.78   29.30
   3   5  -5   72.79   17.50
   5  11  -7   30.90   20.20
   6   6  -6   76.09   21.00
   6  11  -7    0.10   17.90
   7  11  -7  232.58   23.10
   7  12  -7    8.10   14.60
  10   3  -3    9.50   13.60
  -6  10   6   -2.90    7.10
  -3   0   5   28.80   13.60
  -2  -1   4   64.59   16.00
  -1   5  -2  244.38   14.20
   2  11  -6  558.04   31.50
   3   1  -3 2082.99   35.50
   3   8  -6  786.22   34.10
   4   4  -5   -3.80   15.40
   4  12  -7   10.20   21.60
   4  14  -7   86.99   25.40
   4  15  -7  -13.10   20.30
   5  10  -7   24.40   21.50
   7  -2  -1    1.40    8.10
   7  10  -7  -24.90   19.00
  -3  -2   9   11.20   16.40
  -1  -3   5 2514.25   45.80
   0  -5   7  700.93   29.40
   1  -6   8  -11.70   16.40
   1   0  -1 4503.75   28.80
   2  -5   4   -3.00   10.20
   2   6  -5  100.69   18.70
   2  10  -6  163.78   22.70
   3  -7   9  128.59   18.20
   4  -7   8   85.79   14.70
   5  -7   8   -2.20   12.40
   6  -7   9   19.60   12.60
   7  -1  -2  179.98   14.70
   9   5  -5   12.90   17.00
  -6   7   8    8.00   10.90
  -5   2  10   -2.70   15.00
  -5   3   8  304.67   23.00
  -4   0   9    3.50   17.10
  -4   1   7  218.48   21.40
  -3   1   4 1059.59   28.20
  -2   0   3   63.09   18.00
  -1  14  -4  154.28   20.70
   0  -4   5  611.64   24.20
   0  -2   2   69.29   12.00
   1   3  -3  209.68   16.80
   1   5  -4   91.29   15.70
   5   0  -3   73.39   11.90
   5   9  -7  502.95   32.90
   6  -6   5  -10.40    9.60
   6  -4   1    3.40    3.40
   7   9  -7   14.40   19.60
   8   2  -4   -4.80   15.40
   8  10  -7   40.50   16.80
   9  -1  -1  102.19   13.60
  10  -1   0    8.30   11.40
  10   0  -1   -6.90   10.20
  -5   6   5   -1.50   10.50
  -3  -2  10   -3.20   17.00
  -3  -1   7  457.35   26.10
  -2  -3   8  103.29   18.60
  -1   3  -1   47.00    7.90
  -1  13  -4  247.78   21.40
  -1  15  -4   11.40   15.50
  -1  16  -4   38.80   14.40
   0  14  -5   36.00   18.70
   0  15  -5   93.89   19.50
   0  16  -5   23.90   16.80
   2  -1  -1   16.00    6.60
   2   9  -6    9.40   18.40
   3  -7  10  -14.70   13.00
   3   7  -6 1134.89   39.00
   3  13  -7   -8.90   20.50
   3  14  -7   -1.00   21.50
   3  15  -7   -0.30   19.00
   4  -7   9   40.30   14.40
   4   6  -6  255.97   24.40
   4  10  -7   24.90   20.60
   5  -7   9   19.30   16.80
   5   3  -5  881.41   33.30
   6   3  -5  291.97   20.70
   6   5  -6   40.20   20.60
   6   8  -7  488.65   32.90
   7  -6   6   -7.50    8.00
   7   0  -3   33.50   11.50
   9   7  -6  236.68   21.40
  10   1  -2   -1.40   11.80
  -2  -2   6  201.48   19.50
   0  -5   8  246.48   23.70
   0   7  -4 1086.29   31.80
   3  12  -7   34.30   22.90
   3  16  -7    8.50   18.70
   4  -7  10   79.69   19.30
   4  -6   5   62.19   14.00
   4   9  -7  -10.40   21.50
   5  -7  10    7.00   13.50
   5   8  -7   75.89   20.90
   7   5  -6  -15.00   18.50
   7   8  -7   44.40   22.30
   8   9  -7    1.60   15.80
   9  -2   0  288.37   14.80
  -6   6  10   34.30   14.90
  -6  11   6   32.10    8.20
  -5   5   6   94.79   14.20
  -4   0  10   74.39   17.70
  -2  -3   9   48.90   20.70
  -2  13  -3  -11.80   13.50
  -2  14  -3  669.43   27.80
  -2  15  -3   -8.50   14.10
  -1   7  -3   15.80   12.30
  -1  17  -4   -3.60   15.20
   0  11  -5  132.99   19.70
   0  17  -5   35.70   16.60
   1  13  -6    3.30   19.60
   1  16  -6   -9.10   18.50
   3   4  -5   11.90   17.40
   3  11  -7    2.00   21.10
   6   1  -4   -8.80   13.40
   9   1  -3   41.90   16.60
  10   2  -3   -8.50   14.50
  -6   9   7  271.47   16.30
  -5   3   9   11.10   15.10
  -2  16  -3    0.00   16.30
  -1  18  -4   17.30   16.70
   0  -1   1   14.80    5.80
   1   7  -5    3.80   16.20
   1  12  -6  946.01   38.30
   1  17  -6   26.20   17.70
   3  -6   6  139.39   17.00
   3  10  -7  305.37   27.40
   4   0  -3    8.40    9.30
   5  -6   5   46.10   10.90
   5   1  -4   25.00   15.80
   5  13  -8   89.89   27.70
   5  14  -8  364.76   34.40
   6   7  -7  570.04   33.50
   6  12  -8    1.10   22.10
   7   1  -4   65.89   15.60
   8   8  -7    8.50   17.40
   9   6  -6    2.80   17.40
  -6   8   8  168.08   15.80
  -5   8   4  288.47   12.40
  -4   1   8  -11.20   16.20
  -3  -1   8  883.81   36.20
  -2  -3  10   60.79   22.60
  -2  17  -3   80.39   16.00
   0  10  -5  159.78   22.20
   2   3  -4 1297.97   32.80
   2   5  -5  182.78   18.60
   3   2  -4  117.19   15.70
   3   6  -6  211.38   24.10
   4  -5   3  216.58   10.90
   4   3  -5  869.81   31.30
   4   5  -6  481.75   27.90
   4   8  -7  251.37   27.40
   5   7  -7  144.59   22.30
   5  12  -8  232.28   29.80
   6  11  -8  -10.80   22.40
   7   7  -7    7.90   19.00
   7  11  -8   36.10   18.10
   8  -1  -2   15.40    8.60
   9   2  -4   64.69   15.30
  10   3  -4  -10.20   16.50
  -5   3  10   -0.40   15.90
  -4  14   0  154.38   10.40
  -3   0   6  -13.90   12.70
  -1  -4  10   89.79   21.60
  -1  -3   6  645.54   28.10
  -1  -2   4  672.33   24.00
  -1  10  -4   -2.20   11.60
   0  -5  10   -5.60   17.70
   1  -4   4  357.56   19.70
   2   0  -2   59.19   11.10
   2  13  -7   19.30   19.50
   2  14  -7    2.10   19.60
   2  15  -7   16.40   20.00
   4  14  -8  125.49   27.80
   4  15  -8   99.39   26.00
   6   4  -6    8.00   17.80
   6  10  -8    2.30   24.50
   7  -6   7    5.60   10.40
   8  -2  -1   -3.80    6.40
  -6  12   6    7.10    7.70
  -5   4   8  152.88   17.80
  -4  16   0  125.19   10.80
  -3   9  -1  485.55   15.00
  -2  -2   7  387.46   27.70
  -2  11  -3   53.79   14.20
  -2  18  -3   12.00   14.30
   0  -4   6  136.79   16.70
   1  10  -6  239.68   23.50
   2  -6   9 1090.99   37.90
   3   9  -7  553.24   31.30
   4  12  -8    4.30   23.20
   4  13  -8   26.70   20.70
   5   4  -6  318.57   27.00
   6   2  -5  963.80   35.30
   7   4  -6   11.70   17.90
   7  10  -8    8.70   19.80
  -6  10   7   18.00   10.00
  -4   1   9    3.90   16.60
  -2  -1   5   91.49   17.00
   0  -3   4 3786.22   50.69
   0   9  -5   66.89   18.10
   1  -5   7   46.80   18.50
   2  -6  10   -4.10   16.40
   2  -5   5   75.29   13.60
   2   7  -6    1.60   16.30
   3  -6   7   28.80   17.00
   4   1  -4  481.45   22.40
   4   7  -7  434.96   30.00
   6  -6   6  197.58   15.60
   6   9  -8   62.19   22.10
   7   9  -8    9.30   22.30
   8   1  -4    9.60   15.90
   9   3  -5   32.80   17.60
   9   5  -6   52.89   19.00
  -6   8   9   -0.50   12.60
  -4   1  10   11.00   16.00
  -4  17   0   -2.80    8.50
  -3  -1  10  205.78   25.40
  -3  15  -2    0.10   13.10
   0   6  -4   60.79   13.50
   1  -2   1   34.30    7.80
   3   8  -7  259.37   24.30
   4  -6   6    7.80   13.40
   4  11  -8   11.40   18.90
   5   2  -5  597.94   26.20
   5   6  -7   20.30   18.50
   5   9  -8   -6.90   20.60
   8   4  -6    1.90   18.10
   9   7  -7  101.89   20.00
  -6  13   6   -2.90    6.90
  -5   7   5  210.78   13.80
  -3   1   5  204.98   17.20
  -3  14  -2   19.10   11.10
  -3  16  -2   27.50   13.20
  -2  -2   8  911.11   36.00
  -1  -3   7    8.20   16.20
  -1   9  -4  151.78   15.70
   1   6  -5  141.39   18.50
   2  10  -7  277.07   24.60
   3  13  -8   40.90   24.30
   3  14  -8   89.69   23.90
   3  15  -8   -1.30   20.30
   4  10  -8  338.77   30.00
   5  -6   6  472.75   19.70
   8   9  -8   16.10   17.40
  10   0  -2   -5.70   13.30
  10   1  -3   52.39   16.10
  -5   6   6   10.90   11.80
  -3   0   7 2562.14   51.39
  -3  17  -2   17.30   14.40
  -2   7  -2    6.50    8.00
   0  -4   7  136.59   17.20
   0  14  -6   15.60   20.90
   0  15  -6  202.48   23.20
   1  -5   8   18.50   17.50
   2  -4   3   20.50   10.00
   3  -6   8  149.09   18.30
   3  -4   2  127.79    7.90
   3   3  -5   44.20   14.40
   3   5  -6  158.48   19.90
   3  12  -8    6.20   19.50
   4   4  -6  726.83   30.50
   6   8  -8  187.08   24.80
   7   8  -8    4.00   18.00
   8   2  -5   43.60   18.20
  -5   4  10  132.89   18.60
  -2  -2   9   11.90   18.00
  -2   5  -1 1678.53   20.30
  -1   6  -3  330.27   16.50
  -1  14  -5  153.28   21.90
  -1  16  -5   16.40   16.50
   0  16  -6   69.19   18.20
   0  17  -6   12.80   19.30
   3  -6   9   -1.60   14.10
   3  -6  10   -8.30   15.20
   3  -1  -2 5106.69   43.40
   4  -6   7  706.23   26.70
   4   6  -7  103.19   22.60
   4   9  -8   23.00   18.70
   6  -6   7   58.19   13.00
   6   3  -6  683.83   32.30
   6   5  -7    9.40   17.10
   6  12  -9   -7.40   24.00
   7   5  -7   15.50   20.00
   8   8  -8  -11.60   19.70
   9  -1  -2   77.19   13.10
   9   0  -3  786.92   28.00
   9   4  -6    5.10   17.10
   9   6  -7   88.09   21.30
  10   2  -4   27.20   17.10
  -6   9   9    2.80   12.90
  -5   5   8   19.60   13.80
  -4   2   8  266.97   23.50
  -4   3   6    5.40   15.50
  -2  -2  10   -4.50   20.90
  -1  -3   8    3.30   18.30
  -1  13  -5  -11.60   16.00
  -1  17  -5    4.20   18.40
   0  -4   8    2.40   17.70
   0   8  -5 2343.97   47.10
   1  -5  10   24.00   18.50
   1   8  -6   25.90   16.70
   1  13  -7  376.26   31.20
   1  16  -7   -2.80   18.70
   1  17  -7    1.30   16.60
   2   6  -6  260.47   21.90
   2   9  -7   74.69   19.10
   3   7  -7  878.31   35.60
   3  11  -8   48.50   19.80
   5   5  -7   79.39   19.40
   5  12  -9   59.79   26.10
   5  13  -9  143.09   26.90
   6  -6  10   61.89   16.30
   6  11  -9  100.39   24.70
   9   1  -4  578.64   29.00
  -3   0   8   16.50   16.30
  -2  -1   6  888.41   32.20
  -2   0   4 1039.70   30.60
   2  -5   6 1473.45   35.90
   5   3  -6 1833.32   45.20
  -5   2 -12    3.70   13.80
  -5   4 -12   22.80   17.10
  -5   5 -12   -8.10   13.50
  -4  -1  -7  811.32   22.90
  -4   7  -7   15.00   14.10
  -4   9  -8  105.59   19.70
  -4  10  -9   43.20   17.10
  -4  11 -10  -16.00   18.10
  -3   6  -4   29.80   13.60
  -3   9  -5   59.79   15.90
  -3  12  -7   14.40   15.80
  -3  13  -8   47.70   18.70
  -2   9  -3   -9.60   13.10
  -1  15  -5   91.09   19.50
  -1  16  -6  188.58   21.60
   0 -10  -5  144.79   13.50
   1 -14  -9   22.50   11.20
   1  -9  -3  367.26   19.60
   2 -10  -3    4.60   13.90
   2  -7  -1   11.30   10.20
   8   6   1   -4.60    6.10
  -5   2 -11  231.78   20.20
  -5   3 -11   50.09   14.90
  -5   4 -11  349.37   23.40
  -4   3  -6   15.00   13.50
  -4   4  -6   35.80   15.80
  -4   8  -7   -7.30   15.60
  -3   7  -4 3262.67   52.39
  -2  -9  -8    5.90    3.60
  -2   5  -2  419.96   19.70
  -2  13  -5  233.18   20.90
  -2  14  -6   64.69   17.50
  -2  15  -7  210.98   21.20
  -1   7  -1 2796.52   42.80
  -1  14  -4  167.28   21.80
   3  16  -2  165.98   14.50
   4  -6   0  321.57   19.70
   5  13   0   -3.60    5.70
   5  15  -1   14.50    8.70
   6  -3   1    8.20   10.60
   8   1   1  268.07   16.00
  -5   5 -11   31.40   15.30
  -5   6 -11   46.30   16.20
  -4  -4  -9   56.59    7.00
  -4   2  -6  559.14   22.40
  -4   5  -6  110.19   16.20
  -4  10  -8  -10.70   17.60
  -4  11  -9   71.19   19.10
  -2   6  -2   42.50   12.70
   0   7   0    5.90    8.70
   1 -11  -5  228.18   16.60
   2  -1   1  717.03   16.50
   3  -9  -2  851.41   29.50
   4  -3   1 1396.06   31.50
   4  13   0   -0.60    6.60
   4  15  -1  121.49   11.70
   5  -8  -1   27.80   14.40
   5  -3   1  530.05   23.10
   8   2   1  187.38   13.80
   8   5   1   24.70    7.80
  -5   3 -10   82.29   16.20
  -5   4 -10   42.70   16.20
  -5   5 -10    3.40   15.40
  -4  -3  -8   25.70    7.10
  -4   1  -6  173.68   15.50
  -4   6  -6   19.80   14.90
  -4   9  -7  100.89   18.70
  -3   8  -4   26.30   16.90
  -3  13  -7   58.79   18.40
  -3  14  -8  103.89   21.90
  -2 -10 -10   -0.60    3.80
  -2   1  -2 1348.77   23.60
  -2  10  -3   66.59   16.40
  -2  12  -4   95.59   18.10
  -1 -10  -7   71.79    8.00
   0 -13 -10   57.59   11.20
   0  11  -1  316.97   19.60
   0  13  -2   74.89   14.80
   1  16  -3   16.10   14.40
   2  17  -3   44.40   12.00
   7  -1   1   17.40   11.70
   8   4   1   -4.90    8.40
  -5   2 -10   18.80   12.90
  -5   7 -11    3.60   13.00
  -4   7  -6   -1.20   12.90
  -3  12  -6   43.40   15.10
  -2   7  -2   24.80   13.40
  -2  15  -6   48.10   18.50
  -1 -12 -11   15.50    7.10
  -1   8  -1  288.97   18.60
  -1  11  -2   -4.50   13.40
  -1  13  -3  639.94   27.50
   0 -12  -8   38.60    9.10
   1 -14 -10   10.70   10.20
   1   3   1   49.00    4.30
   2  14  -1  266.07   16.80
   3  -5   0   77.19   12.40
   6  15  -1   -2.80    6.20
  -5  -1 -12   54.39   12.10
  -4  11  -8   12.40   16.10
  -4  12  -9   11.80   14.90
  -3  11  -5   76.39   16.20
  -2  14  -5   86.69   19.50
  -2  16  -7   -2.50   14.50
  -1  16  -5   -1.00   15.40
  -1  17  -6   71.79   18.20
   0   8   0   62.09   12.00
   1  -7  -2  205.28   14.10
   1   5   1 9999.00   47.60
   1  15  -2  206.38   19.90
   2  12   0  152.78   13.90
   2  16  -2   75.89   14.10
   3  -7  -1   56.89   14.50
   3  -2   1 1235.88   25.40
   4  -9  -2   26.20   14.70
   6  -5   0   95.49   15.30
  -5   4  -9  107.99   18.50
  -4  -5 -10   -1.80    5.40
  -4  -2  -7  335.47   13.90
  -4   8  -6   -1.40   15.10
  -4  10  -7   20.00   16.60
  -3   9  -4  332.07   21.70
  -3  14  -7   41.30   19.20
  -2   8  -2   32.60   14.00
  -2  11  -3   31.60   15.10
  -1  -9  -6  177.98    9.90
  -1  15  -4   23.90   16.30
   2  -4   0  906.31   23.20
   3  13   0   32.50    9.40
   3  15  -1  747.53   22.10
   4  17  -2   20.00    9.10
   6  13   0  114.69    5.60
   7   0   1   21.90   10.50
  -5  -1 -11   26.70   10.40
  -4  12  -8   30.80   16.70
  -3   4  -3   33.70   11.60
  -3  13  -6   13.30   16.40
  -2  -8  -7   50.09    4.20
  -2  13  -4  713.63   29.10
  -1   9  -1  104.69   14.60
  -1  12  -2  209.28   19.60
   1  -5  -1  965.20   21.80
   1  18  -4   44.10   13.40
   2  -6  -1    9.00   10.50
   4 -10  -3  132.09   19.40
   4  -7  -1  149.79   16.50
   4  -5   0  189.18   15.50
   4  -2   1  916.21   24.10
   5  -5   0   62.99   13.40
   9   7   0    7.70    6.90
  -5   9 -10   17.00   17.10
  -4  -6 -12   -1.90    5.00
  -4   5  -5   21.30   11.80
  -4   9  -6   39.20   15.90
  -3   3  -3   63.19   12.10
  -3   6  -3  587.44   24.30
  -3  10  -4   35.10   14.30
  -3  12  -5   63.99   15.90
  -2  16  -6   31.80   18.40
  -1  14  -3  109.49   17.80
   0 -11  -7    1.90    8.30
   0  -7  -3 1482.85   25.00
   0  12  -1  306.97   18.50
   0  17  -4   27.50   17.20
   1 -12  -7   15.00    9.60
   1   6   1 1194.28   19.40
   1  17  -3   10.40   13.70
   2  -9  -3  265.57   18.80
   3  17  -2   -0.70   10.20
   7   1   1    8.30   11.10
  -5  -2 -12   13.10    9.00
  -5   8  -9   -5.80   16.10
  -4   3  -5   13.40   11.20
  -4   6  -5   41.00   14.50
  -3   7  -3 1044.80   32.80
  -2   9  -2   28.50   15.00
  -2  15  -5    1.60   15.60
   0   9   0    0.10    9.70
   2  18  -3   18.70   12.70
   6  -4   0   -3.90   11.20
  -5  -1 -10   20.70   11.00
  -5   6  -8  470.05   27.10
  -5   9  -9  -18.20   16.90
  -4   2  -5  848.62   25.90
  -4   7  -5   35.50   14.00
  -4  10  -6  314.97   22.10
  -4  13  -8   44.10   17.80
  -3   2  -3  317.97   15.60
  -3  14  -6   28.80   15.90
  -2  12  -3 2288.67   46.90
  -2  14  -4  144.39   20.10
  -1  16  -4   42.70   14.90
   1 -13  -9   -4.40   10.70
   1  -8  -3  735.83   23.10
   1  14  -1  480.95   23.30
   2 -10  -4   33.60   14.70
   2   0   1  -10.80    6.80
   2  15  -1  362.76   18.80
   3  -8  -2  334.87   20.80
   6  -6  -1  220.08   21.10
   7   2   1   48.90   10.90
   7   7   1  123.09    8.40
   8  -1   0  197.18   17.70
   8  10   0    6.90    4.70
   9   3   0   15.60   10.10
   9   4   0   14.20    9.90
   9   5   0    5.90    8.10
  -5   7  -8  -17.20   13.90
  -4  12  -7   60.09   16.40
  -3   8  -3  478.05   22.70
  -3  11  -4   87.29   17.40
  -3  13  -5   12.10   13.50
  -2  10  -2  112.99   18.20
  -1  13  -2   18.90   15.70
   0 -12  -9   29.40    9.40
   0 -10  -6  298.17   15.10
   1 -11  -6  211.88   15.70
   1   7   1 2836.62   31.90
   1  16  -2  200.78   19.60
   2  13   0    5.30   10.90
   3  -4   0  280.17   15.60
   3  -1   1  917.81   20.70
   4  11   1  365.96   10.40
   4  16  -1  147.59   12.10
   5  -8  -2   10.30   14.30
   5  -1   1   43.50   10.10
  -5   8  -8   24.30   15.60
  -5  10  -9  130.29   19.30
  -4  11  -6  526.75   27.10
   0  13  -1  120.49   17.30
   1 -10  -5   34.60   12.10
   1  -9  -4  113.29   15.70
   2  17  -2   55.59   14.30
   3  -9  -3  887.91   29.80
   3  -6  -1   23.30   11.60
   5  -4   0   -2.10   11.60
   5  16  -1   12.30    7.00
  -5   1  -8  113.29   13.20
  -5   5  -7 2068.09   45.30
  -5   9  -8   49.30   16.40
  -4   9  -5   28.80   14.30
  -4  13  -7    8.80   18.00
  -3   1  -3  183.68   11.80
  -3   9  -3  229.08   19.40
  -3  15  -6  -13.30   16.10
  -2 -10 -11    1.70    4.40
  -2  13  -3    1.10   14.50
  -2  16  -5   -7.20   15.30
   0  -9  -5   64.39   10.80
   0  10   0 1573.84   32.50
   3  16  -1    3.60    9.50
   4  -4   0  430.96   19.30
   4  -1   1   51.79    8.80
   5  -6  -1    3.40   13.10
   5  14   0  119.69    7.60
   7   4   1   67.99    8.90
   7   5   1  408.46   14.50
   8   0   0  215.68   16.10
  -5   6  -7   69.39   17.40
  -5   7  -7  326.77   22.10
  -5  11  -9  177.88   20.30
  -4  -3  -7  184.38   10.00
  -4  10  -5   52.29   16.90
  -4  12  -6  130.49   20.60
  -3  12  -4    7.50   13.00
  -3  14  -5    6.80   16.70
  -2  15  -4   12.90   16.30
   0  -5  -2 1037.40   18.50
   1   8   1  270.67   12.60
   1  18  -3   30.20   14.30
   2  -7  -2   49.40   10.40
   2  -3   0  521.75   17.70
   3 -10  -4  104.79   16.10
   3  11   1   19.80    7.40
   4  -9  -3   19.10   14.10
   4  -6  -1 2393.16   43.50
   6  -3   0  132.09   15.40
   6   1   1   61.99   11.50
  -5  -2 -10   23.90    9.50
  -5  -1  -9   29.50    8.50
  -5   8  -7   -7.50   13.70
  -5  10  -8  122.49   18.80
  -4  -6 -11   -2.40    4.10
  -3  10  -3    1.00   15.00
  -2  -3  -3  128.59    4.60
  -2   6  -1 1931.01   36.10
  -1 -11 -10   77.39    9.10
  -1  14  -2    4.00   14.40
   1 -13 -10   24.50   10.40
   1 -12  -8   82.29   11.80
   1  15  -1  100.89   16.30
   2 -12  -7  655.53   25.30
   4 -10  -4   69.39   16.60
   5   0   1  -22.30    9.00
  -5   9  -7   42.00   17.50
  -5  11  -8   81.19   18.80
  -4   4  -4  112.19   15.60
  -4   5  -4   11.00   12.60
  -4   6  -4  261.17   19.80
  -4  14  -7   35.80   17.30
  -3  -2  -4   -0.60    4.80
  -3  13  -4   -9.70   14.70
  -2   7  -1  423.46   19.90
  -2  14  -3  701.33   31.00
  -1  -5  -3  247.98    7.10
  -1   6   0 1712.83   31.30
   1  -6  -2   44.30    9.80
   1  17  -2   41.80   12.50
   2  -5  -1 1259.17   27.30
   2  16  -1  133.99   13.50
   5  11   1  351.96    6.70
   6  -5  -1   12.40   11.80
  -4   3  -4   38.80   14.30
  -4   8  -4  139.29   17.30
  -4  11  -5  145.49   17.30
  -4  13  -6  158.88   20.70
  -3  11  -3  148.99   17.20
  -3  16  -6   12.90   14.80
  -2  12  -2  580.24   26.10
  -2  17  -5  128.79   18.20
  -1   7   0  182.38   13.80
  -1  12  -1   42.50   13.90
   0 -12 -10   -1.50    8.60
   0 -11  -8   -2.40    7.40
   1  13   0    4.10   12.20
   2 -11  -6  550.34   24.50
   2  -8  -3  573.24   23.00
   2  14   0   61.59   11.70
   3  -7  -2  150.18   14.90
   5  -3   0  177.08   14.70
  -6   4 -11    7.10   16.00
  -5   5  -6   26.10   15.60
  -5   6  -6  469.35   24.70
  -5  10  -7    8.40   15.50
  -5  12  -8   53.89   18.70
  -4   9  -4  320.87   22.70
  -3  -5  -6   24.80    3.40
  -3  15  -5  -32.90   14.40
  -2  -9  -9   54.19    5.60
  -2   3  -1 3008.60   37.50
  -2   8  -1   31.00   13.70
  -2  16  -4   85.29   17.20
   1   9   1   96.89    9.90
   2  18  -2   22.70   11.40
   3   0   1 3879.01   37.20
   4   0   1   -4.30    8.30
   6   9   1   45.70    4.10
   8   2   0  347.97   16.80
  -6   5 -10   20.30   13.30
  -6   6 -10  117.29   17.20
  -6   7 -10    0.40   14.20
  -5   1  -7   62.69    9.80
  -5   4  -6  433.56   22.80
  -5   7  -6  367.06   22.00
  -4  12  -5  935.11   33.40
  -3   5  -2   26.50   12.60
  -3   7  -2  357.26   21.10
  -3  14  -4    1.20   15.50
  -2   9  -1  169.08   16.50
  -1   8   0   54.99   13.00
  -1  15  -2    0.10   16.90
   0  18  -3   17.90   13.50
   1 -11  -7  235.78   15.30
   2  -9  -4  416.36   22.40
   2  11   1   25.40    9.30
   3  -3   0  227.08   14.20
   4  17  -1   61.99   10.40
   5  -5  -1 1533.75   36.80
   8   9   0   55.69    6.50
  -6   4 -10   -3.50   14.10
  -5   9  -6   42.40   17.90
  -5  11  -7   40.60   15.70
  -4   2  -4  223.78   15.40
  -4  10  -4   27.80   15.60
  -4  14  -6   25.30   15.80
  -3   4  -2  136.09   14.00
  -3   8  -2 1349.86   35.00
  -3  12  -3   17.00   15.40
  -2  13  -2  465.25   23.70
  -2  15  -3    9.70   14.40
  -1   9   0  352.46   20.30
  -1  13  -1   28.50   15.30
   0  12   0  497.15   21.10
   1  16  -1  128.29   17.00
   3  -8  -3   21.10   15.10
   3  -5  -1  229.88   15.00
   3  17  -1  104.09   11.70
   5  -8  -3  129.19   20.30
   7   0   0  -11.70    9.60
   8   3   0    3.60    7.40
  -6   2 -11    9.60   10.20
  -6   3 -10    2.30   13.80
  -5  -2  -9    6.30    7.00
  -5  -1  -8  173.38   12.20
  -5  12  -7   32.10   16.50
  -4  13  -5   17.40   14.20
  -3   9  -2  136.19   17.70
  -3  16  -5  305.77   22.50
  -2  10  -1   13.20   12.40
  -1   3   0  407.26   15.00
   0  15  -1    0.60   16.10
   1 -12  -9   27.50    9.60
   1  -7  -3   50.99    9.40
   3  12   1   18.80    7.20
   3  15   0    7.40    8.10
   4  -8  -3   29.40   13.90
   4  15   0   61.49    8.10
   6   3   1   -2.20   10.40
  -6   5  -9   55.79   15.90
  -6   6  -9   22.40   14.90
  -6   7  -9   19.70   15.40
  -5  10  -6   57.39   16.90
  -4  11  -4  194.08   19.70
  -4  15  -6    7.90   19.60
  -3   3  -2   17.00   10.20
  -3  13  -3   27.10   14.10
  -3  15  -4  -13.30   15.80
  -2 -10 -12   -0.40    5.60
  -2  17  -4   74.49   17.00
  -1 -11 -11   13.30    7.00
   0 -10  -7  194.98   13.30
   0  17  -2  293.97   21.20
   1 -10  -6  245.48   16.50
   1  14   0  124.29   15.20
   1  18  -2    8.90   13.60
   2   1   1  732.33   12.00
   2  17  -1   61.59   13.60
   3 -10  -5    2.90   13.00
   3  -9  -4   12.30   14.40
   4  -9  -4    7.10   12.80
   8   4   0  321.97   15.70
   8   8   0   29.90    7.20
  -6   2 -10    5.20   11.40
  -6   4  -9    6.20   14.60
  -5  -3 -10   74.59    8.20
  -5  11  -6   33.10   14.70
  -4   1  -4   11.00   10.60
  -3  10  -2  486.25   23.90
  -2  14  -2    1.60   16.20
  -1  10   0 1229.78   31.30
   0  -6  -3  415.66   15.00
   1  -8  -4   94.49   13.70
   2  15   0  385.16   18.40
   5  -2   0   11.80   10.20
   6   4   1    8.60    9.80
   8   5   0  291.17   14.10
  -6   3  -9   11.20   12.60
  -5  -4 -12    4.70    6.70
  -5   5  -5   27.30   15.90
  -5   7  -5   -0.20   14.50
  -5   8  -5   50.39   14.10
  -5  13  -7   17.60   14.80
  -4   5  -3  222.08   18.50
  -4   6  -3  503.25   24.00
  -4   7  -3 1530.75   37.80
  -4   8  -3  568.74   26.20
  -4  12  -4   46.40   15.30
  -4  14  -5  349.07   23.30
  -2  16  -3    0.30   14.00
  -1  -1  -1  430.26    7.10
   0 -11  -9  351.56   16.30
   0   7   1   42.80   10.80
   6  14   0   51.69    4.40
   7   1   0   19.40   11.70
   8   6   0    5.50    7.00
   8   7   0    5.00    7.00
  -6   5  -8   33.60   16.60
  -5   4  -5  243.18   21.10
  -5   9  -5   30.40   15.40
  -5  12  -6  156.38   19.30
  -4   9  -3  199.08   20.50
  -3   2  -2 4863.41   48.40
  -3  11  -2  189.68   18.20
  -3  14  -3   17.90   15.30
  -1 -10  -9  304.27   12.70
  -1  11   0  357.66   20.70
  -1  18  -3  200.18   20.70
   0 -12 -12   -1.90    7.90
   0  -9  -6  848.02   21.60
   0   6   1  236.18   12.50
   0   8   1   41.00   10.60
   2 -11  -7  153.68   15.00
   2  -2   0  206.48   12.90
   4  -6  -2  100.89   14.60
   5  -4  -1   21.90   12.60
   5  15   0  116.09    7.40
   6   5   1  263.87   12.60
   8   0  -1   -9.90    8.90
   9   4  -1   -2.10    9.40
  -6   2  -9   61.29   12.80
  -6   4  -8   12.00   14.70
  -6   9  -8   34.40   15.80
  -4  13  -4  273.17   23.30
  -4  15  -5   55.29   18.00
  -3  16  -4   19.00   14.30
  -2  12  -1  156.08   18.70
  -1  -6  -4    4.70    5.40
   0   5   1 1154.08   21.20
   0  16  -1  115.99   18.00
   0  18  -2  299.27   21.00
   1 -11  -8   31.80    9.50
   1  17  -1   -1.60   10.90
   3  -6  -2    0.90   11.50
   3   1   1  872.51   17.40
   4  -2   0    5.50    7.80
   5  -7  -3   65.99   17.90
   6  -5  -2   76.09   15.40
   6   8   1   64.49    6.10
  -6   0 -11   -0.60    9.20
  -6  10  -8  185.68   19.60
  -5   3  -5  101.89   16.30
  -5  13  -6  -16.80   16.50
  -4  -6 -10    1.10    3.50
  -3  12  -2  210.58   19.80
  -2  15  -2    3.30   15.10
  -2  17  -3   52.29   17.10
  -1 -11 -12    7.60    6.20
   0  -7  -4 1078.99   22.50
   1  15   0   -5.10   14.70
   2  -7  -3  621.84   21.80
   2  -4  -1  537.45   18.40
   3  -2   0 1109.19   23.90
   3  18  -1   -7.40    9.00
   4  -4  -1 1659.93   34.40
   6   7   1  358.96   10.40
   7   2   0    7.60   10.00
   9   5  -1   26.70    9.50
  -6   3  -8   74.19   15.20
  -6   8  -7   83.19   18.00
  -5  -2  -8    2.70    6.60
  -5  -1  -7   56.79    9.90
  -5  11  -5  226.98   20.90
  -4   3  -3 2603.64   41.90
  -4  11  -3    3.20   15.70
  -4  14  -4  150.48   19.90
  -3  -1  -3  177.48    9.80
  -3  15  -3   34.10   15.70
  -2  13  -1   48.40   17.10
  -1   2   0  775.32   16.60
  -1  12   0  205.58   16.70
   2  18  -1   40.20   11.80
   3  13   1   35.50    7.40
   3  16   0  584.74   18.60
   4  -7  -3    2.00   15.90
   9   6  -1   13.10    7.50
   9   7  -1   18.30    8.20
  -6   0 -10  167.18   14.60
  -6   9  -7   92.79   17.70
  -5  -3  -9   38.10    7.20
  -5  12  -5  101.49   16.80
  -5  14  -6   -4.70   15.90
  -4  -4  -7  407.86   10.60
  -3  13  -2  -18.00   14.30
  -3  17  -4  422.96   25.90
   0  10   1  100.59   12.30
   1  -5  -2   19.70    9.00
   1  12   1   53.29   11.00
   2  -8  -4 1590.54   36.40
   2  13   1   64.19   10.70
   2  16   0   41.80   11.40
   3  -7  -3  227.98   18.50
   3  -4  -1  510.25   18.10
   4  16   0  143.89   10.50
   8   1  -1  139.79   13.00
  -6   2  -8  195.08   17.40
  -6   4  -7   56.59   16.50
  -6  10  -7   30.00   15.60
  -5   2  -5  134.99   14.80
  -5   6  -4   -2.70   14.00
  -5   7  -4   11.90   15.80
  -5   8  -4   87.49   17.20
  -5   9  -4   76.79   17.30
  -4  12  -3   56.39   14.20
  -3   7  -1  798.92   28.30
  -3   8  -1  264.07   20.30
  -3   9  -1  480.75   25.30
  -2   1  -1  801.72   17.70
  -2   7   0  166.88   16.10
  -2  16  -2   30.30   16.30
   0 -11 -10  219.08   14.00
   0  17  -1  214.68   20.30
   1 -12 -11    9.60    9.40
   3  -8  -4  399.96   24.60
   4  -9  -5    5.50   12.90
   4  13   1  104.59    7.00
   5  -5  -2   45.70   14.20
  -6  -1 -11   11.00    9.50
  -6  11  -7   60.89   17.00
  -5   5  -4    5.60   13.80
  -5  10  -4    9.60   13.30
  -5  13  -5  194.08   22.20
  -4   2  -3   46.60   12.80
  -4  15  -4   55.49   17.60
  -3   1  -2 2939.31   35.10
  -3   5  -1   81.69   12.90
  -3  10  -1  953.50   33.80
  -3  16  -3  212.98   20.90
  -2   6   0  624.74   22.80
  -2  14  -1   82.99   18.50
  -1  13   0   10.60   12.60
  -1  18  -2  132.29   18.80
   0 -10  -8  260.77   14.10
   0   4   1    2.30    6.90
   0  11   1  337.67   18.80
   1 -10  -7   21.10   10.30
   1  -1   0 1796.62   18.50
   2 -11  -8    5.50    9.10
   3  -9  -5   -1.70   11.40
   4   2   1  862.71   18.30
   5  -3  -1  137.79   15.30
   6  -2  -1   59.49   13.40
   7   3   0  177.58   13.10
  -6   3  -7   33.50   15.50
  -6   7  -6    3.90   17.20
  -6   8  -6   75.79   19.00
  -5  11  -4   19.10   16.10
  -4   7  -2  476.25   25.80
  -4   8  -2   24.20   15.90
  -4  13  -3   60.89   16.80
  -3  -8 -11   26.90    3.30
  -3  14  -2   15.00   14.10
  -2  -9 -10    6.80    4.80
  -2   5   0 4864.41   53.19
   0  15   0    8.60   14.70
   1 -11  -9  203.38   13.50
   1  13   1   26.50   11.60
   1  16   0   -9.10   10.80
   6  -4  -2   56.09   12.80
   8   2  -1   -3.90    9.20
  -6   0  -9   -2.20   11.70
  -6   6  -6  197.38   21.00
  -6   9  -6  329.07   24.50
  -6  10  -6   -0.90   15.80
  -5   4  -4  387.56   20.60
  -5  14  -5  141.09   20.40
  -4   6  -2  237.48   19.30
  -4   9  -2  353.06   23.00
  -4  10  -2   85.59   16.70
  -3  11  -1    8.30   16.20
  -1 -10 -10   -3.60    6.60
   4  -5  -2 2145.89   41.80
   4  -1   0   67.39   10.90
   5  -6  -3  657.53   29.10
   5  12   1    7.70    3.30
  -6  11  -6   40.50   17.90
  -5  12  -4  277.67   23.40
  -4   5  -2  413.36   21.10
  -4  14  -3  104.99   19.30
  -4  16  -4   77.29   16.00
  -3   4  -1   -8.30   10.20
  -3  15  -2  -18.50   14.00
  -3  17  -3    9.10   14.60
  -2  11   0   17.60   14.30
   0  -4  -2   -1.80    6.60
   0  18  -1   14.10   13.80
   1  -6  -3    3.90    8.50
   2  -5  -2   45.90   10.90
   2  14   1   90.89   11.00
   2  17   0   30.40   12.20
   3  14   1   17.80    7.40
   3  17   0   10.90    9.30
   5   4   1   87.29    9.80
   7   0  -1  547.45   23.20
  -6  -1 -10   -7.60    8.30
  -6   2  -7   -6.70   12.70
  -5  -4 -10   45.10    6.60
  -4  11  -2   32.80   14.60
  -3  -3  -4  126.09    6.20
  -1   8   1   19.50   11.80
  -1  17  -1    6.40   13.00
   3  -5  -2   -2.40    9.50
   5  -7  -4  261.17   20.60
   5   0   0    5.80    8.30
   5  16   0   20.60    5.50
   6  -5  -3  108.29   15.60
   8   3  -1  190.18   13.40
  -4   4  -2  827.52   26.40
  -4  12  -2  177.58   20.00
  -4  15  -3    6.90   14.70
  -2  12   0  142.69   17.40
  -1   7   1  151.58   13.50
  -1   9   1   40.20   12.50
   0  16   0   18.80   14.90
   1  -8  -5   19.00    8.70
   1  -7  -4  199.88   15.00
   1  14   1   -9.90   11.70
   4  -6  -3  857.41   29.50
   7  11   0    1.80    3.40
   8   0  -2   -0.20    9.90
  -7   5  -9  260.97   21.80
  -6   7  -5  172.98   19.90
  -6   8  -5  381.36   24.90
  -6   9  -5  327.87   23.80
  -5  -2  -7   30.00    7.20
  -5   6  -3   45.90   18.00
  -5   7  -3  224.58   20.80
  -5  10  -3  -17.50   14.60
  -5  14  -4  169.18   21.90
  -4   1  -3   43.00    9.50
  -3  16  -2   16.40   14.80
  -1   6   1    6.10    9.70
  -1  10   1 1546.05   34.60
   3  -1   0   90.09   10.30
   3   2   1 1111.59   16.60
   4  -9  -6   15.20   10.40
   4  17   0    3.60    7.50
   5  -4  -2 1546.65   37.80
   6  -1  -1 3398.26   52.09
   6   2   0  235.58   15.40
   7   5   0   18.80    7.00
  -7   7  -8   -3.30   14.70
  -6  -2 -11    2.10    8.10
  -6   0  -8 1780.22   34.50
  -6   6  -5    3.80   15.80
  -6  10  -5   92.39   16.50
  -6  11  -5   34.70   16.50
  -5  -3  -8    2.90    5.60
  -5  -1  -6   16.10    8.20
  -5  11  -3   38.70   15.80
  -4  -1  -4   24.20    7.70
  -4  13  -2   15.20   14.80
  -1  11   1 1172.78   31.20
   0 -10  -9   10.80    7.80
   1 -10  -8   37.30    9.30
   2  -6  -3 1928.11   36.00
   2  -1   0  447.66   13.80
   3  -9  -6   26.80   12.80
   3  -6  -3  317.47   19.30
   3  -3  -1   93.19   12.00
   4  -8  -5   43.50   14.50
   4  -7  -4    6.40   13.70
   4  14   1   46.90    7.20
   5  -2  -1  263.87   17.30
   7   1  -1   29.30   11.00
   8   4  -1  347.47   16.10
   9   4  -2   72.29   12.10
  -7   4  -9   57.79   15.20
  -7   6  -8  110.99   17.40
  -6   5  -5    8.60   15.50
  -6  12  -5   13.30   16.40
  -5   5  -3  144.39   16.00
  -5  12  -3   49.90   15.00
  -5  15  -4   14.30   18.10
  -4  16  -3   15.30   13.30
  -1  18  -1   35.50   15.10
   0 -11 -12   22.90    9.00
   2  -8  -5  327.27   21.00
   2  15   1   68.79   10.10
   4   3   1 1375.16   21.20
   5   5   1   26.30    6.60
  -7   5  -8   -3.60   12.80
  -5  -5 -12   -3.10    4.80
  -4   3  -2 1468.05   31.80
  -4  14  -2   57.39   16.60
  -3  17  -2   36.50   16.40
  -1 -10 -11    0.20    6.70
  -1   5   1  949.90   22.10
  -1  12   1  325.97   18.70
  -1  16   0  -18.10   15.00
   0  14   1  334.87   21.10
   0  17   0  -14.30   12.70
   1  15   1   27.30   13.10
   2  18   0   31.70   10.00
   3  -8  -5 1539.25   37.90
   3  15   1  314.67   13.00
   5  -5  -3 1162.38   34.90
   8   1  -2    4.10    9.20
  -7   3  -9   22.50   13.60
  -6  13  -5    1.20   16.40
  -5   4  -3 1318.67   32.80
  -5  13  -3    4.20   14.00
  -4   8  -1  435.76   23.80
  -4   9  -1  526.15   27.00
  -4  10  -1  172.78   19.30
  -3   8   0  766.12   29.50
  -3   9   0  795.72   29.60
  -3  10   0 1176.88   35.90
  -2   3   0  519.85   17.90
   0  -8  -6 1868.31   30.60
   0   3   1  164.28    9.30
   1  18   0   72.89   13.10
   3  18   0  -12.40    9.20
   5   1   0  752.92   22.20
   6  -4  -3   48.30   14.50
   7   7   0  282.07   11.60
   7  10   0   13.00    5.00
  -7   6  -7   10.90   15.60
  -7   7  -7   29.60   14.40
  -6  -2 -10    1.30    8.90
  -6   9  -4  701.93   31.60
  -5  14  -3  198.88   22.90
  -4   7  -1  183.08   18.30
  -4  15  -2    9.90   15.70
  -3   7   0  131.89   17.40
  -3  11   0   18.30   16.60
  -2  -9 -11    6.40    4.60
  -1  -8  -7   18.90    7.30
  -1  13   1  480.15   24.50
   0  -5  -3  212.68   11.50
   4   0   0   13.40    8.00
   6   3   0  121.19   13.50
   7   8   0   77.99    8.00
   7   9   0    0.30    5.50
   9   6  -2    5.30    9.80
  -6   7  -4  237.98   21.70
  -6  11  -4   27.20   15.50
  -5   9  -2   53.29   15.90
  -4   6  -1    6.10   13.00
  -4  12  -1   45.80   17.30
  -3   2  -1 1157.28   24.80
  -3   6   0  109.89   15.70
  -3  12   0    5.30   14.30
   0  15   1   -7.70   14.20
   1  -9  -7   57.49   12.00
   2  10   2  112.79   11.80
   5  -7  -5  228.78   20.20
   6  -2  -2  153.48   17.30
   7   2  -1    8.00    9.90
   8   6  -1   84.49   10.10
  -7   5  -7   26.40   15.70
  -6  12  -4    9.50   15.60
  -5  -4  -9   86.69    6.80
  -5   1  -4  218.78   14.80
  -5   3  -3  184.48   16.80
  -5   7  -2  263.37   21.10
  -5  10  -2  282.17   21.90
  -5  11  -2   12.70   14.10
  -5  15  -3    7.70   14.40
  -4   2  -2  868.71   25.00
  -4  16  -2   51.29   15.90
  -3  16  -1   17.70   16.80
  -2   8   1  419.16   21.70
  -2  10   1   45.40   13.90
  -2  18  -1   74.79   17.30
  -1 -10 -12   17.20    7.30
  -1  -9  -9   55.69    8.50
  -1  17   0    8.30   15.00
   0  18   0   -1.10   13.60
   1 -10  -9  166.78   13.60
   2  16   1   74.49   11.10
   6  -5  -4   22.80   14.80
   8   2  -2    8.00    9.20
   9   7  -2   10.30    8.00
  -7   1 -10   -5.10    9.60
  -7   3  -8   32.20   12.00
  -7   9  -6   47.70   16.20
  -7  10  -6   70.29   17.80
  -6  -1  -8   75.69    9.20
  -6  13  -4   -7.10   16.20
  -5  12  -2   26.20   15.40
  -4   5  -1  429.16   21.30
  -4  13  -1  112.69   17.10
  -3  -2  -3  276.47    9.80
  -2   7   1   -9.60   10.90
  -2  11   1  589.54   24.90
   0  -6  -4   64.09    8.10
   1 -11 -12   24.80   10.50
   1  -4  -2 1177.78   22.90
   3  -4  -2   82.89   12.60
   4  -5  -3   55.99   16.00
   5  -1  -1   13.30    9.10
   5   6   1   41.70    6.60
   8   7  -1   21.90    7.50
   9   8  -2   26.00    8.90
  -7   4  -7  105.59   18.20
  -5   6  -2   24.00   15.40
  -5  13  -2  197.88   22.60
  -3   5   0   67.39   10.20
  -3  17  -1    2.60   15.50
  -2  12   1   -1.90   14.40
   0  -9  -8   -0.80    8.30
   2  -4  -2 1287.27   27.20
   3  16   1   16.70    8.60
   4  -6  -4   80.49   13.30
   7  -2  -3   52.09   12.50
  -4  17  -2  -11.50   14.40
  -3  14   0  228.88   21.80
  -1  15   1   65.19   18.50
  -1  18   0   57.59   16.20
   0   9   2 1335.67   30.20
   0  10   2   66.79   14.00
   1  12   2  233.18   16.00
   2 -10  -9   84.99   11.30
   4  -7  -5  274.17   19.10
   6   4   0    3.50    9.40
   7   3  -1  160.68   13.00
  -6   4  -4   58.29   14.80
  -6   8  -3 1016.80   36.10
  -6   9  -3   12.60   15.80
  -6  11  -3   -4.00   15.60
  -5   5  -2  138.69   16.70
  -5  14  -2   86.49   18.60
  -4   4  -1  431.16   20.40
  -4  15  -1  194.38   20.10
  -2   6   1    5.20   11.10
  -2  13   1   55.19   15.10
   3  -8  -6  668.33   24.70
   3  -5  -3   42.90   13.50
   6  -3  -3  148.59   16.20
  -7   2  10   -6.10   11.40
  -6  -6  10   29.50   15.60
  -5  -8   9   -2.50   12.00
  -5   6   6   19.70    7.20
  -4  -4   5   -8.70   13.80
  -4   1   4  495.15   19.30
  -3  -9   6   -2.00   16.10
  -2 -12   7  653.93   27.30
  -2  14   5  175.68   11.70
  -1 -14   8   33.60   13.80
  -1  10   2  717.23   18.60
   0  12   2   67.19   13.20
   1   8   0   58.09   10.70
   2   5  -1 1467.95   33.70
   3   7  -1   46.80   11.30
   5   8  -1   21.50   11.10
   6  -3  -1   10.00   10.40
   9  -5   1    8.20    9.60
  -7  -4  12   28.20   13.80
  -7  -2  11  -13.10   13.20
  -6  -8  12   30.30   13.40
  -6  -7  11   -2.50   14.80
  -6  -4   9   85.69   15.30
  -6  -1   8  -13.20   12.50
  -5 -10  11   46.90   14.50
  -5  -9  10   71.89   17.10
  -5  -1   6   74.69   14.80
  -3 -13  10  -12.80   12.30
  -3  -5   4   50.49   14.80
  -2  -2   2   65.19   13.30
   0 -14   7   45.40   13.70
   0 -12   5   46.30   12.70
   0  14   3  309.67   17.10
   1  15   3   -5.20    8.20
   7  -2  -1   13.00    8.80
  -4 -11  10   39.40   14.10
  -4  -9   8   18.80   14.60
  -4  -6   6  219.48   20.10
  -3 -12   9   -8.70   13.90
  -3 -11   8   50.19   15.00
  -3 -10   7  222.98   20.30
  -3  -7   5    6.60   14.10
  -3  -1   3 2156.88   36.40
   0 -13   6   -5.70   13.10
   2 -11   3   48.50    9.90
   2  10   0    4.00   10.40
   3  11   0    4.20   11.20
   7  -8   1  387.06   13.50
   8  -7   1   10.00    9.00
   8   0  -1    1.60    7.90
  -6  -5  10  175.68   20.30
  -6  -3   9    7.10   11.70
  -6   8   9    9.80    7.50
  -5   5   6   92.79   10.40
  -4 -10   9   -0.10   14.20
  -3  15   7    4.00    5.50
  -2 -14  10   42.80   15.50
  -2  -9   5   23.00   13.80
   0   5   0    5.30    6.60
   2 -15   7  204.98   17.10
   2  -1  -1   13.80    8.00
   2   6  -1   20.30   12.20
   3 -10   2  479.35   13.70
  -7   1  11  -16.70   12.90
  -6  -7  12    1.10   15.50
  -6  -6  11    7.80   12.80
  -5 -10  12    7.90   16.20
  -5  -7   9   13.10   12.50
  -4  -3   5  834.92   29.50
  -4   8   5   40.70    6.30
  -3 -13  11   21.80   15.60
  -3  12   5    5.00    4.20
  -2  -5   3  128.39   14.50
   4   9  -1   93.69   14.00
   7  -6   0  996.80   23.80
   7  -3  -1  137.09   12.70
  -7   2  11   -3.90   12.50
  -7   3  11    3.90   11.00
  -7   4  11  100.69   13.50
  -5  -9  11   14.90   14.80
  -5  -8  10    8.30   13.70
  -5   1   6   54.99   11.20
  -5   2   6 1066.19   27.80
  -3   0   3 4948.41   52.49
  -2 -10   6  157.68   19.20
  -2  -7   4  944.61   29.30
  -1  16   5    7.90   11.00
   0 -15   9  -10.20   14.30
   0  -7   2   93.09   10.00
   1 -15   8  200.38   19.20
   1   9   0  403.16   21.30
   1  14   2   15.00   10.70
   2  13   1   50.29   12.10
   5   3  -2   32.60   13.60
   6  -4  -1   72.39   11.80
   8  -9   2    7.80    8.10
   8  -5   0  339.87   16.50
   9  -6   1    7.10    9.90
  -7  -3  13   76.59   16.30
  -6  -4  10  -20.80   14.80
  -6  -2   9   22.70   13.00
  -4  -5   6  464.25   24.50
  -3 -12  10   -0.70   16.30
  -3  -4   4    9.50   12.30
  -2 -12   8   85.79   17.30
  -2 -11   7  158.18   17.00
  -1 -14   9    2.10   14.80
   2 -14   6   56.29   13.20
   2 -12   4   73.59   10.00
   2   7  -1   -2.70   11.20
   5   5  -2   31.10   11.40
   6   3  -2   64.39   11.70
   6   4  -2   62.09   12.20
   8  -2  -1    3.00    7.40
  -6  -7  13   39.00   15.90
  -4 -10  10  159.88   20.20
  -4  -8   8   24.10   15.50
  -4  -2   5   24.20   14.90
  -3 -11   9  164.18   20.80
  -3  -6   5 1650.93   40.30
  -3   5   3   58.59    6.90
  -1  -7   3   48.60   11.00
  -1   7   1  140.89    8.20
  -1  13   3   69.19   11.30
   0   6   0  491.15   16.40
   2 -13   5  215.88   13.80
   3 -15   7  146.09   16.40
   3   9  -1  636.64   25.20
   4   4  -2  868.91   28.30
   4  10  -1   87.69   14.20
   6   5  -2   51.59   13.20
  -7   0  12   15.20   13.70
  -6  -6  12   32.30   15.40
  -6  -3  10   -0.30   16.40
  -6  -1   9  403.76   21.90
  -5  -9  12   -3.20   16.60
  -5  -6   9   37.50   16.10
  -5  -2   7  514.85   24.40
  -5   8   7   70.29    7.70
  -3 -10   8  163.88   19.10
  -1 -13   8   44.00   15.90
  -1 -10   5   22.50   11.60
   0 -14   8   40.40   14.30
   0 -10   4  199.98   15.70
   1 -14   7  208.68   17.10
   1  16   3  135.49   16.30
   4   5  -2 2102.99   42.60
   5   0  -2    4.70    9.70
   9  -4   0   12.00   10.00
  -7   1  12    9.20   13.20
  -7   2  12   10.70   12.90
  -7   4  12   15.90   15.20
  -7   5  12   72.39   13.90
  -6   0   9   -1.50   11.50
  -6   9  10   -9.20    8.50
  -5  -7  10   22.00   15.00
  -5  -4   8  172.28   18.50
  -4 -11  12  105.59   17.90
   0  13   2   53.09   13.10
   1 -11   4   34.20   10.70
   2   8  -1  424.86   22.90
   4   6  -2   93.99   13.90
   5   7  -2  314.67   19.70
   6  -7   0  129.39    9.40
   8  -3  -1  179.98   13.60
  -7   3  12   71.89   14.30
  -6  -4  11    3.40   15.30
  -6   6   9  216.18   14.30
  -5  -9  13   98.49   22.20
  -4  -4   6  696.53   29.20
  -4  -1   5   16.70   13.40
  -3 -12  11   15.80   16.80
  -3  -3   4  -11.40   12.50
  -3   4   3   19.80    7.70
  -2  -8   5  338.97   22.60
  -2  16   6    9.00    8.60
  -1 -14  10   35.70   15.70
  -1  11   2  150.08   13.30
  -1  15   4    3.40   10.10
   0 -13   7    7.70   15.40
   0  15   3   26.60   11.40
   1 -13   6  142.29   17.50
   1 -12   5   26.40   12.50
   3  10  -1  116.29   16.20
   4   0  -2  948.31   26.40
   7 -10   2   49.10    5.60
   7   0  -2   -1.80    9.10
  -7   0  13    0.20   14.30
  -6  -5  12   -4.00   13.90
  -6  -2  10  160.18   19.90
  -5  -1   7  170.48   17.20
  -4 -10  11   57.09   16.80
  -2 -12   9    9.60   15.70
  -2  13   4   25.90    8.40
   0 -12   6   49.70   16.00
   1 -15   9    2.50   14.30
   1  -8   2   -0.40    6.90
   1  -6   1 1178.68   18.80
   2 -15   8   21.20   14.50
   3 -14   6   34.20   12.10
   4   7  -2  261.27   18.40
   5  -1  -2  823.92   24.20
   5   8  -2   -8.40   11.90
   8  -6   0    3.50    9.70
  -6   3   9   -1.10   12.00
  -6   4   9   96.19   12.90
  -5  -8  12    8.80   18.30
  -5  -5   9    6.80   14.70
  -5  -3   8  299.47   23.50
  -5  10   8  102.79    8.10
  -4  -9  10   25.90   17.30
  -4  -8   9   30.30   15.80
  -3 -11  10  -14.80   15.90
  -3  -5   5   60.59   16.80
  -2 -11   8   11.20   16.60
  -2  -9   6    1.60   14.90
  -2  -6   4  887.01   28.60
   0  -4   1    9.00    9.80
   0  11   1  334.47   19.40
   1   4  -1 1653.63   29.30
   1  13   1    8.40   13.70
   1  15   2   -0.50   10.80
   3 -11   3  112.29    9.10
   3   3  -2   32.60   14.30
   3   4  -2   76.39   15.10
   8  -8   1    7.80    9.10
   9  -7   1  144.89   13.30
   9  -5   0   -6.70   10.90
  -7   2  13   65.39   15.30
  -7   3  13   56.19   16.80
  -7   4  13  109.79   17.00
  -6  -5  13    6.70   16.40
  -6  -4  12   15.10   17.30
  -6  -3  11   39.20   15.60
  -6  -1  10    5.60   15.10
  -6   8  10    6.50    8.60
  -5  -7  11   75.69   17.70
  -5  -6  10  210.88   20.80
  -4   0   5   -6.60   12.60
  -4   7   5  289.47   11.60
  -3 -12  12   52.89   17.60
  -3 -10   9  344.17   25.60
  -3  -8   7  234.38   22.60
  -2 -10   7  255.47   21.90
  -1 -13   9   -1.60   15.00
  -1  -8   4  101.79   15.00
  -1  -4   2 1132.19   25.60
   0 -14   9    7.10   13.40
   3 -13   5   22.50    9.70
   3   5  -2    3.50   12.50
   4   8  -2  127.99   15.20
   6  -5  -1   11.60   10.00
  -5  -8  13  122.29   22.40
  -4 -10  12   11.90   15.60
  -4  -5   7  136.69   18.90
  -4  -3   6   -8.00   13.60
  -3  -9   8  688.93   30.20
   0  -8   3 1732.93   33.30
   1   2  -1   28.60   11.10
   3 -12   4    0.40    8.10
   3   6  -2    4.20   12.10
   4  -1  -2  204.38   14.90
   6  -9   1   55.19    5.50
   6  -2  -2  177.68   15.40
   8  -4  -1  320.57   17.90
   8   0  -2    1.60    8.40
  -6  -2  11   42.40   15.30
  -6   0  10 1128.29   36.00
  -5  -4   9    2.50   16.10
  -5  -2   8   73.69   18.90
  -5   1   7  149.09   15.00
  -3 -11  11   29.90   18.40
  -3  14   6   -2.90    3.80
  -2 -12  10   47.80   19.40
  -2  11   3   13.90    5.90
  -1   8   1   -2.80    6.80
   0  17   4    2.70   11.80
   1 -14   8   68.39   15.80
   1   6  -1   -5.20   13.10
   2 -14   7   29.40   14.80
   4 -14   6   11.40   12.00
   5  -2  -2   92.29   11.30
   9  -3  -1   15.70   11.70
  -6  -4  13   20.40   14.40
  -6  -3  12    9.90   15.00
  -6   7  10  117.39   14.50
  -5  -7  12  124.19   19.80
  -5  -6  11  145.29   22.40
  -5   2   7  501.15   22.10
  -5   6   7   29.90    8.60
  -4  -8  10  -15.80   16.40
  -4  -6   8    3.90   16.90
  -4   1   5    9.30   11.90
  -3  -6   6  193.58   20.40
  -2  -7   5  607.54   29.90
  -2  15   5   17.20    7.50
  -1  -9   5  214.18   18.50
   0 -13   8  147.09   18.40
   0  14   2  117.79   14.60
   2  15   1   63.89   12.80
   4 -10   2   83.09    6.90
   4   9  -2   33.00   13.20
   5 -14   6    3.40   10.30
   7  -2  -2    3.90   10.00
   8  -1  -2    7.40    8.90
  -6  -1  11  641.24   31.90
  -5   5   7   65.29   11.20
  -4  10   6    0.20    4.30
  -3 -10  10  113.99   21.60
  -2 -11   9   50.59   19.00
  -2  -3   3 1579.84   34.30
  -1 -13  10   28.70   17.90
  -1 -10   6  224.78   18.50
  -1  14   3  530.85   20.70
  -1  17   5   -4.50    9.90
   0 -14  10   29.20   15.50
   0  -6   2 1573.74   28.70
   0   8   0   50.19    8.80
   2  13   0    3.20   12.50
   4  -7   0   30.40    2.30
  -6  -4  14   84.59   20.80
  -5  -7  13   21.20   17.50
  -5  -3   9   -4.70   15.00
  -5  -1   8   46.60   15.10
  -4  -9  12    0.30   16.40
  -4  -4   7  659.23   29.80
  -4  -2   6 1331.07   35.90
  -4   2   5   41.90   10.70
  -3 -11  12   32.30   17.50
  -3  -4   5   13.10   17.20
   0 -12   7   11.10   16.30
   0  -9   4 2829.62   46.30
   0  12   1  335.37   20.80
   0  16   3  146.19   18.20
   1 -13   7  402.66   23.70
   2 -13   6   27.60   12.90
   2 -10   3   77.69   11.40
   4  10  -2   35.00   14.30
   6   4  -3   54.09   14.10
   6   5  -3   88.79   15.00
  -6  -3  13   82.99   18.10
  -6  -2  12   18.90   15.00
  -6   4  10   -8.30   13.40
  -5  -6  12  238.68   25.70
  -5   9   8    2.80    6.30
  -3  -9   9  579.14   29.50
  -3  -8   8  433.66   26.70
  -2 -12  11  -13.10   17.90
  -2 -10   8  113.59   20.00
  -2  -5   4 1053.99   32.70
  -1  12   2  510.25   18.20
   1  16   2   -6.80   13.70
   2  -7   1  438.46   11.30
   3   0  -2  -14.60    9.80
   4 -13   5   35.50    9.40
   5   4  -3   76.69   17.70
   5   5  -3 1094.19   35.00
   6  -3  -2   51.59   13.20
   6   2  -3   11.90   12.50
   8  -2  -2    9.30   10.70
   9  -6   0   42.20   12.80
  -6   8  11    4.90   10.50
  -5  -7  14   32.70   18.90
  -4  -9  13   46.80   20.70
  -4  -8  11    7.00   18.50
  -4  -5   8  193.38   21.10
  -4   4   5    4.60    9.70
  -3 -11  13   73.59   22.20
  -1 -13  11   88.59   20.00
   0 -10   5  148.89   15.00
   1 -14   9   20.70   17.00
   1 -12   6   12.30   13.80
   2 -11   4  692.03   21.30
   3 -14   7   44.20   14.80
   3   9  -2  767.42   30.70
   7  -3  -2  128.99   14.10
   8  -5  -1  119.29   13.20
   9  -4  -1    3.50   10.80
  -6  -2  13   10.40   18.40
  -6  -1  12    0.50   17.40
  -5  -2   9   23.00   17.70
  -5   0   8   -4.90   11.70
  -4  12   7   20.20    4.30
  -2 -12  12  -12.10   17.30
  -1  16   4   16.40   10.80
   1 -11   5  154.88   16.10
   1   8  -1    9.20   10.00
   2 -14   8  182.48   19.70
   5   7  -3   81.59   18.10
   6   1  -3  131.29   17.30
   7  -9   1    3.00    5.70
   8  -7   0    6.70    9.80
  -6   2  11   38.40   16.90
  -6   7  11   11.50   11.50
  -5  -6  13   96.99   21.70
  -4  -3   7 1740.03   43.70
  -2 -11  10   74.09   18.30
   2   4  -2 1365.66   32.00
   2   5  -2   61.49   14.00
   2  14   0   51.69   13.80
   4 -12   4   35.50    8.40
   6 -13   5   11.80    8.10
  -6  -2  14  103.29   21.60
  -6   3  11   42.60   16.10
  -5  -5  12  118.19   21.90
  -5   1   8   27.60   13.30
  -4  -8  12   62.49   20.20
  -3 -10  12  -31.60   19.40
  -2  -6   5  113.59   18.70
  -1 -11   8   50.69   17.40
   2   3  -2 2473.25   40.30
   2   6  -2   26.60   12.10
   3  10  -2  484.65   26.80
   4   5  -3   51.09   18.50
   4   6  -3  895.01   33.90
   5   1  -3   17.80   13.10
   8  -3  -2   31.30    9.70
  -6  -1  13   46.40   18.00
  -6   4  11   -2.60   15.80
  -6   5  11    2.20   12.10
  -5  -6  14   44.40   18.60
  -5  -4  11   32.60   15.60
  -5  12  10   -2.50    7.20
  -4  -7  11   -2.70   17.70
  -3  -8   9   83.49   19.80
  -3  -6   7  171.28   21.70
  -2 -10   9   85.99   19.30
  -1 -10   7    9.00   17.70
  -1  -8   5   26.70   14.50
   0  15   2  308.57   19.70
   1 -14  10   -1.80   16.50
   1 -13   8   31.00   15.70
   1   9  -1   30.60   14.10
   1  15   1   16.70   12.60
   2   7  -2   59.59   12.60
   4   3  -3   38.80   15.30
   4   7  -3   36.30   15.30
  -5  -5  13   36.10   20.10
  -5   2   8   73.59   12.70
  -4  -4   8 1087.09   36.20
  -4   0   6  235.58   18.30
  -3  -7   8   31.30   16.30
  -3   0   4    0.90   12.20
  -2 -11  11   54.19   19.90
  -2  -9   8  254.57   24.90
  -1  -9   6  129.79   16.80
   0 -12   8   46.70   17.00
   0  -7   3 1577.64   33.40
   0  13   1  118.19   15.20
   4 -14   7   31.20   14.30
   7  -6  -1   19.80   10.50
   8   0  -3    2.20   10.40
  -6   2  12    2.00   16.70
  -6   8  12   18.80   11.20
  -5  -2  10   20.80   17.40
  -4  -8  14   11.90   20.80
  -4  -6  10   97.09   18.90
  -4  -5   9   93.09   17.90
  -2  -7   6    2.70   17.20
  -2  -4   4 3334.57   52.29
  -2  14   4   90.29    8.40
   1  13   0   32.90   15.00
   1  17   2  230.78   18.90
   2 -14   9   30.50   15.80
   2 -13   7   41.50   14.60
   2   2  -2   68.59   14.40
   2   8  -2   84.89   14.40
   3  11  -2  664.33   28.60
   4   8  -3   25.40   16.90
   5   0  -3   77.59   11.90
   7  -4  -2   37.40   10.80
   9  -5  -1   35.40   11.90
  -6   1  13   85.69   21.80
  -6   3  12   -3.70   16.00
  -5  -5  14   14.30   16.90
  -5  -4  12  110.69   20.10
  -5  -3  11   76.09   19.10
  -5   0   9  433.06   24.70
  -5   6   8   24.00    9.30
  -5  10   9  144.19   10.40
  -4  -7  12  147.59   20.70
  -2 -11  12   -4.20   16.50
  -1 -11   9  228.38   25.00
  -1  15   3  339.67   17.40
   0  17   3  325.67   20.50
   3 -14   8  105.49   17.70
   6  -4  -2   40.90   10.90
   7  -1  -3   16.40   11.90
   9  -3  -2   20.20   12.80
  -6   4  12    1.90   16.20
  -6   5  12    0.60   12.70
  -4   1   6  136.49   15.40
  -4   9   6    2.30    5.90
  -3  -8  10  122.59   21.50
  -3  -2   5   10.60   12.70
  -2 -10  10  191.38   24.40
   0 -13  11   31.70   16.90
   1 -12   7   10.40   14.40
   4   1  -3 2665.43   43.60
   4   9  -3   29.80   14.60
   5 -12   4  268.17   12.20
   8  -6  -1   94.29   12.80
   8  -1  -3   14.00   11.40
   9  -7   0    6.40   10.00
  -6   1  14   28.80   17.70
  -6   2  13   30.50   16.50
  -5  -4  13   19.60   17.40
  -5  -1  10  527.15   29.00
  -4  -7  13   48.10   19.60
  -4  -6  11  538.35   30.20
  -4  -3   8  275.37   21.60
  -3   1   4  944.01   25.10
  -2 -11  13   12.80   17.90
  -2  12   3   13.70    5.70
  -1  10   1 1446.66   24.50
   0 -10   6  292.37   18.80
   0  -8   4  235.48   17.30
   1 -13   9   17.40   14.30
   2  13  -1   78.39   16.20
   3 -12   5   67.39   11.00
   8  -9   1    1.40    7.00
   8  -4  -2  248.28   17.00
  -6   3  13   90.89   18.50
  -5  -4  14   67.19   20.80
  -5  -2  11   25.80   17.20
  -5   1   9   16.00   13.60
  -4  -4   9    6.60   19.10
  -3  -9  13    4.90   20.90
  -3  -7   9   20.00   16.00
  -3  -6   8  146.59   19.90
  -3  -5   7  212.38   21.00
  -2  -9   9    6.70   15.80
  -1 -10   8   25.20   14.90
  -1  -6   4   96.79   17.30
   0  -9   5   65.49   13.50
   2 -12   6  136.29   15.70
   3  -9   2  135.69    9.50
   3   5  -3   46.70   14.00
   3   6  -3  273.37   19.30
   4  10  -3  117.79   17.40
   5  -6  -1    8.10    6.40
   5  -1  -3   18.50   11.20
   6   4  -4   -2.70   15.90
  -6   4  13   11.90   14.70
  -6   5  13    8.10   16.20
  -6   6  13    1.70   13.70
  -4  -7  14    3.00   18.50
  -2 -10  11  166.28   23.90
  -1 -11  10  131.59   21.00
   0  11   0  -14.70   11.90
   1 -11   6   29.00   11.50
   1  -3   0  497.95    7.50
   1  14   0  104.49   15.60
   1  16   1  148.79   18.20
   2   1  -2  752.42   21.20
   3 -11   4   89.09   11.30
   3   4  -3   10.70   13.40
   3   7  -3  228.18   19.40
   4 -13   6  179.68   16.20
   6  -8   0   17.50    5.30
   6   3  -4   -3.70   15.50
   7  -8   0   79.49    8.60
   7  -2  -3   42.70   11.50
  -6   3  14   22.30   17.00
  -5  -3  13   54.09   19.40
  -5   0  10    9.10   15.90
  -5   2   9   16.20   14.40
  -3  -9  14   33.90   17.30
  -2  -8   8   38.20   19.50
  -2  -1   3  -10.30   13.70
  -2  16   5   10.10    6.30
  -1  17   4   65.99   11.20
   0  14   1  303.47   17.90
   0  16   2  136.09   16.60
   1  -8   3   79.09   12.70
   1   0  -1 4399.36   28.20
   2 -13   8   24.50   14.50
   3   8  -3   34.60   16.50
   5 -11   3   39.00    6.90
   8  -2  -3  117.59   14.30
  -5  -1  11   -2.40   16.80
  -4  -6  13  -22.20   19.80
  -4  -2   8  258.07   22.60
  -4   3   6   -3.90    8.30
  -3  -7  10   12.40   18.40
  -2 -10  12  173.78   24.20
  -2  -7   7   -2.10   14.70
  -1  -8   6   35.00   14.70
  -1  -7   5    7.10   14.60
   0 -12  10   17.40   18.00
   1 -13  10   -0.80   14.50
   2 -11   5    5.90   12.40
   2  14  -1  295.07   22.20
   3 -10   3    3.20    8.90
   5   4  -4    7.50   16.90
  -5  -3  15  192.18   24.70
  -5   8   9    0.00    7.30
  -4  -3   9   55.69   17.40
  -4   0   7    6.70   13.20
  -3  -8  12   99.09   19.80
  -3  -1   5  210.08   17.20
  -2 -10  13   71.29   22.10
  -2  -9  10  413.26   28.30
   1 -12   8  269.67   22.50
   1  -9   4  141.79   13.40
   3   9  -3  754.72   30.50
   5 -10   2  269.37    7.60
   5   3  -4  210.88   21.50
   9  -6  -1    5.80   10.20
  -5  -2  13   27.50   18.30
  -5   1  10  539.85   27.00
  -5   4   9   15.10   12.60
  -5   7   9   12.70    8.70
  -4  -6  14  -10.90   18.40
  -4  -6  15   -5.60   23.70
  -3  -8  13  141.59   21.00
  -3  -6   9   -8.50   18.70
  -1  -2   2   93.39   14.70
   0  18   3   17.70   12.80
   1 -13  11   13.90   18.20
   1  12  -1  303.57   21.30
   3   2  -3 1498.85   32.80
   6   1  -4    0.90   12.90
   7  -5  -2  132.79   11.90
   8  -8   0   47.20    8.30
  -5  -2  14   92.39   21.70
  -5  -1  12   31.50   19.00
  -5  10  10   34.60    9.80
  -3  -8  14   -9.90   20.20
  -3  -7  11    9.20   18.90
  -3  -5   8   24.40   17.60
  -1  11   1 1222.18   23.80
   0 -10   7  215.08   19.40
   2 -13   9   61.09   19.30
   3  10  -3  427.06   24.60
   5 -13   6   -5.70   11.90
   5   2  -4  402.06   22.30
   7  -3  -3   47.60   11.20
   8  -5  -2   98.49   13.10
  -4   1   7  180.68   18.80
  -4  11   7   -0.60    4.80
  -2  -9  11  445.26   28.70
  -2  -8   9   64.99   18.10
  -1  14   2  435.06   17.30
  -1  16   3   13.50    9.90
   0 -12  12    6.80   17.80
   1  15   0   -7.10   11.20
   1  17   1    2.80   15.00
   2 -12   7  -15.10   15.60
   4 -12   5  957.80   24.10
   4   6  -4   59.09   17.20
   4   7  -4  -15.60   14.50
   6  -5  -2   46.30   10.60
   8   0  -4  237.08   18.40
  -5  -1  13   24.70   18.00
  -5   1  11    4.80   17.90
  -4  -3  10  117.09   21.50
  -4  -2   9   -5.20   17.90
  -1 -10  10   50.09   20.20
   0  -9   6  886.71   30.60
   0  15   1   16.60   12.90
   1 -12   9   19.10   16.30
   1 -11   7  176.98   19.00
   3  11  -3   22.80   14.70
   4   8  -4  154.98   19.80
   6  -3  -3  154.28   14.20
  -5   0  12  -26.70   15.00
  -5   9  10   75.59   13.30
  -5  11  11   15.00    9.40
  -4  -5  14   17.40   17.20
  -4  -5  15    4.80   18.40
  -3  -7  12    7.60   17.90
  -3  -6  10  -17.50   17.80
  -3  -2   6  387.76   23.40
  -2  -9  12   78.69   20.60
  -2  -7   8   83.39   18.10
   1   6  -2   34.40   11.40
   1   7  -2  188.58   16.10
   2   0  -2   57.89   10.70
   3 -13   8   48.50   16.20
   3 -12   6   43.10   11.30
   4 -13   7    9.10   13.60
   4   4  -4   42.00   15.30
   4   9  -4    9.10   16.10
   7  -7  -1  172.38   11.40
   9  -5  -2   11.40   12.60
   9  -3  -3    0.30   12.00
  -5  -1  15   95.39   20.80
  -5   4  10  113.99   18.30
  -3  -7  13   71.09   21.90
  -3  -5   9  159.98   21.00
  -2  -9  13    5.60   19.00
  -2  -8  10   -1.00   18.20
  -2  -6   7   70.29   20.30
  -2  -5   6   21.10   15.60
  -1  -8   7  623.14   27.90
  -1  -5   4  110.29   15.10
   1   5  -2   28.30   12.00
   2 -13  10   -1.50   16.50
   4   3  -4   79.49   15.80
   7  -1  -4   51.29   13.70
   8  -7  -1   16.10    8.70
   8  -1  -4   19.50   11.90
  -5   1  12   59.49   19.10
  -5   5  10   36.00   13.60
  -5   8  10    0.20    9.80
  -4  -3  11   42.00   19.80
  -4   2   7  366.76   20.30
  -3  -7  15   29.90   25.20
  -3  -4   8  100.29   20.20
  -3  -3   7  560.54   27.00
  -2  -9  14   28.00   19.40
  -1 -10  11  223.48   23.40
  -1  -7   6   55.99   18.70
   0   7  -1   47.10    9.50
   0  13   0   -1.20   11.20
   2   6  -3 1992.00   40.80
   2  13  -2   53.39   16.40
   6   5  -5   34.90   19.70
  -5   0  14   -0.40   17.70
  -5  10  11   41.90   11.50
  -4  -4  14   77.99   22.70
  -4  -2  10  -15.70   17.80
  -4  -1   9    7.20   18.90
  -3   4   4   17.80    7.90
  -1 -10  12    1.60   20.60
  -1  -9   9   22.40   17.90
   0   5  -1 1209.48   23.90
   2 -12   8  -16.20   14.40
   2 -11   6   11.50   12.70
   2   5  -3  125.89   15.30
   2   7  -3  620.24   24.30
   2   8  -3  512.85   24.30
   6   4  -5   69.19   17.00
  -4  -4  15   -9.60   18.80
  -3  -6  12    9.00   19.10
  -2  -8  11  263.87   24.50
  -2  -7   9  115.19   21.20
  -1 -10  13  -16.20   19.80
  -1  12   1  323.47   14.40
   1 -12  11    8.10   17.10
   3 -13   9   59.49   17.20
   4 -11   4  187.58   11.50
   4   2  -4   88.29   13.10
   5   0  -4    1.10    9.20
  -5   4  11   47.20   19.00
  -4  -3  12   21.50   16.20
  -4   3   7 1710.23   35.70
  -3  -5  10   57.39   20.20
  -3  -1   6    7.20   15.10
  -3   1   5  227.88   17.50
  -2  -8  12   26.30   19.00
   0   9  -1  554.14   19.60
   1  10  -2  706.63   26.50
   1  14  -1  400.16   22.10
   2   4  -3 3570.24   49.30
   2  14  -2  222.38   20.20
   3 -11   5   61.79   11.70
   5   6  -5   11.20   16.50
   5   7  -5  236.68   24.20
   6   3  -5  207.08   19.60
   8  -4  -3  110.19   12.90
  -4  -3  13   23.90   19.80
  -4   1   8    7.40   12.90
  -3  -6  13  105.19   23.40
  -2  -6   8   44.10   18.50
  -1  -8   8   44.60   17.10
   0  -9   7   85.89   16.40
   1 -12  12  117.09   20.50
   1  -9   5  103.69   12.90
   2  10  -3   -9.40   13.70
   3   6  -4  900.41   30.80
   3   7  -4 1727.53   41.60
  -4   7   3   15.80   14.50
  -3   5   3   53.79   13.30
  -1   6   7  582.74   30.90
   0   1 -12   19.70   17.70
   0   5   7  704.63   30.20
   1  -1  -9   31.80   18.70
   1   3 -16    7.00   21.60
   2  -2  -7  391.36   25.40
   2  -2  -4  687.43   25.10
   2  -1 -11  -20.20   20.70
   2   0 -13   19.30   23.50
   3  -2  -9   44.90   20.40
   3   0 -14    7.50   22.30
   4  -2 -10  -30.80   18.90
   5  -2  -2   91.09   14.00
   5  -1 -13   29.70   23.70
   6  -2 -10  172.58   25.90
   6  -1 -13   55.79   28.50
   7  -2  -9  122.09   21.80
   8  -1 -11   14.30   21.10
   9  -1  -8   51.99   19.40
   9  -1  -7   15.10   17.00
   9   0  -2    6.80   11.40
  10   0  -6   22.30   16.10
  -6  10  -3   37.70   10.20
  -6  11   0   26.60   12.60
  -5   8   1   25.80   14.30
  -3   3  -1  313.67   12.60
  -2   5   5  201.88   20.50
  -2   6   6  244.58   24.00
   2  -2  -6  221.28   18.60
   3   8  10  162.38   19.60
   5  -2 -10   22.30   21.20
   6  -2  -3    6.50    9.50
   6  -1   0  148.09   11.60
   7  -2  -8   48.00   17.90
   7  -2  -7   66.69   18.20
   7  -2  -6  468.05   27.00
   7  -1 -12   18.40   19.20
  -6  10  -2    9.30   10.40
  -5   7  -1   76.59   12.40
  -3   5 -11    9.10    8.10
  -2   7   7   -2.40   16.60
   0   6   8  545.25   28.60
   2   8  10  117.69   18.70
   4  -2  -2  310.47   16.10
   4   0 -14   -8.90   24.00
   4   8  10   90.79   17.30
   7   0   1   24.30    8.60
  -5   7  -6  380.96    9.40
  -4   6  -9    9.50    4.60
  -2   4 -12   44.90   13.90
  -1   4 -14   39.80   19.50
   0   0  -9   -4.20   15.30
   1   0 -11    3.50   19.10
   1   4   7  160.38   15.60
   2   1   4   26.10    6.20
   3  -2  -3 1552.64   33.10
   4  -1 -12  221.98   28.30
   5  -2  -9   26.40   20.50
   5  -1 -12   61.99   22.40
   5   0 -14   -7.70   22.30
   5   5   8   39.30   12.40
   6  -2  -4  232.38   17.40
   6  -1 -12   28.80   21.90
   6   0 -14   25.80   25.00
  -6  11   1  331.87   21.70
  -3   4   2   75.69   14.60
  -2   8   8   35.30   17.60
  -1   2 -11   -1.50   14.00
   1  -1  -8  245.38   20.20
   2  -1 -10   70.29   19.70
   2  -1   0  438.16   11.70
   2   6   9 1094.99   35.30
   3  -2  -7  205.68   22.00
   3   0 -13  641.84   37.00
   4   1 -15  167.48   28.10
   4   6   9   -3.80   12.50
   5  -2  -3   29.80   11.20
   6  -2  -7  591.74   28.60
   7  -1 -11   18.70   19.00
   8  -1  -9  294.47   27.30
   8  -1  -4   25.30   13.70
   8   3   4   58.79    5.40
  10   1  -3   54.19   13.50
  -4   7   4   -2.60   16.00
  -4   8   5   46.80   17.10
  -3   6 -12   73.99   11.00
  -3   6   5 1604.34   40.80
  -3   7 -13   13.90   10.50
  -3   7   6 1152.48   38.40
  -2   5 -13   21.60   16.00
  -2   6 -14   29.00   17.50
   0   3 -14  209.98   22.40
   0   7   9   47.10   18.00
   1   2 -14  176.38   25.10
   2   0 -12  200.28   24.40
   3  -2  -4  128.19   15.60
   4  -2  -8  278.77   25.20
   4  -2  -3 1319.87   30.50
   5  -2  -8  109.39   19.30
   5   1 -15  111.09   28.50
   6  -2  -6   63.99   16.40
   6   7   9   13.30   12.00
   7   0 -13  -11.50   22.60
   8  -1  -8  146.69   21.00
   8  -1  -5   67.39   16.50
   8   0 -12   24.80   20.60
  -3   8   7  245.18   25.80
   0   4 -15    0.90   19.10
   1   2   5 3709.23   44.00
   1   3 -15   22.80   21.30
   2   3 -16   39.20   19.10
   3  -2  -5    6.50   12.60
   4  -2  -7  419.86   24.50
   4  -1 -11   45.20   22.40
   4   0 -13   -9.70   22.70
   5  -2  -7  648.44   29.70
   5  -2  -4  390.16   20.80
   6  -1 -11  628.84   33.30
   7  -1 -10   -0.40   19.10
   7  -1  -2  176.88   14.60
   7   5   7   29.10    6.70
   8   0  -1    1.40    8.90
   9   0  -4  -13.60   10.90
  10   1  -4   68.19   14.30
  10   2  -1   -0.30   13.00
  -3   5   4   55.79   13.40
   2  -1  -9  476.45   28.10
   3   1 -14  -15.20   19.80
   3   7  10   -3.90   12.50
   4  -2  -6 1348.57   37.40
   4  -2  -4  112.19   16.30
   5  -2  -6 1122.39   36.20
   5  -2  -5  545.95   24.80
   5  -1 -11  -13.10   17.10
   5   0 -13   13.40   20.50
   6   0 -13    8.50   20.90
   8   0 -11   -1.40   17.40
   8   1   1  298.17   14.20
   9   0  -8    7.70   18.00
   9   0  -5  337.47   22.90
  10   1  -5   32.50   16.20
  -6  10  -6    1.00    6.60
  -6  10   1   10.30   11.30
  -4   5   1 1096.29   26.60
  -1   3 -12    9.20   15.90
  -1   4   6    0.10   12.50
  -1   5   7 1897.41   44.30
   0   0  -8 2804.42   45.90
   1  -1  -2  217.38   13.30
   1   0 -10   14.20   15.40
   1   1 -12   62.09   17.10
   2   1 -13   11.30   21.00
   3  -1 -10  230.78   24.20
   6  -1 -10   -4.50   16.70
   7  -1  -9    7.40   19.50
   7   0 -12   11.60   20.20
   9   0  -7   10.00   15.60
   9   0  -6    0.60   14.60
   9   1  -1  122.89   13.70
   9   2   1   65.19   11.20
  10   1  -6   40.20   15.40
  -3   3  -6   48.90    4.60
  -2   5   6    3.60   16.90
  -1   1  -8 1066.09   26.70
  -1   6   8 2402.76   52.49
   0   4   7  147.09   19.40
   1  -1  -6   10.40   12.30
   2   0 -11    1.20   19.40
   3   0 -12   -4.60   17.00
   3   2 -15   27.80   21.40
   4  -1 -10   -6.30   16.80
   4   1 -14   65.59   20.80
   4   7  10   97.29   17.10
   5   6   9   16.90   12.40
   6   1 -14   13.40   23.10
   7  -1  -8  108.59   20.20
   8   0 -10   80.89   21.80
  -6   9  -3    4.10    8.50
  -6   9  -2  270.87   15.50
  -2   2   1  564.94   17.20
  -1   6 -15   10.20   15.90
  -1   7   9  314.47   26.60
   0   5   8  278.77   22.60
   1   7  10  662.53   31.50
   2  -1  -8 1271.67   37.00
   3   3   7   17.40   13.00
   5   1 -14   11.30   20.40
   6   0 -12  154.38   24.50
   8   0  -2   -5.30   10.00
  10   2  -2    0.90   11.80
  -4   7   5  296.47   23.00
  -4   8   6  246.58   23.10
  -3   4   3   23.20   11.70
  -2   4   5   59.89   14.60
  -1   3   5 2485.85   44.00
  -1   4 -13    0.70   16.10
  -1   5 -14   -5.30   17.50
   0   1 -10   -2.60   11.60
   0   6   9  628.24   30.80
   1  -1  -5 2090.89   35.90
   3  -1  -9  386.96   26.80
   4   0 -12  219.78   24.40
   4   2 -15   -2.80   20.80
   5   0 -12    0.60   18.90
   5   2 -15  130.09   26.00
   6   4   7   49.20    8.40
   7  -1  -5  217.58   17.90
   7   0 -11   40.60   18.70
   7   0   0    3.80    7.90
   7   1 -13   -7.60   21.30
  -6   9  -4  655.33   18.30
  -3   7   7  935.01   38.60
  -1   1   1  167.88   10.70
   0   0  -7   -5.20    9.90
   0   3 -13  386.66   27.40
   1  -1  -4 1632.74   30.10
   2   3 -15   24.00   19.10
   2   4 -16   41.50   20.00
   2   4   8  197.18   18.60
   3   1 -13  204.08   25.70
   4  -1  -9   31.50   17.20
   5  -1  -9    2.50   19.10
   9   1  -2   65.59   12.60
  10   3   0   58.49   12.80
  -5   6  -2   11.40    9.60
  -4   5   2 1893.01   37.20
  -4   6   4   76.79   15.30
  -4   8 -11  194.78   10.70
  -3   5 -10   12.80    8.30
   0   4 -14   89.69   21.50
   0   5 -15    8.00   18.50
   1   0  -9  593.04   27.00
   1   3 -14  616.84   33.30
   1   4 -15   -8.00   19.50
   2  -1  -7 1924.41   42.60
   3  -1   0   97.19    8.60
   3   0 -11 1405.76   45.00
   3   2   6 1079.19   21.80
   3   5   9   88.79   14.80
   4  -1   0   70.19    7.20
   4   3   7  216.08   13.40
   4   4   8   50.79   12.10
   6  -1  -8   -1.00   15.60
   6   0 -11   -3.50   18.60
   6   1 -13   89.19   25.30
   7   0 -10   -7.70   17.20
   8   0  -8  203.68   23.40
   8   0  -3    5.50   11.90
  10   2  -3   11.90   12.10
  -6   9   1  140.29   15.40
  -5   6  -3   61.49    9.40
  -5   6  -1   55.69   11.80
  -3   5   5   84.09   16.40
  -2   7 -14   56.49   17.50
   0   1   3  311.87   15.90
   1   1 -11   27.40   16.10
   2   0 -10   90.59   19.80
   2   1 -12   94.89   20.70
   3  -1  -8  895.71   33.00
   3   2 -14   84.89   23.40
   4   0 -11   20.60   20.40
   4   1 -13   27.60   20.10
   5   0 -11 1169.28   43.80
   5   7  10   15.10   13.50
   6  -1  -7   22.00   16.40
   6   5   8   32.40    9.00
   7   1 -12   15.60   22.30
   8   0  -4  235.78   20.40
   8   1 -11   -4.80   19.80
   9   1  -3   55.39   13.00
  -3   3   1   97.79   10.30
  -2   5 -12   31.50   14.80
  -2   6 -13    1.90   15.50
  -1   1  -7   54.89    9.20
   1   1   4 2764.82   31.90
   2   2   6  648.04   19.30
   2   6  10   -4.50   14.60
   4   5   9  409.86   20.90
   4   8  11  198.28   21.60
   5  -1  -8   30.70   17.80
   6  -1  -3  134.49   13.00
   9   3   2   10.60    8.40
  10   2  -4   19.90   13.40
  -7  12  -2  194.38   15.40
  -7  12  -1    8.10   11.40
  -3   8 -13  213.78   15.90
  -2   3  -9  390.96   17.70
  -2   6   8   38.20   19.30
  -1   3 -11   50.69   15.30
  -1   5   8  178.18   19.90
   0   0  -6   77.79   11.80
   2  -1  -6  860.51   28.20
   2  -1  -1   21.20    8.80
   3   6  10    1.60   12.90
   6  -1  -5  175.08   16.20
   6  -1  -4    9.40   10.10
   7   0  -9  136.79   22.10
   8   1   0  209.18   12.90
   9   1  -6    6.70   15.40
   9   1  -4  560.34   25.50
   9   2   0  335.17   17.10
  10   2  -5   26.30   13.30
  -6   9   2  101.19   16.50
  -4   7   6  481.05   25.90
  -2   5   7   75.19   16.40
  -1   4   7   95.99   16.30
   0   1  -9 3642.64   54.19
   1   0  -8   -4.40   13.80
   1   6  10 1265.77   39.40
   3   0 -10    8.50   18.20
   3   1 -12  684.03   35.10
   4   3 -15  150.68   27.60
   5  -1  -7  190.98   20.70
   5   3 -15  214.58   29.50
   6   1 -12   14.30   21.10
   7   1 -11    1.60   21.80
  -4   6   5   -2.20   14.10
  -3   4   4   16.80   12.20
  -3   6   7  185.98   22.60
  -3   7   8   20.40   19.40
   2  -1  -5   67.39   14.30
   4  -1  -7  192.08   22.00
   4   0 -10   82.89   20.60
   4   1 -12  257.97   27.90
   5   0 -10   14.60   19.30
   5   1 -12   50.49   21.60
   7   0  -8  -16.80   17.60
   0   0   0    0.00    0.00

_computing_structure_solution     'SHELXT 2018/2 (Sheldrick, 2018)'
;
_shelx_hkl_checksum              25018
_olex2_exptl_crystal_mounting_method 'super glued to a glass fiber'
_olex2_submission_special_instructions 'No special instructions were received'
loop_
_space_group_symop_operation_xyz
'x, y, z'
'-x+1/2, y+1/2, -z+1/2'
'-x, -y, -z'
'x-1/2, -y-1/2, z-1/2'
loop_
_atom_site_label
_atom_site_type_symbol
_atom_site_fract_x
_atom_site_fract_y
_atom_site_fract_z
_atom_site_U_iso_or_equiv
_atom_site_adp_type
_atom_site_occupancy
_atom_site_site_symmetry_order
_atom_site_calc_flag
_atom_site_refinement_flags_posn
_atom_site_refinement_flags_adp
_atom_site_refinement_flags_occupancy
_atom_site_disorder_assembly
_atom_site_disorder_group
Re2 Re 0.58722(8) 0.64560(4) 0.54906(5) 0.01824(11) Uani 1 1 d . . . . .
Re3 Re 0.61939(8) 0.44480(5) 0.66289(5) 0.01817(11) Uani 1 1 d . . . . .
Re1 Re 0.25139(8) 0.52450(4) 0.56102(5) 0.01810(11) Uani 1 1 d . . . . .
I1 I 0.79289(18) 0.37116(9) 0.91185(10) 0.0294(2) Uani 1 1 d . . . . .
S4 S 0.2950(3) 0.33691(17) 0.6697(2) 0.0247(4) Uani 0.437(3) 1 d . . P A 4
S3 S 0.4586(3) 0.60698(17) 0.7601(2) 0.0228(4) Uani 0.518(3) 1 d . . P A 10
Se2 Se 0.2335(3) 0.71288(18) 0.4541(2) 0.0229(4) Uani 0.491(3) 1 d . . P A 5
S1 S 0.9252(3) 0.5702(2) 0.6611(2) 0.0279(5) Uani 0.536(3) 1 d . . P A 8
Se4 Se 0.2950(3) 0.33691(17) 0.6697(2) 0.0247(4) Uani 0.563(3) 1 d . . P A 3
S2 S 0.2335(3) 0.71288(18) 0.4541(2) 0.0229(4) Uani 0.509(3) 1 d . . P A 6
Se3 Se 0.4586(3) 0.60698(17) 0.7601(2) 0.0228(4) Uani 0.482(3) 1 d . . P A 9
Se1 Se 0.9252(3) 0.5702(2) 0.6611(2) 0.0279(5) Uani 0.464(3) 1 d . . P A 7
loop_
_atom_site_aniso_label
_atom_site_aniso_U_11
_atom_site_aniso_U_22
_atom_site_aniso_U_33
_atom_site_aniso_U_23
_atom_site_aniso_U_13
_atom_site_aniso_U_12
Re2 0.0189(2) 0.0174(2) 0.0179(2) -0.00027(17) 0.00155(17) -0.00030(16)
Re3 0.0185(2) 0.0181(2) 0.0174(2) 0.00071(17) 0.00123(17) 0.00001(16)
Re1 0.0179(2) 0.0185(2) 0.0176(2) -0.00023(17) 0.00200(17) 0.00024(16)
I1 0.0431(5) 0.0214(4) 0.0215(4) 0.0015(3) -0.0018(4) 0.0052(4)
S4 0.0255(8) 0.0221(9) 0.0260(9) 0.0003(7) 0.0029(7) -0.0009(7)
S3 0.0249(8) 0.0221(10) 0.0215(9) -0.0015(7) 0.0036(7) 0.0003(7)
Se2 0.0211(8) 0.0239(10) 0.0229(10) 0.0018(7) 0.0012(7) 0.0009(7)
S1 0.0215(8) 0.0273(11) 0.0355(12) 0.0055(9) 0.0062(8) 0.0010(7)
Se4 0.0255(8) 0.0221(9) 0.0260(9) 0.0003(7) 0.0029(7) -0.0009(7)
S2 0.0211(8) 0.0239(10) 0.0229(10) 0.0018(7) 0.0012(7) 0.0009(7)
Se3 0.0249(8) 0.0221(10) 0.0215(9) -0.0015(7) 0.0036(7) 0.0003(7)
Se1 0.0215(8) 0.0273(11) 0.0355(12) 0.0055(9) 0.0062(8) 0.0010(7)
loop_
_atom_type_symbol
_atom_type_description
_atom_type_scat_dispersion_real
_atom_type_scat_dispersion_imag
_atom_type_scat_source
I I -0.8919 1.1868 'International Tables Vol C Tables 4.2.6.8 and 6.1.1.4'
Re Re -0.4693 4.8944 'International Tables Vol C Tables 4.2.6.8 and 6.1.1.4'
S S 0.0826 0.0763 'International Tables Vol C Tables 4.2.6.8 and 6.1.1.4'
Se Se 0.2367 1.4831 'International Tables Vol C Tables 4.2.6.8 and 6.1.1.4'
loop_
_geom_angle_atom_site_label_1
_geom_angle_atom_site_label_2
_geom_angle_atom_site_label_3
_geom_angle
_geom_angle_site_symmetry_1
_geom_angle_site_symmetry_3
_geom_angle_publ_flag
Re3 Re2 Re3 89.75(3) 3_666 . ?
Re3 Re2 Re1 59.79(3) 3_666 . ?
Re3 Re2 Re1 60.25(2) 3_666 3_666 ?
Re3 Re2 I1 142.73(3) . 2_656 ?
Re3 Re2 I1 127.45(3) 3_666 2_656 ?
Re1 Re2 Re3 59.35(2) 3_666 . ?
Re1 Re2 Re3 59.57(2) . . ?
Re1 Re2 Re1 89.34(3) 3_666 . ?
Re1 Re2 I1 132.90(3) 3_666 2_656 ?
Re1 Re2 I1 136.85(3) . 2_656 ?
S4 Re2 Re3 117.44(5) 3_666 . ?
S4 Re2 Re1 117.46(6) 3_666 . ?
S3 Re2 Re3 57.40(5) . . ?
S3 Re2 Re1 57.61(5) . . ?
Se2 Re2 Re3 117.92(5) . . ?
Se2 Re2 Re1 58.36(5) . . ?
S1 Re2 Re3 57.73(6) . . ?
S1 Re2 Re1 117.16(6) . . ?
S2 Re2 Re3 117.92(5) . . ?
S2 Re2 Re1 58.36(5) . . ?
Se3 Re2 Re3 57.40(5) . . ?
Se3 Re2 Re1 57.61(5) . . ?
Se1 Re2 Re3 57.73(6) . . ?
Se1 Re2 Re1 117.16(6) . . ?
Re2 Re3 Re2 90.25(3) 3_666 . ?
Re2 Re3 Re1 60.44(2) 3_666 3_666 ?
Re2 Re3 Re1 60.04(3) 3_666 . ?
Re2 Re3 I1 133.24(3) . . ?
Re2 Re3 I1 136.47(4) 3_666 . ?
Re1 Re3 Re2 59.70(2) . . ?
Re1 Re3 Re2 59.64(2) 3_666 . ?
Re1 Re3 Re1 89.59(3) 3_666 . ?
Re1 Re3 I1 136.54(3) 3_666 . ?
Re1 Re3 I1 133.79(4) . . ?
S4 Re3 Re2 118.18(5) . . ?
S4 Re3 Re1 58.48(5) . . ?
S4 Re3 I1 91.71(6) . . ?
S3 Re3 Re2 58.16(5) . . ?
S3 Re3 Re1 57.89(5) . . ?
S3 Re3 I1 90.18(6) . . ?
Se2 Re3 Re2 117.92(6) 3_666 . ?
Se2 Re3 Re1 117.92(5) 3_666 . ?
Se2 Re3 I1 94.77(6) 3_666 . ?
S1 Re3 Re2 57.50(6) . . ?
S1 Re3 Re1 117.06(6) . . ?
S1 Re3 I1 89.50(7) . . ?
Se4 Re3 Re2 118.18(5) . . ?
Se4 Re3 Re1 58.48(5) . . ?
Se4 Re3 I1 91.71(6) . . ?
Se3 Re3 Re2 58.16(5) . . ?
Se3 Re3 Re1 57.89(5) . . ?
Se3 Re3 I1 90.18(6) . . ?
Se1 Re3 Re2 57.50(6) . . ?
Se1 Re3 Re1 117.06(6) . . ?
Se1 Re3 I1 89.50(7) . . ?
Re2 Re1 Re2 90.66(3) 3_666 . ?
Re2 Re1 Re3 59.71(2) 3_666 . ?
Re2 Re1 S1 115.98(6) . 3_666 ?
Re2 Re1 S1 56.06(5) 3_666 3_666 ?
Re3 Re1 Re2 61.02(2) 3_666 3_666 ?
Re3 Re1 Re2 59.77(3) 3_666 . ?
Re3 Re1 Re2 60.73(2) . . ?
Re3 Re1 Re3 90.41(3) 3_666 . ?
Re3 Re1 S1 115.69(6) . 3_666 ?
Re3 Re1 S1 56.31(5) 3_666 3_666 ?
S4 Re1 Re2 118.44(5) . . ?
S4 Re1 Re3 57.71(5) . . ?
S4 Re1 S1 90.73(7) . 3_666 ?
S3 Re1 Re2 58.60(5) . . ?
S3 Re1 Re3 58.12(5) . . ?
S3 Re1 S1 172.86(7) . 3_666 ?
Se2 Re1 Re2 57.79(5) . . ?
Se2 Re1 Re3 118.51(5) . . ?
Se2 Re1 S1 90.81(7) . 3_666 ?
S1 Re1 Re2 130.30(6) 1_455 . ?
S1 Re1 Re3 132.14(6) 1_455 . ?
S1 Re1 S1 99.86(8) 1_455 3_666 ?
Se4 Re1 Re2 118.44(5) . . ?
Se4 Re1 Re3 57.71(5) . . ?
Se4 Re1 S1 90.73(7) . 3_666 ?
S2 Re1 Re2 57.79(5) . . ?
S2 Re1 Re3 118.51(5) . . ?
S2 Re1 S1 90.81(7) . 3_666 ?
Se3 Re1 Re2 58.60(5) . . ?
Se3 Re1 Re3 58.12(5) . . ?
Se3 Re1 S1 172.86(7) . 3_666 ?
Re3 I1 Re2 119.76(4) . 2_646 ?
Re3 S4 Re2 63.20(6) . 3_666 ?
Re3 S4 Re1 63.81(5) . . ?
Re1 S4 Re2 63.15(5) . 3_666 ?
Re3 S3 Re2 64.44(5) . . ?
Re1 S3 Re2 63.79(6) . . ?
Re1 S3 Re3 63.99(5) . . ?
Re2 Se2 Re3 63.25(5) . 3_666 ?
Re2 Se2 Re1 63.86(5) . . ?
Re1 Se2 Re3 63.06(6) . 3_666 ?
Re2 S1 Re3 64.77(6) . . ?
Re2 S1 Re1 127.89(10) . 1_655 ?
Re2 S1 Re1 61.37(6) . 3_666 ?
Re3 S1 Re1 61.09(6) . 3_666 ?
Re3 S1 Re1 126.01(10) . 1_655 ?
Re1 S1 Re1 80.14(8) 1_655 3_666 ?
Re3 Se4 Re2 63.20(6) . 3_666 ?
Re3 Se4 Re1 63.81(5) . . ?
Re1 Se4 Re2 63.15(5) . 3_666 ?
Re2 S2 Re3 63.25(5) . 3_666 ?
Re2 S2 Re1 63.86(5) . . ?
Re1 S2 Re3 63.06(6) . 3_666 ?
Re3 Se3 Re2 64.44(5) . . ?
Re1 Se3 Re2 63.79(6) . . ?
Re1 Se3 Re3 63.99(5) . . ?
Re2 Se1 Re3 64.77(6) . . ?
Re2 Se1 Re1 61.37(6) . 3_666 ?
Re2 Se1 Re1 127.89(10) . 1_655 ?
Re3 Se1 Re1 126.01(10) . 1_655 ?
Re3 Se1 Re1 61.09(6) . 3_666 ?
Re1 Se1 Re1 80.14(8) 1_655 3_666 ?
loop_
_geom_bond_atom_site_label_1
_geom_bond_atom_site_label_2
_geom_bond_distance
_geom_bond_site_symmetry_2
_geom_bond_publ_flag
Re2 Re3 2.6461(9) . ?
Re2 Re3 2.6014(10) 3_666 ?
Re2 Re1 2.6100(8) 3_666 ?
Re2 Re1 2.6191(8) . ?
Re2 I1 2.7934(13) 2_656 ?
Re2 S4 2.500(2) 3_666 ?
Re2 S3 2.492(2) . ?
Re2 Se2 2.468(2) . ?
Re2 S1 2.467(2) . ?
Re2 S2 2.468(2) . ?
Re2 Se3 2.492(2) . ?
Re2 Se1 2.467(2) . ?
Re3 Re1 2.6154(9) . ?
Re3 Re1 2.6022(9) 3_666 ?
Re3 I1 2.7717(13) . ?
Re3 S4 2.464(2) . ?
Re3 S3 2.471(2) . ?
Re3 Se2 2.492(2) 3_666 ?
Re3 S1 2.474(2) . ?
Re3 Se4 2.464(2) . ?
Re3 Se3 2.471(2) . ?
Re3 Se1 2.474(2) . ?
Re1 S4 2.484(2) . ?
Re1 S3 2.465(2) . ?
Re1 Se2 2.484(2) . ?
Re1 S1 2.547(2) 1_455 ?
Re1 S1 2.639(3) 3_666 ?
Re1 Se4 2.484(2) . ?
Re1 S2 2.484(2) . ?
Re1 Se3 2.465(2) . ?
