#------------------------------------------------------------------------------
#$Date: 2021-12-04 01:12:46 +0200 (Sat, 04 Dec 2021) $
#$Revision: 271066 $
#$URL: file:///home/coder/svn-repositories/cod/cif/4/00/40/4004053.cif $
#------------------------------------------------------------------------------
#
# This file is available in the Crystallography Open Database (COD),
# http://www.crystallography.net/
#
# All data on this site have been placed in the public domain by the
# contributors.
#
data_4004053
loop_
_publ_author_name
'Pei, Shao-Min'
'Liu, Bin-Wen'
'Jiang, Xiao-Ming'
'Zou, Ya-Qian'
'Chen, Wen-Fa'
'Yan, Qiu-Nan'
'Guo, Guo-Cong'
_publ_section_title
;
 Superior Infrared Nonlinear Optical Performance Achieved by Synergetic
 Functional Motif and Vacancy Site Modulations
;
_journal_issue                   22
_journal_name_full               'Chemistry of Materials'
_journal_page_first              8831
_journal_page_last               8837
_journal_paper_doi               10.1021/acs.chemmater.1c03046
_journal_volume                  33
_journal_year                    2021
_chemical_formula_moiety         'Cd Cl Ga9 K4 Se16'
_chemical_formula_sum            'Cd Cl Ga9 K4 Se16'
_chemical_formula_weight         2195.09
_chemical_melting_point          ?
_chemical_name_common            K4CdGa9Se16Cl
_space_group_crystal_system      triclinic
_space_group_IT_number           1
_space_group_name_Hall           'P 1'
_space_group_name_H-M_alt        'P 1'
_audit_creation_method           SHELXL-2013
_cell_angle_alpha                68.356(2)
_cell_angle_beta                 74.920(3)
_cell_angle_gamma                84.930(2)
_cell_formula_units_Z            1
_cell_length_a                   8.7720(3)
_cell_length_b                   10.2955(3)
_cell_length_c                   10.3146(3)
_cell_measurement_reflns_used    10256
_cell_measurement_temperature    293(2)
_cell_measurement_theta_max      30.1040
_cell_measurement_theta_min      2.1010
_cell_volume                     836.01(5)
_computing_cell_refinement       'CrysAlisPro 1.171.40.59a (Rigaku OD, 2019)'
_computing_data_collection       'CrysAlisPro 1.171.40.59a (Rigaku OD, 2019)'
_computing_data_reduction        'CrysAlisPro 1.171.40.59a (Rigaku OD, 2019)'
_computing_publication_material  'SHELXL-2013 (Sheldrick, 2013)'
_computing_structure_refinement  'SHELXL-2013 (Sheldrick, 2013)'
_computing_structure_solution    'SHELXL-2013 (Sheldrick, 2013)'
_diffrn_ambient_temperature      293(2)
_diffrn_detector_area_resol_mean 10.0000
_diffrn_measured_fraction_theta_full 1.000
_diffrn_measured_fraction_theta_max 1.000
_diffrn_measurement_device_type  'ROD, Synergy Custom DW system, HyPix'
_diffrn_measurement_method       CCD_Profile_fitting
_diffrn_radiation_type           MoK\a
_diffrn_radiation_wavelength     0.71073
_diffrn_reflns_av_R_equivalents  0.0782
_diffrn_reflns_av_unetI/netI     0.0895
_diffrn_reflns_Laue_measured_fraction_full 1.000
_diffrn_reflns_Laue_measured_fraction_max 1.000
_diffrn_reflns_limit_h_max       10
_diffrn_reflns_limit_h_min       -10
_diffrn_reflns_limit_k_max       12
_diffrn_reflns_limit_k_min       -12
_diffrn_reflns_limit_l_max       12
_diffrn_reflns_limit_l_min       -12
_diffrn_reflns_number            15960
_diffrn_reflns_point_group_measured_fraction_full 1.000
_diffrn_reflns_point_group_measured_fraction_max 1.000
_diffrn_reflns_theta_full        25.242
_diffrn_reflns_theta_max         25.499
_diffrn_reflns_theta_min         2.128
_exptl_absorpt_coefficient_mu    25.744
_exptl_absorpt_correction_T_max  1.00000
_exptl_absorpt_correction_T_min  0.65800
_exptl_absorpt_correction_type   multi-scan
_exptl_crystal_colour            orange
_exptl_crystal_density_diffrn    4.360
_exptl_crystal_density_meas      ?
_exptl_crystal_description       bulk
_exptl_crystal_F_000             964
_exptl_crystal_size_max          0.115
_exptl_crystal_size_mid          0.100
_exptl_crystal_size_min          0.085
_refine_diff_density_max         2.501
_refine_diff_density_min         -1.152
_refine_diff_density_rms         0.286
_refine_ls_abs_structure_details
;
 Refined as an inversion twin.
;
_refine_ls_abs_structure_Flack   0.036(19)
_refine_ls_extinction_method     none
_refine_ls_goodness_of_fit_ref   0.955
_refine_ls_hydrogen_treatment    undef
_refine_ls_matrix_type           full
_refine_ls_number_parameters     281
_refine_ls_number_reflns         6057
_refine_ls_number_restraints     3
_refine_ls_restrained_S_all      0.955
_refine_ls_R_factor_all          0.0582
_refine_ls_R_factor_gt           0.0448
_refine_ls_shift/su_max          0.000
_refine_ls_shift/su_mean         0.000
_refine_ls_structure_factor_coef Fsqd
_refine_ls_weighting_details
;
 w=1/[\s^2^(Fo^2^)]
 where P=(Fo^2^+2Fc^2^)/3
;
_refine_ls_weighting_scheme      calc
_refine_ls_wR_factor_gt          0.0873
_refine_ls_wR_factor_ref         0.0916
_reflns_Friedel_coverage         1.000
_reflns_Friedel_fraction_full    1.000
_reflns_Friedel_fraction_max     1.000
_reflns_number_gt                5074
_reflns_number_total             6057
_reflns_threshold_expression     'I > 2\s(I)'
_cod_data_source_file            cm1c03046_si_003.cif
_cod_data_source_block           K4CdGa9Se16Cl
_cod_depositor_comments
;
The following automatic conversions were performed:

data item '_chemical_melting_point' value 'not measured' was changed
to '?' -- the value is undefined or not given.

data item '_exptl_crystal_density_meas' value 'not measured' was
changed to '?' -- the value is perceived as not measured.

Automatic conversion script
Id: cif_fix_values 7556 2019-12-06 15:28:31Z antanas 
;
_cod_database_code               4004053
_shelx_space_group_comment
;
The symmetry employed for this shelxl refinement is uniquely defined
by the following loop, which should always be used as a source of
symmetry information in preference to the above space-group names.
They are only intended as comments.
;
_shelxl_version_number           2013-2
_shelx_res_file
;
TITL a in P1
CELL 0.71073   8.7720  10.2955  10.3146  68.356  74.920  84.930
ZERR    1.00   0.0003   0.0003   0.0003   0.002   0.003   0.002
LATT -1
SFAC SE K GA CD CL
UNIT 16 4 9 1 1
acta
L.S. 4
BOND
FMAP 2
PLAN 20
twin
omit -3 51.0
omit 3 1 5
omit 6 2 3
WGHT    0.000000
BASF   0.03649
FVAR       0.03879
K1    2    0.142985    0.135534    0.381135    11.00000    0.04839    0.03759 =
         0.02949   -0.00335   -0.00787   -0.00153
K2    2    1.000023    1.000012    1.000037    11.00000    0.04391    0.02662 =
         0.04663   -0.00555   -0.01637   -0.00324
K3    2    0.804372    0.416998    0.081553    11.00000    0.04602    0.04944 =
         0.03804   -0.00983   -0.00747    0.01563
K4    2    0.363641    0.352884    0.914780    11.00000    0.04439    0.04672 =
         0.04047   -0.01426   -0.00128   -0.01013
CD1   4    0.296493    0.694295    0.530670    11.00000    0.02014    0.01938 =
         0.02315   -0.00772   -0.00339   -0.00086
GA1   3    0.995126    0.392446    0.628757    11.00000    0.01395    0.01154 =
         0.01501   -0.00278   -0.00199    0.00019
GA2   3    0.409101    0.790260    0.838057    11.00000    0.01444    0.01559 =
         0.01519   -0.00379   -0.00141   -0.00203
GA3   3    0.833081    0.747308    0.679903    11.00000    0.01678    0.01434 =
         0.01991   -0.00650   -0.00497    0.00258
GA4   3    0.593466    0.992641    0.425144    11.00000    0.01684    0.01327 =
         0.01352   -0.00467   -0.00542    0.00154
GA5   3    0.746907    0.648656    0.370383    11.00000    0.01451    0.01483 =
         0.01759   -0.00516   -0.00485    0.00369
GA6   3    0.712992    0.092351    0.718256    11.00000    0.01506    0.01199 =
         0.01791   -0.00496   -0.00404    0.00018
GA7   3    0.435726    0.349743    0.474126    11.00000    0.01516    0.01580 =
         0.01709   -0.00562   -0.00411    0.00225
GA8   3    0.216870    0.601838    0.216279    11.00000    0.01607    0.01614 =
         0.01426   -0.00353   -0.00489    0.00131
GA9   3    0.516621    0.889266    0.133437    11.00000    0.01511    0.01586 =
         0.01391   -0.00554   -0.00374    0.00111
SE1   1    0.766720    0.268316    0.797541    11.00000    0.01602    0.01410 =
         0.01633   -0.00698    0.00127   -0.00433
SE2   1    0.526889    0.516513    0.553253    11.00000    0.01583    0.01538 =
         0.01685   -0.00695   -0.00239   -0.00062
SE3   1    0.966120    0.482847    0.379470    11.00000    0.01147    0.01244 =
         0.01279   -0.00282   -0.00181    0.00201
SE4   1    0.463086    0.993582    0.891522    11.00000    0.01307    0.01307 =
         0.01278   -0.00386   -0.00304   -0.00007
SE5   1    0.553237    0.087559    0.189859    11.00000    0.03200    0.01316 =
         0.01390   -0.00322   -0.00982   -0.00049
SE6   1    0.353539    0.900739    0.600981    11.00000    0.01478    0.01540 =
         0.01295   -0.00353   -0.00411   -0.00015
SE7   1    0.667782    0.191192    0.473364    11.00000    0.01350    0.01089 =
         0.01482   -0.00482   -0.00372    0.00124
SE8   1    0.608043    0.622200    0.842999    11.00000    0.01682    0.01537 =
         0.02170   -0.00418   -0.00293    0.00090
SE9   1    0.823163    0.840625    0.426095    11.00000    0.01503    0.01342 =
         0.01522   -0.00582   -0.00367    0.00188
SE10  1    0.037907    0.571793    0.714728    11.00000    0.01527    0.01148 =
         0.02130   -0.00714   -0.00638    0.00208
SE11  1    0.730519    0.733307    0.129379    11.00000    0.02064    0.02105 =
         0.01597   -0.00752   -0.00638    0.00702
SE12  1    0.251692    0.804399    0.271225    11.00000    0.01497    0.01620 =
         0.01686   -0.00634   -0.00052   -0.00028
SE13  1    0.211259    0.236833    0.656115    11.00000    0.01399    0.01328 =
         0.02051   -0.00004    0.00005    0.00319
SE14  1    0.164333    0.681286    0.985527    11.00000    0.01514    0.02272 =
         0.01282   -0.00102   -0.00378   -0.00434
SE15  1    0.928279    0.938928    0.711449    11.00000    0.01608    0.01493 =
         0.02735   -0.01036   -0.00934    0.00390
SE16  1    0.406413    0.421279    0.236320    11.00000    0.02042    0.01993 =
         0.01543   -0.00615   -0.00625    0.00701
CL1   5    0.063979    0.215718    0.105278    11.00000    0.03236    0.03166 =
         0.03456   -0.01098   -0.01441    0.00486

HKLF 4

REM  a in P1
REM R1 =  0.0448 for    5074 Fo > 4sig(Fo)  and  0.0582 for all    6057 data
REM    281 parameters refined using      3 restraints

END

WGHT      0.0000      0.0000

REM Highest difference peak  2.501,  deepest hole -1.152,  1-sigma level  0.286
Q1    1   0.3115  0.3313  0.9412  11.00000  0.05    2.50
Q2    1   1.0231  1.0369  1.0382  11.00000  0.05    2.42
Q3    1   0.1025  0.1267  0.3397  11.00000  0.05    2.34
Q4    1   0.8536  0.3763  0.0929  11.00000  0.05    2.20
Q5    1   0.0796  0.5886  0.6893  11.00000  0.05    1.98
Q6    1   0.2503  0.1491  0.8841  11.00000  0.05    1.84
Q7    1   0.9529  0.8389  0.9807  11.00000  0.05    1.79
Q8    1   0.9006  0.3004  0.3282  11.00000  0.05    1.74
Q9    1   0.8026  0.1930  1.0291  11.00000  0.05    1.69
Q10   1   0.1482  0.0442  0.5755  11.00000  0.05    1.63
Q11   1   1.0412  0.9418  0.2761  11.00000  0.05    1.60
Q12   1   0.6510  0.5451  0.0807  11.00000  0.05    1.60
Q13   1   0.1003  0.5009  0.9273  11.00000  0.05    1.54
Q14   1   0.3649  0.2572  0.1677  11.00000  0.05    1.39
Q15   1   0.5459  0.4439  0.7813  11.00000  0.05    1.36
Q16   1   0.2743  0.7320  0.9156  11.00000  0.05    1.14
Q17   1   0.3896  0.9465  0.9412  11.00000  0.05    1.02
Q18   1   0.7637  0.2332  0.4191  11.00000  0.05    1.01
Q19   1   0.3899  0.7418  0.4754  11.00000  0.05    1.00
Q20   1   0.8769  0.4315  0.4395  11.00000  0.05    0.97
;
_shelx_res_checksum              86157
_shelx_hkl_file
;
   0   0  -1   27.08    2.47
   0   0   1   26.46    2.47
   0   0   1   27.73    2.46
   0   0  -1   24.90    2.48
   0   0  -1   25.50    2.44
   0   0  -1   27.15    2.51
   0   0   1   26.95    2.44
   0   0   1   26.10    2.51
   0   0  -2    3.91    0.43
   0   0   2    3.61    0.42
   0   0   2    3.31    0.46
   0   0  -2    4.57    0.39
   0   0  -2    4.09    0.47
   0   0  -2    3.99    0.54
   0   0   2    3.92    0.39
   0   0  -3    8.45    0.79
   0   0   3    7.56    0.75
   0   0  -3    6.64    0.81
   0   0   3    7.06    0.70
   0   0  -3    7.09    0.71
   0   0   3    6.98    0.82
   0   0  -3    7.33    0.92
   0   0   3    7.89    0.70
   0   0  -4   23.73    2.18
   0   0   4   23.49    2.18
   0   0   4   21.99    2.19
   0   0   4   22.15    2.15
   0   0   4   21.18    2.08
   0   0   4   20.53    2.23
   0   0  -4   21.68    2.08
   0   0  -4   21.92    2.23
   0   0   4   23.47    2.08
   0   0  -4   24.26    2.37
   0   0  -5    3.02    0.44
   0   0   5    3.64    0.45
   0   0   5    3.40    0.48
   0   0   5    2.98    0.42
   0   0   5    2.88    0.32
   0   0  -5    2.94    0.33
   0   0  -5    3.03    0.52
   0   0   5    3.25    0.33
   0   0  -5    3.17    0.63
   0   0   6    4.30    0.61
   0   0   6    4.98    0.59
   0   0  -6    3.97    0.58
   0   0   6    4.56    0.54
   0   0  -6    3.91    0.63
   0   0  -6    3.82    0.43
   0   0   6    3.78    0.42
   0   0  -6    4.47    0.84
   0   0   6    4.25    0.43
   0   0  -7   18.21    1.77
   0   0   7   15.98    1.71
   0   0   7   14.40    1.68
   0   0  -7   17.50    1.58
   0   0  -7   19.47    1.87
   0   0   7   15.14    1.57
   0   0   7   17.03    1.57
   0   0  -8    4.59    0.73
   0   0   8    5.33    0.72
   0   0  -8    4.27    0.59
   0   0   8    5.17    0.69
   0   0  -8    4.97    0.83
   0   0   8    5.20    0.54
   0   0   8    5.67    0.55
   0   0   9    1.02    0.35
   0   0  -9    1.19    0.28
   0   0  -9    0.84    0.40
   0   0   9    1.35    0.42
   0   0   9    1.73    0.26
   0   0 -10    1.20    0.30
   0   0  10    1.37    0.43
   0   0 -10    0.61    0.42
   0   0  10    2.15    0.31
   0   0  11    1.36    0.50
   0   0 -11    1.52    0.38
   0   0 -11    2.90    0.63
   0   0  11    3.18    0.40
   0   0 -12    3.57    0.76
   0   1 -11    3.32    0.55
   0  -1  11    3.41    0.73
   0   1 -11    3.47    0.73
   0  -1  11    4.77    0.51
   0   1 -10   -0.03    0.24
   0  -1  10   -0.20    0.34
   0   1 -10    0.16    0.36
   0  -1  10    0.05    0.19
   0  -1   9    0.40    0.29
   0  -1   9    0.19    0.23
   0   1  -9    0.38    0.23
   0   1  -9    0.29    0.35
   0  -1   9    0.90    0.28
   0   1  -8    4.15    0.64
   0  -1   8    3.52    0.51
   0  -1   8    3.73    0.58
   0   1  -8    3.19    0.46
   0  -1   8    1.83    0.46
   0   1  -8    4.63    0.73
   0  -1   8    6.01    0.51
   0   1  -7  129.51   11.26
   0  -1   7   92.51   11.13
   0  -1   7  112.82   11.14
   0  -1   7  107.33   11.19
   0   1  -7  109.02   11.10
   0  -1   7  120.62   11.06
   0   1  -7  136.22   11.33
   0  -1   7  147.00   11.09
   0  -1   6    8.40    1.09
   0  -1   6    9.07    1.00
   0   1  -6   10.50    1.11
   0  -1   6    8.57    1.04
   0   1  -6    9.54    1.14
   0  -1   6    8.41    0.93
   0   1  -6   10.16    0.94
   0  -1   6   11.02    0.95
   0   1  -6   10.81    1.36
   0   1  -5    1.05    0.24
   0  -1   5    0.89    0.20
   0  -1   5    0.47    0.23
   0  -1   5    1.06    0.24
   0  -1   5    0.74    0.14
   0   1  -5    0.91    0.15
   0   1  -5    1.03    0.30
   0  -1   5    1.03    0.15
   0   1  -5    1.25    0.47
   0   1  -4   25.07    2.32
   0  -1   4   24.57    2.33
   0   1  -4   26.62    2.29
   0  -1   4   21.38    2.29
   0   1  -4   24.07    2.22
   0  -1   4   22.14    2.22
   0   1  -4   23.24    2.35
   0  -1   4   24.09    2.22
   0   1  -4   24.40    2.50
   0   1  -3    7.53    0.70
   0  -1   3    5.99    0.69
   0   1  -3    7.74    0.68
   0  -1   3    5.97    0.67
   0   1  -3    6.58    0.72
   0  -1   3    5.15    0.61
   0   1  -3    7.05    0.62
   0  -1   3    6.18    0.62
   0   1  -3    6.83    0.62
   0   1  -3    7.33    0.85
   0   1  -2    0.07    0.09
   0  -1   2   -0.06    0.11
   0  -1   2    0.03    0.09
   0   1  -2    0.08    0.12
   0   1  -2    0.06    0.05
   0   1  -2    0.08    0.20
   0  -1   2    0.02    0.16
   0  -1   2    0.04    0.04
   0   1  -1    0.28    0.06
   0  -1   1    0.11    0.06
   0  -1   1    0.12    0.04
   0   1  -1    0.29    0.04
   0   1  -1    0.25    0.14
   0   1  -1    0.38    0.11
   0  -1   1    0.21    0.05
   0   1   0   20.64    1.84
   0   1   0   18.81    1.78
   0  -1   0   19.63    1.78
   0   1   0   20.64    1.84
   0   1   0   18.61    1.78
   0  -1   0   19.72    1.78
   0   1   1   10.21    0.93
   0   1   1    9.90    0.98
   0  -1  -1    9.76    0.97
   0   1   1   10.01    0.97
   0  -1  -1    8.34    0.95
   0   1   1    9.77    0.97
   0   1   2    0.30    0.11
   0  -1  -2    0.32    0.10
   0   1   2    0.27    0.04
   0  -1  -2    0.09    0.16
   0  -1  -2    0.03    0.18
   0   1   2    0.35    0.19
   0   1   3    9.22    0.92
   0   1   3    9.13    0.88
   0  -1  -3    8.17    0.86
   0  -1  -3    8.45    0.93
   0   1   3    7.91    0.78
   0  -1  -3    9.37    1.03
   0   1   3    8.40    0.98
   0   1   4    7.05    0.75
   0  -1  -4    7.06    0.71
   0  -1  -4    5.99    0.77
   0  -1  -4    5.74    0.59
   0   1   4    6.29    0.59
   0   1   4    5.45    0.75
   0  -1  -4    5.99    0.86
   0  -1  -5    9.86    1.06
   0   1   5   10.88    1.10
   0   1   5    9.40    0.93
   0   1   5    9.64    1.15
   0  -1  -5    9.80    0.94
   0  -1  -5   10.02    1.14
   0  -1  -5    9.66    1.26
   0   1   6    8.16    0.99
   0  -1  -6    8.47    0.98
   0   1   6    8.03    0.92
   0   1   6    9.72    1.12
   0  -1  -6    8.13    0.84
   0   1   6    8.02    0.83
   0  -1  -6    7.85    1.05
   0  -1  -6    7.32    1.18
   0   1   6    9.83    0.83
   0   1   7    6.71    0.78
   0  -1  -7    4.67    0.72
   0   1   7    5.60    0.67
   0   1   7    5.89    0.87
   0   1   7    5.04    0.55
   0  -1  -7    3.80    0.77
   0   1   7    6.11    0.56
   0  -1  -8    1.03    0.39
   0   1   8    1.22    0.33
   0   1   8    1.37    0.21
   0   1   8    1.92    0.23
   0  -1  -9    1.39    0.44
   0   1   9    1.45    0.45
   0  -1  -9    0.83    0.24
   0   1   9    1.03    0.34
   0   1   9    1.10    0.20
   0   1   9    1.36    0.21
   0   1  10   11.51    1.37
   0  -1 -10   11.02    1.25
   0  -1 -10   10.62    1.42
   0   1  10   13.47    1.20
   0   1  11    1.52    0.48
   0  -1 -11    2.29    0.40
   0  -1 -11    2.75    0.63
   0   1  11    2.56    0.35
   0  -1 -12    6.81    0.80
   0  -1 -12    6.33    1.03
   0  -2  11    4.08    0.83
   0   2 -11    6.34    0.91
   0  -2  11    5.33    0.61
   0   2 -10    0.22    0.25
   0  -2  10    0.30    0.37
   0   2 -10    0.43    0.40
   0  -2  10    0.16    0.19
   0  -2   9    3.92    0.64
   0   2  -9    3.36    0.51
   0   2  -9    4.35    0.70
   0  -2   9    3.75    0.46
   0  -2   8    1.41    0.41
   0   2  -8    2.03    0.47
   0  -2   8    2.19    0.31
   0   2  -7    7.90    0.98
   0  -2   7    7.69    0.98
   0   2  -7    7.29    1.03
   0  -2   7    9.03    0.86
   0   2  -6    3.30    0.52
   0  -2   6    2.77    0.53
   0   2  -6    3.29    0.44
   0  -2   6    2.62    0.48
   0   2  -6    4.41    0.60
   0  -2   6    4.27    0.43
   0   2  -6    3.05    0.74
   0   2  -5    7.30    0.80
   0  -2   5    7.63    0.83
   0  -2   5    6.99    0.68
   0  -2   5    4.12    0.67
   0  -2   5    6.88    0.80
   0   2  -5    7.80    0.77
   0   2  -5    6.23    0.71
   0  -2   5    7.10    0.68
   0   2  -5    7.43    0.84
   0   2  -5    6.86    0.68
   0  -2   5   11.25    0.76
   0   2  -5    9.96    0.99
   0   2  -5    6.00    0.96
   0  -2   4   18.12    1.73
   0  -2   4   10.66    1.61
   0   2  -4   17.96    1.72
   0   2  -4   18.69    1.70
   0  -2   4   18.15    1.73
   0   2  -4   17.78    1.62
   0   2  -4   18.04    1.74
   0  -2   4   17.74    1.62
   0   2  -4   20.77    1.85
   0   2  -4   16.67    1.62
   0   2  -4   17.97    1.89
   0  -2   3    6.90    0.75
   0  -2   3    5.05    0.69
   0   2  -3    7.04    0.74
   0  -2   3    7.27    0.76
   0   2  -3    7.40    0.75
   0   2  -3    7.82    0.77
   0   2  -3    6.44    0.68
   0   2  -3    7.32    0.89
   0  -2   3    9.21    0.71
   0   2  -3    8.12    0.86
   0  -2   2    2.70    0.31
   0   2  -2    1.98    0.29
   0   2  -2    2.43    0.29
   0  -2   2    2.04    0.30
   0  -2   2    2.59    0.32
   0   2  -2    2.72    0.33
   0   2  -2    2.53    0.26
   0   2  -2    2.55    0.25
   0  -2   2    2.32    0.26
   0   2  -2    2.80    0.41
   0   2  -2    2.68    0.40
   0   2  -2    2.55    0.27
   0   2  -1    0.32    0.07
   0  -2   1    0.02    0.07
   0  -2   1    0.40    0.15
   0   2  -1    0.17    0.16
   0   2  -1    0.11    0.14
   0   2  -1    0.30    0.06
   0   2  -1    0.25    0.05
   0   2  -1    0.22    0.09
   0   2  -1    0.40    0.13
   0  -2   1    0.09    0.05
   0   2   0    1.93    0.31
   0   2   0    1.87    0.19
   0  -2   0    1.87    0.19
   0   2   0    1.83    0.19
   0   2   0    1.80    0.25
   0  -2   0    1.97    0.19
   0  -2   0    1.60    0.24
   0   2   0    1.73    0.19
   0  -2   0    1.93    0.19
   0   2   0    2.23    0.30
   0  -2  -1    3.30    0.34
   0   2   1    3.60    0.35
   0   2   1    3.45    0.46
   0   2   1    3.15    0.41
   0   2   1    3.81    0.40
   0  -2  -1    3.24    0.40
   0  -2  -1    3.19    0.32
   0  -2  -2    3.09    0.44
   0   2   2    3.01    0.34
   0   2   2    2.63    0.40
   0  -2  -2    2.60    0.42
   0   2   2    3.18    0.43
   0   2   3    3.01    0.38
   0  -2  -3    2.25    0.44
   0   2   3    3.68    0.52
   0   2   4    0.27    0.17
   0   2   4    0.14    0.22
   0   2   4    0.16    0.05
   0  -2  -4    0.26    0.25
   0   2   4    0.05    0.24
   0   2   5   37.98    3.10
   0   2   5   37.41    3.16
   0  -2  -5   30.18    3.04
   0  -2  -5   29.95    3.13
   0   2   5   30.27    2.91
   0   2   5   31.38    3.17
   0  -2  -5   30.29    3.24
   0   2   6  223.76   19.71
   0  -2  -6  209.71   19.63
   0   2   6  235.36   19.67
   0   2   6  204.72   19.46
   0   2   6  218.99   19.80
   0  -2  -6  215.44   19.74
   0  -2  -6  215.87   19.91
   0   2   7   11.36    1.35
   0  -2  -7   12.31    1.32
   0   2   7   12.22    1.46
   0  -2  -7   10.88    1.40
   0   2   7   11.49    1.11
   0  -2  -8    6.47    0.84
   0   2   8    5.59    0.88
   0   2   8    5.80    0.73
   0   2   8    7.16    1.01
   0   2   8    5.50    0.61
   0   2   8    7.06    0.63
   0  -2  -9    1.15    0.41
   0   2   9    0.88    0.47
   0   2   9    0.90    0.33
   0   2   9    1.40    0.20
   0   2   9    1.04    0.54
   0   2   9    1.51    0.21
   0   2  10    5.21    0.75
   0  -2 -10    5.21    0.65
   0  -2 -10    5.04    0.83
   0   2  10    4.04    0.87
   0   2  10    6.34    0.60
   0  -2 -11    1.20    0.28
   0   2  11    0.45    0.34
   0  -2 -11    1.23    0.50
   0   2  11    0.95    0.21
   0  -2 -12    2.34    0.41
   0  -2 -12    2.81    0.66
   0  -3  11    2.81    0.67
   0   3 -11    4.40    0.75
   0  -3  11    3.24    0.46
   0  -3  10    0.78    0.46
   0   3 -10    1.61    0.52
   0  -3  10    1.62    0.30
   0  -3   9    0.19    0.33
   0   3  -9    0.42    0.36
   0  -3   9    0.22    0.18
   0  -3   8    3.00    0.54
   0   3  -8    2.41    0.41
   0   3  -8    2.71    0.52
   0  -3   8    2.88    0.37
   0   3  -7    4.21    0.61
   0  -3   7    3.51    0.60
   0   3  -7    4.00    0.51
   0   3  -7    3.36    0.61
   0  -3   7    4.16    0.46
   0   3  -6    5.06    0.64
   0  -3   6    4.27    0.69
   0   3  -6    4.95    0.57
   0  -3   6    4.84    0.65
   0   3  -6    5.54    0.70
   0   3  -6    4.14    0.85
   0  -3   6    4.78    0.53
   0  -3   5    0.03    0.22
   0   3  -5   -0.03    0.18
   0   3  -5    0.03    0.18
   0  -3   5    0.16    0.19
   0   3  -5    0.03    0.13
   0   3  -5    0.03    0.22
   0   3  -5    0.05    0.09
   0  -3   5    0.08    0.11
   0   3  -5    0.12    0.36
   0   3  -5    0.04    0.12
   0  -3   4    3.59    0.45
   0   3  -4    2.88    0.40
   0   3  -4    3.37    0.57
   0   3  -4    2.61    0.42
   0  -3   4    3.61    0.46
   0   3  -4    2.89    0.36
   0   3  -4    2.66    0.31
   0   3  -4    3.05    0.34
   0   3  -4    2.89    0.43
   0   3  -4    3.36    0.34
   0   3  -4    2.71    0.33
   0   3  -4    1.86    0.53
   0  -3   4    3.55    0.35
   0   3  -3    4.44    0.48
   0  -3   3    3.75    0.46
   0  -3   3    4.32    0.51
   0   3  -3    3.96    0.45
   0  -3   3    4.38    0.52
   0   3  -3    4.33    0.52
   0   3  -3    4.22    0.43
   0   3  -3    3.98    0.41
   0   3  -3    4.11    0.43
   0   3  -3    3.57    0.60
   0  -3   3    4.44    0.44
   0   3  -3    3.95    0.43
   0   3  -3    4.24    0.63
   0   3  -2    7.43    0.95
   0   3  -2   10.23    0.91
   0  -3   2    8.20    0.95
   0  -3   2    8.64    0.92
   0   3  -2   10.88    0.98
   0  -3   2    9.14    0.95
   0   3  -2    9.90    0.90
   0   3  -2    9.42    0.89
   0   3  -2   10.15    0.94
   0   3  -2    9.06    0.87
   0   3  -2    8.61    1.00
   0  -3   2    9.35    1.05
   0  -3   2    8.33    0.88
   0   3  -2    9.95    1.07
   0   3  -1   59.31    5.64
   0  -3   1   55.70    5.52
   0   3  -1   60.18    5.51
   0  -3   1   53.67    5.60
   0   3  -1   61.84    5.52
   0   3  -1   61.34    5.57
   0  -3   1   59.76    5.50
   0   3  -1   55.93    5.55
   0   3  -1   69.69    5.71
   0  -3   1   61.12    5.52
   0   3   0    4.40    0.58
   0  -3   0    3.22    0.48
   0   3   0    3.85    0.37
   0   3   0    3.96    0.37
   0   3   0    3.96    0.46
   0  -3   0    3.36    0.44
   0  -3   0    3.50    0.37
   0   3   0    4.10    0.53
   0  -3   0    3.63    0.37
   0   3   0    4.10    0.38
   0   3   0    3.68    0.37
   0   3   1    4.81    0.42
   0   3   1    4.77    0.62
   0  -3  -1    3.96    0.40
   0   3   1    4.08    0.39
   0  -3  -1    3.72    0.39
   0   3   1    4.41    0.40
   0   3   1    4.96    0.54
   0  -3  -1    3.47    0.49
   0   3   1    4.52    0.40
   0  -3  -1    4.08    0.47
   0  -3  -1    3.67    0.40
   0   3   2    6.40    0.78
   0  -3  -2    5.87    0.75
   0  -3  -2    5.60    0.60
   0   3   2    7.31    0.64
   0  -3  -2    5.93    0.56
   0   3   2    6.68    0.57
   0  -3  -2    5.21    0.56
   0   3   2    6.71    0.74
   0  -3  -2    5.68    0.71
   0  -3  -3    5.01    0.50
   0   3   3    4.71    0.51
   0  -3  -3    3.81    0.43
   0  -3  -3    4.05    0.60
   0   3   3    4.23    0.60
   0   3   3    4.00    0.60
   0  -3  -3    5.29    0.67
   0   3   4    3.41    0.46
   0   3   4    4.08    0.60
   0  -3  -4    3.22    0.43
   0  -3  -4    2.96    0.56
   0  -3  -4    3.93    0.65
   0   3   5    2.35    0.46
   0   3   5    2.29    0.37
   0  -3  -5    2.15    0.46
   0   3   5    1.69    0.19
   0   3   6    2.43    0.45
   0   3   6    3.22    0.57
   0   3   6    1.71    0.49
   0  -3  -6    2.03    0.54
   0   3   6    2.44    0.26
   0   3   7    0.06    0.36
   0   3   7    0.42    0.39
   0  -3  -7   -0.06    0.34
   0   3   7    0.14    0.07
   0   3   8    0.86    0.45
   0  -3  -8    0.62    0.33
   0   3   8    0.89    0.14
   0   3   8    0.62    0.51
   0  -3  -9   10.56    1.23
   0   3   9    8.59    1.30
   0   3   9   10.00    1.12
   0   3   9    9.08    0.96
   0   3   9   12.58    1.51
   0   3   9   11.21    0.99
   0  -3 -10    3.48    0.60
   0   3  10    2.06    0.45
   0  -3 -10    1.48    0.34
   0   3  10    2.32    0.75
   0   3  10    2.49    0.30
   0   3  10    3.36    0.33
   0   3  11    0.85    0.39
   0  -3 -11    0.82    0.27
   0  -3 -11    0.79    0.44
   0   3  11    1.48    0.22
   0  -3 -12    0.51    0.26
   0   3  12   -0.05    0.36
   0  -3 -12    0.94    0.52
   0  -3 -13    0.28    0.25
   0  -4  10    1.41    0.32
   0   4  -9    3.46    0.51
   0  -4   9    2.55    0.63
   0   4  -9    4.09    0.64
   0  -4   9    3.67    0.46
   0   4  -8   32.96    3.50
   0  -4   8   33.93    3.62
   0   4  -8   37.69    3.61
   0  -4   8   39.58    3.46
   0  -4   7   13.44    1.49
   0   4  -7   13.05    1.37
   0   4  -7   13.76    1.45
   0  -4   7   13.38    1.32
   0  -4   6    1.16    0.36
   0   4  -6    1.39    0.33
   0   4  -6    1.08    0.27
   0  -4   6    1.31    0.35
   0   4  -6    1.59    0.35
   0   4  -6    1.82    0.61
   0  -4   6    1.39    0.23
   0  -4   5    0.62    0.29
   0   4  -5    0.33    0.19
   0   4  -5    0.26    0.16
   0  -4   5    0.48    0.24
   0   4  -5    0.24    0.23
   0  -4   5    0.67    0.16
   0   4  -5    0.12    0.35
   0  -4   4    0.63    0.23
   0   4  -4    0.80    0.20
   0  -4   4    0.95    0.26
   0   4  -4    0.93    0.26
   0   4  -4    0.65    0.17
   0   4  -4    1.05    0.26
   0   4  -4    0.70    0.21
   0   4  -4    0.68    0.14
   0  -4   4    0.68    0.15
   0   4  -4    0.84    0.36
   0  -4   3    5.67    0.65
   0   4  -3    5.97    0.62
   0   4  -3    4.36    0.64
   0  -4   3    5.22    0.63
   0   4  -3    5.99    0.68
   0   4  -3    5.68    0.61
   0   4  -3    5.60    0.64
   0   4  -3    6.10    0.59
   0   4  -3    6.09    0.57
   0   4  -3    6.37    0.60
   0  -4   3    5.42    0.59
   0   4  -3    5.82    0.76
   0   4  -3    5.69    0.81
   0  -4   2    9.56    1.07
   0  -4   2   10.39    1.13
   0   4  -2   10.30    1.16
   0   4  -2   11.08    1.04
   0   4  -2   13.56    1.16
   0   4  -2   11.29    1.05
   0   4  -2   10.60    1.02
   0   4  -2   12.05    1.11
   0  -4   2    9.70    1.04
   0  -4   2   10.94    1.25
   0   4  -2   12.06    1.29
   0   4  -2   10.69    1.14
   0   4  -1   12.17    1.41
   0  -4   1   12.71    1.37
   0   4  -1   12.87    1.22
   0   4  -1   13.46    1.24
   0   4  -1   13.49    1.32
   0  -4   1   13.22    1.23
   0   4  -1   11.67    1.23
   0   4  -1   14.42    1.26
   0   4  -1   14.72    1.46
   0  -4   1   13.27    1.43
   0   4   0    5.11    0.70
   0  -4   0    4.07    0.60
   0   4   0    4.57    0.46
   0   4   0    4.42    0.45
   0  -4   0    4.66    0.56
   0  -4   0    5.25    0.46
   0   4   0    4.63    0.56
   0   4   0    4.42    0.45
   0   4   0    5.83    0.67
   0  -4   0    4.74    0.46
   0  -4   0    4.63    0.64
   0   4   0    4.46    0.47
   0   4   0    4.14    0.45
   0  -4  -1    2.81    0.30
   0   4   1    3.63    0.58
   0  -4  -1    2.93    0.48
   0  -4  -1    3.00    0.30
   0   4   1    3.09    0.30
   0   4   1    3.22    0.31
   0  -4  -1    3.22    0.46
   0   4   1    2.85    0.45
   0   4   1    3.34    0.47
   0   4   1    3.38    0.31
   0  -4  -1    2.37    0.36
   0  -4  -1    2.70    0.31
   0  -4  -1    3.39    0.50
   0  -4  -2   43.19    4.01
   0   4   2   52.20    4.30
   0   4   2   47.84    4.04
   0   4   2   45.22    3.97
   0  -4  -2   41.72    3.96
   0  -4  -2   41.45    4.14
   0   4   2   48.03    4.18
   0  -4  -2   37.30    4.10
   0  -4  -2   46.10    4.18
   0  -4  -2   40.62    3.98
   0  -4  -3    0.95    0.20
   0   4   3    1.73    0.27
   0  -4  -3    1.33    0.37
   0   4   3    2.13    0.50
   0  -4  -3    1.27    0.14
   0   4   3    1.60    0.36
   0  -4  -3    1.77    0.40
   0   4   4    9.95    1.06
   0  -4  -4   10.79    1.04
   0  -4  -4    9.53    0.96
   0   4   4    8.98    1.17
   0  -4  -4   11.17    1.25
   0   4   5   11.65    1.38
   0   4   5   11.33    1.23
   0  -4  -5   11.98    1.21
   0  -4  -5   11.27    1.34
   0   4   5    9.67    1.34
   0  -4  -5   11.80    1.43
   0   4   6    0.67    0.40
   0   4   6    0.88    0.29
   0  -4  -6    0.65    0.24
   0   4   6    0.58    0.10
   0  -4  -6    0.65    0.40
   0  -4  -6    1.00    0.47
   0   4   7    2.03    0.57
   0  -4  -7    2.21    0.43
   0   4   7    1.85    0.21
   0   4   7    1.95    0.56
   0   4   8    3.80    0.77
   0   4   8    3.00    0.32
   0   4   9   11.98    1.15
   0   4   9   13.34    1.67
   0   4  10    1.82    0.23
   0   4  10    2.57    0.78
   0  -4 -11    0.97    0.47
   0  -4 -11    0.69    0.24
   0   4  11    0.98    0.36
   0   4  11    0.85    0.62
   0   4  11    1.19    0.21
   0   4  12   -0.09    0.34
   0  -4 -12    0.22    0.21
   0  -4 -12    0.80    0.46
   0  -4 -13    5.83    0.70
   0  -5   9    1.34    0.30
   0   5  -8    2.50    0.43
   0   5  -8    2.44    0.49
   0  -5   8    2.11    0.36
   0   5  -7    6.71    0.79
   0   5  -7    7.87    0.86
   0  -5   7    6.56    0.74
   0   5  -6    2.40    0.38
   0  -5   6    2.16    0.47
   0   5  -6    2.74    0.43
   0  -5   6    2.35    0.34
   0  -5   5    7.18    1.01
   0   5  -5    9.91    0.99
   0   5  -5    9.69    0.97
   0   5  -5   10.39    0.99
   0   5  -5   10.44    1.00
   0   5  -5    9.16    1.21
   0  -5   5    7.93    0.92
   0  -5   4    1.09    0.32
   0   5  -4    1.76    0.28
   0   5  -4    1.93    0.28
   0   5  -4    2.04    0.32
   0  -5   4    1.54    0.25
   0   5  -4    1.74    0.46
   0   5  -3    1.54    0.22
   0  -5   3    1.55    0.28
   0  -5   3    0.97    0.24
   0   5  -3    1.32    0.22
   0   5  -3    1.16    0.31
   0   5  -3    1.25    0.26
   0   5  -3    1.24    0.35
   0  -5   3    1.67    0.22
   0   5  -2   20.25    1.89
   0   5  -2   19.00    2.06
   0  -5   2   18.32    2.00
   0   5  -2   19.68    1.91
   0   5  -2   23.95    2.04
   0   5  -2   22.69    1.99
   0   5  -2   19.98    1.88
   0   5  -2   22.87    2.20
   0   5  -2   18.35    1.89
   0  -5   2   20.00    2.14
   0   5  -2   20.53    1.97
   0  -5   1   12.58    1.46
   0   5  -1   12.58    1.53
   0   5  -1   14.21    1.32
   0  -5   1   13.93    1.31
   0   5  -1   14.85    1.43
   0  -5   1   13.57    1.41
   0   5  -1   13.32    1.31
   0   5  -1   13.92    1.56
   0  -5   1   12.57    1.53
   0   5  -1   12.93    1.31
   0   5  -1   16.28    1.35
   0   5   0    2.55    0.47
   0  -5   0    2.69    0.45
   0  -5   0    2.15    0.44
   0   5   0    1.98    0.51
   0   5   0    2.02    0.24
   0   5   0    2.14    0.24
   0   5   0    2.47    0.38
   0   5   0    1.97    0.23
   0  -5   0    2.32    0.24
   0  -5   0    2.47    0.37
   0   5   0    2.01    0.24
   0   5   0    2.00    0.25
   0  -5   0    2.14    0.25
   0   5   1    3.42    0.64
   0  -5  -1    4.16    0.59
   0   5   1    3.25    0.52
   0   5   1    3.01    0.33
   0   5   1    3.03    0.50
   0   5   1    3.17    0.33
   0   5   1    3.08    0.33
   0  -5  -1    3.29    0.49
   0   5   1    3.21    0.34
   0   5   1    3.25    0.35
   0  -5  -1    3.89    0.35
   0  -5  -1    4.62    0.63
   0   5   2   24.99    2.17
   0   5   2   26.93    2.49
   0  -5  -2   24.61    2.41
   0  -5  -2   21.60    2.13
   0  -5  -2   22.46    2.10
   0   5   2   22.46    2.10
   0  -5  -2   20.97    2.29
   0   5   2   23.64    2.33
   0  -5  -2   19.68    2.24
   0  -5  -2   24.46    2.37
   0  -5  -2   22.95    2.12
   0  -5  -3    1.39    0.21
   0   5   3    1.69    0.27
   0   5   3    1.83    0.51
   0   5   3    1.53    0.17
   0  -5  -3    1.20    0.14
   0   5   3    1.12    0.37
   0  -5  -3    1.29    0.16
   0  -5  -3    1.11    0.35
   0  -5  -3    1.24    0.16
   0  -5  -3    1.40    0.40
   0  -5  -4   12.59    1.28
   0   5   4   12.32    1.52
   0   5   4   13.87    1.32
   0  -5  -4   12.81    1.18
   0  -5  -4   12.10    1.20
   0   5   4   11.95    1.47
   0  -5  -4   11.89    1.47
   0   5   5  252.11   20.41
   0  -5  -5  217.60   20.36
   0  -5  -5  212.77   20.24
   0   5   5  223.48   20.59
   0  -5  -5  213.27   20.61
   0   5   6    3.47    0.71
   0  -5  -6    3.13    0.48
   0   5   6    3.69    0.54
   0  -5  -6    2.93    0.39
   0   5   6    4.05    0.71
   0  -5  -6    3.38    0.74
   0  -5  -7    1.62    0.39
   0   5   7    1.85    0.20
   0  -5  -8    0.73    0.33
   0   5   8    1.03    0.56
   0   5   8    0.96    0.13
   0  -5  -9    5.50    0.82
   0   5   9    5.65    0.56
   0   5   9    5.96    1.13
   0  -5 -10    0.05    0.31
   0   5  10    0.52    0.11
   0   5  10    0.63    0.58
   0   5  11    1.13    0.76
   0  -5 -11    0.69    0.22
   0   5  12    1.67    0.86
   0  -5 -12    1.81    0.32
   0   5  12    1.18    0.46
   0  -5 -13    0.19    0.22
   0   6  -8    2.38    0.44
   0   6  -7    2.89    0.45
   0   6  -6    8.61    0.98
   0   6  -6    9.87    1.02
   0   6  -5    1.42    0.29
   0   6  -5    2.01    0.32
   0   6  -4    0.89    0.21
   0   6  -4    1.02    0.23
   0   6  -4    1.32    0.27
   0   6  -4    1.29    0.28
   0   6  -4    0.84    0.36
   0   6  -3    1.96    0.24
   0   6  -3    1.55    0.40
   0   6  -3    1.48    0.25
   0   6  -3    1.26    0.30
   0   6  -3    1.66    0.34
   0   6  -2  283.90   27.26
   0  -6   2  285.02   27.20
   0   6  -2  282.45   27.00
   0   6  -2  305.41   27.06
   0   6  -2  334.60   27.16
   0  -6   2  336.80   27.40
   0   6  -1   30.22    2.90
   0  -6   1   25.01    2.76
   0   6  -1   27.80    2.59
   0   6  -1   27.34    2.58
   0   6  -1   29.01    2.72
   0  -6   1   29.21    2.58
   0   6  -1   25.09    2.58
   0   6  -1   29.44    2.90
   0  -6   1   28.22    2.89
   0  -6   0    2.14    0.44
   0   6   0    1.71    0.46
   0  -6   0    2.02    0.47
   0   6   0    1.97    0.32
   0   6   0    1.56    0.50
   0   6   0    1.83    0.22
   0   6   0    1.61    0.21
   0   6   0    1.80    0.37
   0  -6   0    1.76    0.22
   0  -6   0    1.87    0.36
   0   6   0    1.49    0.21
   0   6   0    1.64    0.22
   0   6   0    1.76    0.24
   0  -6   0    2.48    0.25
   0   6   1    7.66    1.02
   0  -6  -1    5.87    0.84
   0   6   1    5.54    0.57
   0   6   1    6.09    0.58
   0  -6  -1    5.33    0.74
   0   6   1    6.59    0.80
   0   6   1    5.29    0.57
   0  -6  -1    6.16    0.59
   0   6   1    5.56    0.60
   0  -6  -1    5.42    0.84
   0   6   1    6.13    0.58
   0   6   1    7.07    0.85
   0  -6  -2   17.79    2.01
   0  -6  -2   17.90    1.70
   0   6   2   20.06    2.11
   0   6   2   18.82    1.69
   0  -6  -2   16.75    1.89
   0   6   2   17.83    1.70
   0   6   2   19.99    1.97
   0   6   2   17.58    1.69
   0  -6  -2   21.36    2.05
   0  -6  -2   16.04    1.81
   0  -6  -2   17.91    1.71
   0  -6  -3    0.38    0.12
   0  -6  -3    0.60    0.39
   0   6   3    0.51    0.48
   0  -6  -3    0.28    0.28
   0   6   3    0.46    0.18
   0   6   3    0.41    0.09
   0  -6  -3    0.23    0.06
   0  -6  -3    0.21    0.09
   0  -6  -3    0.18    0.28
   0   6   3    0.95    0.39
   0  -6  -3    0.27    0.09
   0  -6  -3    0.26    0.27
   0   6   4    3.32    0.74
   0   6   4    4.37    0.53
   0  -6  -4    3.25    0.44
   0  -6  -4    3.80    0.35
   0  -6  -4    3.09    0.61
   0  -6  -4    3.45    0.38
   0   6   4    4.68    0.72
   0  -6  -4    3.02    0.63
   0  -6  -4    3.36    0.38
   0   6   5   19.33    1.77
   0  -6  -5   16.35    1.69
   0  -6  -5   17.22    1.57
   0   6   5   15.12    1.90
   0  -6  -5   15.33    1.86
   0  -6  -5   16.06    1.59
   0  -6  -5   15.64    1.91
   0   6   6    7.35    0.81
   0  -6  -6    4.56    0.67
   0  -6  -6    5.50    0.57
   0   6   6    6.54    0.97
   0  -6  -6    6.02    1.00
   0  -6  -7    0.07    0.21
   0   6   7    0.25    0.43
   0   6   7    0.19    0.08
   0  -6  -7    0.13    0.14
   0  -6  -8   11.45    1.29
   0   6   8   11.34    1.06
   0  -6  -8   10.75    1.15
   0  -6  -9    3.02    0.56
   0   6   9    4.03    0.88
   0   6   9    2.74    0.29
   0  -6 -10   10.25    1.29
   0   6  10   10.55    1.00
   0  -6 -11    3.66    0.69
   0  -6 -11    3.33    0.44
   0  -6 -12    1.82    0.58
   0   6  12    2.77    1.03
   0  -6 -12    2.76    0.38
   0   7  -7    0.76    0.30
   0   7  -6    5.09    0.64
   0   7  -5    0.21    0.21
   0   7  -4    1.14    0.26
   0   7  -3    4.91    0.47
   0   7  -3    4.48    0.53
   0   7  -3    3.13    0.65
   0   7  -3    4.51    0.58
   0   7  -2    0.46    0.16
   0   7  -2    0.44    0.25
   0  -7   2    1.09    0.45
   0  -7   1    7.29    1.07
   0   7  -1    9.03    0.89
   0   7  -1   10.54    1.06
   0  -7   1    8.87    0.88
   0  -7   1    8.51    1.20
   0  -7   0    4.71    0.78
   0   7   0    5.13    0.53
   0   7   0    5.33    0.91
   0  -7   0    5.21    0.53
   0   7   0    5.25    0.72
   0  -7   0    4.21    0.66
   0  -7   0    5.81    0.87
   0  -7   0    5.50    0.56
   0  -7  -1    2.37    0.56
   0  -7  -1    2.43    0.59
   0   7   1    3.55    0.62
   0   7   1    3.27    0.32
   0   7   1    2.97    0.74
   0  -7  -1    1.75    0.45
   0   7   1    2.78    0.32
   0   7   1    3.35    0.57
   0   7   1    3.16    0.33
   0  -7  -1    2.53    0.33
   0   7   2    0.41    0.43
   0  -7  -2    0.48    0.35
   0  -7  -2    0.34    0.33
   0  -7  -2    0.22    0.07
   0   7   2    0.17    0.08
   0  -7  -2    0.18    0.28
   0   7   2    0.17    0.08
   0   7   2    0.16    0.30
   0  -7  -2    0.47    0.11
   0   7   2    0.24    0.11
   0   7   2    0.31    0.12
   0  -7  -3    3.02    0.67
   0  -7  -3    3.59    0.42
   0   7   3    3.23    0.81
   0   7   3    3.80    0.48
   0   7   3    4.07    0.39
   0   7   3    3.47    0.38
   0  -7  -3    3.48    0.63
   0   7   3    4.67    0.72
   0  -7  -3    3.93    0.40
   0  -7  -3    3.88    0.40
   0  -7  -3    3.60    0.59
   0  -7  -4   10.75    1.16
   0   7   4   14.29    1.28
   0  -7  -4   11.10    1.07
   0   7   4   15.30    1.54
   0  -7  -4   11.81    1.11
   0  -7  -4   10.12    1.36
   0  -7  -4   13.59    1.49
   0  -7  -4   12.21    1.11
   0  -7  -4   11.60    1.40
   0  -7  -5    1.01    0.23
   0   7   5    1.15    0.34
   0  -7  -5    1.00    0.11
   0   7   5    0.80    0.47
   0  -7  -5    0.68    0.15
   0  -7  -5    0.77    0.45
   0  -7  -5    0.86    0.14
   0  -7  -6    2.15    0.37
   0   7   6    2.20    0.47
   0  -7  -6    2.23    0.23
   0   7   6    2.65    0.66
   0  -7  -6    2.12    0.27
   0  -7  -6    2.24    0.26
   0  -7  -6    1.06    0.58
   0  -7  -7    0.78    0.28
   0   7   7    0.79    0.52
   0  -7  -7    0.80    0.14
   0  -7  -8   16.90    1.78
   0   7   8   19.21    2.17
   0   7   8   15.60    1.56
   0  -7  -8   20.83    1.63
   0  -7  -9    2.02    0.42
   0   7   9    1.40    0.16
   0  -7  -9    1.30    0.28
   0  -7 -10    9.12    1.14
   0   7  10   10.73    1.57
   0  -7 -10    8.69    0.89
   0  -7 -11   61.81    5.76
   0  -7 -11   56.17    5.47
   0  -7 -12    0.13    0.42
   0   7  12    1.19    0.90
   0   8  -6    0.72    0.28
   0   8  -5    1.81    0.35
   0   8  -4    1.03    0.25
   0   8  -3    3.54    0.45
   0   8  -2    0.06    0.43
   0   8  -2    0.01    0.14
   0   8  -2    0.10    0.26
   0  -8   2    0.31    0.44
   0  -8   1    2.68    0.66
   0   8  -1    2.34    0.49
   0   8  -1    2.19    0.66
   0   8  -1    2.69    0.33
   0  -8   0    4.42    0.82
   0   8   0    4.57    0.49
   0   8   0    3.18    0.86
   0  -8   0    3.21    0.61
   0  -8   0    4.79    0.49
   0  -8  -1    1.16    0.53
   0   8   1    2.73    0.75
   0   8   1    1.94    0.23
   0  -8  -1    1.87    0.44
   0   8   1    1.73    0.49
   0  -8  -1    1.77    0.26
   0  -8  -2    0.39    0.40
   0   8   2    0.59    0.12
   0   8   2    0.43    0.12
   0   8   2    0.88    0.41
   0  -8  -2    0.69    0.38
   0   8   2    0.47    0.14
   0  -8  -2    0.95    0.16
   0  -8  -3    7.40    0.74
   0   8   3    7.89    0.73
   0  -8  -3    7.84    0.75
   0  -8  -3    5.89    0.98
   0   8   3    8.23    1.11
   0   8   3    6.72    0.72
   0  -8  -3    7.74    1.13
   0  -8  -3    7.76    0.75
   0  -8  -4  116.24   12.11
   0   8   4  164.99   12.23
   0  -8  -4  132.26   12.08
   0   8   4  155.16   12.56
   0   8   4  123.59   12.06
   0  -8  -4  108.17   12.30
   0  -8  -4  142.54   12.08
   0  -8  -4  141.91   12.55
   0   8   5   14.78    1.39
   0  -8  -5   11.55    1.26
   0   8   5   13.11    1.63
   0  -8  -5   11.68    1.19
   0  -8  -5   13.09    1.60
   0  -8  -5   13.23    1.20
   0  -8  -5    9.45    1.48
   0  -8  -6    5.07    0.66
   0   8   6    5.68    0.79
   0   8   6    5.37    0.98
   0  -8  -6    5.18    0.56
   0  -8  -6    5.98    0.56
   0  -8  -6    3.81    0.90
   0  -8  -7    0.42    0.26
   0  -8  -7    0.60    0.09
   0  -8  -7    0.30    0.15
   0   8   7    0.28    0.53
   0  -8  -7    0.66    0.14
   0  -8  -8   10.10    1.33
   0  -8  -8   12.25    1.20
   0   8   8   12.36    1.72
   0  -8  -8   12.62    1.16
   0  -8  -9    0.67    0.31
   0   8   9    0.51    0.07
   0   8   9    1.00    0.64
   0  -8  -9    0.51    0.13
   0  -8 -10    1.67    0.45
   0  -8 -10    1.09    0.19
   0  -8 -11    1.41    0.51
   0   8  11    0.78    0.74
   0  -8 -12    0.06    0.40
   0   8  12    0.55    0.72
   0   9  -5    0.60    0.31
   0   9  -4    2.35    0.39
   0   9  -3    1.93    0.33
   0   9  -2    0.69    0.20
   0  -9   2    0.86    0.53
   0  -9   1   -0.34    0.53
   0   9  -1    0.48    0.33
   0   9  -1    0.01    0.15
   0  -9   0    0.59    0.51
   0   9   0    0.65    0.16
   0  -9   0    0.37    0.16
   0   9   0    0.72    0.40
   0  -9   0    0.57    0.32
   0  -9  -1    4.25    0.89
   0   9   1    3.77    0.46
   0  -9  -1    4.28    0.69
   0   9   1    5.01    0.78
   0  -9  -1    4.55    0.49
   0  -9  -1    5.39    0.53
   0  -9  -2    2.03    0.67
   0   9   2    2.97    0.32
   0   9   2    2.75    0.65
   0  -9  -2    2.09    0.55
   0  -9  -2    2.81    0.35
   0  -9  -3    3.56    0.34
   0  -9  -3    3.77    0.81
   0   9   3    3.31    0.35
   0  -9  -3    3.36    0.38
   0   9   3    2.91    0.71
   0   9   3    2.86    0.35
   0  -9  -3    1.68    0.42
   0  -9  -3    3.80    0.39
   0  -9  -4    4.36    0.87
   0  -9  -4    4.70    0.49
   0   9   4    4.59    0.44
   0  -9  -4    4.21    0.46
   0   9   4    4.74    0.90
   0   9   4    3.61    0.43
   0  -9  -4    4.58    0.46
   0  -9  -4    2.83    0.64
   0  -9  -5    0.09    0.48
   0  -9  -5    0.33    0.17
   0  -9  -5    0.50    0.15
   0   9   5    0.94    0.54
   0   9   5    0.50    0.11
   0  -9  -5    0.28    0.42
   0  -9  -5    0.43    0.13
   0  -9  -6    0.72    0.53
   0  -9  -6    0.63    0.23
   0   9   6    0.65    0.36
   0   9   6    1.12    0.59
   0  -9  -6    0.53    0.16
   0   9   6    0.67    0.12
   0  -9  -6    0.17    0.50
   0  -9  -6    0.79    0.15
   0  -9  -7    3.37    0.52
   0  -9  -7    3.43    0.41
   0   9   7    3.93    0.93
   0   9   7    3.18    0.35
   0  -9  -7    4.79    0.41
   0  -9  -8    0.41    0.28
   0  -9  -8    0.66    0.19
   0   9   8    0.87    0.66
   0  -9  -8    0.75    0.16
   0  -9  -9    1.11    0.40
   0  -9  -9    1.52    0.26
   0  -9  -9    1.62    0.24
   0  -9 -10    0.10    0.31
   0  -9 -10    0.14    0.18
   0   9  10    0.38    0.72
   0  -9 -11    0.38    0.39
   0  -9 -11    0.60    0.22
   0  -9 -12    1.16    0.47
   0  -9 -12    0.79    0.24
   0  10  -5    1.62    0.42
   0  10  -4    0.87    0.34
   0  10  -3    9.17    0.98
   0  10  -2    2.19    0.35
   0 -10   2    2.08    0.74
   0  10  -1    1.55    0.27
   0 -10   1    1.68    0.66
   0 -10   0    7.41    1.37
   0  10   0   11.49    1.29
   0 -10   0   10.42    0.98
   0  10   0    9.11    0.97
   0 -10  -1    0.76    0.57
   0  10   1    0.71    0.18
   0 -10  -1    0.35    0.35
   0 -10  -1    0.91    0.21
   0  10   1    0.57    0.45
   0 -10  -2    0.39    0.50
   0  10   2    0.45    0.14
   0  10   2    0.36    0.49
   0 -10  -2    0.77    0.21
   0  10   3   10.59    1.06
   0  10   3   10.34    1.46
   0 -10  -3   11.12    1.09
   0 -10  -3    9.47    1.51
   0 -10  -3   11.88    1.10
   0 -10  -4    0.51    0.15
   0 -10  -4    0.71    0.54
   0 -10  -4    0.67    0.17
   0  10   4   -0.26    0.48
   0 -10  -4    0.72    0.17
   0 -10  -5    0.21    0.16
   0 -10  -5   -0.20    0.54
   0  10   5    0.74    0.61
   0 -10  -5    0.83    0.17
   0  10   5    0.43    0.12
   0 -10  -5    0.65    0.16
   0 -10  -5    0.38    0.46
   0 -10  -6    1.12    0.64
   0 -10  -6    1.18    0.28
   0 -10  -6    1.34    0.22
   0  10   6    1.01    0.17
   0  10   6    1.40    0.65
   0 -10  -6    1.51    0.21
   0 -10  -6    0.57    0.50
   0 -10  -7    6.42    1.17
   0 -10  -7    4.78    0.73
   0 -10  -7    5.94    0.66
   0  10   7    6.86    1.22
   0 -10  -7    7.39    0.66
   0 -10  -8    1.95    0.73
   0 -10  -8    1.27    0.38
   0  10   8    0.92    0.68
   0 -10  -8    1.86    0.28
   0 -10  -8    2.02    0.26
   0 -10  -9    0.37    0.33
   0  10   9    1.11    0.76
   0 -10  -9    0.29    0.18
   0 -10 -10    0.90    0.39
   0 -10 -10    0.70    0.22
   0  10  10    1.87    0.93
   0 -10 -11    1.75    0.52
   0 -10 -11    2.38    0.33
   0 -10 -12    2.24    0.59
   0 -10 -12    1.96    0.32
   0  11  -4    2.05    0.45
   0  11  -3    3.61    0.50
   0  11  -2    0.52    0.24
   0 -11   2   -0.10    0.65
   0  11  -1    0.78    0.23
   0 -11   1    1.02    0.66
   0 -11   0    2.76    0.86
   0 -11  -1    0.93    0.64
   0 -11  -1    1.53    0.27
   0 -11  -2    2.66    0.86
   0  11   2    2.97    0.74
   0 -11  -3   48.80    4.80
   0  11   3   51.43    5.25
   0 -11  -3   55.46    4.83
   0 -11  -3   47.09    5.34
   0 -11  -4    4.58    1.02
   0 -11  -4    4.30    0.52
   0  11   4    3.84    0.99
   0 -11  -4    5.17    0.54
   0 -11  -5    0.57    0.65
   0 -11  -5    0.33    0.16
   0 -11  -5    0.41    0.18
   0  11   5    1.19    0.70
   0 -11  -5    0.59    0.18
   0 -11  -6    3.44    0.96
   0 -11  -6    2.45    0.43
   0  11   6    4.25    1.01
   0 -11  -6    3.18    0.40
   0 -11  -6    3.74    0.40
   0 -11  -7    4.92    0.63
   0 -11  -7    4.26    1.07
   0  11   7    7.05    1.25
   0 -11  -7    4.83    0.55
   0 -11  -8    0.40    0.25
   0 -11  -8    0.23    0.62
   0  11   8    0.24    0.65
   0 -11  -8    0.26    0.18
   0 -11  -9    1.88    0.43
   0 -11  -9    1.21    0.77
   0 -11  -9    1.87    0.30
   0  11   9    2.60    0.94
   0 -11 -10    1.90    0.52
   0 -11 -10    2.69    0.35
   0 -11 -11    0.26    0.37
   0 -11 -11    0.22    0.20
   0 -11 -12    0.28    0.21
   0 -12   1    0.65    0.68
   0 -12   0    4.91    1.13
   0 -12  -1   -0.22    0.66
   0 -12  -1    0.04    0.20
   0 -12  -2    1.60    0.77
   0 -12  -3    3.52    1.08
   0 -12  -3    4.85    0.56
   0 -12  -4    3.01    0.94
   0 -12  -4    1.89    0.32
   0  12   4    2.53    0.84
   0 -12  -4    2.40    0.35
   0 -12  -5    0.12    0.67
   0 -12  -5    0.23    0.19
   0  12   5    0.31    0.69
   0 -12  -5    0.38    0.20
   0 -12  -6    5.17    1.29
   0 -12  -6    7.55    0.79
   0 -12  -7    0.13    0.68
   0 -12  -7    0.21    0.19
   0  12   7   -0.24    0.75
   0 -12  -8    3.99    1.15
   0 -12  -8    5.19    0.58
   0  12   8    5.75    1.25
   0 -12  -9    4.29    1.15
   0 -12  -9    4.74    0.54
   0  12   9    4.79    1.27
   0 -12 -10    0.89    0.23
   0 -13  -1    0.94    0.78
   0 -13  -2    5.98    1.26
   0 -13  -3    1.37    0.80
   0 -13  -4    0.64    0.72
   0 -13  -5    1.58    0.81
   0 -13  -5    1.54    0.31
   0  13   5    2.20    0.96
   0 -13  -6    4.86    1.24
   0  13   6    6.39    1.31
   0 -13  -6    6.18    0.67
   0 -13  -7   -0.14    0.69
   0 -13  -7    0.45    0.22
   0  13   7    0.38    0.83
   0 -13  -8    2.50    0.99
   0  14   6    4.57    1.21
   1 -13  -7    1.63    0.30
  -1  13   7    1.44    0.92
   1 -13  -6   23.55    2.29
   1 -13  -6   20.76    2.97
   1 -13  -5    1.82    0.95
  -1  13   5    1.05    0.81
   1 -13  -5    1.58    0.30
   1 -13  -4    1.51    0.92
  -1  13   4    1.20    0.77
   1 -13  -4    0.24    0.24
   1 -13  -3    0.93    0.80
   1 -13  -3    1.56    0.35
   1 -13  -2    2.20    0.88
   1 -12 -10    6.60    0.70
   1 -12  -9    0.17    0.18
   1 -12  -8    1.22    0.89
   1 -12  -8    2.00    0.31
  -1  12   8    1.19    0.89
   1 -12  -7    0.27    0.72
  -1  12   7    1.13    0.76
   1 -12  -7    0.62    0.21
   1 -12  -6    5.03    1.21
  -1  12   6    4.61    1.11
   1 -12  -6    4.40    0.52
   1 -12  -6    4.67    0.53
   1 -12  -5    1.44    0.87
   1 -12  -5    2.43    0.37
  -1  12   5    4.01    1.06
   1 -12  -5    3.24    0.39
  -1  12   4   -0.21    0.64
   1 -12  -4    0.23    0.20
   1 -12  -4    0.03    0.20
   1 -12  -3    1.50    0.75
   1 -12  -3    2.28    0.34
  -1  12   3    2.55    0.84
   1 -12  -3    2.53    0.38
   1 -12  -2    1.59    0.80
   1 -12  -2    1.83    0.30
  -1  12   2    2.36    0.78
   1 -12  -2    1.91    0.38
   1 -12  -1    2.13    0.82
   1 -12   0    0.35    0.72
   1 -12   1    1.16    0.80
   1 -11 -11    0.53    0.40
   1 -11 -11    0.40    0.20
   1 -11 -10    5.23    0.84
   1 -11 -10    6.24    0.65
   1 -11  -9    0.12    0.28
   1 -11  -9    0.13    0.73
   1 -11  -9   -0.01    0.17
  -1  11   9    0.40    0.75
   1 -11  -8    0.53    0.32
   1 -11  -8    0.50    0.64
   1 -11  -8    0.66    0.20
  -1  11   8    1.38    0.85
   1 -11  -7    4.62    0.65
   1 -11  -7    5.37    1.14
  -1  11   7    5.46    1.18
   1 -11  -7    4.53    0.55
   1 -11  -7    6.01    0.58
   1 -11  -6    1.84    0.79
   1 -11  -6    2.14    0.38
  -1  11   6    3.02    0.90
   1 -11  -6    1.90    0.31
   1 -11  -6    2.84    0.33
   1 -11  -5    0.84    0.69
  -1  11   5    1.58    0.79
   1 -11  -5    1.30    0.25
   1 -11  -5    1.50    0.25
   1 -11  -4    9.17    1.68
   1 -11  -4   11.27    1.15
  -1  11   4   13.19    1.71
   1 -11  -4   12.16    1.17
   1 -11  -3    5.02    1.12
   1 -11  -3    5.36    0.58
  -1  11   3    5.23    1.06
   1 -11  -3    5.06    0.59
   1 -11  -2    0.91    0.66
  -1  11   2    0.34    0.53
   1 -11  -2    1.04    0.23
   1 -11  -2    1.36    0.27
  -1  11   1   13.19    1.61
   1 -11  -1   11.11    1.18
   1 -11  -1   13.08    1.24
   1 -11  -1   11.10    1.70
   1 -11   0   72.47    7.33
   1 -11   1    0.87    0.68
   1 -11   2    1.52    0.75
   1 -10 -11    0.71    0.42
   1 -10 -11    1.05    0.23
   1 -10 -10    1.55    0.48
  -1  10  10    0.67    0.85
   1 -10 -10    1.63    0.26
   1 -10  -9    0.64    0.36
  -1  10   9    0.63    0.77
   1 -10  -9    0.53    0.19
   1 -10  -8    1.91    0.45
   1 -10  -8    2.18    0.83
   1 -10  -8    1.86    0.29
  -1  10   8    2.14    0.82
   1 -10  -8    2.73    0.32
   1 -10  -7   41.64    4.56
  -1  10   7   53.49    5.13
   1 -10  -7   43.83    4.45
   1 -10  -7   55.71    4.48
   1 -10  -7   47.92    5.05
   1 -10  -6    3.58    0.93
   1 -10  -6    3.28    0.52
   1 -10  -6    3.74    0.45
   1 -10  -6    4.98    0.48
   1 -10  -5    0.98    0.25
   1 -10  -5    1.42    0.75
   1 -10  -5    0.91    0.19
  -1  10   5    0.79    0.66
  -1  10   5    0.88    0.16
   1 -10  -5    0.75    0.49
   1 -10  -5    1.18    0.21
   1 -10  -4   11.75    1.09
   1 -10  -4   11.71    1.06
  -1  10   4   12.73    1.58
  -1  10   4    9.09    1.03
   1 -10  -4    8.43    1.24
   1 -10  -4   12.36    1.08
   1 -10  -4   10.64    1.62
   1 -10  -3    0.54    0.54
  -1  10   3    2.30    0.69
   1 -10  -3    1.47    0.23
   1 -10  -3    0.71    0.20
   1 -10  -3    1.71    0.25
   1 -10  -2    0.63    0.58
   1 -10  -2    1.36    0.24
  -1  10   2    1.98    0.63
   1 -10  -2    1.26    0.25
   1 -10  -1    3.31    0.84
  -1  10   1    2.80    0.35
  -1  10   1    2.84    0.74
   1 -10  -1    3.24    0.39
   1 -10  -1    3.75    0.44
  -1  10   0   10.28    1.03
  -1  10   0   12.86    1.42
   1 -10   0    8.56    1.46
  -1  10  -1    0.46    0.19
   1 -10   1    0.71    0.57
  -1  10  -2    0.80    0.23
   1 -10   2    0.50    0.56
  -1  10  -3    8.40    0.90
   1 -10   3    8.63    1.40
  -1  10  -4    0.19    0.26
  -1  10  -5    1.75    0.42
   1  -9 -12    0.76    0.22
   1  -9 -11    5.11    0.85
   1  -9 -11    5.43    0.59
  -1   9  11    5.49    1.31
   1  -9 -10    1.55    0.46
   1  -9 -10    1.82    0.27
   1  -9  -9    0.40    0.32
   1  -9  -9    0.43    0.17
  -1   9   9   -0.12    0.66
   1  -9  -8    0.31    0.28
  -1   9   8    0.90    0.65
   1  -9  -8    0.44    0.16
   1  -9  -8    0.51    0.17
   1  -9  -7    5.87    0.62
  -1   9   7    7.02    1.08
   1  -9  -7    6.14    0.47
   1  -9  -7    7.92    0.51
   1  -9  -6    4.76    0.95
  -1   9   6    5.46    0.71
   1  -9  -6    4.17    0.56
  -1   9   6    3.78    0.42
   1  -9  -6    4.83    0.47
  -1   9   6    3.93    0.98
   1  -9  -6    5.37    0.49
   1  -9  -5    0.20    0.18
  -1   9   5    0.07    0.28
   1  -9  -5    0.86    0.56
  -1   9   5    0.55    0.54
   1  -9  -5    0.05    0.12
   1  -9  -5    0.04    0.13
   1  -9  -5   -0.07    0.45
   1  -9  -4   17.49    1.66
  -1   9   4   21.56    1.77
   1  -9  -4   17.12    1.62
  -1   9   4   17.87    2.08
  -1   9   4   15.49    1.60
   1  -9  -4   17.36    2.12
   1  -9  -4   14.45    1.86
   1  -9  -4   17.94    1.64
   1  -9  -3    0.83    0.18
   1  -9  -3    1.06    0.66
  -1   9   3    0.99    0.12
  -1   9   3    0.89    0.16
  -1   9   3    0.94    0.55
   1  -9  -3    1.07    0.18
   1  -9  -3    0.70    0.31
   1  -9  -3    1.10    0.19
   1  -9  -2    2.10    0.66
  -1   9   2    1.84    0.23
   1  -9  -2    1.89    0.26
  -1   9   2    2.54    0.65
   1  -9  -2    2.14    0.29
  -1   9   1   11.69    1.17
   1  -9  -1   12.38    1.19
  -1   9   1   13.28    1.55
   1  -9  -1   11.06    1.63
   1  -9  -1   12.99    1.22
   1  -9   0    6.48    1.14
  -1   9   0    6.98    0.74
  -1   9   0    6.09    1.03
   1  -9   0    6.94    0.98
   1  -9   0    8.86    0.81
   1  -9   1    2.12    0.68
  -1   9  -1    2.00    0.28
  -1   9  -1    1.67    0.51
  -1   9  -2    4.56    0.53
  -1   9  -2    4.79    0.76
   1  -9   2    4.89    0.96
  -1   9  -3    0.64    0.21
   1  -9   3    0.09    0.52
  -1   9  -4    0.78    0.25
  -1   9  -5    2.45    0.46
  -1   9  -6    8.01    1.02
   1  -8 -12    0.62    0.21
   1  -8 -11    2.07    0.58
  -1   8  11    2.37    0.97
   1  -8 -11    2.18    0.31
   1  -8 -10    0.21    0.33
   1  -8 -10   -0.01    0.15
  -1   8  10    0.48    0.72
   1  -8  -9    0.18    0.29
   1  -8  -9    0.31    0.15
   1  -8  -9    0.36    0.09
   1  -8  -8    0.71    0.32
  -1   8   8    0.63    0.65
   1  -8  -8    0.62    0.16
   1  -8  -7    0.81    0.30
   1  -8  -7    0.88    0.17
  -1   8   7    0.59    0.59
  -1   8   6    1.16    0.35
   1  -8  -6    1.01    0.27
  -1   8   6    0.46    0.54
   1  -8  -6    0.82    0.16
  -1   8   6    0.80    0.11
   1  -8  -6    0.97    0.17
   1  -8  -5    6.61    0.73
  -1   8   5    8.25    0.83
  -1   8   5    5.65    0.61
   1  -8  -5    6.55    0.64
  -1   8   5    5.48    1.05
   1  -8  -5    8.35    1.13
   1  -8  -5    6.97    0.65
   1  -8  -5    7.18    1.04
   1  -8  -4    1.03    0.21
   1  -8  -4    0.75    0.50
  -1   8   4    0.44    0.25
   1  -8  -4    1.04    0.16
  -1   8   4    1.56    0.52
  -1   8   4    0.63    0.12
   1  -8  -4    0.90    0.16
   1  -8  -4    0.52    0.37
   1  -8  -3    4.47    0.84
  -1   8   3    5.65    0.55
   1  -8  -3    3.71    0.46
  -1   8   3    5.02    0.83
  -1   8   3    4.02    0.42
   1  -8  -3    3.98    0.44
   1  -8  -3    4.18    0.45
   1  -8  -3    3.49    0.64
   1  -8  -2    0.94    0.54
  -1   8   2    0.90    0.12
   1  -8  -2    0.94    0.41
  -1   8   2    0.93    0.44
  -1   8   2    0.81    0.15
   1  -8  -2    0.91    0.17
   1  -8  -2    0.90    0.17
   1  -8  -2    0.42    0.22
  -1   8   1    8.38    0.83
   1  -8  -1    7.10    1.06
   1  -8  -1    8.51    0.85
  -1   8   1   10.28    1.21
   1  -8  -1    9.32    0.88
   1  -8  -1    7.43    1.23
   1  -8   0    2.59    0.69
  -1   8   0    1.33    0.67
  -1   8   0    2.34    0.28
   1  -8   0    2.64    0.52
  -1   8   0    1.32    0.47
   1  -8   0    2.60    0.33
   1  -8   1    1.48    0.61
  -1   8  -1    1.49    0.64
  -1   8  -1    1.66    0.25
  -1   8  -1    1.75    0.48
   1  -8   1    1.98    0.30
  -1   8  -2    0.75    0.19
  -1   8  -2    1.00    0.41
   1  -8   2    1.26    0.56
  -1   8  -3    0.37    0.18
  -1   8  -3    0.41    0.33
   1  -8   3    0.34    0.49
  -1   8  -4    1.76    0.31
  -1   8  -5    1.79    0.34
  -1   8  -6    2.47    0.42
   1  -7 -12    2.86    0.69
  -1   7  12    5.09    1.18
   1  -7 -11   -0.06    0.38
  -1   7  11    0.51    0.73
   1  -7 -10    3.52    0.68
  -1   7  10    4.98    1.10
   1  -7 -10    4.11    0.44
   1  -7  -9    3.24    0.54
  -1   7   9    2.45    0.86
   1  -7  -9    2.59    0.30
   1  -7  -8   61.31    6.08
   1  -7  -8   66.91    5.90
   1  -7  -8   71.29    5.91
   1  -7  -8   58.57    5.87
   1  -7  -7    9.92    1.14
   1  -7  -7    9.78    0.99
  -1   7   7   11.14    1.50
   1  -7  -7    9.58    0.96
   1  -7  -7   11.57    0.97
   1  -7  -6    0.70    0.25
  -1   7   6    0.51    0.30
  -1   7   6    0.51    0.45
   1  -7  -6    0.62    0.13
   1  -7  -5    5.14    0.61
  -1   7   5    6.85    0.71
  -1   7   5    4.69    0.49
   1  -7  -5    5.73    0.54
  -1   7   5    5.73    0.95
   1  -7  -5    5.31    0.52
   1  -7  -5    4.82    0.89
   1  -7  -4    0.48    0.17
   1  -7  -4    1.15    0.44
  -1   7   4    0.80    0.24
  -1   7   4    0.60    0.10
   1  -7  -4    0.73    0.13
  -1   7   4    1.13    0.48
   1  -7  -4    0.63    0.40
   1  -7  -4    0.73    0.14
   1  -7  -3    2.41    0.64
  -1   7   3    3.63    0.42
   1  -7  -3    2.87    0.36
   1  -7  -3    2.59    0.31
  -1   7   3    3.05    0.63
  -1   7   3    2.91    0.30
   1  -7  -3    1.94    0.53
   1  -7  -3    1.96    0.53
   1  -7  -3    3.16    0.34
  -1   7   2    0.15    0.42
  -1   7   2    0.29    0.15
   1  -7  -2    0.34    0.12
   1  -7  -2    0.52    0.39
  -1   7   2    0.38    0.08
   1  -7  -2    0.50    0.12
   1  -7  -2    0.45    0.34
  -1   7   2    0.36    0.10
  -1   7   2    0.65    0.43
   1  -7  -2    0.42    0.25
   1  -7  -2    0.45    0.13
   1  -7  -1    3.35    0.69
  -1   7   1    3.16    0.75
  -1   7   1    3.12    0.31
  -1   7   1    3.51    0.60
   1  -7  -1    2.86    0.33
  -1   7   1    3.15    0.34
   1  -7  -1    2.67    0.52
  -1   7   1    2.66    0.32
   1  -7  -1    2.78    0.34
  -1   7   0    1.30    0.53
   1  -7   0    1.11    0.45
  -1   7   0    1.06    0.17
   1  -7   0    0.94    0.33
  -1   7   0    1.16    0.39
   1  -7   0    1.16    0.20
   1  -7   1    3.15    0.68
  -1   7  -1    2.80    0.36
  -1   7  -1    3.30    0.72
  -1   7  -1    3.15    0.58
   1  -7   1    4.01    0.41
   1  -7   2    2.17    0.62
  -1   7  -2    1.95    0.55
  -1   7  -2    1.74    0.26
  -1   7  -2    2.20    0.47
  -1   7  -3    3.41    0.36
  -1   7  -3    3.62    0.37
  -1   7  -3    3.60    0.62
  -1   7  -3    3.54    0.44
  -1   7  -3    4.06    0.60
   1  -7   3    3.12    0.73
  -1   7  -4    2.51    0.45
  -1   7  -4    1.67    0.31
  -1   7  -5    7.46    0.83
  -1   7  -6    2.44    0.40
  -1   7  -7    3.92    0.54
   1  -6 -12    8.95    1.16
  -1   6  12    9.45    1.57
   1  -6 -12    7.18    0.80
   1  -6 -11    1.37    0.48
  -1   6  11    1.80    0.80
   1  -6 -11    1.58    0.26
   1  -6 -10    2.19    0.51
  -1   6  10    2.43    0.86
   1  -6 -10    1.76    0.26
   1  -6  -9    2.79    0.55
  -1   6   9    3.92    0.91
   1  -6  -9    3.00    0.35
   1  -6  -8    4.90    0.68
  -1   6   8    5.18    1.00
   1  -6  -8    4.57    0.48
   1  -6  -7    8.18    0.79
   1  -6  -7    8.39    0.84
   1  -6  -7    8.07    0.96
   1  -6  -6    2.41    0.38
  -1   6   6    2.60    0.45
   1  -6  -6    1.80    0.20
   1  -6  -6    1.84    0.22
   1  -6  -6    1.88    0.23
  -1   6   6    1.80    0.60
   1  -6  -6    2.06    0.63
  -1   6   5    2.17    0.39
   1  -6  -5    1.58    0.30
   1  -6  -5    1.50    0.21
  -1   6   5    1.81    0.18
  -1   6   5    2.41    0.58
   1  -6  -5    1.49    0.55
   1  -6  -4    0.92    0.20
  -1   6   4    1.00    0.25
  -1   6   4    0.98    0.49
   1  -6  -4    0.95    0.14
   1  -6  -4    1.19    0.42
  -1   6   4    0.87    0.11
  -1   6   4    0.45    0.39
   1  -6  -4    0.85    0.15
   1  -6  -4    0.77    0.38
  -1   6   3    7.38    0.70
   1  -6  -3    5.81    0.65
  -1   6   3    8.08    1.04
   1  -6  -3    6.17    0.61
  -1   6   3    6.13    0.59
  -1   6   3    6.53    0.91
   1  -6  -3    4.87    0.83
   1  -6  -3    5.91    0.91
   1  -6  -3    6.66    0.84
   1  -6  -3    5.83    0.62
  -1   6   2    6.63    0.59
   1  -6  -2    5.78    0.56
  -1   6   2    5.55    0.88
  -1   6   2    5.18    0.51
  -1   6   2    4.89    0.53
  -1   6   2    4.94    0.77
   1  -6  -2    5.02    0.53
  -1   6   2    5.87    0.54
   1  -6  -2    4.97    0.74
   1  -6  -2    5.50    0.55
   1  -6  -2    5.03    0.69
   1  -6  -2    5.77    0.84
   1  -6  -1    1.60    0.49
  -1   6   1    1.36    0.46
  -1   6   1    1.55    0.18
  -1   6   1    1.80    0.46
  -1   6   1    1.45    0.16
  -1   6   1    1.49    0.18
  -1   6   1    1.12    0.17
  -1   6   1    1.30    0.38
   1  -6  -1    1.11    0.36
  -1   6   1    1.33    0.17
   1  -6  -1    0.96    0.17
   1  -6  -1    1.19    0.18
   1  -6  -1    0.94    0.24
  -1   6   0    1.44    0.48
  -1   6   0    1.03    0.48
   1  -6   0    1.54    0.47
  -1   6   0    1.46    0.30
  -1   6   0    1.15    0.16
  -1   6   0    1.05    0.16
   1  -6   0    1.25    0.35
  -1   6   0    1.46    0.37
  -1   6   0    1.22    0.17
  -1   6   0    1.25    0.18
   1  -6   0    1.28    0.19
  -1   6   0    1.12    0.19
  -1   6  -1    8.31    0.99
  -1   6  -1    6.39    0.63
  -1   6  -1    5.67    0.63
  -1   6  -1    6.63    0.82
   1  -6   1    6.72    0.65
  -1   6  -1    7.11    0.97
  -1   6  -1    5.79    0.63
   1  -6   1    7.06    0.96
  -1   6  -2    3.93    0.41
  -1   6  -2    3.89    0.40
   1  -6   2    4.40    0.75
  -1   6  -2    4.36    0.45
  -1   6  -2    4.42    0.69
  -1   6  -2    4.45    0.63
  -1   6  -3    0.42    0.12
  -1   6  -3    0.52    0.17
  -1   6  -3    0.55    0.28
  -1   6  -3    0.51    0.27
  -1   6  -3    0.73    0.26
   1  -6   3    0.88    0.48
  -1   6  -4    8.93    1.04
  -1   6  -4   11.62    1.06
  -1   6  -4   10.93    1.08
  -1   6  -4   11.59    1.20
  -1   6  -4    9.68    1.20
  -1   6  -5   86.72    7.92
  -1   6  -5   91.69    8.03
  -1   6  -5   79.44    7.91
  -1   6  -6    2.69    0.41
  -1   6  -6    2.42    0.40
  -1   6  -7    0.30    0.26
  -1   6  -8    0.17    0.26
  -1   5  13    1.64    0.90
   1  -5 -13    1.15    0.28
  -1   5  12    4.24    1.04
   1  -5 -12    2.16    0.35
  -1   5  11    1.02    0.69
   1  -5 -11    0.11    0.18
   1  -5 -10    2.00    0.49
   1  -5 -10    1.49    0.26
   1  -5  -9    9.21    1.12
  -1   5   9   11.51    1.45
   1  -5  -9    8.65    0.90
   1  -5  -8    0.84    0.32
   1  -5  -8    1.16    0.19
   1  -5  -7    0.98    0.29
   1  -5  -7    0.75    0.14
  -1   5   7    0.55    0.46
   1  -5  -6   18.81    1.85
   1  -5  -6   20.62    2.01
  -1   5   6   24.01    2.06
   1  -5  -6   23.05    2.33
  -1   5   5    6.49    0.66
   1  -5  -5    4.91    0.60
   1  -5  -5    4.75    0.46
   1  -5  -5    4.04    0.74
  -1   5   5    6.58    0.87
   1  -5  -5    4.49    0.48
   1  -5  -5    5.71    0.87
   1  -5  -4    4.80    0.53
  -1   5   4    5.03    0.55
  -1   5   4    5.31    0.79
   1  -5  -4    4.40    0.43
  -1   5   4    4.11    0.40
  -1   5   4    5.14    0.75
   1  -5  -4    4.60    0.72
   1  -5  -3   22.95    2.20
  -1   5   3   25.01    2.23
  -1   5   3   29.95    2.53
   1  -5  -3   22.73    2.16
   1  -5  -3   22.83    2.14
  -1   5   3   22.37    2.13
   1  -5  -3   21.82    2.38
  -1   5   3   24.72    2.45
   1  -5  -3   24.67    2.38
   1  -5  -2  545.82   52.59
  -1   5   2  609.08   52.61
  -1   5   2  630.29   52.89
  -1   5   2  553.02   52.55
   1  -5  -2  561.11   52.56
  -1   5   2  581.04   52.56
  -1   5   2  589.57   52.82
   1  -5  -2  548.25   52.77
   1  -5  -2  594.89   52.58
   1  -5  -2  570.71   52.72
  -1   5   1   17.61    1.49
   1  -5  -1   15.35    1.49
  -1   5   1   18.23    1.78
  -1   5   1   16.24    1.46
  -1   5   1   14.66    1.47
  -1   5   1   15.44    1.47
   1  -5  -1   14.82    1.47
  -1   5   1   16.09    1.69
   1  -5  -1   15.20    1.66
  -1   5   1   16.61    1.72
   1  -5  -1   15.01    1.49
   1  -5  -1   16.21    1.56
  -1   5   0    1.19    0.41
  -1   5   0    1.01    0.39
  -1   5   0    1.81    0.19
  -1   5   0    1.94    0.29
  -1   5   0    1.38    0.19
  -1   5   0    1.39    0.18
   1  -5   0    1.61    0.34
  -1   5   0    1.28    0.35
  -1   5   0    1.65    0.19
   1  -5   0    1.27    0.19
  -1   5  -1   11.31    1.15
  -1   5  -1   10.77    1.01
  -1   5  -1    8.83    0.88
  -1   5  -1    8.78    1.04
  -1   5  -1    8.51    0.88
  -1   5  -1    9.31    0.87
  -1   5  -1    8.64    0.88
   1  -5   1    9.04    0.89
  -1   5  -1   10.02    1.17
  -1   5  -2   11.75    1.11
  -1   5  -2   12.23    1.30
  -1   5  -2   10.69    1.12
  -1   5  -2   10.92    1.11
  -1   5  -2   11.27    1.26
  -1   5  -2   12.02    1.42
  -1   5  -2   13.09    1.14
   1  -5   2   12.74    1.14
   1  -5   2   11.18    1.38
  -1   5  -2    9.66    1.16
  -1   5  -3    5.62    0.60
  -1   5  -3    4.94    0.67
  -1   5  -3    5.38    0.60
  -1   5  -3    6.34    0.73
   1  -5   3    6.26    0.86
  -1   5  -3    5.50    0.72
  -1   5  -4    7.10    0.72
  -1   5  -4    6.00    0.70
  -1   5  -4    7.11    0.81
  -1   5  -4    5.89    0.87
  -1   5  -5   13.04    1.33
  -1   5  -5   14.02    1.41
   1  -5   5   11.38    1.39
  -1   5  -5   12.66    1.29
  -1   5  -6    4.57    0.57
  -1   5  -6    4.27    0.61
   1  -5   6    3.35    0.60
  -1   5  -6    3.81    0.52
  -1   5  -7    2.08    0.41
  -1   5  -7    1.86    0.36
   1  -5   7    1.72    0.45
  -1   5  -8    0.15    0.33
  -1   5  -8    0.22    0.26
   1  -5   8    0.42    0.36
  -1   5  -9    1.57    0.37
   1  -4 -13    1.05    0.30
   1  -4 -12    0.07    0.43
   1  -4 -12    0.12    0.20
  -1   4  12    0.11    0.72
   1  -4 -11    1.65    0.54
   1  -4 -11    0.56    0.23
  -1   4  11    1.51    0.80
  -1   4  11    1.36    0.24
   1  -4 -10    2.74    0.38
  -1   4  10    3.19    0.49
  -1   4   9   82.75    6.51
   1  -4  -9   60.45    5.85
  -1   4   8    7.12    1.08
   1  -4  -8    5.99    0.64
   1  -4  -7    1.58    0.35
   1  -4  -7    1.21    0.19
  -1   4   7    1.24    0.53
  -1   4   6   36.09    3.44
  -1   4   6   40.10    3.29
   1  -4  -6   32.85    3.23
   1  -4  -6   31.69    3.09
  -1   4   6   33.98    3.44
   1  -4  -6   29.94    3.37
   1  -4  -6   34.99    3.52
   1  -4  -5    7.25    0.80
  -1   4   5    9.66    1.06
  -1   4   5    8.20    0.84
   1  -4  -5    6.64    0.68
   1  -4  -5    6.64    0.94
   1  -4  -5    8.62    1.07
  -1   4   4    0.86    0.23
   1  -4  -4    1.21    0.22
   1  -4  -4    1.04    0.12
   1  -4  -4    0.56    0.31
  -1   4   4    1.24    0.37
   1  -4  -4    1.17    0.41
  -1   4   3    0.53    0.32
  -1   4   3    0.60    0.16
   1  -4  -3    0.65    0.15
  -1   4   3    0.50    0.07
   1  -4  -3    0.75    0.09
  -1   4   3    0.73    0.32
   1  -4  -3    0.48    0.27
  -1   4   2   23.19    1.91
   1  -4  -2   20.00    1.89
  -1   4   2   22.79    2.12
  -1   4   2   19.46    1.84
  -1   4   2   21.18    2.07
  -1   4   2   20.91    1.85
   1  -4  -2   19.57    2.04
   1  -4  -2   19.19    1.86
   1  -4  -2   18.71    1.85
   1  -4  -1    9.12    0.75
  -1   4   1    7.66    0.73
  -1   4   1    7.65    0.94
  -1   4   1    7.17    0.70
   1  -4  -1    8.34    0.90
  -1   4   1    6.80    0.71
  -1   4   1    6.54    0.71
   1  -4  -1    8.42    0.72
  -1   4   1    7.35    0.89
   1  -4  -1    8.42    0.73
  -1   4   0    0.72    0.29
  -1   4   0    0.36    0.26
  -1   4   0    0.84    0.11
  -1   4   0    0.87    0.18
  -1   4   0    0.78    0.11
  -1   4   0    0.73    0.11
   1  -4   0    0.69    0.25
  -1   4   0    0.67    0.25
  -1   4   0    0.71    0.12
   1  -4   0    0.89    0.12
   1  -4   0    0.56    0.16
  -1   4  -1   41.34    3.50
  -1   4  -1   42.56    3.68
  -1   4  -1   40.68    3.48
  -1   4  -1   42.60    3.58
  -1   4  -1   36.25    3.47
  -1   4  -1   37.03    3.48
  -1   4  -1   37.41    3.62
   1  -4   1   36.45    3.48
  -1   4  -1   41.68    3.74
   1  -4   1   37.18    3.49
   1  -4   1   27.42    3.51
  -1   4  -2    2.55    0.30
  -1   4  -2    2.36    0.51
  -1   4  -2    2.43    0.41
   1  -4   2    2.18    0.34
   1  -4   2    2.41    0.27
  -1   4  -2    2.25    0.38
  -1   4  -2    2.42    0.28
  -1   4  -2    1.71    0.35
   1  -4   2    1.90    0.36
   1  -4   2    2.60    0.29
  -1   4  -3   14.11    1.33
  -1   4  -3   10.75    1.32
   1  -4   3   12.69    1.39
  -1   4  -3   12.96    1.41
   1  -4   3   13.96    1.29
  -1   4  -3   14.86    1.59
  -1   4  -3   11.73    1.28
   1  -4   3   12.91    1.44
  -1   4  -3   12.98    1.45
  -1   4  -4    7.72    0.79
   1  -4   4    6.16    0.83
  -1   4  -4    7.11    0.84
   1  -4   4    6.71    0.72
  -1   4  -4    7.84    0.73
  -1   4  -4    5.76    0.92
   1  -4   5    3.97    0.59
  -1   4  -5    4.39    0.55
  -1   4  -5    3.62    0.72
  -1   4  -6    1.88    0.37
  -1   4  -6    1.63    0.30
   1  -4   6    1.31    0.37
   1  -4   6    1.71    0.26
  -1   4  -6    1.73    0.44
  -1   4  -6    1.96    0.62
   1  -4   6    1.24    0.24
   1  -4   7    0.61    0.33
  -1   4  -7    0.96    0.26
  -1   4  -7    0.92    0.34
   1  -4   7    0.74    0.20
  -1   4  -8    6.67    0.75
   1  -4   8    4.61    0.87
  -1   4  -8    6.35    0.83
  -1   4  -9    1.70    0.39
   1  -4   9    1.38    0.50
   1  -4  10    5.25    0.91
   1  -3 -13    3.48    0.51
   1  -3 -12    1.05    0.27
   1  -3 -12    0.54    0.48
   1  -3 -11    2.28    0.55
   1  -3 -11    1.30    0.30
  -1   3  11    2.41    0.83
  -1   3  11    1.94    0.29
   1  -3 -10    1.71    0.49
  -1   3  10    1.50    0.35
   1  -3 -10    1.13    0.26
  -1   3  10    1.32    0.66
  -1   3  10    1.67    0.26
   1  -3  -9    3.97    0.64
  -1   3   9    4.13    0.86
  -1   3   9    3.55    0.51
   1  -3  -9    3.37    0.43
   1  -3  -8    7.04    0.85
  -1   3   8    7.00    1.05
   1  -3  -8    5.77    0.65
  -1   3   7    6.59    0.86
  -1   3   7    4.67    0.82
   1  -3  -7    4.86    0.54
  -1   3   6   35.40    3.14
  -1   3   6   36.03    3.00
  -1   3   6   29.86    3.11
   1  -3  -6   28.93    3.08
   1  -3  -6   28.03    2.81
  -1   3   5    4.47    0.65
  -1   3   5    4.06    0.51
   1  -3  -5    3.31    0.36
  -1   3   5    3.44    0.62
   1  -3  -5    2.97    0.57
  -1   3   4    4.06    0.49
   1  -3  -4    3.88    0.48
  -1   3   4    4.13    0.63
   1  -3  -4    3.73    0.38
   1  -3  -4    4.14    0.61
   1  -3  -4    4.33    0.68
  -1   3   3    4.35    0.46
   1  -3  -3    4.93    0.46
   1  -3  -3    3.82    0.57
  -1   3   3    3.31    0.55
   1  -3  -3    3.62    0.36
   1  -3  -2   11.45    1.10
  -1   3   2   13.10    1.12
  -1   3   2   11.73    1.24
   1  -3  -2   11.24    1.05
  -1   3   2   10.99    1.04
   1  -3  -1    2.35    0.23
  -1   3   1    2.43    0.40
  -1   3   1    1.83    0.22
   1  -3  -1    1.98    0.36
   1  -3  -1    1.96    0.21
  -1   3   1    1.75    0.20
  -1   3   1    1.83    0.20
   1  -3  -1    2.07    0.20
  -1   3   1    1.78    0.34
  -1   3   0    9.99    0.99
  -1   3   0    8.75    0.82
  -1   3   0   10.69    0.89
  -1   3   0    8.41    0.82
   1  -3   0    9.15    0.94
  -1   3   0    9.01    0.95
   1  -3   0    8.86    0.81
  -1   3   0    8.28    0.81
   1  -3   0    9.06    0.82
   1  -3   0    8.29    0.98
   1  -3   0    5.68    0.85
  -1   3   0    9.55    1.00
  -1   3  -1    1.77    0.37
  -1   3  -1    1.73    0.29
   1  -3   1    2.07    0.26
  -1   3  -1    1.72    0.26
  -1   3  -1    1.55    0.18
   1  -3   1    1.70    0.19
  -1   3  -1    1.64    0.19
  -1   3  -1    1.26    0.28
   1  -3   1    1.74    0.19
  -1   3  -1    1.12    0.24
   1  -3   1    1.58    0.28
  -1   3  -2    0.17    0.11
  -1   3  -2    0.40    0.27
  -1   3  -2    0.36    0.19
   1  -3   2    0.52    0.16
  -1   3  -2    0.14    0.17
   1  -3   2    0.25    0.08
   1  -3   2    0.23    0.22
   1  -3   2    0.32    0.08
  -1   3  -2    0.27    0.08
  -1   3  -2    0.35    0.09
  -1   3  -2    0.16    0.20
  -1   3  -3   26.12    2.58
   1  -3   3   27.72    2.63
   1  -3   3   27.16    2.52
  -1   3  -3   25.57    2.52
  -1   3  -3   22.99    2.51
   1  -3   3   27.94    2.72
  -1   3  -3   24.97    2.70
  -1   3  -3   29.03    2.76
  -1   3  -4  219.13   19.76
   1  -3   4  203.42   19.79
  -1   3  -4  212.41   19.77
  -1   3  -4  230.97   19.68
  -1   3  -4  186.71   19.90
   1  -3   4  221.71   19.67
  -1   3  -4  235.51   19.96
   1  -3   4  205.37   19.92
  -1   3  -4  190.76   19.67
  -1   3  -4  219.77   19.67
  -1   3  -5   14.35    1.40
   1  -3   5   11.12    1.40
   1  -3   5   12.86    1.42
  -1   3  -5   16.80    1.51
  -1   3  -5   14.39    1.28
   1  -3   5   12.18    1.28
  -1   3  -5   12.49    1.57
   1  -3   5   12.34    1.56
  -1   3  -6    2.84    0.47
   1  -3   6    2.29    0.49
   1  -3   6    2.64    0.49
  -1   3  -6    3.13    0.57
   1  -3   6    3.10    0.36
  -1   3  -6    2.76    0.73
   1  -3   6    2.87    0.34
  -1   3  -7    2.09    0.45
   1  -3   7    1.87    0.44
   1  -3   7    2.07    0.30
  -1   3  -7    1.98    0.51
   1  -3   7    2.03    0.28
  -1   3  -8    4.13    0.58
   1  -3   8    4.91    0.72
  -1   3  -8    6.10    0.74
   1  -3   8    4.50    0.52
   1  -3   9    3.16    0.59
  -1   3  -9    2.30    0.43
  -1   3  -9    3.29    0.59
   1  -3   9    2.47    0.36
   1  -3  10    3.84    0.73
  -1   3 -10    5.14    0.75
   1  -3  10    3.64    0.47
   1  -3  11    1.89    0.61
  -1   3 -11    2.26    0.60
   1  -2 -12    0.32    0.24
   1  -2 -11    0.27    0.22
   1  -2 -11    0.31    0.38
  -1   2  11    0.24    0.19
   1  -2 -10    0.39    0.38
  -1   2  10    0.33    0.26
   1  -2 -10    0.30    0.20
  -1   2  10    0.87    0.61
  -1   2  10    0.92    0.20
   1  -2  -9    2.96    0.58
  -1   2   9    3.97    0.70
  -1   2   9    3.51    0.52
   1  -2  -9    2.64    0.41
  -1   2   9    2.90    0.75
  -1   2   9    4.13    0.41
  -1   2   8    2.38    0.55
   1  -2  -8    1.78    0.41
  -1   2   8    1.82    0.58
   1  -2  -8    1.41    0.26
  -1   2   8    1.91    0.34
   1  -2  -7    0.90    0.29
  -1   2   7    0.30    0.32
   1  -2  -7    0.69    0.17
  -1   2   7    0.53    0.20
  -1   2   7    0.64    0.43
   1  -2  -7    0.86    0.39
  -1   2   6    2.18    0.39
   1  -2  -6    1.44    0.33
  -1   2   6    1.88    0.46
   1  -2  -6    1.78    0.24
  -1   2   6    1.92    0.48
   1  -2  -6    1.73    0.46
   1  -2  -6    2.28    0.62
  -1   2   5   11.82    1.08
   1  -2  -5    9.62    1.04
   1  -2  -5    8.77    0.93
  -1   2   5   10.49    1.18
   1  -2  -5    9.75    1.16
   1  -2  -5   11.11    1.28
  -1   2   4    7.71    0.79
   1  -2  -4    7.41    0.88
  -1   2   4    7.91    0.91
   1  -2  -4    6.88    0.70
  -1   2   3   61.23    5.00
   1  -2  -3   53.88    5.09
   1  -2  -3   51.41    4.91
  -1   2   2    5.07    0.54
   1  -2  -2    4.61    0.62
  -1   2   2    4.76    0.62
   1  -2  -2    5.28    0.48
   1  -2  -2    4.97    0.48
  -1   2   1    0.87    0.14
   1  -2  -1    1.23    0.15
   1  -2  -1    1.04    0.11
  -1   2   1    1.00    0.11
   1  -2  -1    1.19    0.11
  -1   2   1    0.87    0.11
  -1   2   1    0.87    0.23
  -1   2   0    8.79    0.91
   1  -2   0   10.87    0.92
  -1   2   0    9.33    0.93
  -1   2   0    8.50    0.89
   1  -2   0   11.22    0.89
  -1   2   0    8.85    0.99
  -1   2   0    8.76    0.89
   1  -2   0   11.33    1.04
   1  -2   0   10.04    0.90
  -1   2   0    9.04    1.01
   1  -2   1    2.03    0.34
  -1   2  -1    1.78    0.35
  -1   2  -1    2.14    0.28
   1  -2   1    2.37    0.28
   1  -2   1    2.21    0.22
  -1   2  -1    2.09    0.21
  -1   2  -1    2.17    0.32
   1  -2   1    2.14    0.22
  -1   2  -1    2.21    0.32
  -1   2  -1    1.87    0.22
  -1   2  -2    6.06    0.62
  -1   2  -2    6.15    0.58
  -1   2  -2    5.61    0.61
   1  -2   2    6.03    0.63
   1  -2   2    5.75    0.55
  -1   2  -2    5.32    0.55
  -1   2  -2    4.96    0.54
  -1   2  -2    6.18    0.72
   1  -2   2    6.46    0.71
   1  -2   2    5.21    0.70
  -1   2  -2    5.83    0.55
  -1   2  -3    4.65    0.52
   1  -2   3    4.57    0.52
  -1   2  -3    4.03    0.43
   1  -2   3    3.97    0.43
  -1   2  -3    4.47    0.64
  -1   2  -3    5.34    0.63
  -1   2  -3    5.24    0.45
  -1   2  -3    4.00    0.42
   1  -2   3    4.01    0.64
   1  -2   3    3.76    0.42
   1  -2   4    9.37    1.01
  -1   2  -4    9.09    0.98
  -1   2  -4    9.21    0.96
   1  -2   4   10.33    1.01
  -1   2  -4    7.97    0.88
  -1   2  -4    8.72    0.88
  -1   2  -4   10.43    1.11
   1  -2   4    9.60    1.16
   1  -2   4    9.58    0.88
  -1   2  -4    9.24    0.88
  -1   2  -4    8.79    1.13
   1  -2   5    0.20    0.23
  -1   2  -5    0.29    0.19
   1  -2   5    0.22    0.20
  -1   2  -5    0.44    0.20
  -1   2  -5    0.12    0.11
   1  -2   5    0.26    0.11
  -1   2  -5    0.24    0.29
   1  -2   5    0.78    0.42
  -1   2  -5    0.30    0.10
  -1   2  -5    0.33    0.29
  -1   2  -5    0.22    0.10
   1  -2   5    0.20    0.09
  -1   2  -5   -0.26    0.42
   1  -2   6    4.92    0.72
  -1   2  -6    5.31    0.68
   1  -2   6    4.67    0.67
  -1   2  -6    5.31    0.78
   1  -2   6    4.90    0.55
  -1   2  -6    4.44    0.90
   1  -2   6    4.36    0.86
  -1   2  -6    5.64    0.54
   1  -2   6    5.18    0.53
  -1   2  -7   15.09    1.49
   1  -2   7   12.58    1.46
   1  -2   7   12.69    1.30
  -1   2  -7   16.23    1.59
   1  -2   7   13.06    1.28
  -1   2  -8    1.83    0.49
   1  -2   8    2.81    0.52
   1  -2   8    2.50    0.33
  -1   2  -8    2.37    0.56
   1  -2   8    2.19    0.30
  -1   2  -9    2.34    0.52
   1  -2   9    2.07    0.49
   1  -2   9    1.88    0.30
   1  -2   9    1.58    0.27
   1  -2  10    2.60    0.64
  -1   2 -10    3.66    0.64
   1  -2  10    2.61    0.37
   1  -2  11    0.24    0.41
  -1   2 -11    0.31    0.31
  -1   2 -11    0.18    0.46
   1  -2  12    1.31    0.59
   1  -1 -12    1.62    0.37
   1  -1 -11    3.88    0.54
   1  -1 -11    4.33    0.77
  -1   1  11    4.18    0.50
  -1   1  10   33.34    3.54
   1  -1 -10   31.29    3.44
   1  -1 -10   36.24    3.66
  -1   1  10   41.03    3.42
  -1   1   9   13.70    1.58
   1  -1  -9   12.80    1.49
   1  -1  -9   13.93    1.67
  -1   1   9   16.77    1.74
  -1   1   9   17.47    1.48
  -1   1   8    1.23    0.43
   1  -1  -8    1.31    0.39
   1  -1  -8    1.03    0.24
  -1   1   8    1.22    0.31
   1  -1  -8    1.36    0.21
  -1   1   8    2.15    0.55
  -1   1   8    1.51    0.23
   1  -1  -7    5.33    0.70
  -1   1   7    6.91    0.81
  -1   1   7    5.07    0.62
   1  -1  -7    3.92    0.54
  -1   1   7    5.88    0.85
   1  -1  -7    4.48    0.52
   1  -1  -7    5.35    0.80
  -1   1   7    6.66    0.55
  -1   1   6    1.17    0.32
   1  -1  -6    0.99    0.29
  -1   1   6    1.21    0.24
   1  -1  -6    1.04    0.19
   1  -1  -6    0.66    0.36
  -1   1   6    1.07    0.39
   1  -1  -6    1.12    0.16
   1  -1  -6    1.32    0.56
   1  -1  -5    7.13    0.75
  -1   1   5    6.17    0.67
   1  -1  -5    5.80    0.63
   1  -1  -5    6.37    0.61
   1  -1  -5    5.57    0.80
  -1   1   5    5.74    0.80
   1  -1  -5    6.63    0.95
   1  -1  -4    6.49    0.68
   1  -1  -4    5.63    0.59
   1  -1  -4    5.39    0.74
   1  -1  -4    6.07    0.57
  -1   1   4    4.85    0.73
   1  -1  -4    6.97    0.87
  -1   1   3    4.85    0.52
   1  -1  -3    4.57    0.51
   1  -1  -3    4.46    0.58
   1  -1  -3    4.57    0.42
  -1   1   3    2.75    0.54
   1  -1  -3    4.32    0.44
   1  -1  -2    1.09    0.16
  -1   1   2    1.22    0.17
   1  -1  -2    0.77    0.08
   1  -1  -2    0.66    0.24
   1  -1  -2    0.78    0.10
  -1   1   1    0.47    0.09
  -1   1   1    0.31    0.05
   1  -1  -1    0.49    0.05
   1  -1  -1    0.50    0.05
   1  -1  -1    0.57    0.17
  -1   1   0   21.27    1.98
  -1   1   0   22.62    1.98
  -1   1   0   20.61    1.97
   1  -1   0   21.41    1.96
   1  -1   0   21.26    2.03
  -1   1   0   20.87    2.03
  -1   1   0   20.59    1.95
   1  -1   0   23.35    2.04
   1  -1   1    2.10    0.24
  -1   1  -1    2.28    0.25
   1  -1   1    1.79    0.21
  -1   1  -1    2.19    0.21
   1  -1   1    2.11    0.29
  -1   1  -1    1.92    0.31
  -1   1  -2    7.14    0.69
  -1   1  -2    6.95    0.66
   1  -1   2    5.38    0.64
   1  -1   2    5.07    0.60
  -1   1  -2    6.10    0.60
  -1   1  -2    6.31    0.60
  -1   1  -2    7.26    0.60
  -1   1  -2    6.16    0.76
  -1   1  -2    7.28    0.73
   1  -1   2    5.20    0.74
  -1   1  -3   21.77    1.97
   1  -1   3   17.65    1.96
   1  -1   3   20.17    1.94
  -1   1  -3   20.17    1.87
   1  -1   3   17.79    1.86
   1  -1   3   17.54    2.07
  -1   1  -3   22.08    2.02
  -1   1  -3   22.32    1.86
  -1   1  -3   19.66    2.08
  -1   1  -3   20.15    1.86
  -1   1  -4    3.42    0.50
   1  -1   4    4.43    0.54
   1  -1   4    3.30    0.47
  -1   1  -4    3.77    0.41
  -1   1  -4    4.12    0.57
  -1   1  -4    3.43    0.65
   1  -1   4    3.55    0.65
  -1   1  -4    3.84    0.40
   1  -1   4    4.27    0.40
  -1   1  -4    3.96    0.40
  -1   1  -5    3.74    0.56
   1  -1   5    4.49    0.61
   1  -1   5    4.43    0.56
  -1   1  -5    4.38    0.65
  -1   1  -5    4.32    0.45
   1  -1   5    3.73    0.44
  -1   1  -5    4.24    0.77
  -1   1  -5    4.67    0.44
  -1   1  -5    4.50    0.44
   1  -1   5    3.27    0.69
   1  -1   5    3.98    0.43
   1  -1   6    1.03    0.34
  -1   1  -6    0.98    0.28
   1  -1   6    0.42    0.15
   1  -1   6    0.81    0.27
  -1   1  -6    1.01    0.17
   1  -1   6    0.70    0.15
  -1   1  -6    0.89    0.39
  -1   1  -6    1.14    0.50
  -1   1  -6    1.11    0.15
   1  -1   6    0.96    0.15
   1  -1   6    0.87    0.45
  -1   1  -7   16.19    1.33
   1  -1   7   13.60    1.27
   1  -1   7   12.22    1.08
  -1   1  -7   13.48    1.38
   1  -1   7   13.96    1.08
  -1   1  -8    0.78    0.33
   1  -1   8    0.64    0.30
   1  -1   8    0.39    0.16
  -1   1  -8    0.59    0.44
   1  -1   8    0.76    0.16
  -1   1  -9    1.30    0.43
   1  -1   9    1.43    0.42
   1  -1   9    1.24    0.24
   1  -1   9    1.26    0.22
  -1   1 -10    1.29    0.47
  -1   1 -10    0.88    0.30
   1  -1  10    0.16    0.34
   1  -1  10    0.86    0.23
   1  -1  10    0.94    0.21
   1  -1  11    6.65    1.09
  -1   1 -11    7.89    0.92
  -1   1 -11    8.87    1.13
   1  -1  12    0.62    0.54
  -1   1 -12    1.63    0.61
   1   0 -11    0.90    0.32
   1   0 -11    1.30    0.53
  -1   0  11    1.78    0.34
  -1   0  10    1.45    0.41
  -1   0  10    0.42    0.43
   1   0 -10    1.05    0.28
   1   0 -10    1.61    0.47
  -1   0  10    1.60    0.28
   1   0  -9    6.90    0.81
  -1   0   9    7.07    0.90
  -1   0   9    6.77    0.95
   1   0  -9    6.68    0.95
  -1   0   9    8.11    0.77
  -1   0   8    4.32    0.66
   1   0  -8    4.22    0.66
   1   0  -8    3.69    0.51
  -1   0   8    4.08    0.59
   1   0  -8    3.52    0.70
  -1   0   8    5.20    0.50
  -1   0   7    2.08    0.42
   1   0  -7    1.28    0.38
  -1   0   7    1.23    0.32
   1   0  -7    1.57    0.27
   1   0  -7    2.23    0.25
   1   0  -7    1.47    0.44
  -1   0   7    1.45    0.46
  -1   0   7    1.69    0.24
  -1   0   6    0.60    0.29
   1   0  -6    0.90    0.27
   1   0  -6    0.94    0.18
  -1   0   6    0.44    0.20
  -1   0   6    0.33    0.30
   1   0  -6    0.85    0.15
   1   0  -6    0.68    0.30
   1   0  -6    0.59    0.45
  -1   0   6    0.98    0.16
   1   0  -5    5.15    0.68
  -1   0   5    5.99    0.70
  -1   0   5    5.20    0.64
   1   0  -5    5.29    0.60
   1   0  -5    5.51    0.75
  -1   0   5    5.22    0.75
   1   0  -5    5.71    0.57
  -1   0   5    6.47    0.59
   1   0  -5    7.20    0.94
  -1   0   4   24.22    2.23
   1   0  -4   23.08    2.23
   1   0  -4   22.10    2.16
  -1   0   4   21.56    2.18
   1   0  -4   23.29    2.13
  -1   0   4   20.22    2.27
   1   0  -4   23.02    2.28
   1   0  -4   28.05    2.45
   1   0  -3   13.68    1.28
   1   0  -3   12.83    1.20
   1   0  -3   12.81    1.31
  -1   0   3   12.11    1.31
  -1   0   3   12.41    1.24
   1   0  -2    0.74    0.15
   1   0  -2    0.88    0.19
   1   0  -2    0.82    0.10
  -1   0   2    1.24    0.21
  -1   0   2    0.92    0.12
  -1   0   2    0.84    0.11
  -1   0   1    7.51    0.71
   1   0  -1    7.13    0.71
   1   0  -1    6.27    0.73
  -1   0   1    7.45    0.68
  -1   0   0   13.45    1.22
   1   0   0   12.00    1.24
  -1   0   0   13.33    1.24
  -1   0  -1    3.53    0.40
  -1   0  -1    3.36    0.43
   1   0   1    4.72    0.42
  -1   0  -1    3.83    0.48
  -1   0  -1    3.96    0.37
  -1   0  -2   25.81    2.31
  -1   0  -2   22.90    2.29
   1   0   2   19.81    2.21
  -1   0  -2   22.08    2.38
  -1   0  -2   25.00    2.22
  -1   0  -3  524.16   44.76
  -1   0  -3  509.27   44.80
   1   0   3  358.06   44.74
   1   0   3  479.48   44.75
  -1   0  -3  505.41   44.84
  -1   0  -3  464.61   44.69
  -1   0  -3  478.39   44.68
  -1   0  -3  436.13   44.90
   1   0   3  544.24   44.69
   1   0   4    2.85    0.45
  -1   0  -4    3.47    0.48
   1   0   4    3.95    0.52
   1   0   4    3.80    0.45
  -1   0  -4    3.18    0.53
  -1   0  -4    3.50    0.38
   1   0   4    3.28    0.38
  -1   0  -4    3.13    0.60
   1   0   4    4.14    0.68
   1   0   4    4.35    0.37
  -1   0  -5    1.16    0.27
   1   0   5    1.03    0.29
   1   0   5    1.08    0.22
   1   0   5    0.86    0.26
   1   0   5    0.76    0.14
  -1   0  -5    0.46    0.14
  -1   0  -5    0.50    0.29
   1   0   5    1.00    0.13
  -1   0  -5    0.78    0.44
   1   0   5    0.69    0.40
  -1   0  -6    0.25    0.21
   1   0   6   -0.24    0.27
   1   0   6    0.25    0.22
   1   0   6    0.25    0.20
   1   0   6    0.14    0.09
  -1   0  -6    0.10    0.31
   1   0   6    0.26    0.10
   1   0   6   -0.08    0.35
  -1   0  -6    0.69    0.47
  -1   0  -7   11.61    1.33
   1   0   7    9.01    1.25
   1   0   7    9.26    1.26
   1   0   7   11.00    1.17
  -1   0  -7   10.24    1.40
   1   0   7   11.85    1.62
  -1   0  -8    4.78    0.70
   1   0   8    2.56    0.58
   1   0   8    3.77    0.63
  -1   0  -8    5.03    0.84
   1   0   8    4.46    0.51
   1   0   8    6.94    0.56
  -1   0  -9    0.53    0.37
   1   0   9    0.31    0.27
   1   0   9   -0.09    0.29
   1   0   9    0.46    0.17
   1   0   9    0.51    0.17
   1   0  10    2.34    0.51
   1   0  10    2.13    0.32
   1   0  10    2.18    0.31
   1   0  11    0.54    0.41
  -1   0 -11    1.28    0.32
  -1   0 -11    0.56    0.44
   1   0  12    0.24    0.46
  -1   0 -12    0.86    0.32
  -1   0 -12    1.00    0.55
   1   1 -11    3.32    0.58
   1   1 -11    4.94    0.83
  -1  -1  11    5.19    0.61
  -1  -1  10    1.02    0.40
   1   1 -10    1.42    0.32
   1   1 -10    1.16    0.46
  -1  -1  10    1.53    0.33
  -1  -1   9    1.99    0.51
   1   1  -9    2.33    0.40
  -1  -1   9    2.65    0.49
   1   1  -9    2.66    0.55
  -1  -1   9    3.14    0.39
  -1  -1   8   11.32    1.24
   1   1  -8   12.35    1.32
   1   1  -8    9.87    1.14
  -1  -1   8   11.48    1.25
   1   1  -8   12.75    1.37
  -1  -1   8   13.29    1.13
   1   1  -7    2.40    0.44
  -1  -1   7    1.94    0.39
   1   1  -7    1.45    0.28
  -1  -1   7    1.38    0.36
  -1  -1   7    1.41    0.41
   1   1  -7    1.89    0.45
  -1  -1   7    1.94    0.26
   1   1  -6    2.71    0.44
  -1  -1   6    2.09    0.45
   1   1  -6    2.65    0.34
  -1  -1   6    1.78    0.37
  -1  -1   6    1.89    0.47
   1   1  -6    2.65    0.48
   1   1  -6    2.68    0.30
   1   1  -6    2.37    0.67
  -1  -1   6    2.61    0.30
  -1  -1   5    3.17    0.45
   1   1  -5    2.71    0.41
  -1  -1   5    2.66    0.39
   1   1  -5    2.73    0.31
  -1  -1   5    2.43    0.45
   1   1  -5    3.17    0.46
  -1  -1   5    2.57    0.32
  -1  -1   4  551.27   52.86
   1   1  -4  564.16   52.86
   1   1  -4  571.88   52.82
  -1  -1   4  547.89   52.83
   1   1  -4  605.19   52.77
   1   1  -4  542.17   52.88
  -1  -1   4  552.45   52.89
   1   1  -4  659.59   53.09
  -1  -1   4  562.40   52.78
   1   1  -3   35.45    3.41
  -1  -1   3   38.62    3.43
  -1  -1   3   27.52    3.45
  -1  -1   3   37.74    3.40
   1   1  -3   36.50    3.39
  -1  -1   3   34.12    3.43
   1   1  -3   34.33    3.34
   1   1  -3   37.37    3.43
  -1  -1   3   39.98    3.36
   1   1  -2    3.14    0.37
  -1  -1   2    3.96    0.39
  -1  -1   2    3.15    0.44
  -1  -1   2    3.93    0.38
   1   1  -2    2.97    0.34
   1   1  -2    3.11    0.36
  -1  -1   2    4.17    0.35
   1   1  -2    3.05    0.33
  -1  -1   2    3.41    0.38
   1   1  -2    3.01    0.32
   1   1  -2    3.22    0.37
  -1  -1   2    4.22    0.35
   1   1  -1   13.52    1.29
  -1  -1   1   11.91    1.35
   1   1  -1   11.27    1.34
   1   1  -1   12.93    1.27
  -1  -1   1   14.35    1.27
   1   1  -1   13.25    1.28
  -1  -1   1   14.04    1.25
   1   1  -1   12.61    1.25
  -1  -1   1   15.62    1.27
   1   1   0    5.17    0.70
   1   1   0    6.29    0.63
  -1  -1   0    6.41    0.61
   1   1   0    6.41    0.61
  -1  -1   0    6.62    0.61
   1   1   0    6.64    0.61
   1   1   1    3.41    0.31
  -1  -1  -1    2.38    0.40
   1   1   1    2.31    0.39
  -1  -1  -2    2.85    0.40
  -1  -1  -2    3.43    0.47
  -1  -1  -2    3.27    0.46
  -1  -1  -2    3.52    0.32
   1   1   2    3.09    0.50
  -1  -1  -2    2.46    0.49
   1   1   3   22.95    2.69
   1   1   3   26.44    2.68
  -1  -1  -3   29.95    2.69
  -1  -1  -3   28.61    2.71
  -1  -1  -3   26.71    2.73
   1   1   3   28.06    2.56
  -1  -1  -3   26.66    2.80
   1   1   3   25.95    2.80
  -1  -1  -4   11.56    1.25
   1   1   4   10.88    1.28
  -1  -1  -4   14.08    1.30
  -1  -1  -4   10.51    1.30
   1   1   4    9.82    1.13
   1   1   4   13.29    1.12
  -1  -1  -4   12.69    1.43
  -1  -1  -5    2.30    0.39
   1   1   5    2.01    0.42
   1   1   5    2.23    0.27
  -1  -1  -5    1.84    0.46
   1   1   5    2.66    0.25
  -1  -1  -5    2.54    0.59
   1   1   6    6.53    0.84
  -1  -1  -6    6.03    0.80
   1   1   6    6.74    0.76
  -1  -1  -6    5.66    0.87
   1   1   6    6.14    0.66
   1   1   6    7.03    0.64
  -1  -1  -6    5.67    0.99
   1   1   7    6.65    0.95
  -1  -1  -7    6.54    0.92
   1   1   7    8.21    0.90
  -1  -1  -7    5.91    0.98
   1   1   7    8.12    1.24
   1   1   7    8.15    0.75
  -1  -1  -8    9.46    1.21
   1   1   8    7.91    1.18
   1   1   8   10.67    1.17
   1   1   8   10.20    1.02
   1   1   8   11.11    1.01
  -1  -1  -9    3.04    0.63
   1   1   9    2.86    0.62
   1   1   9    3.15    0.59
   1   1   9    3.71    0.45
   1   1   9    5.14    0.46
  -1  -1 -10    2.55    0.61
   1   1  10    2.56    0.55
   1   1  10    2.59    0.37
  -1  -1 -11    0.81    0.48
   1   1  11    0.41    0.20
   1   1  11    0.47    0.35
  -1  -1 -12    0.85    0.31
   1   1  12    1.35    0.52
  -1  -1 -12    1.35    0.53
   1   2 -11   19.16    2.00
  -1  -2  11   16.69    1.71
   1   2 -10    2.95    0.45
  -1  -2  10    2.02    0.53
   1   2 -10    3.59    0.66
  -1  -2  10    2.62    0.42
   1   2  -9    1.57    0.35
  -1  -2   9    1.97    0.45
   1   2  -9    1.91    0.52
  -1  -2   9    2.93    0.44
   1   2  -8   15.32    1.56
  -1  -2   8   15.83    1.65
   1   2  -8   16.71    1.71
  -1  -2   8   10.47    1.56
  -1  -2   8   14.44    1.56
   1   2  -7    2.46    0.45
  -1  -2   7    2.58    0.41
  -1  -2   7    2.80    0.44
  -1  -2   7    1.36    0.39
   1   2  -7    3.17    0.53
  -1  -2   7    2.53    0.35
   1   2  -6    0.88    0.29
  -1  -2   6    0.46    0.27
  -1  -2   6    0.84    0.26
   1   2  -6    1.10    0.32
   1   2  -6    0.76    0.14
   1   2  -6    1.05    0.52
  -1  -2   6    1.08    0.19
  -1  -2   5    5.13    0.60
   1   2  -5    5.36    0.59
   1   2  -5    5.77    0.56
  -1  -2   5    3.03    0.55
  -1  -2   5    3.89    0.54
   1   2  -5    4.53    0.58
   1   2  -5    4.85    0.46
   1   2  -5    3.67    0.44
  -1  -2   5    4.98    0.48
   1   2  -5    4.11    0.77
   1   2  -4    2.93    0.42
  -1  -2   4    3.88    0.46
   1   2  -4    3.68    0.42
   1   2  -4    3.78    0.38
  -1  -2   4    3.59    0.43
  -1  -2   4    2.29    0.44
   1   2  -4    3.32    0.43
   1   2  -4    3.16    0.34
   1   2  -4    2.93    0.33
  -1  -2   4    3.44    0.36
   1   2  -4    3.16    0.60
   1   2  -3   16.80    1.52
  -1  -2   3   10.60    1.53
  -1  -2   3   14.38    1.51
   1   2  -3   16.97    1.52
  -1  -2   3   13.81    1.50
   1   2  -3   16.24    1.47
   1   2  -3   16.13    1.49
   1   2  -3   14.93    1.44
   1   2  -3   15.71    1.45
   1   2  -3   15.68    1.46
  -1  -2   3   15.50    1.46
   1   2  -3   17.76    1.68
   1   2  -2    7.32    0.98
   1   2  -2    9.52    0.94
  -1  -2   2    6.59    0.98
  -1  -2   2   10.36    0.95
   1   2  -2    9.70    0.91
   1   2  -2    9.39    0.95
   1   2  -2    9.01    0.89
   1   2  -2    9.84    0.89
   1   2  -2    9.89    1.02
  -1  -2   2    9.73    0.91
  -1  -2   1   12.59    1.59
  -1  -2   1   16.27    1.51
   1   2  -1   15.60    1.51
   1   2  -1   11.19    1.57
   1   2  -1   16.53    1.50
   1   2  -1   15.82    1.53
  -1  -2   1   17.83    1.48
   1   2  -1   15.31    1.48
   1   2  -1   14.44    1.49
   1   2  -1   18.11    1.59
  -1  -2   1   16.75    1.50
  -1  -2   0    0.20    0.06
  -1  -2   0    0.15    0.11
   1   2   0    0.05    0.06
   1   2   0    0.10    0.12
   1   2   0    0.31    0.24
   1   2   0    0.10    0.04
  -1  -2   0    0.28    0.10
  -1  -2   0    0.19    0.04
   1   2   0    0.09    0.05
   1   2   1    7.51    1.03
   1   2   1    9.39    0.91
  -1  -2  -1    7.90    0.96
   1   2   1    9.34    0.99
  -1  -2  -1    7.13    0.99
  -1  -2  -1    9.57    0.95
   1   2   1    8.23    1.00
   1   2   1    9.42    0.89
  -1  -2  -2   19.54    2.03
  -1  -2  -2   18.56    1.86
   1   2   2   20.62    1.87
   1   2   2   22.72    1.99
   1   2   2   20.64    2.03
   1   2   3    1.47    0.26
  -1  -2  -3    1.05    0.30
   1   2   3    0.98    0.34
  -1  -2  -3    0.70    0.16
  -1  -2  -3    1.12    0.28
   1   2   3    1.57    0.32
   1   2   3    1.02    0.34
   1   2   4    2.07    0.37
   1   2   4    1.11    0.38
  -1  -2  -4    2.30    0.43
   1   2   4    1.88    0.46
  -1  -2  -5    1.50    0.34
  -1  -2  -5    1.07    0.25
   1   2   5    0.61    0.31
   1   2   5    0.93    0.28
   1   2   5    0.59    0.12
  -1  -2  -5    0.86    0.34
   1   2   5    0.79    0.32
  -1  -2  -5    1.12    0.48
   1   2   5    1.18    0.42
   1   2   6   31.50    2.77
   1   2   6   27.75    2.79
  -1  -2  -6   24.57    2.69
   1   2   6   25.53    2.83
   1   2   6   22.70    2.53
  -1  -2  -6   25.20    2.79
   1   2   6   27.56    2.96
  -1  -2  -6   26.36    2.93
   1   2   6   30.42    2.52
  -1  -2  -7    1.31    0.36
   1   2   7    1.24    0.45
  -1  -2  -7    2.29    0.56
   1   2   7    1.38    0.21
   1   2   7    1.68    0.19
   1   2   8   23.49    2.35
  -1  -2  -8   22.77    2.43
   1   2   8   22.19    2.48
   1   2   8   23.73    2.20
  -1  -2  -9  160.51   15.97
   1   2   9  155.47   16.00
   1   2   9  157.09   15.88
   1   2   9  170.61   15.73
   1   2   9  176.71   15.71
  -1  -2 -10    0.53    0.41
   1   2  10    0.18    0.42
   1   2  10    0.38    0.31
   1   2  10    0.28    0.15
   1   2  10    0.53    0.15
  -1  -2 -11    1.73    0.55
   1   2  11    1.96    0.28
   1   2  11    1.90    0.49
  -1  -2 -12    0.34    0.47
   1   2  12   -0.11    0.37
  -1  -2 -12    0.44    0.27
   1   2  12    0.54    0.20
  -1  -2 -13    5.26    0.69
   1   3 -11    1.64    0.56
  -1  -3  11    1.66    0.35
   1   3 -10    0.94    0.30
   1   3 -10    0.48    0.45
  -1  -3  10    0.76    0.28
  -1  -3   9    3.15    0.56
   1   3  -9    2.53    0.58
  -1  -3   9    2.95    0.42
  -1  -3   8    6.47    0.80
   1   3  -8    4.60    0.78
  -1  -3   8    6.40    0.68
  -1  -3   7    3.03    0.51
   1   3  -7    3.16    0.52
  -1  -3   7    2.77    0.39
  -1  -3   7    4.07    0.46
   1   3  -6    1.47    0.34
  -1  -3   6    0.97    0.30
  -1  -3   6    1.93    0.35
   1   3  -6    1.53    0.28
   1   3  -6    1.41    0.32
   1   3  -6    1.36    0.59
  -1  -3   5    2.20    0.43
   1   3  -5    2.53    0.42
  -1  -3   5    1.52    0.38
   1   3  -5    3.39    0.43
   1   3  -5    2.87    0.36
  -1  -3   5    2.96    0.44
   1   3  -5    2.50    0.30
   1   3  -5    3.42    0.41
   1   3  -5    2.52    0.65
   1   3  -4    0.10    0.15
  -1  -3   4    0.09    0.17
  -1  -3   4   -0.09    0.22
  -1  -3   4    0.09    0.15
   1   3  -4    0.01    0.11
   1   3  -4    0.02    0.16
   1   3  -4    0.02    0.08
   1   3  -4    0.13    0.10
   1   3  -4    0.05    0.14
   1   3  -4   -0.05    0.31
   1   3  -4   -0.01    0.10
  -1  -3   4    0.22    0.15
   1   3  -4    0.04    0.29
   1   3  -3    4.81    0.53
  -1  -3   3    3.43    0.57
  -1  -3   3    5.15    0.55
   1   3  -3    4.62    0.55
   1   3  -3    4.58    0.50
   1   3  -3    4.56    0.47
   1   3  -3    4.31    0.46
   1   3  -3    5.19    0.70
   1   3  -3    5.18    0.68
   1   3  -3    4.42    0.48
  -1  -3   2    6.31    0.96
  -1  -3   2    9.14    0.90
   1   3  -2    7.50    0.97
   1   3  -2    9.25    0.89
   1   3  -2    9.16    0.88
   1   3  -2    9.58    0.94
   1   3  -2    8.51    0.85
   1   3  -2    8.31    0.86
   1   3  -2    9.64    1.03
   1   3  -1    1.50    0.29
   1   3  -1    1.25    0.17
  -1  -3   1    1.23    0.17
   1   3  -1    1.28    0.16
  -1  -3   1    1.21    0.16
   1   3  -1    1.44    0.21
  -1  -3   1    0.62    0.28
   1   3  -1    0.75    0.27
   1   3  -1    1.28    0.14
  -1  -3   1    1.16    0.14
  -1  -3   1    1.51    0.28
  -1  -3   1    1.43    0.17
   1   3  -1    1.36    0.16
  -1  -3   0    0.54    0.09
  -1  -3   0    0.59    0.18
   1   3   0    0.72    0.21
  -1  -3   0    0.29    0.22
   1   3   0    0.45    0.31
  -1  -3   0    0.49    0.09
   1   3   0    0.50    0.09
  -1  -3   0    0.66    0.08
  -1  -3   0    0.58    0.13
   1   3   0    0.52    0.14
   1   3   0    0.51    0.08
   1   3   0    0.67    0.10
   1   3   0    0.15    0.14
   1   3   1   20.04    2.37
  -1  -3  -1   22.69    2.18
   1   3   1   25.69    2.19
   1   3   1   24.87    2.29
  -1  -3  -1   21.96    2.27
  -1  -3  -1   22.79    2.18
   1   3   1   22.62    2.28
  -1  -3  -1   23.74    2.29
   1   3   1   25.32    2.19
  -1  -3  -1   21.81    2.18
   1   3   1   24.05    2.18
   1   3   1   27.21    2.29
  -1  -3  -1   19.27    2.26
  -1  -3  -2  453.24   44.80
  -1  -3  -2  449.56   44.95
   1   3   2  489.66   44.97
   1   3   2  498.90   44.74
  -1  -3  -2  488.27   44.73
  -1  -3  -2  446.44   44.86
   1   3   2  490.60   44.72
   1   3   2  535.20   44.89
  -1  -3  -2  482.28   44.72
   1   3   2  439.11   44.88
   1   3   2  501.52   44.73
  -1  -3  -2  421.00   44.88
  -1  -3  -3   35.12    3.51
   1   3   3   38.81    3.54
  -1  -3  -3   37.55    3.67
  -1  -3  -3   36.76    3.44
   1   3   3   38.31    3.62
   1   3   3   38.49    3.67
  -1  -3  -3   34.83    3.65
   1   3   4    4.89    0.70
   1   3   4    5.98    0.61
  -1  -3  -4    3.92    0.52
  -1  -3  -4    4.47    0.65
  -1  -3  -4    3.47    0.46
   1   3   4    4.71    0.67
  -1  -3  -4    3.58    0.60
  -1  -3  -4    3.59    0.68
   1   3   4    5.67    0.76
   1   3   5    2.59    0.52
   1   3   5    2.57    0.42
  -1  -3  -5    1.58    0.42
  -1  -3  -5    1.20    0.40
   1   3   5    2.05    0.52
   1   3   6   22.31    1.92
   1   3   6   22.75    2.05
   1   3   6   16.52    1.67
  -1  -3  -6   16.32    1.94
   1   3   6   19.16    2.12
   1   3   7    0.30    0.37
   1   3   7    0.20    0.09
   1   3   7    0.21    0.41
  -1  -3  -7    0.38    0.41
   1   3   7    0.19    0.42
   1   3   8    5.88    0.97
  -1  -3  -8    6.35    0.84
   1   3   8    7.29    1.06
   1   3   8    5.36    0.63
   1   3   8    6.60    1.15
   1   3   8    6.84    0.62
  -1  -3  -9    6.83    0.99
   1   3   9    6.35    1.08
   1   3   9    7.03    0.77
   1   3   9    8.48    0.76
  -1  -3 -10    0.23    0.40
   1   3  10    0.51    0.30
   1   3  10    0.58    0.16
   1   3  10    0.66    0.14
  -1  -3 -11    0.77    0.47
   1   3  11    0.29    0.15
   1   3  11    0.22    0.33
  -1  -3 -12    1.29    0.54
   1   3  12    0.36    0.41
   1   3  12    0.44    0.18
   1   3  13    0.62    0.48
  -1  -3 -13    1.06    0.33
  -1  -4  10    2.94    0.44
   1   4  -9    0.83    0.40
  -1  -4   9    0.23    0.22
   1   4  -8    1.56    0.35
   1   4  -8    1.52    0.43
  -1  -4   8    1.14    0.27
   1   4  -7    2.42    0.42
   1   4  -7    3.34    0.53
  -1  -4   7    3.11    0.40
   1   4  -6    6.04    0.68
   1   4  -6    6.60    0.76
  -1  -4   6    7.53    0.68
   1   4  -6    7.81    1.10
  -1  -4   5    5.76    0.91
   1   4  -5   10.67    0.98
  -1  -4   5    8.33    0.98
   1   4  -5    8.78    0.91
   1   4  -5    9.22    0.86
   1   4  -5    8.96    0.86
  -1  -4   5    8.42    0.89
   1   4  -5    8.37    1.19
  -1  -4   4    0.89    0.26
   1   4  -4    1.00    0.23
  -1  -4   4    0.68    0.29
   1   4  -4    0.79    0.18
   1   4  -4    0.69    0.26
   1   4  -4    0.80    0.14
   1   4  -4    0.72    0.43
  -1  -4   4    1.28    0.20
   1   4  -3    0.23    0.13
  -1  -4   3    0.13    0.15
   1   4  -3    0.41    0.32
  -1  -4   3    0.10    0.24
   1   4  -3    0.10    0.17
   1   4  -3    0.22    0.23
   1   4  -3    0.29    0.12
   1   4  -3    0.21    0.10
   1   4  -3    0.36    0.09
   1   4  -3    0.19    0.26
   1   4  -3    0.18    0.12
  -1  -4   3    0.19    0.11
   1   4  -2    5.69    0.76
   1   4  -2    6.19    0.62
  -1  -4   2    5.38    0.62
  -1  -4   2    3.41    0.70
   1   4  -2    6.66    0.62
   1   4  -2    7.15    0.70
   1   4  -2    5.68    0.59
   1   4  -2    6.09    0.59
   1   4  -2    6.66    0.74
  -1  -4   2    5.62    0.61
   1   4  -2    6.90    0.83
   1   4  -2    6.59    0.61
   1   4  -1    1.15    0.30
  -1  -4   1    0.95    0.15
   1   4  -1    0.86    0.15
   1   4  -1    1.07    0.22
   1   4  -1    0.92    0.36
  -1  -4   1    1.06    0.16
   1   4  -1    1.27    0.16
  -1  -4   1    0.54    0.29
   1   4  -1    1.04    0.16
   1   4  -1    1.02    0.13
  -1  -4   1    0.98    0.13
   1   4  -1    1.16    0.16
   1   4  -1    1.03    0.14
  -1  -4   1    0.97    0.27
  -1  -4   1    0.85    0.15
  -1  -4   0    8.68    0.87
   1   4   0    7.79    1.09
  -1  -4   0    7.45    1.07
  -1  -4   0    8.93    0.88
   1   4   0    9.68    0.88
   1   4   0    9.56    0.95
  -1  -4   0    9.17    0.94
  -1  -4   0    9.15    0.87
   1   4   0    9.18    0.87
   1   4   0   11.91    0.92
   1   4   0    7.85    0.92
   1   4   0    9.12    1.04
  -1  -4   0    8.07    1.01
  -1  -4  -1    3.58    0.65
  -1  -4  -1    3.57    0.46
   1   4   1    4.33    0.69
   1   4   1    4.37    0.44
  -1  -4  -1    4.99    0.44
  -1  -4  -1    4.34    0.54
  -1  -4  -1    4.78    0.44
   1   4   1    4.57    0.56
  -1  -4  -1    3.63    0.51
   1   4   1    4.51    0.54
  -1  -4  -1    4.86    0.61
   1   4   1    4.37    0.43
   1   4   1    4.92    0.58
   1   4   1    4.48    0.45
  -1  -4  -2    7.45    0.88
   1   4   2    9.18    1.13
  -1  -4  -2    8.40    0.83
   1   4   2    9.18    0.84
  -1  -4  -2    9.11    0.84
   1   4   2    8.86    1.00
  -1  -4  -2    8.34    0.98
   1   4   2    7.84    0.83
   1   4   2    8.52    0.99
  -1  -4  -2    9.35    0.83
  -1  -4  -2    8.07    0.99
  -1  -4  -2    8.81    0.98
   1   4   2    8.96    0.82
   1   4   3    1.30    0.46
   1   4   3    1.26    0.26
  -1  -4  -3    0.88    0.35
  -1  -4  -3    1.37    0.22
   1   4   3    1.21    0.18
  -1  -4  -3    1.15    0.15
   1   4   3    1.66    0.36
  -1  -4  -3    0.77    0.29
  -1  -4  -3    1.34    0.38
  -1  -4  -3    1.11    0.13
   1   4   3    1.02    0.33
   1   4   4    0.99    0.27
  -1  -4  -4    0.94    0.35
  -1  -4  -4    0.38    0.18
  -1  -4  -4    0.68    0.13
   1   4   4    0.81    0.33
  -1  -4  -4    0.68    0.40
   1   4   4    1.04    0.37
   1   4   5   21.12    2.27
  -1  -4  -5   22.38    2.26
  -1  -4  -5   20.51    2.06
   1   4   5   21.98    2.11
  -1  -4  -5   18.69    1.96
   1   4   5   21.01    2.23
  -1  -4  -5   20.25    2.19
   1   4   5   22.55    2.31
  -1  -4  -5   21.92    2.33
  -1  -4  -6    3.22    0.63
   1   4   6    2.61    0.50
  -1  -4  -6    2.59    0.43
   1   4   6    2.66    0.64
  -1  -4  -6    2.28    0.55
  -1  -4  -6    2.23    0.63
   1   4   6    3.96    0.72
  -1  -4  -7    0.81    0.29
   1   4   7    1.06    0.51
   1   4   7    1.02    0.16
   1   4   7    1.39    0.56
   1   4   8    0.37    0.45
   1   4   8    0.50    0.46
   1   4   8    0.30    0.11
   1   4   8    0.11    0.54
   1   4   9    1.99    0.68
   1   4   9    2.04    0.26
   1   4  10    2.63    0.33
   1   4  10    2.95    0.32
  -1  -4 -11    0.38    0.41
   1   4  11    0.11    0.13
   1   4  11    0.04    0.28
  -1  -4 -12    3.21    0.70
   1   4  12    1.85    0.53
   1   4  12    2.54    0.32
   1   4  13    1.59    0.53
  -1  -4 -13    1.57    0.35
  -1  -5   9    1.13    0.31
   1   5  -8    0.30    0.27
   1   5  -8    0.04    0.32
  -1  -5   8   -0.09    0.23
   1   5  -7    4.49    0.61
  -1  -5   7    4.30    0.56
   1   5  -6    2.07    0.35
   1   5  -6    2.13    0.41
  -1  -5   6    2.24    0.33
   1   5  -5   10.29    1.06
  -1  -5   5    8.07    1.05
  -1  -5   5   10.31    1.15
   1   5  -5   11.37    1.10
  -1  -5   5   10.75    1.04
   1   5  -5   12.62    1.40
   1   5  -4    3.11    0.37
  -1  -5   4    2.40    0.41
   1   5  -4    2.84    0.38
  -1  -5   4    2.18    0.43
  -1  -5   4    2.81    0.35
   1   5  -4    1.72    0.52
   1   5  -3    3.78    0.57
   1   5  -3    4.03    0.43
   1   5  -3    4.27    0.71
  -1  -5   3    2.69    0.54
  -1  -5   3    3.19    0.44
   1   5  -3    3.89    0.43
  -1  -5   3    3.23    0.40
   1   5  -3    3.49    0.59
  -1  -5   2   16.98    2.04
  -1  -5   2   19.08    1.89
   1   5  -2   19.38    2.07
   1   5  -2   20.18    1.88
   1   5  -2   23.17    2.00
   1   5  -2   19.87    1.89
   1   5  -2   19.25    1.87
   1   5  -2   20.04    1.86
   1   5  -2   24.12    2.18
   1   5  -2   19.83    1.87
  -1  -5   2   18.53    1.88
   1   5  -2   19.93    1.98
   1   5  -1    1.36    0.18
   1   5  -1    1.35    0.40
  -1  -5   1    1.00    0.38
  -1  -5   1    1.32    0.18
   1   5  -1    1.49    0.27
   1   5  -1    1.42    0.19
   1   5  -1    1.02    0.43
   1   5  -1    1.29    0.21
   1   5  -1    1.24    0.17
  -1  -5   1    1.40    0.17
  -1  -5   1    1.41    0.20
   1   5  -1    1.31    0.18
  -1  -5   1    1.90    0.40
   1   5  -1    1.37    0.20
   1   5  -1    1.13    0.23
   1   5   0    1.61    0.39
  -1  -5   0    2.23    0.41
  -1  -5   0    2.02    0.46
   1   5   0    1.30    0.47
   1   5   0    1.56    0.21
  -1  -5   0    2.01    0.22
   1   5   0    1.90    0.31
  -1  -5   0    2.00    0.30
  -1  -5   0    2.23    0.21
   1   5   0    2.16    0.28
   1   5   0    1.30    0.20
  -1  -5  -1   16.78    1.52
   1   5   1   15.15    1.82
  -1  -5  -1   15.01    1.79
  -1  -5  -1   15.50    1.52
   1   5   1   14.93    1.52
  -1  -5  -1   18.00    1.53
  -1  -5  -1   17.98    1.52
  -1  -5  -1   17.03    1.65
   1   5   1   16.17    1.67
   1   5   1   14.90    1.58
   1   5   1   16.88    1.70
  -1  -5  -1   17.23    1.74
   1   5   1   15.47    1.54
   1   5   1   14.85    1.52
  -1  -5  -2    3.12    0.38
  -1  -5  -2    3.32    0.61
   1   5   2    3.17    0.35
   1   5   2    4.16    0.72
  -1  -5  -2    3.68    0.35
  -1  -5  -2    3.73    0.35
  -1  -5  -2    3.33    0.51
   1   5   2    3.53    0.54
  -1  -5  -2    3.55    0.35
   1   5   2    3.13    0.36
  -1  -5  -2    4.25    0.58
  -1  -5  -2    2.89    0.49
   1   5   2    3.42    0.49
   1   5   2    3.24    0.34
  -1  -5  -3    0.25    0.13
  -1  -5  -3    0.28    0.25
  -1  -5  -3    0.19    0.06
   1   5   3    0.20    0.39
   1   5   3    0.24    0.09
   1   5   3    0.22    0.25
  -1  -5  -3    0.52    0.27
  -1  -5  -3    0.22    0.05
  -1  -5  -3    0.23    0.27
   1   5   3    0.04    0.24
  -1  -5  -4    4.46    0.71
   1   5   4    3.57    0.76
   1   5   4    3.45    0.54
  -1  -5  -4    3.43    0.49
  -1  -5  -4    4.23    0.41
  -1  -5  -4    3.78    0.64
   1   5   4    4.62    0.72
  -1  -5  -4    3.96    0.39
   1   5   4    5.09    0.70
  -1  -5  -4    3.80    0.70
  -1  -5  -5   15.70    1.86
   1   5   5   16.93    1.70
  -1  -5  -5   15.23    1.63
  -1  -5  -5   16.39    1.53
   1   5   5   14.66    1.81
  -1  -5  -5   14.44    1.84
   1   5   5   16.50    1.85
  -1  -5  -6    2.96    0.44
   1   5   6    2.22    0.65
  -1  -5  -6    2.47    0.62
   1   5   6    3.71    0.55
  -1  -5  -6    2.36    0.34
  -1  -5  -6    2.03    0.56
   1   5   6    2.76    0.64
  -1  -5  -6    2.51    0.68
   1   5   6    3.64    0.72
  -1  -5  -7    0.65    0.21
  -1  -5  -7    0.91    0.29
   1   5   7    1.10    0.58
  -1  -5  -8    5.55    0.85
   1   5   8    6.72    0.66
   1   5   8    8.16    1.25
  -1  -5  -9    6.63    0.98
   1   5   9    7.58    0.75
   1   5   9    9.42    1.33
  -1  -5 -10    2.64    0.61
   1   5  10    4.36    0.97
   1   5  10    3.54    0.39
   1   5  11    0.15    0.14
   1   5  12    0.09    0.32
  -1  -5 -13    0.47    0.25
   1   5  13   -0.10    0.38
  -1  -5 -14    1.32    0.34
  -1  -6   8    0.59    0.28
   1   6  -7    1.83    0.36
  -1  -6   7    1.72    0.33
   1   6  -6    7.37    0.82
   1   6  -6    7.10    0.85
  -1  -6   6    7.15    0.79
   1   6  -5   10.17    1.01
  -1  -6   5    8.88    1.07
  -1  -6   5    8.03    0.98
   1   6  -5   10.75    1.04
  -1  -6   5    9.94    0.99
   1   6  -4    2.40    0.32
   1   6  -4    1.68    0.29
  -1  -6   4    1.17    0.36
  -1  -6   4    1.38    0.33
   1   6  -4    1.66    0.46
  -1  -6   4    2.16    0.30
   1   6  -3    1.32    0.43
   1   6  -3    1.12    0.22
  -1  -6   3    1.13    0.25
  -1  -6   3    0.91    0.34
   1   6  -3    0.99    0.21
   1   6  -3    0.50    0.30
  -1  -6   3    1.24    0.22
   1   6  -2    3.85    0.74
   1   6  -2    5.06    0.54
   1   6  -2    5.47    0.83
  -1  -6   2    4.77    0.54
   1   6  -2    5.66    0.53
  -1  -6   2    4.06    0.69
  -1  -6   2    5.04    0.54
   1   6  -2    4.40    0.59
  -1  -6   1    3.01    0.64
   1   6  -1    3.84    0.69
   1   6  -1    4.20    0.44
   1   6  -1    3.57    0.68
   1   6  -1    4.67    0.51
  -1  -6   1    4.57    0.43
   1   6  -1    3.47    0.42
  -1  -6   1    3.55    0.65
  -1  -6   0    7.46    1.01
   1   6   0    7.70    1.08
   1   6   0    7.04    0.74
  -1  -6   0    7.94    0.75
   1   6   0    6.99    0.74
   1   6   0    8.11    0.87
  -1  -6   0    8.08    0.74
   1   6   0    7.00    0.73
  -1  -6   0    7.61    0.84
   1   6   0    8.52    0.79
   1   6   0    7.30    0.74
  -1  -6   0    7.51    0.99
   1   6   0    7.67    0.98
   1   6   1  199.81   20.13
  -1  -6  -1  175.44   20.04
   1   6   1  202.27   19.77
  -1  -6  -1  214.60   19.77
   1   6   1  234.31   19.97
  -1  -6  -1  227.05   19.77
  -1  -6  -1  195.66   19.90
   1   6   1  207.35   19.76
   1   6   1  233.02   19.80
  -1  -6  -1  228.03   20.06
   1   6   1  228.79   20.01
  -1  -6  -2   10.09    1.00
   1   6   2   11.09    1.41
  -1  -6  -2   10.24    1.31
   1   6   2   10.15    1.00
  -1  -6  -2   11.16    0.99
  -1  -6  -2   11.05    1.00
  -1  -6  -2    9.99    1.17
   1   6   2   11.53    1.24
   1   6   2    8.88    1.00
   1   6   2    9.90    0.99
   1   6   2   10.50    1.10
  -1  -6  -2    9.26    1.24
  -1  -6  -2   11.55    1.00
  -1  -6  -2    9.00    1.11
  -1  -6  -3    1.28    0.38
  -1  -6  -3    1.26    0.22
   1   6   3    1.48    0.19
  -1  -6  -3    1.23    0.16
   1   6   3    1.32    0.57
   1   6   3    0.94    0.36
  -1  -6  -3    1.07    0.36
   1   6   3    1.43    0.33
  -1  -6  -3    1.29    0.39
  -1  -6  -3    1.41    0.17
   1   6   3    1.36    0.18
  -1  -6  -4    2.24    0.35
   1   6   4    2.75    0.71
   1   6   4    3.18    0.33
  -1  -6  -4    2.37    0.27
   1   6   4    1.94    0.50
  -1  -6  -4    1.81    0.48
   1   6   4    3.02    0.53
  -1  -6  -4    2.62    0.27
  -1  -6  -4    2.33    0.55
   1   6   5   13.02    1.35
  -1  -6  -5   14.24    1.59
  -1  -6  -5   10.89    1.25
  -1  -6  -5   12.06    1.15
   1   6   5   12.33    1.51
  -1  -6  -5   10.62    1.41
  -1  -6  -5   12.01    1.14
   1   6   5   12.07    1.48
  -1  -6  -5   13.08    1.54
   1   6   6    0.08    0.30
  -1  -6  -6    0.93    0.50
  -1  -6  -6    0.34    0.22
  -1  -6  -6    0.57    0.14
   1   6   6    0.66    0.43
   1   6   6    0.53    0.45
  -1  -6  -6    0.58    0.48
  -1  -6  -7    3.22    0.58
  -1  -6  -7    4.91    0.50
   1   6   7    4.65    0.85
   1   6   7    3.05    0.80
  -1  -6  -8    2.90    0.53
  -1  -6  -8    3.80    0.46
  -1  -6  -9    1.35    0.41
   1   6   9    1.09    0.17
  -1  -6  -9    1.05    0.27
  -1  -6 -10    0.45    0.38
   1   6  10    1.10    0.70
   1   6  10    0.89    0.16
  -1  -6 -11   10.13    1.26
   1   6  11    9.22    0.91
   1   6  11   10.56    1.61
  -1  -6 -12    0.59    0.42
  -1  -6 -13    2.24    0.38
   1   7  -7    0.33    0.27
   1   7  -6   65.74    6.05
  -1  -7   6   62.74    6.01
   1   7  -5   12.24    1.27
  -1  -7   5   12.23    1.25
   1   7  -4    1.42    0.28
  -1  -7   4    1.56    0.37
  -1  -7   4    1.20    0.26
  -1  -7   3    2.56    0.50
   1   7  -3    2.92    0.34
   1   7  -3    2.53    0.57
   1   7  -3    2.68    0.37
  -1  -7   2    1.42    0.47
   1   7  -2    2.21    0.61
   1   7  -2    2.81    0.36
   1   7  -2    3.06    0.33
  -1  -7   1    1.06    0.44
   1   7  -1    0.46    0.41
   1   7  -1    1.00    0.19
   1   7  -1    0.98    0.26
  -1  -7   1    1.22    0.18
  -1  -7   1    0.60    0.39
  -1  -7   0    5.11    0.92
   1   7   0    5.12    1.01
   1   7   0    7.05    0.68
   1   7   0    7.51    0.84
  -1  -7   0    6.48    0.78
  -1  -7   0    7.32    0.68
  -1  -7   0    6.87    0.96
   1   7   0    7.59    0.98
   1   7   0    6.06    0.67
   1   7   1   10.01    1.34
  -1  -7  -1    6.64    1.13
  -1  -7  -1    8.44    0.89
   1   7   1    9.27    0.89
   1   7   1    9.75    1.10
  -1  -7  -1    9.27    0.89
  -1  -7  -1    8.61    1.04
  -1  -7  -1    8.64    1.17
   1   7   1    9.56    0.89
   1   7   1   10.74    1.18
  -1  -7  -2   10.58    1.37
  -1  -7  -2    9.47    1.00
   1   7   2   10.55    1.47
  -1  -7  -2    9.42    0.99
   1   7   2   10.80    1.02
  -1  -7  -2   11.37    1.01
  -1  -7  -2   10.75    1.01
  -1  -7  -2    9.17    1.18
   1   7   2   11.20    1.27
  -1  -7  -2   12.39    1.03
   1   7   2   10.53    1.01
  -1  -7  -2   10.98    1.34
   1   7   2   10.62    1.03
  -1  -7  -3    0.60    0.14
  -1  -7  -3   -0.15    0.36
  -1  -7  -3    0.42    0.35
  -1  -7  -3    0.49    0.10
   1   7   3    0.50    0.12
   1   7   3    1.41    0.62
   1   7   3    0.83    0.40
  -1  -7  -3    0.98    0.36
   1   7   3    0.51    0.13
  -1  -7  -3    0.55    0.11
  -1  -7  -4   14.38    1.57
   1   7   4   17.70    1.55
  -1  -7  -4   15.86    1.50
   1   7   4   19.00    1.91
  -1  -7  -4   12.68    1.73
   1   7   4   14.73    1.52
  -1  -7  -4   15.06    1.81
   1   7   4   19.46    1.80
  -1  -7  -4   14.58    1.79
  -1  -7  -4   16.91    1.51
  -1  -7  -5    2.17    0.62
  -1  -7  -5    1.63    0.31
  -1  -7  -5    1.99    0.23
   1   7   5    1.69    0.54
  -1  -7  -5    2.00    0.26
   1   7   5    2.73    0.55
  -1  -7  -5    1.71    0.58
  -1  -7  -5    2.19    0.23
  -1  -7  -6   10.54    1.49
  -1  -7  -6    9.92    1.17
   1   7   6    9.37    1.23
  -1  -7  -6   10.96    1.04
   1   7   6   11.19    1.47
  -1  -7  -6    8.28    1.41
  -1  -7  -6   11.41    1.04
  -1  -7  -7   13.20    1.58
   1   7   7   15.64    1.93
  -1  -7  -7   15.37    1.44
  -1  -7  -7   15.49    1.46
  -1  -7  -8    0.21    0.29
   1   7   8    0.68    0.56
  -1  -7  -8    0.80    0.18
  -1  -7  -9    0.54    0.32
   1   7   9    0.11    0.58
   1   7   9    0.18    0.12
  -1  -7  -9    0.07    0.18
  -1  -7 -10    3.08    0.63
   1   7  10    3.72    0.39
  -1  -7 -11   16.01    1.88
   1   7  11   18.14    2.32
  -1  -7 -12    2.00    0.60
   1   7  12    1.17    0.88
   1   8  -6    0.42    0.28
   1   8  -5    5.00    0.63
   1   8  -4    3.41    0.47
   1   8  -3    1.17    0.27
  -1  -8   3    0.81    0.39
   1   8  -2    0.51    0.20
  -1  -8   2    0.48    0.36
  -1  -8   1    2.41    0.58
   1   8  -1    3.20    0.78
   1   8  -1    3.36    0.40
  -1  -8   1    3.30    0.38
   1   8  -1    3.59    0.50
  -1  -8   1    2.89    0.69
   1   8   0   12.98    1.69
  -1  -8   0   10.91    1.51
   1   8   0   12.48    1.23
   1   8   0   15.48    1.43
  -1  -8   0   11.01    1.32
  -1  -8   0   13.05    1.22
  -1  -8   0   11.14    1.52
  -1  -8  -1    0.72    0.41
  -1  -8  -1    1.53    0.47
   1   8   1    1.71    0.23
   1   8   1    1.63    0.44
  -1  -8  -1    1.76    0.23
  -1  -8  -1    1.74    0.41
  -1  -8  -2    1.33    0.52
  -1  -8  -2    0.92    0.49
  -1  -8  -2    1.77    0.21
   1   8   2    1.41    0.21
  -1  -8  -2    2.20    0.44
   1   8   2    1.01    0.45
  -1  -8  -2    1.52    0.22
   1   8   2    1.35    0.20
  -1  -8  -3    1.39    0.21
  -1  -8  -3    1.34    0.55
  -1  -8  -3    1.01    0.46
   1   8   3    1.78    0.22
  -1  -8  -3    1.85    0.21
  -1  -8  -3    1.75    0.45
   1   8   3    1.58    0.49
  -1  -8  -3    1.80    0.22
  -1  -8  -3    0.97    0.34
  -1  -8  -4   16.57    1.75
  -1  -8  -4   15.50    2.11
   1   8   4   18.77    1.73
  -1  -8  -4   18.04    1.69
   1   8   4   18.30    2.08
  -1  -8  -4   17.14    2.06
  -1  -8  -4   14.73    1.94
  -1  -8  -4   19.27    1.71
  -1  -8  -5    0.34    0.19
  -1  -8  -5   -0.14    0.39
  -1  -8  -5    0.22    0.08
  -1  -8  -5    0.20    0.12
   1   8   5    0.08    0.45
  -1  -8  -5    0.07    0.40
   1   8   5    0.06    0.13
  -1  -8  -5    0.20    0.08
  -1  -8  -6   14.03    1.71
  -1  -8  -6   10.57    1.26
  -1  -8  -6   11.79    1.13
   1   8   6   13.88    1.64
  -1  -8  -6   11.36    1.16
  -1  -8  -6   12.79    1.14
  -1  -8  -6    9.77    1.51
  -1  -8  -7  174.06   17.61
  -1  -8  -7  186.24   17.45
   1   8   7  224.35   18.09
  -1  -8  -7  180.97   17.48
  -1  -8  -7  198.43   17.45
  -1  -8  -8    2.82    0.50
   1   8   8    3.39    0.87
  -1  -8  -8    3.00    0.32
  -1  -8  -8    2.61    0.33
  -1  -8  -9    1.91    0.51
   1   8   9    3.25    0.91
  -1  -8  -9    3.36    0.37
  -1  -8 -10    1.26    0.45
   1   8  10    1.46    0.20
  -1  -8 -11    5.33    0.86
  -1  -8 -12    0.19    0.41
   1   8  12    0.96    0.89
   1   9  -5    1.00    0.35
   1   9  -4    3.63    0.56
   1   9  -3    0.18    0.21
   1   9  -2    0.50    0.21
  -1  -9   2    0.35    0.37
  -1  -9   1    2.31    0.61
   1   9  -1    2.65    0.37
  -1  -9   1    3.27    0.37
  -1  -9   1    3.48    0.76
  -1  -9   0   70.75    8.14
   1   9   0   83.53    7.84
   1   9   0  102.11    8.07
  -1  -9   0   87.70    7.83
  -1  -9   0   75.92    7.94
  -1  -9   0   79.01    8.20
  -1  -9  -1   13.43    1.80
   1   9   1   14.96    1.45
  -1  -9  -1   13.86    1.62
   1   9   1   15.80    1.70
  -1  -9  -1   15.46    1.45
  -1  -9  -1   14.70    1.83
  -1  -9  -2    1.11    0.53
  -1  -9  -2    1.36    0.54
   1   9   2    1.47    0.22
   1   9   2    1.29    0.47
  -1  -9  -2    1.33    0.22
  -1  -9  -2    1.44    0.42
  -1  -9  -3    0.83    0.48
  -1  -9  -3    0.52    0.11
  -1  -9  -3    0.66    0.49
  -1  -9  -3    0.62    0.10
   1   9   3    1.01    0.17
  -1  -9  -3    1.22    0.43
   1   9   3    1.20    0.49
  -1  -9  -3    0.78    0.17
  -1  -9  -4   10.92    1.26
  -1  -9  -4   13.50    1.77
  -1  -9  -4   12.93    1.23
   1   9   4   13.96    1.27
   1   9   4   12.88    1.63
  -1  -9  -4   15.21    1.73
  -1  -9  -4   14.80    1.26
  -1  -9  -4    9.34    1.44
  -1  -9  -5    1.23    0.26
  -1  -9  -5    0.84    0.60
  -1  -9  -5    1.34    0.55
  -1  -9  -5    1.35    0.18
   1   9   5    2.22    0.68
  -1  -9  -5    1.52    0.23
  -1  -9  -5    1.83    0.21
  -1  -9  -5    0.95    0.47
  -1  -9  -6    0.17    0.44
  -1  -9  -6    0.36    0.21
  -1  -9  -6    0.14    0.08
   1   9   6    0.36    0.52
  -1  -9  -6    0.20    0.14
  -1  -9  -6    0.22    0.11
  -1  -9  -6    0.08    0.52
  -1  -9  -7    1.75    0.39
  -1  -9  -7    2.14    0.24
   1   9   7    3.06    0.80
  -1  -9  -7    2.09    0.29
  -1  -9  -7    2.33    0.26
  -1  -9  -8    0.15    0.26
  -1  -9  -8    0.36    0.11
  -1  -9  -8    0.52    0.18
   1   9   8    0.43    0.64
  -1  -9  -8    0.51    0.12
  -1  -9  -9    0.09    0.29
  -1  -9  -9    0.33    0.18
   1   9   9    0.83    0.74
  -1  -9 -10    0.30    0.33
   1   9  10   -0.25    0.75
  -1  -9 -11    0.88    0.40
   1   9  11    2.30    0.93
  -1  -9 -12    5.30    0.88
   1  10  -4 2022.86  186.39
   1  10  -3    0.33    0.26
   1  10  -2    3.31    0.44
   1  10  -1    4.26    0.51
  -1 -10   1    4.01    0.86
  -1 -10   0    6.98    1.14
  -1 -10   0    5.73    1.10
  -1 -10   0    8.49    0.78
   1  10   0    6.86    0.78
  -1 -10  -1    1.04    0.56
  -1 -10  -1    0.43    0.47
   1  10   1    1.26    0.46
  -1 -10  -1    1.12    0.22
  -1 -10  -1    0.64    0.35
   1  10   1    0.77    0.19
  -1 -10  -2    2.22    0.69
  -1 -10  -2    2.71    0.75
  -1 -10  -2    3.31    0.64
  -1 -10  -2    3.57    0.41
   1  10   2    4.72    0.77
   1  10   2    3.44    0.40
  -1 -10  -3    2.83    0.77
  -1 -10  -3    2.91    0.81
   1  10   3    3.08    0.37
   1  10   3    3.25    0.75
  -1 -10  -4   -0.19    0.49
  -1 -10  -4    0.11    0.11
  -1 -10  -4   -0.11    0.56
   1  10   4    0.15    0.15
   1  10   4   -0.08    0.52
  -1 -10  -4    0.07    0.26
  -1 -10  -4    0.15    0.14
  -1 -10  -5    0.32    0.17
  -1 -10  -5    0.47    0.48
   1  10   5    0.62    0.54
  -1 -10  -5    0.36    0.16
  -1 -10  -5   -0.12    0.36
  -1 -10  -5    0.22    0.13
  -1 -10  -6    1.81    0.35
  -1 -10  -6    2.01    0.69
  -1 -10  -6    2.13    0.24
   1  10   6    2.41    0.76
  -1 -10  -6    2.39    0.31
  -1 -10  -6    2.92    0.29
  -1 -10  -6    1.36    0.61
  -1 -10  -7    0.10    0.54
  -1 -10  -7    0.06    0.22
  -1 -10  -7    0.48    0.17
  -1 -10  -7    0.36    0.12
  -1 -10  -8    0.91    0.59
  -1 -10  -8    0.98    0.32
  -1 -10  -8    1.05    0.23
   1  10   8    0.92    0.75
  -1 -10  -9    0.12    0.31
  -1 -10  -9    0.15    0.18
   1  10   9    0.62    0.78
  -1 -10 -10    2.07    0.51
   1  10  10    2.12    0.94
  -1 -10 -10    2.66    0.36
  -1 -10 -11    1.64    0.51
  -1 -10 -11    1.56    0.30
  -1 -10 -12    3.29    0.70
  -1 -10 -12    3.94    0.49
   1  11  -3    0.15    0.27
   1  11  -2   -0.06    0.22
   1  11  -1    4.76    0.58
  -1 -11   1    5.53    1.05
   1  11   0    1.64    0.31
  -1 -11   0    2.40    0.32
  -1 -11   0    2.71    0.76
  -1 -11  -1   -0.19    0.61
  -1 -11  -1    0.39    0.20
   1  11   1    0.58    0.20
  -1 -11  -2    0.58    0.52
  -1 -11  -2    0.54    0.20
   1  11   2    0.61    0.52
  -1 -11  -3    1.50    0.73
   1  11   3    2.17    0.66
  -1 -11  -4    2.99    0.88
   1  11   4    2.49    0.77
  -1 -11  -5    1.38    0.73
  -1 -11  -5    0.66    0.20
   1  11   5    0.47    0.63
  -1 -11  -5    0.83    0.20
  -1 -11  -6    2.69    0.37
  -1 -11  -6    2.02    0.79
   1  11   6    2.88    0.91
  -1 -11  -6    2.06    0.31
  -1 -11  -6    2.10    0.29
  -1 -11  -7    0.43    0.59
  -1 -11  -7    0.47    0.26
  -1 -11  -7    0.74    0.21
   1  11   7    0.11    0.63
  -1 -11  -8    1.21    0.69
  -1 -11  -8    1.32    0.35
  -1 -11  -8    1.37    0.27
   1  11   8    1.82    0.86
  -1 -11  -9    0.50    0.33
  -1 -11  -9    1.37    0.74
  -1 -11  -9    0.70    0.22
   1  11   9    1.31    0.88
  -1 -11 -10    1.96    0.52
  -1 -11 -10    2.80    0.38
   1  11  10    2.36    1.01
  -1 -11 -11    0.66    0.43
  -1 -11 -11    0.24    0.20
  -1 -11 -12   -0.34    0.44
  -1 -12   1   16.34    2.14
  -1 -12   0    4.10    0.95
  -1 -12  -1    0.20    0.62
  -1 -12  -1    0.18    0.21
  -1 -12  -2    1.14    0.69
  -1 -12  -2    1.76    0.30
  -1 -12  -3    3.67    0.96
  -1 -12  -4   -0.33    0.67
   1  12   4    0.83    0.64
  -1 -12  -5    4.47    1.04
   1  12   5    4.13    1.00
  -1 -12  -5    3.82    0.47
  -1 -12  -6    4.71    1.15
   1  12   6    6.70    1.29
  -1 -12  -6    6.11    0.66
  -1 -12  -7    0.12    0.66
   1  12   7   -0.12    0.78
  -1 -12  -7    0.34    0.19
  -1 -12  -8   -0.24    0.70
   1  12   8    0.26    0.77
  -1 -12  -8    0.03    0.19
  -1 -12  -9    6.00    1.30
  -1 -12  -9    6.04    0.67
   1  12   9    6.69    1.43
  -1 -12 -10    0.04    0.31
  -1 -12 -10   -0.38    0.72
  -1 -12 -10   -0.06    0.21
  -1 -12 -11    2.38    0.56
  -1 -13   0    2.66    0.87
  -1 -13  -1    0.54    0.71
  -1 -13  -2    3.86    1.01
  -1 -13  -3    0.34    0.61
  -1 -13  -4    0.71    0.67
  -1 -13  -5    9.67    1.63
   1  13   5   10.79    1.65
  -1 -13  -6    0.38    0.71
   1  13   6    1.85    0.87
  -1 -13  -7    0.26    0.72
   1  13   7    0.38    0.85
  -1 -13  -8    0.66    0.85
   1  13   8    2.02    0.96
  -1 -13  -9    5.93    1.35
  -1 -14  -3   -0.24    0.75
  -1 -14  -4    0.74    0.76
  -1 -14  -5   30.23    3.59
  -1 -14  -6    2.11    0.91
   1  14   7    0.65    0.89
   2 -13  -7    2.97    0.40
   2 -13  -6    1.12    0.26
  -2  13   5    1.13    0.87
   2 -13  -5    1.12    0.27
   2 -13  -5    1.60    0.32
  -2  13   4   -0.36    0.83
   2 -13  -4    0.39    0.25
  -2  13   3    0.45    0.68
   2 -13  -3    0.64    0.29
   2 -13  -2    0.93    0.32
   2 -12 -10   10.45    1.05
   2 -12  -9    1.78    0.28
   2 -12  -8    0.31    0.18
   2 -12  -7    2.69    1.05
   2 -12  -7    1.99    0.31
  -2  12   7    3.69    1.02
   2 -12  -6    1.25    0.85
  -2  12   6   -0.25    0.71
   2 -12  -6    0.40    0.19
   2 -12  -6    0.34    0.21
  -2  12   5    2.63    0.88
   2 -12  -5    1.53    0.27
   2 -12  -5    1.74    0.30
   2 -12  -4   -0.14    0.68
   2 -12  -4    0.16    0.19
  -2  12   4    0.45    0.70
   2 -12  -4    0.07    0.22
   2 -12  -3    1.46    0.77
  -2  12   3    2.97    0.88
   2 -12  -3    3.01    0.39
   2 -12  -3    3.15    0.44
   2 -12  -2   -0.13    0.69
  -2  12   2    0.50    0.65
   2 -12  -2    0.84    0.28
   2 -12  -1    0.89    0.80
   2 -12  -1    0.76    0.28
   2 -12   0    0.12    0.66
   2 -11 -10    1.21    0.47
   2 -11 -10    2.04    0.29
   2 -11  -9    4.19    0.70
   2 -11  -9    4.61    0.51
   2 -11  -8   -0.26    0.71
   2 -11  -8    0.53    0.33
   2 -11  -8    0.21    0.16
  -2  11   8    0.66    0.73
   2 -11  -8    0.27    0.20
   2 -11  -7    1.74    0.41
   2 -11  -7    1.93    0.87
  -2  11   7    1.75    0.89
   2 -11  -7    2.09    0.30
   2 -11  -7    2.48    0.34
   2 -11  -6    0.42    0.26
   2 -11  -6    0.90    0.73
   2 -11  -6    0.68    0.20
  -2  11   6    1.43    0.84
   2 -11  -6    0.76    0.21
   2 -11  -5    1.27    0.78
   2 -11  -5    0.90    0.21
  -2  11   5    2.35    0.87
   2 -11  -5    1.13    0.25
   2 -11  -4   -0.13    0.65
  -2  11   4   -0.21    0.63
   2 -11  -4    0.39    0.18
   2 -11  -4    0.29    0.19
   2 -11  -3    0.50    0.77
   2 -11  -3    0.62    0.20
  -2  11   3    0.20    0.57
   2 -11  -3    0.44    0.20
   2 -11  -2    0.97    0.66
  -2  11   2    0.85    0.64
   2 -11  -2    0.82    0.22
   2 -11  -2    0.92    0.25
   2 -11  -1    4.41    1.16
  -2  11   1    5.66    1.10
   2 -11  -1    6.97    0.74
   2 -11   0   -0.12    0.61
  -2  11   0   -0.08    0.59
   2 -11   0    0.75    0.28
   2 -11   1   -0.12    0.66
   2 -11   2    5.15    1.13
   2 -10 -11    3.14    0.66
   2 -10 -10    1.02    0.42
   2 -10 -10    0.89    0.20
   2 -10  -9    0.55    0.36
  -2  10   9    0.92    0.76
   2 -10  -9    1.00    0.21
   2 -10  -9    1.62    0.27
   2 -10  -8    7.04    1.35
   2 -10  -8    6.95    0.92
   2 -10  -8    8.57    0.79
  -2  10   8    7.70    1.42
   2 -10  -8    6.67    0.74
   2 -10  -7    4.23    1.02
   2 -10  -7    3.16    0.58
   2 -10  -7    3.82    0.46
  -2  10   7    5.81    1.18
   2 -10  -7    5.34    0.51
   2 -10  -6    1.04    0.68
   2 -10  -6    1.22    0.33
  -2  10   6    1.78    0.83
   2 -10  -6    1.54    0.23
   2 -10  -6    1.35    0.25
   2 -10  -5    7.64    0.89
   2 -10  -5    7.09    1.32
   2 -10  -5    7.41    0.80
  -2  10   5    7.88    1.33
   2 -10  -5    9.05    0.84
   2 -10  -4  113.03   11.46
  -2  10   4  134.60   12.00
   2 -10  -4  121.75   11.41
   2 -10  -4  134.68   11.45
   2 -10  -4  114.67   12.01
   2 -10  -3    4.45    1.06
  -2  10   3    5.61    1.08
   2 -10  -3    5.53    0.59
   2 -10  -3    5.70    0.62
   2 -10  -2    0.22    0.57
   2 -10  -2    0.90    0.19
  -2  10   2    0.62    0.63
   2 -10  -2    0.93    0.23
   2 -10  -1    5.62    1.17
  -2  10   1    7.03    1.13
   2 -10  -1    6.92    0.75
   2 -10   0    3.90    1.04
  -2  10   0    6.93    1.09
   2 -10   0    6.50    0.70
   2 -10   1    2.13    0.78
  -2  10  -1    2.15    0.31
  -2  10  -1    1.79    0.62
   2 -10   1    2.76    0.41
  -2  10  -2    1.66    0.28
   2 -10   2    1.39    0.70
  -2  10  -3    5.76    0.67
   2 -10   3    5.88    1.20
  -2  10  -4    2.05    0.38
  -2  10  -5    0.38    0.28
   2  -9 -11   17.28    1.95
   2  -9 -10    1.93    0.50
   2  -9 -10    2.27    0.29
   2  -9  -9    1.35    0.42
   2  -9  -9    1.75    0.25
  -2   9   9    1.24    0.77
   2  -9  -8   14.28    1.59
   2  -9  -8   14.44    1.40
  -2   9   8   16.79    2.10
   2  -9  -7    0.86    0.66
   2  -9  -7    1.79    0.41
   2  -9  -7    2.22    0.30
  -2   9   7    2.12    0.77
   2  -9  -7    2.03    0.26
   2  -9  -6    0.83    0.63
   2  -9  -6    1.43    0.33
  -2   9   6    1.77    0.73
   2  -9  -6    1.60    0.23
   2  -9  -6    2.11    0.28
   2  -9  -5    0.61    0.54
   2  -9  -5    0.43    0.21
  -2   9   5    0.50    0.10
  -2   9   5   -0.20    0.49
   2  -9  -5    0.44    0.15
   2  -9  -5    0.77    0.18
   2  -9  -5    0.45    0.50
   2  -9  -4   12.62    1.14
  -2   9   4   13.60    1.62
   2  -9  -4   11.76    1.06
  -2   9   4    9.03    1.03
   2  -9  -4   10.60    1.57
   2  -9  -4   13.01    1.10
   2  -9  -4    9.14    1.34
   2  -9  -3    5.12    0.53
   2  -9  -3    5.46    1.00
  -2   9   3    5.02    0.94
   2  -9  -3    4.78    0.48
  -2   9   3    3.45    0.45
   2  -9  -3    4.18    0.71
   2  -9  -3    5.17    0.51
   2  -9  -2   -0.10    0.51
  -2   9   2    0.08    0.07
   2  -9  -2    0.16    0.13
  -2   9   2   -0.08    0.47
   2  -9  -2   -0.14    0.24
   2  -9  -2    0.24    0.15
   2  -9  -2   -0.10    0.21
  -2   9   1   19.52    1.93
   2  -9  -1   21.43    1.96
  -2   9   1   23.85    2.40
   2  -9  -1   19.80    2.46
   2  -9  -1   21.62    2.00
   2  -9   0    0.50    0.52
  -2   9   0    0.68    0.15
  -2   9   0    0.77    0.49
   2  -9   0    0.59    0.21
   2  -9   1    6.73    1.20
  -2   9  -1    6.88    0.73
  -2   9  -1    6.52    1.05
   2  -9   1    7.78    0.79
   2  -9   2    5.41    1.08
  -2   9  -2    6.16    0.66
  -2   9  -2    6.36    0.98
  -2   9  -3    2.07    0.32
   2  -9   3    1.29    0.67
  -2   9  -4    0.89    0.27
  -2   9  -5    0.93    0.33
  -2   9  -6    0.56    0.33
   2  -8 -11    1.31    0.51
  -2   8  11    1.06    0.85
   2  -8 -10    5.18    0.77
   2  -8 -10    4.40    0.48
  -2   8  10    4.36    1.11
   2  -8  -9    0.52    0.35
   2  -8  -9    0.59    0.16
   2  -8  -8   12.59    1.41
   2  -8  -8   12.52    1.21
   2  -8  -7    0.22    0.28
   2  -8  -7    0.73    0.15
   2  -8  -6    0.87    0.29
   2  -8  -6    0.63    0.14
  -2   8   6    1.16    0.62
   2  -8  -6    0.69    0.18
   2  -8  -5    5.32    0.72
  -2   8   5    7.79    0.82
   2  -8  -5    6.38    0.67
  -2   8   5    6.42    1.10
   2  -8  -5    6.24    0.63
   2  -8  -5    6.69    1.05
   2  -8  -4    6.85    1.10
  -2   8   4    8.06    0.78
   2  -8  -4    7.02    0.72
  -2   8   4    5.42    0.61
   2  -8  -4    6.50    0.63
  -2   8   4    7.89    1.12
   2  -8  -4    6.75    0.66
   2  -8  -4    6.54    0.96
  -2   8   3    0.22    0.19
   2  -8  -3    0.24    0.16
   2  -8  -3    0.18    0.46
  -2   8   3    0.55    0.51
   2  -8  -3    0.29    0.12
  -2   8   3    0.20    0.09
   2  -8  -3    0.35    0.14
   2  -8  -3    0.24    0.36
   2  -8  -2   11.61    1.12
  -2   8   2   14.98    1.14
  -2   8   2   12.28    1.06
  -2   8   2   10.17    1.04
  -2   8   2   13.90    1.52
   2  -8  -2   11.71    1.08
  -2   8   2   10.12    1.07
   2  -8  -2   11.59    1.11
   2  -8  -2   10.51    1.24
   2  -8  -2   10.71    1.51
   2  -8  -1    3.99    0.83
  -2   8   1    4.53    0.40
  -2   8   1    3.56    0.38
   2  -8  -1    3.51    0.40
  -2   8   1    2.79    0.68
  -2   8   1    3.33    0.40
   2  -8  -1    2.85    0.45
   2  -8  -1    4.19    0.44
  -2   8   0    0.24    0.51
   2  -8   0   -0.09    0.44
  -2   8   0    0.13    0.10
  -2   8   0    0.26    0.38
   2  -8   0   -0.06    0.14
  -2   8  -1   10.45    1.36
  -2   8  -1    8.47    0.90
  -2   8  -1    9.08    1.20
   2  -8   1   10.07    0.95
   2  -8   1    8.16    1.29
  -2   8  -2   69.26    7.14
  -2   8  -2   80.47    7.45
   2  -8   2   88.34    7.20
   2  -8   2   79.29    7.64
  -2   8  -3    3.26    0.42
  -2   8  -3    3.60    0.71
   2  -8   3    3.06    0.78
  -2   8  -4    0.93    0.24
  -2   8  -5    0.63    0.25
  -2   8  -6    1.28    0.37
  -2   8  -7    0.87    0.37
   2  -7 -11    0.48    0.44
   2  -7 -11    1.26    0.21
  -2   7  11    1.52    0.89
   2  -7 -10    0.22    0.39
   2  -7 -10    0.02    0.13
  -2   7  10    0.24    0.68
   2  -7  -9    0.92    0.42
  -2   7   9    1.55    0.73
   2  -7  -9    1.69    0.23
   2  -7  -9    1.59    0.20
   2  -7  -8    0.13    0.26
   2  -7  -8    0.18    0.12
   2  -7  -8    0.21    0.13
   2  -7  -8    0.33    0.09
   2  -7  -7    7.42    0.85
   2  -7  -7    6.48    0.66
   2  -7  -6    1.07    0.31
  -2   7   6    1.61    0.62
   2  -7  -6    1.62    0.20
  -2   7   5    7.52    0.80
   2  -7  -5    5.53    0.74
   2  -7  -5    6.08    0.62
  -2   7   5    7.84    1.12
   2  -7  -5    6.71    1.05
  -2   7   4    1.47    0.30
   2  -7  -4    1.00    0.24
  -2   7   4    1.09    0.53
  -2   7   4    0.75    0.12
   2  -7  -4    0.88    0.15
   2  -7  -4    1.27    0.19
   2  -7  -4    0.99    0.46
   2  -7  -3    0.70    0.20
  -2   7   3    1.31    0.25
   2  -7  -3    0.90    0.15
  -2   7   3    0.82    0.13
  -2   7   3    1.14    0.45
   2  -7  -3    1.13    0.18
   2  -7  -3    1.50    0.44
   2  -7  -2    6.62    0.66
  -2   7   2    7.41    0.66
  -2   7   2    6.50    0.57
  -2   7   2    5.29    0.56
  -2   7   2    5.50    0.59
  -2   7   2    5.64    0.90
   2  -7  -2    7.00    0.60
   2  -7  -2    7.26    0.64
   2  -7  -2    6.85    0.80
  -2   7   1    0.14    0.41
  -2   7   1    0.63    0.15
  -2   7   1    0.69    0.11
  -2   7   1    0.60    0.14
   2  -7  -1    0.65    0.13
   2  -7  -1    0.67    0.37
  -2   7   1    0.43    0.37
   2  -7  -1    0.48    0.24
   2  -7  -1    0.49    0.24
   2  -7  -1    0.69    0.16
  -2   7   0    2.32    0.57
  -2   7   0    1.72    0.20
  -2   7   0    1.51    0.20
   2  -7   0    2.21    0.47
  -2   7   0    2.08    0.53
  -2   7   0    1.67    0.22
   2  -7   0    1.81    0.25
   2  -7   0    0.78    0.24
  -2   7  -1    3.24    0.69
  -2   7  -1    2.33    0.30
  -2   7  -1    2.63    0.62
   2  -7   1    2.57    0.33
  -2   7  -2   10.88    1.22
  -2   7  -2    7.30    0.79
  -2   7  -2    8.58    0.80
  -2   7  -2    8.31    0.85
  -2   7  -2    9.23    1.12
   2  -7   2    9.89    1.26
   2  -7   2   10.75    0.89
  -2   7  -3    0.08    0.11
  -2   7  -3    0.09    0.38
  -2   7  -3    0.16    0.15
  -2   7  -3   -0.11    0.36
   2  -7   3    0.65    0.51
  -2   7  -4    3.89    0.51
  -2   7  -4    5.30    0.77
   2  -7   4    4.77    0.88
  -2   7  -5    9.70    1.12
  -2   7  -5    7.58    0.88
  -2   7  -6    0.55    0.26
  -2   7  -7    1.17    0.33
  -2   6  12   20.61    2.74
   2  -6 -11    6.09    0.89
  -2   6  11    5.83    1.23
   2  -6 -11    5.34    0.60
   2  -6 -10    1.55    0.47
  -2   6  10    0.56    0.68
   2  -6 -10    1.04    0.20
   2  -6  -9    5.02    0.77
  -2   6   9    7.17    1.16
   2  -6  -9    5.15    0.54
   2  -6  -8    0.87    0.34
   2  -6  -8    1.16    0.17
   2  -6  -8    1.02    0.16
   2  -6  -7    4.62    0.63
   2  -6  -7    4.32    0.45
   2  -6  -7    4.28    0.43
   2  -6  -6    1.54    0.35
   2  -6  -6    2.03    0.21
   2  -6  -6    2.11    0.24
  -2   6   5    0.31    0.23
   2  -6  -5    0.49    0.22
   2  -6  -5    0.35    0.10
  -2   6   5    0.15    0.39
   2  -6  -5    0.47    0.46
  -2   6   4    0.49    0.22
   2  -6  -4    0.14    0.15
  -2   6   4    0.78    0.44
   2  -6  -4    0.37    0.09
   2  -6  -4    0.17    0.38
  -2   6   3    0.07    0.36
  -2   6   3   -0.10    0.15
   2  -6  -3    0.20    0.14
  -2   6   3   -0.13    0.33
   2  -6  -3    0.17    0.35
   2  -6  -3    0.08    0.07
  -2   6   3    0.07    0.06
   2  -6  -3    0.10    0.09
  -2   6   2    3.00    0.35
   2  -6  -2    3.27    0.37
  -2   6   2    2.55    0.60
  -2   6   2    2.58    0.59
   2  -6  -2    2.98    0.30
  -2   6   2    2.27    0.29
   2  -6  -2    2.65    0.54
  -2   6   2    2.74    0.30
   2  -6  -2    2.68    0.32
  -2   6   1    3.40    0.62
  -2   6   1    2.62    0.29
   2  -6  -1    1.77    0.28
  -2   6   1    2.36    0.23
  -2   6   1    2.76    0.37
   2  -6  -1    1.68    0.24
  -2   6   1    2.21    0.25
   2  -6  -1    1.88    0.46
  -2   6   1    2.47    0.25
  -2   6   1    2.24    0.52
   2  -6  -1    1.94    0.27
  -2   6   0    3.30    0.62
  -2   6   0    2.65    0.28
  -2   6   0    2.33    0.27
  -2   6   0    3.55    0.44
   2  -6   0    1.84    0.44
  -2   6   0    2.24    0.28
  -2   6   0    2.50    0.27
  -2   6   0    2.39    0.29
  -2   6   0    2.31    0.54
   2  -6   0    1.28    0.35
   2  -6   0    2.33    0.29
  -2   6  -1   17.02    1.72
  -2   6  -1   15.25    1.40
  -2   6  -1   15.72    1.44
  -2   6  -1   14.61    1.41
  -2   6  -1   13.86    1.41
  -2   6  -1   16.52    1.70
   2  -6   1   15.58    1.43
   2  -6   1   11.32    1.46
  -2   6  -2    6.63    0.63
  -2   6  -2    6.12    0.65
  -2   6  -2    6.66    0.89
   2  -6   2    6.20    0.64
  -2   6  -2    6.21    0.86
   2  -6   2    6.10    0.66
   2  -6   2    4.84    0.70
  -2   6  -3    4.12    0.48
  -2   6  -3    4.35    0.67
   2  -6   3    4.00    0.47
  -2   6  -3    5.13    0.72
   2  -6   3    4.48    0.50
   2  -6   3    3.50    0.56
  -2   6  -4    0.75    0.21
  -2   6  -4    0.52    0.22
  -2   6  -4    0.48    0.20
   2  -6   4    0.60    0.18
  -2   6  -4    0.69    0.41
  -2   6  -4    0.69    0.34
  -2   6  -5    4.23    0.53
  -2   6  -5    4.68    0.71
  -2   6  -5    3.79    0.51
  -2   6  -6    0.22    0.24
  -2   6  -6    0.15    0.35
  -2   6  -6    0.02    0.21
  -2   6  -7    0.34    0.25
  -2   6  -8    0.80    0.33
  -2   5  12    2.21    0.91
   2  -5 -12    0.80    0.24
  -2   5  11    7.46    1.33
   2  -5 -11    5.44    0.62
   2  -5 -10    1.46    0.49
  -2   5  10    2.75    0.85
   2  -5 -10    1.81    0.28
   2  -5  -9    0.45    0.35
  -2   5   9    0.10    0.58
   2  -5  -9    0.31    0.15
   2  -5  -8    0.04    0.26
  -2   5   8   -0.27    0.51
   2  -5  -8    0.01    0.11
   2  -5  -7    2.82    0.49
  -2   5   7    3.92    0.81
   2  -5  -7    3.08    0.34
   2  -5  -6    8.68    0.94
   2  -5  -6    8.12    0.76
   2  -5  -6    7.55    0.76
  -2   5   5    2.20    0.36
   2  -5  -5    1.51    0.32
   2  -5  -5    1.64    0.18
   2  -5  -5    1.68    0.20
  -2   5   4    2.04    0.32
  -2   5   4    2.19    0.54
   2  -5  -4    1.50    0.28
   2  -5  -4    1.36    0.46
   2  -5  -4    1.41    0.17
  -2   5   4    2.29    0.53
  -2   5   3   18.43    1.74
  -2   5   3   16.55    1.44
   2  -5  -3   14.90    1.42
   2  -5  -3   13.23    1.33
  -2   5   3   14.43    1.64
   2  -5  -2    1.19    0.38
  -2   5   2    1.41    0.44
  -2   5   2    1.71    0.23
   2  -5  -2    1.02    0.21
   2  -5  -2    1.09    0.15
   2  -5  -2    0.94    0.35
  -2   5   2    1.61    0.16
  -2   5   2    1.14    0.15
  -2   5   2    1.63    0.44
   2  -5  -2    1.04    0.17
  -2   5   1    7.06    0.69
   2  -5  -1    6.81    0.71
  -2   5   1    7.61    0.76
  -2   5   1    7.60    0.95
  -2   5   1    6.22    0.66
   2  -5  -1    6.49    0.66
  -2   5   1    7.06    0.66
   2  -5  -1    5.91    0.85
   2  -5  -1    6.50    0.68
   2  -5  -1    8.17    0.99
  -2   5   0   31.43    2.50
  -2   5   0   25.05    2.19
  -2   5   0   27.29    2.29
   2  -5   0   23.05    2.17
  -2   5   0   22.89    2.17
   2  -5   0   20.20    2.34
  -2   5   0   22.09    2.41
  -2   5   0   23.61    2.16
  -2   5   0   27.49    2.49
   2  -5   0   14.12    2.24
   2  -5   0   21.68    2.46
   2  -5   0   23.23    2.18
  -2   5  -1  277.37   23.52
  -2   5  -1  267.16   23.29
  -2   5  -1  268.03   23.40
  -2   5  -1  246.87   23.27
  -2   5  -1  243.27   23.28
   2  -5   1  251.98   23.28
  -2   5  -1  255.85   23.52
  -2   5  -1  273.52   23.62
   2  -5   1  244.17   23.29
  -2   5  -2    4.21    0.47
  -2   5  -2    4.72    0.64
  -2   5  -2    4.61    0.51
  -2   5  -2    4.34    0.76
  -2   5  -2    5.05    0.58
  -2   5  -2    3.81    0.44
   2  -5   2    3.79    0.44
  -2   5  -2    4.71    0.67
  -2   5  -2    4.19    0.43
   2  -5   2    2.84    0.55
  -2   5  -2    4.73    0.46
   2  -5   2    4.09    0.46
  -2   5  -3    0.59    0.32
  -2   5  -3    0.59    0.20
   2  -5   3    0.44    0.24
  -2   5  -3    0.75    0.33
   2  -5   3    0.39    0.14
   2  -5   3    0.55    0.16
   2  -5   3    0.33    0.29
  -2   5  -3    0.44    0.29
  -2   5  -4    0.49    0.21
   2  -5   4    0.58    0.27
  -2   5  -4    0.32    0.15
  -2   5  -4    0.36    0.30
   2  -5   4    0.39    0.15
   2  -5   4    0.20    0.29
  -2   5  -4    0.72    0.38
  -2   5  -5    9.96    1.00
   2  -5   5    8.40    1.07
   2  -5   5    9.10    0.93
  -2   5  -5   10.21    1.14
  -2   5  -5    7.12    1.14
   2  -5   5    8.04    1.14
  -2   5  -6    6.68    0.81
  -2   5  -6    7.31    0.94
   2  -5   6    5.83    0.87
  -2   5  -7    0.18    0.30
  -2   5  -7    0.31    0.39
  -2   5  -7    0.20    0.24
   2  -5   7   -0.05    0.32
  -2   5  -8    3.43    0.57
   2  -5   8    2.74    0.61
  -2   5  -8    2.86    0.47
   2  -5   9    1.04    0.50
  -2   5  -9    0.34    0.29
   2  -4 -13    1.97    0.36
  -2   4  12    0.58    0.71
   2  -4 -12    0.39    0.22
   2  -4 -11    0.06    0.39
  -2   4  11    0.87    0.73
   2  -4 -11    0.49    0.20
  -2   4  10    7.18    1.21
   2  -4 -10    5.74    0.64
  -2   4   9    1.50    0.31
   2  -4  -9    1.07    0.22
  -2   4   8    3.27    0.76
   2  -4  -8    2.68    0.33
   2  -4  -7    1.98    0.41
  -2   4   7    1.99    0.58
   2  -4  -7    2.06    0.26
   2  -4  -6  284.24   24.34
   2  -4  -6  254.25   24.16
  -2   4   6  301.85   24.62
  -2   4   5   27.72    2.25
   2  -4  -5   24.01    2.23
   2  -4  -5   21.57    2.07
   2  -4  -5   21.39    2.07
   2  -4  -5   22.61    2.40
  -2   4   5   24.69    2.46
   2  -4  -5   26.49    2.50
   2  -4  -4    0.14    0.16
  -2   4   4    0.09    0.18
   2  -4  -4    0.10    0.06
   2  -4  -4    0.16    0.27
   2  -4  -4    0.10    0.05
  -2   4   3   23.85    2.00
   2  -4  -3   20.87    1.99
   2  -4  -3   19.66    1.89
   2  -4  -3   19.01    2.13
  -2   4   3   20.64    2.17
   2  -4  -3   20.33    1.88
  -2   4   2    1.08    0.20
   2  -4  -2    1.36    0.37
   2  -4  -2    0.91    0.18
   2  -4  -2    0.98    0.13
  -2   4   2    1.23    0.13
  -2   4   2    1.26    0.34
   2  -4  -1    7.45    0.76
  -2   4   1    7.79    0.75
  -2   4   1    7.76    0.71
  -2   4   1    7.43    0.78
  -2   4   1    7.54    0.70
  -2   4   1    5.63    0.70
   2  -4  -1    7.95    0.70
  -2   4   1    7.20    0.93
   2  -4  -1    7.82    0.73
   2  -4  -1    7.14    0.90
   2  -4  -1    7.56    0.70
   2  -4  -1    7.47    0.95
  -2   4   0    2.28    0.47
  -2   4   0    2.02    0.24
   2  -4   0    1.46    0.40
  -2   4   0    1.93    0.30
  -2   4   0    1.65    0.21
  -2   4   0    1.80    0.20
   2  -4   0    2.13    0.40
  -2   4   0    2.82    0.46
   2  -4   0    2.04    0.21
   2  -4   0    0.89    0.29
   2  -4   0    1.95    0.23
  -2   4  -1   17.64    1.50
  -2   4  -1   20.63    1.69
  -2   4  -1   17.48    1.56
  -2   4  -1   14.51    1.46
   2  -4   1   13.92    1.46
  -2   4  -1   16.21    1.67
  -2   4  -1   16.38    1.45
   2  -4   1   14.89    1.71
   2  -4   1   13.66    1.46
  -2   4  -1   16.72    1.73
  -2   4  -2    6.75    0.71
  -2   4  -2    6.34    0.65
  -2   4  -2    5.81    0.66
  -2   4  -2    5.00    0.56
  -2   4  -2    5.53    0.54
   2  -4   2    5.45    0.56
  -2   4  -2    6.63    0.76
  -2   4  -2    5.03    0.55
  -2   4  -2    4.26    0.67
  -2   4  -2    5.74    0.56
  -2   4  -2    6.87    0.86
   2  -4   2    4.75    0.76
   2  -4   2    3.93    0.68
   2  -4   2    5.91    0.57
  -2   4  -3    4.85    0.76
  -2   4  -3    5.36    0.58
  -2   4  -3    5.63    0.59
  -2   4  -3    4.47    0.57
   2  -4   3    4.30    0.59
  -2   4  -3    4.55    0.65
   2  -4   3    4.67    0.48
  -2   4  -3    4.33    0.45
  -2   4  -3    3.52    0.62
   2  -4   3    2.39    0.61
  -2   4  -3    4.53    0.47
   2  -4   3    5.02    0.72
  -2   4  -3    4.09    0.46
  -2   4  -4    4.75    0.61
   2  -4   4    4.25    0.63
  -2   4  -4    5.20    0.69
   2  -4   4    4.09    0.50
   2  -4   4    3.19    0.69
  -2   4  -4    4.52    0.75
  -2   4  -5    5.35    0.64
   2  -4   5    4.60    0.66
   2  -4   5    4.61    0.52
   2  -4   5    4.41    0.80
  -2   4  -5    4.07    0.81
   2  -4   6    6.20    0.91
  -2   4  -6    8.81    0.90
   2  -4   6    5.64    1.05
  -2   4  -6    7.51    1.12
  -2   4  -7    0.92    0.34
   2  -4   7    0.66    0.22
   2  -4   7    0.96    0.41
  -2   4  -8    1.93    0.46
   2  -4   8    1.90    0.30
  -2   4  -9    1.23    0.44
  -2   4  -9    0.65    0.29
   2  -4   9    0.48    0.43
   2  -4  10    0.19    0.42
   2  -3 -12    2.17    0.37
  -2   3  12    2.03    0.86
   2  -3 -11    1.97    0.59
   2  -3 -11    1.53    0.33
  -2   3  11    3.18    0.91
  -2   3  11    2.51    0.35
   2  -3 -10   17.97    2.03
   2  -3 -10   16.13    1.80
  -2   3  10   20.42    2.31
  -2   3  10   20.62    1.80
   2  -3  -9    4.04    0.68
  -2   3   9    5.11    0.92
  -2   3   9    3.82    0.54
   2  -3  -9    3.87    0.47
   2  -3  -8    1.12    0.37
  -2   3   8    0.31    0.43
   2  -3  -8    0.75    0.18
  -2   3   8    1.08    0.24
  -2   3   7    3.03    0.68
   2  -3  -7    3.37    0.38
   2  -3  -6    6.78    0.96
  -2   3   6    8.67    1.06
   2  -3  -6    6.41    0.67
  -2   3   5   20.55    1.93
  -2   3   5   18.12    2.09
   2  -3  -5   19.61    2.07
   2  -3  -5   18.73    1.79
   2  -3  -4    6.00    0.65
   2  -3  -4    5.11    0.77
  -2   3   4    4.75    0.79
   2  -3  -4    5.14    0.53
  -2   3   3   52.71    4.07
   2  -3  -3   44.63    4.06
   2  -3  -3   44.50    4.20
   2  -3  -3   41.81    3.95
   2  -3  -3   42.17    3.96
   2  -3  -2    0.33    0.13
  -2   3   2    0.24    0.12
  -2   3   2    0.29    0.05
   2  -3  -2    0.42    0.06
   2  -3  -2    0.33    0.06
   2  -3  -2    0.36    0.05
  -2   3   2    0.31    0.06
  -2   3   2    0.40    0.23
   2  -3  -2    0.40    0.26
  -2   3   1   18.51    1.70
   2  -3  -1   17.13    1.70
  -2   3   1   17.81    1.64
  -2   3   1   18.88    1.70
   2  -3  -1   18.11    1.64
  -2   3   1   17.45    1.84
   2  -3  -1   16.89    1.64
  -2   3   1   17.45    1.64
   2  -3  -1   16.78    1.83
   2  -3   0   12.52    1.25
  -2   3   0   12.78    1.24
  -2   3   0   14.70    1.28
  -2   3   0   11.45    1.20
   2  -3   0   13.56    1.20
   2  -3   0   12.96    1.36
  -2   3   0   13.08    1.38
  -2   3   0   12.79    1.19
   2  -3   0   12.29    1.21
   2  -3   0   14.11    1.43
  -2   3  -1    4.08    0.43
  -2   3  -1    4.81    0.47
  -2   3  -1    3.82    0.37
  -2   3  -1    3.49    0.38
   2  -3   1    3.85    0.38
  -2   3  -1    3.38    0.38
  -2   3  -1    3.94    0.55
   2  -3   1    2.97    0.51
   2  -3   1    3.40    0.55
   2  -3   1    3.69    0.39
   2  -3   2    0.25    0.25
  -2   3  -2    0.59    0.19
  -2   3  -2    0.66    0.12
  -2   3  -2    0.65    0.25
  -2   3  -2    0.55    0.26
  -2   3  -2    0.66    0.11
   2  -3   2    0.70    0.29
  -2   3  -3    6.40    0.66
  -2   3  -3    6.31    0.59
   2  -3   3    4.28    0.61
  -2   3  -3    5.47    0.61
   2  -3   3    4.70    0.51
   2  -3   3    5.35    0.73
  -2   3  -3    4.55    0.50
   2  -3   3    3.46    0.70
  -2   3  -3    5.09    0.51
  -2   3  -4   11.52    1.20
   2  -3   4   11.21    1.21
   2  -3   4   10.21    1.07
  -2   3  -4    9.97    1.07
  -2   3  -4   11.32    1.33
   2  -3   4    9.50    1.34
  -2   3  -4    9.97    1.06
  -2   3  -4   10.57    1.33
   2  -3   5    2.52    0.49
  -2   3  -5    3.48    0.51
  -2   3  -5    2.71    0.66
   2  -3   5    2.00    0.63
  -2   3  -5    3.64    0.37
   2  -3   6   20.77    2.34
  -2   3  -6   21.22    2.31
   2  -3   6   19.38    2.51
  -2   3  -6   24.42    2.17
  -2   3  -6   22.46    2.57
  -2   3  -7  183.67   16.17
   2  -3   7  156.46   16.18
   2  -3   7  170.51   16.01
  -2   3  -7  214.76   16.37
   2  -3   7  151.51   16.41
  -2   3  -8    0.14    0.29
   2  -3   8    0.23    0.18
   2  -3   8    0.27    0.31
  -2   3  -9    0.72    0.40
   2  -3   9    1.12    0.25
   2  -3   9    0.47    0.37
  -2   3 -10    0.88    0.48
   2  -3  10    0.57    0.24
   2  -3  10    0.25    0.41
  -2   3 -10    0.62    0.30
   2  -3  11    6.37    1.13
  -2   3 -11    9.17    1.14
   2  -2 -12    1.44    0.34
   2  -2 -11    1.59    0.54
   2  -2 -11    1.58    0.34
  -2   2  11    2.16    0.75
  -2   2  11    1.94    0.33
   2  -2 -10    9.09    1.16
   2  -2 -10    7.05    0.91
  -2   2  10    9.58    1.38
  -2   2  10   10.15    0.92
   2  -2  -9    0.77    0.39
   2  -2  -9    1.43    0.26
  -2   2   9    1.38    0.33
  -2   2   9    1.23    0.60
  -2   2   9    1.53    0.26
   2  -2  -8    1.41    0.39
   2  -2  -8    0.76    0.17
   2  -2  -8    0.67    0.19
  -2   2   8    1.13    0.26
   2  -2  -7    3.51    0.53
   2  -2  -7    3.17    0.32
  -2   2   7    2.58    0.65
  -2   2   7    2.51    0.38
   2  -2  -7    2.58    0.35
   2  -2  -6    2.06    0.41
   2  -2  -6    2.21    0.25
  -2   2   6    2.36    0.53
   2  -2  -6    2.44    0.54
  -2   2   6    2.70    0.32
   2  -2  -6    2.33    0.29
  -2   2   5    1.59    0.30
   2  -2  -5    1.51    0.30
   2  -2  -5    1.23    0.14
  -2   2   5    0.51    0.33
   2  -2  -5    1.14    0.42
   2  -2  -5    1.07    0.17
  -2   2   4   12.84    1.16
   2  -2  -4   10.74    1.01
   2  -2  -4   11.51    1.26
  -2   2   4   12.40    1.28
   2  -2  -4   10.16    1.03
  -2   2   3    3.82    0.42
   2  -2  -3    3.05    0.30
  -2   2   3    3.25    0.52
   2  -2  -3    3.19    0.52
   2  -2  -3    3.03    0.32
  -2   2   3    3.62    0.33
  -2   2   2    2.88    0.32
   2  -2  -2    2.15    0.22
   2  -2  -2    2.29    0.40
   2  -2  -2    2.17    0.23
  -2   2   2    2.67    0.24
   2  -2  -1   20.91    2.00
  -2   2   1   20.23    1.99
   2  -2  -1   21.58    1.95
  -2   2   1   21.47    1.97
  -2   2   1   21.13    1.94
  -2   2   1   19.96    2.10
  -2   2   1   19.95    1.93
   2  -2  -1   21.47    1.93
   2  -2  -1   20.81    2.10
   2  -2   0  419.61   42.29
  -2   2   0  450.37   42.28
  -2   2   0  461.21   42.26
  -2   2   0  456.37   42.28
   2  -2   0  438.64   42.28
  -2   2   0  458.93   42.23
   2  -2   0  484.31   42.24
  -2   2   0  460.19   42.39
   2  -2   0  466.49   42.40
  -2   2  -1   32.69    2.87
  -2   2  -1   32.35    2.88
  -2   2  -1   29.17    2.82
   2  -2   1   30.12    2.82
  -2   2  -1   30.93    2.96
   2  -2   1   25.38    2.95
   2  -2   1   33.01    2.99
   2  -2   2    1.30    0.27
  -2   2  -2    0.65    0.16
   2  -2   2    0.84    0.12
   2  -2   2    0.71    0.28
  -2   2  -2    0.55    0.10
  -2   2  -2    0.76    0.29
  -2   2  -3    5.12    0.60
  -2   2  -3    3.50    0.50
  -2   2  -3    4.96    0.55
   2  -2   3    5.26    0.58
   2  -2   3    5.53    0.49
  -2   2  -3    3.81    0.48
  -2   2  -3    4.60    0.47
  -2   2  -3    4.66    0.46
   2  -2   3    4.34    0.70
   2  -2   3    6.28    0.68
  -2   2  -4   13.68    1.40
   2  -2   4   13.99    1.39
   2  -2   4   11.38    1.26
  -2   2  -4   12.17    1.26
  -2   2  -4   12.37    1.53
   2  -2   4   10.66    1.52
  -2   2  -4   11.65    1.25
  -2   2  -5    5.22    0.67
   2  -2   5    4.49    0.62
  -2   2  -5    4.98    0.52
  -2   2  -5    5.30    0.49
  -2   2  -5    4.39    0.49
  -2   2  -5    3.79    0.78
   2  -2   5    3.47    0.80
  -2   2  -6   11.00    1.26
   2  -2   6   10.66    1.26
  -2   2  -6   12.19    1.38
   2  -2   6   10.41    1.11
  -2   2  -6    9.80    1.45
  -2   2  -6   12.14    1.09
   2  -2   6   10.20    1.48
  -2   2  -7   14.01    1.51
   2  -2   7   11.03    1.46
  -2   2  -7   15.25    1.64
   2  -2   7   12.16    1.32
  -2   2  -7   14.81    1.31
   2  -2   7   13.44    1.77
  -2   2  -8    1.07    0.36
   2  -2   8    1.27    0.39
   2  -2   8    1.04    0.23
   2  -2   8    1.52    0.64
  -2   2  -9    1.93    0.50
   2  -2   9    2.04    0.31
   2  -2   9    0.98    0.42
  -2   2 -10    3.74    0.71
   2  -2  10    3.08    0.42
   2  -2  10    2.16    0.65
  -2   2 -11    0.68    0.50
   2  -2  11    0.76    0.27
   2  -2  11    1.11    0.53
  -2   2 -12    3.22    0.73
   2  -1 -11   -0.02    0.23
   2  -1 -11    0.06    0.43
  -2   1  11   -0.10    0.22
   2  -1 -10    0.69    0.25
   2  -1 -10    0.52    0.40
  -2   1  10    1.14    0.24
   2  -1  -9    5.72    0.84
  -2   1   9    5.50    0.73
   2  -1  -9    4.95    0.65
  -2   1   9    6.98    1.05
  -2   1   9    6.73    0.65
   2  -1  -8    6.12    0.89
   2  -1  -8    5.86    0.73
  -2   1   8    6.38    0.78
  -2   1   8    8.01    1.10
   2  -1  -8    6.74    0.69
  -2   1   8    8.42    0.74
   2  -1  -7    7.31    0.87
   2  -1  -7    7.40    0.66
  -2   1   7    6.38    0.96
   2  -1  -7    5.64    0.92
   2  -1  -7    5.88    0.70
  -2   1   7    5.83    0.73
   2  -1  -6    1.06    0.31
   2  -1  -6    1.16    0.16
  -2   1   6    1.60    0.45
   2  -1  -6    0.67    0.34
   2  -1  -6    0.96    0.18
  -2   1   6    1.12    0.22
   2  -1  -5    0.69    0.24
   2  -1  -5    0.64    0.11
  -2   1   5    0.68    0.30
   2  -1  -5    0.59    0.30
  -2   1   5    0.54    0.15
   2  -1  -5    0.57    0.13
   2  -1  -4   15.66    1.54
   2  -1  -4   16.27    1.42
   2  -1  -4   15.65    1.63
  -2   1   4   14.28    1.62
  -2   1   4   13.07    1.44
   2  -1  -4   14.98    1.45
  -2   1   3    8.10    0.81
   2  -1  -3    8.04    0.81
  -2   1   3    7.16    0.88
   2  -1  -3    7.61    0.89
   2  -1  -3    7.11    0.73
  -2   1   3    7.49    0.72
  -2   1   3    7.54    0.73
   2  -1  -2    6.49    0.70
  -2   1   2    6.67    0.69
   2  -1  -2    8.06    0.81
  -2   1   2    7.23    0.79
  -2   1   2    6.35    0.63
   2  -1  -2    6.50    0.63
  -2   1   1    0.09    0.10
  -2   1   1    0.07    0.04
  -2   1   1    0.13    0.05
   2  -1  -1    0.05    0.04
  -2   1   1    0.07    0.02
   2  -1  -1    0.05    0.18
  -2   1   0   15.50    1.50
   2  -1   0   16.03    1.47
  -2   1   0   14.61    1.46
  -2   1   0   14.80    1.47
   2  -1   0   16.95    1.48
   2  -1   0   15.28    1.57
  -2   1   0   13.93    1.56
   2  -1   0   18.83    1.57
  -2   1  -1    6.76    0.67
  -2   1  -1    6.89    0.68
  -2   1  -1    5.74    0.74
  -2   1  -1    5.44    0.77
   2  -1   1    7.65    0.76
  -2   1  -2    2.82    0.42
  -2   1  -2    3.86    0.39
   2  -1   2    2.94    0.33
   2  -1   2    2.69    0.51
   2  -1   2    3.79    0.45
  -2   1  -2    3.07    0.32
  -2   1  -3   39.52    3.54
  -2   1  -3   30.60    3.45
   2  -1   3   37.16    3.48
   2  -1   3   33.46    3.40
  -2   1  -3   40.88    3.39
  -2   1  -3   35.40    3.39
  -2   1  -3   35.58    3.64
   2  -1   3   37.21    3.39
   2  -1   3   29.51    3.62
   2  -1   4    1.94    0.34
  -2   1  -4    2.30    0.33
  -2   1  -4    2.00    0.38
  -2   1  -4    2.12    0.25
  -2   1  -4    2.50    0.52
   2  -1   4    2.53    0.56
  -2   1  -4    3.04    0.27
   2  -1   5    2.17    0.36
  -2   1  -5    1.84    0.38
  -2   1  -5    1.72    0.52
  -2   1  -5    1.73    0.22
   2  -1   5    2.09    0.58
  -2   1  -5    2.15    0.22
  -2   1  -6    8.68    0.91
   2  -1   6    6.62    0.83
   2  -1   6    6.19    0.69
  -2   1  -6    7.12    0.96
  -2   1  -6    6.76    0.67
   2  -1   6    5.92    0.66
   2  -1   6    6.56    1.08
  -2   1  -6    5.95    1.03
  -2   1  -6    8.07    0.67
  -2   1  -7    3.42    0.54
   2  -1   7    2.65    0.51
   2  -1   7    2.94    0.37
  -2   1  -7    3.03    0.66
   2  -1   7    2.39    0.71
   2  -1   7    3.11    0.33
  -2   1  -8    4.26    0.66
   2  -1   8    3.70    0.63
   2  -1   8    3.83    0.46
   2  -1   8    3.66    0.41
   2  -1   8    4.20    0.94
  -2   1  -9    0.79    0.39
   2  -1   9    0.76    0.37
   2  -1   9    0.50    0.19
   2  -1   9    0.58    0.16
   2  -1   9    0.62    0.64
  -2   1 -10    3.06    0.62
   2  -1  10    2.75    0.57
   2  -1  10    2.73    0.36
   2  -1  10    1.97    0.30
  -2   1 -11    1.74    0.58
   2  -1  11    1.64    0.31
   2  -1  11    0.80    0.51
   2  -1  12    5.05    1.05
   2  -1  12    6.72    0.76
   2   0 -11    1.62    0.38
   2   0 -11    2.54    0.65
  -2   0  11    2.99    0.40
  -2   0  10    0.68    0.47
   2   0 -10    0.92    0.27
   2   0 -10    0.63    0.38
  -2   0  10    0.74    0.24
  -2   0   9    5.31    0.63
   2   0  -9    3.93    0.54
   2   0  -9    4.28    0.72
  -2   0   9    4.35    0.51
   2   0  -8    1.28    0.40
  -2   0   8    1.50    0.33
   2   0  -8    1.51    0.27
   2   0  -8    1.31    0.50
  -2   0   8    1.16    0.50
  -2   0   8    1.74    0.27
   2   0  -7    4.13    0.61
  -2   0   7    4.00    0.52
   2   0  -7    3.68    0.48
  -2   0   7    3.42    0.68
   2   0  -7    4.17    0.44
   2   0  -7    4.19    0.69
  -2   0   7    4.43    0.47
   2   0  -6    1.02    0.29
   2   0  -6    0.93    0.20
  -2   0   6    1.61    0.26
   2   0  -6    1.16    0.42
  -2   0   6    1.34    0.39
   2   0  -6    1.00    0.17
  -2   0   6    1.67    0.22
   2   0  -5    3.96    0.52
  -2   0   5    4.75    0.54
  -2   0   5    3.92    0.44
   2   0  -5    3.57    0.41
   2   0  -5    3.42    0.37
  -2   0   5    2.85    0.54
   2   0  -5    3.48    0.57
   2   0  -5    4.47    0.75
   2   0  -4   14.85    1.45
  -2   0   4   16.61    1.46
   2   0  -4   14.24    1.32
   2   0  -4   14.76    1.50
  -2   0   4   14.01    1.50
  -2   0   4   13.43    1.36
   2   0  -4   12.78    1.35
   2   0  -3    1.38    0.24
  -2   0   3    1.06    0.28
   2   0  -3    1.38    0.31
  -2   0   3    1.48    0.18
   2   0  -3    1.36    0.18
  -2   0   3    1.50    0.18
   2   0  -2    1.77    0.25
   2   0  -2    1.52    0.15
   2   0  -2    1.50    0.28
  -2   0   2    1.64    0.29
   2   0  -2    1.72    0.19
  -2   0   2    1.90    0.19
   2   0  -1   20.99    2.20
   2   0  -1   20.35    2.23
  -2   0   1   24.13    2.26
  -2   0   1   24.50    2.16
  -2   0   0    2.36    0.24
  -2   0   0    2.06    0.38
  -2   0   0    2.28    0.29
   2   0   0    2.25    0.29
  -2   0  -1    1.09    0.15
  -2   0  -1    0.77    0.26
   2   0   1    1.00    0.18
  -2   0  -1    1.01    0.19
   2   0   1    0.58    0.27
  -2   0  -2    1.62    0.24
   2   0   2    0.98    0.27
  -2   0  -2    1.03    0.26
  -2   0  -2    1.24    0.20
  -2   0  -2    1.53    0.13
  -2   0  -2    1.24    0.37
   2   0   2    0.77    0.12
  -2   0  -3   10.78    1.31
  -2   0  -3   12.59    1.33
   2   0   3   12.41    1.20
  -2   0  -3   12.57    1.20
  -2   0  -3   14.08    1.19
  -2   0  -3   14.59    1.33
  -2   0  -3   12.27    1.45
   2   0   4    2.25    0.30
   2   0   4    1.27    0.32
  -2   0  -4    2.44    0.38
  -2   0  -4    1.57    0.34
   2   0   4    2.02    0.53
  -2   0  -4    2.03    0.20
  -2   0  -4    2.30    0.54
  -2   0  -4    1.71    0.20
  -2   0  -5    2.91    0.39
  -2   0  -5    1.80    0.38
   2   0   5    2.71    0.36
   2   0   5    1.72    0.34
  -2   0  -5    1.98    0.47
   2   0   5    2.13    0.27
   2   0   5    2.34    0.59
  -2   0  -5    1.95    0.24
   2   0   5    2.20    0.23
  -2   0  -5    2.71    0.63
  -2   0  -5    2.36    0.23
  -2   0  -6   18.27    1.74
   2   0   6   16.21    1.65
  -2   0  -6   21.08    1.88
   2   0   6   16.89    1.54
   2   0   6   15.91    1.50
   2   0   6   16.65    2.00
  -2   0  -6   16.64    1.51
  -2   0  -6   15.23    1.92
  -2   0  -7   15.99    1.57
   2   0   7   14.53    1.49
  -2   0  -7   15.83    1.68
   2   0   7   13.90    1.34
   2   0   7   17.17    1.93
  -2   0  -7   15.31    1.32
   2   0   7   13.65    1.30
  -2   0  -8    1.33    0.46
   2   0   8    1.07    0.36
   2   0   8    2.36    0.45
   2   0   8    2.78    0.32
   2   0   8    2.43    0.26
   2   0   8    1.57    0.68
  -2   0  -9    0.59    0.35
   2   0   9    0.60    0.28
   2   0   9    0.89    0.37
   2   0   9    1.10    0.22
   2   0   9    0.95    0.17
   2   0   9    1.13    0.66
  -2   0 -10    0.42    0.42
   2   0  10   -0.05    0.33
   2   0  10    0.41    0.18
   2   0  10    0.47    0.15
  -2   0 -11    2.83    0.65
   2   0  11    2.26    0.35
   2   0  11    1.63    0.56
  -2   0 -12    2.03    0.64
   2   0  12    1.07    0.55
   2   0  12    2.12    0.34
   2   1 -11    0.44    0.49
  -2  -1  11    1.55    0.40
   2   1 -10    0.26    0.24
   2   1 -10    0.74    0.46
  -2  -1  10    0.06    0.24
  -2  -1   9    1.38    0.55
   2   1  -9    2.41    0.40
  -2  -1   9    2.70    0.45
   2   1  -9    3.18    0.59
  -2  -1   9    2.80    0.38
   2   1  -8    8.27    0.97
  -2  -1   8    9.01    0.87
  -2  -1   8    4.22    0.93
   2   1  -8    6.33    0.77
   2   1  -8    6.61    0.70
  -2  -1   8    9.31    0.78
   2   1  -7    8.45    1.00
  -2  -1   7    6.16    1.03
   2   1  -7    7.33    0.85
  -2  -1   7    9.62    0.92
   2   1  -7    7.51    0.77
   2   1  -7    8.47    1.03
  -2  -1   7    9.45    0.84
   2   1  -6    1.43    0.35
  -2  -1   6    1.07    0.25
   2   1  -6    1.49    0.23
  -2  -1   6    0.80    0.38
   2   1  -6    1.02    0.15
  -2  -1   6    0.94    0.36
   2   1  -6    1.37    0.37
   2   1  -6    1.30    0.19
  -2  -1   6    1.43    0.21
  -2  -1   5    3.55    0.51
   2   1  -5    3.36    0.52
  -2  -1   5    2.81    0.60
   2   1  -5    3.59    0.42
  -2  -1   5    3.87    0.45
   2   1  -5    3.43    0.36
  -2  -1   5    3.54    0.55
   2   1  -5    3.71    0.39
   2   1  -5    3.43    0.53
  -2  -1   5    4.41    0.42
   2   1  -5    4.78    0.78
   2   1  -4    3.33    0.46
  -2  -1   4    4.31    0.49
  -2  -1   4    1.93    0.51
  -2  -1   4    3.95    0.42
   2   1  -4    3.74    0.41
   2   1  -4    3.08    0.39
   2   1  -4    3.20    0.34
   2   1  -4    4.21    0.51
   2   1  -4    3.53    0.36
  -2  -1   4    4.53    0.52
  -2  -1   4    4.36    0.40
  -2  -1   3   10.54    1.00
  -2  -1   3    6.82    1.08
   2   1  -3    9.75    1.01
  -2  -1   3    9.52    0.94
   2   1  -3   10.37    0.95
   2   1  -3   10.11    1.02
  -2  -1   3    9.34    1.01
   2   1  -3    9.21    0.90
  -2  -1   3   10.67    0.94
   2   1  -2   17.11    1.64
  -2  -1   2   18.63    1.64
  -2  -1   2   15.30    1.76
   2   1  -2   16.78    1.64
  -2  -1   2   16.96    1.64
   2   1  -2   16.26    1.55
   2   1  -2   16.31    1.59
  -2  -1   2   18.24    1.59
   2   1  -1  476.80   44.11
  -2  -1   1  474.69   44.10
  -2  -1   1  457.66   44.24
  -2  -1   1  457.45   44.11
  -2  -1   1  485.62   44.03
   2   1  -1  471.36   44.03
  -2  -1   1  489.58   44.06
   2   1   0   18.34    1.76
  -2  -1   0   20.82    1.76
   2   1   0   17.49    1.80
   2   1   0   14.10    1.88
   2   1   1    0.72    0.29
  -2  -1  -1    1.48    0.16
   2   1   1    1.19    0.16
  -2  -1  -1    0.91    0.29
   2   1   1    0.81    0.27
   2   1   2    0.81    0.16
  -2  -1  -2    0.54    0.28
  -2  -1  -2    0.97    0.16
  -2  -1  -2    0.83    0.34
   2   1   2    0.78    0.32
   2   1   2    0.78    0.09
  -2  -1  -3    8.87    1.12
   2   1   3    7.00    1.08
  -2  -1  -3    9.08    1.22
   2   1   3    9.62    1.22
  -2  -1  -3    9.39    0.94
   2   1   3   11.54    0.95
   2   1   4    6.35    0.96
  -2  -1  -4    9.01    1.00
  -2  -1  -4    9.83    1.05
  -2  -1  -4    9.79    1.07
  -2  -1  -4    8.06    1.14
  -2  -1  -4    8.75    0.82
  -2  -1  -5    1.77    0.36
  -2  -1  -5    2.32    0.41
   2   1   5    1.34    0.37
   2   1   5    1.68    0.23
  -2  -1  -5    2.71    0.51
   2   1   5    1.78    0.19
  -2  -1  -5    1.95    0.20
  -2  -1  -5    1.83    0.56
  -2  -1  -6    5.06    0.63
  -2  -1  -6    5.57    0.65
   2   1   6    2.67    0.56
   2   1   6    2.99    0.42
  -2  -1  -6    3.48    0.66
  -2  -1  -6    4.79    0.41
   2   1   6    3.80    0.39
  -2  -1  -6    5.66    0.90
  -2  -1  -7    3.36    0.55
   2   1   7    2.55    0.43
   2   1   7    2.42    0.51
  -2  -1  -7    1.98    0.55
   2   1   7    2.79    0.34
   2   1   7    3.69    0.81
  -2  -1  -7    2.76    0.31
   2   1   7    2.95    0.30
  -2  -1  -8    5.09    0.70
   2   1   8    3.95    0.59
   2   1   8    4.35    0.47
  -2  -1  -8    4.35    0.44
   2   1   8    4.48    0.42
   2   1   8    2.85    0.84
   2   1   9    6.17    1.10
  -2  -1  -9   11.33    1.27
   2   1   9   10.00    1.17
   2   1   9   10.22    1.00
   2   1   9   10.18    0.95
   2   1   9   10.74    1.65
  -2  -1 -10    2.14    0.53
   2   1  10    2.46    0.53
   2   1  10    1.41    0.44
   2   1  10    2.18    0.32
   2   1  10    2.03    0.25
   2   1  10    2.95    1.00
  -2  -1 -11    1.51    0.52
   2   1  11    1.49    0.28
   2   1  11    1.75    0.52
  -2  -1 -12    1.93    0.62
   2   1  12    1.21    0.55
   2   1  12    2.36    0.34
   2   1  13    0.45    0.48
   2   1  13    1.30    0.30
  -2  -2  11    0.31    0.32
   2   2 -10    0.70    0.30
   2   2 -10    0.91    0.47
  -2  -2  10    0.91    0.50
   2   2  -9    0.76    0.27
   2   2  -9    0.41    0.38
  -2  -2   9    0.61    0.30
   2   2  -8   91.68    9.07
   2   2  -8  107.38    9.25
  -2  -2   8  115.68    9.07
   2   2  -7   18.39    1.83
   2   2  -7   16.73    1.70
  -2  -2   7   19.53    1.77
   2   2  -7   16.18    1.62
  -2  -2   7   20.34    1.69
   2   2  -6    3.12    0.49
  -2  -2   6    1.91    0.51
  -2  -2   6    2.40    0.40
   2   2  -6    2.84    0.30
   2   2  -6    2.60    0.44
  -2  -2   6    2.76    0.35
  -2  -2   5   13.61    1.31
  -2  -2   5    8.74    1.34
   2   2  -5   11.29    1.28
   2   2  -5   12.65    1.24
   2   2  -5   12.60    1.17
   2   2  -5   12.46    1.27
   2   2  -5   11.17    1.14
  -2  -2   5   14.08    1.20
   2   2  -5   13.98    1.55
   2   2  -4    0.67    0.21
  -2  -2   4    0.76    0.22
   2   2  -4    0.74    0.18
  -2  -2   4    0.28    0.32
   2   2  -4    0.65    0.10
  -2  -2   4    0.53    0.20
   2   2  -4    0.73    0.20
   2   2  -4    0.80    0.13
  -2  -2   4    0.65    0.14
   2   2  -3    4.81    0.56
  -2  -2   3    5.59    0.57
  -2  -2   3    4.86    0.50
  -2  -2   3    3.47    0.65
   2   2  -3    5.24    0.54
  -2  -2   3    4.39    0.52
   2   2  -3    5.05    0.48
   2   2  -3    4.67    0.52
   2   2  -3    4.55    0.46
  -2  -2   3    4.86    0.50
  -2  -2   2    6.87    0.71
  -2  -2   2    4.67    0.81
   2   2  -2    6.90    0.72
   2   2  -2    7.44    0.70
   2   2  -2    6.57    0.67
  -2  -2   2    7.50    0.68
   2   2  -2    6.40    0.64
  -2  -2   2    6.59    0.68
  -2  -2   2    7.23    0.67
  -2  -2   1   10.89    1.04
  -2  -2   1    8.52    1.15
   2   2  -1   10.33    1.04
   2   2  -1    8.75    1.16
   2   2  -1   10.75    1.00
  -2  -2   1   10.83    1.00
   2   2  -1    9.66    0.97
  -2  -2   1    9.92    1.02
  -2  -2   1   11.37    0.98
   2   2   0   15.44    1.60
  -2  -2   0   16.70    1.59
   2   2   0   13.35    1.71
   2   2   0   15.85    1.56
  -2  -2   0   17.08    1.54
   2   2   0   17.66    1.59
   2   2   1    0.18    0.06
   2   2   1    0.04    0.27
  -2  -2  -1    0.08    0.24
   2   2   1   -0.07    0.22
  -2  -2  -1    0.25    0.22
  -2  -2  -1    0.18    0.04
   2   2   2    8.55    0.91
   2   2   2    7.34    1.05
  -2  -2  -2    9.67    0.87
  -2  -2  -3    6.49    0.66
  -2  -2  -3    6.23    0.83
   2   2   3    5.36    0.82
   2   2   3    6.96    0.90
  -2  -2  -4   10.44    1.19
   2   2   4    7.37    1.11
  -2  -2  -4    9.10    1.00
  -2  -2  -4    9.10    1.14
  -2  -2  -4    9.99    0.91
   2   2   4    8.34    1.22
  -2  -2  -5   19.46    2.16
   2   2   5   13.85    2.09
  -2  -2  -5   17.10    2.07
  -2  -2  -5   15.78    2.12
  -2  -2  -5   17.14    2.24
   2   2   5   23.88    1.90
  -2  -2  -5   17.71    1.91
   2   2   5   17.66    2.28
  -2  -2  -6    1.33    0.41
  -2  -2  -6    0.87    0.31
   2   2   6    1.66    0.36
   2   2   6    1.33    0.43
   2   2   6    1.14    0.20
  -2  -2  -6    0.84    0.39
   2   2   6    1.18    0.55
   2   2   6    1.69    0.15
  -2  -2  -6    1.23    0.16
  -2  -2  -6    1.39    0.55
  -2  -2  -7    0.23    0.29
  -2  -2  -7   -0.10    0.29
   2   2   7    0.26    0.34
  -2  -2  -7    0.19    0.36
   2   2   7    0.23    0.11
   2   2   7    0.18    0.07
  -2  -2  -7    0.12    0.08
  -2  -2  -8    4.25    0.70
   2   2   8    3.51    0.72
   2   2   8    3.67    0.50
  -2  -2  -8    4.62    0.48
   2   2   9   16.54    2.60
  -2  -2  -9   25.81    2.70
   2   2   9   23.37    2.58
   2   2   9   23.51    2.44
  -2  -2  -9   28.81    2.42
   2   2   9   22.87    3.02
   2   2   9   26.73    2.40
  -2  -2 -10    1.36    0.46
   2   2  10    0.76    0.36
   2   2  10    1.14    0.22
   2   2  10    0.81    0.15
  -2  -2 -11    3.74    0.71
   2   2  11    2.96    0.39
   2   2  11    2.25    0.55
  -2  -2 -12   28.23    2.98
   2   2  12   22.02    2.86
   2   2  12   29.21    2.64
   2   2  13    4.85    0.98
   2   2  13    6.49    0.69
   2   3 -10    1.01    0.50
  -2  -3  10    1.18    0.34
   2   3  -9    2.23    0.42
   2   3  -9    2.83    0.60
  -2  -3   9    2.67    0.46
   2   3  -8    0.24    0.23
   2   3  -8    0.40    0.34
  -2  -3   8    0.65    0.34
   2   3  -7    9.52    1.06
  -2  -3   7   10.76    0.96
   2   3  -6    8.00    0.89
   2   3  -6    7.79    0.83
   2   3  -6    7.12    0.71
   2   3  -6    7.16    0.79
  -2  -3   6    9.25    0.81
   2   3  -5    4.39    0.57
  -2  -3   5    4.33    0.57
  -2  -3   5    2.07    0.58
   2   3  -5    4.06    0.53
   2   3  -5    3.97    0.49
   2   3  -5    4.10    0.47
   2   3  -5    4.15    0.42
  -2  -3   5    4.96    0.49
   2   3  -5    4.00    0.78
  -2  -3   4    1.61    0.29
   2   3  -4    1.51    0.29
  -2  -3   4    0.56    0.35
   2   3  -4    1.40    0.28
   2   3  -4    1.38    0.23
   2   3  -4    1.29    0.19
   2   3  -4    1.41    0.17
  -2  -3   4    1.56    0.22
   2   3  -4    1.49    0.43
   2   3  -4    1.34    0.48
  -2  -3   3    8.80    0.88
  -2  -3   3    5.87    0.95
   2   3  -3    7.89    0.87
   2   3  -3    8.53    0.87
   2   3  -3    7.86    0.82
   2   3  -3    8.47    0.80
   2   3  -3    7.81    0.78
  -2  -3   3    8.92    0.82
   2   3  -3    9.20    1.00
   2   3  -2   20.31    1.85
  -2  -3   2   18.75    1.84
  -2  -3   2   11.76    1.92
   2   3  -2   17.44    1.98
   2   3  -2   20.26    1.86
   2   3  -2   19.68    1.81
  -2  -3   2   18.81    1.77
   2   3  -2   19.03    1.77
   2   3  -2   19.06    1.80
  -2  -3   2   18.97    1.80
   2   3  -2   23.77    1.97
   2   3  -1    4.03    0.44
  -2  -3   1    3.93    0.41
   2   3  -1    2.27    0.53
   2   3  -1    3.51    0.39
   2   3  -1    3.47    0.36
  -2  -3   1    4.09    0.37
   2   3  -1    3.43    0.38
   2   3  -1    3.96    0.50
   2   3   0    4.22    0.52
  -2  -3   0    4.45    0.68
   2   3   0    4.11    0.67
  -2  -3   0    5.54    0.52
   2   3   0    4.19    0.48
  -2  -3   0    5.79    0.47
  -2  -3   0    4.96    0.53
   2   3   0    4.42    0.48
   2   3   0    4.37    0.55
  -2  -3  -1    2.29    0.32
   2   3   1    2.11    0.48
  -2  -3  -1    2.39    0.27
   2   3   1    2.70    0.28
  -2  -3  -1    2.37    0.26
  -2  -3  -1    2.11    0.36
   2   3   1    2.58    0.31
   2   3   1    2.43    0.26
  -2  -3  -1    2.45    0.32
   2   3   1    1.53    0.39
  -2  -3  -2   20.54    2.74
   2   3   2   21.03    2.73
   2   3   2   28.43    2.55
  -2  -3  -2   27.70    2.54
  -2  -3  -2   24.35    2.67
   2   3   2   25.30    2.52
  -2  -3  -2   27.07    2.52
   2   3   2   29.13    2.51
   2   3   2   22.86    2.72
  -2  -3  -2   23.02    2.71
  -2  -3  -3    2.34    0.40
   2   3   3    3.03    0.36
  -2  -3  -3    2.64    0.33
  -2  -3  -3    2.56    0.54
  -2  -3  -3    2.09    0.44
  -2  -3  -3    2.59    0.56
   2   3   3    3.24    0.29
   2   3   3    2.50    0.54
  -2  -3  -4   28.46    2.66
  -2  -3  -4   29.42    2.92
  -2  -3  -4   29.20    2.77
   2   3   4   28.64    2.90
   2   3   4   27.61    2.58
  -2  -3  -4   30.88    2.97
   2   3   4   28.22    2.95
  -2  -3  -5  577.62   46.43
   2   3   5  485.38   46.37
  -2  -3  -5  486.49   46.14
  -2  -3  -5  488.08   46.33
   2   3   5  507.05   46.50
  -2  -3  -6    6.48    0.85
   2   3   6    5.65    0.74
   2   3   6    4.47    0.80
  -2  -3  -6    4.53    0.77
   2   3   6    3.78    0.85
   2   3   7    3.83    0.79
   2   3   7    4.46    0.54
   2   3   7    5.00    0.97
   2   3   7    5.34    0.49
  -2  -3  -8    2.06    0.43
   2   3   8    1.38    0.53
   2   3   8    1.55    0.24
   2   3   8    1.77    0.19
   2   3   8    1.94    0.72
   2   3   9   14.49    2.13
  -2  -3  -9   20.40    2.16
   2   3   9   18.24    1.89
   2   3   9   20.88    1.85
  -2  -3 -10    1.48    0.51
   2   3  10    1.45    0.42
   2   3  10    1.60    0.59
   2   3  10    1.65    0.28
   2   3  10    2.51    0.27
  -2  -3 -11    0.72    0.46
   2   3  11    0.81    0.21
   2   3  11    0.90    0.38
  -2  -3 -12    3.61    0.79
   2   3  12    2.40    0.66
   2   3  12    4.22    0.47
   2   3  13    0.36    0.47
   2   3  13    0.84    0.23
   2   4  -9    1.99    0.52
  -2  -4   9    1.34    0.34
   2   4  -8    0.22    0.36
  -2  -4   8    0.12    0.26
  -2  -4   7    4.37    0.70
   2   4  -7    4.07    0.60
   2   4  -7    5.18    0.73
  -2  -4   7    6.64    0.64
  -2  -4   6    4.36    0.84
   2   4  -6    6.34    0.76
   2   4  -6    6.82    0.84
   2   4  -5    0.38    0.18
  -2  -4   5    0.23    0.32
  -2  -4   5    0.24    0.24
   2   4  -5    0.37    0.25
   2   4  -5    0.26    0.42
  -2  -4   5    0.47    0.30
  -2  -4   4    0.60    0.23
   2   4  -4    0.54    0.22
  -2  -4   4    0.53    0.31
   2   4  -4    0.49    0.22
   2   4  -4    0.36    0.16
   2   4  -4    0.64    0.12
  -2  -4   4    1.19    0.27
   2   4  -4    0.59    0.41
   2   4  -3    5.47    0.60
  -2  -4   3    5.70    0.61
   2   4  -3    5.89    0.64
   2   4  -3    4.93    0.56
  -2  -4   3    3.79    0.71
   2   4  -3    4.74    0.51
   2   4  -3    5.09    0.74
  -2  -4   3    6.83    0.62
   2   4  -2  241.12   22.61
  -2  -4   2  155.97   22.71
  -2  -4   2  242.15   22.59
   2   4  -2  215.19   22.76
   2   4  -2  255.97   22.64
   2   4  -2  246.08   22.58
  -2  -4   2  240.10   22.57
  -2  -4   2  244.66   22.54
   2   4  -2  237.41   22.54
   2   4  -2  226.24   22.56
   2   4  -2  302.17   22.79
  -2  -4   1   18.43    2.57
  -2  -4   1   25.09    2.41
   2   4  -1   20.83    2.59
   2   4  -1   26.03    2.44
   2   4  -1   26.45    2.41
  -2  -4   1   25.42    2.40
   2   4  -1   25.29    2.38
  -2  -4   1   26.41    2.38
   2   4  -1   28.98    2.57
   2   4  -1   25.50    2.40
  -2  -4   0    0.49    0.11
   2   4   0    0.27    0.21
  -2  -4   0    0.27    0.30
   2   4   0    0.16    0.08
  -2  -4   0    0.36    0.10
   2   4   0    0.66    0.39
   2   4   0    0.27    0.08
  -2  -4   0    0.38    0.07
  -2  -4   0    0.20    0.13
   2   4   0    0.15    0.19
   2   4   0    0.14    0.09
  -2  -4   0    0.32    0.18
  -2  -4  -1    3.41    0.43
  -2  -4  -1    3.23    0.64
   2   4   1    3.49    0.65
   2   4   1    4.56    0.41
  -2  -4  -1    3.59    0.40
  -2  -4  -1    3.19    0.49
  -2  -4  -1    3.91    0.39
  -2  -4  -1    3.73    0.40
   2   4   1    4.71    0.51
   2   4   1    4.58    0.39
  -2  -4  -1    3.86    0.51
   2   4   1    3.50    0.40
   2   4   2   11.17    1.65
   2   4   2   14.73    1.43
  -2  -4  -2   15.19    1.42
  -2  -4  -2   13.75    1.55
   2   4   2   15.82    1.60
  -2  -4  -2   15.06    1.41
   2   4   2   15.28    1.41
   2   4   2   14.35    1.61
  -2  -4  -2   15.34    1.53
   2   4   2   15.19    1.39
  -2  -4  -2   12.20    1.58
  -2  -4  -3    0.25    0.31
  -2  -4  -3    0.85    0.22
   2   4   3    0.54    0.39
  -2  -4  -3    0.38    0.10
   2   4   3    0.44    0.12
  -2  -4  -3    0.60    0.27
   2   4   3    0.46    0.26
   2   4   3    0.52    0.10
   2   4   3    0.36    0.30
  -2  -4  -3    0.56    0.30
  -2  -4  -4    0.79    0.42
  -2  -4  -4    0.71    0.25
  -2  -4  -4    0.74    0.15
   2   4   4    0.76    0.18
  -2  -4  -4    0.81    0.34
   2   4   4    1.56    0.41
   2   4   4    0.80    0.10
   2   4   4    0.76    0.37
  -2  -4  -5   11.06    1.48
   2   4   5   10.88    1.50
  -2  -4  -5   12.59    1.34
  -2  -4  -5   12.54    1.23
   2   4   5   13.54    1.50
  -2  -4  -5   11.59    1.53
   2   4   5   13.41    1.59
  -2  -4  -6    1.42    0.49
  -2  -4  -6    2.00    0.38
   2   4   6    1.32    0.53
  -2  -4  -6    1.76    0.29
  -2  -4  -6    1.37    0.46
   2   4   6    1.87    0.55
  -2  -4  -6    1.60    0.56
   2   4   6    1.60    0.56
   2   4   7   -0.22    0.44
  -2  -4  -7    0.10    0.19
  -2  -4  -7    0.04    0.26
  -2  -4  -7    0.21    0.40
   2   4   7    0.71    0.56
  -2  -4  -8    2.73    0.68
   2   4   8    2.51    0.68
   2   4   8    2.43    0.35
   2   4   8    4.18    0.94
   2   4   8    3.19    0.30
   2   4   9    3.26    0.42
   2   4   9    3.81    0.37
   2   4   9    4.49    1.06
   2   4  10    8.24    0.84
   2   4  10    8.23    0.79
   2   4  10    6.28    1.42
  -2  -4 -11    3.17    0.71
   2   4  11    3.97    0.45
  -2  -4 -12    1.57    0.57
   2   4  12    1.35    0.49
   2   4  12    1.52    0.27
   2   4  13    0.11    0.40
   2   4  13    0.41    0.21
   2   4  14    0.25    0.49
   2   5  -8    0.33    0.29
  -2  -5   8    0.70    0.28
   2   5  -7    1.15    0.31
   2   5  -7    0.94    0.35
  -2  -5   7    0.69    0.27
  -2  -5   6    3.91    0.73
   2   5  -6    6.63    0.70
   2   5  -6    6.17    0.76
  -2  -5   6    6.21    0.68
   2   5  -5    0.20    0.19
  -2  -5   5    0.18    0.31
  -2  -5   5    0.25    0.26
   2   5  -5    0.47    0.24
  -2  -5   5    0.43    0.20
   2   5  -5    0.79    0.49
  -2  -5   4    4.32    0.86
   2   5  -4    6.44    0.73
  -2  -5   4    7.05    0.79
   2   5  -4    7.19    0.77
  -2  -5   4    7.34    0.74
   2   5  -4    7.23    0.99
   2   5  -3    4.98    0.59
  -2  -5   3    5.77    0.60
   2   5  -3    4.70    0.63
   2   5  -3    3.90    0.73
   2   5  -3    4.52    0.55
  -2  -5   3    4.08    0.74
   2   5  -3    4.76    0.50
   2   5  -3    6.61    0.85
  -2  -5   3    5.70    0.57
   2   5  -3    6.16    0.78
   2   5  -2   12.38    1.25
  -2  -5   2    9.30    1.41
  -2  -5   2   13.32    1.25
   2   5  -2    9.95    1.41
   2   5  -2   12.05    1.23
   2   5  -2   13.89    1.32
  -2  -5   2   13.47    1.20
   2   5  -2   11.70    1.19
   2   5  -2   13.38    1.45
  -2  -5   2   13.58    1.24
   2   5  -2   12.55    1.22
   2   5  -1    3.37    0.38
  -2  -5   1    2.88    0.35
   2   5  -1    2.55    0.59
  -2  -5   1    2.79    0.35
   2   5  -1    3.06    0.35
  -2  -5   1    1.49    0.53
   2   5  -1    2.89    0.32
  -2  -5   1    3.14    0.33
   2   5  -1    3.00    0.35
   2   5  -1    4.08    0.58
   2   5  -1    3.58    0.34
  -2  -5   0    6.29    0.61
   2   5   0    6.25    0.61
  -2  -5   0    5.56    0.61
   2   5   0    5.28    0.88
  -2  -5   0    4.08    0.84
  -2  -5   0    5.09    0.64
   2   5   0    6.56    0.60
  -2  -5   0    6.07    0.59
  -2  -5   0    6.01    0.75
   2   5   0    6.19    0.61
  -2  -5   0    5.20    0.60
   2   5   0    6.14    0.74
   2   5   0    6.42    0.60
   2   5   0    7.45    0.80
  -2  -5  -1   19.56    1.80
   2   5   1   15.67    2.06
  -2  -5  -1   18.09    2.11
  -2  -5  -1   19.55    1.78
   2   5   1   19.04    1.78
  -2  -5  -1   17.38    1.87
  -2  -5  -1   20.51    1.77
   2   5   1   20.61    1.92
  -2  -5  -1   20.09    1.94
   2   5   1   16.98    1.78
   2   5   1   17.78    1.90
  -2  -5  -1   19.59    1.78
   2   5   1   15.85    1.90
   2   5   1   18.23    1.76
  -2  -5  -2    0.07    0.20
  -2  -5  -2    0.42    0.38
   2   5   2    0.07    0.40
  -2  -5  -2    0.08    0.07
   2   5   2    0.06    0.08
  -2  -5  -2    0.04    0.07
   2   5   2    0.19    0.26
  -2  -5  -2   -0.03    0.23
   2   5   2    0.08    0.09
   2   5   2    0.05    0.05
  -2  -5  -2   -0.11    0.22
   2   5   2   -0.08    0.24
  -2  -5  -3    0.10    0.20
  -2  -5  -3    0.15    0.17
   2   5   3   -0.14    0.37
  -2  -5  -3    0.22    0.08
   2   5   3    0.42    0.11
   2   5   3   -0.05    0.28
  -2  -5  -3    0.08    0.23
   2   5   3    0.25    0.05
   2   5   3    0.27    0.09
   2   5   3    0.05    0.26
  -2  -5  -3   -0.10    0.29
  -2  -5  -4    0.44    0.35
  -2  -5  -4    0.20    0.19
   2   5   4    0.19    0.14
  -2  -5  -4    0.32    0.10
   2   5   4    0.29    0.42
   2   5   4    0.33    0.32
  -2  -5  -4    0.96    0.35
   2   5   4    0.06    0.31
   2   5   4    0.24    0.08
  -2  -5  -4    0.38    0.34
  -2  -5  -4    0.52    0.06
  -2  -5  -5    2.82    0.44
  -2  -5  -5    2.70    0.60
  -2  -5  -5    2.71    0.31
   2   5   5    2.89    0.61
  -2  -5  -5    1.87    0.50
   2   5   5    2.46    0.61
   2   5   5    2.45    0.27
  -2  -5  -5    2.61    0.25
  -2  -5  -5    2.75    0.63
  -2  -5  -6    1.08    0.47
  -2  -5  -6    0.62    0.26
  -2  -5  -6    0.58    0.17
   2   5   6    1.04    0.54
   2   5   6    1.21    0.49
  -2  -5  -6    1.03    0.51
   2   5   6    0.96    0.50
  -2  -5  -7    0.08    0.41
  -2  -5  -7    0.04    0.24
  -2  -5  -7    0.04    0.16
   2   5   7   -0.08    0.45
   2   5   7    0.10    0.58
  -2  -5  -8    4.52    0.59
  -2  -5  -8    5.24    0.93
  -2  -5  -8    4.78    0.72
   2   5   8    5.00    1.04
  -2  -5  -9    2.25    0.52
   2   5   9    2.39    0.31
   2   5   9    2.78    0.79
   2   5   9    3.96    0.96
  -2  -5 -10   11.43    1.53
   2   5  10   13.77    1.31
   2   5  10   13.82    2.06
   2   5  11   50.09    4.69
   2   5  12    3.19    0.39
   2   5  13    1.64    0.56
   2   5  14   -0.17    0.44
   2   6  -7    1.27    0.32
  -2  -6   7    1.10    0.30
   2   6  -6    7.19    0.81
  -2  -6   6    6.69    0.77
   2   6  -5    1.04    0.27
   2   6  -5    1.87    0.37
  -2  -6   5    0.99    0.32
  -2  -6   5    0.76    0.35
  -2  -6   5    1.69    0.29
   2   6  -4    0.30    0.19
  -2  -6   4    0.08    0.21
   2   6  -4    0.14    0.19
  -2  -6   4    0.15    0.34
  -2  -6   4    0.21    0.19
   2   6  -3    7.06    0.76
   2   6  -3    6.68    0.77
  -2  -6   3    8.62    0.81
  -2  -6   3    7.11    1.01
  -2  -6   3    7.84    0.76
   2   6  -3    6.74    0.93
  -2  -6   2    5.26    0.87
   2   6  -2    5.88    0.64
  -2  -6   2    5.73    0.62
   2   6  -2    5.33    0.86
   2   6  -2    3.83    0.84
   2   6  -2    5.46    0.62
  -2  -6   2    5.93    0.58
  -2  -6   2    5.86    0.62
   2   6  -2    6.94    0.77
  -2  -6   1    1.28    0.21
  -2  -6   1    1.07    0.44
   2   6  -1    2.02    0.48
  -2  -6   1    1.25    0.21
   2   6  -1    0.89    0.48
   2   6  -1    1.38    0.21
  -2  -6   1    1.54    0.19
   2   6  -1    1.13    0.31
   2   6  -1    1.28    0.19
   2   6   0    2.69    0.54
  -2  -6   0    2.96    0.51
  -2  -6   0    3.37    0.67
  -2  -6   0    2.96    0.31
   2   6   0    1.77    0.61
   2   6   0    2.99    0.33
  -2  -6   0    2.96    0.33
  -2  -6   0    2.67    0.37
  -2  -6   0    2.86    0.31
   2   6   0    2.58    0.31
   2   6   0    2.71    0.42
   2   6   0    2.58    0.33
  -2  -6   0    3.06    0.34
   2   6   0    2.65    0.31
  -2  -6  -1    4.64    0.85
  -2  -6  -1    5.26    0.53
   2   6   1    4.65    0.53
  -2  -6  -1    5.77    0.53
   2   6   1    4.05    0.84
   2   6   1    5.64    0.70
  -2  -6  -1    5.08    0.63
  -2  -6  -1    5.37    0.52
   2   6   1    4.76    0.65
  -2  -6  -1    6.52    0.77
   2   6   1    4.57    0.53
   2   6   1    4.76    0.51
   2   6   1    5.03    0.69
  -2  -6  -1    5.42    0.54
  -2  -6  -2    5.02    0.61
  -2  -6  -2    4.01    0.60
  -2  -6  -2    5.01    0.91
   2   6   2    6.08    0.59
  -2  -6  -2    6.18    0.57
   2   6   2    3.66    0.87
   2   6   2    7.49    0.83
  -2  -6  -2    5.77    0.57
  -2  -6  -2    4.33    0.70
   2   6   2    7.56    0.62
   2   6   2    6.19    0.56
  -2  -6  -2    4.63    0.74
   2   6   2    5.53    0.74
  -2  -6  -2    3.32    0.67
  -2  -6  -3    1.76    0.42
  -2  -6  -3    1.24    0.29
   2   6   3    1.99    0.25
  -2  -6  -3    1.71    0.22
   2   6   3    2.08    0.62
  -2  -6  -3    1.67    0.42
  -2  -6  -3    1.83    0.23
   2   6   3    2.37    0.51
   2   6   3    1.58    0.43
   2   6   3    2.06    0.24
   2   6   3    1.95    0.20
  -2  -6  -4   15.32    1.75
   2   6   4   17.98    2.10
  -2  -6  -4   16.60    1.64
   2   6   4   19.83    1.70
   2   6   4   20.65    2.02
  -2  -6  -4   14.97    1.87
   2   6   4   17.88    1.64
  -2  -6  -4   13.35    1.90
   2   6   4   17.84    1.97
  -2  -6  -4   19.64    1.91
  -2  -6  -5    4.30    0.67
  -2  -6  -5    5.98    0.96
  -2  -6  -5    5.69    0.57
  -2  -6  -5    5.02    0.82
   2   6   5    6.25    0.92
   2   6   5    5.77    0.94
   2   6   5    5.29    0.55
  -2  -6  -5    4.13    0.87
  -2  -6  -5    5.83    0.53
  -2  -6  -6    3.25    0.75
  -2  -6  -6    2.49    0.48
  -2  -6  -6    2.96    0.36
   2   6   6    4.24    0.79
   2   6   6    2.77    0.70
   2   6   6    3.14    0.32
  -2  -6  -6    3.64    0.80
  -2  -6  -6    3.05    0.30
  -2  -6  -7    0.33    0.26
  -2  -6  -7    0.36    0.40
  -2  -6  -7    0.19    0.14
   2   6   7   -0.08    0.47
   2   6   7    0.10    0.52
  -2  -6  -7    0.18    0.06
  -2  -6  -8    3.94    0.66
  -2  -6  -8    4.79    0.93
  -2  -6  -8    4.75    0.55
   2   6   8    3.90    0.90
   2   6   8    4.75    1.01
  -2  -6  -9    0.20    0.31
   2   6   9    0.37    0.62
  -2  -6 -10    1.53    0.47
   2   6  10    1.34    0.22
   2   6  10    1.64    0.85
  -2  -6 -11    0.76    0.43
   2   6  11   -0.01    0.16
  -2  -6 -12    0.42    0.48
   2   6  12    0.70    0.20
   2   6  14    1.11    0.53
   2   7  -6    0.82    0.29
  -2  -7   6    1.57    0.33
   2   7  -5    1.66    0.33
  -2  -7   5    1.45    0.32
   2   7  -4    2.81    0.39
  -2  -7   4    1.62    0.49
  -2  -7   4    2.66    0.38
   2   7  -3   67.64    6.23
   2   7  -3   67.87    6.23
  -2  -7   3   64.01    6.23
  -2  -7   3   53.78    6.40
  -2  -7   3   71.06    6.23
   2   7  -2    9.41    0.99
   2   7  -2    6.98    1.23
  -2  -7   2    9.12    1.27
  -2  -7   2   10.51    0.99
  -2  -7   2   10.66    1.00
   2   7  -2    9.63    1.08
   2   7  -2    8.37    1.07
  -2  -7   1    0.42    0.13
  -2  -7   1    0.78    0.49
   2   7  -1    0.74    0.44
   2   7  -1    0.78    0.49
   2   7  -1    0.50    0.16
  -2  -7   1    0.55    0.14
  -2  -7   1    1.24    0.42
   2   7  -1    0.53    0.22
   2   7  -1    0.57    0.24
   2   7   0    0.66    0.37
  -2  -7   0    0.63    0.11
  -2  -7   0    0.15    0.36
   2   7   0    0.67    0.16
   2   7   0    1.08    0.52
  -2  -7   0    0.69    0.16
  -2  -7   0    0.66    0.14
  -2  -7   0    0.70    0.21
   2   7   0    0.46    0.20
  -2  -7   0    0.97    0.37
   2   7   0    0.60    0.13
  -2  -7  -1    2.48    0.72
  -2  -7  -1    3.24    0.45
  -2  -7  -1    4.71    0.44
   2   7   1    4.09    0.88
  -2  -7  -1    4.67    0.47
   2   7   1    4.53    0.47
  -2  -7  -1    4.49    0.59
   2   7   1    5.50    0.65
  -2  -7  -1    4.83    0.46
   2   7   1    4.49    0.54
   2   7   1    4.16    0.45
   2   7   1    5.05    0.71
  -2  -7  -1    4.36    0.69
  -2  -7  -2    4.35    0.44
  -2  -7  -2    2.00    0.69
  -2  -7  -2    2.70    0.42
  -2  -7  -2    4.09    0.65
  -2  -7  -2    4.06    0.41
   2   7   2    3.85    0.43
   2   7   2    3.53    0.82
  -2  -7  -2    3.44    0.56
   2   7   2    4.70    0.68
  -2  -7  -2    4.37    0.42
   2   7   2    4.14    0.45
   2   7   2    3.81    0.40
   2   7   2    3.56    0.55
  -2  -7  -3    8.27    1.27
  -2  -7  -3    7.45    0.92
  -2  -7  -3    9.49    0.88
   2   7   3    9.30    0.90
   2   7   3   10.49    1.20
  -2  -7  -3    9.07    0.88
  -2  -7  -3    8.51    1.09
   2   7   3    8.75    0.86
   2   7   3   10.72    0.92
  -2  -7  -3    7.03    1.06
   2   7   3    8.37    1.08
  -2  -7  -3    8.57    1.13
  -2  -7  -4    5.71    0.76
  -2  -7  -4    7.21    0.68
   2   7   4    8.30    0.74
  -2  -7  -4    6.68    0.96
  -2  -7  -4    6.28    0.69
   2   7   4    9.36    1.10
   2   7   4    6.74    0.69
  -2  -7  -4    6.98    0.95
   2   7   4    8.41    1.02
  -2  -7  -4    5.44    0.96
  -2  -7  -5    1.34    0.31
  -2  -7  -5    1.73    0.60
   2   7   5    2.24    0.30
  -2  -7  -5    1.94    0.22
   2   7   5    1.95    0.58
   2   7   5    1.83    0.53
   2   7   5    0.73    0.22
  -2  -7  -5    1.89    0.19
  -2  -7  -5    1.50    0.54
  -2  -7  -6    0.28    0.47
  -2  -7  -6    0.72    0.27
  -2  -7  -6    0.51    0.14
   2   7   6    1.45    0.55
   2   7   6    1.20    0.52
   2   7   6    0.57    0.13
  -2  -7  -6    0.09    0.43
  -2  -7  -6    0.62    0.09
  -2  -7  -7   22.45    2.56
  -2  -7  -7   17.91    2.16
  -2  -7  -7   21.36    2.04
   2   7   7   20.25    2.49
   2   7   7   19.75    2.46
  -2  -7  -7   21.73    1.98
  -2  -7  -8    1.19    0.39
  -2  -7  -8    1.48    0.66
  -2  -7  -8    1.58    0.26
   2   7   8    1.57    0.66
  -2  -7  -8    1.41    0.17
   2   7   8    2.53    0.77
  -2  -7  -9    5.09    0.84
  -2  -7  -9    6.72    0.71
   2   7   9    6.28    1.20
   2   7   9    5.98    1.18
  -2  -7 -10    4.73    0.75
   2   7  10    4.56    0.51
  -2  -7 -11    0.99    0.47
   2   7  11    1.24    0.22
  -2  -7 -12    0.55    0.50
   2   8  -5    1.58    0.36
  -2  -8   5    1.34    0.33
   2   8  -4    3.21    0.45
  -2  -8   4    2.45    0.55
  -2  -8   4    3.20    0.44
   2   8  -3    4.37    0.52
  -2  -8   3    3.46    0.69
  -2  -8   3    3.97    0.51
   2   8  -2    8.54    0.89
  -2  -8   2    7.96    1.16
  -2  -8   1    1.60    0.58
   2   8  -1    1.63    0.29
   2   8  -1    1.49    0.63
  -2  -8   1    2.39    0.28
  -2  -8   1    1.75    0.53
  -2  -8   0    6.28    1.11
   2   8   0    8.38    0.84
  -2  -8   0    7.70    0.88
  -2  -8   0    8.48    0.81
  -2  -8   0    7.19    1.08
  -2  -8  -1    0.65    0.39
  -2  -8  -1    0.41    0.43
   2   8   1    0.35    0.36
   2   8   1    0.32    0.14
  -2  -8  -1    0.38    0.14
  -2  -8  -1    0.31    0.14
  -2  -8  -1    0.36    0.25
   2   8   1    0.20    0.30
  -2  -8  -2    1.64    0.22
  -2  -8  -2    2.16    0.22
  -2  -8  -2    2.10    0.61
  -2  -8  -2    1.91    0.50
  -2  -8  -2    1.93    0.24
   2   8   2    1.61    0.25
   2   8   2    2.30    0.52
  -2  -8  -2    1.88    0.45
  -2  -8  -2    2.04    0.25
   2   8   2    1.75    0.33
   2   8   2    1.65    0.22
  -2  -8  -3   18.54    2.51
  -2  -8  -3   19.90    2.13
   2   8   3   23.55    2.13
  -2  -8  -3   23.93    2.11
   2   8   3   28.34    2.51
   2   8   3   23.26    2.10
  -2  -8  -3   20.50    2.32
  -2  -8  -3   22.44    2.12
  -2  -8  -3   21.94    2.43
   2   8   3   24.32    2.30
  -2  -8  -3   15.49    2.23
  -2  -8  -4    1.95    0.31
  -2  -8  -4    1.99    0.62
  -2  -8  -4    2.26    0.57
   2   8   4    2.06    0.28
  -2  -8  -4    1.99    0.24
  -2  -8  -4    1.93    0.50
  -2  -8  -4    2.35    0.27
   2   8   4    2.49    0.62
   2   8   4    2.31    0.51
   2   8   4    0.86    0.27
  -2  -8  -5    0.19    0.38
  -2  -8  -5    0.39    0.20
   2   8   5    0.35    0.18
  -2  -8  -5    0.65    0.12
   2   8   5    0.47    0.50
  -2  -8  -5    0.75    0.11
   2   8   5    0.13    0.14
   2   8   5    0.25    0.37
  -2  -8  -6    3.82    0.90
  -2  -8  -6    3.45    0.55
  -2  -8  -6    4.77    0.44
   2   8   6    5.33    0.94
  -2  -8  -6    4.21    0.47
  -2  -8  -6    4.95    0.42
   2   8   6    2.41    0.44
  -2  -8  -6    4.53    0.93
   2   8   6    3.00    0.80
  -2  -8  -7   18.44    2.05
  -2  -8  -7   20.89    2.49
  -2  -8  -7   22.79    1.92
   2   8   7   26.92    2.57
   2   8   7   24.10    2.45
  -2  -8  -7   25.60    1.88
  -2  -8  -8    1.13    0.37
  -2  -8  -8    1.61    0.70
  -2  -8  -8    1.37    0.24
   2   8   8    0.93    0.68
  -2  -8  -8    1.72    0.18
   2   8   8    1.74    0.71
  -2  -8  -9    3.27    0.63
  -2  -8  -9    4.02    0.46
   2   8   9    3.92    1.00
   2   8   9    5.13    1.09
  -2  -8 -10   45.42    4.74
   2   8  10   55.16    5.24
  -2  -8 -11    3.06    0.68
   2   8  11    3.72    0.42
  -2  -8 -12    0.80    0.50
   2   9  -5    0.73    0.35
   2   9  -4    5.44    0.67
  -2  -9   3    1.75    0.54
   2   9  -3    2.91    0.41
  -2  -9   2    1.05    0.51
   2   9  -2    1.18    0.27
  -2  -9   1    3.27    0.74
   2   9  -1    3.95    0.49
  -2  -9   1    4.23    0.47
   2   9   0    6.37    0.69
  -2  -9   0    7.10    0.67
  -2  -9   0    6.20    0.74
  -2  -9   0    7.00    1.02
  -2  -9  -1    1.31    0.58
  -2  -9  -1    1.09    0.46
  -2  -9  -1    1.16    0.21
   2   9   1    1.29    0.42
  -2  -9  -1    0.80    0.32
   2   9   1    1.22    0.22
  -2  -9  -2    3.32    0.86
  -2  -9  -2    4.97    0.85
   2   9   2    5.03    0.55
  -2  -9  -2    5.06    0.54
   2   9   2    6.79    0.87
  -2  -9  -2    4.53    0.73
  -2  -9  -2    5.02    0.54
  -2  -9  -3  154.14   16.75
  -2  -9  -3  167.49   16.29
  -2  -9  -3  151.41   16.28
   2   9   3  187.84   16.32
  -2  -9  -3  187.69   16.29
   2   9   3  223.67   16.75
   2   9   3  179.88   16.28
  -2  -9  -3  161.92   16.53
  -2  -9  -3  200.77   16.31
  -2  -9  -3  183.42   16.70
  -2  -9  -4   13.95    1.88
  -2  -9  -4   12.03    1.40
  -2  -9  -4   15.12    1.37
   2   9   4   16.07    1.42
  -2  -9  -4   15.21    1.39
   2   9   4   17.24    1.83
   2   9   4   16.53    1.61
  -2  -9  -4   13.07    1.73
  -2  -9  -5    2.70    0.43
  -2  -9  -5    1.91    0.71
  -2  -9  -5    3.24    0.73
   2   9   5    2.93    0.42
  -2  -9  -5    3.67    0.36
   2   9   5    3.40    0.66
  -2  -9  -6    2.78    0.71
  -2  -9  -6    3.34    0.52
  -2  -9  -6    3.70    0.41
  -2  -9  -6    3.92    0.45
   2   9   6    5.04    0.94
  -2  -9  -6    4.52    0.41
   2   9   6    3.57    0.77
  -2  -9  -6    3.16    0.80
  -2  -9  -7   11.22    1.48
  -2  -9  -7   13.60    1.94
  -2  -9  -7   13.38    1.35
  -2  -9  -7   12.62    1.38
   2   9   7   17.02    1.98
  -2  -9  -7   12.65    1.74
  -2  -9  -7   15.77    1.34
   2   9   7   16.92    1.86
  -2  -9  -8    1.24    0.72
  -2  -9  -8    0.44    0.30
   2   9   8    0.98    0.68
  -2  -9  -8    0.65    0.21
  -2  -9  -8    0.96    0.17
  -2  -9  -9    1.02    0.40
   2   9   9    1.99    0.83
  -2  -9 -10    3.98    0.71
   2   9  10    6.91    1.27
  -2  -9 -11   -0.06    0.40
   2   9  11    0.40    0.82
  -2  -9 -12   -0.06    0.46
   2  10  -4   10.11    1.23
   2  10  -3    3.43    0.55
   2  10  -2    0.40    0.23
  -2 -10   2    0.55    0.49
   2  10  -1    1.39    0.28
  -2 -10   1    0.62    0.46
   2  10   0    3.20    0.41
  -2 -10   0    2.93    0.38
  -2 -10   0    3.94    0.79
  -2 -10  -1    0.77    0.50
  -2 -10  -1    0.64    0.55
  -2 -10  -1    1.01    0.23
   2  10   1    0.78    0.21
  -2 -10  -2    2.04    0.69
  -2 -10  -2    2.74    0.69
   2  10   2    3.15    0.66
  -2 -10  -2    2.02    0.48
  -2 -10  -2    2.24    0.32
   2  10   2    2.16    0.31
  -2 -10  -3    0.24    0.42
  -2 -10  -3    0.52    0.51
   2  10   3    0.28    0.51
  -2 -10  -3    0.15    0.16
  -2 -10  -3    0.18    0.13
   2  10   3   -0.03    0.16
  -2 -10  -4    3.16    0.80
  -2 -10  -4    1.92    0.31
  -2 -10  -4    2.34    0.34
  -2 -10  -4    2.21    0.66
  -2 -10  -4    2.76    0.31
   2  10   4    3.35    0.37
   2  10   4    3.98    0.81
  -2 -10  -4    3.13    0.35
  -2 -10  -5    2.41    0.79
  -2 -10  -5    2.51    0.36
  -2 -10  -5    2.45    0.71
   2  10   5    2.84    0.38
  -2 -10  -5    2.63    0.30
   2  10   5    3.54    0.86
  -2 -10  -5    1.29    0.54
  -2 -10  -6    0.09    0.48
  -2 -10  -6   -0.12    0.55
  -2 -10  -6    0.03    0.21
  -2 -10  -6    0.21    0.11
  -2 -10  -6    0.27    0.16
   2  10   6   -0.10    0.57
  -2 -10  -6   -0.08    0.51
  -2 -10  -7    0.09    0.52
  -2 -10  -7    0.51    0.28
   2  10   7    1.16    0.67
  -2 -10  -7    0.61    0.20
  -2 -10  -8    4.22    0.95
  -2 -10  -8    3.51    0.61
   2  10   8    6.18    1.16
  -2 -10  -8    4.30    0.50
  -2 -10  -9    3.33    0.64
   2  10   9    4.92    1.14
  -2 -10  -9    4.83    0.53
  -2 -10 -10    1.40    0.44
   2  10  10    0.92    0.81
  -2 -10 -10    0.90    0.26
  -2 -10 -11    0.11    0.38
   2  10  11    0.97    0.88
  -2 -10 -12    1.20    0.49
   2  11  -3    0.02    0.26
   2  11  -2    1.27    0.37
   2  11  -1    1.19    0.29
  -2 -11   1    1.13    0.54
  -2 -11   0   -0.09    0.50
   2  11   0    0.39    0.22
  -2 -11   0    0.56    0.22
  -2 -11   0    0.58    0.56
  -2 -11  -1    0.19    0.50
  -2 -11  -1    0.59    0.54
  -2 -11  -1    0.86    0.22
   2  11   1    0.30    0.20
  -2 -11  -2    2.39    0.84
  -2 -11  -2    4.44    0.90
  -2 -11  -2    4.53    0.50
   2  11   2    4.24    0.50
  -2 -11  -3   -0.44    0.58
  -2 -11  -3    0.27    0.50
   2  11   3   -0.30    0.53
  -2 -11  -3    0.01    0.17
   2  11   3   -0.05    0.17
  -2 -11  -4    0.93    0.56
  -2 -11  -4    0.47    0.56
   2  11   4    0.59    0.58
  -2 -11  -4    0.66    0.20
  -2 -11  -5    0.25    0.64
  -2 -11  -5    0.10    0.57
   2  11   5    0.09    0.58
  -2 -11  -6    1.71    0.33
  -2 -11  -6    1.17    0.80
  -2 -11  -6    2.28    0.83
  -2 -11  -6    1.88    0.30
   2  11   6    2.88    0.84
  -2 -11  -7    1.02    0.64
  -2 -11  -7    0.60    0.26
  -2 -11  -7    1.36    0.83
   2  11   7    1.90    0.84
  -2 -11  -7    1.09    0.23
  -2 -11  -8    4.09    0.94
  -2 -11  -8    2.35    0.50
  -2 -11  -8    3.58    0.43
   2  11   8    4.93    1.12
  -2 -11  -9   27.14    3.25
  -2 -11  -9   34.89    3.14
  -2 -11  -9   30.65    3.67
  -2 -11 -10    1.23    0.41
  -2 -11 -10    1.56    0.30
   2  11  10    1.51    0.96
  -2 -11 -11    0.46    0.42
  -2 -11 -11    1.26    0.29
  -2 -11 -12    0.34    0.40
  -2 -12   0    1.56    0.65
  -2 -12  -1    1.13    0.63
  -2 -12  -1    1.22    0.28
  -2 -12  -1    2.10    0.71
  -2 -12  -2    0.93    0.63
  -2 -12  -2    0.66    0.61
  -2 -12  -2    1.17    0.27
  -2 -12  -3    0.48    0.55
  -2 -12  -3   -0.24    0.61
  -2 -12  -3   -0.03    0.20
  -2 -12  -4    1.12    0.74
  -2 -12  -4   -0.60    0.64
  -2 -12  -4    0.57    0.22
  -2 -12  -5    0.63    0.63
  -2 -12  -5    1.18    0.78
   2  12   5    0.49    0.68
  -2 -12  -6    3.04    0.91
   2  12   6    4.64    1.08
  -2 -12  -6    4.12    0.49
  -2 -12  -7    1.00    0.71
  -2 -12  -7    0.50    0.21
   2  12   7    0.82    0.76
  -2 -12  -8    1.03    0.77
  -2 -12  -8    0.83    0.25
   2  12   8    0.50    0.80
  -2 -12  -9    1.62    0.80
   2  12   9    0.27    0.84
  -2 -12  -9    1.43    0.29
  -2 -12 -10    0.47    0.78
  -2 -12 -10    1.14    0.38
  -2 -12 -11    0.34    0.38
  -2 -12 -11   -0.25    0.66
  -2 -12 -12    1.13    0.45
  -2 -13  -1    2.81    0.84
  -2 -13  -2    5.94    1.15
  -2 -13  -3    0.20    0.66
  -2 -13  -4    0.32    0.63
  -2 -13  -5    4.42    1.08
  -2 -13  -6    0.58    0.73
   2  13   6    0.34    0.73
  -2 -13  -7    1.68    0.81
   2  13   7    2.19    1.01
  -2 -13  -8    2.83    0.99
   2  13   8    3.40    1.14
  -2 -13  -9   -0.25    0.73
  -2 -13 -10    0.77    0.86
  -2 -14  -3    0.43    0.71
  -2 -14  -4    0.87    0.75
  -2 -14  -5    2.19    0.87
  -2 -14  -6    0.12    0.69
  -2 -14  -7    0.88    0.76
  -2 -14  -8   15.50    2.23
   3 -13  -6    2.32    0.39
   3 -13  -5    0.37    0.24
  -3  13   4    5.08    1.26
   3 -13  -4    5.42    0.66
  -3  13   3    2.90    0.95
   3 -12  -8    0.72    0.21
   3 -12  -7    0.28    0.18
   3 -12  -7    0.45    0.25
   3 -12  -6    0.49    0.19
  -3  12   6    0.27    0.82
   3 -12  -6    0.49    0.25
   3 -12  -5    0.14    0.80
   3 -12  -5    0.57    0.20
  -3  12   5    0.38    0.77
   3 -12  -5    0.25    0.23
   3 -12  -4    1.57    0.87
   3 -12  -4    1.87    0.31
  -3  12   4    2.06    0.90
   3 -12  -4    2.07    0.35
   3 -12  -3   -0.42    0.74
  -3  12   3    0.58    0.69
   3 -12  -3   -0.02    0.23
   3 -12  -2    0.96    0.82
  -3  12   2    0.11    0.69
   3 -12  -2    0.38    0.27
  -3  12   1    0.42    0.72
   3 -12  -1    0.16    0.24
   3 -11 -10    0.05    0.37
   3 -11  -9    1.52    0.47
   3 -11  -8    0.42    0.33
   3 -11  -8    0.57    0.19
   3 -11  -8    0.68    0.24
   3 -11  -7    0.41    0.68
   3 -11  -7    0.53    0.33
   3 -11  -7    0.64    0.19
  -3  11   7    1.33    0.83
   3 -11  -7    1.42    0.27
   3 -11  -6    0.64    0.31
   3 -11  -6   -0.14    0.71
   3 -11  -6    1.04    0.21
  -3  11   6    0.88    0.77
   3 -11  -6    1.17    0.26
   3 -11  -5    0.27    0.68
   3 -11  -5    0.05    0.16
  -3  11   5    0.48    0.68
   3 -11  -5    0.35    0.21
   3 -11  -4   -0.27    0.73
   3 -11  -4    0.40    0.18
  -3  11   4   -0.34    0.74
   3 -11  -4    0.49    0.22
   3 -11  -3    0.65    0.73
  -3  11   3    0.99    0.68
   3 -11  -3    1.07    0.26
   3 -11  -2    0.13    0.64
  -3  11   2    0.31    0.63
   3 -11  -2    0.48    0.24
   3 -11  -1    4.26    1.13
  -3  11   1    5.13    1.09
   3 -11  -1    5.92    0.67
   3 -11   0    1.35    0.77
  -3  11   0    2.61    0.85
   3 -11   0    2.68    0.42
   3 -11   1    0.85    0.71
   3 -11   1    0.75    0.31
   3 -10 -10    0.11    0.37
   3 -10  -9    0.20    0.35
   3 -10  -9    0.29    0.15
   3 -10  -9    0.39    0.23
   3 -10  -8    0.87    0.38
  -3  10   8    1.05    0.81
   3 -10  -8    0.84    0.19
   3 -10  -8    0.92    0.25
   3 -10  -7    0.27    0.29
   3 -10  -7    0.64    0.17
  -3  10   7    0.50    0.67
   3 -10  -7    0.88    0.23
   3 -10  -6    0.96    0.34
  -3  10   6    1.90    0.78
   3 -10  -6    1.37    0.22
   3 -10  -6    1.40    0.26
   3 -10  -5    7.36    1.43
   3 -10  -5    7.68    0.97
  -3  10   5    8.81    1.48
   3 -10  -5    8.51    0.86
   3 -10  -5    9.29    0.90
   3 -10  -4    1.27    0.31
   3 -10  -4    2.18    0.77
   3 -10  -4    1.44    0.23
  -3  10   4    2.15    0.80
   3 -10  -4    1.46    0.28
   3 -10  -3    1.69    0.81
   3 -10  -3    2.94    0.37
  -3  10   3    3.17    0.88
   3 -10  -3    3.42    0.42
   3 -10  -2    7.24    1.45
  -3  10   2    9.36    1.42
   3 -10  -2    9.37    0.96
  -3  10   1   57.53    5.94
   3 -10  -1   48.92    5.99
   3 -10  -1   60.47    5.50
   3 -10   0    2.65    0.84
  -3  10   0    2.08    0.75
   3 -10   0    2.16    0.36
   3 -10   1    0.34    0.54
  -3  10  -1    0.49    0.57
   3 -10   1    0.51    0.25
   3 -10   2    0.79    0.69
   3 -10   2    0.99    0.31
   3 -10   3    5.27    1.17
   3  -9 -10    0.45    0.39
   3  -9  -9    0.25    0.34
   3  -9  -9    0.42    0.15
   3  -9  -8   59.64    5.94
  -3   9   8   74.09    6.55
   3  -9  -8   61.33    5.72
   3  -9  -7    6.23    0.89
   3  -9  -7    7.05    0.72
  -3   9   7    6.45    1.30
   3  -9  -7    8.01    0.78
   3  -9  -6    0.48    0.29
   3  -9  -6    0.94    0.18
  -3   9   6    1.11    0.67
   3  -9  -6    0.78    0.22
   3  -9  -5   13.71    1.40
  -3   9   5   12.57    1.79
   3  -9  -5   12.51    1.26
   3  -9  -5   13.97    1.31
   3  -9  -4    0.93    0.28
   3  -9  -4    0.93    0.18
  -3   9   4    1.21    0.64
   3  -9  -4    1.37    0.53
   3  -9  -4    1.15    0.23
   3  -9  -3    3.85    0.53
  -3   9   3    4.14    0.92
  -3   9   3    3.72    0.43
   3  -9  -3    4.41    0.45
   3  -9  -3    3.94    0.71
   3  -9  -3    4.39    0.49
  -3   9   2    0.18    0.52
  -3   9   2    0.47    0.15
   3  -9  -2    0.55    0.15
   3  -9  -2    0.35    0.17
   3  -9  -2    0.29    0.32
   3  -9  -2    0.54    0.33
  -3   9   1    8.51    1.16
   3  -9  -1    6.78    0.68
   3  -9  -1    6.95    0.78
  -3   9   0    2.94    0.35
   3  -9   0    3.33    0.42
  -3   9  -1    0.64    0.18
  -3   9  -1    0.63    0.54
   3  -9   1    0.92    0.24
   3  -9   2    3.85    0.99
  -3   9  -2    5.41    0.59
  -3   9  -2    5.27    0.96
   3  -9   2    5.59    0.65
  -3   9  -3    1.97    0.32
  -3   9  -3    2.37    0.69
   3  -9   3    1.98    0.75
  -3   9  -4    3.63    0.48
   3  -9   4    3.50    0.92
  -3   9  -5    0.11    0.25
  -3   9  -6    0.67    0.32
   3  -8 -10    1.43    0.51
  -3   8  10    2.33    0.92
   3  -8  -9    2.57    0.55
   3  -8  -9    2.43    0.29
  -3   8   9    2.45    0.93
   3  -8  -8    4.96    0.73
   3  -8  -8    4.59    0.48
   3  -8  -7   10.83    1.31
   3  -8  -7   11.83    1.13
  -3   8   7   13.86    1.77
   3  -8  -6    0.40    0.52
   3  -8  -6    0.42    0.26
   3  -8  -6    0.65    0.14
  -3   8   6    0.73    0.64
   3  -8  -5   22.50    2.28
   3  -8  -5   23.67    2.19
  -3   8   5   25.83    2.73
   3  -8  -5   22.29    2.14
   3  -8  -5   20.13    2.61
  -3   8   4    0.08    0.23
   3  -8  -4    0.11    0.20
  -3   8   4    0.18    0.47
   3  -8  -4    0.01    0.11
   3  -8  -4   -0.04    0.14
   3  -8  -4    0.06    0.40
  -3   8   3    6.55    0.69
   3  -8  -3    5.45    0.68
   3  -8  -3    5.90    0.59
  -3   8   3    6.20    1.02
   3  -8  -3    5.59    0.62
   3  -8  -3    4.69    0.84
  -3   8   2    8.68    0.77
   3  -8  -2    7.10    0.78
   3  -8  -2    7.13    0.69
  -3   8   2    6.74    1.09
  -3   8   2    5.93    0.69
   3  -8  -2    6.81    0.73
  -3   8   1    3.69    0.41
  -3   8   1    3.88    0.39
  -3   8   1    3.45    0.34
  -3   8   1    2.55    0.36
  -3   8   1    3.92    0.78
   3  -8  -1    3.56    0.41
  -3   8   0    0.31    0.12
  -3   8   0    0.53    0.47
   3  -8   0    0.35    0.17
   3  -8   0    0.40    0.26
  -3   8  -1   11.28    1.40
  -3   8  -1   12.00    0.94
  -3   8  -1    9.36    0.92
  -3   8  -1    9.29    1.28
   3  -8   1   10.08    0.97
  -3   8  -2    2.65    0.37
  -3   8  -2    3.20    0.72
   3  -8   2    3.43    0.42
  -3   8  -3    1.08    0.25
  -3   8  -3    1.49    0.55
   3  -8   3    1.40    0.30
  -3   8  -4   13.19    1.55
  -3   8  -4   11.36    1.20
  -3   8  -5   69.30    6.51
  -3   8  -6   -0.02    0.25
  -3   8  -7    0.14    0.30
  -3   7  11    0.13    0.76
   3  -7 -10   -0.06    0.37
  -3   7  10    0.12    0.69
   3  -7  -9    3.17    0.59
   3  -7  -9    2.54    0.29
  -3   7   9    1.73    0.78
   3  -7  -8    1.58    0.46
   3  -7  -8    2.27    0.26
  -3   7   8    1.76    0.82
   3  -7  -8    2.21    0.24
   3  -7  -7    0.04    0.27
   3  -7  -7    0.17    0.10
   3  -7  -6    6.82    0.79
  -3   7   6    6.28    1.11
   3  -7  -6    5.79    0.59
   3  -7  -5    3.14    0.53
   3  -7  -5    4.04    0.41
   3  -7  -4    2.21    0.66
  -3   7   4    3.27    0.43
   3  -7  -4    2.17    0.39
   3  -7  -4    2.19    0.31
  -3   7   4    2.11    0.62
   3  -7  -4    2.39    0.27
   3  -7  -3    7.67    0.87
  -3   7   3    8.29    0.88
  -3   7   3    8.51    0.90
   3  -7  -3    7.81    0.78
  -3   7   3    8.33    1.19
   3  -7  -3    9.68    1.27
   3  -7  -3    7.60    0.81
   3  -7  -2  129.55   11.63
  -3   7   2  140.22   11.61
   3  -7  -2  125.50   11.53
  -3   7   2  108.88   11.53
  -3   7   2  129.58   11.97
   3  -7  -2  136.94   11.57
   3  -7  -2  138.33   12.06
  -3   7   1   10.09    0.88
  -3   7   1    9.91    0.85
  -3   7   1    8.23    0.80
  -3   7   1    7.18    0.83
  -3   7   1    9.59    1.23
   3  -7  -1    8.56    1.27
   3  -7  -1    9.19    0.87
  -3   7   0    0.73    0.17
  -3   7   0    0.87    0.47
   3  -7   0    1.55    0.57
  -3   7   0    0.56    0.13
  -3   7   0    0.61    0.15
  -3   7   0    0.35    0.39
   3  -7   0    0.63    0.31
   3  -7   0    0.71    0.17
  -3   7  -1    5.27    0.57
  -3   7  -1    5.18    0.88
   3  -7   1    4.97    0.94
   3  -7   1    6.11    0.58
  -3   7  -1    6.05    0.92
   3  -7   1    3.15    0.67
   3  -7   1    5.97    0.60
  -3   7  -2    5.58    0.55
  -3   7  -2    5.92    0.61
  -3   7  -2    4.98    0.85
   3  -7   2    5.11    0.56
  -3   7  -2    4.56    0.87
   3  -7   2    5.31    0.58
   3  -7   2    2.86    0.63
  -3   7  -3    3.53    0.45
   3  -7   3    3.38    0.42
  -3   7  -3    4.33    0.75
   3  -7   3    3.99    0.46
   3  -7   4    7.20    0.69
  -3   7  -4    5.83    0.98
  -3   7  -5    8.59    1.17
  -3   7  -5    7.85    0.88
  -3   7  -6    0.32    0.25
  -3   7  -7    1.86    0.39
   3  -6 -11    3.95    0.80
  -3   6  11    5.65    1.20
   3  -6 -10    3.28    0.66
  -3   6  10    3.81    0.97
   3  -6 -10    2.89    0.36
   3  -6  -9    0.84    0.41
   3  -6  -9    0.82    0.16
  -3   6   9    1.30    0.74
   3  -6  -9    1.41    0.19
   3  -6  -8    0.09    0.31
   3  -6  -8    0.17    0.10
  -3   6   8    0.41    0.53
   3  -6  -8    0.20    0.10
   3  -6  -7    0.29    0.29
   3  -6  -7    0.53    0.11
  -3   6   7    0.48    0.53
   3  -6  -7    0.51    0.11
   3  -6  -6   15.60    1.46
   3  -6  -6   13.15    1.24
   3  -6  -6   12.95    1.24
   3  -6  -5    3.48    0.51
   3  -6  -5    3.43    0.36
  -3   6   4    2.11    0.37
   3  -6  -4    1.92    0.33
  -3   6   4    2.54    0.65
   3  -6  -4    1.79    0.21
   3  -6  -3   -0.22    0.38
  -3   6   3   -0.04    0.17
   3  -6  -3    0.22    0.17
  -3   6   3    0.10    0.17
  -3   6   3    0.07    0.39
   3  -6  -3    0.01    0.07
   3  -6  -2    9.58    0.98
  -3   6   2    9.38    0.95
  -3   6   2   10.15    0.99
   3  -6  -2    9.29    0.87
  -3   6   2    9.13    1.23
  -3   6   2    7.93    0.87
   3  -6  -2   10.54    1.30
   3  -6  -2   10.07    0.92
   3  -6  -1    3.46    0.43
  -3   6   1    2.98    0.67
  -3   6   1    2.94    0.39
   3  -6  -1    3.95    0.72
  -3   6   1    2.88    0.44
  -3   6   1    3.68    0.36
  -3   6   1    3.08    0.34
   3  -6  -1    2.62    0.60
   3  -6  -1    3.79    0.34
  -3   6   1    2.48    0.34
  -3   6   1    2.73    0.64
   3  -6  -1    3.43    0.38
  -3   6   0    2.83    0.33
  -3   6   0    2.53    0.59
   3  -6   0    2.74    0.68
  -3   6   0    3.11    0.44
  -3   6   0    1.93    0.29
   3  -6   0    3.17    0.58
   3  -6   0    2.72    0.29
  -3   6   0    2.25    0.57
   3  -6   0    1.52    0.43
   3  -6   0    2.78    0.32
  -3   6  -1   25.36    2.13
  -3   6  -1   28.05    2.44
  -3   6  -1   20.59    2.10
   3  -6   1   23.09    2.10
  -3   6  -1   24.89    2.44
   3  -6   1   15.47    2.23
   3  -6   1   20.03    2.44
   3  -6   1   21.28    2.11
  -3   6  -2    0.94    0.27
  -3   6  -2    1.44    0.44
   3  -6   2    0.68    0.44
  -3   6  -2    1.14    0.21
  -3   6  -2    1.11    0.44
   3  -6   2    0.67    0.17
   3  -6   2    0.85    0.34
   3  -6   2    0.88    0.19
  -3   6  -3    4.00    0.62
  -3   6  -3    4.03    0.45
   3  -6   3    3.08    0.73
  -3   6  -3    3.33    0.47
   3  -6   3    3.21    0.40
  -3   6  -3    3.63    0.70
   3  -6   3    1.84    0.53
   3  -6   3    3.20    0.41
  -3   6  -4   15.35    1.41
   3  -6   4   12.63    1.46
   3  -6   4   13.44    1.31
  -3   6  -4   15.64    1.64
   3  -6   4   12.23    1.65
   3  -6   4    9.05    1.47
  -3   6  -5    3.79    0.48
   3  -6   5    2.87    0.53
   3  -6   5    2.53    0.36
  -3   6  -5    2.91    0.65
  -3   6  -6    3.77    0.56
   3  -6   6    3.20    0.62
   3  -6   6    3.89    0.48
  -3   6  -6    3.84    0.76
   3  -6   6    2.92    0.74
   3  -6   7    2.43    0.37
   3  -6   7    1.80    0.51
   3  -6   8    0.06    0.36
  -3   6  -8    0.38    0.29
  -3   5  12    2.00    0.97
  -3   5  11    2.81    0.90
   3  -5 -11    1.84    0.31
   3  -5 -10    0.89    0.43
  -3   5  10    0.43    0.65
   3  -5 -10    0.56    0.19
   3  -5  -9    0.27    0.35
  -3   5   9   -0.10    0.55
   3  -5  -9    0.03    0.10
   3  -5  -9    0.06    0.13
   3  -5  -8    1.13    0.40
   3  -5  -8    1.14    0.17
  -3   5   8    1.81    0.66
   3  -5  -8    1.40    0.20
   3  -5  -7    0.92    0.33
   3  -5  -7    1.01    0.14
  -3   5   7    1.24    0.59
   3  -5  -7    1.02    0.16
   3  -5  -6    4.72    0.59
   3  -5  -6    3.54    0.36
   3  -5  -6    3.68    0.38
   3  -5  -5    0.38    0.21
   3  -5  -5    0.38    0.08
   3  -5  -5    0.46    0.09
  -3   5   4    2.20    0.36
   3  -5  -4    1.79    0.33
   3  -5  -4    1.70    0.19
   3  -5  -4    1.61    0.19
   3  -5  -3    8.18    0.94
  -3   5   3    9.27    0.94
  -3   5   3    9.66    0.91
  -3   5   3    9.06    1.18
   3  -5  -3    8.30    0.83
   3  -5  -3   10.40    1.21
   3  -5  -2    1.50    0.47
  -3   5   2    1.96    0.32
   3  -5  -2    2.22    0.34
  -3   5   2    2.89    0.36
  -3   5   2    2.50    0.23
   3  -5  -2    2.34    0.25
   3  -5  -2    2.31    0.24
  -3   5   2    3.12    0.59
  -3   5   2    2.17    0.25
  -3   5   1    1.85    0.27
   3  -5  -1    1.54    0.28
   3  -5  -1    0.96    0.42
  -3   5   1    1.85    0.30
  -3   5   1    1.89    0.21
  -3   5   1    1.76    0.20
   3  -5  -1    1.23    0.39
   3  -5  -1    1.55    0.19
  -3   5   1    0.96    0.43
   3  -5  -1    1.71    0.23
  -3   5   0    3.25    0.39
   3  -5   0    3.43    0.65
  -3   5   0    3.45    0.38
  -3   5   0    3.59    0.45
  -3   5   0    2.67    0.35
   3  -5   0    2.77    0.55
   3  -5   0    3.47    0.34
  -3   5   0    3.19    0.33
  -3   5   0    3.91    0.65
   3  -5   0    1.58    0.47
   3  -5   0    3.24    0.36
   3  -5   1    2.90    0.64
  -3   5  -1    3.98    0.42
  -3   5  -1    4.29    0.50
  -3   5  -1    2.79    0.37
   3  -5   1    3.09    0.37
  -3   5  -1    3.61    0.64
  -3   5  -1    3.55    0.35
   3  -5   1    3.19    0.38
  -3   5  -2    3.13    0.39
   3  -5   2    2.18    0.57
  -3   5  -2    3.22    0.56
   3  -5   2    3.08    0.46
  -3   5  -2    2.67    0.34
   3  -5   2    3.09    0.34
  -3   5  -2    3.13    0.59
   3  -5   2    1.46    0.50
   3  -5   2    2.99    0.35
   3  -5   3    0.74    0.41
  -3   5  -3    0.59    0.27
  -3   5  -3    1.11    0.31
  -3   5  -3    0.45    0.34
   3  -5   3    0.62    0.16
   3  -5   3    0.29    0.34
  -3   5  -4   11.41    1.10
  -3   5  -4   12.27    1.09
  -3   5  -4    7.51    1.00
   3  -5   4    9.19    1.10
   3  -5   4   10.00    0.96
  -3   5  -4   10.89    1.26
  -3   5  -4    7.63    1.15
   3  -5   4    6.25    1.17
   3  -5   4    9.45    1.27
  -3   5  -5    9.61    0.97
   3  -5   5    7.80    0.98
   3  -5   5    7.46    0.80
  -3   5  -5    8.89    1.10
   3  -5   5    5.34    1.04
  -3   5  -5    6.87    1.07
  -3   5  -6    0.44    0.30
   3  -5   6    0.92    0.37
  -3   5  -6    0.61    0.42
   3  -5   6    0.84    0.21
   3  -5   6    0.56    0.50
  -3   5  -7    0.78    0.35
   3  -5   7    0.62    0.40
  -3   5  -7    0.38    0.46
   3  -5   7    0.56    0.24
   3  -5   7    0.44    0.52
  -3   5  -8    0.30    0.33
   3  -5   8    0.92    0.45
   3  -5   9    1.98    0.36
  -3   5  -9    1.78    0.40
  -3   4  12   -0.35    0.74
   3  -4 -12   -0.04    0.22
   3  -4 -11    0.86    0.50
  -3   4  11    1.57    0.76
   3  -4 -11    0.95    0.25
  -3   4  10    3.17    0.95
   3  -4 -10    2.53    0.37
  -3   4   9    3.52    0.87
   3  -4  -9    2.36    0.33
  -3   4   8   -0.26    0.56
  -3   4   8    0.17    0.15
   3  -4  -8    0.02    0.12
   3  -4  -7    6.29    0.79
   3  -4  -7    5.62    0.56
   3  -4  -7    5.83    0.60
   3  -4  -6    0.73    0.28
   3  -4  -6    0.68    0.09
  -3   4   6    0.45    0.47
   3  -4  -6    0.45    0.12
   3  -4  -5   11.82    1.20
   3  -4  -5   10.35    1.01
  -3   4   5   13.23    1.46
   3  -4  -5   11.14    1.03
  -3   4   4   13.10    1.23
   3  -4  -4   12.51    1.24
   3  -4  -4   13.79    1.44
   3  -4  -4   11.17    1.08
   3  -4  -4   11.44    1.09
  -3   4   3  238.85   20.54
   3  -4  -3  208.47   20.54
  -3   4   3  226.36   20.43
   3  -4  -3  202.94   20.44
  -3   4   3  243.49   20.49
   3  -4  -3  226.39   20.41
   3  -4  -3  217.32   20.73
   3  -4  -3  212.93   20.43
  -3   4   2   15.21    1.45
   3  -4  -2   13.64    1.45
  -3   4   2   17.34    1.44
  -3   4   2   15.06    1.35
   3  -4  -2   13.23    1.35
  -3   4   2   13.46    1.64
   3  -4  -2   12.86    1.59
  -3   4   2   14.71    1.35
   3  -4  -2   13.72    1.62
   3  -4  -1    0.70    0.31
   3  -4  -1    0.57    0.17
  -3   4   1    0.29    0.16
  -3   4   1    0.54    0.17
  -3   4   1    0.59    0.10
  -3   4   1    0.45    0.08
   3  -4  -1    0.52    0.10
  -3   4   1    0.59    0.30
  -3   4   0    2.06    0.28
   3  -4   0    0.95    0.40
  -3   4   0    2.10    0.31
  -3   4   0    2.12    0.27
   3  -4   0    1.75    0.42
   3  -4   0    1.59    0.22
  -3   4   0    2.00    0.46
  -3   4   0    2.36    0.22
   3  -4   0    1.99    0.24
  -3   4  -1    4.75    0.52
   3  -4   1    4.36    0.55
  -3   4  -1    4.65    0.56
   3  -4   1    4.65    0.47
  -3   4  -1    4.57    0.72
  -3   4  -1    4.21    0.45
   3  -4   1    4.05    0.66
   3  -4   1    5.50    0.77
   3  -4   1    4.73    0.48
  -3   4  -2   12.34    1.13
  -3   4  -2   12.53    1.17
   3  -4   2   10.24    1.16
  -3   4  -2   11.09    1.03
  -3   4  -2    9.82    1.05
  -3   4  -2   10.46    1.06
  -3   4  -2   12.51    1.33
   3  -4   2   10.79    1.32
   3  -4   2    8.73    1.26
   3  -4   3    0.47    0.34
  -3   4  -3    0.42    0.24
  -3   4  -3    0.50    0.23
  -3   4  -3    0.81    0.35
  -3   4  -3    0.26    0.14
   3  -4   3    0.27    0.13
   3  -4   3    0.43    0.37
  -3   4  -3    0.64    0.29
  -3   4  -3    0.50    0.13
  -3   4  -4    6.41    0.74
  -3   4  -4    3.94    0.61
  -3   4  -4    6.51    0.66
   3  -4   4    5.29    0.72
   3  -4   4    4.78    0.58
  -3   4  -4    6.65    0.85
  -3   4  -4    4.06    0.79
   3  -4   4    3.96    0.84
  -3   4  -4    5.96    0.57
   3  -4   4    6.06    0.59
   3  -4   4    5.19    0.82
  -3   4  -5    1.99    0.43
   3  -4   5    2.18    0.46
  -3   4  -5    2.93    0.59
   3  -4   5    2.49    0.33
   3  -4   5    1.52    0.59
  -3   4  -6    8.30    0.94
   3  -4   6    6.98    0.95
   3  -4   6    7.56    0.77
   3  -4   6    4.77    1.07
  -3   4  -6    6.14    1.08
   3  -4   7    2.70    0.58
  -3   4  -7    3.90    0.62
   3  -4   7    3.26    0.81
  -3   4  -8    0.92    0.40
   3  -4   8    0.88    0.43
   3  -4   8    1.17    0.27
   3  -4   8    1.06    0.63
  -3   4  -9    0.91    0.43
   3  -4   9    0.83    0.41
   3  -4   9    1.04    0.29
   3  -4  10    2.51    0.69
   3  -4  10    2.95    0.44
   3  -3 -12    0.42    0.25
  -3   3  12    0.65    0.73
   3  -3 -11    0.53    0.43
   3  -3 -11    0.49    0.23
  -3   3  11    0.83    0.73
  -3   3  11    0.51    0.26
   3  -3 -10   62.26    5.45
  -3   3  10   68.63    5.78
   3  -3 -10   51.00    5.14
   3  -3  -9   13.76    1.48
  -3   3   9   13.95    1.70
   3  -3  -9   11.65    1.23
   3  -3  -8    3.12    0.55
  -3   3   8    1.55    0.62
  -3   3   8    2.07    0.32
   3  -3  -8    2.25    0.31
  -3   3   7   20.80    2.18
  -3   3   7   19.13    1.77
   3  -3  -7   17.38    1.76
   3  -3  -6    1.68    0.19
  -3   3   6    2.27    0.57
   3  -3  -6    1.78    0.23
   3  -3  -5    8.07    0.99
   3  -3  -5    6.26    0.61
   3  -3  -5    6.52    0.61
  -3   3   5    6.89    0.97
   3  -3  -5    7.14    0.65
   3  -3  -4    3.24    0.49
  -3   3   4    3.90    0.50
  -3   3   4    4.30    0.68
   3  -3  -4    3.92    0.66
   3  -3  -4    3.63    0.35
   3  -3  -4    3.56    0.38
   3  -3  -3    6.53    0.76
  -3   3   3    8.04    0.78
   3  -3  -3    6.21    0.88
   3  -3  -3    6.24    0.64
  -3   3   3    8.85    0.69
   3  -3  -3    6.04    0.66
  -3   3   3    8.02    0.66
   3  -3  -2    9.59    1.04
  -3   3   2   10.64    1.04
   3  -3  -2    9.70    0.93
  -3   3   2   10.32    0.93
   3  -3  -2    9.60    0.94
   3  -3  -2    9.15    1.16
  -3   3   2   10.88    0.99
   3  -3  -2    9.06    0.95
  -3   3   2   10.56    0.94
   3  -3  -1    0.39    0.24
   3  -3  -1    0.46    0.16
  -3   3   1    0.34    0.15
   3  -3  -1    0.31    0.10
  -3   3   1    0.31    0.07
  -3   3   1    0.39    0.14
  -3   3   1    0.31    0.06
   3  -3  -1    0.60    0.28
   3  -3  -1    0.34    0.08
  -3   3   1    0.23    0.27
   3  -3   0   11.11    1.27
  -3   3   0   15.02    1.28
  -3   3   0   14.65    1.28
   3  -3   0   11.97    1.25
  -3   3   0   14.30    1.23
   3  -3   0   11.31    1.20
   3  -3   0   10.79    1.21
  -3   3   0   12.86    1.44
  -3   3   0   13.48    1.19
  -3   3   0   15.31    1.46
   3  -3   0   11.55    1.41
  -3   3  -1    3.03    0.54
   3  -3   1    2.79    0.52
  -3   3  -1    3.51    0.40
  -3   3  -1    3.22    0.40
  -3   3  -1    3.33    0.39
   3  -3   1    2.92    0.39
  -3   3  -1    3.19    0.31
  -3   3  -1    3.13    0.52
   3  -3   1    2.64    0.32
   3  -3   1    1.65    0.46
  -3   3  -2   11.94    1.10
   3  -3   2   10.05    1.10
   3  -3   2    9.50    1.00
  -3   3  -2   10.52    1.00
  -3   3  -2   12.23    1.25
   3  -3   2    7.95    1.20
   3  -3   2    9.35    1.20
  -3   3  -2   13.44    1.32
  -3   3  -3    5.57    0.75
  -3   3  -3    6.96    0.73
   3  -3   3    6.10    0.65
  -3   3  -3    8.79    0.93
  -3   3  -3    6.09    0.88
  -3   3  -3    5.41    0.86
  -3   3  -3    6.05    0.63
   3  -3   3    4.49    0.86
   3  -3   3    6.75    0.64
   3  -3   3    6.83    0.88
  -3   3  -4    0.65    0.39
  -3   3  -4    0.81    0.30
  -3   3  -4    1.40    0.29
  -3   3  -4    0.69    0.23
   3  -3   4    1.18    0.31
   3  -3   4    1.07    0.19
   3  -3   4    1.04    0.17
  -3   3  -4    0.90    0.16
  -3   3  -4    0.90    0.15
   3  -3   4    0.59    0.38
   3  -3   4    1.27    0.39
  -3   3  -4    0.55    0.37
   3  -3   5    0.12    0.22
  -3   3  -5    0.12    0.26
   3  -3   5    0.08    0.37
  -3   3  -5    0.19    0.17
  -3   3  -5   -0.07    0.41
   3  -3   6    1.44    0.39
  -3   3  -6    1.02    0.38
  -3   3  -6    1.88    0.24
   3  -3   6    0.94    0.60
   3  -3   7   11.08    1.39
  -3   3  -7   14.68    1.44
   3  -3   7    9.51    1.62
  -3   3  -8    0.05    0.35
   3  -3   8    0.22    0.36
   3  -3   8    0.39    0.20
   3  -3   8    0.33    0.56
  -3   3  -9    5.59    0.77
   3  -3   9    3.90    0.73
   3  -3   9    3.71    0.52
   3  -3   9    5.38    1.14
   3  -3  10   28.73    2.76
   3  -3  10   22.94    3.00
  -3   3 -11    5.30    0.91
   3  -2 -12    0.15    0.25
  -3   2  12    0.39    0.28
   3  -2 -11    1.83    0.37
  -3   2  11    3.23    0.87
  -3   2  11    2.56    0.39
   3  -2 -10    2.00    0.57
   3  -2 -10    1.40    0.31
  -3   2  10    2.61    0.79
  -3   2  10    1.87    0.34
   3  -2  -9    9.66    1.28
  -3   2   9   11.00    1.48
   3  -2  -9   10.66    1.08
   3  -2  -8    5.36    0.76
  -3   2   8    4.04    0.85
  -3   2   8    5.48    0.56
   3  -2  -8    4.10    0.53
   3  -2  -7   13.61    1.48
  -3   2   7   14.09    1.64
   3  -2  -7   13.16    1.24
  -3   2   7   13.75    1.30
   3  -2  -7   12.04    1.28
   3  -2  -6    0.48    0.26
   3  -2  -6    0.86    0.12
  -3   2   6    0.44    0.41
   3  -2  -6    0.74    0.39
   3  -2  -6    0.66    0.15
  -3   2   6    0.52    0.15
   3  -2  -5    9.48    1.07
   3  -2  -5    9.80    0.90
   3  -2  -5   10.19    1.22
  -3   2   5    8.93    1.19
  -3   2   5   10.05    0.93
   3  -2  -5    8.51    0.93
  -3   2   4   17.99    1.62
   3  -2  -4   14.79    1.46
   3  -2  -4   17.45    1.47
   3  -2  -4   17.90    1.77
  -3   2   4   14.97    1.75
  -3   2   4   17.43    1.51
  -3   2   4   15.23    1.48
   3  -2  -4   16.46    1.50
  -3   2   3    4.69    0.51
   3  -2  -3    3.69    0.60
  -3   2   3    4.44    0.63
   3  -2  -3    3.81    0.36
   3  -2  -3    3.68    0.40
  -3   2   3    4.25    0.40
  -3   2   2    3.05    0.38
   3  -2  -2    2.11    0.46
  -3   2   2    3.29    0.31
   3  -2  -2    2.36    0.30
  -3   2   2    3.23    0.30
   3  -2  -1   12.40    1.21
  -3   2   1   12.84    1.20
  -3   2   1   12.11    1.14
   3  -2  -1   12.13    1.13
  -3   2   1   11.38    1.12
   3  -2  -1   11.68    1.30
  -3   2   1   11.67    1.10
   3  -2   0   11.58    1.18
  -3   2   0   11.72    1.16
   3  -2   0    9.75    1.12
  -3   2   0   11.77    1.13
  -3   2   0   12.13    1.10
   3  -2   0   11.19    1.13
  -3   2   0   11.52    1.07
   3  -2   0   12.37    1.27
  -3   2   0   10.66    1.27
   3  -2   0   12.10    1.27
  -3   2  -1    4.73    0.50
   3  -2   1    4.02    0.47
  -3   2  -1    3.92    0.45
  -3   2  -1    4.17    0.47
   3  -2   1    3.83    0.42
  -3   2  -1    4.24    0.60
   3  -2   1    3.87    0.56
  -3   2  -1    3.80    0.58
   3  -2   1    3.31    0.58
   3  -2   2   35.38    3.20
  -3   2  -2   38.00    3.19
   3  -2   2   31.24    3.12
   3  -2   2   34.82    3.30
  -3   2  -2   36.11    3.34
   3  -2   2   34.08    3.11
   3  -2   2   23.06    3.30
  -3   2  -3  451.96   50.17
  -3   2  -3  582.57   50.14
   3  -2   3  576.49   50.07
   3  -2   3  546.13   50.27
  -3   2  -3  581.53   50.32
  -3   2  -3  470.62   50.29
   3  -2   3  420.51   50.31
  -3   2  -3  520.66   50.05
   3  -2   3  582.96   50.06
  -3   2  -4    3.48    0.59
  -3   2  -4    5.32    0.70
   3  -2   4    5.09    0.66
   3  -2   4    4.73    0.54
  -3   2  -4    4.63    0.80
  -3   2  -4    6.02    0.80
  -3   2  -4    6.07    0.52
   3  -2   4    3.57    0.79
   3  -2   4    5.57    0.53
  -3   2  -4    4.64    0.51
  -3   2  -5    2.44    0.37
  -3   2  -5    2.61    0.49
  -3   2  -5    2.17    0.52
   3  -2   5    2.87    0.45
   3  -2   5    2.06    0.31
  -3   2  -5    2.11    0.28
   3  -2   5    1.54    0.58
   3  -2   6    2.25    0.45
  -3   2  -6    2.06    0.47
   3  -2   6    0.98    0.58
  -3   2  -6    2.32    0.26
  -3   2  -6    1.99    0.64
  -3   2  -7   23.76    2.37
   3  -2   7   20.19    2.30
   3  -2   7   20.67    2.14
  -3   2  -7   23.90    2.11
   3  -2   7   18.15    2.58
  -3   2  -8    5.13    0.83
   3  -2   8    5.05    0.81
   3  -2   8    5.00    0.63
  -3   2  -8    6.42    0.60
   3  -2   8    5.14    1.14
  -3   2  -9    2.51    0.58
   3  -2   9    2.17    0.55
   3  -2   9    2.10    0.34
   3  -2   9    1.77    0.75
  -3   2 -10    5.75    0.89
   3  -2  10    5.07    0.86
   3  -2  10    5.36    0.64
   3  -2  10    5.54    1.26
  -3   2 -11    1.94    0.59
   3  -2  11    1.79    0.34
   3  -2  11    1.09    0.58
  -3   2 -12    0.69    0.58
   3  -1 -11    1.13    0.32
  -3   1  11    1.50    0.32
   3  -1 -10    0.55    0.43
   3  -1 -10    0.49    0.24
  -3   1  10    1.55    0.64
  -3   1  10    1.05    0.28
   3  -1  -9    1.64    0.53
   3  -1  -9    2.40    0.38
  -3   1   9    2.22    0.68
  -3   1   9    2.86    0.38
   3  -1  -8    3.89    0.69
   3  -1  -8    3.64    0.50
  -3   1   8    4.34    0.52
  -3   1   8    4.81    0.83
  -3   1   8    4.83    0.51
   3  -1  -7    0.81    0.34
  -3   1   7    0.43    0.36
   3  -1  -7    0.46    0.13
   3  -1  -7    0.51    0.39
   3  -1  -7    0.54    0.17
  -3   1   7    0.51    0.17
   3  -1  -6    2.18    0.44
   3  -1  -6    2.33    0.55
  -3   1   6    1.85    0.53
   3  -1  -6    2.52    0.32
  -3   1   6    2.91    0.33
   3  -1  -5    4.93    0.62
   3  -1  -5    4.69    0.46
   3  -1  -5    3.75    0.67
  -3   1   5    5.40    0.74
   3  -1  -5    3.78    0.49
  -3   1   5    5.15    0.48
   3  -1  -4  234.27   20.85
   3  -1  -4  243.41   20.95
  -3   1   4  225.14   20.94
  -3   1   4  232.91   20.73
   3  -1  -4  210.45   20.72
   3  -1  -3   19.24    1.86
  -3   1   3   18.62    1.84
   3  -1  -3   21.92    1.97
  -3   1   3   14.96    1.91
   3  -1  -3   18.37    1.75
  -3   1   3   18.79    1.75
   3  -1  -2    1.08    0.23
  -3   1   2    1.18    0.24
   3  -1  -2    1.59    0.34
  -3   1   2    1.34    0.33
  -3   1   2    1.30    0.16
   3  -1  -2    1.29    0.16
  -3   1   1   15.58    1.53
   3  -1  -1   16.74    1.47
  -3   1   1   15.00    1.46
   3  -1  -1   16.35    1.46
   3  -1  -1   16.07    1.63
  -3   1   1   13.46    1.61
  -3   1   1   15.33    1.43
   3  -1   0    9.60    0.93
  -3   1   0    8.56    0.91
   3  -1   0   10.45    0.93
  -3   1   0    9.33    0.97
   3  -1   0   10.14    1.03
  -3   1  -1    7.87    0.79
   3  -1   1    5.75    0.74
  -3   1  -1    7.89    0.74
   3  -1   1    7.45    0.75
  -3   1  -1    8.71    0.90
   3  -1   1    5.97    0.81
  -3   1  -1    8.33    0.85
  -3   1  -2    6.62    0.71
   3  -1   2    7.36    0.73
  -3   1  -2    5.84    0.81
   3  -1   2    7.19    0.79
  -3   1  -2    7.05    0.82
   3  -1   2    4.09    0.82
   3  -1   2    6.78    0.64
  -3   1  -2    6.58    0.89
  -3   1  -3   15.09    1.92
   3  -1   3   17.30    1.81
  -3   1  -3   19.14    1.80
  -3   1  -3   20.92    2.00
   3  -1   3   20.80    1.80
   3  -1   3   21.19    1.97
   3  -1   3   16.86    2.09
  -3   1  -3   19.47    2.10
  -3   1  -4    4.17    0.59
   3  -1   4    4.09    0.51
  -3   1  -4    2.73    0.50
   3  -1   4    3.46    0.41
  -3   1  -4    2.54    0.64
  -3   1  -4    3.94    0.60
  -3   1  -4    3.89    0.38
   3  -1   4    3.43    0.71
  -3   1  -4    3.30    0.38
   3  -1   4    4.58    0.40
   3  -1   5    2.78    0.47
  -3   1  -5    2.83    0.48
  -3   1  -5    3.27    0.56
  -3   1  -5    2.59    0.53
  -3   1  -5    2.99    0.71
   3  -1   5    2.68    0.69
  -3   1  -5    4.81    0.38
  -3   1  -5    2.67    0.34
  -3   1  -6   18.59    1.88
  -3   1  -6   20.60    1.74
   3  -1   6   15.75    1.78
   3  -1   6   14.11    1.65
  -3   1  -6   19.42    1.62
  -3   1  -6   16.12    1.63
   3  -1   6   13.87    2.06
  -3   1  -6   15.73    2.05
  -3   1  -7    2.79    0.56
   3  -1   7    2.82    0.51
   3  -1   7    2.85    0.38
  -3   1  -7    2.93    0.32
   3  -1   7    3.33    0.83
  -3   1  -8   10.22    1.11
   3  -1   8    6.99    0.98
   3  -1   8    7.53    0.81
   3  -1   8    6.78    1.30
  -3   1  -9    3.91    0.66
   3  -1   9    3.19    0.59
   3  -1   9    2.77    0.40
   3  -1   9    2.87    0.92
  -3   1 -10    1.33    0.50
   3  -1  10    1.06    0.45
   3  -1  10    1.19    0.27
   3  -1  10    0.57    0.70
  -3   1 -11    1.31    0.55
   3  -1  11    0.78    0.27
   3  -1  11    0.84    0.53
  -3   1 -12    0.14    0.52
   3  -1  12   -0.07    0.46
   3  -1  12    0.24    0.26
  -3   0  11    0.08    0.26
   3   0 -10   -0.07    0.25
   3   0 -10    0.73    0.46
  -3   0  10    0.55    0.24
   3   0  -9    1.43    0.47
   3   0  -9    0.41    0.22
  -3   0   9    0.65    0.55
  -3   0   9    1.01    0.48
  -3   0   9    0.79    0.24
   3   0  -8   12.63    1.32
  -3   0   8    7.89    1.41
   3   0  -8   10.46    1.10
  -3   0   8   12.39    1.12
  -3   0   8   11.47    1.40
   3   0  -8    9.62    1.01
  -3   0   8   13.65    1.12
   3   0  -7    3.33    0.61
  -3   0   7    4.14    0.48
   3   0  -7    4.28    0.49
   3   0  -7    3.99    0.43
  -3   0   7    4.70    0.73
   3   0  -7    3.80    0.71
   3   0  -7    3.76    0.40
  -3   0   7    4.93    0.49
   3   0  -6    5.03    0.66
   3   0  -6    4.12    0.51
  -3   0   6    4.41    0.51
  -3   0   6    4.69    0.72
   3   0  -6    5.17    0.47
   3   0  -6    5.13    0.72
   3   0  -6    4.21    0.44
  -3   0   6    4.98    0.52
   3   0  -5    1.71    0.37
   3   0  -5    1.88    0.21
   3   0  -5    1.93    0.43
  -3   0   5    1.74    0.41
   3   0  -5    1.59    0.18
   3   0  -5    1.86    0.25
  -3   0   4    9.53    0.98
   3   0  -4   10.84    1.03
   3   0  -4   10.81    1.08
   3   0  -4    8.73    0.83
  -3   0   4    8.58    1.05
   3   0  -4    8.27    0.88
  -3   0   4    9.79    0.89
   3   0  -3    9.67    0.98
  -3   0   3    8.31    1.01
   3   0  -3   10.24    1.04
   3   0  -3    8.92    0.83
   3   0  -3    9.20    0.88
  -3   0   3    8.94    0.88
   3   0  -2    2.97    0.38
   3   0  -2    2.76    0.42
  -3   0   2    2.40    0.41
   3   0  -2    2.31    0.28
  -3   0   2    2.76    0.29
   3   0  -1   46.03    4.25
   3   0  -1   45.82    4.30
  -3   0   1   41.99    4.30
   3   0  -1   42.86    4.18
  -3   0   1   46.92    4.17
   3   0   0    0.77    0.21
  -3   0   0    0.84    0.20
   3   0   0    0.77    0.14
  -3   0   0    0.86    0.34
  -3   0   0    1.32    0.15
  -3   0   0    1.35    0.29
  -3   0  -1    1.50    0.42
  -3   0  -1    2.01    0.25
  -3   0  -1    2.57    0.34
  -3   0  -1    2.25    0.31
   3   0   1    1.98    0.31
   3   0   1    1.79    0.43
  -3   0  -2    3.48    0.57
   3   0   2    2.98    0.55
  -3   0  -2    4.19    0.45
   3   0   2    3.87    0.39
  -3   0  -2    3.95    0.64
  -3   0  -2    4.84    0.53
   3   0   2    4.00    0.48
  -3   0  -3    5.46    0.75
   3   0   3    4.61    0.73
  -3   0  -3    6.23    0.66
  -3   0  -3    5.30    0.57
  -3   0  -3    5.58    0.85
   3   0   3    6.45    0.57
  -3   0  -3    6.67    0.72
   3   0   4    0.27    0.24
  -3   0  -4    0.34    0.26
  -3   0  -4    0.58    0.26
   3   0   4    0.68    0.10
  -3   0  -4    0.60    0.08
   3   0   4    0.22    0.41
  -3   0  -4    0.55    0.09
  -3   0  -4    0.73    0.39
   3   0   5    1.44    0.43
  -3   0  -5    2.26    0.47
   3   0   5    2.44    0.40
  -3   0  -5    3.09    0.51
  -3   0  -5    3.19    0.28
   3   0   5    1.99    0.60
  -3   0  -5    2.66    0.67
  -3   0  -5    2.34    0.28
  -3   0  -5    3.49    0.52
  -3   0  -6    2.74    0.45
  -3   0  -6    2.90    0.51
   3   0   6    1.22    0.37
   3   0   6    2.08    0.38
   3   0   6    1.94    0.28
   3   0   6    0.70    0.55
  -3   0  -6    2.51    0.23
  -3   0  -6    2.33    0.48
  -3   0  -6    2.06    0.62
  -3   0  -6    1.73    0.23
  -3   0  -7    1.99    0.39
  -3   0  -7    2.19    0.46
   3   0   7    0.90    0.32
   3   0   7    1.05    0.32
   3   0   7    1.17    0.22
   3   0   7    0.56    0.57
  -3   0  -7    1.31    0.18
  -3   0  -8   21.80    2.07
   3   0   8   12.82    1.81
   3   0   8   21.41    1.98
   3   0   8   20.88    1.79
   3   0   8   15.81    2.29
  -3   0  -9   65.52    5.61
   3   0   9   59.22    5.51
   3   0   9   67.93    5.32
   3   0   9   68.06    6.13
  -3   0 -10    6.03    0.90
   3   0  10    4.66    0.83
   3   0  10    5.56    0.63
   3   0  10    6.18    1.31
  -3   0 -11    1.80    0.59
   3   0  11    1.29    0.59
   3   0  11    2.64    0.38
   3   0  11    2.19    1.00
  -3   0 -12   -0.07    0.49
   3   0  12    0.27    0.47
   3   0  12    0.30    0.23
   3   0  13    3.15    0.47
   3   1 -10    0.84    0.29
   3   1 -10    0.49    0.49
  -3  -1  10    1.01    0.30
   3   1  -9    1.34    0.32
  -3  -1   9    0.97    0.57
   3   1  -9    1.38    0.50
  -3  -1   9    1.52    0.31
  -3  -1   8    5.08    1.01
   3   1  -8    5.65    0.73
   3   1  -8    7.00    0.93
  -3  -1   8    7.81    0.74
   3   1  -7    1.00    0.36
  -3  -1   7    0.63    0.48
   3   1  -7    0.52    0.21
   3   1  -7    0.80    0.13
  -3  -1   7    1.01    0.42
  -3  -1   7    1.11    0.23
   3   1  -6    1.60    0.40
   3   1  -6    1.38    0.27
  -3  -1   6    0.97    0.47
   3   1  -6    1.98    0.44
  -3  -1   6    1.68    0.42
   3   1  -6    1.65    0.19
  -3  -1   6    1.98    0.28
   3   1  -5    5.01    0.67
  -3  -1   5    4.13    0.80
   3   1  -5    4.25    0.54
  -3  -1   5    5.67    0.70
   3   1  -5    4.79    0.50
   3   1  -5    4.84    0.48
   3   1  -5    4.69    0.66
  -3  -1   5    6.80    0.57
   3   1  -4    4.09    0.53
  -3  -1   4    3.97    0.51
  -3  -1   4    1.95    0.59
  -3  -1   4    4.16    0.43
   3   1  -4    3.94    0.42
   3   1  -4    3.57    0.42
   3   1  -4    4.00    0.39
   3   1  -4    3.32    0.52
   3   1  -4    3.55    0.36
  -3  -1   4    3.44    0.53
  -3  -1   4    4.48    0.43
  -3  -1   3    1.65    0.28
   3   1  -3    1.32    0.26
  -3  -1   3    1.40    0.31
   3   1  -3    1.57    0.31
   3   1  -3    1.36    0.15
   3   1  -3    1.45    0.19
  -3  -1   3    1.14    0.42
   3   1  -3    1.45    0.20
  -3  -1   3    1.71    0.21
  -3  -1   2    0.96    0.20
   3   1  -2    0.74    0.19
   3   1  -2    0.61    0.22
  -3  -1   2    0.72    0.24
  -3  -1   2    0.66    0.33
   3   1  -2    0.81    0.13
  -3  -1   2    1.03    0.15
   3   1  -1    5.53    0.69
  -3  -1   1    6.46    0.69
  -3  -1   1    5.51    0.84
  -3  -1   1    5.75    0.73
  -3  -1   1    6.48    0.60
  -3  -1   1    6.61    0.64
   3   1   0   13.36    1.35
   3   1   0   11.21    1.46
  -3  -1   0   14.27    1.27
  -3  -1   0   11.50    1.36
  -3  -1  -1    3.08    0.55
  -3  -1  -1    3.38    0.36
   3   1   1    2.68    0.55
   3   1   1    3.70    0.37
   3   1   1    2.58    0.51
  -3  -1  -2   57.10    5.21
   3   1   2   58.27    5.23
  -3  -1  -2   47.19    5.38
  -3  -1  -2   47.37    5.40
  -3  -1  -2   62.98    5.24
   3   1   2   43.17    5.39
  -3  -1  -3   18.20    1.71
   3   1   3   10.27    1.77
   3   1   3   18.09    1.62
   3   1   3   13.62    1.91
  -3  -1  -3   19.63    1.73
  -3  -1  -3   15.46    1.93
   3   1   4    0.33    0.26
  -3  -1  -4    0.84    0.34
  -3  -1  -4    0.40    0.08
   3   1   4    0.83    0.09
  -3  -1  -4    0.47    0.06
  -3  -1  -4    0.44    0.21
  -3  -1  -5    2.40    0.50
   3   1   5    1.14    0.41
  -3  -1  -5    2.22    0.47
  -3  -1  -5    2.16    0.64
  -3  -1  -5    2.81    0.25
  -3  -1  -5    2.25    0.26
  -3  -1  -6    4.92    0.70
  -3  -1  -6    4.42    0.66
   3   1   6    2.42    0.54
   3   1   6    3.32    0.43
  -3  -1  -6    4.03    0.73
  -3  -1  -6    3.47    0.79
  -3  -1  -6    3.98    0.38
  -3  -1  -7    4.39    0.65
  -3  -1  -7    3.81    0.61
   3   1   7    2.47    0.56
   3   1   7    3.00    0.50
   3   1   7    3.46    0.41
   3   1   7    3.05    0.83
  -3  -1  -7    3.50    0.36
  -3  -1  -8    2.83    0.55
  -3  -1  -8    2.09    0.48
   3   1   8    2.57    0.44
   3   1   8    1.11    0.42
   3   1   8    2.10    0.30
   3   1   8    2.62    0.84
  -3  -1  -8    1.94    0.24
  -3  -1  -9    3.45    0.63
   3   1   9    1.45    0.46
   3   1   9    3.19    0.55
   3   1   9    2.60    0.35
   3   1   9    2.04    0.87
  -3  -1 -10    0.32    0.42
   3   1  10    0.26    0.33
   3   1  10    0.42    0.20
   3   1  10    0.87    0.77
  -3  -1 -11    3.01    0.67
   3   1  11    0.69    0.52
   3   1  11    2.32    0.35
   3   1  11    1.58    0.95
  -3  -1 -12    6.25    0.97
   3   1  12    3.69    0.90
   3   1  12    5.63    0.64
   3   1  13    0.21    0.49
   3   1  13    0.88    0.27
   3   2 -10    1.65    0.57
  -3  -2  10    1.73    0.39
   3   2  -9    0.64    0.29
   3   2  -9    1.27    0.46
  -3  -2   9    1.02    0.29
  -3  -2   8    1.36    0.56
   3   2  -8    1.15    0.30
   3   2  -8    1.73    0.47
  -3  -2   8    1.52    0.29
   3   2  -7    4.38    0.67
  -3  -2   7    2.51    0.71
   3   2  -7    4.07    0.51
   3   2  -7    3.95    0.40
  -3  -2   7    4.03    0.48
   3   2  -6    5.45    0.72
  -3  -2   6    3.64    0.82
   3   2  -6    4.82    0.59
  -3  -2   6    4.26    0.66
   3   2  -6    5.03    0.67
   3   2  -6    5.19    0.51
  -3  -2   6    5.83    0.59
   3   2  -5  116.11   10.61
  -3  -2   5   94.25   10.75
   3   2  -5  123.77   10.51
   3   2  -5  107.85   10.49
  -3  -2   5  119.35   10.59
   3   2  -5  120.22   10.56
   3   2  -5  107.00   10.42
  -3  -2   5  128.15   10.49
   3   2  -4   18.28    1.89
  -3  -2   4   22.18    1.89
  -3  -2   4   15.84    2.03
   3   2  -4   20.36    1.81
  -3  -2   4   19.92    1.86
   3   2  -4   18.68    1.75
   3   2  -4   17.72    1.84
   3   2  -4   16.80    1.73
  -3  -2   4   23.64    1.80
  -3  -2   3    1.39    0.26
   3   2  -3    1.46    0.27
   3   2  -3    1.03    0.20
  -3  -2   3    1.41    0.20
  -3  -2   3    1.26    0.42
   3   2  -3    1.17    0.23
  -3  -2   3    1.02    0.23
   3   2  -3    1.06    0.13
  -3  -2   3    1.26    0.19
  -3  -2   2    0.92    0.19
   3   2  -2    0.73    0.20
  -3  -2   2    0.28    0.30
   3   2  -2    0.40    0.13
  -3  -2   2    0.88    0.14
  -3  -2   2    0.83    0.09
   3   2  -2    0.36    0.08
  -3  -2   2    1.00    0.20
  -3  -2   2    0.87    0.14
  -3  -2   1    0.12    0.13
   3   2  -1    0.08    0.13
   3   2  -1    0.15    0.29
  -3  -2   1    0.05    0.28
  -3  -2   1    0.50    0.10
   3   2  -1    0.26    0.09
  -3  -2   1    0.30    0.06
  -3  -2   1    0.39    0.16
   3   2   0   15.28    1.65
  -3  -2   0   16.84    1.64
   3   2   0   11.52    1.75
  -3  -2   0   16.01    1.58
   3   2   0   16.46    1.59
  -3  -2   0   17.01    1.56
  -3  -2   0   18.36    1.58
   3   2   1    7.12    0.72
  -3  -2  -1    7.92    0.72
  -3  -2  -1    6.83    0.78
  -3  -2  -1    4.85    0.87
   3   2   1    4.43    0.89
  -3  -2  -1    7.80    0.70
   3   2   1    6.19    0.91
   3   2   2    2.29    0.29
  -3  -2  -2    1.54    0.43
  -3  -2  -2    2.55    0.24
   3   2   2    1.22    0.41
   3   2   3    3.25    0.63
  -3  -2  -3    3.71    0.66
   3   2   3    4.06    0.49
   3   2   3    3.62    0.68
  -3  -2  -3    4.53    0.40
   3   2   3    3.93    0.40
  -3  -2  -4    2.17    0.60
   3   2   4    2.39    0.62
   3   2   4    3.39    0.71
   3   2   4    4.55    0.41
  -3  -2  -5   21.84    2.22
   3   2   5   13.76    2.06
  -3  -2  -5   21.60    2.11
  -3  -2  -5   21.19    1.98
  -3  -2  -5   21.86    2.19
  -3  -2  -5   19.80    1.85
  -3  -2  -5   22.57    2.34
   3   2   5   21.86    2.37
  -3  -2  -6    4.14    0.63
  -3  -2  -6    4.38    0.70
  -3  -2  -6    3.75    0.49
   3   2   6    2.18    0.55
  -3  -2  -6    2.89    0.66
  -3  -2  -6    3.45    0.34
   3   2   6    3.87    0.84
  -3  -2  -7    4.32    0.69
  -3  -2  -7    4.31    0.73
   3   2   7    3.21    0.46
  -3  -2  -7    4.82    0.42
  -3  -2  -8    7.94    1.01
  -3  -2  -8    9.52    1.07
   3   2   8    6.74    0.76
  -3  -2  -8    7.98    0.72
  -3  -2  -9    2.55    0.55
   3   2   9    1.63    0.40
   3   2   9    0.74    0.43
   3   2   9    1.62    0.27
   3   2   9    1.23    0.79
  -3  -2  -9    1.48    0.20
  -3  -2 -10    3.44    0.66
   3   2  10    2.12    0.57
   3   2  10    3.35    0.57
   3   2  10    2.52    0.37
   3   2  10    2.05    0.92
  -3  -2 -11    0.33    0.44
   3   2  11    0.11    0.36
   3   2  11    0.22    0.20
   3   2  11    0.48    0.85
  -3  -2 -12    7.06    1.07
   3   2  12    6.84    0.71
   3   2  13    1.40    0.30
   3   2  13    1.11    0.60
   3   2  14    1.03    0.30
   3   3 -10    2.49    0.63
   3   3  -9    5.26    0.74
   3   3  -9    5.57    0.90
   3   3  -8    0.52    0.26
   3   3  -8    1.07    0.43
  -3  -3   8    1.33    0.32
   3   3  -7    2.72    0.43
  -3  -3   7    1.89    0.63
   3   3  -7    2.90    0.55
  -3  -3   7    3.72    0.44
   3   3  -6    4.21    0.63
   3   3  -6    4.86    0.55
   3   3  -6    4.04    0.43
  -3  -3   6    4.90    0.52
   3   3  -5    3.52    0.50
  -3  -3   5    1.96    0.57
   3   3  -5    3.48    0.42
   3   3  -5    2.74    0.31
  -3  -3   5    2.96    0.38
   3   3  -4   11.72    1.33
  -3  -3   4   14.75    1.34
  -3  -3   4    8.99    1.44
   3   3  -4   13.25    1.29
   3   3  -4   12.01    1.18
  -3  -3   4   14.07    1.25
   3   3  -3    3.46    0.48
  -3  -3   3    3.95    0.47
   3   3  -3    4.09    0.46
  -3  -3   3    2.47    0.63
   3   3  -3    3.69    0.42
  -3  -3   3    3.77    0.39
   3   3  -3    3.30    0.36
  -3  -3   3    4.04    0.42
   3   3  -2    2.75    0.39
  -3  -3   2    3.07    0.38
  -3  -3   2    1.98    0.53
   3   3  -2    3.08    0.37
   3   3  -2    2.88    0.33
  -3  -3   2    2.49    0.32
   3   3  -2    2.54    0.28
  -3  -3   2    2.91    0.29
  -3  -3   2    2.68    0.32
  -3  -3   2    2.95    0.33
   3   3  -2    3.27    0.46
  -3  -3   1    0.47    0.16
   3   3  -1    0.33    0.16
   3   3  -1    0.32    0.32
   3   3  -1    0.29    0.10
  -3  -3   1   -0.06    0.33
  -3  -3   1    0.37    0.07
  -3  -3   1    0.38    0.14
   3   3  -1    0.50    0.20
   3   3   0    3.67    0.52
  -3  -3   0    4.81    0.52
   3   3   0    3.95    0.69
   3   3   0    4.22    0.47
  -3  -3   0    3.77    0.69
  -3  -3   0    4.62    0.44
  -3  -3   0    4.81    0.46
   3   3   0    4.93    0.52
   3   3   1   31.27    2.86
   3   3   1   22.72    3.05
  -3  -3  -1   32.01    2.92
   3   3   1   23.34    3.02
  -3  -3  -1   31.58    2.83
  -3  -3  -2    7.15    0.67
   3   3   2    6.71    0.68
   3   3   2    4.31    0.86
  -3  -3  -2    4.42    0.85
  -3  -3  -2    7.26    0.65
   3   3   2    4.58    0.85
  -3  -3  -2    6.01    0.89
   3   3   3    3.04    0.42
  -3  -3  -3    3.36    0.41
  -3  -3  -3    3.11    0.62
  -3  -3  -3    3.50    0.58
  -3  -3  -3    3.30    0.65
  -3  -3  -3    4.22    0.37
   3   3   3    2.25    0.58
   3   3   4    4.56    0.57
  -3  -3  -4    5.47    0.55
   3   3   4    4.33    0.76
  -3  -3  -4    5.51    0.84
   3   3   4    3.89    0.78
  -3  -3  -4    4.90    0.84
  -3  -3  -5   32.60    2.90
  -3  -3  -5   34.39    3.23
   3   3   5   24.07    3.07
   3   3   5   26.50    3.22
  -3  -3  -6    0.56    0.39
   3   3   6    0.94    0.44
  -3  -3  -6    0.75    0.24
  -3  -3  -6    0.63    0.41
   3   3   6    0.89    0.59
  -3  -3  -6    0.84    0.10
  -3  -3  -7   10.84    1.10
  -3  -3  -7   10.27    1.32
   3   3   7    6.37    1.21
   3   3   7    6.72    1.37
  -3  -3  -7   10.15    0.94
  -3  -3  -8  158.82   12.10
  -3  -3  -8  127.87   11.94
   3   3   8  128.93   11.69
  -3  -3  -8  127.44   11.62
   3   3   8  120.71   12.31
  -3  -3  -9    4.62    0.84
  -3  -3  -9    7.45    1.00
   3   3   9    3.91    0.86
   3   3   9    5.81    0.63
  -3  -3  -9    5.91    0.57
  -3  -3 -10    1.81    0.53
   3   3  10    2.11    0.31
   3   3  10    1.32    0.53
  -3  -3 -11   -0.27    0.41
   3   3  11    0.50    0.36
   3   3  11    0.36    0.21
  -3  -3 -12    3.70    0.81
   3   3  12    2.72    0.73
   3   3  12    4.93    0.53
   3   3  12    4.31    1.33
   3   3  13    1.07    0.29
   3   3  13 1503.03   37.46
   3   4  -9    0.05    0.40
   3   4  -8    0.52    0.38
  -3  -4   8    0.22    0.40
   3   4  -7    3.39    0.59
  -3  -4   7    5.15    0.60
  -3  -4   6    5.89    1.14
   3   4  -6    8.76    1.09
   3   4  -5    3.70    0.54
   3   4  -5    3.21    0.48
   3   4  -5    3.07    0.45
  -3  -4   5    2.19    0.62
   3   4  -5    3.35    0.36
  -3  -4   5    4.27    0.47
   3   4  -4    2.65    0.42
  -3  -4   4    3.33    0.44
   3   4  -4    2.01    0.34
   3   4  -4    2.40    0.39
  -3  -4   4    2.21    0.57
   3   4  -4    2.26    0.27
  -3  -4   4    3.17    0.36
  -3  -4   3    4.68    0.62
   3   4  -3    5.73    0.66
   3   4  -3    6.16    0.66
   3   4  -3    5.40    0.59
  -3  -4   3    4.02    0.79
   3   4  -3    5.50    0.53
  -3  -4   3    5.16    0.59
   3   4  -3    5.72    0.77
   3   4  -2    7.63    0.80
  -3  -4   2    7.62    0.77
   3   4  -2    6.41    0.97
   3   4  -2    7.25    0.73
   3   4  -2    7.35    0.78
  -3  -4   2    7.51    0.68
   3   4  -2    6.11    0.68
   3   4  -2    8.45    0.90
   3   4  -1    3.68    0.44
  -3  -4   1    3.09    0.40
   3   4  -1    2.46    0.63
   3   4  -1    3.61    0.38
  -3  -4   1    1.49    0.54
   3   4  -1    3.41    0.34
  -3  -4   1    3.05    0.33
   3   4  -1    5.08    0.54
  -3  -4   0   12.26    1.18
  -3  -4   0    8.63    1.37
   3   4   0    7.97    1.34
   3   4   0   12.07    1.14
  -3  -4   0   12.26    1.14
  -3  -4   0   10.43    1.18
  -3  -4   0   12.39    1.11
   3   4   0   11.03    1.13
  -3  -4   0   13.04    1.15
   3   4   0   12.30    1.23
   3   4   0    8.54    1.29
  -3  -4  -1  553.89   51.53
  -3  -4  -1  413.15   51.73
   3   4   1  463.74   51.75
  -3  -4  -1  571.47   51.48
   3   4   1  561.78   51.49
  -3  -4  -1  505.14   51.57
  -3  -4  -1  572.22   51.46
  -3  -4  -1  730.50   51.50
   3   4   1  549.80   51.52
   3   4   1  406.13   51.65
  -3  -4  -1  589.81   51.52
   3   4   1  509.44   51.46
   3   4   2   18.53    2.72
   3   4   2   27.41    2.51
  -3  -4  -2   26.79    2.50
  -3  -4  -2   23.19    2.63
   3   4   2   25.64    2.48
  -3  -4  -2   31.00    2.49
  -3  -4  -2   27.19    2.54
   3   4   2   20.94    2.70
  -3  -4  -2   20.99    2.70
   3   4   3    2.22    0.31
  -3  -4  -3    3.65    0.31
  -3  -4  -3    2.81    0.62
  -3  -4  -3    2.95    0.50
   3   4   3    2.08    0.25
  -3  -4  -3    3.36    0.27
   3   4   3    2.74    0.57
  -3  -4  -3    3.00    0.62
   3   4   3    2.21    0.24
  -3  -4  -4    3.46    0.51
  -3  -4  -4    3.02    0.37
   3   4   4    3.20    0.41
  -3  -4  -4    3.04    0.66
  -3  -4  -4    3.09    0.57
   3   4   4    3.23    0.31
   3   4   4    2.84    0.65
  -3  -4  -4    2.23    0.62
  -3  -4  -5   23.02    2.62
   3   4   5   17.05    2.50
  -3  -4  -5   22.97    2.44
  -3  -4  -5   23.73    2.28
  -3  -4  -5   19.60    2.46
   3   4   5   24.23    2.19
  -3  -4  -5   23.38    2.65
   3   4   5   22.37    2.65
  -3  -4  -6    1.40    0.27
   3   4   6    1.38    0.49
  -3  -4  -6    1.60    0.58
  -3  -4  -6    1.41    0.39
   3   4   6    0.68    0.47
  -3  -4  -6    1.54    0.57
  -3  -4  -7    0.97    0.26
  -3  -4  -7    0.61    0.35
  -3  -4  -7    0.94    0.47
   3   4   7    1.00    0.60
  -3  -4  -7    0.98    0.11
  -3  -4  -8   15.00    1.74
   3   4   8   10.63    1.83
  -3  -4  -8   13.67    1.28
  -3  -4  -9    3.17    0.73
   3   4   9    1.91    0.32
   3   4   9    3.10    0.93
  -3  -4  -9    2.25    0.24
   3   4  10    1.00    0.23
   3   4  10    0.44    0.78
  -3  -4 -11    0.94    0.51
   3   4  11    1.53    0.28
  -3  -4 -12    1.88    0.59
   3   4  12    1.27    0.53
   3   4  12    2.13    0.33
   3   4  13 8875.11   32.38
   3   4  13    5.00    0.67
  -3  -5   8    0.90    0.32
   3   5  -7    1.43    0.35
   3   5  -7    0.96    0.42
  -3  -5   7    2.00    0.38
   3   5  -6   48.95    4.75
   3   5  -6   53.80    4.86
  -3  -5   6   59.48    4.77
   3   5  -5    8.36    1.03
   3   5  -5    9.37    1.11
   3   5  -4    2.34    0.33
  -3  -5   4    0.74    0.44
  -3  -5   4    1.93    0.36
   3   5  -4    1.96    0.38
  -3  -5   4    2.28    0.41
   3   5  -4    2.34    0.59
  -3  -5   3    8.76    0.94
   3   5  -3    8.55    0.96
  -3  -5   3    5.57    1.10
   3   5  -3    9.11    0.97
   3   5  -3    8.08    0.89
   3   5  -3    8.14    0.84
   3   5  -3    9.09    1.12
  -3  -5   2    1.79    0.29
   3   5  -2    1.82    0.32
   3   5  -2    2.22    0.46
  -3  -5   2    1.76    0.22
   3   5  -2    1.88    0.22
   3   5  -2    1.37    0.51
   3   5  -2    1.83    0.26
  -3  -5   2    1.34    0.52
   3   5  -2    1.68    0.33
   3   5  -1    2.39    0.35
  -3  -5   1    2.30    0.32
   3   5  -1    2.50    0.49
   3   5  -1    1.36    0.54
   3   5  -1    2.42    0.30
  -3  -5   1    1.29    0.51
   3   5  -1    2.32    0.27
  -3  -5   1    2.56    0.27
  -3  -5   0    4.48    0.50
   3   5   0    3.49    0.77
   3   5   0    4.51    0.49
  -3  -5   0    4.71    0.48
  -3  -5   0    3.38    0.75
  -3  -5   0    4.66    0.45
  -3  -5   0    3.47    0.49
   3   5   0    4.46    0.47
  -3  -5   0    5.11    0.50
   3   5   0    3.59    0.65
   3   5   0    5.09    0.63
  -3  -5  -1    3.11    0.38
  -3  -5  -1    2.50    0.68
   3   5   1    2.66    0.34
  -3  -5  -1    3.26    0.34
  -3  -5  -1    2.30    0.41
  -3  -5  -1    2.99    0.31
   3   5   1    2.66    0.32
   3   5   1    2.80    0.42
  -3  -5  -1    3.46    0.34
  -3  -5  -1    3.61    0.44
  -3  -5  -2   10.15    1.07
  -3  -5  -2    6.76    1.26
   3   5   2    9.17    1.35
   3   5   2   11.33    1.03
  -3  -5  -2   10.57    1.00
  -3  -5  -2    8.20    1.12
  -3  -5  -2   10.97    0.99
   3   5   2   10.01    0.99
  -3  -5  -2   10.48    0.99
   3   5   2    9.14    1.23
   3   5   2   10.20    0.97
  -3  -5  -2   10.18    1.10
   3   5   3    3.31    0.37
  -3  -5  -3    2.87    0.34
   3   5   3    2.54    0.66
  -3  -5  -3    2.85    0.51
  -3  -5  -3    1.57    0.52
  -3  -5  -3    2.55    0.43
  -3  -5  -3    3.10    0.32
   3   5   3    3.21    0.62
   3   5   3    3.26    0.32
   3   5   3    2.98    0.30
  -3  -5  -4    8.51    1.22
  -3  -5  -4    8.80    0.98
  -3  -5  -4    8.71    0.82
   3   5   4    8.73    0.86
   3   5   4    7.03    1.15
  -3  -5  -4    7.36    1.02
   3   5   4    7.80    0.77
   3   5   4    6.34    1.08
  -3  -5  -4    8.42    1.16
  -3  -5  -5    2.71    0.71
  -3  -5  -5    2.22    0.46
   3   5   5    2.82    0.40
   3   5   5    2.31    0.69
  -3  -5  -5    2.93    0.34
  -3  -5  -5    1.65    0.51
   3   5   5    2.70    0.27
   3   5   5    2.01    0.65
   3   5   6    5.35    1.08
  -3  -5  -6    6.96    0.79
  -3  -5  -6    7.94    1.19
  -3  -5  -6    6.59    0.95
   3   5   6    6.06    1.15
   3   5   6    7.90    0.72
  -3  -5  -6    6.49    1.17
  -3  -5  -7   10.53    1.29
  -3  -5  -7    8.95    1.54
  -3  -5  -7   10.81    1.43
   3   5   7   13.33    1.19
   3   5   7    9.52    1.67
  -3  -5  -8    1.09    0.41
  -3  -5  -8    1.75    0.61
   3   5   8    1.34    0.74
  -3  -5  -8    1.16    0.13
  -3  -5  -9    0.73    0.56
  -3  -5  -9    0.29    0.36
  -3  -5  -9    0.28    0.07
   3   5   9    0.53    0.72
  -3  -5 -10    1.96    0.50
   3   5  10    1.42    0.27
   3   5  10    1.45    0.80
   3   5  11   13.55    1.36
   3   5  11   16.28    2.24
   3   5  12    1.94    0.32
   3   5  12    2.05    1.07
   3   5  13 5063.67  466.72
   3   6  -7    1.06    0.33
  -3  -6   7    0.82    0.30
   3   6  -6    6.36    0.80
  -3  -6   6    7.22    0.79
  -3  -6   5    0.76    0.46
   3   6  -5    1.70    0.31
   3   6  -5    1.58    0.37
  -3  -6   5    1.03    0.30
   3   6  -4    6.05    0.64
   3   6  -4    5.65    0.69
  -3  -6   4    5.41    0.67
  -3  -6   4    5.26    0.63
   3   6  -3    5.65    1.03
   3   6  -3    6.92    0.79
  -3  -6   3    6.72    1.07
   3   6  -3    7.09    0.84
  -3  -6   3    7.03    0.81
  -3  -6   3    8.60    0.81
   3   6  -3    9.21    1.07
   3   6  -2    0.79    0.24
  -3  -6   2    1.20    0.24
   3   6  -2    0.77    0.40
  -3  -6   2    1.07    0.17
   3   6  -2    0.47    0.51
   3   6  -2    0.87    0.20
  -3  -6   2    0.23    0.41
  -3  -6   1    1.00    0.20
   3   6  -1    1.18    0.40
  -3  -6   1    0.47    0.41
   3   6  -1    0.36    0.44
   3   6  -1    0.89    0.20
  -3  -6   1    1.17    0.17
  -3  -6   0    2.93    0.34
   3   6   0    2.72    0.50
   3   6   0    1.65    0.64
   3   6   0    2.46    0.33
  -3  -6   0    1.80    0.60
  -3  -6   0    2.28    0.33
  -3  -6   0    3.11    0.30
   3   6   0    2.48    0.49
  -3  -6   0    2.86    0.33
   3   6   0    2.32    0.30
   3   6   1    0.34    0.24
  -3  -6  -1    0.27    0.14
  -3  -6  -1    0.26    0.22
  -3  -6  -1    0.17    0.40
   3   6   1    0.08    0.46
   3   6   1    0.25    0.12
  -3  -6  -1    0.52    0.13
  -3  -6  -1    0.31    0.10
  -3  -6  -1    0.26    0.21
   3   6   1    0.22    0.09
   3   6   1    0.22    0.11
  -3  -6  -1    0.33    0.12
   3   6   1    0.19    0.27
  -3  -6  -2    1.09    0.22
  -3  -6  -2    1.04    0.30
   3   6   2    0.75    0.17
  -3  -6  -2    0.98    0.16
  -3  -6  -2    0.44    0.44
   3   6   2    0.49    0.49
  -3  -6  -2    0.71    0.29
  -3  -6  -2    1.31    0.16
   3   6   2    0.67    0.12
  -3  -6  -2    1.01    0.16
   3   6   2    0.62    0.14
   3   6   2    0.63    0.37
  -3  -6  -3    1.53    0.36
   3   6   3    1.52    0.22
  -3  -6  -3    1.61    0.20
   3   6   3    1.01    0.51
  -3  -6  -3    1.73    0.20
  -3  -6  -3    1.01    0.36
   3   6   3    1.22    0.18
  -3  -6  -3    1.01    0.46
   3   6   3    1.03    0.43
   3   6   3    1.31    0.16
  -3  -6  -4    2.91    0.48
  -3  -6  -4    3.38    0.35
   3   6   4    3.40    0.39
   3   6   4    2.35    0.74
  -3  -6  -4    1.70    0.50
  -3  -6  -4    1.37    0.53
   3   6   4    3.01    0.32
   3   6   4    2.75    0.63
  -3  -6  -4    3.22    0.51
  -3  -6  -5    1.34    0.55
  -3  -6  -5    1.43    0.36
  -3  -6  -5    1.35    0.22
   3   6   5    1.11    0.26
  -3  -6  -5    1.30    0.43
   3   6   5    1.39    0.54
   3   6   5    1.69    0.19
  -3  -6  -5    0.89    0.50
  -3  -6  -6   18.26    1.94
  -3  -6  -6   16.68    2.32
  -3  -6  -6   13.39    2.05
  -3  -6  -6   16.95    2.34
   3   6   6   14.83    2.28
  -3  -6  -7  129.61   14.30
  -3  -6  -7  131.31   14.71
  -3  -6  -7  108.42   14.42
   3   6   7  174.46   14.24
   3   6   7  131.00   14.77
  -3  -6  -8    9.60    1.07
  -3  -6  -8    8.57    1.43
  -3  -6  -8    8.39    1.21
   3   6   8   10.59    0.97
   3   6   8    9.79    1.58
  -3  -6  -9    4.97    0.99
  -3  -6  -9    3.32    0.68
   3   6   9    4.98    1.11
  -3  -6 -10    0.25    0.33
  -3  -6 -10   -0.43    0.67
   3   6  10    0.08    0.18
   3   6  10   -0.28    0.76
  -3  -6 -11    8.58    1.22
   3   6  11    9.35    0.95
   3   6  11    9.44    1.72
  -3  -6 -12    0.42    0.41
   3   6  12    0.20    0.20
   3   6  12   -0.34    0.81
   3   7  -6    2.24    0.41
  -3  -7   6    2.13    0.38
   3   7  -5    3.46    0.49
  -3  -7   5    3.30    0.48
   3   7  -4    1.82    0.32
  -3  -7   4    0.69    0.46
  -3  -7   4    1.26    0.29
   3   7  -3    1.34    0.29
  -3  -7   3    2.05    0.34
  -3  -7   3    1.61    0.58
   3   7  -3    1.70    0.35
  -3  -7   3    1.82    0.30
  -3  -7   2    3.41    0.46
  -3  -7   2    2.46    0.71
   3   7  -2    3.66    0.80
   3   7  -2    3.72    0.47
  -3  -7   2    4.32    0.42
   3   7  -2    3.17    0.62
  -3  -7   1    3.21    0.38
   3   7  -1    3.75    0.65
   3   7  -1    2.04    0.66
   3   7  -1    3.07    0.39
  -3  -7   1    2.50    0.70
  -3  -7   1    3.09    0.35
   3   7  -1    2.52    0.54
  -3  -7   1    3.18    0.39
  -3  -7   0    7.72    1.31
  -3  -7   0   10.78    0.95
   3   7   0   10.35    0.96
  -3  -7   0    9.73    0.92
  -3  -7   0    7.72    0.94
  -3  -7   0    8.97    0.95
   3   7   0    9.60    1.16
   3   7   0    8.57    1.12
   3   7   1    1.67    0.42
  -3  -7  -1    1.69    0.40
  -3  -7  -1    1.42    0.25
   3   7   1    1.94    0.27
  -3  -7  -1    1.46    0.33
  -3  -7  -1    1.81    0.23
  -3  -7  -1    2.08    0.26
   3   7   1    1.23    0.42
   3   7   1    2.02    0.23
  -3  -7  -2    0.80    0.20
  -3  -7  -2    1.34    0.54
  -3  -7  -2    0.59    0.32
   3   7   2    0.64    0.17
  -3  -7  -2    0.73    0.16
  -3  -7  -2    0.80    0.15
  -3  -7  -2    0.96    0.30
   3   7   2    0.39    0.33
   3   7   2    0.78    0.13
  -3  -7  -3    0.69    0.51
  -3  -7  -3   -0.06    0.21
  -3  -7  -3    0.59    0.31
   3   7   3    0.31    0.15
  -3  -7  -3    0.47    0.13
  -3  -7  -3    0.25    0.12
  -3  -7  -3   -0.05    0.28
   3   7   3    0.39    0.08
   3   7   3    0.52    0.36
   3   7   3    0.32    0.11
  -3  -7  -3    0.42    0.36
  -3  -7  -4    5.02    0.65
   3   7   4    5.92    0.58
  -3  -7  -4    6.14    0.53
   3   7   4    6.95    0.93
  -3  -7  -4    4.50    0.76
  -3  -7  -4    5.78    0.54
   3   7   4    4.83    0.48
  -3  -7  -4    4.46    0.72
   3   7   4    3.57    0.52
  -3  -7  -4    3.72    0.79
   3   7   4    4.13    0.80
  -3  -7  -5    1.76    0.46
  -3  -7  -5    1.33    0.64
  -3  -7  -5    1.77    0.38
   3   7   5    2.71    0.35
  -3  -7  -5    2.61    0.26
   3   7   5    3.33    0.68
   3   7   5    1.35    0.52
   3   7   5    0.69    0.26
  -3  -7  -6    1.35    0.38
  -3  -7  -6    0.72    0.56
  -3  -7  -6    1.82    0.26
   3   7   6    1.13    0.53
   3   7   6    1.65    0.64
   3   7   6    2.64    0.30
  -3  -7  -7    0.46    0.29
  -3  -7  -7    0.42    0.49
  -3  -7  -7    0.57    0.18
   3   7   7    1.08    0.60
   3   7   7    0.83    0.59
   3   7   7    0.82    0.14
  -3  -7  -8    1.65    0.29
  -3  -7  -8    0.85    0.63
  -3  -7  -8    1.01    0.41
   3   7   8    2.24    0.23
   3   7   8    1.39    0.74
  -3  -7  -9    0.67    0.59
  -3  -7  -9    0.17    0.35
   3   7   9   -0.25    0.64
  -3  -7 -10    8.53    1.12
  -3  -7 -10    9.33    1.52
   3   7  10    6.94    1.46
  -3  -7 -11    0.76    0.45
   3   7  11    1.07    0.24
   3   7  11    1.83    0.93
  -3  -7 -12    0.90    0.50
   3   7  12    1.38    0.27
   3   8  -5    0.69    0.28
  -3  -8   5    0.35    0.28
   3   8  -4    0.21    0.23
  -3  -8   4    0.29    0.25
   3   8  -3    0.19    0.21
  -3  -8   3    0.23    0.48
  -3  -8   3   -0.04    0.22
   3   8  -2    5.79    0.61
  -3  -8   2    3.01    0.85
  -3  -8   1    4.50    0.56
  -3  -8   1    3.86    0.91
   3   8  -1    5.49    0.60
  -3  -8   1    5.83    0.56
  -3  -8   1    5.45    0.60
  -3  -8   0    8.34    1.45
  -3  -8   0   10.67    1.04
   3   8   0   10.82    1.08
  -3  -8   0    9.02    1.04
  -3  -8   0   12.60    1.05
   3   8   0   10.78    1.32
  -3  -8   0   10.33    1.07
   3   8   0   10.19    1.18
   3   8   1    2.38    0.54
  -3  -8  -1    2.28    0.73
  -3  -8  -1    2.93    0.32
   3   8   1    2.09    0.34
  -3  -8  -1    3.09    0.46
  -3  -8  -1    2.78    0.32
   3   8   1    1.92    0.47
  -3  -8  -1    2.48    0.53
  -3  -8  -2    2.24    0.29
  -3  -8  -2    1.74    0.68
  -3  -8  -2    1.52    0.31
  -3  -8  -2    2.43    0.51
   3   8   2    1.84    0.29
  -3  -8  -2    2.07    0.44
  -3  -8  -2    2.10    0.27
   3   8   2    1.97    0.47
   3   8   2    2.34    0.25
  -3  -8  -3   17.44    1.62
  -3  -8  -3   12.82    1.61
  -3  -8  -3   10.37    1.92
   3   8   3   17.13    1.59
  -3  -8  -3   18.61    1.56
  -3  -8  -3   17.31    1.56
  -3  -8  -3   14.57    1.76
  -3  -8  -3   17.59    1.84
   3   8   3   15.76    1.80
   3   8   3   15.17    1.53
  -3  -8  -4    0.64    0.51
  -3  -8  -4    0.42    0.22
  -3  -8  -4    0.11    0.31
   3   8   4    0.48    0.17
  -3  -8  -4    0.58    0.15
   3   8   4    0.48    0.45
  -3  -8  -4    0.48    0.15
  -3  -8  -4    0.06    0.32
   3   8   4    0.53    0.10
   3   8   4    0.19    0.39
  -3  -8  -4    0.12    0.33
   3   8   4    0.25    0.15
  -3  -8  -5    2.46    0.61
  -3  -8  -5    2.50    0.46
  -3  -8  -5    2.82    0.34
   3   8   5    2.94    0.41
  -3  -8  -5    2.92    0.36
   3   8   5    2.32    0.68
  -3  -8  -5    2.09    0.64
   3   8   5    1.88    0.63
  -3  -8  -6   13.05    1.78
  -3  -8  -6   10.78    1.37
   3   8   6   12.51    1.33
  -3  -8  -6   13.91    1.25
   3   8   6   16.42    1.79
   3   8   6   12.43    1.29
   3   8   6   12.03    1.65
  -3  -8  -6   12.94    1.55
  -3  -8  -6    9.58    1.62
  -3  -8  -7   -0.17    0.29
  -3  -8  -7    0.11    0.57
  -3  -8  -7    0.05    0.13
   3   8   7    0.19    0.53
   3   8   7    0.49    0.62
   3   8   7   -0.02    0.13
  -3  -8  -8    0.93    0.62
  -3  -8  -8    0.24    0.29
  -3  -8  -8    0.40    0.16
   3   8   8    0.72    0.59
   3   8   8    0.44    0.62
  -3  -8  -9    3.15    0.89
  -3  -8  -9    1.37    0.48
   3   8   9    2.58    0.95
  -3  -8 -10    5.78    0.86
  -3  -8 -10    6.33    1.28
   3   8  10    5.41    1.27
  -3  -8 -11    2.35    0.59
   3   8  11    3.20    0.40
  -3  -8 -12    0.68    0.47
   3   9  -4    3.27    0.48
  -3  -9   4    2.72    0.46
  -3  -9   3    0.07    0.42
   3   9  -3    0.04    0.23
  -3  -9   2    0.82    0.53
   3   9  -2    1.78    0.32
  -3  -9   1   10.30    1.62
  -3  -9   1   13.63    1.25
   3   9  -1   11.99    1.29
  -3  -9   0    4.65    1.08
   3   9   0    6.00    0.72
  -3  -9   0    7.36    0.70
  -3  -9  -1    0.10    0.51
  -3  -9  -1    0.26    0.08
  -3  -9  -1    0.17    0.08
   3   9   1    0.44    0.19
  -3  -9  -1    0.29    0.24
  -3  -9  -1    0.31    0.15
  -3  -9  -1    0.64    0.39
  -3  -9  -2    1.15    0.61
  -3  -9  -2    1.01    0.19
  -3  -9  -2    1.64    0.49
  -3  -9  -2    1.29    0.18
   3   9   2    1.16    0.24
  -3  -9  -2    1.18    0.21
  -3  -9  -2    0.65    0.33
   3   9   2    0.96    0.33
  -3  -9  -3   10.88    1.63
  -3  -9  -3   12.45    1.14
  -3  -9  -3   10.32    1.15
   3   9   3   11.30    1.15
  -3  -9  -3   11.12    1.33
  -3  -9  -3   12.60    1.12
  -3  -9  -3   11.82    1.44
   3   9   3   12.15    1.34
   3   9   3   10.51    1.09
  -3  -9  -4    1.68    0.74
  -3  -9  -4    1.60    0.36
  -3  -9  -4    1.91    0.61
   3   9   4    3.30    0.38
  -3  -9  -4    2.82    0.31
   3   9   4    2.96    0.66
   3   9   4    2.45    0.28
  -3  -9  -4    2.45    0.32
   3   9   4    3.11    0.62
  -3  -9  -4    1.78    0.54
  -3  -9  -5    2.73    0.51
  -3  -9  -5    3.33    0.89
  -3  -9  -5    3.63    0.76
   3   9   5    4.17    0.51
  -3  -9  -5    4.49    0.44
   3   9   5    4.41    0.91
  -3  -9  -5    4.10    0.46
   3   9   5    3.48    0.75
  -3  -9  -5    2.55    0.70
  -3  -9  -6   56.95    6.82
   3   9   6   74.41    6.80
  -3  -9  -6   77.07    6.71
   3   9   6   86.57    7.32
  -3  -9  -6   78.39    7.11
   3   9   6   73.53    7.15
  -3  -9  -6   55.39    7.09
  -3  -9  -7    2.57    0.64
  -3  -9  -7    2.05    0.83
  -3  -9  -7    1.18    0.41
  -3  -9  -7    2.92    0.31
   3   9   7    3.38    0.85
   3   9   7    1.20    0.63
  -3  -9  -8    2.76    0.89
  -3  -9  -8    1.68    0.45
  -3  -9  -8    2.45    0.30
   3   9   8    1.84    0.78
   3   9   8    2.31    0.79
  -3  -9  -9    1.57    0.78
  -3  -9  -9    0.98    0.42
   3   9   9    1.40    0.80
   3   9   9    2.47    0.88
  -3  -9 -10    4.23    1.09
  -3  -9 -10    2.76    0.57
  -3  -9 -11   -0.06    0.36
  -3  -9 -12    0.73    0.47
   3  10  -3    0.27    0.28
  -3 -10   2    0.63    0.52
   3  10  -2    0.11    0.24
  -3 -10   1   82.50    6.90
   3  10  -1   70.78    6.93
   3  10   0   13.03    1.36
  -3 -10   0   14.68    1.34
  -3 -10  -1    0.20    0.57
   3  10   1    0.50    0.21
  -3 -10  -1    0.75    0.21
  -3 -10  -1    0.59    0.44
  -3 -10  -2    1.62    0.68
  -3 -10  -2    2.73    0.64
   3  10   2    2.40    0.35
  -3 -10  -2    2.50    0.33
  -3 -10  -3    5.10    0.59
  -3 -10  -3    6.21    1.15
   3  10   3    6.54    0.67
  -3 -10  -3    5.34    0.85
  -3 -10  -3    6.77    0.64
  -3 -10  -3    6.60    0.98
  -3 -10  -4    0.11    0.16
  -3 -10  -4   -0.35    0.62
  -3 -10  -4    0.05    0.16
  -3 -10  -4    0.22    0.42
   3  10   4    0.06    0.19
   3  10   4    0.08    0.46
  -3 -10  -4    0.25    0.15
  -3 -10  -5    1.41    0.33
  -3 -10  -5    2.42    0.83
  -3 -10  -5    1.87    0.63
   3  10   5    2.58    0.37
  -3 -10  -5    2.38    0.28
   3  10   5    2.93    0.77
  -3 -10  -5    2.36    0.31
  -3 -10  -5    0.85    0.49
   3  10   5    2.25    0.58
  -3 -10  -6    3.19    0.77
  -3 -10  -6    3.19    0.55
  -3 -10  -6    2.49    0.88
   3  10   6    5.33    0.58
  -3 -10  -6    4.52    0.45
   3  10   6    6.40    1.07
  -3 -10  -6    1.99    0.78
   3  10   6    4.50    0.86
  -3 -10  -7    0.76    0.30
  -3 -10  -7    0.58    0.50
   3  10   7    0.73    0.66
   3  10   7    0.17    0.53
  -3 -10  -8   -0.95    0.55
  -3 -10  -8    0.54    0.82
  -3 -10  -8    0.04    0.26
  -3 -10  -8    0.14    0.18
   3  10   8   -0.11    0.66
   3  10   8   -0.10    0.58
  -3 -10  -9    4.78    1.15
  -3 -10  -9    2.99    0.60
   3  10   9    5.48    1.19
  -3 -10  -9    3.79    0.48
   3  10   9    2.93    0.91
  -3 -10 -10    0.68    0.41
   3  10  10    0.78    0.76
  -3 -10 -11    5.52    0.88
  -3 -10 -12    3.81    0.79
   3  11  -2    1.25    0.38
  -3 -11   1    0.71    0.55
   3  11  -1    0.42    0.28
  -3 -11   0    3.59    0.93
   3  11   0    4.53    0.59
  -3 -11   0    5.23    0.56
  -3 -11  -1    2.60    0.82
   3  11   1    4.91    0.54
  -3 -11  -1    4.19    0.50
  -3 -11  -1    3.35    0.79
  -3 -11  -2    0.11    0.57
  -3 -11  -2    0.44    0.48
  -3 -11  -2    0.46    0.21
   3  11   2    0.60    0.23
  -3 -11  -3    0.35    0.68
  -3 -11  -3   -0.08    0.47
  -3 -11  -3    0.23    0.18
   3  11   3    0.05    0.21
  -3 -11  -4    1.10    0.68
  -3 -11  -4    1.77    0.66
  -3 -11  -4    1.79    0.29
   3  11   4    1.57    0.31
  -3 -11  -5    6.10    1.38
  -3 -11  -5    7.58    1.24
   3  11   5   10.47    1.41
  -3 -11  -5    8.23    0.85
  -3 -11  -6    0.26    0.59
  -3 -11  -6    0.39    0.23
  -3 -11  -6    0.90    0.56
   3  11   6    0.20    0.59
  -3 -11  -7    1.11    0.65
  -3 -11  -7    0.46    0.26
   3  11   7   -0.44    0.80
  -3 -11  -8    0.72    0.81
  -3 -11  -8    0.19    0.53
  -3 -11  -8    0.70    0.33
  -3 -11  -8    1.00    0.24
   3  11   8    1.53    0.86
  -3 -11  -9    8.16    1.38
  -3 -11  -9    7.53    1.07
  -3 -11  -9   10.04    1.74
   3  11   9    9.51    1.62
  -3 -11  -9    9.83    0.96
  -3 -11 -10    0.31    0.63
  -3 -11 -10    0.20    0.36
  -3 -11 -10    0.86    0.27
  -3 -11 -11    3.26    0.67
  -3 -11 -12   32.82    3.41
   3  12  -1    0.07    0.26
  -3 -12   0    1.29    0.71
  -3 -12  -1    1.94    0.79
  -3 -12  -1    1.85    0.33
  -3 -12  -1    1.92    0.64
  -3 -12  -2    1.04    0.73
  -3 -12  -2    0.69    0.25
  -3 -12  -2    0.32    0.50
  -3 -12  -3    0.61    0.64
  -3 -12  -3    0.33    0.52
  -3 -12  -3    0.76    0.24
  -3 -12  -4    2.18    0.85
  -3 -12  -4    1.48    0.65
  -3 -12  -4    2.41    0.35
  -3 -12  -5   33.19    4.32
  -3 -12  -5   39.83    3.73
  -3 -12  -5   32.22    4.12
  -3 -12  -6    5.49    1.24
  -3 -12  -6    3.39    0.92
   3  12   6    6.66    1.21
  -3 -12  -7    0.73    0.76
  -3 -12  -7    1.32    0.68
   3  12   7    0.80    0.78
  -3 -12  -8    0.73    0.66
   3  12   8    1.72    0.93
  -3 -12  -8    0.79    0.25
  -3 -12  -9    4.63    1.16
  -3 -12  -9    6.71    0.74
  -3 -12 -10    0.11    0.67
  -3 -12 -10    0.36    0.33
  -3 -12 -11    0.12    0.67
  -3 -12 -11    0.10    0.37
  -3 -12 -12    0.55    0.44
  -3 -13  -1   -0.45    0.63
  -3 -13  -2    1.32    0.73
  -3 -13  -3   -0.13    0.69
  -3 -13  -3    0.44    0.55
  -3 -13  -4    1.89    0.86
  -3 -13  -4    1.90    0.71
  -3 -13  -5    3.29    0.88
  -3 -13  -5    3.55    1.13
  -3 -13  -6    1.12    0.67
  -3 -13  -7    0.86    0.68
   3  13   7    0.12    0.81
  -3 -13  -8    1.69    0.82
   3  13   8    1.65    0.94
  -3 -13  -9    0.12    0.67
  -3 -13 -10   -0.12    0.72
   4 -12  -7    3.28    0.41
   4 -12  -7    3.73    0.49
   4 -12  -6    0.31    0.18
   4 -12  -6    0.65    0.27
   4 -12  -5    1.98    0.37
  -4  12   4   20.90    3.02
   4 -12  -4   26.19    2.47
  -4  12   3    1.38    0.89
   4 -12  -3    1.92    0.36
  -4  12   2    0.85    0.82
   4 -12  -2    0.53    0.28
  -4  12   1    1.95    0.92
   4 -11  -9    0.26    0.38
   4 -11  -8    3.71    0.69
   4 -11  -8    4.41    0.55
   4 -11  -7    0.18    0.34
   4 -11  -7    0.59    0.18
   4 -11  -7    0.52    0.24
   4 -11  -6    0.39    0.18
  -4  11   6    0.40    0.76
   4 -11  -6    0.62    0.25
  -4  11   5   -0.39    0.83
   4 -11  -5    0.19    0.17
   4 -11  -5    0.13    0.23
  -4  11   4    5.10    1.16
   4 -11  -4    4.47    0.56
  -4  11   3   -0.12    0.70
   4 -11  -3    0.50    0.23
  -4  11   2    1.25    0.80
   4 -11  -2    0.77    0.26
  -4  11   1    8.21    1.42
   4 -11  -1    7.64    0.86
  -4  11   0    0.41    0.66
   4 -11   0    0.04    0.24
  -4  11  -1    1.78    0.84
   4 -10  -9    0.16    0.39
   4 -10  -8    0.05    0.37
   4 -10  -8    0.67    0.25
   4 -10  -7    0.39    0.68
   4 -10  -7    0.04    0.30
   4 -10  -7    0.13    0.14
  -4  10   7   -0.27    0.71
   4 -10  -7    0.26    0.21
   4 -10  -6    0.13    0.65
   4 -10  -6    0.20    0.29
   4 -10  -6    0.25    0.15
  -4  10   6   -0.38    0.74
   4 -10  -6    0.40    0.22
   4 -10  -5    1.54    0.84
   4 -10  -5    2.73    0.49
   4 -10  -5    2.78    0.32
  -4  10   5    1.22    0.86
   4 -10  -5    2.34    0.37
   4 -10  -4    0.56    0.29
  -4  10   4    1.40    0.78
   4 -10  -4    1.11    0.25
  -4  10   3   -0.11    0.61
   4 -10  -3    0.20    0.19
  -4  10   2    4.96    1.07
   4 -10  -2    4.86    0.58
  -4  10   1    0.71    0.68
   4 -10  -1    1.08    0.26
  -4  10   0    1.28    0.64
   4 -10   0    1.30    0.29
  -4  10  -1    1.44    0.70
   4 -10   1    0.28    0.26
  -4  10  -2    1.67    0.73
   4 -10   2    1.35    0.33
   4  -9  -9    3.48    0.68
   4  -9  -8    0.10    0.34
   4  -9  -8    0.54    0.15
   4  -9  -7    3.38    0.97
   4  -9  -7    2.80    0.61
  -4   9   7    5.26    1.14
   4  -9  -7    4.22    0.43
   4  -9  -6    2.70    0.92
   4  -9  -6    2.88    0.55
   4  -9  -6    3.47    0.44
  -4   9   6    4.43    1.03
   4  -9  -6    3.12    0.36
   4  -9  -5   40.75    4.37
   4  -9  -5   43.56    4.22
   4  -9  -5   51.03    4.29
  -4   9   5   54.38    4.96
   4  -9  -5   43.72    4.84
   4  -9  -4    5.07    1.07
   4  -9  -4    5.41    0.67
   4  -9  -4    4.50    0.50
  -4   9   4    3.80    0.95
   4  -9  -4    5.19    0.56
   4  -9  -3    0.44    0.26
   4  -9  -3   -0.12    0.59
  -4   9   3    0.10    0.53
   4  -9  -3    0.93    0.22
   4  -9  -2    4.23    1.03
  -4   9   2    3.23    0.85
   4  -9  -2    3.55    0.45
   4  -9  -1    2.82    0.87
  -4   9   1    3.44    0.88
   4  -9  -1    1.52    0.51
   4  -9  -1    3.23    0.40
   4  -9   0    3.01    0.91
  -4   9   0    4.21    0.90
   4  -9   0    1.98    0.51
   4  -9   0    3.16    0.41
   4  -9   1    0.65    0.68
  -4   9  -1   -0.28    0.60
   4  -9   1    0.08    0.19
  -4   9  -2    4.37    0.50
  -4   9  -2    4.05    0.94
   4  -9   2    4.08    0.54
  -4   9  -3    1.73    0.32
  -4   9  -3    1.76    0.72
   4  -9   3    2.10    0.38
  -4   9  -4    2.44    0.39
  -4   9  -5    0.02    0.25
  -4   9  -6    0.08    0.29
   4  -8 -10    1.40    0.52
   4  -8  -9    9.25    1.24
  -4   8   9   11.69    1.75
   4  -8  -8    0.40    0.34
   4  -8  -8    0.39    0.12
  -4   8   8    0.62    0.67
   4  -8  -7    5.52    0.74
   4  -8  -7    4.80    0.50
   4  -8  -6    1.93    0.73
   4  -8  -6    2.97    0.53
  -4   8   6    2.02    0.78
   4  -8  -6    2.53    0.29
   4  -8  -5    4.69    1.01
   4  -8  -5    3.79    0.63
   4  -8  -5    4.50    0.47
  -4   8   5    6.72    1.14
   4  -8  -5    4.88    0.54
   4  -8  -4    5.27    1.10
   4  -8  -4    6.43    0.82
   4  -8  -4    6.63    0.67
   4  -8  -4    6.84    0.72
  -4   8   4    8.89    1.27
   4  -8  -3   -0.21    0.57
  -4   8   3    0.31    0.25
   4  -8  -3    0.03    0.22
  -4   8   3    0.09    0.52
   4  -8  -3    0.11    0.15
   4  -8  -2    8.20    1.03
  -4   8   2   11.09    1.02
   4  -8  -2    7.78    1.39
  -4   8   2   10.76    1.44
   4  -8  -2    9.04    0.96
   4  -8  -1    1.75    0.68
  -4   8   1    1.71    0.20
  -4   8   1    2.70    0.71
   4  -8  -1    1.56    0.27
   4  -8  -1    0.96    0.44
  -4   8   0    5.01    0.51
  -4   8   0    5.48    0.99
   4  -8   0    5.09    0.57
   4  -8   1    0.80    0.58
  -4   8  -1    0.61    0.54
   4  -8   1    0.67    0.21
   4  -8   1    0.21    0.37
   4  -8   2   -0.10    0.59
   4  -8   2    0.36    0.19
  -4   8  -2    0.09    0.49
   4  -8   2    0.05    0.33
   4  -8   2    0.43    0.22
   4  -8   3   -0.30    0.54
  -4   8  -3   -0.08    0.52
   4  -8   3    0.02    0.18
   4  -8   3   -0.04    0.36
   4  -8   3    0.16    0.21
  -4   8  -4    1.29    0.29
  -4   8  -4    1.89    0.71
   4  -8   4    1.51    0.29
   4  -8   4    1.50    0.33
   4  -8   4    0.90    0.66
  -4   8  -5    0.95    0.28
  -4   8  -6   -0.05    0.25
  -4   8  -7    2.41    0.51
   4  -7 -10    1.42    0.50
  -4   7  10    0.89    0.84
   4  -7  -9    7.90    1.09
  -4   7   9    8.95    1.50
   4  -7  -8    0.10    0.34
   4  -7  -8   -0.05    0.09
  -4   7   8    0.46    0.69
   4  -7  -7    1.99    0.46
  -4   7   7    2.86    0.83
   4  -7  -7    2.06    0.24
   4  -7  -6    7.10    0.91
   4  -7  -6    7.00    0.69
   4  -7  -5    4.62    0.88
   4  -7  -5    3.74    0.55
  -4   7   5    3.35    0.84
   4  -7  -5    3.06    0.35
  -4   7   5    3.74    0.47
   4  -7  -4    0.92    0.57
   4  -7  -4    2.22    0.39
  -4   7   4    2.60    0.37
   4  -7  -4    1.51    0.21
  -4   7   4    1.57    0.64
   4  -7  -3   12.82    1.40
  -4   7   3   14.04    1.38
  -4   7   3   13.84    1.38
   4  -7  -3   12.23    1.30
  -4   7   3   13.87    1.73
   4  -7  -3   14.22    1.76
   4  -7  -2    5.97    0.77
  -4   7   2    7.81    0.76
   4  -7  -2    5.41    1.05
  -4   7   2    6.54    0.62
  -4   7   2    6.96    1.11
   4  -7  -2    6.36    0.70
  -4   7   1    1.17    0.26
   4  -7  -1    1.11    0.61
  -4   7   1    1.39    0.19
   4  -7  -1    1.47    0.19
  -4   7   1    1.51    0.60
   4  -7  -1    1.34    0.23
   4  -7  -1    0.56    0.37
  -4   7   0   21.43    1.92
  -4   7   0   22.06    1.91
   4  -7   0   19.11    1.86
  -4   7   0   20.40    2.30
   4  -7   0   16.71    2.28
   4  -7   0   19.92    1.90
  -4   7  -1  215.68   19.52
  -4   7  -1  235.14   19.90
  -4   7  -1  212.29   19.55
  -4   7  -1  213.45   19.92
   4  -7   1  211.75   19.49
   4  -7   1  176.18   19.89
   4  -7   1  206.68   19.51
  -4   7  -2    3.77    0.75
   4  -7   2    4.21    0.86
   4  -7   2    3.83    0.43
  -4   7  -2    3.94    0.85
   4  -7   2    2.32    0.63
   4  -7   2    3.53    0.45
   4  -7   3    0.54    0.56
  -4   7  -3    1.78    0.38
  -4   7  -3    0.71    0.55
   4  -7   3    0.74    0.21
   4  -7   3    1.03    0.24
   4  -7   3    0.36    0.39
  -4   7  -4    2.45    0.63
   4  -7   4    1.90    0.30
   4  -7   4    0.88    0.52
   4  -7   4    1.74    0.71
   4  -7   5   11.53    1.14
  -4   7  -5   13.12    1.57
   4  -7   5    8.29    1.38
   4  -7   6    3.69    0.49
  -4   7  -6    3.32    0.82
   4  -7   7    1.96    0.38
  -4   6  11   -0.13    0.73
   4  -6 -10    1.07    0.50
  -4   6  10    1.45    0.85
   4  -6  -9    0.63    0.42
  -4   6   9    0.92    0.72
   4  -6  -8    2.56    0.56
   4  -6  -8    2.87    0.31
   4  -6  -8    3.23    0.34
   4  -6  -7    2.69    0.52
  -4   6   7    2.47    0.78
   4  -6  -7    2.36    0.25
   4  -6  -7    2.21    0.27
   4  -6  -6   63.93    6.55
  -4   6   6   75.95    6.98
   4  -6  -6   70.55    6.34
   4  -6  -6   66.50    6.35
   4  -6  -5    7.73    0.97
   4  -6  -5    8.32    0.79
   4  -6  -5    7.89    0.79
  -4   6   5    9.67    0.89
   4  -6  -4    0.90    0.52
   4  -6  -4    1.03    0.31
  -4   6   4    0.93    0.24
   4  -6  -4    1.00    0.14
  -4   6   4    0.76    0.57
  -4   6   3   18.22    1.94
   4  -6  -3   20.09    1.99
  -4   6   3   21.11    1.95
  -4   6   3   16.19    2.20
   4  -6  -3   21.70    2.29
   4  -6  -2    2.77    0.67
  -4   6   2    2.38    0.38
   4  -6  -2    2.25    0.39
  -4   6   2    2.21    0.39
  -4   6   2    2.20    0.24
   4  -6  -2    2.64    0.26
   4  -6  -2    2.55    0.32
  -4   6   2    2.43    0.27
  -4   6   2    1.59    0.58
   4  -6  -1    4.00    0.62
  -4   6   1    4.97    0.59
   4  -6  -1    4.66    0.88
  -4   6   1    5.44    0.66
  -4   6   1    5.56    0.52
   4  -6  -1    5.21    0.52
  -4   6   1    4.65    0.88
  -4   6   1    5.22    0.52
   4  -6  -1    4.86    0.56
  -4   6   0    2.74    0.38
   4  -6   0    1.47    0.57
  -4   6   0    3.20    0.36
   4  -6   0    2.81    0.32
  -4   6   0    1.96    0.62
   4  -6   0    1.65    0.50
   4  -6   0    3.22    0.36
  -4   6  -1   15.27    1.35
  -4   6  -1   14.13    1.35
   4  -6   1   13.59    1.29
  -4   6  -1   15.81    1.71
   4  -6   1   12.44    1.30
   4  -6   1   11.63    1.64
  -4   6  -2    3.05    0.41
   4  -6   2    2.90    0.70
  -4   6  -2    2.82    0.63
   4  -6   2    3.09    0.36
  -4   6  -2    2.65    0.67
   4  -6   2    1.70    0.57
   4  -6   2    3.01    0.37
  -4   6  -3    2.85    0.55
  -4   6  -3    3.30    0.42
   4  -6   3    2.52    0.69
  -4   6  -3    2.77    0.49
   4  -6   3    1.85    0.43
   4  -6   3    2.41    0.33
  -4   6  -3    2.51    0.66
   4  -6   3    1.46    0.55
  -4   6  -4   22.89    1.98
  -4   6  -4   16.42    1.92
   4  -6   4   18.76    1.79
  -4   6  -4   24.18    2.25
   4  -6   4   17.76    2.16
   4  -6   4   12.20    2.02
  -4   6  -5    0.73    0.37
  -4   6  -5    1.11    0.51
   4  -6   5    0.90    0.23
   4  -6   5    0.40    0.47
   4  -6   5    0.99    0.26
  -4   6  -6    6.97    0.84
   4  -6   6    5.01    0.86
   4  -6   6    6.24    0.69
  -4   6  -6    7.69    1.11
   4  -6   6    3.93    0.97
   4  -6   7    2.81    0.65
   4  -6   7    3.45    0.47
   4  -6   7    2.11    0.75
   4  -6   8   -0.09    0.25
   4  -6   8    0.07    0.38
  -4   5  11    0.59    0.72
   4  -5 -10    7.77    1.07
  -4   5  10    7.70    1.37
   4  -5 -10    7.10    0.76
   4  -5  -9    3.26    0.68
  -4   5   9    4.18    0.96
   4  -5  -9    3.21    0.39
   4  -5  -8    1.87    0.49
  -4   5   8    0.92    0.62
   4  -5  -8    1.34    0.15
   4  -5  -8    1.31    0.22
   4  -5  -7    1.11    0.39
   4  -5  -7    0.67    0.10
  -4   5   7    1.24    0.64
   4  -5  -7    0.74    0.15
   4  -5  -6    4.34    0.62
  -4   5   6    3.87    0.86
   4  -5  -6    3.88    0.38
   4  -5  -6    3.64    0.41
   4  -5  -5    7.27    0.83
  -4   5   5    5.60    1.01
   4  -5  -5    6.44    0.61
   4  -5  -5    6.20    0.63
  -4   5   5    6.00    0.66
   4  -5  -4    0.40    0.23
   4  -5  -4    0.48    0.11
  -4   5   4    0.36    0.16
   4  -5  -4    0.45    0.09
   4  -5  -3   29.73    2.88
  -4   5   3   32.26    2.86
  -4   5   3   34.63    2.81
   4  -5  -3   23.74    2.73
  -4   5   3   30.01    2.71
   4  -5  -3   29.57    2.70
  -4   5   3   27.80    3.12
   4  -5  -3   26.43    3.07
  -4   5   2    0.98    0.24
   4  -5  -2    1.04    0.46
   4  -5  -2    0.90    0.26
   4  -5  -2    0.74    0.12
  -4   5   2    0.07    0.33
  -4   5   2    0.91    0.13
  -4   5   2    0.67    0.21
  -4   5   2    0.96    0.12
  -4   5   1    3.50    0.42
   4  -5  -1    2.66    0.42
   4  -5  -1    2.31    0.60
  -4   5   1    3.75    0.44
  -4   5   1    3.13    0.32
   4  -5  -1    2.41    0.34
  -4   5   1    3.32    0.65
  -4   5   1    2.85    0.31
  -4   5   0   10.40    1.03
  -4   5   0    9.90    1.06
  -4   5   0   11.34    0.99
   4  -5   0   10.21    0.95
  -4   5   0   11.66    1.36
  -4   5   0    9.13    0.93
   4  -5   0    9.11    0.97
   4  -5   0   10.14    1.31
   4  -5   0    7.27    1.17
  -4   5  -1    8.03    0.81
  -4   5  -1    8.69    0.81
  -4   5  -1    7.99    0.86
  -4   5  -1    9.06    1.12
  -4   5  -1    7.34    0.72
   4  -5   1    7.05    1.06
   4  -5   1    6.94    0.75
   4  -5   2    1.21    0.48
  -4   5  -2    1.31    0.27
   4  -5   2    0.86    0.25
  -4   5  -2    0.47    0.41
   4  -5   2    0.81    0.18
   4  -5   2    0.75    0.45
  -4   5  -3    8.80    0.84
   4  -5   3    5.61    1.00
   4  -5   3    7.46    0.88
   4  -5   3    6.73    0.72
  -4   5  -3    7.73    1.06
   4  -5   3    4.51    0.95
  -4   5  -4    0.18    0.30
  -4   5  -4    0.43    0.30
  -4   5  -4    0.78    0.33
  -4   5  -4    0.34    0.42
   4  -5   4    0.72    0.19
   4  -5   4    0.81    0.45
   4  -5   4    0.32    0.42
   4  -5   4    0.67    0.19
  -4   5  -5    0.53    0.35
  -4   5  -5    0.47    0.23
  -4   5  -5    0.70    0.48
   4  -5   5    0.61    0.20
   4  -5   5    0.27    0.43
  -4   5  -5    0.62    0.48
   4  -5   5    0.81    0.22
  -4   5  -6   11.45    1.24
   4  -5   6   10.32    1.25
   4  -5   6    9.88    1.04
  -4   5  -6   11.40    1.40
   4  -5   6    6.60    1.35
  -4   5  -7   44.11    4.19
   4  -5   7   37.97    4.22
   4  -5   7   46.18    4.02
  -4   5  -7   49.29    4.42
  -4   5  -8    3.53    0.65
   4  -5   8    2.24    0.60
  -4   5  -8    4.21    0.87
   4  -5   8    3.18    0.86
   4  -5   9    1.38    0.55
  -4   4  12    0.36    0.78
  -4   4  11    0.23    0.69
   4  -4 -11    0.64    0.23
  -4   4  10    2.32    0.88
   4  -4 -10    1.74    0.29
  -4   4   9    0.90    0.63
   4  -4  -9    0.27    0.16
   4  -4  -8    1.04    0.12
  -4   4   8    0.57    0.57
   4  -4  -8    1.20    0.20
   4  -4  -7    0.56    0.32
   4  -4  -7    0.81    0.10
   4  -4  -7    0.60    0.16
   4  -4  -6    0.83    0.32
   4  -4  -6    0.93    0.11
   4  -4  -6    1.07    0.17
   4  -4  -5    0.29    0.24
   4  -4  -5    0.16    0.06
  -4   4   5   -0.23    0.43
   4  -4  -5    0.21    0.10
  -4   4   5    0.14    0.10
   4  -4  -4    1.61    0.35
   4  -4  -4    1.93    0.19
  -4   4   4    1.77    0.55
  -4   4   4    2.03    0.25
   4  -4  -4    1.75    0.23
  -4   4   4    1.69    0.22
   4  -4  -3    3.74    0.51
  -4   4   3    4.00    0.50
   4  -4  -3    3.27    0.38
  -4   4   3    3.59    0.41
  -4   4   3    3.55    0.36
   4  -4  -3    3.53    0.35
  -4   4   2   16.74    1.56
   4  -4  -2   15.35    1.58
  -4   4   2   17.28    1.52
   4  -4  -2   14.30    1.48
  -4   4   2   15.13    1.44
   4  -4  -2   14.69    1.44
   4  -4  -2   16.08    1.75
  -4   4   2   16.09    1.83
  -4   4   2   15.64    1.43
   4  -4  -2   14.78    1.75
   4  -4  -1    0.06    0.31
   4  -4  -1    0.55    0.21
  -4   4   1    0.59    0.20
  -4   4   1    0.71    0.12
  -4   4   1    0.67    0.19
  -4   4   1    0.63    0.10
   4  -4  -1    0.76    0.12
  -4   4   1    0.76    0.38
  -4   4   0   23.41    2.28
  -4   4   0   23.74    2.29
  -4   4   0   26.20    2.23
   4  -4   0   23.39    2.21
   4  -4   0   23.58    2.22
  -4   4   0   24.11    2.54
  -4   4   0   22.08    2.18
   4  -4   0   24.17    2.54
  -4   4  -1    8.14    0.82
   4  -4   1    7.40    0.82
  -4   4  -1    7.78    0.79
  -4   4  -1    7.91    0.82
   4  -4   1    7.02    0.73
  -4   4  -1    7.81    1.04
  -4   4  -1    6.91    0.71
  -4   4  -1    9.36    1.07
   4  -4   1    7.13    1.03
   4  -4   1    5.52    0.95
  -4   4  -2    0.13    0.35
   4  -4   2   -0.06    0.26
  -4   4  -2   -0.10    0.20
  -4   4  -2    0.07    0.18
  -4   4  -2    0.13    0.18
   4  -4   2    0.21    0.19
  -4   4  -2    0.10    0.09
  -4   4  -2    0.06    0.33
   4  -4   2    0.27    0.13
   4  -4   2   -0.48    0.35
  -4   4  -3    1.85    0.36
   4  -4   3    1.31    0.46
   4  -4   3    1.49    0.36
  -4   4  -3    1.80    0.54
   4  -4   3    2.40    0.28
   4  -4   3    2.02    0.27
  -4   4  -4    1.58    0.41
  -4   4  -4    0.96    0.36
  -4   4  -4    1.48    0.50
   4  -4   4    1.33    0.24
   4  -4   4    1.35    0.23
   4  -4   4    1.61    0.49
   4  -4   4    0.67    0.49
  -4   4  -4    1.25    0.50
  -4   4  -4    1.51    0.21
  -4   4  -5    4.64    0.71
  -4   4  -5    3.44    0.54
  -4   4  -5    5.99    0.85
   4  -4   5    3.85    0.49
   4  -4   5    2.14    0.77
  -4   4  -5    4.13    0.83
   4  -4   5    4.91    0.50
  -4   4  -6    1.23    0.40
   4  -4   6    0.99    0.41
   4  -4   6    0.90    0.24
   4  -4   6    1.54    0.68
  -4   4  -7    5.74    0.89
   4  -4   7    7.47    0.97
   4  -4   7    6.48    0.73
   4  -4   7    5.75    1.20
   4  -4   8   -0.19    0.36
  -4   4  -8    0.43    0.40
   4  -4   8    0.12    0.55
  -4   4  -9    4.34    0.76
   4  -4   9    5.17    0.84
   4  -4   9    4.33    0.55
   4  -3 -11    0.77    0.25
  -4   3  11    0.96    0.74
  -4   3  11    1.03    0.32
   4  -3 -10    0.72    0.46
  -4   3  10    0.49    0.70
   4  -3 -10    0.58    0.22
   4  -3  -9    5.83    0.84
  -4   3   9    5.18    1.03
   4  -3  -9    4.27    0.53
   4  -3  -8    3.30    0.61
   4  -3  -8    2.40    0.24
  -4   3   8    2.78    0.74
   4  -3  -8    2.71    0.34
  -4   3   7   71.66    4.72
   4  -3  -7   56.75    4.02
   4  -3  -6   13.68    0.87
   4  -3  -6   12.24    0.93
  -4   3   5    0.07    0.35
   4  -3  -5    0.03    0.05
   4  -3  -5    0.01    0.10
   4  -3  -4    5.51    0.76
  -4   3   4    5.63    0.91
   4  -3  -4    5.98    0.64
  -4   3   4    7.18    0.64
  -4   3   3    1.77    0.32
   4  -3  -3    1.79    0.35
   4  -3  -3    1.43    0.45
  -4   3   3    1.49    0.46
  -4   3   3    1.93    0.22
   4  -3  -3    1.57    0.22
  -4   3   3    1.95    0.22
   4  -3  -2   14.34    1.48
  -4   3   2   14.22    1.45
   4  -3  -2   12.82    1.59
  -4   3   2   13.90    1.32
   4  -3  -2   13.80    1.37
  -4   3   2   15.82    1.38
  -4   3   2   14.51    1.34
   4  -3  -1    1.13    0.36
   4  -3  -1    1.33    0.28
  -4   3   1    1.25    0.25
   4  -3  -1    1.37    0.41
  -4   3   1    1.19    0.13
  -4   3   1    1.24    0.20
  -4   3   1    1.11    0.16
   4  -3  -1    0.97    0.19
   4  -3   0    0.51    0.19
  -4   3   0    0.68    0.20
   4  -3   0    0.56    0.29
  -4   3   0    0.53    0.17
   4  -3   0    0.67    0.17
  -4   3   0    0.77    0.14
  -4   3   0    0.60    0.09
  -4   3   0    1.02    0.40
   4  -3   0    0.54    0.12
  -4   3  -1    1.55    0.43
  -4   3  -1    1.98    0.31
   4  -3   1    1.65    0.42
   4  -3   1    1.62    0.29
  -4   3  -1    1.83    0.29
  -4   3  -1    2.04    0.27
   4  -3   1    1.56    0.22
  -4   3  -1    2.15    0.47
   4  -3   1    0.93    0.39
  -4   3  -2    8.09    0.83
   4  -3   2    7.52    0.84
  -4   3  -2    7.85    0.81
  -4   3  -2    8.13    0.81
   4  -3   2    6.48    0.73
  -4   3  -2    8.15    1.01
  -4   3  -2    8.63    1.02
   4  -3   2    7.56    0.97
   4  -3   2    6.86    0.72
   4  -3   2    5.08    0.97
   4  -3   3    2.88    0.57
  -4   3  -3    2.20    0.59
   4  -3   3    2.97    0.46
  -4   3  -3    2.06    0.48
  -4   3  -3    3.65    0.45
  -4   3  -3    3.60    0.63
   4  -3   3    2.93    0.35
   4  -3   3    2.13    0.63
  -4   3  -3    2.52    0.60
   4  -3   3    3.03    0.34
  -4   3  -4    0.67    0.35
   4  -3   4    1.49    0.25
  -4   3  -4    1.51    0.50
  -4   3  -4    1.82    0.22
   4  -3   4    1.03    0.54
   4  -3   4    1.39    0.43
   4  -3   4    1.92    0.24
  -4   3  -5    2.90    0.56
  -4   3  -5    2.49    0.46
   4  -3   5    2.51    0.36
  -4   3  -5    3.24    0.74
  -4   3  -5    3.42    0.33
   4  -3   5    2.59    0.34
   4  -3   5    1.34    0.61
  -4   3  -6   10.77    1.17
  -4   3  -6   12.78    1.41
   4  -3   6    9.53    1.30
   4  -3   6    9.52    1.16
   4  -3   6    7.01    1.47
   4  -3   7    2.11    0.51
  -4   3  -7    3.01    0.59
   4  -3   7    1.75    0.77
   4  -3   8    3.44    0.65
  -4   3  -8    3.17    0.66
   4  -3   8    1.75    0.82
  -4   3  -9    0.18    0.39
   4  -3   9    0.39    0.41
   4  -3   9    0.67    0.26
   4  -3   9    0.39    0.76
  -4   3 -10    4.63    0.81
   4  -3  10    4.70    0.86
   4  -3  10    4.61    0.59
   4  -3  10    4.60    1.17
  -4   3 -11    0.71    0.52
   4  -2 -11    5.74    0.78
  -4   2  11    8.44    0.82
   4  -2 -10    1.51    0.58
   4  -2 -10    1.75    0.35
  -4   2  10    2.32    0.78
  -4   2  10    2.56    0.39
   4  -2  -9    3.46    0.68
  -4   2   9    3.31    0.82
   4  -2  -9    2.88    0.41
   4  -2  -8    3.70    0.66
  -4   2   8    3.89    0.81
   4  -2  -8    2.86    0.40
   4  -2  -7    1.14    0.39
  -4   2   7    1.27    0.55
   4  -2  -7    0.93    0.10
   4  -2  -7    1.42    0.23
   4  -2  -6   12.65    1.33
   4  -2  -6   12.05    1.08
  -4   2   6   11.11    1.45
   4  -2  -6    9.70    1.12
   4  -2  -5    2.55    0.45
  -4   2   5    3.69    0.66
   4  -2  -5    2.54    0.25
   4  -2  -5    2.57    0.59
   4  -2  -5    1.97    0.29
   4  -2  -4    4.76    0.75
  -4   2   4    5.01    0.80
   4  -2  -4    4.36    0.50
  -4   2   4    5.39    0.51
  -4   2   3    0.40    0.20
   4  -2  -3    0.19    0.31
  -4   2   3    0.50    0.35
   4  -2  -3    0.11    0.09
  -4   2   3    0.38    0.10
  -4   2   2   11.17    1.16
   4  -2  -2   10.75    1.07
  -4   2   2   11.63    1.06
   4  -2  -2    9.21    1.25
  -4   2   2   10.12    1.30
   4  -2  -1   17.04    1.88
  -4   2   1   19.47    1.86
   4  -2  -1   17.30    1.79
  -4   2   1   19.54    1.77
  -4   2   1   18.91    1.74
   4  -2  -1   17.83    1.97
   4  -2  -1   20.07    1.98
   4  -2   0    1.87    0.25
  -4   2   0    1.87    0.22
  -4   2   0    1.61    0.23
   4  -2   0    1.15    0.23
   4  -2   0    1.51    0.37
   4  -2   0    1.79    0.32
  -4   2   0    1.70    0.29
  -4   2  -1    1.92    0.41
  -4   2  -1    1.75    0.30
   4  -2   1    1.05    0.34
  -4   2  -1    1.65    0.24
   4  -2   1    1.66    0.26
  -4   2  -1    1.68    0.25
  -4   2  -1    1.34    0.39
   4  -2   1    1.40    0.19
   4  -2   1    1.11    0.40
  -4   2  -2    4.83    0.54
  -4   2  -2    3.37    0.62
   4  -2   2    3.47    0.48
  -4   2  -2    5.41    0.50
   4  -2   2    3.50    0.42
  -4   2  -2    4.08    0.65
   4  -2   2    2.68    0.64
   4  -2   2    3.71    0.58
   4  -2   2    3.55    0.40
  -4   2  -2    4.79    0.65
  -4   2  -3    8.65    1.13
  -4   2  -3   11.52    1.05
   4  -2   3    9.89    1.05
   4  -2   3    8.84    0.94
  -4   2  -3   10.36    1.26
   4  -2   3    9.66    0.93
  -4   2  -3   11.78    1.22
   4  -2   3    6.19    1.17
   4  -2   3    9.16    1.12
  -4   2  -4    2.09    0.53
  -4   2  -4    1.20    0.38
   4  -2   4    2.09    0.29
  -4   2  -4    2.26    0.26
   4  -2   4    2.02    0.44
  -4   2  -4    1.50    0.53
   4  -2   4    1.88    0.60
   4  -2   4    2.16    0.25
  -4   2  -5   11.65    1.41
  -4   2  -5   16.02    1.55
   4  -2   5   11.19    1.28
  -4   2  -5   15.17    1.25
   4  -2   5    9.47    1.63
  -4   2  -5   12.51    1.26
  -4   2  -5   12.06    1.65
   4  -2   5   13.15    1.27
  -4   2  -6  127.87   14.15
  -4   2  -6  147.14   14.32
   4  -2   6  109.27   14.18
   4  -2   6  127.42   14.08
   4  -2   6   98.31   14.42
   4  -2   7    4.94    0.77
  -4   2  -7    5.95    0.82
  -4   2  -7    5.22    0.55
   4  -2   7    3.11    0.96
  -4   2  -7    5.12    0.53
  -4   2  -8    1.45    0.54
   4  -2   8    1.52    0.45
   4  -2   8    1.54    0.30
   4  -2   8    0.65    0.75
  -4   2  -8    1.75    0.23
  -4   2  -9    0.38    0.41
   4  -2   9   -0.06    0.38
   4  -2   9    0.39    0.23
   4  -2   9    0.14    0.63
  -4   2 -10    8.33    1.11
   4  -2  10    6.88    1.07
   4  -2  10    7.49    0.83
   4  -2  10    5.81    1.38
  -4   2 -11    3.26    0.70
   4  -2  11    1.77    0.68
   4  -2  11    2.48    0.41
   4  -2  11    2.02    1.05
  -4   2 -12    0.64    0.55
   4  -1 -11    1.02    0.30
   4  -1 -10    0.33    0.43
  -4   1  10   -0.12    0.67
   4  -1 -10    0.21    0.23
  -4   1  10    0.33    0.55
  -4   1  10    0.17    0.26
   4  -1  -9    2.74    0.62
   4  -1  -9    2.20    0.39
  -4   1   9    2.82    0.73
  -4   1   9    3.39    0.44
   4  -1  -8    9.17    1.13
   4  -1  -8    7.73    0.90
  -4   1   8    8.00    1.22
  -4   1   8    9.81    0.93
   4  -1  -7    1.15    0.43
  -4   1   7    1.60    0.57
   4  -1  -7    1.44    0.15
   4  -1  -7    1.71    0.27
   4  -1  -6    1.52    0.40
   4  -1  -6    0.78    0.43
  -4   1   6    1.60    0.51
   4  -1  -6    1.04    0.16
   4  -1  -6    0.73    0.18
   4  -1  -5    7.93    0.90
   4  -1  -5    7.22    0.68
   4  -1  -5    6.29    0.95
  -4   1   5    5.96    0.95
   4  -1  -5    6.52    0.72
   4  -1  -4    3.50    0.54
  -4   1   4    3.69    0.64
   4  -1  -4    3.96    0.65
   4  -1  -4    3.67    0.43
  -4   1   4    4.36    0.43
   4  -1  -3    4.57    0.55
  -4   1   3    3.65    0.50
   4  -1  -3    3.76    0.61
  -4   1   3    2.83    0.58
   4  -1  -3    3.61    0.41
  -4   1   3    3.91    0.41
   4  -1  -2   15.82    1.62
  -4   1   2   16.42    1.60
  -4   1   2   14.19    1.71
   4  -1  -2   15.96    1.70
   4  -1  -2   15.07    1.51
  -4   1   2   16.45    1.50
  -4   1   1  572.18   51.32
   4  -1  -1  541.35   51.22
   4  -1  -1  545.28   51.24
  -4   1   1  580.50   51.23
  -4   1   1  555.25   51.19
   4  -1  -1  575.95   51.44
  -4   1   1  559.23   51.47
   4  -1   0   23.22    2.29
   4  -1   0   23.24    2.30
  -4   1   0   24.88    2.28
  -4   1   0   26.93    2.38
   4  -1   0   23.93    2.41
  -4   1  -1    0.62    0.13
  -4   1  -1    0.56    0.35
   4  -1   1    0.32    0.13
   4  -1   1    0.23    0.14
  -4   1  -1    0.34    0.24
  -4   1  -1    0.48    0.20
   4  -1   1    0.19    0.21
  -4   1  -2    6.08    0.65
  -4   1  -2    5.01    0.75
  -4   1  -2    5.94    0.58
   4  -1   2    4.90    0.58
   4  -1   2    4.95    0.51
   4  -1   2    5.50    0.67
  -4   1  -2    5.43    0.70
  -4   1  -3   18.05    1.69
   4  -1   3   16.11    1.69
  -4   1  -3   12.94    1.77
  -4   1  -3   13.83    1.88
  -4   1  -3   18.73    1.82
   4  -1   3   17.47    1.59
   4  -1   3   16.77    1.76
  -4   1  -4    9.22    1.29
  -4   1  -4   13.11    1.24
   4  -1   4   11.00    1.14
  -4   1  -4   11.29    1.10
  -4   1  -4   15.60    1.41
   4  -1   4    7.85    1.41
  -4   1  -4   12.07    1.49
   4  -1   4   11.87    1.11
  -4   1  -5    3.68    0.63
  -4   1  -5    2.88    0.56
  -4   1  -5    2.86    0.52
   4  -1   5    2.80    0.37
  -4   1  -5    3.06    0.34
  -4   1  -5    2.21    0.69
  -4   1  -5    3.36    0.33
   4  -1   5    1.84    0.65
   4  -1   5    3.12    0.34
   4  -1   6   13.33    1.80
  -4   1  -6   15.12    1.83
  -4   1  -6   17.64    1.94
   4  -1   6   12.08    2.07
  -4   1  -6   14.46    1.65
  -4   1  -7    5.54    0.67
  -4   1  -7    4.96    0.78
   4  -1   7    3.39    0.64
   4  -1   7    3.88    0.52
  -4   1  -7    5.02    0.47
   4  -1   7    3.15    0.92
  -4   1  -8    2.71    0.62
   4  -1   8    2.47    0.55
   4  -1   8    2.59    0.40
   4  -1   8    1.73    0.87
  -4   1  -8    3.32    0.33
  -4   1  -9    0.65    0.44
   4  -1   9    0.28    0.33
   4  -1   9    0.38    0.22
   4  -1   9    0.29    0.63
  -4   1 -10    1.82    0.58
   4  -1  10    1.43    0.51
   4  -1  10    1.51    0.32
   4  -1  10    1.21    0.87
  -4   1 -11    5.04    0.88
   4  -1  11    2.49    0.73
   4  -1  11    3.82    0.52
   4  -1  11    3.66    1.20
  -4   1 -12    0.44    0.49
   4  -1  12    0.76    0.30
   4  -1  12    0.51    0.94
   4   0 -10    1.27    0.33
   4   0 -10    1.17    0.55
  -4   0  10    1.72    0.34
   4   0  -9    1.42    0.52
   4   0  -9    1.36    0.32
  -4   0   9    0.76    0.67
  -4   0   9    2.07    0.35
   4   0  -8   47.57    4.45
   4   0  -8   41.44    4.21
  -4   0   8   49.09    4.54
  -4   0   8   48.93    4.22
   4   0  -7    8.28    0.97
   4   0  -7    7.44    0.76
  -4   0   7    6.82    0.99
   4   0  -7    6.66    0.65
  -4   0   7    8.59    0.78
   4   0  -6    2.93    0.54
   4   0  -6    3.34    0.34
   4   0  -6    3.56    0.62
  -4   0   6    2.70    0.58
   4   0  -6    3.00    0.29
  -4   0   6    1.94    0.73
   4   0  -6    2.77    0.38
   4   0  -5   21.51    1.97
   4   0  -5   21.61    1.74
   4   0  -5   23.55    2.04
   4   0  -5   17.60    1.71
  -4   0   5   20.01    2.01
   4   0  -5   19.57    1.79
   4   0  -4    6.41    0.72
   4   0  -4    5.43    0.76
  -4   0   4    5.02    0.74
   4   0  -4    5.28    0.57
  -4   0   4    5.31    0.57
   4   0  -3    4.08    0.60
   4   0  -3    5.01    0.68
  -4   0   3    5.60    0.72
   4   0  -3    4.51    0.50
  -4   0   3    5.00    0.50
   4   0  -2    3.59    0.48
   4   0  -2    3.35    0.52
  -4   0   2    2.77    0.52
  -4   0   2    1.95    0.60
   4   0  -2    3.73    0.37
  -4   0   2    2.94    0.35
   4   0  -1    6.50    0.79
   4   0  -1    6.78    0.70
  -4   0   1    7.32    0.69
  -4   0   1    6.46    0.87
   4   0   0   17.93    1.93
  -4   0   0   20.47    1.92
  -4   0   0   14.85    2.06
   4   0   0   19.91    1.85
  -4   0   0   19.52    1.83
  -4   0   0   18.32    2.00
   4   0   0   20.35    1.92
  -4   0  -1    0.29    0.28
  -4   0  -1    0.31    0.12
   4   0   1    0.29    0.13
  -4   0  -1    0.15    0.17
   4   0   1    0.23    0.16
   4   0   1    0.18    0.32
  -4   0  -2   49.71    4.49
  -4   0  -2   54.89    4.58
  -4   0  -2   36.38    4.65
   4   0   2   44.15    4.52
  -4   0  -2   50.20    4.58
  -4   0  -3    1.14    0.39
  -4   0  -3    1.80    0.28
   4   0   3    0.78    0.36
  -4   0  -3    1.69    0.37
   4   0   3    1.58    0.31
  -4   0  -3    1.80    0.54
   4   0   3    1.69    0.19
  -4   0  -4   11.11    1.12
  -4   0  -4    8.71    1.22
   4   0   4    7.31    1.19
  -4   0  -4   10.07    1.37
  -4   0  -4   13.23    1.24
   4   0   4   10.99    1.01
   4   0   4    9.00    1.37
  -4   0  -5    5.88    0.95
   4   0   5    4.75    0.90
  -4   0  -5    7.41    0.87
  -4   0  -5    6.67    0.74
  -4   0  -5    8.32    0.97
  -4   0  -5    6.17    1.10
  -4   0  -5    8.57    0.73
   4   0   5    6.95    1.17
   4   0   5    8.19    0.75
   4   0   6    0.91    0.36
   4   0   6    1.31    0.31
  -4   0  -6    1.32    0.44
  -4   0  -6    0.68    0.37
  -4   0  -6    1.50    0.41
  -4   0  -6    1.11    0.14
   4   0   6    0.54    0.46
  -4   0  -6    0.93    0.15
  -4   0  -7    0.38    0.34
  -4   0  -7    0.36    0.36
   4   0   7    0.08    0.25
   4   0   7    0.04    0.28
   4   0   7    0.19    0.17
  -4   0  -7    0.22    0.10
   4   0   7    0.12    0.51
  -4   0  -7    0.21    0.08
  -4   0  -8    2.56    0.46
  -4   0  -8    2.19    0.53
   4   0   8    2.11    0.45
   4   0   8    1.53    0.41
   4   0   8    1.37    0.29
   4   0   8    1.88    0.79
  -4   0  -9   12.20    1.36
   4   0   9    6.57    1.07
   4   0   9   11.74    1.27
   4   0   9   11.60    1.04
   4   0   9    7.56    1.59
  -4   0 -10    2.15    0.60
   4   0  10    1.80    0.53
   4   0  10    1.82    0.34
   4   0  10    3.10    1.06
  -4   0 -11   10.99    1.41
   4   0  11    9.78    1.32
   4   0  11   10.57    1.09
   4   0  11    8.13    1.75
  -4   0 -12   46.35    4.61
   4   0  12   35.15    4.52
   4   0  12   49.36    4.29
   4   0  12   38.75    5.10
  -4  -1  10    1.55    0.36
  -4  -1   9    1.09    0.65
   4   1  -9    0.57    0.28
   4   1  -9    0.89    0.49
  -4  -1   9    0.99    0.30
   4   1  -8    3.63    0.66
  -4  -1   8    3.06    0.86
   4   1  -8    2.91    0.46
  -4  -1   8    3.54    0.70
  -4  -1   8    3.70    0.47
   4   1  -7    3.92    0.64
   4   1  -7    3.29    0.45
  -4  -1   7    3.17    0.64
  -4  -1   7    4.07    0.46
   4   1  -6    4.76    0.70
   4   1  -6    4.74    0.55
  -4  -1   6    3.04    0.83
  -4  -1   6    4.21    0.70
   4   1  -6    5.16    0.71
   4   1  -6    4.49    0.44
  -4  -1   6    5.19    0.55
   4   1  -5   16.63    1.68
  -4  -1   5   13.74    1.88
   4   1  -5   14.60    1.52
  -4  -1   5   18.56    1.73
   4   1  -5   16.23    1.48
   4   1  -5   17.88    1.70
   4   1  -5   14.63    1.45
  -4  -1   5   20.10    1.55
   4   1  -4    1.95    0.37
   4   1  -4    1.29    0.35
  -4  -1   4    1.30    0.37
  -4  -1   4    1.23    0.54
   4   1  -4    1.43    0.22
  -4  -1   3    2.15    0.35
   4   1  -3    1.82    0.35
   4   1  -3    1.77    0.39
  -4  -1   3    2.15    0.39
  -4  -1   3    1.62    0.54
   4   1  -3    1.76    0.22
   4   1  -3    1.73    0.25
  -4  -1   3    2.26    0.26
   4   1  -2    0.08    0.16
  -4  -1   2    0.07    0.17
  -4  -1   2    0.07    0.21
  -4  -1   2    0.22    0.33
   4   1  -2   -0.01    0.09
  -4  -1   2    0.01    0.09
   4   1  -2    0.13    0.07
  -4  -1   1    2.84    0.37
   4   1  -1    1.94    0.36
  -4  -1   1    2.12    0.41
  -4  -1   1    2.57    0.24
   4   1  -1    2.34    0.30
  -4  -1   1    2.50    0.29
   4   1   0    1.36    0.28
  -4  -1   0    1.59    0.21
  -4  -1   0    1.64    0.34
  -4  -1  -1    2.97    0.62
  -4  -1  -1    3.69    0.38
   4   1   1    3.34    0.40
   4   1   1    2.26    0.58
  -4  -1  -2    1.11    0.41
   4   1   2    0.81    0.39
  -4  -1  -2    1.42    0.22
  -4  -1  -2    1.55    0.25
  -4  -1  -2    1.18    0.30
   4   1   2    1.12    0.41
   4   1   2    1.48    0.22
  -4  -1  -3    0.59    0.22
  -4  -1  -3    0.40    0.32
  -4  -1  -3    1.10    0.20
   4   1   3    0.32    0.33
   4   1   3    0.66    0.20
   4   1   3    0.72    0.10
  -4  -1  -3    0.34    0.35
   4   1   3    0.59    0.35
  -4  -1  -4   32.32    2.96
  -4  -1  -4   24.35    3.10
   4   1   4   22.09    3.05
  -4  -1  -4   31.92    3.00
  -4  -1  -4   27.52    3.22
   4   1   4   32.00    2.85
  -4  -1  -5  197.66   20.08
  -4  -1  -5  216.38   19.95
  -4  -1  -5  232.41   20.17
   4   1   5  229.77   19.97
  -4  -1  -6   21.79    2.47
  -4  -1  -6   23.67    2.47
  -4  -1  -6   25.09    2.14
  -4  -1  -6   20.36    2.16
  -4  -1  -6   24.30    2.38
  -4  -1  -7    1.98    0.55
  -4  -1  -7    2.37    0.56
   4   1   7    1.27    0.48
   4   1   7    2.44    0.41
   4   1   7    2.08    0.31
   4   1   7    1.34    0.71
  -4  -1  -7    2.04    0.49
  -4  -1  -7    2.09    0.24
  -4  -1  -8    1.07    0.47
  -4  -1  -8    1.62    0.48
   4   1   8    0.50    0.39
   4   1   8    1.16    0.35
   4   1   8    1.52    0.26
  -4  -1  -8    1.21    0.17
   4   1   8    1.21    0.71
  -4  -1  -9   14.52    1.58
   4   1   9    6.67    1.30
  -4  -1  -9   18.53    1.52
   4   1   9   12.14    1.40
   4   1   9   12.77    1.23
   4   1   9   12.65    1.93
  -4  -1 -10    2.61    0.65
   4   1  10    1.71    0.48
   4   1  10    1.43    0.31
   4   1  10    1.10    0.82
  -4  -1 -11    3.89    0.78
   4   1  11    2.23    0.60
   4   1  11    2.72    0.42
   4   1  11    2.32    1.08
  -4  -1 -12    2.11    0.69
   4   1  12    1.25    0.61
   4   1  12    2.37    0.39
   4   1  12    2.29    1.19
   4   1  13    0.15    0.27
   4   2  -9    0.42    0.28
   4   2  -9    0.76    0.47
  -4  -2   9    0.59    0.29
  -4  -2   8    1.09    0.62
   4   2  -8    2.58    0.40
   4   2  -8    2.23    0.55
  -4  -2   8    2.17    0.37
   4   2  -7    3.16    0.63
  -4  -2   7    3.07    0.83
   4   2  -7    3.43    0.48
  -4  -2   7    3.53    0.60
  -4  -2   7    4.34    0.49
   4   2  -6    0.21    0.31
  -4  -2   6   -0.09    0.46
   4   2  -6    0.68    0.22
   4   2  -6    0.58    0.11
  -4  -2   6    0.93    0.34
  -4  -2   6    1.06    0.23
   4   2  -5    3.20    0.52
  -4  -2   5    2.89    0.76
   4   2  -5    2.70    0.39
   4   2  -5    3.30    0.38
  -4  -2   5    3.03    0.48
   4   2  -5    2.75    0.30
   4   2  -5    3.60    0.50
  -4  -2   5    4.09    0.42
   4   2  -4    9.51    1.08
   4   2  -4   10.66    0.95
   4   2  -4    8.62    0.94
   4   2  -4    8.95    0.88
  -4  -2   4    9.44    1.05
  -4  -2   4   11.27    0.97
   4   2  -3    4.70    0.60
  -4  -2   3    4.83    0.57
  -4  -2   3    2.94    0.75
   4   2  -3    4.50    0.48
   4   2  -3    3.95    0.48
  -4  -2   3    4.17    0.57
  -4  -2   3    4.80    0.50
   4   2  -2   21.42    2.18
  -4  -2   2   21.80    2.14
  -4  -2   2   16.17    2.34
  -4  -2   2   22.39    2.02
  -4  -2   2   19.70    2.16
  -4  -2   2   21.54    2.07
   4   2  -2   21.37    2.07
   4   2  -1    3.32    0.45
  -4  -2   1    2.59    0.39
  -4  -2   1    2.38    0.44
  -4  -2   1    2.79    0.28
  -4  -2   1    2.24    0.57
  -4  -2   1    2.95    0.33
   4   2   0    0.78    0.24
  -4  -2   0    1.01    0.23
   4   2   0    0.55    0.39
  -4  -2   0    0.93    0.15
  -4  -2   0    0.74    0.25
  -4  -2   0    1.10    0.12
   4   2   1    4.06    0.75
   4   2   1    5.61    0.53
  -4  -2  -1    4.68    0.50
  -4  -2  -1    3.33    0.71
  -4  -2  -1    4.29    0.57
   4   2   1    4.49    0.74
   4   2   2    4.32    0.48
  -4  -2  -2    4.14    0.46
  -4  -2  -2    3.61    0.69
  -4  -2  -2    4.72    0.56
   4   2   2    2.71    0.66
   4   2   3    9.46    0.98
  -4  -2  -3    8.08    1.19
   4   2   3    6.64    1.12
  -4  -2  -3   10.42    0.95
   4   2   3    8.52    1.23
   4   2   4    0.06    0.34
  -4  -2  -4   -0.07    0.34
   4   2   4    0.03    0.17
   4   2   4    0.26    0.05
  -4  -2  -4    0.30    0.17
   4   2   4    0.08    0.39
  -4  -2  -5    4.83    0.81
   4   2   5    3.64    0.86
  -4  -2  -5    5.25    0.63
   4   2   5    5.17    0.48
  -4  -2  -6    1.05    0.38
  -4  -2  -6    1.54    0.32
  -4  -2  -6    1.27    0.48
   4   2   6    1.02    0.45
  -4  -2  -6    1.30    0.15
   4   2   6    1.40    0.64
   4   2   7    1.81    0.52
  -4  -2  -7    2.13    0.65
  -4  -2  -7    3.05    0.60
  -4  -2  -7    2.37    0.25
  -4  -2  -8   21.83    2.14
  -4  -2  -8   21.96    2.11
   4   2   8   16.51    1.77
  -4  -2  -8   19.51    1.71
  -4  -2  -9    1.44    0.53
  -4  -2  -9    2.30    0.57
   4   2   9    0.55    0.44
   4   2   9    1.33    0.43
   4   2   9    1.49    0.28
   4   2   9    1.92    0.95
  -4  -2  -9    1.67    0.20
  -4  -2 -10    1.92    0.58
   4   2  10    1.14    0.49
   4   2  10    1.88    0.49
   4   2  10    2.24    0.34
   4   2  10    2.69    1.03
  -4  -2 -11    1.56    0.60
   4   2  11    1.17    0.46
   4   2  11    1.19    0.30
   4   2  11    1.00    0.91
  -4  -2 -12    0.77    0.53
   4   2  12    0.31    0.44
   4   2  12    1.34    0.31
   4   2  12    1.06    0.87
   4   2  13    2.17    0.39
   4   3  -9   15.33    1.80
   4   3  -8    5.41    0.75
   4   3  -8    6.23    0.95
  -4  -3   8    7.92    0.78
  -4  -3   7   -0.08    0.49
   4   3  -7    0.66    0.26
   4   3  -7    0.38    0.34
  -4  -3   7    0.94    0.27
   4   3  -6    1.93    0.46
  -4  -3   6    1.27    0.63
   4   3  -6    1.58    0.31
   4   3  -6    1.53    0.21
  -4  -3   6    2.78    0.34
   4   3  -5    2.47    0.46
   4   3  -5    2.21    0.32
   4   3  -5    1.80    0.22
  -4  -3   5    2.37    0.32
   4   3  -4   10.47    1.09
   4   3  -4    9.50    0.98
  -4  -3   4    8.70    0.96
   4   3  -4    9.23    0.89
  -4  -3   4   11.03    0.97
   4   3  -3    3.98    0.54
  -4  -3   3    3.70    0.50
  -4  -3   3    2.61    0.69
   4   3  -3    3.30    0.44
   4   3  -3    3.43    0.36
  -4  -3   3    3.93    0.46
  -4  -3   3    4.14    0.43
   4   3  -2    7.56    0.83
  -4  -3   2    7.66    0.79
   4   3  -2    5.99    0.71
   4   3  -2    7.20    0.73
  -4  -3   2    7.17    0.66
  -4  -3   2    6.70    0.76
  -4  -3   1    3.72    0.46
   4   3  -1    2.34    0.45
  -4  -3   1    2.15    0.61
   4   3  -1    1.97    0.60
   4   3  -1    2.97    0.39
  -4  -3   1    3.73    0.39
  -4  -3   1    3.44    0.46
  -4  -3   1    3.58    0.34
  -4  -3   1    3.79    0.39
   4   3  -1    3.51    0.45
   4   3   0    1.53    0.31
  -4  -3   0    1.91    0.31
   4   3   0    1.30    0.51
   4   3   0    1.81    0.25
  -4  -3   0    1.84    0.24
  -4  -3   0    1.78    0.20
  -4  -3   0    1.87    0.23
   4   3   0    2.06    0.26
   4   3   1   17.31    1.61
  -4  -3  -1   16.91    1.68
   4   3   1   12.15    1.83
  -4  -3  -1   17.53    1.58
   4   3   1   11.80    1.79
   4   3   2    1.17    0.45
   4   3   2    1.36    0.20
  -4  -3  -2    1.02    0.26
   4   3   2    1.20    0.42
  -4  -3  -2    1.00    0.14
   4   3   3    2.71    0.39
  -4  -3  -3    2.33    0.61
  -4  -3  -3    3.23    0.32
  -4  -3  -3    3.60    0.35
   4   3   4   17.47    2.00
  -4  -3  -4   19.70    1.97
  -4  -3  -4   16.98    2.24
   4   3   4   12.76    2.14
   4   3   4   18.42    1.88
  -4  -3  -4   17.12    2.27
   4   3   5    1.28    0.51
  -4  -3  -5    1.55    0.53
  -4  -3  -5    1.81    0.29
   4   3   5    1.24    0.55
  -4  -3  -6    0.94    0.25
  -4  -3  -6    1.30    0.57
   4   3   6    0.62    0.46
   4   3   6    0.11    0.48
  -4  -3  -7    0.41    0.49
   4   3   7    0.28    0.43
  -4  -3  -7    0.70    0.10
   4   3   7   -0.24    0.58
  -4  -3  -8   12.07    1.45
  -4  -3  -8   11.39    1.33
   4   3   8   10.04    1.66
  -4  -3  -8   10.39    0.96
  -4  -3  -9    3.94    0.79
  -4  -3  -9    3.63    0.73
   4   3   9    2.65    0.71
   4   3   9    3.80    0.47
  -4  -3  -9    3.74    0.38
  -4  -3 -10    1.80    0.62
  -4  -3 -10    1.28    0.51
   4   3  10    1.30    0.28
   4   3  11    2.23    0.54
   4   3  11    2.61    0.39
  -4  -3 -12    8.37    1.30
   4   3  12    8.06    1.22
   4   3  12   10.59    1.02
   4   3  12    7.29    1.72
   4   3  13    0.51    0.48
   4   3  14    0.14    0.25
   4   4  -8    5.34    0.86
  -4  -4   8    6.13    0.82
  -4  -4   7    0.95    0.60
   4   4  -7    2.41    0.55
  -4  -4   7    2.22    0.41
  -4  -4   6    1.39    0.61
   4   4  -6    1.39    0.44
  -4  -4   6    1.49    0.33
   4   4  -5    0.16    0.29
  -4  -4   5   -0.33    0.50
   4   4  -5    0.19    0.21
   4   4  -5    0.15    0.10
  -4  -4   5    0.15    0.20
   4   4  -4    5.17    0.66
   4   4  -4    4.48    0.57
   4   4  -4    4.23    0.53
  -4  -4   4    2.72    0.77
   4   4  -4    4.35    0.45
  -4  -4   4    4.85    0.54
   4   4  -3   17.80    1.79
  -4  -4   3   19.21    1.76
  -4  -4   3   11.26    1.93
   4   4  -3   18.18    1.74
   4   4  -3   16.68    1.69
   4   4  -3   16.52    1.63
  -4  -4   3   18.96    1.69
   4   4  -3   19.74    1.88
   4   4  -2   10.74    1.12
  -4  -4   2   11.35    1.07
  -4  -4   2    7.48    1.28
   4   4  -2    9.56    1.01
   4   4  -2   10.48    1.05
  -4  -4   2   10.77    0.95
  -4  -4   2    9.19    0.96
  -4  -4   2    9.21    0.96
   4   4  -2   11.76    1.16
   4   4  -1    0.90    0.26
  -4  -4   1    1.31    0.24
   4   4  -1    0.50    0.26
   4   4  -1    0.89    0.18
   4   4  -1    0.98    0.51
  -4  -4   1    0.95    0.45
  -4  -4   1    1.07    0.14
  -4  -4   1    0.95    0.21
  -4  -4   1    1.05    0.19
  -4  -4   0    1.71    0.29
   4   4   0    1.07    0.26
   4   4   0    1.02    0.21
   4   4   0    0.64    0.43
  -4  -4   0    1.91    0.19
  -4  -4   0    2.12    0.23
   4   4   0    0.86    0.41
  -4  -4  -1   15.09    1.47
  -4  -4  -1    9.10    1.63
   4   4   1   10.13    1.64
   4   4   1   14.59    1.40
  -4  -4  -1   14.83    1.38
  -4  -4  -1   14.40    1.35
  -4  -4  -1   15.28    1.37
   4   4   1   11.55    1.62
  -4  -4  -2    7.98    0.89
   4   4   2    5.57    1.08
   4   4   2    8.47    0.82
  -4  -4  -2    7.76    0.79
  -4  -4  -2    6.49    0.93
  -4  -4  -2    8.22    0.77
   4   4   2    7.66    1.08
  -4  -4  -3    8.59    1.30
   4   4   3    5.65    1.19
   4   4   3    8.49    0.98
  -4  -4  -3    9.82    0.96
  -4  -4  -3    9.23    1.15
  -4  -4  -3    7.93    0.94
   4   4   3    7.14    1.21
  -4  -4  -3    7.17    1.20
  -4  -4  -4  183.88   21.49
   4   4   4  209.31   21.19
  -4  -4  -4  231.05   21.15
  -4  -4  -4  217.08   21.40
  -4  -4  -4  242.33   21.09
   4   4   4  174.75   21.46
  -4  -4  -4  190.71   21.47
  -4  -4  -5    2.41    0.32
  -4  -4  -5    2.72    0.71
   4   4   5    2.11    0.38
   4   4   5    1.75    0.58
  -4  -4  -5    2.51    0.58
  -4  -4  -5    2.54    0.68
   4   4   5    1.42    0.56
   4   4   6    3.18    0.86
  -4  -4  -6    5.50    0.60
  -4  -4  -6    6.62    1.03
  -4  -4  -6    4.50    0.75
   4   4   6    4.16    0.94
  -4  -4  -7    0.24    0.34
  -4  -4  -7    0.09    0.42
   4   4   7   -0.12    0.56
  -4  -4  -8    9.52    1.25
  -4  -4  -8    7.25    0.69
   4   4   8    9.70    1.46
  -4  -4  -9    1.90    0.66
   4   4   9    1.60    0.82
  -4  -4 -10    0.86    0.53
   4   4  10    0.91    0.24
   4   4  10    0.16    0.74
  -4  -4 -11    1.40    0.59
   4   4  11    1.56    0.31
   4   4  11    0.84    0.83
  -4  -4 -12    1.23    0.58
   4   4  12    0.89    0.46
   4   4  12    2.04    0.33
   4   4  13    0.43    0.49
   4   4  13    1.90    0.34
   4   4  14    3.47    0.49
   4   5  -7    4.35    0.75
  -4  -5   7    5.35    0.75
   4   5  -6    0.53    0.26
  -4  -5   6   -0.16    0.47
   4   5  -6    1.09    0.39
  -4  -5   6    1.26    0.50
  -4  -5   5    0.16    0.44
   4   5  -5    0.61    0.24
   4   5  -5    0.36    0.32
  -4  -5   5    0.72    0.31
   4   5  -4    0.65    0.22
  -4  -5   4    0.17    0.43
   4   5  -4    0.35    0.28
  -4  -5   4    0.39    0.25
   4   5  -3  187.06   16.98
  -4  -5   3  195.10   16.94
   4   5  -3  198.90   16.95
   4   5  -3  177.44   16.88
   4   5  -3  178.36   16.81
   4   5  -3  217.52   17.13
   4   5  -2   22.55    2.33
  -4  -5   2   26.13    2.30
   4   5  -2   18.44    2.52
   4   5  -2   21.43    2.25
   4   5  -2   26.66    2.32
  -4  -5   2   24.39    2.20
   4   5  -2   26.62    2.44
   4   5  -1    0.62    0.26
   4   5  -1    0.68    0.32
  -4  -5   1    1.11    0.24
   4   5  -1    0.83    0.53
   4   5  -1    0.94    0.19
  -4  -5   1    0.34    0.47
  -4  -5   1    0.92    0.15
  -4  -5   1    1.16    0.22
  -4  -5   0    4.57    0.52
   4   5   0    2.84    0.75
   4   5   0    3.76    0.47
  -4  -5   0    3.19    0.78
  -4  -5   0    3.53    0.50
  -4  -5   0    4.44    0.43
  -4  -5   0    5.38    0.50
   4   5   0    2.23    0.63
   4   5   0    4.30    0.57
  -4  -5  -1    3.84    0.48
   4   5   1    3.22    0.77
   4   5   1    3.80    0.43
  -4  -5  -1    3.19    0.40
  -4  -5  -1    2.36    0.71
  -4  -5  -1    3.57    0.53
  -4  -5  -1    3.37    0.38
   4   5   1    2.84    0.62
   4   5   1    3.71    0.45
  -4  -5  -2    4.22    0.56
   4   5   2    2.88    0.76
   4   5   2    4.20    0.50
  -4  -5  -2    4.68    0.48
  -4  -5  -2    3.65    0.82
  -4  -5  -2    2.89    0.60
  -4  -5  -2    4.34    0.46
   4   5   2    3.57    0.72
  -4  -5  -2    5.54    0.49
   4   5   3    4.44    0.48
  -4  -5  -3    3.90    0.44
   4   5   3    2.94    0.79
  -4  -5  -3    3.65    0.65
  -4  -5  -3    4.12    0.41
  -4  -5  -3    3.28    0.46
   4   5   3    3.50    0.73
  -4  -5  -4    8.41    1.29
   4   5   4    9.17    0.91
  -4  -5  -4   10.50    0.87
  -4  -5  -4    8.05    1.09
  -4  -5  -4   10.83    0.82
  -4  -5  -4    9.63    0.94
   4   5   4    8.43    1.24
   4   5   4    7.74    0.78
  -4  -5  -4    8.75    1.23
  -4  -5  -5    4.88    0.76
   4   5   5    5.60    0.67
  -4  -5  -5    5.96    0.61
  -4  -5  -5    5.11    1.00
  -4  -5  -5    4.60    0.83
   4   5   5    5.07    0.97
  -4  -5  -6    0.40    0.18
  -4  -5  -6    0.10    0.56
  -4  -5  -6    0.21    0.29
   4   5   6    0.42    0.47
  -4  -5  -7    1.82    0.66
  -4  -5  -7    1.21    0.44
   4   5   7    1.66    0.74
  -4  -5  -8    2.97    0.61
  -4  -5  -8    3.84    0.90
   4   5   8    2.37    0.84
  -4  -5  -9   10.18    1.44
  -4  -5  -9    9.10    1.23
   4   5   9    7.08    1.50
  -4  -5 -10    9.35    1.34
  -4  -5 -10    8.36    1.13
   4   5  10    6.81    0.81
   4   5  10    9.02    1.60
  -4  -5 -11    1.10    0.72
   4   5  11    0.92    0.25
   4   5  11    0.83    0.95
   4   5  12   -0.02    0.23
   4   5  12    1.06    1.02
   4   5  13    1.00    0.53
   4   5  13    1.68    0.32
   4   6  -6    0.49    0.26
  -4  -6   6    0.41    0.31
   4   6  -5    1.44    0.33
  -4  -6   5    1.46    0.60
   4   6  -5    1.51    0.42
  -4  -6   5    2.01    0.39
   4   6  -4    4.20    0.55
  -4  -6   4    2.83    0.80
   4   6  -4    4.52    0.65
  -4  -6   4    4.94    0.58
   4   6  -3    0.82    0.25
  -4  -6   3    1.15    0.58
  -4  -6   3    1.21    0.30
   4   6  -3    0.94    0.32
   4   6  -2   13.07    1.34
  -4  -6   2   13.45    1.29
   4   6  -2   10.78    1.24
  -4  -6   2   13.16    1.20
   4   6  -2   13.18    1.47
  -4  -6   1    7.18    0.80
   4   6  -1    6.60    0.78
  -4  -6   1    7.80    0.74
  -4  -6   1    9.01    0.83
   4   6  -1    7.58    0.95
  -4  -6   0    7.36    0.71
   4   6   0    5.88    0.66
  -4  -6   0    5.36    1.02
  -4  -6   0    6.28    0.62
  -4  -6   0    5.32    0.66
  -4  -6   0    7.10    0.67
   4   6   0    4.44    0.87
   4   6   0    5.41    0.76
   4   6   1    0.39    0.23
  -4  -6  -1    0.66    0.21
   4   6   1    0.60    0.18
  -4  -6  -1    1.06    0.54
  -4  -6  -1    0.79    0.14
  -4  -6  -1    0.52    0.25
  -4  -6  -1    0.90    0.17
  -4  -6  -2    4.57    0.58
   4   6   2    4.75    0.54
  -4  -6  -2    4.89    0.52
  -4  -6  -2    3.64    0.89
  -4  -6  -2    5.10    0.50
  -4  -6  -2    3.85    0.64
   4   6   2    4.56    0.50
  -4  -6  -2    5.26    0.51
  -4  -6  -2    5.05    0.58
   4   6   2    4.36    0.81
   4   6   2    4.46    0.48
  -4  -6  -3   15.85    1.71
   4   6   3   17.54    1.65
  -4  -6  -3   16.45    1.61
  -4  -6  -3   13.57    1.77
  -4  -6  -3   17.55    1.60
   4   6   3   16.86    1.59
  -4  -6  -3   16.42    1.69
  -4  -6  -3   17.17    1.60
   4   6   3   14.46    1.93
   4   6   3   16.73    1.57
  -4  -6  -4   -0.06    0.21
   4   6   4    0.04    0.14
  -4  -6  -4    0.06    0.11
  -4  -6  -4    0.31    0.46
  -4  -6  -4    0.38    0.33
   4   6   4    0.09    0.04
  -4  -6  -4    0.08    0.41
   4   6   4    0.24    0.09
   4   6   4   -0.08    0.38
  -4  -6  -5    2.04    0.70
  -4  -6  -5    0.88    0.35
   4   6   5    1.38    0.30
  -4  -6  -5    1.85    0.24
  -4  -6  -5    1.29    0.48
  -4  -6  -5    0.96    0.51
   4   6   5    1.25    0.16
   4   6   5    0.28    0.50
  -4  -6  -6    1.82    0.28
   4   6   6    1.71    0.36
  -4  -6  -6    1.09    0.61
  -4  -6  -6    1.57    0.46
   4   6   6    1.84    0.20
   4   6   6    1.98    0.69
  -4  -6  -7   26.49    2.70
  -4  -6  -7   20.67    2.27
   4   6   7   18.42    2.53
  -4  -6  -8    0.65    0.40
  -4  -6  -8    0.32    0.52
   4   6   8    1.55    0.77
  -4  -6  -9   18.38    2.13
  -4  -6  -9   15.89    1.83
   4   6   9   12.93    2.14
  -4  -6 -10  143.09   12.13
  -4  -6 -10  113.78   11.77
   4   6  10  123.53   12.30
  -4  -6 -11    0.43    0.46
  -4  -6 -11    0.22    0.65
   4   6  11    0.34    0.23
   4   6  11   -0.16    0.93
  -4  -6 -12    2.11    0.62
   4   6  12    1.97    0.35
   4   6  12    2.96    1.09
   4   6  13    0.16    0.23
   4   7  -5    0.81    0.27
  -4  -7   5    0.27    0.27
   4   7  -4    1.95    0.35
  -4  -7   4    0.78    0.55
  -4  -7   4    1.65    0.35
   4   7  -3    0.27    0.22
  -4  -7   3   -0.18    0.49
   4   7  -3    0.13    0.25
  -4  -7   2    2.52    0.39
   4   7  -2    2.28    0.37
  -4  -7   2    2.02    0.71
  -4  -7   2    2.76    0.31
   4   7  -2    2.08    0.63
  -4  -7   1    3.66    0.48
   4   7  -1    3.72    0.66
   4   7  -1    3.98    0.48
  -4  -7   1    4.01    0.42
  -4  -7   1    4.12    0.47
   4   7  -1    2.63    0.66
   4   7   0    0.65    0.34
  -4  -7   0    0.64    0.19
   4   7   0    0.54    0.19
  -4  -7   0   -0.10    0.49
  -4  -7   0    0.44    0.15
  -4  -7   0    0.51    0.15
   4   7   0    0.42    0.39
  -4  -7   0    0.51    0.18
   4   7   1    0.51    0.29
  -4  -7  -1    0.90    0.22
   4   7   1    1.21    0.22
  -4  -7  -1    0.84    0.60
  -4  -7  -1    0.95    0.16
  -4  -7  -1    0.66    0.26
   4   7   1    0.83    0.15
  -4  -7  -1    0.92    0.19
   4   7   1    1.10    0.44
  -4  -7  -2   11.56    1.12
  -4  -7  -2    7.24    1.43
   4   7   2   10.57    1.08
  -4  -7  -2   11.03    1.04
  -4  -7  -2    8.97    1.19
  -4  -7  -2   11.30    1.05
   4   7   2   10.72    1.35
  -4  -7  -2   11.04    1.16
   4   7   2   10.08    1.01
  -4  -7  -3  134.77   11.38
  -4  -7  -3  115.21   11.83
   4   7   3  137.34   11.31
  -4  -7  -3  114.43   11.46
  -4  -7  -3  137.65   11.26
   4   7   3  121.00   11.22
  -4  -7  -3  137.16   11.42
  -4  -7  -3  145.86   11.27
   4   7   3  123.67   11.64
  -4  -7  -4   17.05    1.92
   4   7   4   21.69    1.84
  -4  -7  -4   21.72    1.78
  -4  -7  -4   17.71    2.02
  -4  -7  -4   20.62    1.78
   4   7   4   13.08    1.75
  -4  -7  -4   20.22    1.95
   4   7   4   20.78    2.21
   4   7   4   18.69    1.72
  -4  -7  -4   16.51    2.12
   4   7   5    1.39    0.30
  -4  -7  -5    2.55    0.25
  -4  -7  -5    1.77    0.41
  -4  -7  -5    1.85    0.76
  -4  -7  -5    2.08    0.42
   4   7   5    0.37    0.19
  -4  -7  -5    1.72    0.63
   4   7   5    1.99    0.64
   4   7   6    0.31    0.23
  -4  -7  -6   -0.12    0.54
  -4  -7  -6    0.45    0.32
   4   7   6    0.51    0.52
   4   7   6    0.42    0.10
  -4  -7  -7   14.04    1.97
  -4  -7  -7   11.71    1.60
   4   7   7   14.96    1.37
   4   7   7   14.06    1.98
  -4  -7  -8    0.06    0.30
  -4  -7  -8    0.12    0.56
   4   7   8   -0.13    0.71
  -4  -7  -9    0.47    0.63
  -4  -7  -9    0.62    0.38
   4   7   9    1.25    0.73
  -4  -7 -10    3.19    0.95
  -4  -7 -10    3.15    0.65
   4   7  10    1.95    0.99
  -4  -7 -11    0.28    0.41
  -4  -7 -11   -0.24    0.65
   4   7  11    0.32    0.78
  -4  -7 -12    0.66    0.50
   4   7  12    0.39    0.23
   4   7  12    0.17    0.91
   4   8  -4    1.45    0.34
  -4  -8   4    0.90    0.31
   4   8  -3    0.46    0.26
  -4  -8   3   -0.28    0.50
   4   8  -2    0.59    0.24
  -4  -8   2    0.40    0.61
  -4  -8   2    0.50    0.24
  -4  -8   1    1.23    0.27
  -4  -8   1    1.26    0.67
   4   8  -1    1.52    0.29
  -4  -8   1    1.82    0.25
  -4  -8   1    1.50    0.29
  -4  -8   0    0.83    0.21
   4   8   0    0.62    0.22
  -4  -8   0    0.99    0.20
  -4  -8   0    0.61    0.21
   4   8   0    0.28    0.35
  -4  -8  -1    4.71    0.53
  -4  -8  -1    4.61    1.01
   4   8   1    5.16    0.55
  -4  -8  -1    3.75    0.57
  -4  -8  -1    4.65    0.49
   4   8   1    3.98    0.75
  -4  -8  -1    4.46    0.53
  -4  -8  -2    3.53    0.45
  -4  -8  -2    2.78    0.84
   4   8   2    3.19    0.44
  -4  -8  -2    2.75    0.53
  -4  -8  -2    3.71    0.40
  -4  -8  -2    3.81    0.43
   4   8   2    2.39    0.63
  -4  -8  -2    4.22    0.60
   4   8   2    3.46    0.37
  -4  -8  -3    4.60    0.54
  -4  -8  -3    3.20    0.89
   4   8   3    3.76    0.48
  -4  -8  -3    3.07    0.61
  -4  -8  -3    4.28    0.44
  -4  -8  -3    4.52    0.63
   4   8   3    2.93    0.75
   4   8   3    3.67    0.40
  -4  -8  -4    0.61    0.62
  -4  -8  -4    1.52    0.34
  -4  -8  -4    1.40    0.40
  -4  -8  -4    1.40    0.37
   4   8   4    1.79    0.30
  -4  -8  -4    1.52    0.24
  -4  -8  -4    0.96    0.46
   4   8   4    1.31    0.55
  -4  -8  -4    1.05    0.51
   4   8   4    1.71    0.18
  -4  -8  -5    1.49    0.39
  -4  -8  -5    0.99    0.40
   4   8   5    1.44    0.30
  -4  -8  -5    1.70    0.24
   4   8   5    1.13    0.57
  -4  -8  -5    1.50    0.61
   4   8   5    0.59    0.18
   4   8   6   12.68    1.00
  -4  -8  -6   12.92    1.64
  -4  -8  -6   11.37    1.09
  -4  -8  -6   12.79    1.18
   4   8   6   12.34    1.46
  -4  -8  -7    0.05    0.28
  -4  -8  -7    0.62    0.60
   4   8   7    0.33    0.54
  -4  -8  -8    0.71    0.40
  -4  -8  -8    0.49    0.62
   4   8   8    2.21    0.84
  -4  -8  -9    0.37    0.65
  -4  -8  -9    0.35    0.40
   4   8   9    0.94    0.73
  -4  -8 -10    0.13    0.68
  -4  -8 -10    0.88    0.45
   4   8  10    0.14    0.80
  -4  -8 -11    0.34    0.41
  -4  -8 -11    0.26    0.70
   4   8  11    0.16    0.96
  -4  -8 -12   -0.07    0.40
   4   8  12   -0.05    0.23
   4   8  12    0.17    0.82
   4   9  -3    1.61    0.36
   4   9  -2    1.44    0.34
  -4  -9   2    1.30    0.70
  -4  -9   2    1.72    0.34
  -4  -9   1    6.01    1.28
   4   9  -1    7.94    0.91
  -4  -9   1    9.17    0.86
  -4  -9   1    8.08    0.90
  -4  -9   0   -0.11    0.67
   4   9   0   -0.02    0.19
  -4  -9   0    0.20    0.16
  -4  -9   0    0.10    0.19
  -4  -9  -1    0.82    0.64
   4   9   1    0.42    0.22
  -4  -9  -1    0.51    0.17
  -4  -9  -2   11.90    1.14
  -4  -9  -2    8.81    1.17
  -4  -9  -2    8.63    1.59
   4   9   2   11.07    1.16
  -4  -9  -2    9.89    1.25
  -4  -9  -2   13.16    1.13
   4   9   2   10.03    1.35
  -4  -9  -2   13.72    1.37
  -4  -9  -3    1.86    0.76
  -4  -9  -3    1.62    0.46
  -4  -9  -3    1.75    0.36
  -4  -9  -3    2.16    0.33
   4   9   3    1.77    0.31
  -4  -9  -3    1.24    0.45
  -4  -9  -3    2.33    0.28
   4   9   3    1.35    0.51
   4   9   3    1.67    0.23
  -4  -9  -4    0.77    0.60
  -4  -9  -4    0.16    0.22
  -4  -9  -4    0.27    0.22
  -4  -9  -4    0.21    0.33
   4   9   4    0.38    0.20
  -4  -9  -4    0.52    0.17
   4   9   4    0.15    0.09
   4   9   4    0.36    0.41
  -4  -9  -5    1.28    0.70
  -4  -9  -5    1.22    0.34
  -4  -9  -5    2.03    0.53
   4   9   5    1.34    0.31
  -4  -9  -5    1.69    0.26
   4   9   5    1.15    0.56
  -4  -9  -5    0.63    0.53
  -4  -9  -6    4.73    0.79
  -4  -9  -6    2.69    0.55
   4   9   6    4.04    0.56
  -4  -9  -6    4.45    0.48
   4   9   6    3.94    0.88
  -4  -9  -7    4.88    0.84
  -4  -9  -7    3.90    0.67
  -4  -9  -7    3.64    1.03
  -4  -9  -7    4.61    0.53
   4   9   7    4.23    0.98
  -4  -9  -8    0.31    0.33
  -4  -9  -8    1.57    0.77
   4   9   8    0.94    0.72
  -4  -9  -9    1.60    0.79
  -4  -9  -9    2.05    0.53
   4   9   9    2.70    0.93
  -4  -9 -10    4.81    1.14
  -4  -9 -10    2.70    0.61
  -4  -9 -11    0.83    0.45
  -4  -9 -11    1.42    0.87
   4   9  11    0.15    0.98
  -4  -9 -12   -0.07    0.43
   4   9  12   -0.16    0.87
  -4 -10   2    0.19    0.56
   4  10  -2    0.24    0.24
  -4 -10   1    3.08    0.90
  -4 -10   1    3.83    0.42
   4  10  -1    2.06    0.48
  -4 -10   0    1.80    0.74
  -4 -10   0    2.06    0.31
   4  10   0    1.72    0.35
  -4 -10  -1    1.07    0.66
   4  10   1    0.91    0.28
  -4 -10  -1    1.21    0.24
  -4 -10  -2   33.44    4.65
   4  10   2   42.11    4.18
  -4 -10  -2   46.94    4.15
  -4 -10  -2   44.45    4.39
  -4 -10  -3    3.06    0.46
  -4 -10  -3    3.14    0.64
  -4 -10  -3    4.47    0.44
   4  10   3    3.35    0.47
  -4 -10  -4    1.46    0.32
  -4 -10  -4    1.60    0.50
   4  10   4    1.72    0.32
  -4 -10  -4    1.79    0.27
  -4 -10  -5    1.22    0.32
  -4 -10  -5    1.46    0.75
  -4 -10  -5    1.30    0.56
   4  10   5    1.10    0.28
  -4 -10  -5    1.27    0.25
   4  10   5    0.96    0.56
  -4 -10  -6    2.33    0.48
  -4 -10  -6    2.83    0.91
  -4 -10  -6    2.46    0.70
   4  10   6    3.23    0.49
  -4 -10  -6    3.43    0.40
   4  10   6    2.06    0.78
  -4 -10  -7    0.08    0.44
  -4 -10  -7    0.29    0.33
   4  10   7    0.09    0.29
  -4 -10  -7   -0.08    0.19
   4  10   7    0.29    0.58
  -4 -10  -8    3.03    0.73
  -4 -10  -8    2.77    0.97
  -4 -10  -8    1.54    0.46
   4  10   8    2.74    0.92
  -4 -10  -9    1.67    0.63
  -4 -10  -9    1.71    0.87
  -4 -10  -9    1.74    0.52
   4  10   9    3.03    0.95
  -4 -10 -10    0.74    0.84
  -4 -10 -10    0.34    0.37
   4  10  10   -0.13    0.97
  -4 -10 -11    0.78    0.48
  -4 -10 -11    0.61    0.97
   4  10  11   -0.15    0.78
  -4 -10 -12    4.32    0.79
   4  10  12    0.16    1.55
  -4 -11   1    0.61    0.65
   4  11  -1    0.27    0.28
  -4 -11   0    0.11    0.66
  -4 -11   0    0.82    0.24
   4  11   0    0.35    0.28
   4  11   1    3.01    0.44
  -4 -11  -1    2.89    0.39
  -4 -11  -2    2.11    0.86
   4  11   2    3.79    0.51
  -4 -11  -2    4.03    0.47
  -4 -11  -2    3.66    0.73
  -4 -11  -3    3.24    1.03
  -4 -11  -3    2.91    0.72
  -4 -11  -3    4.49    0.48
   4  11   3    3.43    0.51
  -4 -11  -4    2.13    0.84
  -4 -11  -4    1.42    0.52
  -4 -11  -4    1.25    0.25
   4  11   4    0.85    0.28
  -4 -11  -5    2.46    0.92
  -4 -11  -5    1.92    0.62
  -4 -11  -5    2.63    0.37
   4  11   5    3.05    0.43
  -4 -11  -6    0.18    0.25
  -4 -11  -6    0.42    0.62
  -4 -11  -6    0.31    0.48
  -4 -11  -6    0.63    0.23
   4  11   6   -0.06    0.30
  -4 -11  -7    2.33    0.46
  -4 -11  -7    1.98    0.69
  -4 -11  -7    3.09    0.39
  -4 -11  -8    7.28    1.20
  -4 -11  -8    6.82    0.92
  -4 -11  -9    0.72    0.55
  -4 -11  -9    0.15    0.78
  -4 -11  -9    0.46    0.33
  -4 -11  -9    0.68    0.26
   4  11   9    0.11    0.71
  -4 -11 -10    0.78    0.97
  -4 -11 -10   -0.28    0.58
  -4 -11 -10    0.41    0.37
  -4 -11 -10   -0.07    0.23
   4  11  10    0.13    0.78
  -4 -11 -11    2.91    0.61
   4  11  11    0.14    1.18
  -4 -11 -12    5.28    0.89
  -4 -12   0    0.76    0.66
   4  12   0    0.35    0.32
  -4 -12  -1    2.70    0.94
   4  12   1    5.91    0.67
  -4 -12  -2    0.62    0.68
  -4 -12  -2    1.06    0.27
   4  12   2    1.02    0.32
  -4 -12  -3    0.78    0.72
  -4 -12  -3    0.28    0.23
  -4 -12  -4    1.36    0.81
  -4 -12  -4    0.35    0.49
  -4 -12  -4    0.44    0.24
  -4 -12  -5    5.06    1.35
  -4 -12  -5    6.11    1.10
  -4 -12  -5    7.71    0.78
  -4 -12  -6    0.43    0.77
  -4 -12  -6   -0.08    0.52
  -4 -12  -6    0.35    0.22
  -4 -12  -7    2.40    0.97
  -4 -12  -7    2.39    0.81
  -4 -12  -7    3.51    0.45
  -4 -12  -8   47.41    4.96
  -4 -12  -9    2.08    0.78
  -4 -12 -10    0.91    0.67
  -4 -12 -11    0.59    0.42
  -4 -13  -2    3.28    0.97
  -4 -13  -3    0.27    0.65
  -4 -13  -4    0.14    0.65
   5 -11  -6    1.05    0.30
   5 -11  -5    6.79    0.77
  -5  11   4    0.27    0.78
   5 -11  -4    0.42    0.25
  -5  11   3    1.79    0.91
   5 -11  -3    2.46    0.41
  -5  11   2    0.12    0.72
   5 -11  -2    0.44    0.25
  -5  11   1    4.15    1.11
   5 -11  -1    3.78    0.53
  -5  11   0    0.57    0.69
  -5  11  -1    0.33    0.75
   5 -10  -8    1.34    0.50
   5 -10  -8    1.81    0.35
   5 -10  -7    1.53    0.47
   5 -10  -7    1.50    0.33
   5 -10  -6   -0.27    0.67
   5 -10  -6    0.24    0.34
  -5  10   6    0.27    0.74
   5 -10  -6    0.04    0.22
   5 -10  -5    6.97    1.43
   5 -10  -5    7.97    1.04
  -5  10   5    8.04    1.50
   5 -10  -5    8.96    0.92
   5 -10  -4   -0.08    0.30
   5 -10  -4   -0.13    0.75
  -5  10   4   -0.50    0.69
   5 -10  -4    0.04    0.21
   5 -10  -3    1.32    0.82
  -5  10   3    1.20    0.74
   5 -10  -3    1.09    0.28
   5 -10  -3    0.41    0.45
   5 -10  -2    7.52    1.42
  -5  10   2    9.25    1.45
   5 -10  -2    7.51    0.84
   5 -10  -1    1.27    0.78
  -5  10   1    3.49    1.04
   5 -10  -1    2.93    0.42
   5 -10   0    0.37    0.68
  -5  10   0   -0.33    0.70
   5 -10   0   -0.04    0.22
   5 -10   1    5.63    1.20
  -5  10  -1    7.50    1.28
   5 -10   1    5.82    0.72
  -5  10  -2    2.67    0.89
   5 -10   2    1.70    0.36
   5  -9  -9    0.54    0.44
   5  -9  -8    0.39    0.42
   5  -9  -7    0.13    0.71
   5  -9  -7    0.15    0.35
   5  -9  -6    2.36    0.91
   5  -9  -6    2.75    0.57
  -5   9   6    3.09    0.98
   5  -9  -6    3.48    0.45
   5  -9  -5    1.48    0.77
   5  -9  -5    1.99    0.45
  -5   9   5    0.74    0.68
   5  -9  -5    1.42    0.30
   5  -9  -4    5.44    1.16
   5  -9  -4    5.97    0.79
  -5   9   4    6.56    1.23
   5  -9  -4    5.62    0.65
   5  -9  -3    0.34    0.29
   5  -9  -3   -0.12    0.65
  -5   9   3    0.23    0.60
   5  -9  -3    0.33    0.19
   5  -9  -2    2.52    0.91
  -5   9   2    2.73    0.88
   5  -9  -2    1.73    0.63
   5  -9  -2    3.56    0.43
   5  -9  -1    0.94    0.70
  -5   9   1    0.65    0.62
   5  -9  -1    1.35    0.26
   5  -9  -1    0.51    0.44
   5  -9   0    0.23    0.58
  -5   9   0   -0.11    0.62
   5  -9   0    0.13    0.20
   5  -9   0   -0.14    0.40
   5  -9   1    0.57    0.61
  -5   9  -1    0.94    0.64
   5  -9   1    0.89    0.26
   5  -9   2    0.11    0.66
  -5   9  -2    0.93    0.67
   5  -9   2    0.45    0.24
   5  -9   3    1.24    0.76
  -5   9  -3    0.41    0.68
   5  -9   3    0.61    0.28
  -5   9  -4    0.50    0.67
   5  -8  -9   12.69    1.55
   5  -8  -8    4.85    0.81
  -5   8   8    6.18    1.30
   5  -8  -7    0.71    0.69
   5  -8  -7    0.56    0.37
  -5   8   7   -0.13    0.70
   5  -8  -6    5.69    1.11
   5  -8  -6    5.14    0.78
   5  -8  -5    1.22    0.68
   5  -8  -5    0.70    0.34
  -5   8   5    0.69    0.63
   5  -8  -4    3.11    0.94
   5  -8  -4    5.04    0.72
  -5   8   4    4.59    1.06
   5  -8  -4    5.29    0.58
   5  -8  -3    0.78    0.32
   5  -8  -3    0.55    0.59
  -5   8   3    0.53    0.59
   5  -8  -3    0.41    0.20
   5  -8  -2    1.64    0.78
  -5   8   2    2.07    0.79
   5  -8  -2    2.41    0.34
   5  -8  -1    1.51    0.68
   5  -8  -1    2.02    0.26
  -5   8   1    1.74    0.71
   5  -8  -1    2.05    0.32
   5  -8  -1    1.85    0.62
   5  -8   0    0.85    0.61
   5  -8   0    2.05    0.28
  -5   8   0    2.21    0.74
   5  -8   0    2.17    0.32
   5  -8   0    1.34    0.55
   5  -8   1    0.21    0.50
   5  -8   1    0.11    0.16
  -5   8  -1    0.10    0.57
   5  -8   1    0.23    0.20
   5  -8   1    0.07    0.38
   5  -8   2    0.92    0.69
   5  -8   2    0.62    0.22
  -5   8  -2    1.86    0.69
   5  -8   2    0.75    0.24
   5  -8   2    0.28    0.39
   5  -8   3    0.52    0.66
  -5   8  -3    2.02    0.70
   5  -8   3    1.37    0.27
   5  -8   3    1.13    0.30
   5  -8   3    0.54    0.45
   5  -8   4    6.97    0.76
  -5   8  -4    6.09    1.18
   5  -8   4    6.72    1.21
  -5   8  -5    2.08    0.80
   5  -8   5    1.62    0.33
   5  -8   5    1.18    0.72
   5  -7  -9    1.52    0.50
  -5   7   9    0.91    0.81
   5  -7  -8    6.05    0.91
  -5   7   8    6.44    1.27
   5  -7  -7    0.57    0.36
  -5   7   7    0.95    0.71
   5  -7  -6    4.46    0.70
  -5   7   6    4.33    1.01
   5  -7  -5    0.20    0.52
   5  -7  -5    0.35    0.30
   5  -7  -4    2.95    0.80
   5  -7  -4    3.91    0.61
  -5   7   4    4.36    0.92
   5  -7  -3    2.29    0.76
   5  -7  -3    2.36    0.46
  -5   7   3    2.61    0.40
  -5   7   3    2.86    0.79
   5  -7  -3    2.02    0.33
   5  -7  -2    0.19    0.26
   5  -7  -2    0.88    0.62
   5  -7  -2    0.47    0.12
  -5   7   2    0.58    0.56
   5  -7  -2    0.34    0.18
  -5   7   1    0.84    0.25
   5  -7  -1    0.49    0.51
   5  -7  -1    0.56    0.15
  -5   7   1    0.96    0.53
   5  -7  -1    0.54    0.19
  -5   7   0    6.32    0.68
   5  -7   0    4.75    1.01
   5  -7   0    5.61    0.58
  -5   7   0    7.05    1.09
   5  -7   0    3.38    0.84
   5  -7   0    5.64    0.62
   5  -7   1    0.86    0.57
   5  -7   1    0.70    0.18
  -5   7  -1    0.92    0.56
   5  -7   1    0.73    0.21
   5  -7   1    0.46    0.43
   5  -7   2    1.69    0.67
  -5   7  -2    1.09    0.64
   5  -7   2    1.69    0.27
   5  -7   2    1.45    0.27
   5  -7   2    0.78    0.48
  -5   7  -3   13.24    1.25
   5  -7   3   10.10    1.02
  -5   7  -3   12.69    1.54
   5  -7   3   10.43    1.51
   5  -7   4   54.23    4.62
  -5   7  -4   61.82    5.19
   5  -7   4   50.05    5.10
   5  -7   5    2.81    0.39
  -5   7  -5    2.67    0.80
   5  -7   5    2.42    0.40
   5  -7   5    1.36    0.65
   5  -7   5    2.54    0.80
  -5   7  -6    0.92    0.66
   5  -7   6    0.74    0.27
  -5   6  10    4.92    1.20
   5  -6  -9    1.42    0.53
  -5   6   9    0.37    0.74
   5  -6  -8    0.56    0.40
  -5   6   8    0.93    0.68
   5  -6  -7    3.80    0.68
  -5   6   7    4.55    1.04
   5  -6  -7    3.81    0.43
   5  -6  -6    2.96    0.56
  -5   6   6    2.65    0.81
   5  -6  -6    3.01    0.34
   5  -6  -5    2.10    0.44
  -5   6   5    1.79    0.74
   5  -6  -5    1.42    0.22
  -5   6   4   10.07    0.95
   5  -6  -4    6.16    1.22
   5  -6  -4    8.05    1.04
   5  -6  -3  169.06   17.45
  -5   6   3  200.38   17.38
  -5   6   3  187.22   17.26
   5  -6  -3  187.22   17.26
  -5   6   3  192.08   17.82
   5  -6  -3  186.17   17.76
   5  -6  -2   12.62    1.41
  -5   6   2   15.08    1.36
  -5   6   2   13.16    1.22
   5  -6  -2   12.88    1.23
  -5   6   2   12.99    1.23
  -5   6   2   12.34    1.71
   5  -6  -2   11.35    1.27
   5  -6  -2   13.70    1.70
  -5   6   1    0.37    0.23
   5  -6  -1    0.17    0.46
  -5   6   1    0.41    0.12
  -5   6   1    0.29    0.24
  -5   6   1    0.56    0.12
   5  -6  -1    0.48    0.13
  -5   6   1   -0.09    0.51
   5  -6  -1    0.42    0.17
  -5   6   0   10.00    1.00
  -5   6   0   10.61    0.93
   5  -6   0    8.85    0.90
  -5   6   0    9.29    1.35
   5  -6   0    8.00    1.30
   5  -6   0    8.81    0.93
  -5   6  -1    9.43    0.90
   5  -6   1    6.17    1.15
  -5   6  -1    9.85    0.88
   5  -6   1    7.52    0.81
  -5   6  -1    6.67    1.17
   5  -6   1    4.80    1.06
   5  -6   1    7.96    0.83
  -5   6  -2   11.54    1.09
  -5   6  -2   10.06    1.07
   5  -6   2    9.20    0.99
  -5   6  -2   11.45    1.45
   5  -6   2    7.50    1.31
  -5   6  -3    2.22    0.40
   5  -6   3    1.28    0.61
   5  -6   3    1.87    0.45
   5  -6   3    2.14    0.32
  -5   6  -3    2.23    0.69
   5  -6   3    1.38    0.62
  -5   6  -4    9.86    1.11
  -5   6  -4    7.41    1.09
   5  -6   4    9.07    1.07
   5  -6   4    8.04    0.88
  -5   6  -4   10.97    1.37
   5  -6   4    5.01    1.15
   5  -6   4    7.91    1.26
   5  -6   4    9.09    0.90
  -5   6  -5    3.58    0.65
   5  -6   5    3.46    0.64
  -5   6  -5    3.82    0.86
   5  -6   5    3.22    0.45
   5  -6   5    2.69    0.79
   5  -6   5    2.75    0.78
   5  -6   5    3.77    0.47
  -5   6  -6    2.20    0.74
   5  -6   6    1.88    0.33
   5  -6   6    0.61    0.61
  -5   6  -7    2.15    0.74
   5  -6   7    2.14    0.37
   5  -6   7    0.63    0.63
  -5   5  10   17.64    2.37
   5  -5  -9    4.59    0.81
  -5   5   9    4.23    1.04
   5  -5  -8    1.70    0.50
  -5   5   8    1.95    0.83
   5  -5  -8    1.72    0.26
   5  -5  -7   19.69    2.00
  -5   5   7   22.02    2.38
   5  -5  -7   17.57    1.74
   5  -5  -6    2.45    0.52
  -5   5   6    3.05    0.78
   5  -5  -6    2.39    0.30
   5  -5  -5    4.08    0.61
  -5   5   5    3.22    0.82
   5  -5  -5    3.54    0.40
   5  -5  -4    1.83    0.41
   5  -5  -4    1.84    0.26
  -5   5   4    1.75    0.28
  -5   5   4    1.91    0.22
  -5   5   4    1.83    0.62
   5  -5  -4    1.88    0.18
   5  -5  -3    5.63    0.82
   5  -5  -3    6.21    0.71
  -5   5   3    7.69    0.74
  -5   5   3    6.97    0.66
   5  -5  -3    6.74    0.65
   5  -5  -3    6.85    1.06
   5  -5  -2   12.04    1.34
  -5   5   2   13.50    1.26
  -5   5   2   11.62    1.16
   5  -5  -2   13.27    1.17
  -5   5   2   12.39    1.59
  -5   5   2   11.65    1.15
   5  -5  -2   12.88    1.58
   5  -5  -1    0.11    0.22
  -5   5   1    0.13    0.19
   5  -5  -1   -0.23    0.40
  -5   5   1   -0.07    0.18
  -5   5   1    0.03    0.10
  -5   5   1    0.05    0.09
   5  -5  -1    0.18    0.11
  -5   5   1    0.08    0.47
   5  -5  -1    0.11    0.13
  -5   5   0   50.35    4.22
  -5   5   0   50.57    4.13
  -5   5   0   51.04    4.23
   5  -5   0   42.07    4.10
  -5   5   0   51.63    4.59
  -5   5   0   43.06    4.08
   5  -5   0   43.78    4.51
   5  -5   0   39.25    4.12
  -5   5  -1    0.30    0.22
   5  -5   1    0.76    0.44
  -5   5  -1    0.18    0.17
  -5   5  -1    0.88    0.50
   5  -5   1    0.51    0.15
   5  -5   1    0.24    0.37
  -5   5  -2   10.73    1.01
  -5   5  -2   11.04    0.99
   5  -5   2    7.61    0.99
   5  -5   2    8.39    0.89
  -5   5  -2    9.53    1.29
   5  -5   2    6.94    1.18
   5  -5   2    5.65    1.16
  -5   5  -3    5.33    0.62
   5  -5   3    3.49    0.77
   5  -5   3    5.03    0.66
   5  -5   3    4.27    0.50
  -5   5  -3    4.45    0.86
   5  -5   3    4.07    0.49
  -5   5  -4    0.20    0.28
   5  -5   4    0.23    0.32
  -5   5  -4    0.27    0.39
  -5   5  -4    0.80    0.52
   5  -5   4    0.51    0.19
   5  -5   4    0.15    0.43
   5  -5   4    0.38    0.48
  -5   5  -5    0.87    0.43
   5  -5   5    0.61    0.37
  -5   5  -5    0.88    0.37
  -5   5  -5    0.74    0.57
   5  -5   5    0.70    0.22
   5  -5   5    0.32    0.46
   5  -5   5    0.53    0.19
   5  -5   5    0.51    0.51
  -5   5  -6    3.07    0.63
  -5   5  -6    4.48    0.87
   5  -5   6    2.92    0.44
   5  -5   6    3.13    0.43
   5  -5   6    2.42    0.82
  -5   5  -7    2.44    0.61
   5  -5   7    2.72    0.43
   5  -5   7    2.45    0.94
   5  -5   8    2.53    0.66
  -5   5  -8    2.42    0.80
   5  -5   8    1.90    0.38
   5  -5   8    1.57    0.81
   5  -5   9    3.96    1.06
  -5   4  11    1.38    0.81
  -5   4  10    1.10    0.78
   5  -4 -10    0.81    0.23
  -5   4   9    1.91    0.84
   5  -4  -9    3.14    0.40
  -5   4   8    1.11    0.70
   5  -4  -8    1.46    0.25
   5  -4  -7   13.00    1.34
  -5   4   7   11.97    1.60
   5  -4  -7   10.05    1.06
   5  -4  -6    0.43    0.30
  -5   4   6    0.55    0.50
   5  -4  -6    0.60    0.16
   5  -4  -5    0.90    0.35
  -5   4   5    1.44    0.58
   5  -4  -5    1.13    0.19
   5  -4  -4    2.56    0.46
   5  -4  -4    2.27    0.23
   5  -4  -4    1.88    0.28
  -5   4   4    2.29    0.25
  -5   4   4    2.27    0.26
   5  -4  -3    5.22    0.71
   5  -4  -3    5.05    0.53
  -5   4   3    4.82    0.90
   5  -4  -3    5.20    0.58
  -5   4   3    6.62    0.59
  -5   4   3    5.60    0.55
   5  -4  -2    0.52    0.35
   5  -4  -2    0.07    0.22
  -5   4   2    0.49    0.11
  -5   4   2    0.55    0.17
   5  -4  -2    0.37    0.16
  -5   4   2    0.46    0.08
   5  -4  -2    0.40    0.11
   5  -4  -1    6.15    0.82
  -5   4   1    7.26    0.79
  -5   4   1    7.43    0.75
  -5   4   1    7.32    0.68
   5  -4  -1    5.68    0.67
  -5   4   1    6.81    1.05
  -5   4   1    6.96    0.65
   5  -4  -1    7.53    1.03
  -5   4   0    6.28    0.67
   5  -4   0    4.40    0.82
  -5   4   0    5.63    0.57
  -5   4   0    6.33    0.64
   5  -4   0    4.80    0.55
  -5   4   0    5.27    0.89
  -5   4   0    5.43    0.53
  -5   4  -1    1.51    0.32
   5  -4   1    1.13    0.45
  -5   4  -1    1.35    0.28
   5  -4   1    1.18    0.28
  -5   4  -1    1.59    0.25
  -5   4  -1    1.40    0.18
  -5   4  -1    2.12    0.57
   5  -4   1    1.28    0.21
   5  -4   1    1.33    0.49
  -5   4  -2   16.18    1.55
   5  -4   2   13.96    1.55
  -5   4  -2   15.48    1.50
  -5   4  -2   15.88    1.54
   5  -4   2   14.22    1.44
  -5   4  -2   16.27    1.82
   5  -4   2   14.42    1.73
   5  -4   2   15.08    1.44
   5  -4   2   10.36    1.71
  -5   4  -3  141.65   12.04
  -5   4  -3  102.45   12.14
   5  -4   3  123.95   12.05
  -5   4  -3  134.65   12.00
   5  -4   3  137.18   11.92
  -5   4  -3  131.65   12.29
   5  -4   3  117.23   12.21
   5  -4   3   85.25   12.19
   5  -4   3  133.36   11.91
  -5   4  -4   15.76    1.32
  -5   4  -4    9.02    1.31
   5  -4   4    9.60    1.28
   5  -4   4   11.33    1.15
  -5   4  -4   13.63    1.55
   5  -4   4   11.11    1.44
   5  -4   4    8.11    1.49
   5  -4   4   12.02    1.15
  -5   4  -5    0.22    0.39
  -5   4  -5    0.54    0.35
   5  -4   5    0.73    0.32
  -5   4  -5    0.47    0.45
   5  -4   5    0.59    0.23
   5  -4   5    0.53    0.57
   5  -4   5    0.56    0.19
   5  -4   5    0.86    0.46
  -5   4  -6    1.02    0.47
  -5   4  -6    1.07    0.55
   5  -4   6    1.31    0.29
   5  -4   6    1.56    0.29
   5  -4   6    1.38    0.69
  -5   4  -7   10.31    1.26
   5  -4   7    8.89    1.00
  -5   4  -7   11.74    1.47
   5  -4   7    9.18    1.62
  -5   4  -8    2.89    0.66
   5  -4   8    2.10    0.60
   5  -4   8    2.80    0.42
   5  -4   8    2.23    0.89
   5  -4   9    1.90    0.61
  -5   4  -9    2.88    0.67
   5  -4   9    1.23    0.81
   5  -4  10    1.95    0.94
  -5   3  10    2.75    0.91
   5  -3 -10    1.56    0.31
   5  -3  -9    0.88    0.47
  -5   3   9    1.27    0.76
   5  -3  -9    1.38    0.28
   5  -3  -8   -0.17    0.38
  -5   3   8    0.09    0.54
   5  -3  -8    0.03    0.16
  -5   3   7    1.85    0.64
   5  -3  -7    1.36    0.24
  -5   3   6   11.90    1.56
   5  -3  -6   11.19    1.12
  -5   3   5    1.71    0.58
   5  -3  -5    2.15    0.23
   5  -3  -5    2.23    0.29
  -5   3   5    2.29    0.29
   5  -3  -4    9.61    1.06
  -5   3   4    8.70    1.23
   5  -3  -4    7.97    0.86
  -5   3   4    8.92    0.85
   5  -3  -3    1.19    0.33
  -5   3   3    0.65    0.39
   5  -3  -3    1.01    0.18
  -5   3   3    0.74    0.15
   5  -3  -2    0.62    0.37
   5  -3  -2    0.57    0.23
   5  -3  -2    0.36    0.14
  -5   3   2    0.31    0.10
  -5   3   2    0.30    0.06
  -5   3   2    0.21    0.37
   5  -3  -1    8.52    0.94
  -5   3   1    8.23    0.89
   5  -3  -1    7.85    0.83
  -5   3   1    7.88    0.77
  -5   3   1    8.35    0.81
  -5   3   1    7.58    0.74
   5  -3  -1    7.52    1.03
   5  -3   0    1.43    0.34
  -5   3   0    1.75    0.34
   5  -3   0    1.98    0.46
  -5   3   0    2.07    0.26
   5  -3   0    1.77    0.29
  -5   3   0    2.19    0.30
   5  -3   0    1.63    0.30
  -5   3   0    1.97    0.54
  -5   3   0    1.96    0.21
  -5   3  -1    8.93    0.85
  -5   3  -1    8.26    0.76
  -5   3  -1    7.86    0.79
   5  -3   1    7.41    0.80
   5  -3   1    6.13    0.72
   5  -3   1    6.64    0.72
  -5   3  -1    6.59    1.00
   5  -3   1    4.20    0.92
  -5   3  -1    8.18    1.00
   5  -3   1    6.78    0.96
  -5   3  -2    0.57    0.37
  -5   3  -2    0.75    0.26
   5  -3   2    0.62    0.38
  -5   3  -2    0.37    0.19
   5  -3   2    0.29    0.21
  -5   3  -2    0.13    0.36
   5  -3   2    0.20    0.13
   5  -3   2    0.70    0.13
   5  -3   2    0.08    0.36
  -5   3  -3   10.81    1.07
  -5   3  -3    6.39    1.11
  -5   3  -3   10.24    1.01
   5  -3   3    8.58    1.03
   5  -3   3    8.44    0.92
  -5   3  -3    9.85    1.25
   5  -3   3    8.82    1.17
   5  -3   3    9.54    0.91
  -5   3  -3    8.83    1.21
  -5   3  -4    1.04    0.41
   5  -3   4    0.66    0.28
  -5   3  -4    0.87    0.46
   5  -3   4    0.54    0.19
   5  -3   4    0.83    0.16
   5  -3   4    0.41    0.39
  -5   3  -4    0.54    0.42
  -5   3  -5    5.46    0.94
   5  -3   5    7.11    0.96
   5  -3   5    7.25    0.80
  -5   3  -5    8.44    0.76
   5  -3   5    5.18    1.17
   5  -3   5    7.90    0.79
  -5   3  -6   11.52    1.59
  -5   3  -6   16.57    1.79
   5  -3   6   14.11    1.51
  -5   3  -6   17.74    1.46
   5  -3   6    9.19    1.86
   5  -3   6   14.93    1.49
  -5   3  -7    0.45    0.39
   5  -3   7    0.25    0.22
   5  -3   7   -0.13    0.57
   5  -3   8    3.09    0.65
  -5   3  -8    3.10    0.66
   5  -3   8    1.38    0.84
   5  -3   9    4.57    0.82
  -5   3  -9    5.27    0.89
   5  -3   9    3.93    1.19
  -5   3 -10    0.14    0.48
   5  -3  10    0.43    0.50
   5  -3  10    0.19    0.26
   5  -3  10   -0.15    0.78
  -5   3 -11    3.39    0.76
   5  -3  11    4.19    1.25
   5  -2 -10    3.74    0.57
  -5   2  10    6.20    1.12
  -5   2  10    6.12    0.65
   5  -2  -9    0.25    0.41
  -5   2   9    1.16    0.61
   5  -2  -9    0.72    0.24
   5  -2  -8    4.51    0.80
  -5   2   8    5.18    0.96
   5  -2  -8    4.89    0.57
   5  -2  -7    3.88    0.68
  -5   2   7    3.86    0.83
   5  -2  -7    3.70    0.45
   5  -2  -6    7.86    0.97
  -5   2   6    9.14    1.18
   5  -2  -6    6.76    0.75
   5  -2  -5    1.08    0.36
  -5   2   5    1.13    0.51
   5  -2  -5    1.49    0.23
  -5   2   4    0.74    0.46
   5  -2  -4    0.43    0.14
  -5   2   4    0.60    0.14
  -5   2   3    0.85    0.46
   5  -2  -3    1.26    0.23
   5  -2  -2    0.68    0.34
  -5   2   2    0.26    0.33
  -5   2   2    0.52    0.13
   5  -2  -2    0.82    0.16
   5  -2  -1    2.57    0.48
  -5   2   1    2.68    0.39
   5  -2  -1    2.12    0.41
  -5   2   1    2.19    0.55
  -5   2   1    2.22    0.22
   5  -2  -1    2.42    0.31
  -5   2   1    2.03    0.27
   5  -2  -1    2.23    0.27
   5  -2   0    0.23    0.13
  -5   2   0    0.22    0.11
   5  -2   0    0.30    0.16
   5  -2   0    0.14    0.25
   5  -2   0    0.41    0.22
  -5   2   0    0.54    0.22
  -5   2  -1    4.29    0.53
   5  -2   1    3.33    0.59
   5  -2   1    3.52    0.45
  -5   2  -1    4.98    0.44
   5  -2   1    2.39    0.44
  -5   2  -1    4.23    0.70
   5  -2   1    1.93    0.60
  -5   2  -2   23.99    1.95
  -5   2  -2   12.01    1.99
   5  -2   2   19.22    1.88
  -5   2  -2   22.46    1.85
  -5   2  -2   20.33    2.12
   5  -2   2   19.20    2.01
  -5   2  -2   18.62    2.01
   5  -2   2   17.79    1.78
   5  -2   2   11.98    2.03
  -5   2  -3    1.57    0.36
   5  -2   3    1.94    0.46
  -5   2  -3    1.20    0.44
  -5   2  -3    1.66    0.32
   5  -2   3    1.93    0.36
  -5   2  -3    0.80    0.41
  -5   2  -3    2.49    0.57
   5  -2   3    2.33    0.29
   5  -2   3    2.10    0.24
   5  -2   3    0.89    0.51
  -5   2  -4    0.78    0.43
  -5   2  -4    0.85    0.38
   5  -2   4    0.89    0.28
   5  -2   4    0.66    0.19
   5  -2   4    1.23    0.18
  -5   2  -4    1.04    0.52
   5  -2   4    0.74    0.33
   5  -2   4    1.37    0.56
  -5   2  -5   -0.58    0.36
   5  -2   5    0.04    0.23
   5  -2   5    0.26    0.17
   5  -2   5    0.14    0.12
   5  -2   5   -0.22    0.45
  -5   2  -6    4.87    0.82
  -5   2  -6    3.95    0.70
   5  -2   6    4.00    0.56
  -5   2  -6    5.80    0.52
   5  -2   6    3.21    0.94
   5  -2   6    4.93    0.54
  -5   2  -7    1.33    0.54
  -5   2  -7    1.80    0.47
   5  -2   7    2.06    0.34
  -5   2  -7    2.37    0.29
   5  -2   8    0.80    0.41
  -5   2  -8    0.27    0.44
   5  -2   8    0.28    0.69
  -5   2  -8    0.49    0.14
  -5   2  -9    2.51    0.67
   5  -2   9    1.87    0.58
   5  -2   9    2.79    0.42
   5  -2   9    1.51    0.91
  -5   2 -10    9.34    1.20
   5  -2  10    7.34    1.08
   5  -2  10    7.33    0.83
  -5   2 -11    0.88    0.58
   5  -2  11   -0.16    0.82
  -5   1  10    3.02    1.05
   5  -1 -10    3.69    0.51
   5  -1  -9    1.60    0.53
   5  -1  -9    1.02    0.28
  -5   1   9    0.81    0.73
  -5   1   9    0.56    0.54
  -5   1   9    1.05    0.32
   5  -1  -8    0.17    0.35
  -5   1   8   -0.08    0.50
  -5   1   8    0.39    0.71
   5  -1  -8   -0.02    0.19
   5  -1  -7    0.05    0.39
  -5   1   7    0.07    0.46
   5  -1  -7    0.14    0.17
   5  -1  -6    5.99    0.79
  -5   1   6    6.70    0.96
   5  -1  -6    4.90    0.59
   5  -1  -5   10.28    1.15
  -5   1   5   10.74    1.28
   5  -1  -5    8.87    0.95
   5  -1  -4    4.28    0.63
  -5   1   4    4.22    0.73
   5  -1  -4    3.70    0.69
   5  -1  -4    4.34    0.48
   5  -1  -3    0.15    0.22
   5  -1  -3    0.54    0.37
  -5   1   3    0.65    0.39
   5  -1  -3    0.43    0.14
  -5   1   3    0.52    0.14
   5  -1  -2    2.17    0.42
   5  -1  -2    2.43    0.52
  -5   1   2    1.89    0.52
   5  -1  -2    2.60    0.32
  -5   1   2    2.78    0.31
  -5   1   1    3.96    0.49
   5  -1  -1    2.48    0.33
   5  -1  -1    2.63    0.37
  -5   1   1    3.20    0.36
  -5   1   1    3.36    0.30
  -5   1   1    3.19    0.61
  -5   1   0   12.49    1.27
  -5   1   0    8.32    1.44
   5  -1   0   11.14    1.18
   5  -1   0   12.62    1.20
  -5   1   0   12.66    1.17
  -5   1   0   10.99    1.39
   5  -1   0   12.42    1.34
   5  -1   1   12.39    1.40
   5  -1   1   13.10    1.39
  -5   1  -1   15.83    1.37
  -5   1  -1   16.49    1.49
  -5   1  -1   10.35    1.60
   5  -1   1   13.59    1.50
  -5   1  -2  258.38   20.12
  -5   1  -2  186.13   20.25
   5  -1   2  190.10   20.03
  -5   1  -2  252.26   20.01
   5  -1   2  205.91   20.03
   5  -1   2  217.16   19.95
   5  -1   2  203.51   20.12
  -5   1  -2  261.29   20.20
   5  -1   2  137.00   20.21
  -5   1  -3    1.72    0.51
  -5   1  -3    2.66    0.36
   5  -1   3    2.63    0.38
   5  -1   3    3.02    0.47
  -5   1  -3    1.89    0.48
   5  -1   3    2.24    0.27
  -5   1  -4    2.11    0.56
  -5   1  -4    3.43    0.46
   5  -1   4    3.31    0.46
  -5   1  -4    3.95    0.63
   5  -1   4    2.92    0.51
  -5   1  -4    2.47    0.68
   5  -1   4    1.26    0.61
   5  -1   4    3.06    0.33
  -5   1  -5    1.40    0.48
   5  -1   5    0.84    0.29
  -5   1  -5    0.75    0.40
   5  -1   5    1.13    0.24
   5  -1   5    0.43    0.53
   5  -1   5    1.17    0.17
  -5   1  -6    8.22    1.19
  -5   1  -6   10.43    1.30
   5  -1   6    8.98    1.02
  -5   1  -6    8.81    0.97
  -5   1  -6   11.08    0.96
   5  -1   6    8.24    1.49
   5  -1   6   10.78    0.99
  -5   1  -7    6.77    1.09
  -5   1  -7    8.28    1.19
  -5   1  -7    9.92    0.87
  -5   1  -8    0.67    0.40
  -5   1  -8    0.98    0.46
   5  -1   8    0.16    0.32
   5  -1   8    0.69    0.23
   5  -1   8    0.14    0.65
  -5   1  -8    0.54    0.12
  -5   1  -9    5.61    0.91
   5  -1   9    4.02    0.74
   5  -1   9    4.35    0.57
   5  -1   9    3.40    1.10
  -5   1 -10    3.12    0.73
   5  -1  10    2.15    0.63
   5  -1  10    2.87    0.43
   5  -1  10    3.11    1.18
  -5   1 -11    2.06    0.68
   5  -1  11    2.74    0.68
   5  -1  11    2.71    0.43
   5  -1  11    2.38    1.16
   5  -1  12    0.88    1.01
  -5   0   9    2.15    0.92
   5   0  -9    2.19    0.40
   5   0  -9    2.58    0.63
  -5   0   9    2.14    0.41
   5   0  -8    0.23    0.39
  -5   0   8   -0.12    0.62
   5   0  -8    0.38    0.21
  -5   0   8    0.40    0.46
  -5   0   8    0.83    0.28
   5   0  -7    1.60    0.47
  -5   0   7    0.12    0.69
   5   0  -7    0.80    0.24
  -5   0   7    0.32    0.41
  -5   0   7    1.24    0.28
   5   0  -6    0.68    0.36
  -5   0   6    0.78    0.45
  -5   0   6    0.92    0.63
   5   0  -6    0.91    0.22
   5   0  -5  181.46   15.55
  -5   0   5  153.12   15.88
   5   0  -5  192.60   15.61
  -5   0   5  179.92   15.64
   5   0  -5  152.84   15.34
   5   0  -4   23.36    2.23
  -5   0   4   18.37    2.48
   5   0  -4   25.07    2.29
  -5   0   4   20.91    2.27
   5   0  -4   20.24    2.04
   5   0  -3    1.28    0.32
   5   0  -3    1.33    0.38
  -5   0   3    0.68    0.34
  -5   0   3    0.48    0.44
   5   0  -3    0.71    0.17
  -5   0   3    0.94    0.18
   5   0  -2   10.52    1.28
  -5   0   2    9.21    1.50
  -5   0   2   12.08    1.39
   5   0  -2   11.47    1.17
  -5   0   2   12.98    1.16
   5   0  -1    0.34    0.22
   5   0  -1    0.17    0.11
  -5   0   1    0.05    0.10
   5   0  -1    0.10    0.07
  -5   0   1   -0.05    0.26
   5   0   0   16.40    1.83
  -5   0   0   20.22    1.83
  -5   0   0   14.72    2.03
   5   0   0   17.30    1.73
  -5   0   0   19.39    1.71
   5   0   0   16.83    1.71
  -5   0   0   19.15    1.96
   5   0   0   17.60    1.81
  -5   0  -1    2.68    0.42
   5   0   1    2.27    0.39
   5   0   1    2.70    0.35
  -5   0  -1    2.31    0.31
   5   0   1    2.94    0.34
  -5   0  -1    1.11    0.50
  -5   0  -1    2.45    0.53
   5   0   2    7.85    0.95
  -5   0  -2    9.92    0.93
   5   0   2    8.67    0.94
  -5   0  -2   10.75    1.05
  -5   0  -2    7.28    1.17
   5   0   2    7.90    0.98
  -5   0  -2   10.64    1.04
  -5   0  -3    7.92    1.20
   5   0   3    8.50    1.03
  -5   0  -3   10.34    1.00
   5   0   3    9.65    1.01
   5   0   3    9.37    0.92
  -5   0  -3   10.51    1.11
   5   0   3   10.34    1.05
  -5   0  -3    7.70    1.24
  -5   0  -4    1.37    0.47
  -5   0  -4    2.05    0.33
   5   0   4    2.09    0.35
  -5   0  -4    1.73    0.44
  -5   0  -4    0.92    0.51
   5   0   4    1.64    0.61
   5   0   4    2.00    0.23
   5   0   5    2.33    0.40
   5   0   5    1.49    0.51
  -5   0  -5    2.24    0.58
  -5   0  -5    3.51    0.56
   5   0   5    1.93    0.67
   5   0   5    2.43    0.27
   5   0   6    2.47    0.61
  -5   0  -6    2.46    0.64
  -5   0  -6    3.47    0.64
  -5   0  -6    2.80    0.61
  -5   0  -6    3.51    0.34
   5   0   6    2.14    0.73
   5   0   6    3.29    0.37
  -5   0  -7    7.96    1.12
  -5   0  -7    9.63    1.18
   5   0   7    5.23    0.99
  -5   0  -7    7.40    0.79
  -5   0  -7    8.87    0.77
   5   0   7    5.12    1.24
  -5   0  -8    6.55    0.89
  -5   0  -8    4.13    0.85
   5   0   8    3.87    0.73
   5   0   8    4.77    0.60
  -5   0  -8    5.35    0.51
   5   0   8    4.75    1.21
  -5   0  -9    0.87    0.47
   5   0   9    0.71    0.38
   5   0   9    0.78    0.25
   5   0   9    0.63    0.71
  -5   0 -10    0.69    0.48
   5   0  10    0.61    0.39
   5   0  10    0.50    0.25
   5   0  10   -0.17    0.89
  -5   0 -11    0.94    0.55
   5   0  11    0.53    0.45
   5   0  11    0.81    0.29
   5   0  11    1.05    0.97
  -5   0 -12    7.20    1.17
   5   0  12    7.03    0.81
   5   0  12    5.43    1.61
   5   1  -9    9.11    1.09
   5   1  -9   12.04    1.40
  -5  -1   9   10.90    1.11
  -5  -1   8    1.87    0.78
   5   1  -8    1.76    0.35
   5   1  -8    1.24    0.55
  -5  -1   8    2.46    0.38
   5   1  -7    1.45    0.47
  -5  -1   7    0.92    0.69
   5   1  -7    1.44    0.31
  -5  -1   7    1.59    0.53
  -5  -1   7    2.10    0.35
   5   1  -6    2.83    0.58
  -5  -1   6    1.77    0.82
   5   1  -6    3.64    0.45
  -5  -1   6    3.65    0.64
  -5  -1   6    3.64    0.47
   5   1  -5    1.52    0.44
  -5  -1   5    0.53    0.55
   5   1  -5    1.04    0.24
   5   1  -5    1.31    0.42
  -5  -1   5    1.69    0.45
  -5  -1   5    1.76    0.28
   5   1  -4   20.55    1.91
   5   1  -4   20.40    1.92
  -5  -1   4   18.85    1.92
   5   1  -4   16.98    1.73
   5   1  -3    5.19    0.67
  -5  -1   3    5.52    0.72
  -5  -1   3    3.51    0.86
   5   1  -3    4.42    0.52
   5   1  -2   26.99    2.71
  -5  -1   2   20.95    2.91
  -5  -1   2   27.75    2.77
   5   1  -2   26.80    2.53
   5   1  -2   25.10    2.57
  -5  -1   2   30.67    2.57
   5   1  -1   -0.14    0.22
  -5  -1   1    0.32    0.21
   5   1  -1   -0.01    0.11
  -5  -1   1    0.23    0.12
  -5  -1   1    0.19    0.04
  -5  -1   1   -0.04    0.28
   5   1   0    9.30    1.10
   5   1   0    9.60    0.99
  -5  -1   0   10.07    0.97
  -5  -1   0    9.49    1.16
   5   1   0   10.16    1.04
  -5  -1  -1   10.94    1.03
  -5  -1  -1    8.74    1.33
   5   1   1    8.29    1.31
   5   1   1   10.43    1.07
   5   1   2    0.67    0.43
  -5  -1  -2    0.39    0.15
  -5  -1  -2    0.37    0.35
  -5  -1  -2    0.58    0.24
   5   1   2    0.46    0.16
   5   1   2    0.40    0.38
  -5  -1  -3    2.88    0.66
   5   1   3    2.42    0.65
  -5  -1  -3    4.05    0.43
   5   1   3    2.70    0.69
  -5  -1  -3    2.42    0.66
  -5  -1  -3    3.62    0.49
  -5  -1  -4    3.53    0.44
   5   1   4    2.68    0.62
  -5  -1  -4    2.84    0.65
  -5  -1  -4    3.46    0.50
  -5  -1  -4    2.30    0.68
   5   1   4    3.26    0.34
  -5  -1  -5   16.63    1.98
  -5  -1  -5   19.59    1.85
   5   1   5   18.09    1.62
   5   1   6    0.25    0.38
  -5  -1  -6   -0.07    0.43
  -5  -1  -6    0.62    0.34
   5   1   6    0.72    0.12
  -5  -1  -6    0.68    0.09
  -5  -1  -7   28.60    2.99
  -5  -1  -7   26.83    2.94
   5   1   7   14.56    2.76
   5   1   7   23.93    2.65
  -5  -1  -7   23.95    2.59
  -5  -1  -7   30.55    2.56
   5   1   7   19.40    3.08
  -5  -1  -7   27.35    2.86
  -5  -1  -8  190.46   15.46
  -5  -1  -8  183.33   15.46
   5   1   8  113.57   15.21
   5   1   8  152.22   15.22
   5   1   8  177.14   15.09
   5   1   8  144.65   15.74
  -5  -1  -8  165.03   15.01
  -5  -1  -9    0.29    0.48
  -5  -1  -9    0.06    0.45
   5   1   9    0.11    0.38
   5   1   9    0.05    0.30
   5   1   9   -0.10    0.20
   5   1   9    0.16    0.65
  -5  -1 -10    4.42    0.83
   5   1  10    3.53    0.66
   5   1  10    3.10    0.46
   5   1  10    2.87    1.09
  -5  -1 -11    0.40    0.53
   5   1  11    0.69    0.40
   5   1  11    0.91    0.31
   5   1  11    0.89    1.08
  -5  -1 -12   10.27    1.42
   5   1  12    7.40    1.30
   5   1  12   10.24    1.04
   5   1  12    7.77    1.80
  -5  -2   8    0.44    0.63
   5   2  -8    0.27    0.23
   5   2  -8    0.12    0.42
  -5  -2   8    0.59    0.29
  -5  -2   7    1.09    0.66
   5   2  -7    0.74    0.26
   5   2  -7    0.92    0.44
  -5  -2   7    1.04    0.29
   5   2  -6    0.84    0.41
  -5  -2   6    0.75    0.67
   5   2  -6    1.25    0.27
  -5  -2   6    1.37    0.40
  -5  -2   6    1.59    0.31
   5   2  -5    0.72    0.33
  -5  -2   5    0.52    0.59
   5   2  -5    0.84    0.23
  -5  -2   5    1.15    0.36
  -5  -2   5    1.70    0.28
   5   2  -4    3.99    0.59
   5   2  -4    3.30    0.37
   5   2  -4    2.63    0.40
  -5  -2   4    3.21    0.53
  -5  -2   4    3.77    0.43
   5   2  -3    3.13    0.51
  -5  -2   3    2.89    0.49
   5   2  -3    3.33    0.36
   5   2  -3    3.04    0.38
   5   2  -2    1.52    0.36
  -5  -2   2    1.90    0.18
  -5  -2   2    1.71    0.38
  -5  -2   2    1.09    0.51
   5   2  -2    1.58    0.26
   5   2  -2    1.37    0.23
   5   2  -1    2.25    0.43
  -5  -2   1    2.09    0.39
  -5  -2   1    2.31    0.46
  -5  -2   1    2.74    0.26
  -5  -2   1    1.13    0.56
   5   2   0   17.36    1.82
  -5  -2   0   16.69    1.77
  -5  -2   0   18.11    1.69
  -5  -2   0   17.29    1.86
  -5  -2  -1  231.26   19.64
  -5  -2  -1  246.34   19.77
  -5  -2  -1  176.07   19.98
   5   2   1  218.44   20.03
   5   2   1  206.84   19.60
   5   2   1  148.37   19.89
   5   2   2   33.39    3.17
  -5  -2  -2   35.16    3.14
  -5  -2  -2   36.72    3.27
  -5  -2  -2   26.11    3.42
   5   2   2   24.72    3.41
   5   2   3    0.05    0.16
   5   2   3    0.14    0.34
  -5  -2  -3    0.17    0.14
  -5  -2  -3   -0.16    0.37
  -5  -2  -3    0.34    0.16
   5   2   3    0.09    0.35
   5   2   4    2.36    0.68
   5   2   4    3.54    0.50
  -5  -2  -4    3.63    0.45
  -5  -2  -4    2.50    0.69
  -5  -2  -4    4.07    0.50
   5   2   4    3.73    0.37
   5   2   4    3.46    0.78
  -5  -2  -5   14.63    2.08
   5   2   5   10.41    1.95
  -5  -2  -5   20.57    1.91
   5   2   5   19.48    1.73
   5   2   5   16.09    2.23
   5   2   6    2.27    0.63
  -5  -2  -6    2.42    0.68
   5   2   6    1.65    0.76
  -5  -2  -6    4.40    0.58
   5   2   6    3.50    0.35
   5   2   7    0.96    0.50
  -5  -2  -7    1.82    0.57
  -5  -2  -7    2.61    0.57
  -5  -2  -7    1.82    0.46
  -5  -2  -8   10.58    1.29
  -5  -2  -8    8.90    1.18
  -5  -2  -8    7.98    0.75
   5   2   8    7.86    0.84
  -5  -2  -9    0.08    0.48
  -5  -2  -9    0.37    0.42
   5   2   9   -0.20    0.42
   5   2   9   -0.19    0.31
   5   2   9   -0.02    0.20
   5   2   9    0.31    0.75
  -5  -2 -10    1.43    0.55
  -5  -2 -10    0.78    0.50
   5   2  10    0.46    0.46
   5   2  10    0.93    0.39
   5   2  10    1.12    0.28
   5   2  10    1.01    0.89
  -5  -2 -11    5.98    0.96
   5   2  11    3.64    0.73
   5   2  11    4.42    0.57
   5   2  11    3.77    1.27
  -5  -2 -12    1.33    0.60
   5   2  12    1.87    0.56
   5   2  12    1.34    0.34
   5   2  12    1.31    1.11
   5   2  13    2.79    0.45
   5   3  -8    3.11    0.70
   5   3  -7    3.15    0.48
   5   3  -7    3.94    0.71
  -5  -3   7    4.00    0.50
  -5  -3   6    1.66    0.71
   5   3  -6    2.18    0.37
   5   3  -6    2.20    0.54
  -5  -3   6    2.01    0.36
   5   3  -5    0.23    0.35
  -5  -3   5    0.61    0.61
   5   3  -5    0.20    0.22
   5   3  -5    0.14    0.17
  -5  -3   5   -0.14    0.24
  -5  -3   5    0.16    0.20
   5   3  -4    1.60    0.39
  -5  -3   4    1.50    0.69
   5   3  -4    1.40    0.26
   5   3  -4    1.34    0.26
  -5  -3   4    0.85    0.29
  -5  -3   4    1.17    0.25
   5   3  -3    8.07    0.92
  -5  -3   3    6.06    0.81
   5   3  -3    8.10    0.77
   5   3  -2    3.16    0.50
  -5  -3   2    1.69    0.64
   5   3  -2    2.79    0.37
  -5  -3   2    2.91    0.29
  -5  -3   2    2.86    0.46
   5   3  -1    8.48    1.05
  -5  -3   1   10.61    1.04
  -5  -3   1    6.44    1.24
  -5  -3   1    7.83    1.03
  -5  -3   1    9.37    0.88
  -5  -3   1    9.69    0.93
   5   3   0    1.77    0.39
  -5  -3   0    2.59    0.39
   5   3   0    2.17    0.65
  -5  -3   0    1.15    0.54
   5   3   0    2.72    0.33
  -5  -3   0    2.17    0.42
  -5  -3   0    2.25    0.25
  -5  -3   0    2.67    0.30
   5   3   0    2.66    0.31
   5   3   1    2.84    0.82
   5   3   1    5.34    0.60
  -5  -3  -1    5.91    0.59
  -5  -3  -1    5.28    0.68
  -5  -3  -1    6.13    0.57
   5   3   1    3.27    0.83
   5   3   2    2.82    0.73
   5   3   2    4.80    0.51
  -5  -3  -2    2.65    0.74
  -5  -3  -2    4.02    0.57
  -5  -3  -2    4.41    0.43
   5   3   2    2.76    0.72
   5   3   3    1.20    0.25
  -5  -3  -3    0.51    0.44
  -5  -3  -3    1.18    0.33
  -5  -3  -3    1.19    0.16
  -5  -3  -4   27.44    3.37
   5   3   4   18.77    3.21
   5   3   4   29.34    3.07
   5   3   4   29.78    2.93
  -5  -3  -4   33.66    3.02
  -5  -3  -4   36.39    2.94
   5   3   4   25.91    3.37
  -5  -3  -4   29.15    3.40
   5   3   5    0.23    0.42
  -5  -3  -5    0.44    0.45
   5   3   5    0.70    0.26
  -5  -3  -5    0.93    0.25
  -5  -3  -5    1.18    0.12
   5   3   5    0.85    0.59
   5   3   5    0.98    0.12
   5   3   6    1.38    0.59
  -5  -3  -6    1.35    0.59
  -5  -3  -6    2.62    0.41
   5   3   6    1.53    0.71
   5   3   7    0.15    0.44
  -5  -3  -7    0.65    0.56
   5   3   7    0.52    0.59
  -5  -3  -7    1.15    0.34
  -5  -3  -8    0.83    0.61
  -5  -3  -8    1.29    0.51
   5   3   8    1.43    0.81
  -5  -3  -9    1.67    0.62
  -5  -3  -9    1.41    0.51
   5   3   9    1.02    0.29
  -5  -3 -10    1.06    0.54
  -5  -3 -10    1.47    0.56
   5   3  10    1.09    0.28
  -5  -3 -11    1.05    0.59
   5   3  11    1.69    0.47
   5   3  11    1.57    0.33
  -5  -3 -12    3.09    0.81
   5   3  12    2.82    0.66
   5   3  12    3.59    0.49
   5   3  12    2.64    1.22
   5   3  13    8.96    0.98
   5   4  -8    3.72    0.73
   5   4  -7    0.13    0.24
   5   4  -7    0.50    0.43
  -5  -4   7    0.47    0.31
   5   4  -6    3.99    0.57
   5   4  -6    5.34    0.78
  -5  -4   6    5.39    0.60
   5   4  -5    1.94    0.49
  -5  -4   5    2.40    0.37
  -5  -4   4    1.21    0.62
   5   4  -4    1.98    0.33
   5   4  -4    1.69    0.43
  -5  -4   4    1.67    0.31
   5   4  -3    8.63    0.97
   5   4  -3    7.64    0.83
  -5  -4   3    7.08    0.77
   5   4  -3    9.73    1.01
   5   4  -2   -0.04    0.24
   5   4  -2    0.03    0.16
   5   4  -2    0.12    0.16
  -5  -4   2   -0.10    0.55
  -5  -4   2   -0.01    0.08
  -5  -4   2    0.16    0.16
  -5  -4   2    0.03    0.15
   5   4  -2   -0.03    0.28
   5   4  -1    1.07    0.35
   5   4  -1    0.92    0.31
  -5  -4   1    1.30    0.31
   5   4  -1    1.83    0.27
  -5  -4   1    1.05    0.53
  -5  -4   1    1.27    0.32
  -5  -4   1    1.65    0.19
  -5  -4   1    1.58    0.24
  -5  -4   0   16.18    1.59
  -5  -4   0   10.83    1.82
   5   4   0   13.97    1.51
  -5  -4   0   16.30    1.64
  -5  -4   0   16.52    1.46
  -5  -4   0   17.17    1.50
   5   4   0   13.41    1.51
   5   4   0   11.73    1.78
  -5  -4  -1    4.33    0.55
   5   4   1    3.76    0.47
  -5  -4  -1    3.26    0.80
  -5  -4  -1    4.28    0.42
  -5  -4  -1    4.09    0.44
   5   4   1    2.28    0.66
   5   4   2    0.30    0.14
  -5  -4  -2    0.28    0.22
   5   4   2   -0.08    0.34
  -5  -4  -2    0.18    0.09
   5   4   3    1.62    0.30
  -5  -4  -3    2.23    0.29
  -5  -4  -3    1.31    0.58
  -5  -4  -3    1.90    0.41
  -5  -4  -3    2.29    0.24
   5   4   3    1.84    0.60
   5   4   4    6.88    0.84
  -5  -4  -4    7.36    0.80
  -5  -4  -4    5.88    0.99
  -5  -4  -4    7.01    0.75
  -5  -4  -4    8.99    0.74
  -5  -4  -4    5.91    1.14
   5   4   4    5.18    1.09
   5   4   5    7.58    0.93
  -5  -4  -5    7.30    1.23
  -5  -4  -5    8.55    0.77
   5   4   5    6.46    1.22
   5   4   5    8.09    0.76
  -5  -4  -6    1.30    0.56
  -5  -4  -6    1.12    0.45
   5   4   6    2.11    0.74
  -5  -4  -7    9.36    1.44
  -5  -4  -7    9.66    1.27
   5   4   7    9.55    1.57
  -5  -4  -8   12.14    1.58
   5   4   8    7.51    1.53
  -5  -4  -9    1.88    0.72
   5   4   9    2.94    0.94
  -5  -4 -10    0.09    0.55
   5   4  10    0.10    0.23
   5   4  10   -0.17    0.82
  -5  -4 -11    1.83    0.71
  -5  -4 -11    2.09    0.68
   5   4  11    1.44    0.32
   5   4  11    1.79    0.96
  -5  -4 -12    0.42    0.52
   5   4  12    0.46    0.41
   5   4  12    0.89    0.28
   5   4  13    0.75    0.31
   5   4  14    0.19    0.28
  -5  -5   6    2.93    0.86
   5   5  -6    3.62    0.69
  -5  -5   6    4.74    0.62
   5   5  -5    1.38    0.33
  -5  -5   5    1.11    0.62
   5   5  -5    0.83    0.41
  -5  -5   5    1.58    0.36
   5   5  -4    0.09    0.20
  -5  -5   4   -0.31    0.55
   5   5  -4    0.22    0.34
  -5  -5   4    0.04    0.23
   5   5  -3    3.51    0.48
   5   5  -3    3.04    0.44
   5   5  -3    3.14    0.56
   5   5  -2    4.99    0.68
   5   5  -2    4.70    0.57
   5   5  -2    5.39    0.61
  -5  -5   2    2.95    0.87
  -5  -5   2    4.57    0.48
   5   5  -2    5.35    0.72
  -5  -5   2    4.95    0.56
   5   5  -1    2.70    0.46
   5   5  -1    2.10    0.43
  -5  -5   1    2.49    0.41
   5   5  -1    2.27    0.35
  -5  -5   1    1.72    0.65
  -5  -5   1    1.94    0.35
  -5  -5   1    2.58    0.38
  -5  -5   1    2.92    0.29
  -5  -5   1    2.73    0.35
  -5  -5   0  126.09   11.33
  -5  -5   0   96.53   11.66
   5   5   0  118.35   11.27
  -5  -5   0  111.23   11.34
  -5  -5   0  115.17   11.34
  -5  -5   0  130.02   11.21
  -5  -5   0  133.37   11.26
   5   5   0  110.81   11.30
   5   5   0   83.78   11.52
  -5  -5  -1    6.16    0.71
  -5  -5  -1    3.83    0.96
   5   5   1    4.83    0.62
  -5  -5  -1    5.67    0.76
  -5  -5  -1    6.20    0.57
  -5  -5  -1    5.72    0.60
   5   5   1    4.43    0.90
  -5  -5  -2    2.30    0.42
   5   5   2    2.07    0.33
  -5  -5  -2    1.93    0.69
  -5  -5  -2    2.55    0.50
  -5  -5  -2    1.92    0.27
  -5  -5  -2    3.17    0.31
  -5  -5  -3    0.62    0.28
   5   5   3    0.40    0.16
  -5  -5  -3    0.69    0.35
  -5  -5  -3    1.07    0.22
   5   5   4    3.61    0.48
  -5  -5  -4    3.77    0.92
  -5  -5  -4    2.69    0.64
  -5  -5  -4    4.16    0.38
  -5  -5  -4    3.37    0.39
  -5  -5  -4    2.25    0.71
   5   5   4    2.69    0.76
   5   5   5    5.16    0.63
  -5  -5  -5    4.40    0.99
  -5  -5  -5    4.79    0.47
   5   5   5    3.59    0.92
  -5  -5  -6    4.10    0.92
   5   5   6    2.95    0.50
  -5  -5  -6    3.09    0.61
   5   5   6    2.44    0.84
  -5  -5  -7    0.79    0.55
  -5  -5  -7    2.14    0.54
   5   5   7    1.15    0.64
  -5  -5  -8    1.52    0.55
  -5  -5  -8    1.24    0.67
   5   5   8    2.11    0.82
  -5  -5  -9    1.62    0.73
  -5  -5  -9    1.94    0.58
   5   5   9    2.77    1.00
  -5  -5 -10   10.50    1.59
  -5  -5 -10   10.89    1.41
   5   5  10    8.31    1.78
  -5  -5 -11    0.93    0.68
   5   5  11    1.03    0.31
   5   5  11    0.53    0.85
  -5  -5 -12    4.46    0.98
   5   5  12    1.97    0.39
   5   5  12    3.36    1.22
   5   5  13    2.60    0.43
   5   5  14    2.45    0.42
   5   6  -5    1.67    0.36
   5   6  -5    1.58    0.45
  -5  -6   5    1.88    0.50
   5   6  -4    2.75    0.45
  -5  -6   4    1.96    0.74
   5   6  -4    2.69    0.57
   5   6  -3    0.13    0.21
  -5  -6   3    0.32    0.60
   5   6  -3    0.04    0.31
   5   6  -2    5.48    0.70
   5   6  -2    4.73    0.59
  -5  -6   2    4.88    0.51
  -5  -6   2    6.18    0.65
  -5  -6   1    4.06    0.65
   5   6  -1    5.83    0.64
  -5  -6   1    3.54    0.99
  -5  -6   1    5.69    0.57
  -5  -6   1    7.08    0.69
   5   6  -1    6.01    0.79
  -5  -6   0    2.37    0.39
   5   6   0    2.49    0.43
  -5  -6   0    1.51    0.68
   5   6   0    2.67    0.37
  -5  -6   0    2.24    0.28
  -5  -6   0    2.27    0.38
  -5  -6   0    1.95    0.37
   5   6   0    3.22    0.71
  -5  -6  -1   12.44    1.32
   5   6   1   10.52    1.26
  -5  -6  -1    7.73    1.58
  -5  -6  -1   11.27    1.35
  -5  -6  -1   13.03    1.21
   5   6   1    9.42    1.53
  -5  -6  -2    0.97    0.30
   5   6   2    0.89    0.24
  -5  -6  -2    0.55    0.55
  -5  -6  -2    1.08    0.37
  -5  -6  -2    1.26    0.19
  -5  -6  -2    1.67    0.24
  -5  -6  -3    0.52    0.27
   5   6   3    0.76    0.20
  -5  -6  -3    0.57    0.15
  -5  -6  -3    0.77    0.40
  -5  -6  -3    0.77    0.16
   5   6   3    0.53    0.42
   5   6   4    2.45    0.37
  -5  -6  -4    1.83    0.72
  -5  -6  -4    1.54    0.49
  -5  -6  -4    2.35    0.32
  -5  -6  -4    2.99    0.29
  -5  -6  -4    1.88    0.65
   5   6   4    2.23    0.24
   5   6   5    4.21    0.59
  -5  -6  -5    3.89    1.01
  -5  -6  -5    5.10    0.60
   5   6   5    5.13    1.00
   5   6   6   20.54    1.97
  -5  -6  -6   21.22    2.48
  -5  -6  -6   17.21    2.07
   5   6   6   16.57    2.33
  -5  -6  -7    0.12    0.61
  -5  -6  -7    0.51    0.38
   5   6   7    0.25    0.56
  -5  -6  -8   -0.12    0.66
  -5  -6  -8    0.40    0.42
   5   6   8    1.53    0.83
  -5  -6  -9    3.57    0.75
  -5  -6  -9    4.24    1.02
   5   6   9    3.34    1.08
  -5  -6 -10   12.93    1.68
   5   6  10   10.67    2.05
  -5  -6 -11    1.82    0.77
  -5  -6 -11    1.09    0.57
   5   6  11    2.45    1.12
  -5  -6 -12    2.11    0.67
  -5  -6 -12    0.46    0.98
   5   6  12    1.61    0.34
   5   6  12    2.03    1.15
   5   6  13   25.18    2.45
  -5  -7   4    0.83    0.63
   5   7  -4    0.59    0.28
   5   7  -3   -0.19    0.23
  -5  -7   3    0.22    0.61
   5   7  -2    3.68    0.50
  -5  -7   2    2.56    0.90
  -5  -7   2    3.82    0.42
  -5  -7   2    3.71    0.51
  -5  -7   1   10.38    1.15
   5   7  -1   10.74    1.14
  -5  -7   1    5.56    1.42
  -5  -7   1   11.80    1.07
  -5  -7   1   12.36    1.15
   5   7  -1    7.54    1.36
  -5  -7   0    1.66    0.31
   5   7   0    1.67    0.29
  -5  -7   0    1.04    0.68
  -5  -7   0    1.02    0.24
  -5  -7   0    1.39    0.25
  -5  -7   0    1.79    0.23
   5   7   0    0.77    0.46
  -5  -7   0    2.03    0.30
  -5  -7  -1    1.29    0.29
   5   7   1    1.18    0.26
  -5  -7  -1    0.23    0.57
  -5  -7  -1    1.32    0.21
  -5  -7  -1    1.03    0.32
   5   7   1    1.09    0.48
  -5  -7  -1    1.79    0.26
  -5  -7  -2    0.51    0.23
   5   7   2    0.57    0.21
  -5  -7  -2   -0.12    0.64
  -5  -7  -2    0.52    0.14
  -5  -7  -2    0.21    0.28
   5   7   2    0.40    0.12
  -5  -7  -2    0.53    0.17
  -5  -7  -3   15.01    1.41
  -5  -7  -3   11.22    1.80
   5   7   3   13.05    1.31
  -5  -7  -3   10.14    1.44
  -5  -7  -3   13.25    1.25
  -5  -7  -3   14.38    1.26
   5   7   3   11.02    1.63
   5   7   3   12.16    1.22
  -5  -7  -4    0.25    0.25
  -5  -7  -4    0.10    0.18
   5   7   4    0.46    0.21
  -5  -7  -4    0.18    0.14
  -5  -7  -4    0.17    0.38
   5   7   4    0.39    0.08
   5   7   4    0.38    0.50
  -5  -7  -4    0.38    0.14
   5   7   5   12.85    1.29
  -5  -7  -5   11.31    1.41
  -5  -7  -5    9.95    1.72
  -5  -7  -5   12.74    1.31
   5   7   5   10.82    1.65
   5   7   6  182.56   16.17
  -5  -7  -6  170.81   16.75
  -5  -7  -6  160.33   16.29
  -5  -7  -6  174.38   16.20
   5   7   6  171.14   16.66
  -5  -7  -7    3.00    0.69
  -5  -7  -7    5.36    1.13
   5   7   7    4.36    1.00
  -5  -7  -8    4.51    1.08
  -5  -7  -8    4.73    0.82
   5   7   8    4.24    1.08
  -5  -7  -9    0.61    0.39
  -5  -7  -9    0.38    0.68
   5   7   9    0.45    0.64
  -5  -7 -10   10.85    1.69
  -5  -7 -10    9.48    1.33
   5   7  10    8.22    1.73
  -5  -7 -11   -0.12    0.72
  -5  -7 -11    0.46    0.47
   5   7  11    0.52    0.86
  -5  -7 -12    0.95    0.55
  -5  -7 -12    0.25    0.79
   5   7  12    0.44    0.28
   5   7  12    0.72    0.93
   5   7  13    1.42    0.34
   5   8  -3    0.59    0.29
  -5  -8   3    0.77    0.61
   5   8  -2    3.30    0.46
  -5  -8   2    2.08    0.84
  -5  -8   2    3.11    0.45
  -5  -8   1   40.75    5.71
   5   8  -1   55.77    5.33
  -5  -8   1   60.73    5.26
  -5  -8   1   53.29    5.30
  -5  -8   0   14.37    1.52
   5   8   0   14.37    1.52
  -5  -8   0    9.70    1.92
  -5  -8   0   17.17    1.46
  -5  -8   0   14.72    1.49
   5   8   0   12.83    1.80
  -5  -8  -1    0.70    0.23
   5   8   1    0.23    0.20
  -5  -8  -1    0.38    0.60
  -5  -8  -1    0.08    0.23
  -5  -8  -1    0.63    0.17
  -5  -8  -1    0.85    0.21
   5   8   1    1.05    0.50
  -5  -8  -2    1.38    0.32
   5   8   2    2.07    0.34
  -5  -8  -2    1.16    0.69
  -5  -8  -2    1.14    0.38
  -5  -8  -2    2.48    0.27
  -5  -8  -2    1.58    0.27
   5   8   2    1.81    0.60
   5   8   2    1.61    0.23
  -5  -8  -3    5.61    0.71
   5   8   3    5.60    0.65
  -5  -8  -3    4.73    1.17
  -5  -8  -3    4.97    0.80
  -5  -8  -3    5.98    0.59
  -5  -8  -3    6.09    0.60
   5   8   3    5.13    0.98
  -5  -8  -3    5.73    0.67
   5   8   3    5.10    0.55
  -5  -8  -4    0.94    0.64
  -5  -8  -4    0.17    0.27
  -5  -8  -4    0.27    0.24
   5   8   4    0.42    0.22
  -5  -8  -4    0.13    0.14
   5   8   4    0.32    0.09
   5   8   4   -0.18    0.53
  -5  -8  -5    0.50    0.34
  -5  -8  -5    0.29    0.27
   5   8   5    0.66    0.25
  -5  -8  -5    0.34    0.17
   5   8   5    0.20    0.49
   5   8   5    0.10    0.14
   5   8   6    0.91    0.31
  -5  -8  -6    1.27    0.41
  -5  -8  -6    0.55    0.74
  -5  -8  -6    1.21    0.41
   5   8   6    0.88    0.69
   5   8   7    2.03    0.44
  -5  -8  -7    2.17    0.53
  -5  -8  -7    2.90    1.01
  -5  -8  -7    1.76    0.51
   5   8   7    2.80    0.89
  -5  -8  -8    0.81    0.68
  -5  -8  -8    0.67    0.41
   5   8   8    0.54    0.61
  -5  -8  -9    3.47    0.70
  -5  -8  -9    2.95    0.98
   5   8   9    2.92    1.04
  -5  -8 -10    1.34    0.93
  -5  -8 -10    0.77    0.46
   5   8  10   -0.16    0.96
  -5  -8 -11    1.48    1.06
  -5  -8 -11    2.56    0.66
   5   8  11    0.17    1.29
  -5  -8 -12    0.41    0.90
  -5  -8 -12    1.62    0.62
   5   8  12   -0.18    1.02
   5   8  13    0.86    0.30
   5   9  -2    1.51    0.35
  -5  -9   2    0.94    0.69
  -5  -9   2    1.96    0.36
   5   9  -1    5.20    0.73
  -5  -9   1    7.39    0.68
  -5  -9   1    6.61    0.74
  -5  -9   0    1.28    0.75
   5   9   0    1.47    0.34
  -5  -9   0    2.02    0.28
  -5  -9   0    1.69    0.33
   5   9   1    4.96    0.58
  -5  -9  -1    4.38    0.50
  -5  -9  -1    4.56    0.53
  -5  -9  -2    6.77    1.48
   5   9   2    9.35    0.99
  -5  -9  -2    9.27    0.93
  -5  -9  -2    9.48    0.95
   5   9   2    8.73    1.28
  -5  -9  -3    0.27    0.22
  -5  -9  -3    0.14    0.63
   5   9   3    0.20    0.20
  -5  -9  -3    0.36    0.16
  -5  -9  -3    0.05    0.33
   5   9   3    0.33    0.11
   5   9   3    0.32    0.49
  -5  -9  -3    0.66    0.30
  -5  -9  -4   -0.14    0.64
  -5  -9  -4    0.31    0.26
  -5  -9  -4    0.03    0.28
  -5  -9  -4    0.34    0.27
   5   9   4    0.44    0.24
  -5  -9  -4    0.53    0.18
   5   9   4    0.26    0.09
   5   9   4    0.95    0.55
  -5  -9  -5    2.84    0.55
  -5  -9  -5    2.58    0.92
  -5  -9  -5    2.65    0.52
   5   9   5    3.33    0.47
  -5  -9  -5    2.79    0.37
   5   9   5    2.40    0.81
  -5  -9  -6    0.10    0.32
  -5  -9  -6    0.10    0.36
   5   9   6    0.09    0.27
  -5  -9  -6    0.07    0.19
   5   9   6    0.11    0.57
   5   9   7    0.14    0.28
  -5  -9  -7    0.06    0.36
  -5  -9  -7   -0.43    0.67
  -5  -9  -7    0.16    0.32
   5   9   7    0.12    0.56
  -5  -9  -8    0.43    0.45
  -5  -9  -8   -0.06    0.34
  -5  -9  -8    0.86    0.76
   5   9   8   -0.13    0.71
  -5  -9  -9    1.80    0.52
  -5  -9  -9    2.70    0.98
  -5  -9 -10    2.83    0.99
  -5  -9 -10    3.12    0.67
  -5  -9 -11    0.14    1.30
   5   9  11    0.16    1.49
  -5  -9 -12    6.19    2.53
   5   9  12    0.17    2.63
  -5 -10   1    0.86    0.74
   5  10  -1    0.96    0.38
  -5 -10   1    2.46    0.32
  -5 -10   1    1.85    0.36
  -5 -10   0    0.65    0.79
   5  10   0    0.57    0.34
  -5 -10   0    1.70    0.27
  -5 -10   0    1.58    0.32
  -5 -10  -1    0.27    0.73
  -5 -10  -1    1.14    0.25
   5  10   1    1.10    0.31
  -5 -10  -2    2.80    0.96
   5  10   2    1.66    0.36
  -5 -10  -2    2.16    0.31
  -5 -10  -3    2.15    1.01
  -5 -10  -3    2.62    0.53
   5  10   3    3.90    0.51
  -5 -10  -3    4.17    0.45
  -5 -10  -3    3.86    0.61
  -5 -10  -4    0.59    0.69
  -5 -10  -4    0.95    0.34
  -5 -10  -4    0.87    0.36
   5  10   4    1.09    0.29
  -5 -10  -4    0.99    0.23
  -5 -10  -5    3.40    1.05
  -5 -10  -5    1.77    0.46
  -5 -10  -5    2.95    0.58
   5  10   5    3.19    0.46
  -5 -10  -5    2.80    0.37
   5  10   5    1.86    0.74
  -5 -10  -6    2.83    0.93
  -5 -10  -6    1.34    0.41
  -5 -10  -6    1.70    0.50
   5  10   6    1.47    0.40
  -5 -10  -6    1.54    0.28
   5  10   6    2.10    0.77
  -5 -10  -7    1.43    0.45
  -5 -10  -7    1.50    0.55
   5  10   7    1.49    0.43
  -5 -10  -7    1.58    0.30
   5  10   7    2.34    0.90
  -5 -10  -8   -0.20    0.44
  -5 -10  -8    0.21    0.35
  -5 -10  -8    0.45    0.79
  -5 -10  -8    0.23    0.23
   5  10   8   -0.12    0.79
  -5 -10  -9    2.34    0.67
  -5 -10  -9    2.38    0.60
  -5 -10  -9    3.73    1.10
  -5 -10 -10   -0.15    0.82
  -5 -10 -10    0.69    0.47
   5  10  10   -0.14    0.88
  -5 -10 -11   -0.15    0.83
  -5 -10 -11    0.27    0.41
   5  10  11    0.15    0.99
  -5 -10 -12    0.14    0.45
  -5 -11   0    0.38    0.75
  -5 -11   0    0.28    0.23
   5  11   0   -0.03    0.29
  -5 -11  -1    0.43    0.23
   5  11   1    0.10    0.27
  -5 -11  -2    0.14    0.72
  -5 -11  -2    0.95    0.25
   5  11   2    0.07    0.27
  -5 -11  -3    1.13    0.26
   5  11   3    1.27    0.31
  -5 -11  -4    1.76    0.96
  -5 -11  -4    3.00    0.40
   5  11   4    3.09    0.48
  -5 -11  -5    4.72    0.51
   5  11   5    3.68    0.58
  -5 -11  -6   -0.04    0.31
  -5 -11  -6   -0.15    0.71
  -5 -11  -6    0.08    0.19
   5  11   6   -0.03    0.32
  -5 -11  -7   -0.13    0.32
  -5 -11  -7    0.07    0.21
   5  11   7    0.59    0.34
  -5 -11  -8    4.41    0.77
  -5 -11  -8    4.34    1.24
  -5 -11  -8    5.67    0.62
  -5 -11  -9   -0.31    0.85
  -5 -11  -9    0.42    0.39
  -5 -11  -9    0.42    0.26
   5  11   9   -0.12    0.75
  -5 -11 -10    1.65    0.52
   5  11  10    0.14    0.91
  -5 -11 -11    2.39    0.61
   5  11  11    0.58    1.11
  -5 -12  -1    0.53    0.73
   5  12   1    0.27    0.33
  -5 -12  -2    1.10    0.86
   5  12   2    0.24    0.29
  -5 -12  -3    0.72    0.80
   5  12   3    1.39    0.36
  -5 -12  -4    6.78    1.63
  -5 -12  -4   11.27    1.10
  -5 -12  -5    2.28    0.98
  -5 -12  -5    1.77    0.33
  -5 -12  -6    0.16    0.81
  -5 -12  -6    0.45    0.25
   6 -10  -7    1.80    0.54
   6 -10  -6    0.32    0.42
   6 -10  -5    2.28    0.56
   6 -10  -5    2.62    0.41
   6 -10  -4    2.82    0.62
  -6  10   4    3.79    1.14
   6 -10  -4    4.36    0.52
   6 -10  -3    0.14    0.80
  -6  10   3    0.91    0.82
   6 -10  -3    0.17    0.23
  -6  10   2   14.91    2.20
   6 -10  -2   14.88    2.22
   6 -10  -2   16.60    1.63
   6 -10  -1   -0.13    0.74
  -6  10   1    1.00    0.74
   6 -10  -1    0.56    0.26
  -6  10   0    3.33    1.04
   6 -10   0    3.32    0.47
  -6  10  -1    4.87    1.17
  -6  10  -2    0.12    0.71
  -6  10  -3   -0.12    0.80
   6  -9  -7   -0.17    0.41
   6  -9  -6    3.02    0.66
   6  -9  -6    3.93    0.49
   6  -9  -5    1.84    0.81
   6  -9  -5    3.28    0.61
  -6   9   5    2.39    1.01
   6  -9  -5    2.70    0.41
   6  -9  -4    0.88    0.39
   6  -9  -4    0.13    0.72
  -6   9   4    0.51    0.68
   6  -9  -4    0.53    0.25
   6  -9  -3    5.72    1.18
  -6   9   3    5.16    1.14
   6  -9  -3    4.76    0.59
   6  -9  -2    4.63    1.14
  -6   9   2    4.84    1.14
   6  -9  -2    3.05    0.85
   6  -9  -2    5.19    0.59
   6  -9  -1    1.10    0.77
  -6   9   1    0.84    0.76
   6  -9  -1    0.61    0.24
   6  -9  -1    0.45    0.50
   6  -9   0    4.45    1.04
  -6   9   0    4.27    1.05
   6  -9   0    3.16    0.46
   6  -9   1   40.33    3.53
  -6   9  -1   37.64    4.14
   6  -9   1   32.43    4.06
   6  -9   1   34.31    3.56
   6  -9   2    2.78    0.94
   6  -9   2    3.10    0.40
  -6   9  -2    3.26    0.98
   6  -9   2    2.25    0.42
   6  -9   3    0.17    0.24
  -6   9  -3    0.57    0.72
  -6   9  -4    0.90    0.75
   6  -9   4    0.38    0.27
   6  -8  -8    4.73    0.83
   6  -8  -7    0.12    0.78
   6  -8  -7    1.47    0.50
  -6   8   7    0.81    0.80
   6  -8  -6    1.45    0.76
   6  -8  -6    0.93    0.43
   6  -8  -5    0.35    0.64
   6  -8  -5    0.67    0.43
  -6   8   5   -0.12    0.70
   6  -8  -4   -0.47    0.69
   6  -8  -4   -0.05    0.34
  -6   8   4   -0.12    0.62
   6  -8  -4    0.25    0.21
   6  -8  -3    4.68    0.72
   6  -8  -3    3.12    0.95
   6  -8  -3    5.07    0.58
  -6   8   3    5.01    1.12
   6  -8  -2    0.34    0.61
  -6   8   2   -0.12    0.58
   6  -8  -2    0.02    0.18
   6  -8  -2    0.10    0.48
   6  -8  -1    0.57    0.59
   6  -8  -1    1.21    0.20
  -6   8   1    1.26    0.70
   6  -8  -1    0.83    0.25
   6  -8  -1    0.38    0.46
   6  -8   0    0.22    0.58
   6  -8   0    0.27    0.16
  -6   8   0    0.45    0.65
   6  -8   0    0.17    0.20
   6  -8   0    0.46    0.52
   6  -8   1    3.83    1.02
   6  -8   1    4.86    0.52
  -6   8  -1    3.35    0.97
   6  -8   1    4.78    0.56
   6  -8   1    2.89    0.80
   6  -8   2    0.21    0.59
   6  -8   2    0.42    0.21
  -6   8  -2    0.11    0.62
   6  -8   2    0.08    0.20
   6  -8   3    3.22    0.93
   6  -8   3    3.55    0.46
  -6   8  -3    3.49    0.99
   6  -8   4    6.25    0.72
  -6   8  -4    7.37    1.32
   6  -8   4    6.07    1.24
   6  -8   4    6.02    0.74
  -6   8  -5    0.11    0.67
   6  -8   5    0.06    0.25
   6  -7  -8    3.15    0.68
  -6   7   8    2.90    1.03
   6  -7  -7    0.35    0.39
  -6   7   7    0.38    0.72
   6  -7  -6    0.11    0.59
   6  -7  -6    0.22    0.36
  -6   7   6    0.49    0.69
   6  -7  -5    0.97    0.64
   6  -7  -5    1.02    0.41
   6  -7  -4    0.11    0.58
   6  -7  -4    0.39    0.34
   6  -7  -3    0.21    0.55
   6  -7  -3    0.37    0.32
  -6   7   3   -0.11    0.66
   6  -7  -3    0.24    0.18
   6  -7  -2   -0.04    0.29
   6  -7  -2    0.10    0.51
   6  -7  -2    0.47    0.12
  -6   7   2    0.44    0.57
   6  -7  -2    0.13    0.18
   6  -7  -1    1.55    0.67
   6  -7  -1    1.71    0.24
  -6   7   1    1.95    0.74
   6  -7  -1    1.61    0.29
   6  -7  -1    1.14    0.60
   6  -7   0    6.28    1.21
   6  -7   0    8.31    0.77
  -6   7   0    8.51    1.35
   6  -7   0    7.35    0.80
   6  -7   1    1.30    0.63
   6  -7   1    1.12    0.23
  -6   7  -1    0.94    0.66
   6  -7   1    0.66    0.54
   6  -7   1    1.21    0.26
   6  -7   2    0.39    0.53
  -6   7  -2    0.93    0.62
   6  -7   2    0.29    0.20
   6  -7   2   -0.10    0.46
   6  -7   3    1.27    0.70
   6  -7   3    1.47    0.28
   6  -7   3    0.49    0.57
  -6   7  -4    0.84    0.65
   6  -7   4    0.25    0.23
   6  -7   4    0.32    0.23
   6  -7   4   -0.10    0.57
   6  -7   4   -0.10    0.51
  -6   7  -5    0.11    0.63
   6  -7   5    0.35    0.25
   6  -7   5    0.41    0.26
   6  -7   5    1.49    0.67
   6  -7   5    0.41    0.55
   6  -7   6    0.31    0.39
  -6   7  -6   -0.11    0.75
   6  -7   6    0.68    0.28
   6  -7   6    0.49    0.30
  -6   6   9    0.26    0.73
   6  -6  -8    1.84    0.58
  -6   6   8    1.62    0.85
   6  -6  -7    1.54    0.52
  -6   6   7    1.56    0.76
   6  -6  -6    1.27    0.45
  -6   6   6    0.80    0.65
   6  -6  -5    0.79    0.62
   6  -6  -5    0.15    0.33
  -6   6   5    0.87    0.62
   6  -6  -5    0.39    0.17
   6  -6  -4    4.74    0.92
   6  -6  -4    3.98    0.66
   6  -6  -3    0.37    0.50
   6  -6  -3    0.18    0.29
   6  -6  -3    0.63    0.12
   6  -6  -2    5.63    1.03
   6  -6  -2    5.09    0.79
   6  -6  -2    6.22    0.59
   6  -6  -2    5.60    0.65
  -6   6   2    5.13    1.05
   6  -6  -1    9.36    0.96
   6  -6  -1    9.64    0.91
  -6   6   1   10.00    1.47
   6  -6  -1    7.90    1.34
   6  -6  -1    6.02    1.25
   6  -6   0   86.54    7.31
  -6   6   0   94.49    7.93
   6  -6   0   75.10    7.78
   6  -6   0   75.41    7.33
   6  -6   1    2.71    0.78
  -6   6  -1    3.78    0.45
   6  -6   1    3.56    0.42
  -6   6  -1    3.62    0.85
   6  -6   1    2.57    0.73
   6  -6   2    1.25    0.60
  -6   6  -2    2.08    0.68
   6  -6   2    0.69    0.50
   6  -6   3    1.51    0.65
   6  -6   3    1.51    0.42
  -6   6  -3    1.98    0.72
   6  -6   3    1.84    0.32
   6  -6   3    1.84    0.74
   6  -6   3    2.15    0.31
  -6   6  -4    5.16    0.95
   6  -6   4    5.60    0.83
   6  -6   4    6.05    0.68
  -6   6  -4    7.31    1.19
   6  -6   4    6.42    1.09
   6  -6   4    3.42    1.01
   6  -6   4    6.68    0.69
  -6   6  -5    5.67    0.83
   6  -6   5    3.54    0.69
   6  -6   5    3.75    0.51
  -6   6  -5    4.28    0.96
   6  -6   5    3.53    0.86
   6  -6   5    4.66    0.52
   6  -6   6    0.55    0.40
  -6   6  -6    0.91    0.65
   6  -6   6    0.42    0.27
   6  -6   6    0.26    0.24
   6  -6   6   -0.35    0.62
   6  -6   7    3.62    0.74
  -6   6  -7    5.92    1.11
   6  -6   7    3.87    0.52
   6  -6   7    1.57    0.86
  -6   5   9    0.85    0.76
   6  -5  -8    0.25    0.42
  -6   5   8    0.47    0.64
   6  -5  -7   63.43    5.78
  -6   5   7   70.64    6.21
   6  -5  -7   56.39    5.47
   6  -5  -6   11.19    1.37
  -6   5   6   12.44    1.71
   6  -5  -6   11.33    1.13
   6  -5  -5    1.33    0.42
   6  -5  -5    1.47    0.24
  -6   5   5    0.81    0.59
   6  -5  -4   16.23    1.71
   6  -5  -4   14.67    1.50
  -6   5   4   17.60    2.04
   6  -5  -4   15.59    1.91
   6  -5  -3    0.33    0.49
   6  -5  -3    0.32    0.34
   6  -5  -3    0.13    0.17
   6  -5  -3    0.14    0.09
   6  -5  -2   11.30    1.41
  -6   5   2   13.78    1.30
  -6   5   2   13.05    1.21
   6  -5  -2   12.18    1.21
  -6   5   2   12.67    1.20
   6  -5  -2   12.61    1.64
   6  -5  -1    0.90    0.33
   6  -5  -1    1.16    0.58
  -6   5   1    0.86    0.17
  -6   5   1    1.22    0.27
  -6   5   1    0.72    0.13
   6  -5  -1    0.72    0.16
  -6   5   1    1.59    0.64
   6  -5  -1    0.87    0.20
   6  -5   0    5.32    0.97
  -6   5   0    7.04    0.62
  -6   5   0    6.99    0.71
   6  -5   0    4.83    0.59
  -6   5   0    5.98    1.07
  -6   5   0    5.58    0.56
   6  -5   1    6.52    1.13
  -6   5  -1    9.17    0.84
   6  -5   1    7.58    0.81
  -6   5  -1    8.15    1.26
   6  -5   1    5.23    1.11
   6  -5   2    0.96    0.45
   6  -5   2    1.49    0.36
  -6   5  -2    1.20    0.60
   6  -5   2    1.39    0.25
   6  -5   2    0.99    0.56
   6  -5   2    1.32    0.24
  -6   5  -3    6.93    1.14
   6  -5   3    8.32    1.00
   6  -5   3    8.71    0.85
  -6   5  -3   10.22    1.35
   6  -5   3    7.97    1.19
   6  -5   3    5.20    1.18
   6  -5   3    7.54    0.83
  -6   5  -4    0.61    0.45
   6  -5   4    1.38    0.41
  -6   5  -4    1.02    0.65
   6  -5   4    1.28    0.26
   6  -5   4    1.72    0.26
   6  -5   4    0.64    0.47
   6  -5   4    0.22    0.50
  -6   5  -5    5.23    0.82
   6  -5   5    4.76    0.74
  -6   5  -5    4.20    0.80
  -6   5  -5    6.16    1.08
   6  -5   5    4.18    0.55
   6  -5   5    4.00    0.86
   6  -5   5    2.34    0.90
   6  -5   5    4.82    0.54
  -6   5  -6    0.26    0.47
   6  -5   6    0.06    0.36
  -6   5  -6    0.10    0.61
   6  -5   6    0.57    0.26
   6  -5   6    0.54    0.24
   6  -5   6   -0.12    0.61
  -6   5  -7    0.90    0.48
   6  -5   7    0.64    0.46
  -6   5  -7    0.50    0.66
   6  -5   7    0.52    0.28
   6  -5   7    0.39    0.67
  -6   5  -8    0.30    0.65
   6  -5   8    0.63    0.30
   6  -5   8    1.50    0.86
  -6   4  10    1.27    0.81
  -6   4   9    1.24    0.73
  -6   4   8    2.60    0.86
   6  -4  -8    1.97    0.32
   6  -4  -7    2.31    0.56
  -6   4   7    1.98    0.75
   6  -4  -7    1.20    0.25
   6  -4  -6   12.38    1.41
  -6   4   6   12.56    1.68
   6  -4  -6   11.31    1.16
   6  -4  -5    1.95    0.50
  -6   4   5    1.79    0.66
   6  -4  -5    1.67    0.27
   6  -4  -4   26.27    2.76
  -6   4   4   24.07    2.99
   6  -4  -4   24.68    2.56
  -6   4   4   28.97    2.54
   6  -4  -3   -0.07    0.38
   6  -4  -3   -0.09    0.27
   6  -4  -3    0.04    0.11
  -6   4   3    0.27    0.48
   6  -4  -3    0.07    0.15
  -6   4   3    0.16    0.12
   6  -4  -2    5.73    1.03
   6  -4  -2    7.35    0.93
   6  -4  -2    6.77    0.72
  -6   4   2    7.72    0.69
  -6   4   2    9.23    1.24
   6  -4  -2    5.84    0.77
  -6   4   2    7.54    0.73
   6  -4  -1    4.49    0.80
   6  -4  -1    3.71    0.62
   6  -4  -1    3.07    0.51
  -6   4   1    4.71    0.46
   6  -4  -1    3.93    0.45
  -6   4   1    4.48    0.42
   6  -4   0    1.30    0.52
  -6   4   0    2.70    0.30
   6  -4   0    2.09    0.28
  -6   4   0    2.24    0.63
  -6   4   0    2.16    0.25
   6  -4   0    1.12    0.55
   6  -4   1    1.06    0.49
  -6   4  -1    1.94    0.28
   6  -4   1    1.10    0.31
  -6   4  -1    2.58    0.67
   6  -4   1    1.47    0.25
  -6   4  -1    2.17    0.22
   6  -4   1    1.14    0.56
   6  -4   1    1.79    0.26
   6  -4   2    4.64    0.92
   6  -4   2    6.29    0.79
  -6   4  -2    8.59    0.75
   6  -4   2    5.88    0.67
  -6   4  -2    7.33    1.12
   6  -4   2    2.65    0.92
   6  -4   2    6.94    0.68
   6  -4   3    4.39    0.86
   6  -4   3    6.43    0.78
  -6   4  -3    3.97    0.89
   6  -4   3    5.57    0.63
  -6   4  -3    7.16    1.05
   6  -4   3    6.09    0.62
  -6   4  -4    0.62    0.47
   6  -4   4    1.05    0.37
  -6   4  -4    0.26    0.52
   6  -4   4    0.91    0.23
   6  -4   4    0.80    0.19
   6  -4   4    0.78    0.46
   6  -4   4    1.23    0.65
  -6   4  -5   13.63    1.86
   6  -4   5   17.76    1.87
   6  -4   5   17.23    1.67
  -6   4  -5   22.44    2.21
   6  -4   5   17.04    1.99
   6  -4   5   18.21    1.66
  -6   4  -6  129.02   11.26
   6  -4   6  102.18   11.11
   6  -4   6  122.14   10.95
  -6   4  -6  135.56   11.47
   6  -4   6  122.84   10.92
  -6   4  -7    0.77    0.49
   6  -4   7    0.25    0.42
  -6   4  -7    0.58    0.65
   6  -4   7    0.30    0.26
   6  -4   7    0.32    0.22
   6  -4   7    0.82    0.71
  -6   4  -8    1.10    0.54
  -6   4  -8    2.10    0.76
   6  -4   8    1.33    0.34
   6  -4   8    1.44    0.86
  -6   4  -9    1.05    0.56
   6  -4   9    0.29    0.47
  -6   4  -9    0.31    0.64
   6  -4   9    0.90    0.34
   6  -4   9   -0.15    0.77
   6  -4  10    6.26    1.46
  -6   3  10   -0.32    0.74
  -6   3   9    1.13    0.69
   6  -3  -9    0.29    0.21
   6  -3  -8    1.22    0.49
  -6   3   8    1.20    0.74
   6  -3  -8    1.30    0.26
  -6   3   7    2.59    0.79
   6  -3  -7    1.23    0.26
  -6   3   6    0.92    0.58
   6  -3  -6    0.68    0.20
  -6   3   5    1.04    0.58
   6  -3  -5    1.31    0.24
   6  -3  -4    4.33    0.66
  -6   3   4    2.78    0.75
   6  -3  -4    3.64    0.45
  -6   3   4    4.00    0.43
   6  -3  -3    5.18    0.75
   6  -3  -3    4.59    0.57
  -6   3   3    5.73    0.55
  -6   3   3    5.27    0.92
   6  -3  -2    9.29    1.12
   6  -3  -2    8.92    0.97
  -6   3   2    9.72    0.92
  -6   3   2    9.33    0.88
  -6   3   2    8.85    1.31
   6  -3  -2    9.61    1.23
   6  -3  -1  118.69   12.08
   6  -3  -1  118.00   11.95
  -6   3   1  133.09   11.89
  -6   3   1  138.20   12.35
  -6   3   1  128.89   11.84
   6  -3  -1  135.54   12.23
   6  -3   0   14.31    1.74
  -6   3   0   18.16    1.69
   6  -3   0   17.36    1.74
  -6   3   0   18.31    1.64
   6  -3   0   12.39    2.01
   6  -3   0   19.55    2.01
   6  -3   1    0.49    0.36
   6  -3   1    0.52    0.20
  -6   3  -1    0.30    0.17
  -6   3  -1    0.24    0.40
   6  -3   1    0.29    0.16
   6  -3   1    0.34    0.14
   6  -3   1    0.28    0.41
   6  -3   2    5.98    0.74
  -6   3  -2    4.39    0.91
  -6   3  -2    6.36    0.67
   6  -3   2    5.70    0.64
  -6   3  -2    6.29    0.99
   6  -3   2    4.49    0.97
   6  -3   2    6.03    0.89
   6  -3   2    6.08    0.62
  -6   3  -3    7.88    1.23
   6  -3   3    9.19    1.06
   6  -3   3    9.54    0.95
  -6   3  -3   11.17    1.36
   6  -3   3    7.95    1.16
   6  -3   3    9.79    0.93
  -6   3  -4    5.42    0.97
   6  -3   4    5.82    0.82
   6  -3   4    6.27    0.69
  -6   3  -4    8.71    1.15
   6  -3   4    6.60    0.67
   6  -3   4    4.69    1.07
   6  -3   4    6.06    0.93
  -6   3  -5    1.67    0.57
   6  -3   5    2.60    0.52
  -6   3  -5    2.53    0.71
   6  -3   5    2.35    0.35
   6  -3   5    2.21    0.58
   6  -3   5    0.84    0.66
   6  -3   5    2.60    0.32
  -6   3  -6    6.77    1.09
  -6   3  -6   10.92    1.26
   6  -3   6    8.45    1.10
   6  -3   6    8.94    0.94
   6  -3   6    4.94    1.28
   6  -3   6    9.37    0.90
  -6   3  -7    0.29    0.48
   6  -3   7    0.40    0.38
   6  -3   7    0.36    0.24
   6  -3   7    0.34    0.21
   6  -3   7    0.14    0.67
  -6   3  -8    3.44    0.75
   6  -3   8    2.89    0.46
   6  -3   8    3.13    1.02
   6  -3   9    6.52    1.02
   6  -3   9    3.63    1.23
  -6   3 -10    0.60    0.60
   6  -3  10    0.49    0.92
  -6   3 -11    3.62    0.87
   6  -3  11    3.32    1.25
  -6   2  10    0.98    0.93
   6  -2 -10    3.48    0.48
  -6   2   9    3.29    0.89
  -6   2   9    1.29    0.88
   6  -2  -9    2.32    0.39
   6  -2  -8    0.97    0.52
  -6   2   8    0.73    0.65
   6  -2  -8    0.92    0.25
   6  -2  -7   -0.06    0.40
  -6   2   7    0.18    0.54
   6  -2  -7    0.02    0.19
   6  -2  -6    0.88    0.43
  -6   2   6    1.10    0.55
   6  -2  -6    0.46    0.20
   6  -2  -5   13.98    1.47
  -6   2   5   11.60    1.58
   6  -2  -5   11.88    1.22
  -6   2   4    5.31    0.88
   6  -2  -4    3.50    0.44
  -6   2   3    4.83    0.91
   6  -2  -3    5.48    0.62
  -6   2   3    6.02    0.60
   6  -2  -2    0.76    0.39
  -6   2   2    0.83    0.48
   6  -2  -2    0.91    0.19
  -6   2   2    0.64    0.16
   6  -2  -1    4.42    0.70
   6  -2  -1    4.05    0.63
  -6   2   1    5.19    0.82
  -6   2   1    4.17    0.40
   6  -2  -1    3.85    0.50
  -6   2   1    4.36    0.46
   6  -2   0    4.05    0.70
   6  -2   0    4.54    0.51
  -6   2   0    3.33    0.81
   6  -2   0    4.22    0.53
  -6   2   0    4.35    0.48
  -6   2   0    3.46    0.75
   6  -2   1    3.08    0.40
  -6   2  -1    1.86    0.65
   6  -2   1    3.04    0.42
  -6   2  -1    2.72    0.35
   6  -2   1    1.90    0.48
   6  -2   1    1.78    0.61
  -6   2  -2   17.97    2.66
   6  -2   2   24.76    2.47
  -6   2  -2   29.42    2.42
  -6   2  -2   30.27    2.82
   6  -2   2   23.59    2.36
   6  -2   2   23.85    2.59
  -6   2  -2   29.38    2.67
   6  -2   2   19.39    2.74
  -6   2  -3    0.12    0.36
   6  -2   3    0.10    0.32
  -6   2  -3   -0.08    0.40
   6  -2   3    0.23    0.22
  -6   2  -3    0.08    0.42
   6  -2   3   -0.31    0.44
   6  -2   3    0.21    0.12
  -6   2  -4    2.40    0.66
   6  -2   4    2.91    0.49
   6  -2   4    2.94    0.38
   6  -2   4    2.73    0.57
   6  -2   4    2.67    0.33
   6  -2   4    3.44    0.84
  -6   2  -5    3.54    0.82
   6  -2   5    6.24    0.80
   6  -2   5    5.64    0.64
   6  -2   5    3.38    0.98
   6  -2   5    6.41    0.61
   6  -2   6    0.68    0.33
  -6   2  -6    0.76    0.47
   6  -2   6    0.94    0.26
   6  -2   6    1.38    0.22
  -6   2  -6    1.52    0.20
   6  -2   6    0.26    0.65
  -6   2  -7    2.42    0.62
   6  -2   7    0.49    0.37
   6  -2   7    1.15    0.31
  -6   2  -7    2.34    0.25
   6  -2   7    0.85    0.77
   6  -2   7    1.84    0.28
  -6   2  -8    3.76    0.79
   6  -2   8    3.49    0.50
   6  -2   8    3.19    1.05
   6  -2   9    0.19    0.39
  -6   2  -9    0.54    0.49
   6  -2   9    0.16    0.81
  -6   2 -10    1.73    0.71
   6  -2  10    1.55    0.56
   6  -2  10    1.91    0.37
   6  -2  10    0.68    0.89
  -6   2 -11    6.95    1.08
   6  -2  11    2.45    1.25
  -6   1   9   -0.15    0.84
   6  -1  -9    0.09    0.24
   6  -1  -8    0.33    0.44
  -6   1   8   -0.15    0.84
   6  -1  -8    0.64    0.26
  -6   1   8    1.01    0.31
   6  -1  -7    1.93    0.54
  -6   1   7    1.58    0.59
  -6   1   7    1.15    0.84
   6  -1  -7    0.80    0.26
   6  -1  -6    0.33    0.40
  -6   1   6    0.91    0.54
  -6   1   6    0.96    0.74
   6  -1  -6    0.44    0.20
   6  -1  -5    2.79    0.58
  -6   1   5    3.11    0.71
  -6   1   5    1.69    0.84
   6  -1  -5    2.52    0.35
   6  -1  -4    0.19    0.29
  -6   1   4    1.04    0.48
  -6   1   4    0.74    0.60
   6  -1  -4    0.16    0.15
   6  -1  -3    2.78    0.54
  -6   1   3    3.07    0.67
  -6   1   3    2.42    0.82
   6  -1  -3    3.38    0.40
   6  -1  -2    9.39    1.17
  -6   1   2   10.26    1.33
   6  -1  -2    8.99    1.03
  -6   1   2   11.38    1.02
   6  -1  -1    1.43    0.37
  -6   1   1    0.41    0.41
  -6   1   1    1.22    0.13
   6  -1  -1    1.08    0.17
   6  -1  -1    1.23    0.23
  -6   1   1    0.91    0.59
  -6   1   1    1.18    0.20
   6  -1   0    0.13    0.24
   6  -1   0    0.30    0.17
  -6   1   0    0.47    0.48
  -6   1   0    0.36    0.13
   6  -1   0    0.36    0.15
  -6   1   0    0.34    0.39
   6  -1   1   -0.13    0.25
   6  -1   1   -0.10    0.20
   6  -1   1    0.18    0.15
  -6   1  -1   -0.09    0.42
  -6   1  -1    0.20    0.14
  -6   1  -1    0.07    0.35
   6  -1   1    0.56    0.45
  -6   1  -2    1.93    0.60
   6  -1   2    2.14    0.35
  -6   1  -2    2.53    0.33
   6  -1   2    2.35    0.38
   6  -1   2    1.23    0.40
   6  -1   2    2.02    0.64
   6  -1   3    9.54    0.97
  -6   1  -3    7.33    1.20
   6  -1   3    5.73    1.20
  -6   1  -3    9.66    1.11
   6  -1   3    8.35    0.84
   6  -1   3    9.00    1.04
  -6   1  -4    0.23    0.38
   6  -1   4    0.20    0.22
  -6   1  -4    0.33    0.35
   6  -1   4    0.55    0.13
   6  -1   4    0.30    0.27
   6  -1   4    0.33    0.49
  -6   1  -5    8.79    1.34
   6  -1   5   10.22    1.20
   6  -1   5   10.22    1.10
  -6   1  -5   11.25    1.39
   6  -1   5    7.21    1.49
   6  -1   5   11.48    1.04
   6  -1   6   10.66    1.36
   6  -1   6   10.21    1.23
  -6   1  -6   13.31    1.17
   6  -1   6   12.77    1.20
  -6   1  -7    0.81    0.50
   6  -1   7    0.80    0.39
  -6   1  -7    0.86    0.50
   6  -1   7    1.28    0.28
   6  -1   7    1.33    0.23
   6  -1   7    0.57    0.67
  -6   1  -7    1.34    0.19
  -6   1  -8    0.18    0.44
  -6   1  -8    0.71    0.51
   6  -1   8    0.31    0.75
  -6   1  -8    0.51    0.13
  -6   1  -9    2.22    0.71
   6  -1   9    2.02    0.56
   6  -1   9    2.26    0.39
   6  -1   9    0.66    0.83
  -6   1 -10    1.63    0.66
   6  -1  10    1.28    0.51
   6  -1  10    1.93    0.37
   6  -1  10    0.35    0.91
  -6   1 -11    0.41    0.62
   6  -1  11    0.25    0.29
   6  -1  11    0.36    0.93
  -6   0   9    1.44    0.88
   6   0  -9    1.73    0.35
  -6   0   8    1.00    0.88
   6   0  -8    1.48    0.33
   6   0  -8    3.04    0.70
  -6   0   8    1.55    0.38
   6   0  -7    1.21    0.49
  -6   0   7   -0.28    0.66
   6   0  -7    0.42    0.23
  -6   0   7    0.49    0.51
  -6   0   7    0.71    0.28
   6   0  -6    0.28    0.40
  -6   0   6    0.54    0.50
  -6   0   6   -0.13    0.67
   6   0  -6    0.74    0.23
   6   0  -5    1.63    0.45
  -6   0   5    1.30    0.47
  -6   0   5    0.76    0.67
   6   0  -5    0.82    0.22
   6   0  -4    9.08    1.03
  -6   0   4    7.38    1.08
  -6   0   4    5.05    1.21
   6   0  -4    7.59    0.81
   6   0  -3    4.01    0.63
  -6   0   3    3.75    0.72
  -6   0   3    2.73    0.87
   6   0  -3    4.10    0.48
   6   0  -2  122.94   10.97
  -6   0   2  113.36   11.32
  -6   0   2  118.78   11.07
   6   0  -2  113.52   10.78
   6   0  -1    5.91    0.85
  -6   0   1    7.29    0.98
   6   0  -1    7.08    0.67
   6   0  -1    6.17    0.72
   6   0   0    1.56    0.36
   6   0   0    1.24    0.36
  -6   0   0    1.80    0.49
  -6   0   0    1.05    0.56
   6   0   0    1.82    0.28
  -6   0   0    1.42    0.24
   6   0   0    1.57    0.23
   6   0   1    2.96    0.47
  -6   0  -1    2.97    0.62
  -6   0  -1    2.54    0.72
   6   0   1    2.64    0.39
  -6   0  -1    3.19    0.37
   6   0   1    2.88    0.37
   6   0   2    1.10    0.29
  -6   0  -2    0.78    0.48
  -6   0  -2    1.07    0.23
   6   0   2    1.45    0.25
   6   0   2    1.21    0.29
  -6   0  -2    1.53    0.46
  -6   0  -3   11.61    1.75
   6   0   3   13.78    1.52
   6   0   3   14.27    1.48
   6   0   3   14.12    1.38
  -6   0  -3   17.95    1.62
   6   0   3   15.51    1.53
  -6   0  -4    0.88    0.48
   6   0   4    1.55    0.31
  -6   0  -4    1.58    0.44
   6   0   4    1.40    0.19
   6   0   5    2.45    0.47
  -6   0  -5    2.82    0.71
  -6   0  -5    4.35    0.68
   6   0   5    1.91    0.76
   6   0   5    3.59    0.36
   6   0   6    2.97    0.50
  -6   0  -6    1.69    0.62
  -6   0  -6    2.71    0.61
   6   0   6    2.48    0.82
   6   0   6    2.97    0.33
   6   0   7    5.14    0.79
  -6   0  -7    3.53    0.88
  -6   0  -7    5.16    0.94
  -6   0  -7    6.61    0.59
   6   0   7    2.84    1.04
   6   0   7    5.94    0.62
  -6   0  -8    4.44    0.95
  -6   0  -8    6.50    1.02
  -6   0  -8    5.88    0.56
   6   0   8    4.00    1.15
  -6   0  -9    0.33    0.45
   6   0   9    0.46    0.38
   6   0   9    0.64    0.26
   6   0   9    0.83    0.81
  -6   0 -10    1.40    0.62
   6   0  10    0.82    0.46
   6   0  10    1.69    0.34
   6   0  10    1.60    1.04
  -6   0 -11    3.58    0.85
   6   0  11    3.24    0.75
   6   0  11    3.48    0.51
   6   0  11    3.54    1.31
   6   1  -8    7.74    0.86
   6   1  -8    9.03    1.18
  -6  -1   7    0.80    0.68
   6   1  -7    1.68    0.34
   6   1  -7    1.48    0.54
  -6  -1   7    1.95    0.37
   6   1  -6    8.43    1.16
  -6  -1   6    5.43    1.35
   6   1  -6    7.88    0.95
  -6  -1   6    9.53    1.21
  -6  -1   6   11.53    1.00
   6   1  -5    2.79    0.56
  -6  -1   5    1.74    0.78
   6   1  -5    2.66    0.38
  -6  -1   5    2.19    0.59
  -6  -1   5    2.85    0.40
   6   1  -4   10.27    1.14
  -6  -1   4    8.46    1.14
  -6  -1   4    6.42    1.38
   6   1  -4    8.58    0.92
   6   1  -3    3.66    0.61
  -6  -1   3    3.17    0.64
  -6  -1   3    2.38    0.81
   6   1  -3    3.84    0.45
   6   1  -2    0.83    0.34
  -6  -1   2    0.77    0.35
  -6  -1   2    0.86    0.67
   6   1  -2    0.83    0.20
   6   1  -1   13.71    1.70
  -6  -1   1   16.20    1.80
  -6  -1   1   16.10    1.48
   6   1  -1   15.06    1.57
   6   1   0    0.25    0.19
   6   1   0    0.37    0.24
   6   1   0    0.04    0.13
  -6  -1   0    0.34    0.32
  -6  -1  -1    3.46    0.84
   6   1   1    4.37    0.53
   6   1   1    4.52    0.54
   6   1   2    2.43    0.37
  -6  -1  -2    2.34    0.69
   6   1   2    2.53    0.36
   6   1   2    1.63    0.62
  -6  -1  -3    6.56    1.18
  -6  -1  -3    9.56    0.99
  -6  -1  -4   12.42    1.78
   6   1   4   10.14    1.70
   6   1   4   15.18    1.40
  -6  -1  -4   16.37    1.60
   6   1   5    0.97    0.51
  -6  -1  -5    1.18    0.51
  -6  -1  -5    1.04    0.38
   6   1   5    1.78    0.20
   6   1   6    0.07    0.42
   6   1   6    0.52    0.27
  -6  -1  -6    0.67    0.51
  -6  -1  -6    0.54    0.37
   6   1   6    0.27    0.10
   6   1   7    1.27    0.58
   6   1   7    1.77    0.45
  -6  -1  -7    2.10    0.70
  -6  -1  -7    1.94    0.58
  -6  -1  -7    3.57    0.30
   6   1   7    1.56    0.79
   6   1   7    2.27    0.32
  -6  -1  -8   12.79    1.55
  -6  -1  -8   13.69    1.54
   6   1   8   11.35    1.13
   6   1   8   10.45    1.78
  -6  -1  -9    0.55    0.59
  -6  -1  -9    0.25    0.44
   6   1   9    0.13    0.43
   6   1   9    0.31    0.33
   6   1   9    0.60    0.25
   6   1   9    0.50    0.74
  -6  -1 -10    4.92    0.94
   6   1  10    4.21    0.76
   6   1  10    4.66    0.59
   6   1  10    3.57    1.19
  -6  -1 -11   34.90    3.55
   6   1  11   26.64    3.32
   6   1  11   35.14    3.15
   6   1  11   27.91    3.96
   6   1  12    7.39    0.83
   6   1  12    3.52    1.47
  -6  -2   8    2.69    1.01
   6   2  -8    6.39    0.96
  -6  -2   7    2.95    1.00
   6   2  -7    3.07    0.48
   6   2  -7    3.39    0.72
  -6  -2   7    3.29    0.49
   6   2  -6    3.21    0.51
   6   2  -6    4.08    0.74
  -6  -2   6    5.14    0.55
   6   2  -5   -0.11    0.36
  -6  -2   5    0.12    0.61
   6   2  -5    0.08    0.21
  -6  -2   5    0.05    0.33
  -6  -2   5   -0.02    0.21
   6   2  -4    4.81    0.77
  -6  -2   4    2.84    0.92
   6   2  -4    5.40    0.61
  -6  -2   4    5.78    0.79
  -6  -2   4    5.33    0.61
   6   2  -3    9.43    1.15
  -6  -2   3    9.68    1.15
  -6  -2   3    6.15    1.33
   6   2  -3    9.70    0.90
   6   2  -3    8.68    0.97
   6   2  -2    2.33    0.45
  -6  -2   2    1.55    0.42
   6   2  -2    1.83    0.29
   6   2  -2    1.80    0.24
   6   2  -1    2.11    0.46
  -6  -2   1    1.91    0.49
  -6  -2   1    2.56    0.24
  -6  -2   1    1.89    0.66
   6   2  -1    1.81    0.32
   6   2   0    0.86    0.21
   6   2   0    1.12    0.36
   6   2   0    0.92    0.21
  -6  -2   0    0.67    0.37
  -6  -2   0    0.97    0.13
  -6  -2  -1    7.31    1.27
  -6  -2  -1    9.40    1.15
   6   2   1    9.47    0.88
  -6  -2  -2    1.42    0.58
   6   2   2    0.77    0.47
  -6  -2  -3   19.73    2.15
   6   2   3   14.54    2.05
  -6  -2  -4  231.33   25.81
   6   2   4  274.39   25.52
   6   2   4  271.59   25.36
  -6  -2  -4  310.51   25.51
  -6  -2  -5    4.96    1.06
  -6  -2  -5    7.80    0.88
   6   2   5    5.69    1.19
   6   2   5    7.20    0.69
  -6  -2  -6    4.43    0.87
  -6  -2  -6    3.39    0.57
   6   2   6    2.59    0.88
   6   2   6    3.34    0.35
  -6  -2  -7    1.03    0.62
  -6  -2  -7    1.59    0.43
  -6  -2  -7    0.93    0.47
  -6  -2  -8   19.59    2.33
  -6  -2  -8   18.56    2.22
  -6  -2  -9    2.91    0.85
  -6  -2  -9    3.55    0.80
   6   2   9    3.24    0.61
   6   2   9    3.52    0.47
   6   2   9    2.32    0.96
  -6  -2 -10    0.59    0.51
  -6  -2 -10    1.14    0.61
   6   2  10    0.81    0.39
   6   2  10    0.44    0.25
   6   2  10    1.61    1.02
   6   2  11    2.17    0.63
   6   2  11    3.35    0.48
   6   2  11    1.52    1.03
  -6  -2 -12    1.16    0.66
   6   2  12    1.19    0.51
   6   2  12    1.40    0.37
   6   2  12    0.20    1.02
  -6  -3   7    2.22    0.89
   6   3  -7    1.92    0.40
   6   3  -7    3.30    0.68
  -6  -3   6    0.99    0.68
   6   3  -6    0.44    0.26
   6   3  -6    1.15    0.51
  -6  -3   6    1.25    0.32
  -6  -3   5    1.34    0.77
   6   3  -5    1.58    0.34
   6   3  -5    2.08    0.53
  -6  -3   5    1.82    0.34
   6   3  -4    4.04    0.67
  -6  -3   4    3.57    0.58
  -6  -3   4    2.73    0.92
   6   3  -4    4.00    0.50
   6   3  -3   84.79    7.69
  -6  -3   3   62.21    7.92
   6   3  -3   83.31    7.47
   6   3  -3   79.24    7.50
  -6  -3   3   78.43    7.60
   6   3  -2   19.37    1.95
  -6  -3   2   14.63    2.20
   6   3  -2   16.22    1.78
   6   3  -2   18.16    1.76
  -6  -3   2   18.26    1.69
  -6  -3   2   17.47    1.91
  -6  -3   2   19.54    1.78
   6   3  -1    1.89    0.45
  -6  -3   1    1.72    0.43
  -6  -3   1    2.40    0.24
  -6  -3   1    2.54    0.32
  -6  -3   0    6.84    1.29
  -6  -3   0    8.36    1.07
  -6  -3   0    8.40    0.83
  -6  -3   0    9.03    0.89
   6   3   0    6.33    1.21
   6   3   0    9.98    0.88
  -6  -3  -1    4.68    0.49
   6   3   1    2.83    0.83
   6   3   2    5.56    0.66
  -6  -3  -2    5.04    1.02
  -6  -3  -2    6.08    0.60
   6   3   2    4.46    0.97
   6   3   3    0.75    0.24
  -6  -3  -3    1.00    0.56
   6   3   3    0.71    0.47
  -6  -3  -3    0.93    0.15
   6   3   4    5.31    0.76
  -6  -3  -4    4.78    1.07
  -6  -3  -4    7.35    0.65
  -6  -3  -4    5.94    0.67
   6   3   5    5.99    0.76
  -6  -3  -5    3.70    0.95
  -6  -3  -5    6.31    0.56
  -6  -3  -5    5.33    0.69
   6   3   5    4.97    1.08
   6   3   5    5.53    0.56
  -6  -3  -6    0.10    0.55
  -6  -3  -6    0.10    0.23
   6   3   6    0.01    0.06
  -6  -3  -6    0.07    0.05
  -6  -3  -7   15.33    1.93
  -6  -3  -7   15.79    1.57
  -6  -3  -8    1.46    0.73
  -6  -3  -8    2.11    0.58
  -6  -3  -8    1.95    0.49
   6   3   8    1.07    0.78
  -6  -3  -9    5.20    1.08
  -6  -3  -9    6.64    1.05
  -6  -3 -10    3.30    0.84
  -6  -3 -10    2.43    0.74
   6   3  10    2.67    0.44
  -6  -3 -11    0.09    0.53
   6   3  11   -0.11    0.37
   6   3  11   -0.02    0.26
   6   3  11    0.38    0.97
  -6  -3 -12    0.45    0.57
   6   3  12   -0.19    0.40
   6   3  12   -0.02    0.28
   6   3  12    0.20    1.06
   6   3  13    1.14    0.34
   6   4  -7    4.22    0.82
   6   4  -6    1.46    0.36
  -6  -4   6    1.20    0.76
   6   4  -6    1.44    0.55
  -6  -4   6    1.42    0.35
  -6  -4   5    2.29    0.93
   6   4  -5    3.26    0.48
   6   4  -5    3.66    0.67
  -6  -4   5    3.54    0.50
   6   4  -4    1.68    0.49
  -6  -4   4    0.48    0.67
   6   4  -3    6.38    0.82
  -6  -4   3    3.87    1.04
   6   4  -3    5.69    0.64
  -6  -4   3    4.93    0.65
   6   4  -2    3.74    0.66
  -6  -4   2    2.99    0.90
   6   4  -2    4.65    0.51
  -6  -4   2    4.01    0.41
  -6  -4   2    3.71    0.56
  -6  -4   2    4.12    0.49
   6   4  -1    3.97    0.60
  -6  -4   1    1.91    0.82
   6   4  -1    3.72    0.47
  -6  -4   1    2.63    0.53
  -6  -4   1    3.70    0.37
   6   4  -1    3.12    0.49
  -6  -4   1    3.98    0.44
  -6  -4   0   16.13    2.37
   6   4   0   18.36    1.95
  -6  -4   0   20.15    2.09
  -6  -4   0   21.21    1.87
  -6  -4   0   22.01    1.92
   6   4   0   17.40    1.90
   6   4   1    0.12    0.16
  -6  -4  -1    0.33    0.47
  -6  -4  -1    0.26    0.11
   6   4   1    0.29    0.46
  -6  -4  -1    0.34    0.14
   6   4   2    1.43    0.27
  -6  -4  -2    1.63    0.22
   6   4   3    0.77    0.24
  -6  -4  -3    0.11    0.46
   6   4   3    0.82    0.58
  -6  -4  -3    1.27    0.17
   6   4   4    0.72    0.28
  -6  -4  -4    0.43    0.54
  -6  -4  -4    1.05    0.15
  -6  -4  -5    0.44    0.59
   6   4   5   -0.10    0.24
  -6  -4  -5    0.10    0.15
   6   4   5    0.11    0.06
  -6  -4  -5    0.30    0.09
   6   4   5    0.12    0.51
  -6  -4  -6    1.33    0.71
  -6  -4  -6    0.84    0.27
  -6  -4  -6    0.91    0.12
   6   4   6    0.51    0.59
   6   4   6    1.17    0.12
  -6  -4  -7    1.24    0.69
  -6  -4  -7    1.76    0.52
  -6  -4  -7    1.64    0.38
   6   4   7    1.12    0.68
  -6  -4  -8    3.78    1.02
   6   4   8    3.94    1.12
  -6  -4  -8    5.04    0.70
  -6  -4  -9   14.49    2.00
   6   4   9   15.26    2.30
  -6  -4 -10   50.47    5.02
   6   4  10   42.30    5.25
  -6  -4 -11    2.77    0.77
  -6  -4 -11    3.67    0.91
   6   4  11    3.77    0.52
   6   4  11    3.97    1.32
  -6  -4 -12    1.34    0.64
   6   4  12    1.42    0.35
   6   4  12    0.36    0.43
   6   4  13    0.19    0.30
   6   5  -6   -0.06    0.43
   6   5  -5    2.23    0.55
  -6  -5   5    1.24    0.36
  -6  -5   4    2.04    0.79
   6   5  -4    2.52    0.57
   6   5  -3    2.34    0.39
  -6  -5   3    1.44    0.72
   6   5  -3    1.99    0.56
  -6  -5   3    3.18    0.41
   6   5  -2    1.27    0.43
   6   5  -2    2.18    0.36
   6   5  -2    2.42    0.38
  -6  -5   2    0.83    0.61
  -6  -5   2    2.39    0.26
  -6  -5   2    1.81    0.32
  -6  -5   2    1.99    0.33
  -6  -5   2    2.16    0.34
   6   5  -1    2.14    0.35
  -6  -5   1    1.18    0.74
  -6  -5   1    1.73    0.39
  -6  -5   1    2.32    0.42
  -6  -5   1    2.12    0.25
  -6  -5   1    2.58    0.33
   6   5  -1    0.88    0.59
   6   5   0    2.58    0.38
   6   5   0    2.69    0.42
  -6  -5   0    2.54    0.49
  -6  -5   0    3.62    0.34
  -6  -5   0    3.17    0.39
   6   5   0    2.49    0.71
   6   5   1    9.25    0.92
  -6  -5  -1    5.79    1.27
  -6  -5  -1    8.38    0.83
  -6  -5  -1    8.95    0.87
   6   5   1    6.70    1.22
   6   5   2    3.17    0.41
  -6  -5  -2    2.31    0.80
  -6  -5  -2    2.73    0.33
   6   5   2    1.96    0.70
  -6  -5  -2    2.99    0.35
   6   5   3   13.22    1.30
  -6  -5  -3   11.09    1.49
  -6  -5  -3   12.71    1.21
   6   5   3    9.86    1.61
   6   5   4    8.08    1.00
  -6  -5  -4    5.84    1.34
   6   5   4    5.69    1.29
  -6  -5  -5    2.84    0.85
   6   5   5    2.13    0.44
   6   5   5    2.56    0.26
  -6  -5  -5    3.19    0.30
  -6  -5  -6    0.12    0.55
   6   5   6    0.30    0.28
   6   5   6   -0.13    0.55
  -6  -5  -6    0.52    0.21
  -6  -5  -7    4.32    1.02
  -6  -5  -7    3.28    0.74
   6   5   7    2.64    0.98
  -6  -5  -7    4.47    0.57
  -6  -5  -8    1.74    0.81
  -6  -5  -8    0.84    0.50
   6   5   8    0.45    0.71
  -6  -5  -9    0.08    0.43
  -6  -5  -9   -0.12    0.76
   6   5   9    1.30    0.80
  -6  -5 -10    0.82    0.67
  -6  -5 -10    0.41    0.47
   6   5  10    1.23    0.86
  -6  -5 -11    1.11    0.69
   6   5  11    1.72    0.37
   6   5  11    1.50    1.03
  -6  -5 -12    0.32    0.77
   6   5  12    1.01    0.31
   6   5  12    0.59    1.04
   6   5  13    4.83    0.63
  -6  -6   5    1.29    0.75
   6   6  -4   24.42    2.53
   6   6  -4   31.16    2.75
  -6  -6   4   21.76    2.99
  -6  -6   3    2.45    0.93
   6   6  -3    3.25    0.54
   6   6  -3    3.57    0.68
   6   6  -2    0.04    0.31
   6   6  -2    0.19    0.22
  -6  -6   2    0.25    0.60
  -6  -6   2    0.23    0.13
  -6  -6   2    0.55    0.26
   6   6  -1    0.61    0.25
  -6  -6   1    0.49    0.59
  -6  -6   1    0.96    0.17
  -6  -6   1    0.51    0.18
  -6  -6   1    0.84    0.20
  -6  -6   1    1.27    0.28
   6   6  -1    0.68    0.57
   6   6   0    0.07    0.19
  -6  -6   0    0.49    0.68
  -6  -6   0   -0.02    0.12
  -6  -6   0   -0.06    0.23
  -6  -6   0    0.39    0.26
   6   6   0   -0.10    0.47
  -6  -6   0    0.36    0.20
   6   6   1    7.83    0.86
  -6  -6  -1    5.30    1.28
  -6  -6  -1    6.34    0.94
  -6  -6  -1    7.74    0.77
   6   6   1    6.13    1.19
  -6  -6  -1    9.75    0.86
   6   6   2    4.09    0.54
  -6  -6  -2    4.06    0.45
  -6  -6  -2    3.06    0.65
   6   6   2    2.65    0.81
   6   6   3    2.63    0.39
  -6  -6  -3    1.80    0.53
  -6  -6  -3    2.22    0.31
  -6  -6  -3    3.05    0.36
   6   6   4    1.10    0.30
  -6  -6  -4    1.01    0.68
  -6  -6  -4    1.46    0.21
   6   6   4    0.87    0.64
   6   6   5    0.25    0.25
  -6  -6  -5    0.26    0.68
   6   6   5    0.32    0.06
  -6  -6  -5    0.69    0.13
   6   6   5    1.06    0.65
   6   6   6   10.81    1.16
  -6  -6  -6   11.27    1.70
   6   6   6    7.24    1.47
  -6  -6  -7    0.27    0.67
  -6  -6  -7    0.42    0.40
   6   6   7    0.28    0.69
  -6  -6  -8    2.94    0.95
  -6  -6  -8    3.02    0.70
   6   6   8    2.09    0.93
  -6  -6  -9    8.08    1.39
  -6  -6  -9    6.28    1.04
   6   6   9    5.48    1.35
  -6  -6 -10   -0.13    0.65
  -6  -6 -10    0.32    0.47
   6   6  10    1.22    0.87
  -6  -6 -11    1.35    0.59
  -6  -6 -11    2.08    0.85
   6   6  11   -0.37    0.87
  -6  -6 -12   -0.24    0.69
  -6  -6 -12    1.74    0.67
   6   6  12    0.37    0.28
   6   6  12    0.20    1.04
   6   6  13    2.01    0.39
   6   6  14    1.98    0.40
  -6  -7   4    0.85    0.75
   6   7  -3    8.24    0.96
  -6  -7   3   10.06    1.03
   6   7  -2    1.46    0.32
  -6  -7   2   -0.13    0.63
  -6  -7   2    1.63    0.39
   6   7  -2    0.50    0.58
   6   7  -1    1.15    0.29
  -6  -7   1    0.13    0.62
  -6  -7   1    0.85    0.18
   6   7  -1    1.25    0.62
  -6  -7   1    1.05    0.33
   6   7   0    1.04    0.28
  -6  -7   0    0.91    0.71
  -6  -7   0    1.08    0.19
  -6  -7   0    0.86    0.26
   6   7   0    0.47    0.54
  -6  -7   0    1.54    0.32
   6   7   1    2.84    0.47
  -6  -7  -1    1.71    0.89
  -6  -7  -1    3.77    0.39
  -6  -7  -1    3.00    0.54
   6   7   1    3.23    0.82
  -6  -7  -1    4.04    0.48
  -6  -7  -2   14.44    2.47
   6   7   2   19.31    2.04
  -6  -7  -2   16.87    2.15
  -6  -7  -2   22.12    1.97
  -6  -7  -2   23.18    2.01
   6   7   2   16.19    2.38
   6   7   3    3.77    0.52
  -6  -7  -3    3.49    1.00
  -6  -7  -3    3.49    0.68
  -6  -7  -3    4.23    0.44
   6   7   3    3.61    0.41
  -6  -7  -3    4.61    0.46
   6   7   3    2.35    0.78
   6   7   4    0.21    0.22
  -6  -7  -4    0.07    0.16
   6   7   4    0.25    0.08
  -6  -7  -4    0.53    0.15
   6   7   4    0.22    0.51
   6   7   5    3.23    0.47
  -6  -7  -5    2.36    0.89
  -6  -7  -5    3.82    0.31
   6   7   5    3.14    0.93
   6   7   5    2.24    0.24
   6   7   6   13.62    1.38
  -6  -7  -6   12.99    1.91
  -6  -7  -6   13.02    1.52
   6   7   6   10.30    1.78
  -6  -7  -6   11.77    1.28
   6   7   7    1.80    0.44
  -6  -7  -7    2.57    0.91
  -6  -7  -7    1.71    0.56
   6   7   7    2.17    0.85
  -6  -7  -8    4.14    1.07
  -6  -7  -8    3.56    0.76
   6   7   8    2.80    1.05
  -6  -7  -9   56.44    5.55
  -6  -7  -9   51.88    5.10
   6   7   9   42.32    5.44
  -6  -7 -10    2.74    0.70
  -6  -7 -10    0.95    0.96
  -6  -7 -11    2.81    0.74
  -6  -7 -11    0.53    0.96
   6   7  11    3.11    1.21
  -6  -7 -12    0.13    0.78
  -6  -7 -12    0.09    0.51
   6   7  12    0.77    0.94
  -6  -7 -13    0.39    1.13
   6   7  13    1.90    0.40
  -6  -8   3    0.25    0.67
   6   8  -2    1.16    0.32
  -6  -8   2    0.13    0.73
  -6  -8   2    1.06    0.32
   6   8  -1    1.98    0.42
  -6  -8   1    2.69    0.96
  -6  -8   1    3.34    0.36
  -6  -8   1    2.61    0.43
   6   8   0    0.32    0.25
  -6  -8   0   -0.14    0.67
  -6  -8   0    0.18    0.17
   6   8   0    0.46    0.51
  -6  -8   0    0.21    0.23
   6   8   1    3.16    0.48
  -6  -8  -1    3.06    0.98
  -6  -8  -1    3.41    0.40
   6   8   1    3.05    0.82
  -6  -8  -1    3.62    0.44
  -6  -8  -2   91.82   11.98
   6   8   2  119.18   11.49
  -6  -8  -2  127.64   11.41
  -6  -8  -2  124.60   11.43
   6   8   3   11.78    1.25
  -6  -8  -3   10.34    1.79
  -6  -8  -3    9.15    1.38
  -6  -8  -3   13.27    1.18
  -6  -8  -3   13.19    1.19
   6   8   3   10.59    1.62
   6   8   3   11.21    1.14
   6   8   4    1.22    0.31
  -6  -8  -4    1.61    0.87
  -6  -8  -4    1.44    0.23
   6   8   4    0.90    0.15
  -6  -8  -4    1.55    0.23
   6   8   4    1.17    0.59
   6   8   5    1.06    0.33
  -6  -8  -5    0.96    0.23
   6   8   5    0.89    0.11
  -6  -8  -5    1.15    0.17
   6   8   5    1.48    0.76
   6   8   6    5.70    0.78
  -6  -8  -6    6.15    1.35
  -6  -8  -6    6.70    0.94
   6   8   6    5.54    1.19
  -6  -8  -6    5.96    0.72
   6   8   7    0.20    0.31
  -6  -8  -7    0.07    0.28
  -6  -8  -7    1.21    0.86
  -6  -8  -7    0.13    0.38
   6   8   7    0.93    0.79
  -6  -8  -8    0.75    0.72
  -6  -8  -8    0.99    0.49
   6   8   8    0.29    0.73
  -6  -8  -9    2.36    0.93
  -6  -8  -9    2.49    0.64
  -6  -8 -10   -0.08    0.48
  -6  -8 -10    0.43    0.83
   6   8  10    0.17    0.89
  -6  -8 -11    0.56    0.52
  -6  -8 -11    0.14    0.79
   6   8  11    0.18    0.95
  -6  -8 -12    0.14    0.77
  -6  -8 -12    0.41    0.53
  -6  -8 -13    0.28    1.00
   6   8  13    0.32    0.31
  -6  -9   2    1.74    0.93
   6   9  -1    0.33    0.27
  -6  -9   1    0.28    0.71
  -6  -9   1    0.45    0.20
  -6  -9   1    0.42    0.26
   6   9   0    1.37    0.35
  -6  -9   0    0.29    0.74
  -6  -9   0    1.25    0.24
  -6  -9   0    1.06    0.29
   6   9   1    2.58    0.43
  -6  -9  -1    2.58    0.34
  -6  -9  -1    2.47    0.38
   6   9   2    0.44    0.28
  -6  -9  -2    0.15    0.72
  -6  -9  -2    0.62    0.19
  -6  -9  -2    0.66    0.23
   6   9   3    7.81    0.86
  -6  -9  -3    5.95    1.42
  -6  -9  -3    7.91    0.78
  -6  -9  -3    7.25    0.79
   6   9   3    5.07    1.14
  -6  -9  -4    3.24    1.07
   6   9   4    3.50    0.51
  -6  -9  -4    3.57    0.43
   6   9   4    3.89    0.96
  -6  -9  -5    2.61    0.65
  -6  -9  -5    3.75    1.15
   6   9   5    4.97    0.61
  -6  -9  -5    4.18    0.49
   6   9   5    3.86    0.99
  -6  -9  -6    0.89    0.42
   6   9   6    0.70    0.32
  -6  -9  -6    0.53    0.22
   6   9   6    0.36    0.65
   6   9   7    2.37    0.47
  -6  -9  -7    1.43    0.90
  -6  -9  -7    1.85    0.54
  -6  -9  -7    1.78    0.46
   6   9   7    2.07    0.89
  -6  -9  -8    4.00    0.69
  -6  -9  -8    5.77    1.31
  -6  -9  -8    4.83    0.80
  -6  -9  -9    0.69    0.42
  -6  -9  -9    0.15    0.79
   6   9   9   -0.15    0.84
  -6  -9 -10   -0.29    0.47
  -6  -9 -10    0.45    0.77
   6   9  10   -0.16    0.85
  -6  -9 -11    0.15    0.84
  -6  -9 -11    1.37    0.56
   6   9  11   -0.17    1.04
  -6 -10   1    0.14    0.78
  -6 -10   1    0.23    0.21
  -6 -10   0   -0.29    0.85
   6  10   0    0.45    0.30
  -6 -10   0    0.62    0.22
  -6 -10   0    0.23    0.27
  -6 -10  -1    0.91    0.82
   6  10   1    0.03    0.40
  -6 -10  -1    2.53    0.32
  -6 -10  -1    2.09    0.35
  -6 -10  -2   -0.31    0.81
   6  10   2    0.05    0.30
  -6 -10  -2    0.04    0.19
  -6 -10  -2    0.07    0.21
  -6 -10  -3   -0.16    0.81
  -6 -10  -3    0.76    0.22
   6  10   3    0.43    0.26
  -6 -10  -4   -0.32    0.82
  -6 -10  -4    0.19    0.31
  -6 -10  -4    0.07    0.19
   6  10   4    0.12    0.26
  -6 -10  -5    0.72    0.38
  -6 -10  -5    1.79    0.93
   6  10   5    0.65    0.30
  -6 -10  -5    1.16    0.25
  -6 -10  -6    2.78    1.04
  -6 -10  -6    1.82    0.51
   6  10   6    1.86    0.46
  -6 -10  -6    2.33    0.34
   6  10   6    2.27    0.87
  -6 -10  -7    5.03    0.89
   6  10   7    6.56    0.82
  -6 -10  -7    6.09    0.68
   6  10   7    4.84    1.18
  -6 -10  -8   35.89    4.21
  -6 -10  -8   31.85    3.60
  -6 -10  -8   41.08    3.40
  -6 -10  -9    3.13    0.66
  -6 -10  -9    2.74    0.99
  -6 -10 -10    1.24    0.51
  -6 -10 -10    0.79    0.85
   6  10  10    0.16    0.97
  -6 -10 -11    0.07    0.46
   6  10  11   -0.17    0.93
  -6 -11   0    2.47    1.00
  -6 -11   0    2.21    0.35
  -6 -11  -1    0.76    0.75
  -6 -11  -1    1.09    0.27
   6  11   1    0.58    0.36
  -6 -11  -2    0.63    0.85
  -6 -11  -2    0.71    0.25
   6  11   2    0.23    0.32
  -6 -11  -3   -0.16    0.85
  -6 -11  -3    0.58    0.24
   6  11   3    0.54    0.32
  -6 -11  -4    0.98    0.93
  -6 -11  -4    0.15    0.20
   6  11   4    0.15    0.28
  -6 -11  -5    1.49    1.00
  -6 -11  -5    2.01    0.35
   6  11   5    2.27    0.45
  -6 -11  -6    0.99    0.95
  -6 -11  -6    0.34    0.23
   6  11   6    0.46    0.34
  -6 -11  -7    0.97    0.40
  -6 -11  -7    1.12    0.28
   6  11   7    0.85    0.39
  -6 -11  -8    0.84    0.44
  -6 -11  -8    0.33    0.89
  -6 -11  -8    1.49    0.32
  -6 -11  -9    1.56    0.51
  -6 -11 -10    0.19    0.45
   6  11  10   -0.15    0.95
  -6 -11 -11    2.30    0.64
   6  11  11    0.16    1.09
   6  12   3    0.39    0.33
   6  12   4    4.38    0.63
   7 -10  -6    5.59    0.92
   7  -9  -6    9.16    1.23
   7  -9  -5    0.12    0.41
   7  -9  -4    1.67    0.52
  -7   9   3    3.23    1.01
   7  -9  -3    3.76    0.99
   7  -9  -3    3.35    0.46
   7  -9  -2   -0.13    0.83
  -7   9   2    2.13    0.98
   7  -9  -2    1.64    0.33
   7  -9  -2    0.78    0.58
   7  -9  -1    0.13    0.81
  -7   9   1    1.32    0.80
   7  -9  -1    0.78    0.27
   7  -9  -1    0.54    0.65
  -7   9   0    7.10    1.36
   7  -9   0    5.27    0.62
   7  -9   1    0.12    0.96
  -7   9  -1    4.70    1.10
   7  -9   2    0.52    0.23
  -7   9  -2    0.26    0.79
   7  -9   3    7.11    0.79
  -7   9  -3    7.27    1.40
  -7   9  -4   46.86    5.09
   7  -8  -6    3.21    0.69
   7  -8  -5    0.13    0.87
   7  -8  -5    2.71    0.61
   7  -8  -4    2.39    0.58
  -7   8   4    1.82    0.85
   7  -8  -4    2.32    0.37
   7  -8  -3   30.78    3.06
   7  -8  -3   33.54    2.87
  -7   8   3   30.06    3.50
  -7   8   2    4.86    1.18
   7  -8  -2    4.94    0.56
   7  -8  -1    0.12    0.78
  -7   8   1    0.89    0.72
   7  -8  -1    0.02    0.21
   7  -8  -1   -0.11    0.62
   7  -8   0    3.25    0.38
  -7   8   0    3.91    1.09
   7  -8   0    3.04    0.85
   7  -8   0    2.82    0.43
   7  -8   1    2.72    0.36
  -7   8  -1    1.62    0.82
   7  -8   1    2.88    0.41
   7  -8   1    1.72    0.75
   7  -8   2    3.50    0.42
  -7   8  -2    3.70    1.00
   7  -8   2    1.82    0.79
   7  -8   3   -0.11    0.63
  -7   8  -3    0.61    0.81
   7  -8   3    0.83    0.27
   7  -8   3    1.22    0.30
   7  -8   4    3.53    0.49
  -7   8  -4    3.89    1.11
  -7   8  -5   -0.24    0.76
   7  -7  -7    5.82    0.95
   7  -7  -6   -0.12    0.76
   7  -7  -6    1.69    0.54
  -7   7   6    1.72    0.88
   7  -7  -5    0.23    0.74
   7  -7  -5    0.71    0.43
  -7   7   5    1.01    0.70
   7  -7  -4   -0.11    0.60
   7  -7  -4    0.28    0.39
   7  -7  -3    2.33    0.55
   7  -7  -3    0.11    0.78
  -7   7   3    0.37    0.68
   7  -7  -3    1.86    0.32
   7  -7  -2   -0.11    0.61
  -7   7   2    0.12    0.63
   7  -7  -2    1.15    0.26
   7  -7  -1    1.08    0.70
   7  -7  -1    1.47    0.24
  -7   7   1    2.54    0.85
   7  -7  -1    1.72    0.30
   7  -7  -1    0.67    0.59
   7  -7   0    8.85    1.52
   7  -7   0   11.61    1.07
  -7   7   0   11.55    1.74
   7  -7   0    6.63    1.46
   7  -7   0   10.57    1.11
   7  -7   1   -0.21    0.56
   7  -7   1   -0.08    0.18
  -7   7  -1    0.12    0.69
   7  -7   1    0.33    0.50
   7  -7   2    1.72    0.74
  -7   7  -2    2.80    0.92
   7  -7   2    2.14    0.33
   7  -7   2    1.23    0.71
  -7   7  -3    4.82    1.05
   7  -7   3    6.77    0.69
  -7   7  -3    7.97    1.34
   7  -7   3    3.65    1.03
   7  -7   3    6.57    0.69
  -7   7  -4    1.06    0.76
   7  -7   4    0.81    0.28
   7  -7   4    1.05    0.28
   7  -7   4   -0.23    0.59
   7  -7   4   -0.10    0.73
   7  -7   5    1.15    0.30
   7  -7   5    1.00    0.31
  -7   7  -6    4.25    1.07
  -7   7  -7    0.71    0.83
   7  -6  -7    1.46    0.55
  -7   6   7   -0.13    0.73
   7  -6  -6   -0.11    0.64
   7  -6  -6    0.31    0.44
  -7   6   6    0.25    0.62
   7  -6  -5   -0.10    0.69
   7  -6  -5    1.49    0.51
  -7   6   5    2.14    0.83
   7  -6  -4    3.26    0.61
  -7   6   4    2.21    0.84
   7  -6  -3    0.10    0.53
   7  -6  -3    0.16    0.34
   7  -6  -2    0.31    0.35
   7  -6  -2    0.10    0.52
  -7   6   2    0.69    0.65
   7  -6  -2    0.20    0.19
   7  -6  -1    1.18    0.65
   7  -6  -1    2.18    0.28
  -7   6   1    2.50    0.81
   7  -6  -1    1.64    0.31
   7  -6   0    1.44    0.65
   7  -6   0    1.95    0.28
  -7   6   0    2.57    0.85
   7  -6   0    0.56    0.61
   7  -6   1    4.14    0.93
   7  -6   1    4.70    0.52
  -7   6  -1    4.76    1.09
   7  -6   1    3.02    0.88
   7  -6   2    0.56    0.56
  -7   6  -2   -0.22    0.73
   7  -6   2    0.06    0.20
   7  -6   2    0.57    0.57
   7  -6   2    0.63    0.23
   7  -6   3    3.95    0.94
  -7   6  -3    2.95    0.88
   7  -6   3    4.89    0.74
   7  -6   3    6.55    0.60
  -7   6  -3    5.17    1.09
   7  -6   3    2.83    0.94
   7  -6   3    4.37    0.56
   7  -6   4    3.62    0.64
  -7   6  -4    4.48    0.99
   7  -6   4    2.56    0.93
   7  -6   4    3.99    0.47
  -7   6  -5    0.40    0.49
   7  -6   5    0.23    0.37
  -7   6  -5   -0.34    0.71
   7  -6   5    0.46    0.26
   7  -6   5    0.08    0.21
   7  -6   5    0.13    0.63
   7  -6   5    0.09    0.53
   7  -6   6    0.19    0.37
  -7   6  -6    0.79    0.72
   7  -6   6    0.24    0.27
   7  -6   6    0.19    0.24
   7  -6   6   -0.26    0.66
  -7   6  -7    1.38    0.82
  -7   6  -8    0.46    0.78
  -7   5   8    0.37    0.78
   7  -5  -7   -0.20    0.40
  -7   5   7    0.49    0.72
   7  -5  -6    5.38    0.84
  -7   5   6    3.38    0.99
   7  -5  -6    4.61    0.54
   7  -5  -5    0.29    0.89
   7  -5  -5    2.25    0.57
   7  -5  -5    2.29    0.34
  -7   5   5    2.23    0.85
   7  -5  -4   37.97    3.90
   7  -5  -4   37.73    3.68
  -7   5   4   43.74    4.29
   7  -5  -4   41.05    4.14
   7  -5  -3    6.00    1.03
   7  -5  -3    5.47    0.81
  -7   5   3    5.99    1.11
   7  -5  -3    4.86    0.62
   7  -5  -2    0.27    0.49
   7  -5  -2    0.57    0.37
   7  -5  -2    0.82    0.17
   7  -5  -1    5.02    0.98
   7  -5  -1    5.91    0.61
   7  -5   0    0.86    0.59
   7  -5   0    1.48    0.23
  -7   5   0    0.94    0.61
   7  -5   0    0.11    0.49
   7  -5   1    7.82    0.77
  -7   5  -1   10.12    1.38
   7  -5   1    8.62    1.22
   7  -5   1    7.22    0.78
   7  -5   2    0.25    0.46
  -7   5  -2    0.30    0.61
   7  -5   2   -0.04    0.25
  -7   5  -2    0.32    0.59
   7  -5   2    0.39    0.20
   7  -5   2    0.18    0.17
   7  -5   2   -0.46    0.61
   7  -5   3    2.38    0.71
  -7   5  -3    3.40    0.84
   7  -5   3    3.54    0.60
   7  -5   3    3.79    0.46
  -7   5  -3    3.67    0.98
   7  -5   3    3.73    0.45
   7  -5   3    2.50    0.87
   7  -5   4    2.32    0.70
   7  -5   4    2.80    0.57
  -7   5  -4    2.25    0.73
   7  -5   4    3.61    0.43
  -7   5  -4    2.54    0.77
   7  -5   4    1.50    0.79
   7  -5   4    2.63    0.38
   7  -5   5    3.50    0.64
   7  -5   5    3.60    0.47
  -7   5  -5    4.62    1.01
   7  -5   5    0.34    0.84
   7  -5   5    1.05    0.78
   7  -5   5    3.66    0.45
  -7   5  -6    0.93    0.57
   7  -5   6    1.15    0.50
  -7   5  -6    1.64    0.79
   7  -5   6    0.99    0.30
   7  -5   6    0.88    0.26
   7  -5   6    0.41    0.69
  -7   5  -7    0.15    0.55
   7  -5   7    0.20    0.41
  -7   5  -7    0.22    0.68
   7  -5   7    0.27    0.27
   7  -5   7   -0.15    0.25
   7  -5   7    0.43    0.76
  -7   5  -8    0.91    0.74
   7  -5   8    0.89    0.81
  -7   5  -9    2.41    0.95
  -7   4   9    3.22    1.00
  -7   4   8    9.86    1.63
   7  -4  -7    1.48    0.57
  -7   4   7    1.92    0.77
   7  -4  -7    1.41    0.29
   7  -4  -6    5.96    0.94
  -7   4   6    6.97    1.22
   7  -4  -6    5.76    0.66
   7  -4  -5    2.30    0.56
  -7   4   5    3.43    0.92
   7  -4  -5    2.09    0.33
   7  -4  -4    1.25    0.60
   7  -4  -4    1.13    0.43
   7  -4  -4    1.32    0.27
  -7   4   4    1.02    0.69
   7  -4  -3   10.42    1.23
   7  -4  -3    9.70    1.02
  -7   4   3    8.27    1.45
   7  -4  -3    9.73    1.38
   7  -4  -2   -0.08    0.45
   7  -4  -2    0.05    0.32
  -7   4   2    0.17    0.13
   7  -4  -2   -0.07    0.22
   7  -4  -2   -0.01    0.14
  -7   4   2    0.61    0.57
   7  -4  -1    8.54    1.24
   7  -4  -1    8.52    1.12
  -7   4   1   13.17    1.07
   7  -4  -1   10.24    1.06
   7  -4  -1   10.03    1.41
   7  -4   0    1.61    0.59
  -7   4   0    2.18    0.28
   7  -4   0    1.70    0.28
  -7   4   0    1.97    0.22
   7  -4   1    5.78    1.00
   7  -4   1    6.82    0.75
   7  -4   1    5.82    0.65
  -7   4  -1    6.14    1.11
   7  -4   1    6.16    0.66
   7  -4   1    3.79    1.03
   7  -4   2    3.02    0.71
  -7   4  -2    1.99    0.74
   7  -4   2    3.24    0.50
   7  -4   2    2.65    0.38
  -7   4  -2    4.23    0.89
   7  -4   2    2.40    0.78
   7  -4   2    2.86    0.37
   7  -4   3    1.24    0.53
   7  -4   3    1.08    0.38
  -7   4  -3    0.64    0.56
  -7   4  -3    1.09    0.70
   7  -4   3    0.69    0.23
   7  -4   3    0.99    0.21
   7  -4   3    0.72    0.58
   7  -4   4    0.07    0.44
  -7   4  -4    0.08    0.49
   7  -4   4    0.10    0.27
  -7   4  -4    0.10    0.52
   7  -4   4    0.39    0.22
   7  -4   4    0.27    0.17
   7  -4   4    0.13    0.57
  -7   4  -5    1.46    0.54
   7  -4   5    0.37    0.33
  -7   4  -5    0.92    0.67
   7  -4   5    0.92    0.27
   7  -4   5    0.98    0.23
   7  -4   5    0.52    0.50
   7  -4   5    0.93    0.69
  -7   4  -6    2.11    0.67
   7  -4   6    2.64    0.62
  -7   4  -6    4.32    0.96
   7  -4   6    3.36    0.45
   7  -4   6    0.99    0.77
   7  -4   6    2.91    0.40
  -7   4  -7    0.16    0.52
   7  -4   7    0.51    0.42
  -7   4  -7   -0.22    0.70
   7  -4   7    0.39    0.28
   7  -4   7    0.31    0.22
   7  -4   7    0.45    0.76
  -7   4  -8    7.21    1.08
   7  -4   8    4.11    0.87
  -7   4  -8    5.58    1.17
   7  -4   8    5.58    0.67
   7  -4   8    2.65    1.16
  -7   4  -9   28.58    2.73
  -7   4  -9   24.87    2.89
   7  -4  10    1.33    1.10
  -7   3   9    0.65    0.66
  -7   3   8    5.78    1.10
   7  -3  -8    4.25    0.56
  -7   3   7    0.52    0.65
   7  -3  -7    0.14    0.20
  -7   3   6    2.23    0.77
   7  -3  -6    2.05    0.34
  -7   3   5    4.34    0.93
   7  -3  -5    3.98    0.50
   7  -3  -4    2.87    0.57
  -7   3   4    1.62    0.67
   7  -3  -4    2.04    0.32
   7  -3  -3    1.21    0.51
   7  -3  -3    1.12    0.43
  -7   3   3    1.14    0.56
   7  -3  -3    1.31    0.25
   7  -3  -2    2.95    0.66
   7  -3  -2    2.44    0.56
  -7   3   2    3.48    0.83
   7  -3  -2    2.92    0.41
   7  -3  -1    4.59    0.85
   7  -3  -1    4.27    0.74
   7  -3  -1    4.07    0.62
  -7   3   1    6.18    1.04
  -7   3   1    5.47    0.50
   7  -3   0    0.67    0.43
  -7   3   0    1.02    0.69
   7  -3   0    0.71    0.21
   7  -3   0    0.43    0.26
  -7   3   0    0.68    0.12
   7  -3   0    0.77    0.56
  -7   3  -1   12.40    1.97
   7  -3   1   16.45    1.63
  -7   3  -1   16.63    1.50
   7  -3   1   15.52    1.55
   7  -3   1   15.33    1.85
   7  -3   1   10.76    1.93
  -7   3  -2  145.43   16.56
   7  -3   2  174.94   16.25
   7  -3   2  182.28   16.15
  -7   3  -2  203.46   16.70
   7  -3   2  170.82   16.43
   7  -3   2  181.06   16.13
   7  -3   3    4.24    0.81
   7  -3   3    5.08    0.70
  -7   3  -3    4.53    0.97
   7  -3   3    4.73    0.59
  -7   3  -3    7.39    1.12
   7  -3   3    5.62    0.57
  -7   3  -4    1.29    0.55
   7  -3   4    0.74    0.34
  -7   3  -4    1.72    0.65
   7  -3   4    1.31    0.26
   7  -3   4    0.96    0.43
   7  -3   4    0.82    0.21
   7  -3   4    0.38    0.59
  -7   3  -5    0.80    0.53
   7  -3   5    1.66    0.45
  -7   3  -5    2.67    0.74
   7  -3   5    2.40    0.36
   7  -3   5    1.73    0.57
   7  -3   5    2.33    0.31
  -7   3  -6   11.08    1.65
   7  -3   6   13.54    1.57
   7  -3   6   13.62    1.40
  -7   3  -6   17.09    1.96
   7  -3   6    9.70    1.89
   7  -3   6   14.57    1.36
  -7   3  -7    6.06    1.02
   7  -3   7    4.24    0.82
   7  -3   7    5.75    0.68
   7  -3   7    4.55    1.29
   7  -3   7    5.51    0.63
  -7   3  -8    2.08    0.69
   7  -3   8    1.44    0.55
   7  -3   8    1.13    0.33
   7  -3   8    1.12    0.78
  -7   3  -9    4.67    0.88
   7  -3   9    2.41    0.73
   7  -3   9    4.19    0.56
   7  -3   9    3.38    1.17
  -7   3 -10    1.47    0.68
   7  -3  10    2.45    1.18
   7  -2  -9    0.21    0.25
  -7   2   8    0.98    0.67
  -7   2   8    0.17    0.87
   7  -2  -8    0.29    0.24
   7  -2  -7    4.23    0.78
  -7   2   7    4.21    0.92
   7  -2  -7    2.75    0.44
   7  -2  -6    0.82    0.48
  -7   2   6    1.87    0.74
  -7   2   6    2.39    0.97
   7  -2  -6    2.06    0.33
   7  -2  -5   47.10    4.43
  -7   2   5   37.94    4.87
   7  -2  -5   42.78    4.16
  -7   2   5   49.24    4.65
   7  -2  -4    9.60    1.01
  -7   2   4    9.64    1.38
   7  -2  -3    2.54    0.35
  -7   2   3    2.02    0.65
  -7   2   2    9.81    1.82
   7  -2  -2   13.84    1.38
  -7   2   2   15.18    1.82
   7  -2  -2   14.14    1.62
   7  -2  -1    1.64    0.50
   7  -2  -1    1.80    0.44
   7  -2  -1    1.33    0.28
  -7   2   1    1.32    0.75
  -7   2   1    2.07    0.64
  -7   2   1    1.45    0.16
   7  -2   0    8.72    0.96
  -7   2   0    6.52    1.32
   7  -2   0    7.91    1.00
  -7   2   0    9.85    0.88
  -7   2   0    9.28    1.35
   7  -2   0    5.96    1.31
   7  -2   0    9.18    1.19
   7  -2   1    0.56    0.35
  -7   2  -1    0.11    0.50
   7  -2   1    1.02    0.25
   7  -2   1    0.52    0.26
   7  -2   1    0.55    0.53
  -7   2  -2    6.27    1.12
   7  -2   2    6.22    0.74
   7  -2   2    5.79    0.63
   7  -2   2    7.11    0.90
   7  -2   2    3.74    1.01
  -7   2  -3    6.32    0.92
  -7   2  -3    5.07    1.00
   7  -2   3    6.03    0.75
  -7   2  -3    7.37    1.09
   7  -2   3    6.27    0.87
   7  -2   3    2.96    0.96
   7  -2   3    5.76    0.61
  -7   2  -4    0.71    0.47
   7  -2   4    1.25    0.36
  -7   2  -4    1.47    0.64
   7  -2   4    1.02    0.27
   7  -2   4    1.12    0.20
   7  -2   4    0.65    0.38
   7  -2   4    1.00    0.67
  -7   2  -5   16.50    2.21
   7  -2   5   17.03    2.02
   7  -2   5   18.83    1.89
   7  -2   5   15.51    2.40
   7  -2   5   20.93    1.85
   7  -2   6    0.61    0.34
  -7   2  -6    0.79    0.52
   7  -2   6    0.95    0.28
   7  -2   6    1.14    0.22
   7  -2   6    0.57    0.66
  -7   2  -7    8.00    1.12
   7  -2   7    5.29    0.86
  -7   2  -7    5.33    0.98
   7  -2   7    5.40    0.70
   7  -2   7    4.28    1.17
   7  -2   7    6.64    0.66
  -7   2  -8    2.03    0.71
   7  -2   8    1.97    0.54
   7  -2   8    2.25    0.39
   7  -2   8    0.49    0.72
  -7   2  -9   -0.09    0.58
   7  -2   9    0.28    0.30
   7  -2   9    0.17    0.82
  -7   2 -10    1.19    0.66
   7  -2  10   -0.18    0.93
   7  -2  11    0.75    1.05
  -7   1   8    1.33    1.02
   7  -1  -8    2.42    0.41
   7  -1  -7    1.99    0.59
  -7   1   7    1.81    0.71
  -7   1   7    0.65    0.80
   7  -1  -7    1.54    0.32
   7  -1  -6    0.57    0.46
  -7   1   6    0.93    0.61
  -7   1   6    0.47    0.76
   7  -1  -6    0.70    0.23
   7  -1  -5    1.79    0.53
  -7   1   5    2.03    0.66
   7  -1  -5    1.57    0.29
   7  -1  -4    3.48    0.69
  -7   1   4    3.75    0.81
  -7   1   4    2.82    0.95
   7  -1  -4    4.22    0.50
   7  -1  -3    2.15    0.50
  -7   1   3    0.93    0.74
   7  -1  -3    2.08    0.32
  -7   1   3    1.45    0.59
   7  -1  -2   17.60    1.90
   7  -1  -2   16.55    1.71
  -7   1   2   17.25    2.07
   7  -1  -2   19.32    1.95
   7  -1  -1    0.10    0.32
  -7   1   1    0.11    0.05
  -7   1   1   -0.08    0.44
   7  -1  -1    0.06    0.17
  -7   1   1    0.12    0.54
   7  -1  -1    0.16    0.09
   7  -1   0    2.48    0.51
   7  -1   0    2.13    0.37
   7  -1   0    2.29    0.32
  -7   1   0    2.14    0.72
  -7   1   0    2.95    0.66
   7  -1   1    2.24    0.48
  -7   1  -1    1.91    0.71
   7  -1   1    2.36    0.36
   7  -1   1    2.48    0.42
  -7   1  -1    4.02    0.74
   7  -1   1    2.09    0.72
   7  -1   2    1.68    0.42
   7  -1   2    1.65    0.31
  -7   1  -2    1.11    0.60
   7  -1   2    0.92    0.30
  -7   1  -2    1.80    0.60
   7  -1   2    1.24    0.58
  -7   1  -3    0.38    0.49
   7  -1   3    0.63    0.26
  -7   1  -3    0.71    0.39
   7  -1   3    0.83    0.36
   7  -1   3    0.69    0.16
  -7   1  -4    2.02    0.72
   7  -1   4    2.78    0.48
  -7   1  -4    3.42    0.67
   7  -1   4    2.83    0.56
   7  -1   4    3.30    0.36
   7  -1   4    2.37    0.86
  -7   1  -5    0.70    0.52
   7  -1   5    1.37    0.36
   7  -1   5    1.19    0.20
   7  -1   5    0.13    0.55
   7  -1   6    1.60    0.42
  -7   1  -6    1.27    0.57
   7  -1   6    1.68    0.34
   7  -1   6    1.00    0.72
   7  -1   6    1.85    0.25
  -7   1  -7   12.12    1.71
  -7   1  -7   12.96    1.73
   7  -1   7   12.62    1.56
   7  -1   7   12.49    1.40
  -7   1  -7   14.49    1.31
   7  -1   7    9.05    1.88
   7  -1   7   14.38    1.35
  -7   1  -8   47.87    4.64
   7  -1   8   40.67    4.42
   7  -1   8   46.97    4.26
   7  -1   8   36.09    4.93
  -7   1  -9    4.89    0.97
   7  -1   9    2.44    1.07
  -7   1 -10    1.67    0.65
   7  -1  10    0.95    0.34
   7  -1  10    0.55    0.91
  -7   1 -11   -0.27    0.65
   7  -1  11   -0.19    0.94
  -7   0   8    0.16    0.87
   7   0  -8    0.26    0.26
  -7   0   7    1.25    0.93
   7   0  -7    1.84    0.36
   7   0  -7    2.28    0.63
  -7   0   7    1.90    0.40
   7   0  -6    1.28    0.49
  -7   0   6    0.97    0.58
  -7   0   6    0.76    0.78
   7   0  -6    0.94    0.28
   7   0  -5    1.50    0.48
  -7   0   5    1.25    0.52
   7   0  -5    0.60    0.23
   7   0  -4    1.37    0.46
  -7   0   4    2.78    0.68
  -7   0   4    1.11    0.68
   7   0  -4    1.76    0.31
   7   0  -3    0.43    0.38
  -7   0   3    0.44    0.43
  -7   0   3    0.53    0.65
   7   0  -3    0.28    0.19
   7   0  -2    4.02    0.64
  -7   0   2    2.77    0.90
   7   0  -2    2.79    0.41
  -7   0   2    3.01    0.70
   7   0  -1   11.82    1.30
   7   0  -1   11.68    1.01
   7   0  -1   12.71    1.11
  -7   0   1   12.69    1.46
  -7   0   1    9.97    0.96
   7   0  -1   11.93    1.24
   7   0   0    1.30    0.37
   7   0   0    1.46    0.29
  -7   0   0    1.36    0.66
   7   0   0    1.41    0.24
  -7   0   0    1.77    0.54
   7   0   0    0.77    0.59
  -7   0  -1    9.52    1.65
   7   0   1   13.51    1.33
   7   0   1   12.48    1.28
  -7   0  -1   12.84    1.61
   7   0   1   12.89    1.39
  -7   0  -2    6.93    1.23
   7   0   2    7.75    0.92
   7   0   2    8.27    0.89
  -7   0  -2    8.95    1.20
   7   0   2    7.80    0.94
  -7   0  -3    1.79    0.64
   7   0   3    1.96    0.34
   7   0   3    1.91    0.40
   7   0   3    1.53    0.23
   7   0   3    2.03    0.40
  -7   0  -4    1.73    0.66
   7   0   4    2.37    0.41
  -7   0  -4    2.29    0.50
   7   0   4    2.27    0.28
   7   0   4    1.12    0.63
  -7   0  -5    2.80    0.78
   7   0   5    3.39    0.56
  -7   0  -5    4.03    0.71
   7   0   5    2.26    0.83
   7   0   5    4.01    0.41
   7   0   6    2.83    0.55
   7   0   6    2.00    0.86
   7   0   6    3.68    0.39
   7   0   7   -0.14    0.30
  -7   0  -7    0.09    0.51
   7   0   7    0.09    0.23
   7   0   7    0.19    0.13
   7   0   7   -0.31    0.73
  -7   0  -7    0.08    0.09
   7   0   8    2.47    0.57
  -7   0  -8    2.92    0.79
  -7   0  -8    4.14    0.84
   7   0   8    3.29    1.08
  -7   0  -9    0.90    0.62
   7   0   9    0.53    0.82
  -7   0 -10    3.99    0.87
   7   0  10    2.98    0.49
   7   0  10    2.24    1.09
  -7   0 -11    6.73    1.18
   7   0  11    6.62    0.79
   7   0  11    3.93    1.45
  -7  -1   8    0.15    0.83
  -7  -1   7    1.52    0.83
   7   1  -7    2.00    0.38
   7   1  -7    2.01    0.66
   7   1  -6   26.46    2.78
  -7  -1   6   20.63    3.10
   7   1  -6   23.54    2.52
  -7  -1   6   28.02    2.82
  -7  -1   6   28.78    2.55
   7   1  -5    3.99    0.82
  -7  -1   5    3.45    1.13
   7   1  -5    5.11    0.62
  -7  -1   5    4.13    0.82
  -7  -1   5    6.07    0.65
   7   1  -4   -0.06    0.38
  -7  -1   4    0.06    0.41
  -7  -1   4    0.41    0.72
   7   1  -4   -0.02    0.19
   7   1  -3    4.45    0.74
  -7  -1   3    4.70    0.82
  -7  -1   3    4.10    1.05
   7   1  -3    4.60    0.56
   7   1  -2    1.50    0.45
  -7  -1   2    0.76    0.68
   7   1  -2    2.04    0.33
  -7  -1   2    1.99    0.58
   7   1  -1   13.30    1.43
   7   1  -1   13.05    1.25
   7   1  -1   12.68    1.16
  -7  -1   1   10.62    1.46
  -7  -1   1   11.70    1.11
   7   1  -1   12.90    1.33
   7   1   0    1.47    0.36
   7   1   0    1.90    0.31
  -7  -1   0    1.64    0.53
   7   1   0    1.66    0.67
   7   1   1   -0.08    0.19
  -7  -1  -1    0.22    0.50
   7   1   1    0.12    0.18
  -7  -1  -1    0.07    0.35
   7   1   1    0.44    0.54
   7   1   2    1.88    0.34
  -7  -1  -2    3.10    0.78
   7   1   2    2.95    0.42
  -7  -1  -2    3.40    0.67
  -7  -1  -3    2.49    0.75
   7   1   3    2.99    0.45
   7   1   3    1.41    0.65
  -7  -1  -4    4.04    0.95
   7   1   4    4.59    0.69
   7   1   4    5.16    0.52
  -7  -1  -4    5.18    0.70
   7   1   5    0.73    0.28
  -7  -1  -5    0.30    0.47
  -7  -1  -5    0.54    0.34
   7   1   5    0.68    0.14
  -7  -1  -6    2.64    0.73
   7   1   6    3.13    0.51
  -7  -1  -6    2.70    0.59
   7   1   6    2.81    0.32
  -7  -1  -7    7.07    1.29
   7   1   7    6.38    1.01
  -7  -1  -7    9.28    0.83
   7   1   7    5.81    1.42
   7   1   7    8.47    0.86
   7   1   8    0.59    0.34
  -7  -1  -8   -0.19    0.62
  -7  -1  -8    0.17    0.47
   7   1   8   -0.16    0.82
  -7  -1  -9    2.08    0.70
  -7  -1  -9    1.77    0.75
   7   1   9    0.88    0.31
   7   1   9    1.41    0.98
  -7  -1 -10    0.09    0.52
   7   1  10    0.17    0.26
   7   1  10   -0.37    0.83
  -7  -1 -11    2.40    0.77
   7   1  11    1.82    0.62
   7   1  11    2.59    0.45
   7   1  11    1.39    0.88
  -7  -2   7    0.29    0.84
  -7  -2   6    1.02    0.76
   7   2  -6    0.49    0.27
   7   2  -6    0.20    0.47
  -7  -2   6    0.56    0.30
   7   2  -5    8.52    1.15
  -7  -2   5    5.96    1.42
   7   2  -5    7.74    0.91
  -7  -2   5    7.02    1.08
  -7  -2   5    9.95    0.95
   7   2  -4    0.64    0.39
  -7  -2   4    0.55    0.72
   7   2  -4    0.97    0.28
  -7  -2   4    1.62    0.47
   7   2  -3    0.93    0.42
  -7  -2   3    1.20    0.71
   7   2  -3    0.95    0.26
  -7  -2   3    0.95    0.43
  -7  -2   3    0.86    0.26
   7   2  -2    0.95    0.40
  -7  -2   2    1.66    0.50
   7   2  -2    0.67    0.15
  -7  -2   2    0.64    0.63
   7   2  -2    0.95    0.25
   7   2  -1    5.92    0.88
  -7  -2   1    5.42    1.21
   7   2  -1    6.34    0.72
  -7  -2   1    7.28    0.98
  -7  -2   1    6.27    0.60
   7   2   0   15.63    1.63
  -7  -2   0   17.50    1.89
  -7  -2   0   17.00    1.52
   7   2   0   14.33    1.62
   7   2   0   10.93    1.94
  -7  -2  -1    3.33    0.86
   7   2   1    3.75    0.50
  -7  -2  -1    4.56    0.79
   7   2   1    4.09    0.45
   7   2   1    2.89    0.88
  -7  -2  -2    1.00    0.57
   7   2   2    0.45    0.57
  -7  -2  -3    0.87    0.62
   7   2   3    0.82    0.54
  -7  -2  -4    6.75    1.27
   7   2   4    7.69    0.75
   7   2   4    6.31    1.26
  -7  -2  -5    3.06    0.53
   7   2   5    3.29    0.34
  -7  -2  -6    7.49    1.27
  -7  -2  -6    9.76    1.05
   7   2   6    7.66    0.76
  -7  -2  -7   69.97    8.17
  -7  -2  -7   90.59    7.65
  -7  -2  -7   83.98    7.96
  -7  -2  -7   77.19    7.64
   7   2   7   80.18    7.67
   7   2   8    3.71    0.65
  -7  -2  -8    4.00    0.95
  -7  -2  -8    4.50    0.86
  -7  -2  -9    5.51    0.97
  -7  -2  -9    4.49    1.02
   7   2   9    4.07    0.58
   7   2   9    4.39    1.25
  -7  -2 -10    0.92    0.61
  -7  -2 -10    0.59    0.64
   7   2  10    0.56    0.30
   7   2  10    1.31    0.94
  -7  -2 -11    6.69    1.15
   7   2  11    4.86    0.89
   7   2  11    5.80    0.71
   7   2  11    5.38    1.47
  -7  -3   7    1.56    0.92
  -7  -3   6    0.57    0.83
   7   3  -6    0.94    0.31
   7   3  -6    0.99    0.56
  -7  -3   5   -0.14    0.76
   7   3  -5    0.57    0.27
   7   3  -5    0.62    0.46
  -7  -3   5    0.43    0.28
   7   3  -4    0.76    0.46
  -7  -3   4    0.14    0.68
   7   3  -4    0.93    0.27
  -7  -3   4    0.59    0.37
   7   3  -3    1.32    0.46
  -7  -3   3    0.27    0.72
   7   3  -3    1.05    0.28
  -7  -3   3    1.09    0.42
  -7  -3   3    1.59    0.30
   7   3  -2    0.37    0.33
  -7  -3   2   -0.13    0.64
   7   3  -2    0.38    0.22
   7   3  -2    0.55    0.17
  -7  -3   2    0.20    0.33
  -7  -3   2    0.28    0.20
   7   3  -1    4.47    0.77
  -7  -3   1    2.91    0.98
   7   3  -1    4.89    0.62
  -7  -3   1    4.17    0.78
  -7  -3   1    5.12    0.49
  -7  -3   1    5.98    0.60
  -7  -3   0  139.82   16.96
  -7  -3   0  180.84   16.73
  -7  -3   0  188.23   16.39
  -7  -3   0  201.90   16.47
   7   3   0  175.27   16.42
   7   3   0  147.11   16.43
  -7  -3  -1   17.20    1.90
  -7  -3  -1   17.10    1.61
   7   3   1   12.06    2.01
  -7  -3  -2    0.35    0.57
   7   3   2   -0.11    0.53
  -7  -3  -2    0.24    0.14
   7   3   3    3.83    0.56
  -7  -3  -3    3.23    0.92
  -7  -3  -3    4.26    0.45
   7   3   4    7.09    0.85
  -7  -3  -4    7.24    0.69
   7   3   5    6.58    0.92
  -7  -3  -5    5.57    1.20
  -7  -3  -5    7.12    0.83
  -7  -3  -5    8.87    0.75
   7   3   5    7.13    0.74
   7   3   5    6.06    1.30
  -7  -3  -6    0.46    0.61
  -7  -3  -6    0.83    0.33
   7   3   6    0.60    0.11
  -7  -3  -6    0.71    0.11
   7   3   6    0.85    0.78
  -7  -3  -7    4.35    1.11
  -7  -3  -7    4.64    0.73
   7   3   7    2.73    1.01
   7   3   7    5.34    0.51
  -7  -3  -8    1.04    0.69
  -7  -3  -8    2.03    0.50
  -7  -3  -8    0.50    0.49
   7   3   8    1.14    0.84
  -7  -3  -9    1.15    0.65
  -7  -3  -9    0.99    0.58
  -7  -3 -10    0.19    0.55
  -7  -3 -10   -0.33    0.68
   7   3  10   -0.03    0.28
  -7  -3 -11    2.16    0.71
   7   3  11    1.25    0.49
   7   3  11    0.81    0.33
   7   3  11    1.79    1.14
   7   3  12    2.45    0.45
  -7  -4   6    3.61    1.13
   7   4  -6    5.89    0.95
  -7  -4   5    1.81    0.95
   7   4  -5    2.84    0.48
   7   4  -5    3.79    0.72
  -7  -4   4    5.94    1.34
   7   4  -4    6.91    0.82
   7   4  -4    8.00    1.05
  -7  -4   3    0.68    0.75
   7   4  -3    0.70    0.27
   7   4  -3    0.84    0.44
  -7  -4   3    0.66    0.25
   7   4  -2    3.61    0.67
  -7  -4   2    2.67    0.97
  -7  -4   2    3.17    0.59
  -7  -4   2    4.26    0.49
  -7  -4   1    2.35    0.82
  -7  -4   1    2.06    0.52
  -7  -4   1    2.66    0.29
  -7  -4   1    2.93    0.38
   7   4  -1    2.43    0.84
  -7  -4   0    0.77    0.63
  -7  -4   0    0.62    0.38
  -7  -4   0    1.14    0.16
  -7  -4   0    1.40    0.25
   7   4   0    0.79    0.59
  -7  -4  -1   11.80    1.96
   7   4   1   13.53    1.49
  -7  -4  -1   16.41    1.72
  -7  -4  -1   15.15    1.39
  -7  -4  -1   15.85    1.44
   7   4   2    1.92    0.37
  -7  -4  -2    2.30    0.29
   7   4   3   18.80    1.97
  -7  -4  -3   17.02    2.45
  -7  -4  -3   21.29    1.88
   7   4   4    1.33    0.36
  -7  -4  -4    1.46    0.75
  -7  -4  -4    1.99    0.23
   7   4   4    0.74    0.64
   7   4   5    5.85    0.80
  -7  -4  -5    5.85    1.18
   7   4   5    5.32    0.60
  -7  -4  -5    7.78    0.62
   7   4   5    5.92    1.22
   7   4   6    5.57    0.84
  -7  -4  -6    5.65    1.20
  -7  -4  -6    4.82    0.72
   7   4   6    2.68    1.04
   7   4   6    6.02    0.62
  -7  -4  -7    0.87    0.65
  -7  -4  -7    0.14    0.29
   7   4   7   -0.15    0.67
  -7  -4  -8   -0.25    0.65
  -7  -4  -8    0.29    0.33
   7   4   8   -0.16    0.66
  -7  -4  -9    1.75    0.88
   7   4   9    1.39    0.99
  -7  -4 -10    8.85    1.53
   7   4  10    7.81    1.69
  -7  -4 -11    1.00    0.73
  -7  -4 -11    1.40    0.61
   7   4  11    0.83    0.35
   7   4  11    0.59    0.93
   7   4  12    7.56    0.88
  -7  -5   5    0.41    0.76
   7   5  -5    1.91    0.61
  -7  -5   4    3.05    1.04
   7   5  -4    4.65    0.80
  -7  -5   3   -0.14    0.69
   7   5  -3   -0.11    0.42
  -7  -5   3    0.06    0.24
  -7  -5   2    0.14    0.66
   7   5  -2    0.79    0.41
  -7  -5   2    1.07    0.27
   7   5  -1    0.86    0.28
  -7  -5   1    0.27    0.70
  -7  -5   1    1.00    0.17
  -7  -5   1    1.01    0.36
  -7  -5   1    1.06    0.25
   7   5   0    0.19    0.23
  -7  -5   0    0.71    0.14
  -7  -5   0    0.36    0.35
   7   5   0    0.11    0.52
  -7  -5   0    0.80    0.21
   7   5   1    0.76    0.27
  -7  -5  -1    0.66    0.68
  -7  -5  -1    0.95    0.42
  -7  -5  -1    1.48    0.19
   7   5   1    1.81    0.69
  -7  -5  -1    1.14    0.23
   7   5   2    0.13    0.20
  -7  -5  -2   -0.13    0.61
  -7  -5  -2    0.35    0.14
   7   5   2   -0.34    0.51
  -7  -5  -2    0.43    0.15
   7   5   3    0.73    0.28
  -7  -5  -3    1.21    0.20
   7   5   4    3.73    0.55
  -7  -5  -4    1.56    0.87
  -7  -5  -4    4.07    0.42
   7   5   4    2.11    0.83
   7   5   5   15.93    2.16
  -7  -5  -5   14.27    2.51
   7   5   5   12.10    2.46
   7   5   6   78.44    6.58
  -7  -5  -6   69.25    7.09
  -7  -5  -6   74.59    6.33
  -7  -5  -6   59.22    6.34
   7   5   6   61.50    7.05
   7   5   6   68.31    6.30
  -7  -5  -7   12.72    1.92
  -7  -5  -7   12.50    1.30
   7   5   7   10.83    1.89
  -7  -5  -8    2.04    0.87
  -7  -5  -8    2.14    0.43
  -7  -5  -8    1.71    0.63
   7   5   8    0.81    0.83
  -7  -5  -9    0.40    0.73
  -7  -5  -9   -0.09    0.47
   7   5   9    0.35    0.74
  -7  -5 -10   10.33    1.61
  -7  -5 -10    6.78    1.21
   7   5  10    7.39    1.71
  -7  -5 -11   -0.12    0.73
   7   5  11    1.18    1.03
   7   5  12    0.72    0.34
  -7  -6   4    1.67    0.85
   7   6  -4    2.03    0.60
   7   6  -3    3.99    0.57
  -7  -6   3    3.37    1.08
   7   6  -3    4.94    0.77
  -7  -6   3    3.48    0.55
   7   6  -2    3.45    0.52
  -7  -6   2    4.29    0.52
   7   6  -1    3.79    0.53
  -7  -6   1    2.95    0.98
  -7  -6   1    3.60    0.41
  -7  -6   1    4.68    0.53
   7   6  -1    2.54    0.89
   7   6   0    2.98    0.42
  -7  -6   0    1.40    0.82
  -7  -6   0    1.77    0.45
  -7  -6   0    2.65    0.30
  -7  -6   0    2.54    0.38
   7   6   0    1.58    0.73
   7   6   1    0.96    0.28
  -7  -6  -1   -0.28    0.69
  -7  -6  -1    1.27    0.19
  -7  -6  -1    0.81    0.37
  -7  -6  -1    0.92    0.40
   7   6   1    1.02    0.63
  -7  -6  -1    1.51    0.27
   7   6   2    2.06    0.37
  -7  -6  -2    1.25    0.78
  -7  -6  -2    1.59    0.53
  -7  -6  -2    2.01    0.27
  -7  -6  -2    2.31    0.32
   7   6   3    1.88    0.37
  -7  -6  -3    1.76    0.28
  -7  -6  -3    2.46    0.34
   7   6   3    1.66    0.72
   7   6   4    3.07    0.53
  -7  -6  -4    2.37    1.02
  -7  -6  -4    4.80    0.50
   7   6   4    3.47    0.99
   7   6   5    1.09    0.36
  -7  -6  -5    1.69    0.85
  -7  -6  -5    1.61    0.22
   7   6   5    0.26    0.63
  -7  -6  -6    0.57    0.70
   7   6   6    0.88    0.36
   7   6   6    1.54    0.76
  -7  -6  -6    0.93    0.15
  -7  -6  -7    2.74    0.97
   7   6   7    2.18    0.49
  -7  -6  -7    2.06    0.34
   7   6   7    1.49    0.82
  -7  -6  -8    0.58    0.87
  -7  -6  -8    0.40    0.49
   7   6   8    1.28    0.77
  -7  -6  -9   13.14    1.60
  -7  -6  -9   10.72    1.89
   7   6   9    9.26    1.86
  -7  -6 -10   -0.14    0.76
  -7  -6 -10    0.36    0.49
   7   6  10    0.55    0.81
  -7  -6 -11    1.53    0.66
  -7  -6 -11    0.40    0.93
   7   6  11    0.98    0.98
  -7  -6 -12    0.25    0.70
  -7  -7   4    0.28    0.80
   7   7  -2    1.17    0.35
   7   7  -2   -0.12    0.68
   7   7  -1    4.27    0.60
  -7  -7   1    4.50    0.49
   7   7   0    1.98    0.42
  -7  -7   0    2.42    0.31
   7   7   1    0.71    0.29
  -7  -7  -1    0.44    0.70
  -7  -7  -1    0.73    0.18
  -7  -7  -1    0.78    0.37
   7   7   1    0.56    0.64
  -7  -7  -1    2.16    0.45
   7   7   2    8.06    0.93
  -7  -7  -2    7.66    0.82
  -7  -7  -2   10.53    0.92
   7   7   3    0.89    0.30
  -7  -7  -3    1.62    0.85
  -7  -7  -3    0.69    0.19
  -7  -7  -3    0.48    0.20
   7   7   3    0.82    0.68
   7   7   4    1.86    0.38
  -7  -7  -4    1.69    0.28
  -7  -7  -4    1.89    0.27
   7   7   4    1.36    0.70
   7   7   5   10.73    1.32
  -7  -7  -5    9.63    1.85
  -7  -7  -5   12.90    1.19
   7   7   5   11.60    1.83
  -7  -7  -6    0.61    0.71
   7   7   6    0.08    0.31
   7   7   6   -0.14    0.69
  -7  -7  -7   -0.15    0.81
   7   7   7   -0.31    0.38
  -7  -7  -7    0.07    0.39
   7   7   7    0.44    0.69
  -7  -7  -8    0.62    0.92
  -7  -7  -8    0.56    0.46
   7   7   8    0.95    0.74
  -7  -7  -9    2.62    1.05
  -7  -7  -9    1.37    0.61
   7   7   9    2.03    0.98
  -7  -7 -10    4.14    0.88
   7   7  10    5.97    1.42
  -7  -7 -11    1.15    0.60
  -7  -7 -11   -0.14    0.76
   7   7  11   -0.19    0.94
  -7  -7 -12    0.41    0.98
  -7  -8   3    1.00    0.90
  -7  -8   2    5.00    1.27
   7   8  -1    2.38    0.47
  -7  -8   1    2.55    1.04
  -7  -8   1    3.62    0.49
   7   8   0   -0.06    0.25
  -7  -8   0    0.30    0.73
  -7  -8   0    0.15    0.18
  -7  -8   0    0.37    0.26
   7   8   1    0.39    0.29
  -7  -8  -1    0.77    0.82
  -7  -8  -1    0.99    0.21
   7   8   1    0.77    0.73
  -7  -8  -1    1.13    0.28
   7   8   2    5.54    0.70
  -7  -8  -2    4.65    1.26
  -7  -8  -2    6.11    0.60
  -7  -8  -2    5.32    0.63
   7   8   2    3.25    0.99
   7   8   3    3.84    0.49
  -7  -8  -3    1.88    0.90
  -7  -8  -3    2.80    0.36
  -7  -8  -3    2.56    0.37
   7   8   3    2.09    0.79
   7   8   4    1.65    0.38
  -7  -8  -4    1.74    0.95
  -7  -8  -4    1.82    0.28
  -7  -8  -4    1.78    0.28
   7   8   4    1.46    0.77
   7   8   5   48.01    4.99
  -7  -8  -5   56.45    4.89
  -7  -8  -5   51.64    4.85
   7   8   5   40.30    5.41
  -7  -8  -6    0.49    0.80
   7   8   6    0.98    0.38
   7   8   6    1.09    0.78
   7   8   7    4.03    0.64
  -7  -8  -7    3.36    0.78
  -7  -8  -7    2.29    1.02
   7   8   7    4.66    1.15
  -7  -8  -8    0.98    0.76
  -7  -8  -8    0.39    0.50
   7   8   8   -0.16    0.73
  -7  -8  -9    1.29    0.90
  -7  -8  -9    1.71    0.62
   7   8   9    0.17    0.93
  -7  -8 -10    0.16    0.77
  -7  -8 -10    0.08    0.48
   7   8  10    0.18    0.81
  -7  -8 -11    1.12    0.62
  -7  -8 -11    0.61    1.03
   7   8  11   -0.19    1.01
  -7  -8 -12    0.29    1.01
  -7  -9   2   24.75    3.19
  -7  -9   1    5.39    1.33
   7   9   0    0.33    0.31
  -7  -9   0    0.24    0.20
  -7  -9   0    0.56    0.26
   7   9   1    1.41    0.38
  -7  -9  -1    0.48    0.83
  -7  -9  -1    2.04    0.28
  -7  -9  -1    1.12    0.30
   7   9   2    0.58    0.32
  -7  -9  -2    0.16    0.82
  -7  -9  -2    0.74    0.22
  -7  -9  -2    0.58    0.23
   7   9   3    0.87    0.33
  -7  -9  -3    1.16    0.85
  -7  -9  -3    1.38    0.25
  -7  -9  -3    0.93    0.25
   7   9   3    0.90    0.76
   7   9   4    1.91    0.40
  -7  -9  -4    1.34    1.00
  -7  -9  -4    1.90    0.30
   7   9   4    1.77    0.83
  -7  -9  -4    1.83    0.30
  -7  -9  -5    1.19    0.92
   7   9   5    1.21    0.38
  -7  -9  -5    1.11    0.25
   7   9   5    0.62    0.67
  -7  -9  -6    1.32    0.52
   7   9   6    1.57    0.44
  -7  -9  -6    2.01    0.33
   7   9   6    2.39    0.92
   7   9   7    0.47    0.36
  -7  -9  -7    0.51    0.87
  -7  -9  -7    0.78    0.47
   7   9   7   -0.14    0.71
  -7  -9  -8   -0.15    0.48
  -7  -9  -8   -0.34    0.85
   7   9   8   -0.15    0.81
  -7  -9  -9    0.84    0.95
  -7  -9  -9    1.01    0.57
   7   9   9   -0.16    0.95
  -7  -9 -10    1.63    0.96
  -7  -9 -10    2.15    0.67
   7   9  10    0.17    1.19
  -7  -9 -11    2.91    0.76
   7   9  11   -0.18    1.36
  -7 -10   1    3.26    1.16
  -7 -10   0    0.49    0.88
   7  10   1    0.84    0.43
  -7 -10  -1    1.50    0.96
  -7 -10  -1    1.94    0.31
  -7 -10  -1    1.80    0.36
  -7 -10  -2    1.19    0.92
   7  10   2    0.03    0.30
  -7 -10  -2    0.85    0.23
  -7 -10  -2    0.52    0.26
  -7 -10  -3    1.38    0.93
   7  10   3    0.63    0.37
  -7 -10  -3    2.08    0.29
  -7 -10  -3    1.42    0.31
  -7 -10  -4    5.23    1.45
  -7 -10  -4    7.51    0.74
   7  10   4    5.35    0.87
  -7 -10  -5    0.70    0.92
  -7 -10  -5    0.70    0.43
   7  10   5    0.43    0.33
  -7 -10  -5    0.37    0.22
  -7 -10  -6    0.18    0.82
  -7 -10  -6    0.32    0.39
   7  10   6   -0.12    0.38
  -7 -10  -6    0.10    0.22
   7  10   6   -0.13    0.73
  -7 -10  -7    1.36    0.56
   7  10   7    0.43    0.41
  -7 -10  -7    1.06    0.28
   7  10   7    0.14    0.80
  -7 -10  -8    7.19    1.58
  -7 -10  -8    7.53    1.07
   7  10   8    4.33    0.93
  -7 -10  -8    8.17    0.77
  -7 -10  -9    0.07    0.45
   7  10   9   -0.16    0.99
  -7 -10 -10    2.72    0.69
   7  10  10    0.17    1.33
  -7 -10 -11   35.45    3.75
  -7 -11  -2    1.10    0.28
  -7 -11  -3    3.65    0.43
   7  11   3    1.73    0.54
  -7 -11  -4   27.91    2.28
   7  11   4   14.11    2.40
  -7 -11  -5    7.16    0.68
   7  11   5    3.23    0.79
  -7 -11  -6    0.37    0.24
   7  11   6    0.20    0.40
   7  11   7   -0.04    0.39
   7  11   8    3.25    0.64
  -7 -11  -8    3.21    0.68
  -7 -11  -9   -0.07    0.43
  -7 -11 -10   -0.35    0.53
   7  12   5    0.67    0.43
   8  -9  -3    2.80    0.98
   8  -9  -2    1.02    0.73
   8  -8  -5    1.35    0.56
   8  -8  -4    2.10    0.60
   8  -8  -3    0.25    0.94
   8  -8  -2   -0.12    0.80
   8  -8  -2    0.52    0.67
   8  -8  -1    0.12    1.09
   8  -8  -1    2.29    0.90
   8  -8   0    5.90    3.69
   8  -8   0   28.75    3.36
  -8   8  -1    4.40    1.13
   8  -8   1    2.60    0.82
   8  -8   2   -0.11    0.72
   8  -8   2    0.46    0.25
  -8   8  -2    0.14    0.78
   8  -8   3    1.02    0.30
   8  -7  -5    0.12    0.87
   8  -7  -5    1.74    0.60
   8  -7  -4    7.98    1.02
  -8   7   4    7.52    1.38
   8  -7  -3    0.31    0.42
   8  -7  -3    0.23    0.69
   8  -7  -3    0.45    0.26
   8  -7  -2    4.44    0.51
  -8   7   2    4.55    1.11
   8  -7  -2    2.52    0.97
   8  -7  -1   -0.11    0.68
  -8   7   1   -0.53    0.72
   8  -7  -1    0.23    0.23
   8  -7  -1    0.13    0.63
   8  -7   0    0.22    0.75
  -8   7   0    3.04    1.00
   8  -7   0    2.29    0.87
   8  -7   1    2.72    0.37
  -8   7  -1    3.14    1.04
   8  -7   1    2.63    0.40
   8  -7   2   -0.10    0.57
  -8   7  -2    0.12    0.64
   8  -7   2    0.61    0.25
  -8   7  -2    1.56    0.88
   8  -7   2    0.69    0.25
   8  -7   2    0.77    0.61
   8  -7   3   13.52    1.24
   8  -7   3   12.59    1.24
  -8   7  -4    0.13    0.76
   8  -7   4    0.37    0.26
   8  -7   4   -0.10    0.77
   8  -7   4    0.13    0.65
  -8   7  -5    5.02    1.28
   8  -6  -6   -0.11    0.80
   8  -6  -5    0.67    0.48
  -8   6   5    1.04    0.84
   8  -6  -5   -0.11   37.86
   8  -6  -4    5.97    0.90
  -8   6   4    9.32    1.38
   8  -6  -3    0.11    0.59
   8  -6  -3    0.19    0.41
  -8   6   3    0.13    0.67
   8  -6  -2    0.10    0.68
   8  -6  -2    1.42    0.29
   8  -6  -1    0.10    0.90
  -8   6   1    3.17    0.98
   8  -6  -1    2.99    0.90
   8  -6   0    0.10    0.76
   8  -6   0    1.65    0.28
   8  -6   0    1.41    0.72
   8  -6   1   -0.10    0.64
   8  -6   1    1.12    0.24
  -8   6  -1    0.37    0.70
   8  -6   1    0.62    0.23
   8  -6   1    0.26    0.60
  -8   6  -2    3.49    0.97
   8  -6   2    4.57    0.52
  -8   6  -2    5.74    1.18
   8  -6   2    4.35    0.53
   8  -6   3    0.19    0.82
  -8   6  -3    1.92    0.84
   8  -6   3    2.03    0.52
   8  -6   3    3.18    0.41
  -8   6  -3    2.78    0.94
   8  -6   3    0.93    0.73
   8  -6   3    2.91    0.40
   8  -6   4    0.21    0.35
  -8   6  -4    0.63    0.85
   8  -6   4    0.75    0.29
   8  -6   4    0.57    0.23
   8  -6   4    0.09    0.73
   8  -6   5    3.28    0.66
  -8   6  -5    4.40    1.09
   8  -6   5    2.11    0.90
   8  -6   5    3.70    0.47
  -8   6  -6   24.58    2.58
   8  -6   6   12.44    2.29
   8  -5  -6    0.11    0.68
  -8   5   6    0.38    0.67
   8  -5  -5    0.10    0.59
   8  -5  -5    0.14    0.44
  -8   5   5    0.37    0.70
   8  -5  -4    0.10    0.84
   8  -5  -4    2.32    0.58
  -8   5   4    1.93    0.82
   8  -5  -4    1.81    0.35
   8  -5  -3    6.89    0.98
  -8   5   3    7.14    1.29
   8  -5  -3    7.03    0.75
   8  -5  -2    0.78    0.43
   8  -5  -2    0.09    0.59
  -8   5   2    0.36    0.69
   8  -5  -1    3.53    0.92
   8  -5  -1    4.84    0.52
   8  -5  -1    4.56    1.12
   8  -5   0    2.16    0.71
   8  -5   0    2.48    0.33
  -8   5   0    1.53    0.80
   8  -5   0    2.25    0.34
   8  -5   0    0.90    0.65
   8  -5   1    0.53    0.51
  -8   5  -1    0.75    0.64
   8  -5   1    0.58    0.20
  -8   5  -1   -0.47    0.64
   8  -5   1    0.44    0.20
   8  -5   1    0.39    0.57
   8  -5   2    0.09    0.70
  -8   5  -2    1.50    0.76
   8  -5   2    1.89    0.42
  -8   5  -2    2.74    0.89
   8  -5   2    1.82    0.32
   8  -5   2    1.71    0.29
   8  -5   2    2.36    0.80
   8  -5   3    0.08    0.60
  -8   5  -3    0.64    0.69
   8  -5   3    1.64    0.42
  -8   5  -3    0.95    0.75
   8  -5   3    1.34    0.30
   8  -5   3    1.10    0.26
   8  -5   3    1.21    0.70
  -8   5  -4    0.30    0.63
   8  -5   4    0.70    0.40
  -8   5  -4    2.62    0.91
   8  -5   4    1.32    0.31
   8  -5   4    1.35    0.27
   8  -5   4    0.09    0.62
   8  -5   4    1.40    0.75
   8  -5   5   -0.11    0.37
  -8   5  -5   -0.12    0.70
   8  -5   5   -0.02    0.25
   8  -5   5    0.11    0.20
   8  -5   5   -0.09    0.59
   8  -5   5    0.15    0.68
  -8   5  -6    3.19    0.82
   8  -5   6    3.57    0.73
   8  -5   6    4.10    0.55
  -8   5  -6    4.03    1.08
   8  -5   6    2.86    1.03
   8  -5   6    4.09    0.52
  -8   5  -7    0.87    0.81
   8  -5   7    0.45    0.27
   8  -5   7    0.78    0.83
   8  -5   8    1.28    1.01
  -8   4   7    2.56    0.97
   8  -4  -6    0.79    0.48
  -8   4   6    0.24    0.67
   8  -4  -5    5.44    0.92
  -8   4   5    7.10    1.26
   8  -4  -5    6.78    0.69
   8  -4  -4    0.18    0.65
   8  -4  -4    1.81    0.51
  -8   4   4    1.36    0.73
   8  -4  -4    1.32    0.30
   8  -4  -3    6.96    1.13
   8  -4  -3    6.66    0.97
  -8   4   3    6.96    1.28
   8  -4  -3    6.26    0.76
   8  -4  -2    0.34    0.47
   8  -4  -2    0.60    0.43
   8  -4  -2    0.65    0.28
   8  -4  -2    0.46    0.19
  -8   4   2    0.23    0.62
   8  -4  -1    0.83    0.56
   8  -4  -1    0.19    0.26
   8  -4  -1    0.31    0.19
  -8   4   1    0.56    0.65
   8  -4  -1    0.13    0.55
   8  -4   0    2.10    0.67
  -8   4   0    1.97    0.85
   8  -4   0    2.60    0.35
   8  -4   0    1.03    0.68
   8  -4   1    2.35    0.66
  -8   4  -1    2.22    0.80
   8  -4   1    1.76    0.36
   8  -4   1    1.60    0.29
  -8   4  -1    1.24    0.71
   8  -4   1    1.85    0.29
   8  -4   1    1.16    0.72
   8  -4   2    0.08    0.47
  -8   4  -2   -0.12    0.66
   8  -4   2    0.22    0.28
  -8   4  -2   -0.11    0.59
   8  -4   2    0.27    0.20
   8  -4   2    0.32    0.17
   8  -4   2    0.13    0.63
   8  -4   3    0.60    0.50
   8  -4   3    0.38    0.31
  -8   4  -3    0.32    0.56
  -8   4  -3   -0.11    0.56
   8  -4   3    0.13    0.22
   8  -4   3    1.08    0.73
   8  -4   3    0.18    0.16
  -8   4  -4    2.81    0.77
   8  -4   4    2.14    0.50
   8  -4   4    2.75    0.40
  -8   4  -4    2.61    0.89
   8  -4   4    2.20    0.34
   8  -4   4    2.41    0.68
   8  -4   4    1.12    0.80
  -8   4  -5    4.16    0.97
   8  -4   5    5.21    0.79
   8  -4   5    5.37    0.60
  -8   4  -5    4.06    1.03
   8  -4   5    4.99    0.56
   8  -4   6    0.18    0.38
  -8   4  -6    1.53    0.74
   8  -4   6    0.90    0.32
   8  -4   6    0.58    0.24
   8  -4   6    0.62    0.84
  -8   4  -7    0.58    0.60
   8  -4   7    0.53    0.43
  -8   4  -7    0.84    0.79
   8  -4   7    0.63    0.31
   8  -4   7    0.66    0.26
   8  -4   7    0.16    0.75
  -8   4  -8    0.78    0.65
   8  -4   8    0.37    0.27
   8  -4   8    0.17    0.86
   8  -4   9    1.56    1.12
  -8   3   8    0.11    0.74
  -8   3   7    4.29    1.13
   8  -3  -7    4.71    0.60
  -8   3   6    0.66    0.71
   8  -3  -6    0.42    0.24
  -8   3   6   -0.18    0.89
   8  -3  -5    2.81    0.68
  -8   3   5    3.62    0.90
   8  -3  -5    1.91    0.36
  -8   3   5    1.91    1.01
   8  -3  -4    0.57    0.56
   8  -3  -4    1.62    0.54
  -8   3   4    0.96    0.65
   8  -3  -4    0.95    0.27
  -8   3   4    1.15    0.86
   8  -3  -3    5.99    0.98
   8  -3  -3    5.32    0.84
  -8   3   3    5.88    1.09
  -8   3   3    4.21    1.24
   8  -3  -3    4.60    0.61
   8  -3  -2    2.79    0.72
   8  -3  -2    3.07    0.64
  -8   3   2    3.94    0.95
   8  -3  -2    3.09    0.47
  -8   3   2    3.09    1.01
   8  -3  -1    0.58    0.43
  -8   3   1    1.25    0.77
   8  -3  -1    1.07    0.32
  -8   3   1    1.47    0.69
   8  -3   0    0.71    0.46
  -8   3   0    0.39    0.67
   8  -3   0    0.44    0.20
   8  -3   0    0.37    0.27
  -8   3   0    0.85    0.61
   8  -3   0    0.13    0.60
  -8   3  -1    1.60    0.80
   8  -3   1    1.17    0.31
   8  -3   1    1.37    0.52
   8  -3   1    1.38    0.25
   8  -3   1    0.90    0.67
   8  -3   2    1.21    0.49
   8  -3   2    0.75    0.30
  -8   3  -2    0.35    0.54
   8  -3   2    1.00    0.27
   8  -3   2    1.53    0.24
   8  -3   2    1.70    0.78
   8  -3   3    2.04    0.59
  -8   3  -3    1.42    0.76
   8  -3   3    2.32    0.47
  -8   3  -3    1.39    0.69
   8  -3   3    1.81    0.34
   8  -3   3    1.75    0.86
   8  -3   3    2.26    0.31
  -8   3  -4    6.86    1.26
   8  -3   4    8.32    1.00
   8  -3   4    7.05    0.83
  -8   3  -4   10.50    1.42
   8  -3   4    7.99    0.80
   8  -3   4    8.09    1.12
  -8   3  -5   39.70    4.90
   8  -3   5   46.28    4.70
   8  -3   5   50.02    4.54
  -8   3  -5   58.96    5.21
   8  -3   5   48.96    4.83
   8  -3   5   35.01    5.06
   8  -3   5   48.69    4.50
  -8   3  -6    1.34    0.64
   8  -3   6    2.14    0.55
  -8   3  -6    1.83    0.83
   8  -3   6    1.82    0.38
   8  -3   6    2.02    0.91
   8  -3   6    2.60    0.34
  -8   3  -7    2.02    0.71
   8  -3   7    1.98    0.56
  -8   3  -7    4.24    1.01
   8  -3   7    2.20    0.42
   8  -3   7    2.29    1.02
   8  -3   7    2.46    0.36
  -8   3  -8    0.89    0.64
   8  -3   8    1.21    0.53
  -8   3  -8    1.58    0.90
   8  -3   8    1.32    0.36
   8  -3   8    1.28    0.30
   8  -3   8    0.52    0.94
  -8   3  -9    5.53    1.06
  -8   3  -9    7.36    1.36
   8  -3   9    3.05    1.22
   8  -3  10    1.30    1.01
   8  -2  -8    0.30    0.29
  -8   2   7   -0.10    0.65
   8  -2  -7    0.63    0.27
   8  -2  -6    0.29    0.47
  -8   2   6    0.20    0.63
  -8   2   6    0.89    0.89
   8  -2  -6    0.37    0.25
   8  -2  -5    0.62    0.46
  -8   2   5    0.20    0.55
   8  -2  -5    0.55    0.24
  -8   2   5    0.51    0.83
  -8   2   4    0.79    0.61
   8  -2  -4    0.99    0.26
  -8   2   4    0.49    0.80
   8  -2  -3    4.41    0.82
   8  -2  -3    3.91    0.53
  -8   2   3    3.89    0.97
  -8   2   2   87.49    9.92
   8  -2  -2   97.50    9.31
  -8   2   2  114.37    9.85
   8  -2  -2  103.06    9.58
   8  -2  -1    8.83    1.18
  -8   2   1    7.98    1.51
   8  -2  -1    8.98    1.01
  -8   2   1   11.62    1.49
   8  -2  -1    9.00    1.23
   8  -2   0    0.06    0.40
  -8   2   0    0.13    0.59
   8  -2   0    0.16    0.17
   8  -2   0    0.25    0.26
  -8   2   0   -0.20    0.51
   8  -2   0    0.26    0.55
   8  -2   1    7.26    0.79
  -8   2  -1    6.04    1.24
   8  -2   1    6.49    0.82
  -8   2  -1   10.19    1.32
   8  -2   1    3.46    1.10
   8  -2   1    6.76    0.98
   8  -2   2    2.49    0.57
  -8   2  -2    1.75    0.76
   8  -2   2    3.49    0.50
   8  -2   2    3.29    0.39
   8  -2   2    1.56    0.77
  -8   2  -3    8.85    1.52
   8  -2   3   10.80    1.21
   8  -2   3    9.63    1.30
   8  -2   3    8.32    1.58
   8  -2   3   11.19    1.06
  -8   2  -4    0.21    0.52
   8  -2   4    0.84    0.33
  -8   2  -4    0.62    0.68
   8  -2   4    0.49    0.24
   8  -2   4    0.55    0.18
   8  -2   4    0.17    0.37
   8  -2   4    0.70    0.66
  -8   2  -5    3.29    0.96
   8  -2   5    5.28    0.73
  -8   2  -5    6.35    1.12
   8  -2   5    4.25    0.57
   8  -2   5    1.92    0.93
   8  -2   5    4.82    0.51
   8  -2   6    3.44    0.61
  -8   2  -6    3.39    0.84
  -8   2  -6    2.90    0.89
   8  -2   6    2.39    0.42
   8  -2   6    2.03    0.87
   8  -2   6    3.32    0.39
   8  -2   7    0.47    0.38
   8  -2   7    0.68    0.29
   8  -2   7    1.21    0.24
   8  -2   7    0.33    0.71
  -8   2  -8    1.71    0.70
   8  -2   8    0.38    0.43
   8  -2   8    1.24    0.36
   8  -2   8    1.47    0.28
   8  -2   8    0.87    0.92
  -8   2  -9    0.85    0.71
   8  -2   9    0.21    0.40
   8  -2   9    0.45    0.31
   8  -2   9   -0.18    0.83
  -8   2 -10    2.67    0.81
   8  -2  10    1.34    1.07
  -8   1   7    1.08    0.99
   8  -1  -7    1.81    0.37
   8  -1  -6   11.32    1.40
  -8   1   6    9.60    1.49
   8  -1  -6   10.13    1.06
   8  -1  -5    1.45    0.54
  -8   1   5    0.82    0.59
  -8   1   5    1.84    1.02
   8  -1  -5    0.81    0.28
   8  -1  -4    3.00    0.71
  -8   1   4    3.79    0.85
  -8   1   4    3.20    1.05
   8  -1  -4    3.78    0.50
   8  -1  -3    2.86    0.62
   8  -1  -3    1.86    0.55
  -8   1   3    0.83    0.61
   8  -1  -3    1.65    0.32
  -8   1   3    0.30    0.67
   8  -1  -2    1.20    0.46
   8  -1  -2    1.09    0.45
   8  -1  -2    1.08    0.29
  -8   1   2    1.66    0.61
  -8   1   1    8.80    1.70
   8  -1  -1   12.90    1.29
  -8   1   1   10.98    1.61
   8  -1  -1   13.21    1.47
   8  -1   0    0.62    0.38
   8  -1   0    0.70    0.26
  -8   1   0    0.39    0.55
   8  -1   0    0.69    0.21
  -8   1   0    0.84    0.55
  -8   1  -1   16.15    2.74
   8  -1   1   23.67    2.35
   8  -1   1   26.26    2.44
  -8   1  -1   30.50    2.90
   8  -1   1   26.80    2.54
   8  -1   1   18.05    2.80
   8  -1   2    1.62    0.44
  -8   1  -2    0.24    0.54
   8  -1   2    1.47    0.32
   8  -1   2    1.08    0.35
  -8   1  -2    2.09    0.70
   8  -1   2    1.17    0.69
  -8   1  -3    4.30    1.06
   8  -1   3    6.33    0.80
   8  -1   3    6.94    0.68
   8  -1   3    5.93    0.88
  -8   1  -4    1.19    0.63
   8  -1   4    1.67    0.42
  -8   1  -4    2.53    0.58
   8  -1   4    1.91    0.48
   8  -1   4    1.91    0.27
   8  -1   4    1.68    0.83
  -8   1  -5    0.52    0.63
   8  -1   5    0.44    0.31
   8  -1   5    0.45    0.17
   8  -1   5    0.15    0.62
   8  -1   6    0.15    0.32
  -8   1  -6    0.80    0.61
   8  -1   6    0.14    0.25
   8  -1   6    0.34    0.15
   8  -1   7    2.09    0.52
  -8   1  -7    2.29    0.83
   8  -1   7    2.37    0.40
   8  -1   7    1.49    0.90
   8  -1   7    2.20    0.31
  -8   1  -8    3.77    0.95
   8  -1   8    3.39    0.74
   8  -1   8    3.85    0.57
   8  -1   8    2.63    1.08
   8  -1   8    5.05    0.51
  -8   1  -9    1.05    0.69
   8  -1   9    0.07    0.43
   8  -1   9    0.51    0.30
   8  -1   9    0.37    0.91
  -8   1 -10    7.91    1.32
   8  -1  10    6.60    1.68
  -8   0   7    0.18    0.84
   8   0  -7    1.06    0.34
  -8   0   6    5.36    0.97
  -8   0   6    2.56    1.04
   8   0  -6    3.71    0.55
   8   0  -5    0.21    0.47
  -8   0   5    0.08    0.53
  -8   0   5    0.16    0.86
   8   0  -5    0.02    0.23
   8   0  -4    1.24    0.50
  -8   0   4    0.97    0.56
  -8   0   4    0.79    0.73
   8   0  -4    1.21    0.30
   8   0  -3    0.31    0.40
  -8   0   3    0.25    0.51
  -8   0   3    0.30    0.79
   8   0  -3    0.24    0.21
   8   0  -2    1.84    0.49
   8   0  -2    1.09    0.53
  -8   0   2    1.71    0.65
  -8   0   2    1.59    0.80
   8   0  -2    1.36    0.30
   8   0  -1    1.14    0.41
   8   0  -1    1.86    0.54
  -8   0   1    1.63    0.61
   8   0  -1    1.30    0.30
   8   0  -1    1.37    0.17
   8   0   0    0.25    0.30
  -8   0   0    1.13    0.55
   8   0   0    0.55    0.25
  -8   0   0    0.92    0.72
   8   0   0    0.28    0.17
   8   0   1    2.94    0.51
  -8   0  -1    3.16    0.74
   8   0   1    3.34    0.48
  -8   0  -1    2.78    0.89
   8   0   1    2.84    0.42
   8   0   2    3.13    0.53
  -8   0  -2    2.18    0.82
   8   0   2    3.59    0.47
   8   0   2    3.03    0.52
  -8   0  -2    2.60    0.77
  -8   0  -3    8.85    1.73
   8   0   3   11.14    1.42
   8   0   3   13.97    1.40
  -8   0  -3   16.01    1.83
   8   0   3   14.95    1.45
   8   0   4   66.45    6.66
  -8   0  -4   54.29    6.98
   8   0   4   76.52    6.53
   8   0   4   46.80    7.04
   8   0   5   11.31    1.38
  -8   0  -5   11.98    1.74
  -8   0  -5   14.31    1.55
   8   0   5   13.33    1.23
   8   0   6   -0.05    0.30
  -8   0  -6    0.74    0.60
   8   0   6    0.21    0.13
   8   0   6    0.93    0.71
   8   0   7    0.71    0.38
  -8   0  -7    0.10    0.58
   8   0   7    0.82    0.30
   8   0   7    0.86    0.19
   8   0   7   -0.17    0.65
  -8   0  -8   10.65    1.47
   8   0   8    9.32    1.23
  -8   0  -8    7.66    1.44
   8   0   8    9.20    1.06
   8   0   8    6.14    1.59
   8   0   8   10.37    0.97
   8   0   9    0.94    0.49
  -8   0  -9    2.97    0.82
   8   0   9    0.93    0.98
   8   0  10    0.48    0.44
  -8   0 -10   -0.10    0.56
   8   0  10    0.39    0.89
  -8  -1   7   -0.17    0.91
  -8  -1   6    1.17    0.97
   8   1  -6    1.95    0.40
   8   1  -5    7.32    1.04
  -8  -1   5    6.34    1.02
  -8  -1   5    3.59    1.22
   8   1  -5    5.77    0.72
   8   1  -4    2.30    0.62
  -8  -1   4    2.96    0.70
  -8  -1   4    0.95    0.84
   8   1  -4    3.11    0.45
   8   1  -3    4.46    0.77
  -8  -1   3    3.85    0.80
  -8  -1   3    2.28    0.97
   8   1  -3    3.76    0.52
   8   1  -2    1.22    0.48
  -8  -1   2    1.56    0.57
  -8  -1   2    0.29    0.67
   8   1  -2    1.28    0.30
   8   1  -1    1.00    0.37
   8   1  -1    1.28    0.45
   8   1  -1    1.27    0.28
   8   1  -1    1.00    0.17
  -8  -1   1    1.11    0.54
   8   1   0    5.92    0.69
   8   1   0    5.65    0.61
  -8  -1   0    5.83    1.00
   8   1   0    4.76    0.72
   8   1   1    1.09    0.31
   8   1   1    1.71    0.34
  -8  -1  -1    2.58    0.91
   8   1   1    1.07    0.24
  -8  -1  -1    1.74    0.58
   8   1   1    0.51    0.60
  -8  -1  -2    3.24    0.97
   8   1   2    4.82    0.66
   8   1   2    5.28    0.61
  -8  -1  -2    5.73    1.00
   8   1   2    4.28    1.07
   8   1   2    5.16    0.63
  -8  -1  -3    0.36    0.64
   8   1   3    0.62    0.26
   8   1   3    0.27    0.29
  -8  -1  -3    0.63    0.52
   8   1   3    0.80    0.68
  -8  -1  -4    2.35    0.87
   8   1   4    2.22    0.42
   8   1   4    2.07    0.47
   8   1   4    2.42    0.29
   8   1   5    0.66    0.29
  -8  -1  -5    0.69    0.65
  -8  -1  -5    1.53    0.42
   8   1   5    0.85    0.16
   8   1   6    2.22    0.50
  -8  -1  -6    2.59    0.84
  -8  -1  -6    3.61    0.65
   8   1   6    1.24    0.82
   8   1   6    3.25    0.35
   8   1   7   12.51    1.54
  -8  -1  -7   10.16    1.81
   8   1   7    7.10    1.84
   8   1   7   15.35    1.35
   8   1   8    0.36    0.36
  -8  -1  -8   -0.11    0.62
  -8  -1  -8    0.27    0.56
   8   1   8    0.12    0.13
   8   1   8   -0.18    0.75
   8   1   9    0.98    0.42
  -8  -1  -9    1.58    0.77
  -8  -1  -9    1.82    0.69
   8   1   9    0.19    0.85
  -8  -1 -10    1.41    0.70
   8   1  10    0.64    0.48
   8   1  10    2.14    0.40
   8   1  10    0.20    0.93
  -8  -2   6    1.97    1.00
   8   2  -5    4.39    0.60
   8   2  -5    5.38    0.90
   8   2  -4    1.26    0.59
   8   2  -4    0.61    0.28
  -8  -2   4    0.06    0.44
  -8  -2   4    0.98    0.31
   8   2  -3    1.21    0.50
  -8  -2   3    2.13    0.96
   8   2  -3    0.90    0.30
  -8  -2   3    1.12    0.54
  -8  -2   3    1.34    0.31
   8   2  -2    2.80    0.63
  -8  -2   2    2.17    0.63
  -8  -2   2    2.06    0.87
   8   2  -2    2.16    0.39
   8   2  -1    0.94    0.42
  -8  -2   1    1.28    0.76
   8   2  -1    1.07    0.29
  -8  -2   1    0.22    0.46
   8   2   0    3.43    0.46
  -8  -2   0    2.54    0.69
  -8  -2   0    3.01    0.31
   8   2   0    1.95    0.80
  -8  -2  -1    0.13    0.68
   8   2   1    0.93    0.27
  -8  -2  -1    0.78    0.50
   8   2   1    1.55    0.73
  -8  -2  -2    4.13    1.03
   8   2   2    3.53    0.51
  -8  -2  -2    4.65    0.84
   8   2   2    1.56    0.78
  -8  -2  -3    8.93    1.48
   8   2   3    9.91    1.07
   8   2   3    6.41    1.38
  -8  -2  -4    0.37    0.58
   8   2   4    0.97    0.71
  -8  -2  -5    0.24    0.58
   8   2   5    0.33    0.12
   8   2   5   -0.15    0.63
  -8  -2  -6   -0.12    0.57
  -8  -2  -6    0.26    0.33
   8   2   6    0.11    0.10
   8   2   6   -0.15    0.65
  -8  -2  -7    1.42    0.78
  -8  -2  -7    0.84    0.43
   8   2   7    1.51    0.20
   8   2   8    5.01    0.79
  -8  -2  -8    4.94    1.13
  -8  -2  -8    4.80    0.99
   8   2   8    5.83    0.58
   8   2   9    0.33    0.35
  -8  -2  -9    0.46    0.77
  -8  -2  -9    0.76    0.65
   8   2   9    0.19    0.85
  -8  -2 -10    2.82    0.84
   8   2  10    1.79    0.57
   8   2  10    2.56    0.46
   8   2  10    1.77    1.07
   8   2  11    5.73    0.73
  -8  -3   6   -0.16    0.84
  -8  -3   5    2.08    1.00
   8   3  -5    2.66    0.70
  -8  -3   4    3.61    1.23
   8   3  -4    5.28    0.69
   8   3  -4    5.93    0.93
  -8  -3   4    5.53    0.68
   8   3  -3    1.86    0.58
  -8  -3   3    2.00    0.97
   8   3  -3    1.88    0.39
  -8  -3   3    2.12    0.56
  -8  -3   3    2.36    0.40
   8   3  -2    0.06    0.38
  -8  -3   2    0.30    0.72
   8   3  -2    0.18    0.23
  -8  -3   2   -0.06    0.42
  -8  -3   2    0.49    0.26
  -8  -3   1    0.15    0.71
   8   3  -1    0.03    0.23
  -8  -3   1    0.39    0.41
  -8  -3   1    0.41    0.21
   8   3  -1    0.53    0.64
  -8  -3   0    0.99    0.76
   8   3   0    2.56    0.41
  -8  -3   0    2.27    0.63
  -8  -3   0    2.44    0.27
  -8  -3   0    3.00    0.37
   8   3   0    2.22    0.82
   8   3   1    4.81    0.59
  -8  -3  -1    4.05    0.82
  -8  -3  -1    4.45    0.45
  -8  -3  -1    4.03    0.49
  -8  -3  -2    1.88    0.90
  -8  -3  -2    3.03    0.73
  -8  -3  -2    3.58    0.40
   8   3   2    1.70    0.81
  -8  -3  -3   66.14    8.36
  -8  -3  -3   86.12    7.81
  -8  -3  -4    0.26    0.60
  -8  -3  -4    1.10    0.18
   8   3   4    0.70    0.61
   8   3   5    4.99    0.73
  -8  -3  -5    4.23    1.09
   8   3   5    4.79    0.51
  -8  -3  -5    5.30    0.52
   8   3   5    3.21    1.08
  -8  -3  -6    1.28    0.77
  -8  -3  -6    1.60    0.38
  -8  -3  -6    2.08    0.22
   8   3   6    1.61    0.21
  -8  -3  -7    4.19    1.10
  -8  -3  -7    4.34    0.41
   8   3   7    2.79    1.06
   8   3   7    3.96    0.43
  -8  -3  -8    1.78    0.83
   8   3   8    2.44    0.96
  -8  -3  -9    0.57    0.52
  -8  -3  -9    0.13    0.70
  -8  -3 -10   -0.12    0.84
  -8  -3 -10    1.51    0.75
   8   3  10    0.40    0.37
   8   3  11    1.96    0.44
  -8  -4   5    0.16    0.87
   8   4  -5    0.07    0.48
   8   4  -4   46.43    4.36
   8   4  -4   51.27    4.65
  -8  -4   3    5.90    1.51
   8   4  -3    8.12    0.98
   8   4  -3    7.99    1.19
  -8  -4   3    9.73    0.96
   8   4  -2    1.22    0.51
  -8  -4   2    0.61    0.74
   8   4  -2    0.97    0.31
  -8  -4   2    1.25    0.45
  -8  -4   2    1.19    0.29
  -8  -4   1    5.52    1.33
   8   4  -1    5.10    0.68
  -8  -4   1    5.28    0.86
  -8  -4   1    5.96    0.65
  -8  -4   0    0.58    0.73
  -8  -4   0    0.08    0.10
  -8  -4   0    0.19    0.38
  -8  -4   0    0.05    0.19
   8   4   0   -0.26    0.56
  -8  -4  -1    6.72    1.43
  -8  -4  -1    9.04    1.20
  -8  -4  -1    8.24    0.81
  -8  -4  -1    9.01    0.88
   8   4   1    5.08    1.29
  -8  -4  -2    1.99    0.66
   8   4   2    2.63    0.84
  -8  -4  -2    2.46    0.33
   8   4   3    0.92    0.30
   8   4   3    0.40    0.68
  -8  -4  -3    0.98    0.20
   8   4   4    6.44    0.85
  -8  -4  -4    3.70    1.14
  -8  -4  -4    7.33    0.68
   8   4   4    2.93    1.07
  -8  -4  -5    0.27    0.67
   8   4   5   -0.17    0.34
   8   4   5    0.17    0.10
  -8  -4  -5    0.06    0.11
   8   4   5   -0.15    0.68
  -8  -4  -6    0.14    0.64
   8   4   6    0.23    0.35
   8   4   6    0.74    0.12
  -8  -4  -6    1.02    0.14
   8   4   6    0.15    0.67
  -8  -4  -7    2.59    0.99
  -8  -4  -7    1.84    0.19
   8   4   7    1.80    0.92
   8   4   7    1.63    0.20
  -8  -4  -8    3.69    1.10
   8   4   8    2.43    1.00
  -8  -4  -9    5.21    1.24
   8   4   9    4.25    1.28
  -8  -4 -10   -0.13    0.73
   8   4  10    0.20    0.87
  -8  -4 -11    0.13    0.76
   8   4  11   -0.22    0.32
  -8  -5   4   -0.16    0.82
   8   5  -4    0.07    0.50
   8   5  -3    7.95    0.92
   8   5  -3    7.86    1.12
  -8  -5   3    8.24    0.89
  -8  -5   2    3.26    1.06
  -8  -5   2    2.78    0.42
  -8  -5   1    4.30    1.24
  -8  -5   1    4.74    0.79
  -8  -5   1    7.02    0.67
   8   5   0    1.36    0.35
  -8  -5   0    1.06    0.86
  -8  -5   0    1.22    0.47
   8   5   0    0.53    0.74
  -8  -5   0    1.47    0.29
   8   5   1    4.19    0.57
  -8  -5  -1    4.14    0.76
  -8  -5  -1    3.91    0.43
  -8  -5  -1    4.27    0.49
   8   5   1    2.61    0.92
   8   5   2    7.87    0.93
  -8  -5  -2    3.54    1.29
  -8  -5  -2    8.09    1.17
  -8  -5  -2    8.42    0.80
   8   5   2    4.87    1.28
  -8  -5  -2    8.31    0.83
   8   5   3    0.83    0.32
   8   5   3    0.27    0.58
  -8  -5  -3    0.87    0.20
   8   5   4    0.61    0.32
  -8  -5  -4    1.16    0.75
  -8  -5  -4    0.83    0.18
   8   5   4    0.70    0.69
  -8  -5  -5    0.72    0.75
   8   5   5    1.06    0.39
  -8  -5  -5    1.61    0.22
   8   5   5    1.17    0.76
   8   5   6    8.74    1.09
  -8  -5  -6    7.25    1.54
   8   5   6    7.67    0.83
  -8  -5  -7   -0.87    0.79
   8   5   7   -0.16    0.68
  -8  -5  -7    0.26    0.08
  -8  -5  -8   13.49    1.95
  -8  -5  -8    9.59    1.48
   8   5   8   11.07    1.93
  -8  -5  -9   74.06    6.36
   8   5   9   63.90    6.82
  -8  -5 -10    0.14    0.84
  -8  -5 -10    0.10    0.56
   8   5  10   -0.19    0.91
  -8  -5 -11    0.41    0.97
  -8  -6   4    0.16    0.82
  -8  -6   3    0.95    0.95
   8   6  -3    0.14    0.93
   8   6  -2    1.55    0.38
  -8  -6   2    0.48    0.80
  -8  -6   2    1.48    0.35
   8   6  -2    0.14    0.78
   8   6  -1    0.45    0.30
  -8  -6   1    0.47    0.86
   8   6  -1    0.13    0.70
  -8  -6   1   -0.04    0.25
   8   6   0    1.79    0.41
  -8  -6   0    1.41    0.89
  -8  -6   0    2.72    0.37
   8   6   1    7.42    0.91
  -8  -6  -1    6.28    1.03
  -8  -6  -1    8.05    0.78
   8   6   1    6.79    1.37
  -8  -6  -1    9.06    0.86
  -8  -6  -2   42.86    5.74
   8   6   2   53.50    5.17
  -8  -6  -2   55.22    5.41
  -8  -6  -2   52.93    5.05
  -8  -6  -2   58.37    5.10
   8   6   3   14.96    1.72
  -8  -6  -3   16.77    1.60
  -8  -6  -3   18.40    1.64
   8   6   4    0.35    0.30
  -8  -6  -4    0.65    0.22
   8   6   5    1.60    0.43
  -8  -6  -5    1.39    0.84
  -8  -6  -5    1.41    0.25
   8   6   5    0.73    0.74
  -8  -6  -6    4.33    1.25
   8   6   6    4.67    0.80
  -8  -6  -6    6.23    0.59
   8   6   6    3.53    1.16
  -8  -6  -7    0.47    0.89
   8   6   7    0.05    0.38
   8   6   7    0.81    0.85
  -8  -6  -8   -0.16    0.85
  -8  -6  -8    0.52    0.53
   8   6   8   -0.69    0.82
  -8  -6  -9   -0.16    0.94
  -8  -6  -9    1.20    0.60
   8   6   9    2.55    1.15
  -8  -6 -10    0.31    0.88
  -8  -6 -10    0.78    0.61
   8   6  10    0.58    0.81
  -8  -6 -11   -0.15    0.81
  -8  -6 -12    0.28    1.08
  -8  -7   3   -0.32    0.81
  -8  -7   2    0.97    0.94
   8   7  -1    0.47    0.31
  -8  -7   1    0.97    0.88
   8   7  -1   -0.13    0.71
  -8  -7   1    0.28    0.35
   8   7   0    2.45    0.46
  -8  -7   0    2.60    1.06
  -8  -7   0    3.27    0.49
   8   7   1    1.07    0.34
  -8  -7  -1    1.30    0.97
  -8  -7  -1    1.21    0.22
   8   7   1   -0.13    0.60
  -8  -7  -1    2.08    0.44
   8   7   2    2.33    0.46
  -8  -7  -2    1.95    0.98
  -8  -7  -2    2.27    0.61
  -8  -7  -2    2.60    0.34
   8   7   2    1.31    0.79
   8   7   3    2.89    0.49
  -8  -7  -3    2.60    0.99
  -8  -7  -3    2.13    0.33
  -8  -7  -3    4.12    0.45
   8   7   3    1.07    0.77
   8   7   4    1.55    0.40
  -8  -7  -4    1.46    0.27
  -8  -7  -4    1.61    0.28
   8   7   4    0.83    0.74
   8   7   5   11.32    1.37
  -8  -7  -5    9.80    1.97
  -8  -7  -5   13.28    1.21
   8   7   5    7.39    1.72
  -8  -7  -6    0.33    0.77
   8   7   6    0.40    0.34
  -8  -7  -6    0.32    0.14
   8   7   6   -0.15    0.81
  -8  -7  -7    1.49    0.91
   8   7   7    1.20    0.46
   8   7   7    0.16    0.92
  -8  -7  -8    0.84    0.86
  -8  -7  -8    0.68    0.59
   8   7   8    0.17    0.96
  -8  -7  -9    0.50    0.93
  -8  -7  -9   -0.09    0.53
   8   7   9   -0.18    0.88
  -8  -7 -10   -0.10    0.53
  -8  -7 -10    0.16    0.90
   8   7  10   -0.19    0.96
  -8  -7 -11   -0.16    0.99
  -8  -7 -12    0.15    0.99
  -8  -8   2    1.80    1.08
  -8  -8   1    0.17    0.85
  -8  -8   0    0.84    0.92
  -8  -8   0    1.18    0.36
   8   8   1    4.26    0.65
  -8  -8  -1    3.55    1.27
  -8  -8  -1    6.08    0.63
   8   8   2    1.60    0.38
  -8  -8  -2    1.53    0.97
  -8  -8  -2    1.66    0.26
  -8  -8  -2    1.61    0.33
   8   8   2   -0.13    0.78
   8   8   3    0.68    0.33
  -8  -8  -3    1.03    0.82
  -8  -8  -3    0.62    0.20
  -8  -8  -3    0.33    0.22
   8   8   3   -0.13    0.69
   8   8   4    1.07    0.36
  -8  -8  -4    0.52    0.86
  -8  -8  -4    0.94    0.23
  -8  -8  -4    0.94    0.23
   8   8   4   -0.14    0.71
   8   8   5    0.74    0.39
  -8  -8  -5    1.55    0.28
  -8  -8  -5    1.28    0.24
  -8  -8  -6    5.24    1.34
   8   8   6    5.40    0.73
  -8  -8  -7    1.58    0.97
   8   8   7    0.81    0.41
  -8  -8  -7    0.63    0.51
   8   8   7    0.16    0.81
  -8  -8  -8    1.93    1.05
  -8  -8  -8    2.20    0.71
   8   8   8    0.17    1.17
  -8  -8  -9    2.96    1.19
  -8  -8  -9    2.69    0.78
   8   8   9    0.18    1.07
  -8  -8 -10    0.68    1.16
  -8  -8 -10    0.64    0.60
   8   8  10    0.19    1.06
  -8  -9   0   -0.17    0.88
  -8  -9  -1   14.03    2.59
  -8  -9  -1   19.87    1.90
   8   9   2    1.10    0.37
  -8  -9  -2    1.06    0.87
  -8  -9  -2    0.79    0.24
  -8  -9  -2    1.22    0.28
   8   9   3    0.73    0.35
  -8  -9  -3   -0.18    0.94
  -8  -9  -3    0.87    0.23
  -8  -9  -3    0.67    0.26
   8   9   4    0.47    0.33
  -8  -9  -4    1.27    1.02
  -8  -9  -4    0.42    0.21
  -8  -9  -4    0.53    0.21
   8   9   4    0.13    0.76
   8   9   5    0.55    0.35
  -8  -9  -5    0.18    0.83
  -8  -9  -5    0.16    0.21
   8   9   5   -0.14    0.70
  -8  -9  -5    0.34    0.19
   8   9   6    0.87    0.40
  -8  -9  -6    0.70    0.25
   8   9   6   -0.15    0.78
   8   9   7    0.76    0.46
  -8  -9  -7    0.92    0.96
  -8  -9  -7    1.78    0.65
   8   9   7    0.16    1.03
   8   9   8    0.25    0.41
  -8  -9  -8    0.36    0.99
  -8  -9  -8    0.41    0.51
   8   9   8   -0.16    0.82
  -8  -9  -9    0.09    0.55
   8   9   9   -0.17    0.89
  -8  -9 -10    0.61    0.59
   8   9  10    0.18    1.20
  -8 -10  -2    4.80    0.54
  -8 -10  -2    4.17    0.57
  -8 -10  -3    0.96    0.25
  -8 -10  -3    1.23    0.29
  -8 -10  -4    0.04    0.20
   8  10   4    0.19    0.34
  -8 -10  -5    1.19    0.27
   8  10   5    0.32    0.43
  -8 -10  -6    0.98    0.50
   8  10   6    0.96    0.49
  -8 -10  -6    1.57    0.31
  -8 -10  -7    6.60    1.09
   8  10   7    4.34    0.99
   8  10   8    0.30    0.46
  -8 -10  -8    0.56    0.53
   8  10   8   -0.16    0.92
  -8 -10  -9   -0.24    0.53
   8  10   9    0.17    0.90
  -8 -10 -10    3.13    0.82
   8  11   7   19.67    2.32
   8  11   8    1.30    0.57
  -8 -11  -9    0.22    0.48
   9  -8  -2    0.59    0.69
   9  -8  -1    1.29    0.82
   9  -8   0    0.56    0.72
  -9   8  -1    0.28    0.81
   9  -7  -3   -0.12    0.90
   9  -7  -3    2.63    0.98
   9  -7  -2    0.12    0.76
   9  -7  -2   -0.15    0.68
   9  -7  -1    0.23    1.07
   9  -7  -1    2.19    0.90
  -9   7   0    0.46    0.98
   9  -7   0    0.58    0.74
   9  -7   0    0.11   37.63
  -9   7  -1    0.71    1.05
   9  -7   1    0.22    0.98
  -9   7  -2   -0.13    0.86
   9  -7   2    0.10    0.69
   9  -7   2   -0.72    0.78
   9  -7   3    0.91    0.30
   9  -7   3    0.72    0.77
   9  -7   4    1.26    0.34
   9  -6  -4   -0.11    0.68
   9  -6  -3    4.66    0.78
   9  -6  -3   -0.11    0.94
   9  -6  -2   -0.11    0.73
  -9   6   2    0.42    0.77
   9  -6  -2    1.36    0.88
   9  -6  -1   14.19    1.25
   9  -6  -1    8.70    1.77
   9  -6   0   -0.10    0.67
  -9   6   0    0.30    0.81
  -9   6   0    1.39    0.91
   9  -6   0    1.15    0.29
   9  -6   0    0.87    0.72
   9  -6   1    0.20    0.90
  -9   6  -1    0.28    0.99
  -9   6  -1    4.67    1.16
   9  -6   1    2.47    0.96
   9  -6   1    4.26    0.48
   9  -6   2    0.10    0.74
  -9   6  -2    0.26    0.81
  -9   6  -2    3.86    1.10
   9  -6   2    2.31    0.36
   9  -6   2    2.10    0.36
   9  -6   3   -0.10    0.62
  -9   6  -3    0.12    0.83
  -9   6  -3    1.25    0.85
   9  -6   3    0.75    0.28
   9  -6   3    0.52    0.26
   9  -6   4    0.88    0.42
   9  -6   4    0.56    0.30
   9  -6   4   -0.09    0.67
   9  -6   4    0.45    0.74
   9  -6   5    1.85    0.54
   9  -6   5    0.09    0.75
   9  -6   5    1.39    0.96
   9  -5  -5    0.11    0.82
   9  -5  -4   -0.10    0.75
   9  -5  -4    1.62    0.59
  -9   5   4    1.72    0.87
   9  -5  -3   -0.10    0.61
   9  -5  -3    0.21    0.48
  -9   5   3    0.80    0.78
   9  -5  -2   -0.10    0.65
  -9   5   2    1.35    1.00
  -9   5   2    0.93    0.76
   9  -5  -2    1.06    0.87
  -9   5   1    3.02    1.11
   9  -5  -1    4.36    0.49
  -9   5   1    3.59    1.07
   9  -5  -1    2.08    0.93
  -9   5   0    2.24    0.93
   9  -5   0    0.09    0.68
   9  -5   0    1.96    0.33
   9  -5   0    1.02    0.84
   9  -5   1    0.18    0.79
  -9   5  -1    0.98    1.15
   9  -5   1    3.87    0.46
  -9   5  -1    5.64    1.26
   9  -5   1    2.48    0.88
   9  -5   1    3.71    0.46
  -9   5  -2    8.41    3.45
   9  -5   2   35.22    2.82
  -9   5  -2   37.75    3.64
   9  -5   2   32.73    2.82
   9  -5   2   20.34    3.32
   9  -5   3    0.09    0.91
  -9   5  -3    0.25    0.99
   9  -5   3    3.64    0.63
   9  -5   3    4.62    0.53
  -9   5  -3    3.47    1.09
   9  -5   3    4.96    0.53
   9  -5   3    3.00    1.02
  -9   5  -4   -0.11    0.66
   9  -5   4    0.30    0.37
  -9   5  -4   -0.13    0.77
   9  -5   4    0.28    0.27
   9  -5   4   -0.04    0.22
   9  -5   4    0.09    0.64
   9  -5   4   -0.46    0.84
   9  -5   5    0.17    0.38
  -9   5  -5    0.94    0.81
   9  -5   5    0.23    0.29
   9  -5   5    0.50    0.23
   9  -5   5   -0.09    0.58
   9  -5   5    0.64    0.91
   9  -5   6    4.04    0.82
   9  -5   6    3.60    1.21
   9  -5   6    5.44    0.62
   9  -5   7    1.68    1.00
   9  -4  -5   -0.10    0.69
  -9   4   5    1.50    0.81
   9  -4  -4    0.09    0.70
   9  -4  -4    0.52    0.52
  -9   4   4    0.25    0.69
   9  -4  -4    0.17    0.28
   9  -4  -3    0.09    0.59
   9  -4  -3    0.56    0.49
  -9   4   3   -0.25    0.78
  -9   4   3   -0.18    0.78
   9  -4  -3    0.27    0.28
  -9   4   2    5.82    1.18
  -9   4   2    4.99    1.30
   9  -4  -2    4.29    0.60
   9  -4  -1    0.09    0.53
  -9   4   1    0.47    0.79
   9  -4  -1    0.25    0.30
  -9   4   1    0.38    0.71
   9  -4   0    2.43    0.73
  -9   4   0    2.23    0.99
   9  -4   0    1.95    0.34
  -9   4   0    3.12    0.98
   9  -4   0    2.44    0.35
   9  -4   0    0.88    0.77
   9  -4   1    0.32    0.50
  -9   4  -1    0.98    0.79
   9  -4   1    0.10    0.21
   9  -4   1    0.09    0.20
   9  -4   1    0.15    0.63
   9  -4   2    1.72    0.64
  -9   4  -2   -0.13    0.73
   9  -4   2    2.23    0.43
  -9   4  -2    1.65    0.84
   9  -4   2    1.88    0.33
   9  -4   2    2.01    0.33
   9  -4   2    1.33    0.85
   9  -4   3    0.08    0.51
  -9   4  -3    0.87    0.80
   9  -4   3    0.26    0.31
  -9   4  -3    0.25    0.69
   9  -4   3    0.19    0.24
   9  -4   3   -0.15    0.70
   9  -4   3    0.05    0.19
   9  -4   4    3.34    0.59
  -9   4  -4    2.20    0.83
  -9   4  -4    4.08    1.04
   9  -4   4    2.51    0.43
   9  -4   4    3.31    0.41
   9  -4   4    3.42    1.07
   9  -4   5    7.57    0.99
  -9   4  -5    1.29    1.24
   9  -4   5    7.97    0.82
  -9   4  -5    9.14    1.48
   9  -4   5    0.78    1.14
   9  -4   5    5.63    1.39
   9  -4   5    7.83    0.76
   9  -4   6    0.25    0.41
  -9   4  -6   -0.13    0.77
   9  -4   6    0.12    0.29
   9  -4   6    0.41    0.24
   9  -4   6    0.67    0.76
   9  -4   7    2.29    0.65
  -9   4  -7    2.85    0.86
   9  -4   7    2.29    0.37
   9  -4   7    0.86    0.98
  -9   4  -8    2.14    0.84
   9  -4   8    1.79    1.10
  -9   3   6   -0.36    0.75
  -9   3   5    0.82    0.71
   9  -3  -5    0.24    0.26
   9  -3  -4   -0.09    0.64
   9  -3  -4    1.55    0.57
  -9   3   4    2.34    0.85
   9  -3  -4    1.38    0.35
  -9   3   4    1.46    1.08
   9  -3  -3    0.08    0.60
   9  -3  -3    0.50    0.48
  -9   3   3    0.24    0.66
   9  -3  -3    0.26    0.28
  -9   3   3   -0.17    0.83
   9  -3  -2   -0.08    0.52
   9  -3  -2    0.27    0.39
   9  -3  -2    0.26    0.27
  -9   3   2    0.17    0.90
  -9   3   2    1.19    0.78
   9  -3  -1    0.31    0.52
  -9   3   1    0.31    0.75
   9  -3  -1    0.21    0.29
  -9   3   1   -0.24    0.67
   9  -3  -1    1.04    0.78
   9  -3   0    3.25    0.73
  -9   3   0    2.52    0.97
   9  -3   0    2.49    0.50
  -9   3   0    4.51    1.04
   9  -3   0    1.61    0.83
   9  -3   1    5.11    0.89
  -9   3  -1    4.35    1.19
   9  -3   1    5.59    0.67
  -9   3  -1    5.04    1.13
   9  -3   1    5.21    0.60
   9  -3   1    3.51    1.11
   9  -3   2    0.34    0.48
   9  -3   2    0.31    0.27
  -9   3  -2    0.27    0.73
   9  -3   2   -0.04    0.24
   9  -3   2    0.91    0.23
   9  -3   2   -0.30    0.67
   9  -3   3    0.07    0.44
  -9   3  -3    0.25    0.66
   9  -3   3    0.33    0.34
  -9   3  -3    0.84    0.71
   9  -3   3    0.50    0.27
   9  -3   3    0.32    0.19
   9  -3   3    0.15    0.63
  -9   3  -4    0.47    0.68
   9  -3   4    0.24    0.34
  -9   3  -4    0.73    0.64
   9  -3   4    0.08    0.24
   9  -3   4    0.22    0.19
   9  -3   4    0.07    0.46
  -9   3  -5   -0.45    0.74
   9  -3   5    0.26    0.36
  -9   3  -5   -0.50    0.74
   9  -3   5    0.22    0.27
   9  -3   5    0.09    0.18
   9  -3   5   -0.49    0.77
   9  -3   5    0.07    0.55
   9  -3   6    0.87    0.47
  -9   3  -6    1.52    0.84
   9  -3   6    2.39    0.41
   9  -3   6    2.15    0.33
   9  -3   6    1.18    0.77
   9  -3   7    0.19    0.45
  -9   3  -7   -0.26    0.77
   9  -3   7   -0.20    0.29
   9  -3   7    0.10    0.21
   9  -3   7   -0.35    0.97
  -9   3  -8    2.56    0.86
   9  -3   8    2.18    0.37
   9  -3   8    1.65    1.03
  -9   2   6    2.33    0.85
   9  -2  -6    0.99    0.32
  -9   2   5    0.54    0.67
   9  -2  -5    0.75    0.29
  -9   2   4    0.22    0.70
   9  -2  -4    0.41    0.26
  -9   2   4   -0.36    0.94
   9  -2  -3    0.37    0.52
  -9   2   3    0.89    0.76
   9  -2  -3    0.28    0.26
   9  -2  -2   -0.14    0.50
   9  -2  -2   -0.20    0.45
   9  -2  -2   -0.06    0.25
  -9   2   2    0.33    0.73
  -9   2   2   -0.11    0.61
   9  -2  -1    3.11    0.72
   9  -2  -1    3.54    0.55
  -9   2   1    2.81    1.06
  -9   2   1    4.91    1.05
   9  -2  -1    2.39    0.87
   9  -2   0    4.36    0.75
  -9   2   0    2.67    0.99
   9  -2   0    3.05    0.41
   9  -2   0    2.94    0.53
  -9   2   0    5.42    1.09
   9  -2   0    2.50    0.94
  -9   2  -1   40.75    4.74
   9  -2   1   45.32    4.11
   9  -2   1   42.41    4.19
  -9   2  -1   54.91    4.81
   9  -2   1   43.92    4.33
   9  -2   2    0.99    0.49
  -9   2  -2    0.54    0.78
   9  -2   2    1.24    0.36
  -9   2  -2    1.59    0.74
   9  -2   2    1.69    0.27
   9  -2   2    2.07    0.84
  -9   2  -3    1.66    0.83
   9  -2   3    1.87    0.42
   9  -2   3    1.72    0.57
   9  -2   3    0.90    0.66
   9  -2   3    2.57    0.32
  -9   2  -4    3.16    0.94
   9  -2   4    3.20    0.55
  -9   2  -4    5.02    1.07
   9  -2   4    2.91    0.46
   9  -2   4    2.96    0.38
   9  -2   4    2.93    0.66
   9  -2   4    1.71    0.92
  -9   2  -5    1.62    0.79
   9  -2   5    3.30    0.60
  -9   2  -5    2.64    0.87
   9  -2   5    2.37    0.44
   9  -2   5    1.46    0.85
   9  -2   5    3.32    0.39
   9  -2   6    3.01    0.65
  -9   2  -6    3.83    1.04
   9  -2   6    3.53    0.51
   9  -2   6    4.09    0.45
   9  -2   7    0.24    0.39
  -9   2  -7   -0.13    0.74
   9  -2   7    0.62    0.33
   9  -2   7    0.40    0.22
   9  -2   7    0.71    0.93
  -9   2  -8    3.43    0.89
   9  -2   8    2.43    0.64
  -9   2  -8    3.92    1.11
   9  -2   8    2.76    0.39
   9  -2   9    2.32    1.11
   9  -1  -6   23.23    2.32
  -9   1   5    7.69    1.26
   9  -1  -5    6.15    0.78
   9  -1  -4    2.07    0.65
  -9   1   4    2.20    0.73
  -9   1   4    1.61    0.97
   9  -1  -4    1.86    0.38
   9  -1  -3    9.60    1.22
  -9   1   3    8.57    1.40
  -9   1   3    5.66    1.51
   9  -1  -3    7.96    0.92
   9  -1  -2    0.75    0.52
   9  -1  -2    0.38    0.26
  -9   1   2    0.52    0.60
  -9   1   1    6.73    1.57
   9  -1  -1    9.90    1.11
  -9   1   1   11.22    1.58
   9  -1  -1   11.37    1.33
   9  -1   0    0.71    0.49
   9  -1   0    1.21    0.35
  -9   1   0    1.19    0.81
   9  -1   0    0.84    0.21
  -9   1   0    0.75    0.65
   9  -1   1    0.56    0.40
  -9   1  -1    1.14    0.77
   9  -1   1    0.78    0.25
   9  -1   1    0.80    0.35
  -9   1  -1    0.86    0.64
   9  -1   1    0.15    0.65
  -9   1  -2    6.53    1.34
   9  -1   2    7.86    0.85
   9  -1   2    7.20    0.91
  -9   1  -2    8.73    1.31
   9  -1   2    6.56    0.94
   9  -1   3   -0.05    0.35
  -9   1  -3   -0.13    0.71
   9  -1   3    0.29    0.28
  -9   1  -3    0.11    0.57
   9  -1   3    0.04    0.16
  -9   1  -4    3.88    1.03
   9  -1   4    3.71    0.62
   9  -1   4    4.45    0.70
   9  -1   4    4.05    0.46
   9  -1   4    1.87    0.92
  -9   1  -5    0.60    0.72
   9  -1   5    1.63    0.44
   9  -1   5    1.39    0.24
   9  -1   5    0.16    0.75
   9  -1   6    4.36    0.74
  -9   1  -6    4.03    1.05
  -9   1  -6    6.14    1.22
   9  -1   6    4.35    0.62
   9  -1   6    2.20    1.06
   9  -1   6    5.06    0.53
  -9   1  -7    1.32    0.81
   9  -1   7    1.44    0.50
   9  -1   7    1.31    0.37
   9  -1   7    2.49    1.05
   9  -1   7    2.24    0.30
  -9   1  -8    1.05    0.70
   9  -1   8    1.33    0.51
   9  -1   8    0.77    0.33
   9  -1   8    1.18    0.25
   9  -1   8    1.31    0.92
  -9   1  -9    0.20    0.67
   9  -1   9   -0.20    0.93
  -9   0   5    7.62    1.26
   9   0  -5    6.37    0.80
   9   0  -4    2.77    0.68
  -9   0   4    1.73    0.70
  -9   0   4    1.60    1.01
   9   0  -4    1.07    0.36
   9   0  -3    8.76    1.26
  -9   0   3    9.78    1.44
  -9   0   3    8.56    1.75
   9   0  -3    8.98    1.00
   9   0  -2    1.44    0.53
  -9   0   2    0.82    0.81
   9   0  -2    0.78    0.29
  -9   0   2    1.17    0.69
   9   0  -1    4.39    0.60
  -9   0   1    5.87    1.07
   9   0   0    2.35    0.44
  -9   0   0    1.66    0.83
   9   0   0    2.34    0.32
  -9   0   0    2.92    0.79
   9   0   0    0.59    0.67
   9   0   1    0.80    0.34
  -9   0  -1    0.72    0.82
   9   0   1    1.21    0.26
  -9   0  -1    1.41    0.67
  -9   0  -2    1.11    0.74
   9   0   2    0.70    0.25
   9   0   2    0.24    0.31
  -9   0  -2    1.03    0.63
  -9   0  -3    0.80    0.69
   9   0   3    1.00    0.34
   9   0   3    1.06    0.38
  -9   0  -3    2.00    0.80
   9   0   3    1.44    0.25
   9   0   3    1.69    0.39
  -9   0  -4    3.62    1.08
   9   0   4    4.75    0.71
   9   0   4    4.35    1.18
   9   0   4    5.38    0.57
  -9   0  -5   -0.13    0.65
   9   0   5   -0.22    0.32
   9   0   5   -0.04    0.15
   9   0   6   13.04    1.56
  -9   0  -6   11.02    1.87
   9   0   6    9.48    2.00
   9   0   6   14.88    1.36
  -9   0  -7   61.24    7.15
   9   0   7   63.15    6.82
   9   0   7   68.80    6.69
   9   0   7   53.05    7.34
   9   0   7   76.49    6.60
   9   0   8    0.65    0.42
  -9   0  -8    0.34    0.71
   9   0   8    0.76    0.33
   9   0   8    0.61    0.19
   9   0   8   -0.37    0.83
  -9   0  -9    1.82    0.79
   9   0   9    1.42    0.54
   9   0   9    1.96    0.41
   9   0   9    0.20    0.91
   9   1  -5    1.20    0.35
   9   1  -4    0.38    0.55
  -9  -1   4   -0.18    0.89
   9   1  -4   -0.03    0.30
  -9  -1   4    0.08    0.56
  -9  -1   4    0.15    0.30
   9   1  -3    1.66    0.63
  -9  -1   3    2.14    0.70
  -9  -1   3    1.71    0.99
   9   1  -3    1.44    0.37
   9   1  -2    4.35    0.79
  -9  -1   2    3.97    1.17
   9   1  -2    3.91    0.56
  -9  -1   2    3.40    0.87
   9   1  -1    6.70    0.74
  -9  -1   1    6.18    1.09
   9   1  -1    4.38    1.18
  -9  -1   0   39.38    5.03
   9   1   0   49.80    4.44
   9   1   0   45.58    4.33
  -9  -1   0   51.53    4.88
   9   1   0   35.95    4.93
  -9  -1  -1    8.42    1.69
   9   1   1   13.10    1.32
   9   1   1   12.19    1.22
  -9  -1  -1   13.63    1.71
   9   1   1    7.78    1.66
   9   1   2    0.50    0.30
  -9  -1  -2    0.29    0.70
   9   1   2    0.75    0.25
  -9  -1  -2    1.08    0.69
   9   1   2   -0.15    0.60
  -9  -1  -3    2.35    0.91
   9   1   3    3.89    0.54
   9   1   3    3.96    0.61
  -9  -1  -3    3.54    0.91
   9   1   3    2.41    0.92
  -9  -1  -4    2.95    1.04
   9   1   4    4.31    0.65
   9   1   4    4.74    0.72
   9   1   4    4.68    0.51
   9   1   5    3.51    0.60
  -9  -1  -5    3.79    1.05
   9   1   5    4.15    0.45
   9   1   6    0.22    0.30
   9   1   6    0.10    0.13
   9   1   6   -0.17    0.73
   9   1   7    2.69    0.55
  -9  -1  -7    2.99    0.92
   9   1   7    2.84    1.05
   9   1   7    2.97    0.35
   9   1   8   -0.11    0.37
   9   1   8    0.32    0.15
   9   1   8    0.19    0.78
  -9  -1  -9    1.21    0.74
   9   1   9    0.97    0.49
   9   1   9    0.86    0.35
   9   1   9    0.79    0.90
  -9  -2   4    2.65    1.20
   9   2  -4    4.51    0.62
   9   2  -3    1.30    0.59
  -9  -2   3    2.06    0.98
   9   2  -3    1.67    0.39
  -9  -2   3    1.28    0.58
  -9  -2   3    1.68    0.37
   9   2  -2    2.28    0.62
  -9  -2   2    1.83    0.99
   9   2  -2    2.91    0.48
  -9  -2   2    2.59    0.74
  -9  -2   2    3.01    0.44
  -9  -2   1    0.65    0.75
   9   2  -1    0.66    0.30
  -9  -2   1    0.58    0.55
   9   2  -1   -0.15    0.69
   9   2   0    1.26    0.33
   9   2   0    0.66    0.21
  -9  -2   0    1.05    0.54
   9   2   0    1.34    0.73
  -9  -2  -1    1.21    0.85
   9   2   1    1.86    0.42
   9   2   1    2.98    0.39
  -9  -2  -1    3.23    0.78
   9   2   1    1.77    0.83
  -9  -2  -2    1.18    0.83
   9   2   2    2.18    0.46
  -9  -2  -2    2.04    0.71
   9   2   2    2.37    0.93
  -9  -2  -3   12.31    1.97
   9   2   3   13.50    1.49
   9   2   3    9.34    1.89
   9   2   4    0.63    0.37
  -9  -2  -4    0.14    0.67
   9   2   4   -0.47    0.74
   9   2   5    2.06    0.51
  -9  -2  -5    1.51    0.87
   9   2   5    2.43    0.29
   9   2   6    0.77    0.34
  -9  -2  -6    1.08    0.76
   9   2   6    0.97    0.17
   9   2   7    0.23    0.30
  -9  -2  -7    0.13    0.72
   9   2   7    0.43    0.13
   9   2   8    0.16    0.35
  -9  -2  -8    0.91    0.81
   9   2   8    0.31    0.14
   9   2   9    0.91    0.41
  -9  -2  -9    0.13    0.79
  -9  -2  -9    0.70    0.63
   9   2   9    0.98    0.99
   9   2  10    0.50    0.44
  -9  -3   4    1.06    1.00
  -9  -3   3    0.87    0.90
   9   3  -3    0.09    0.29
   9   3  -3    0.07    0.47
  -9  -3   3    0.40    0.29
  -9  -3   2    1.35    0.95
   9   3  -2    1.43    0.38
  -9  -3   2    1.84    0.58
  -9  -3   2    2.15    0.38
   9   3  -2    0.16    0.89
  -9  -3   1    0.66    0.88
   9   3  -1    3.16    0.52
  -9  -3   1    4.46    0.83
  -9  -3   1    5.10    0.53
   9   3  -1    0.15    0.90
  -9  -3   0    1.28    0.85
   9   3   0    1.27    0.35
  -9  -3   0    1.46    0.63
  -9  -3   0    2.05    0.33
   9   3   0    0.45    0.76
   9   3   1    0.82    0.31
  -9  -3  -1    1.43    0.59
   9   3   1    0.15    0.60
  -9  -3  -1    0.84    0.24
  -9  -3  -2    0.15    0.71
   9   3   2    0.46    0.31
  -9  -3  -2    0.44    0.56
   9   3   2    0.45    0.60
  -9  -3  -2    0.44    0.19
   9   3   3    0.63    0.35
  -9  -3  -3    1.34    0.78
  -9  -3  -3    0.75    0.56
  -9  -3  -3    0.99    0.21
  -9  -3  -4    6.28    1.45
   9   3   4    6.68    1.45
  -9  -3  -4    8.25    0.82
  -9  -3  -5    0.29    0.69
   9   3   5    0.90    0.17
  -9  -3  -5    0.85    0.18
  -9  -3  -6    3.84    1.20
  -9  -3  -6    6.02    0.56
   9   3   6    3.03    1.15
   9   3   6    5.03    0.55
  -9  -3  -7    5.35    1.34
   9   3   7    5.31    1.39
   9   3   7    6.21    0.61
  -9  -3  -8    1.81    0.86
   9   3   8    1.12    0.88
  -9  -3  -9    0.14    0.76
   9   3   9    0.27    0.38
  -9  -3  -9   -0.10    0.58
   9   3  10    1.66    0.54
  -9  -3 -10    0.68    1.02
  -9  -4   3    0.87    0.94
   9   4  -3    1.51    0.60
  -9  -4   2    1.89    1.10
   9   4  -2    1.23    0.37
  -9  -4   2    1.85    0.37
   9   4  -2    0.16    0.99
   9   4  -1   26.34    2.64
  -9  -4   1   30.44    2.91
  -9  -4   1   32.41    2.61
   9   4   0    1.54    0.37
  -9  -4   0    0.99    0.98
  -9  -4   0    1.18    0.53
   9   4   0   -0.15    0.89
  -9  -4   0    1.66    0.31
  -9  -4  -1    1.13    0.89
  -9  -4  -1    0.70    0.51
   9   4   1    0.15    0.68
  -9  -4  -1    0.51    0.22
  -9  -4  -2    2.76    0.76
  -9  -4  -2    2.98    0.35
   9   4   2    1.19    0.82
  -9  -4  -2    3.00    0.40
  -9  -4  -3    0.16    0.71
  -9  -4  -3    0.09    0.52
   9   4   3   -0.15    0.65
  -9  -4  -3    0.11    0.18
   9   4   4    5.27    0.74
  -9  -4  -4    3.98    1.22
  -9  -4  -4    5.01    0.54
   9   4   4    2.95    1.05
  -9  -4  -5    1.06    0.77
   9   4   5    0.93    0.42
   9   4   5    1.18    0.19
  -9  -4  -5    1.51    0.21
   9   4   5   -0.16    0.74
  -9  -4  -6   -0.15    0.70
   9   4   6   -0.26    0.36
   9   4   6    0.24    0.10
  -9  -4  -6    0.37    0.12
   9   4   6   -0.17    0.70
  -9  -4  -7    0.90    0.76
   9   4   7    1.77    0.91
  -9  -4  -8   -0.15    0.79
   9   4   8    1.67    1.03
  -9  -4  -9    0.30    1.13
   9   4   9    2.54    1.18
  -9  -4 -10    0.15    0.89
   9   5  -3    0.16    0.89
  -9  -5   2    0.17    0.94
   9   5  -2   -0.16   37.06
  -9  -5   1    0.34    0.82
   9   5  -1    0.15    0.91
  -9  -5   1    0.24    0.25
  -9  -5   0    7.63    1.62
  -9  -5   0    7.87    1.14
  -9  -5   0    8.69    0.86
  -9  -5  -1    0.22    0.41
   9   5   1   -0.15    0.73
  -9  -5  -1    0.25    0.20
   9   5   2    0.66    0.33
  -9  -5  -2    0.82    0.73
  -9  -5  -2    0.49    0.17
  -9  -5  -2    0.47    0.48
   9   5   2   -0.15    0.75
  -9  -5  -2    0.66    0.22
   9   5   3    1.58    0.43
   9   5   3    1.06    0.83
  -9  -5  -3    2.28    0.31
   9   5   4    4.93    0.71
  -9  -5  -4    3.54    1.18
  -9  -5  -4    4.89    0.53
   9   5   4    3.27    1.10
   9   5   5   10.54    1.36
  -9  -5  -5    8.30    1.80
  -9  -5  -5   12.76    1.17
   9   5   5    8.70    1.84
  -9  -5  -6    0.79    0.77
   9   5   6    1.15    0.45
  -9  -5  -6    1.87    0.25
   9   5   6    0.50    0.80
  -9  -5  -7    0.79    0.81
   9   5   7    0.88    0.87
  -9  -5  -8    0.16    0.94
   9   5   8    1.30    0.89
  -9  -5  -9    1.27    1.32
  -9  -5  -9    3.25    0.88
   9   5   9    4.09    1.25
  -9  -5 -10    0.31    1.03
  -9  -5 -11    0.45    0.95
   9   6  -2    0.15    0.85
  -9  -6   1    1.58    0.97
   9   6  -1   -0.15    0.74
  -9  -6   1    0.77    0.30
   9   6   0    0.03    0.29
  -9  -6   0    0.87    1.01
   9   6   0   -0.15    0.71
  -9  -6   0    0.13    0.25
   9   6   1    0.14    0.30
  -9  -6  -1    0.17    0.92
   9   6   1    0.15    0.69
  -9  -6  -1    0.10    0.24
   9   6   2    3.60    0.56
  -9  -6  -2    2.85    0.70
  -9  -6  -2    3.45    0.44
   9   6   3   -0.15    0.31
  -9  -6  -3    0.17    0.17
   9   6   3    0.15    0.72
  -9  -6  -3    0.19    0.20
   9   6   4    7.74    1.01
  -9  -6  -4   10.03    0.88
   9   6   5   77.24    8.79
  -9  -6  -5   67.64    9.30
  -9  -6  -6    4.54    1.27
   9   6   6    2.31    0.66
  -9  -6  -6    4.87    0.48
  -9  -6  -7    1.85    1.01
   9   6   7    1.12    0.46
   9   6   7    0.18    0.97
  -9  -6  -8    0.51    0.93
   9   6   8    0.55    0.90
  -9  -6  -9    1.18    1.48
  -9  -6  -9    3.82    0.90
   9   6   9    3.29    1.28
  -9  -6 -10    0.17    0.92
  -9  -6 -11    0.16    1.02
  -9  -7   0    0.72    0.94
   9   7   0   -0.15    0.85
  -9  -7   0    1.42    0.40
  -9  -7  -1    1.25    1.11
   9   7   1   -0.15    0.87
  -9  -7  -1    3.16    0.46
   9   7   2    0.83    0.36
   9   7   2    0.15    0.78
  -9  -7  -2    0.74    0.34
   9   7   3    1.20    0.39
  -9  -7  -3    0.53    0.82
  -9  -7  -3    1.36    0.25
  -9  -7  -3    1.62    0.46
   9   7   3   -0.15    0.69
   9   7   4    0.48    0.34
  -9  -7  -4    0.61    0.22
  -9  -7  -4    0.92    0.29
   9   7   4    0.15    0.76
   9   7   5    0.66    0.38
  -9  -7  -5    0.35    0.93
  -9  -7  -5    0.58    0.21
   9   7   5    0.16    0.88
  -9  -7  -6    2.84    1.13
   9   7   6    4.01    0.66
  -9  -7  -7   -0.36    0.91
   9   7   7   -0.10    0.42
   9   7   7    0.17    0.87
  -9  -7  -8    5.89    1.50
  -9  -7  -8    6.59    1.11
  -9  -7  -9    0.58    0.64
  -9  -7  -9    0.18    1.16
   9   7   9   -0.19    1.15
  -9  -8  -1    6.32    0.77
  -9  -8  -2    0.48    0.29
   9   8   2    0.15    0.73
   9   8   3    0.88    0.36
  -9  -8  -3    1.30    1.01
  -9  -8  -3    0.70    0.22
  -9  -8  -3    0.64    0.27
   9   8   4    1.87    0.46
  -9  -8  -4    0.93    1.01
  -9  -8  -4    1.13    0.26
  -9  -8  -4    1.21    0.27
   9   8   4    0.15    0.88
   9   8   5    0.09    0.35
  -9  -8  -5   -0.03    0.21
  -9  -8  -5    0.17    0.19
  -9  -8  -6    0.37    0.94
   9   8   6   -0.19    0.44
   9   8   6   -0.16    0.80
  -9  -8  -7    0.38    0.98
   9   8   7    0.47    0.44
   9   8   7    0.17    0.97
  -9  -8  -8    0.90    0.58
   9   8   8   -0.18    0.96
  -9  -8  -9    3.06    0.80
   9   8   9    0.19    1.06
  -9  -9  -2    3.54    0.49
  -9  -9  -3    1.78    0.34
  -9  -9  -4    1.50    0.30
  -9  -9  -4    1.92    0.32
  -9  -9  -5    1.96    0.33
   9   9   5    0.15    1.08
  -9  -9  -6    1.58    0.32
   9   9   6   -0.16    0.99
  -9  -9  -7    0.59    0.57
  -9  -9  -7   -0.02    0.25
   9   9   7    0.17    0.96
  -9  -9  -8    0.71    0.59
   9   9   8    0.18    0.90
  -9 -10  -3    1.28    0.32
  -9 -10  -4    2.17    0.35
  -9 -10  -4    1.93    0.35
  -9 -10  -6    0.08    0.49
  -9 -10  -7    2.27    0.70
  -9 -10  -8   -0.26    0.63
   9  10   8    0.17    0.89
  10  -7   0    1.12    0.89
  10  -7   1    0.79    0.94
  10  -7   2    1.58    0.89
  10  -6  -2    0.11    0.77
  10  -6  -1    0.11    0.81
  10  -6   0    0.21    0.93
  10  -6   0    3.41    1.12
  10  -6   1    0.10    0.61
  10  -6   1    0.16    0.73
  10  -6   2    0.10    0.90
 -10   6  -2    0.44    1.13
  10  -6   3   -0.10    0.67
  10  -6   3    0.94    0.32
  10  -6   4    2.48    1.20
  10  -5  -1    0.10    0.64
  10  -5  -1    0.33    0.73
 -10   5   0   -0.17    0.81
  10  -5   0    0.09    0.64
  10  -5   0    0.16    0.68
 -10   5  -1   -0.16    0.85
  10  -5   1   -0.09    0.76
  10  -5   1    1.14    0.83
 -10   5  -2    0.29   57.89
  10  -5   2    0.18    0.85
  10  -5   2    3.85    0.47
  10  -5   2    1.64    0.97
  10  -5   3   -0.09    0.62
 -10   5  -3    0.55    0.75
  10  -5   3    0.61    0.38
  10  -5   3    0.16    0.27
  10  -5   3   -0.83    0.86
  10  -5   4    5.76    0.84
  10  -5   4    6.13    0.68
  10  -5   5   31.11    2.47
  10  -5   5    5.55    2.74
  10  -5   6    0.35    0.88
  10  -4  -2   16.42    1.75
 -10   4   1    7.36    1.38
  10  -4  -1    2.50    1.12
 -10   4   0    0.83    0.97
 -10   4   0    1.11    0.82
  10  -4   0    1.02    0.27
  10  -4   0    0.33    0.73
  10  -4   1   -0.08    0.75
 -10   4  -1    0.63    1.06
  10  -4   1    2.48    0.41
 -10   4  -1    3.19    1.03
  10  -4   1    3.55    0.42
  10  -4   1    2.13    0.95
  10  -4   2    0.08    0.67
 -10   4  -2    0.44    1.13
  10  -4   2    1.60    0.39
  10  -4   2    1.69    0.33
  10  -4   2    1.57    0.31
  10  -4   2    0.16    0.76
  10  -4   3    0.08    0.80
 -10   4  -3    0.84    1.12
  10  -4   3    4.48    0.68
  10  -4   3    4.55    0.55
 -10   4  -3    5.78    1.27
  10  -4   3    1.50    0.99
  10  -4   3    5.32    0.55
 -10   4  -4   -0.13    0.78
  10  -4   4    0.49    0.38
  10  -4   4    0.46    0.29
  10  -4   4    0.20    0.21
  10  -4   4   -0.08    0.51
  10  -4   5    1.88    0.53
  10  -4   5    1.57    0.38
  10  -4   5    1.51    0.31
  10  -4   5    1.05    0.87
  10  -4   5   -0.08    0.71
  10  -4   6    0.24    0.41
  10  -4   6    0.39    0.24
  10  -4   6   -0.18    0.77
  10  -3  -3   -0.10    0.32
 -10   3   3   -0.13    0.70
  10  -3  -2    0.11    0.32
 -10   3   2   -0.13    0.77
 -10   3   1    0.52    0.93
  10  -3  -1    0.91    0.38
 -10   3   1    0.26    0.75
  10  -3  -1    0.67    0.86
 -10   3   0    1.99    1.02
  10  -3   0    1.51    0.43
 -10   3   0    1.31    0.79
  10  -3   0    1.32    0.84
 -10   3  -1    7.09    1.60
  10  -3   1    7.97    0.87
 -10   3  -1   11.75    1.67
  10  -3   1    7.38    1.55
 -10   3  -2    0.15    0.86
  10  -3   2    0.71    0.31
  10  -3   2    0.63    0.30
 -10   3  -2    0.67    0.80
  10  -3   2    0.52    0.24
  10  -3   2    0.82    0.77
  10  -3   3    2.62    0.50
 -10   3  -3    0.57    1.00
  10  -3   3    2.14    0.41
  10  -3   3    1.84    0.99
  10  -3   3    2.11    0.33
  10  -3   4    3.19    0.58
 -10   3  -4    2.30    0.88
  10  -3   4    2.54    0.44
  10  -3   4    2.66    0.37
 -10   3  -5   -0.13    0.73
  10  -3   5   -0.11    0.40
  10  -3   5    0.28    0.29
  10  -3   5    0.32    0.22
  10  -3   5    0.18    0.82
  10  -3   6    0.54    0.42
  10  -3   6    0.07    0.31
  10  -3   6    0.35    0.22
  10  -3   6    0.36    0.81
  10  -3   7    2.10    0.36
  10  -3   7    1.13    1.04
  10  -3   8    0.13    0.23
 -10   2   5    0.47    0.77
  10  -2  -4    1.67    0.40
 -10   2   4    1.66    0.81
  10  -2  -3    0.90    0.34
 -10   2   3    2.20    0.91
  10  -2  -2    0.35    0.31
 -10   2   2    1.87    0.83
  10  -2  -2    0.69    0.86
 -10   2   1    1.05    0.93
  10  -2  -1    0.43    0.33
 -10   2   1    1.50    0.81
  10  -2  -1    0.67    0.81
 -10   2   0    0.17    0.74
  10  -2   0    0.17    0.33
 -10   2   0   -0.13    0.73
  10  -2   0    0.17    0.77
 -10   2  -1    0.48    0.82
  10  -2   1    0.80    0.42
 -10   2  -1    2.31    0.85
  10  -2   1    0.66    0.75
  10  -2   2    4.24    0.64
 -10   2  -2    4.70    1.22
  10  -2   2    4.78    0.55
 -10   2  -2    4.49    1.16
  10  -2   2    3.30    1.17
 -10   2  -3   -0.14    0.72
  10  -2   3   -0.04    0.29
 -10   2  -3    0.26    0.66
  10  -2   3    0.21    0.20
  10  -2   3    0.50    0.76
  10  -2   4    3.78    0.66
  10  -2   4    3.35    0.54
  10  -2   4    4.24    0.47
  10  -2   4    2.92    1.10
 -10   2  -5    0.66    1.04
  10  -2   5    3.31    0.65
 -10   2  -5    5.98    1.28
  10  -2   5    3.48    0.54
  10  -2   5    3.01    1.13
  10  -2   5    4.23    0.48
  10  -2   6    1.07    0.47
 -10   2  -6    0.25    0.77
 -10   2  -6    1.76    0.92
  10  -2   6    1.02    0.34
  10  -2   6    1.00    0.24
  10  -2   6    0.73    0.77
  10  -2   7    0.43    0.43
  10  -2   7    0.49    0.23
  10  -2   7    0.19    0.86
  10  -2   8    1.79    0.32
  10  -1  -4    1.58    0.40
 -10   1   4    1.53    0.79
  10  -1  -3   16.22    1.72
 -10   1   3   17.07    2.25
  10  -1  -2    1.37    0.38
 -10   1   2    0.70    0.67
  10  -1  -2    1.04    0.87
  10  -1  -1    0.37    0.31
 -10   1   1    0.53    0.92
 -10   1   1    0.94    0.67
  10  -1   0    5.00    0.71
 -10   1   0    6.32    1.20
 -10   1  -1    0.64    0.80
  10  -1   1    0.04    0.33
 -10   1  -1    0.73    0.79
  10  -1   1    0.66    0.82
 -10   1  -2    3.85    1.16
  10  -1   2    4.66    0.64
  10  -1   2    4.61    0.72
 -10   1  -2    5.00    1.12
  10  -1   2    4.46    1.18
 -10   1  -3    0.30    0.74
  10  -1   3   -0.15    0.29
 -10   1  -3    1.11    0.73
  10  -1   3    0.29    0.20
  10  -1   3   -0.17    0.74
 -10   1  -4    0.28    0.83
  10  -1   4    0.56    0.34
 -10   1  -4    1.26    0.76
  10  -1   4    1.00    0.22
  10  -1   4    1.03    0.86
 -10   1  -5    0.82    0.86
  10  -1   5    1.51    0.49
  10  -1   5    2.19    0.31
  10  -1   5    0.89    0.88
  10  -1   6    2.11    0.55
 -10   1  -6    0.13    0.95
 -10   1  -6    2.65    0.96
  10  -1   6    1.82    0.43
  10  -1   6    0.73    0.79
  10  -1   6    2.94    0.34
  10  -1   7    1.01    0.47
 -10   1  -7    0.25    0.84
  10  -1   7    1.11    0.38
  10  -1   7    1.59    0.27
  10  -1   7    0.57    0.85
  10  -1   8    0.07    0.46
  10  -1   8   -0.06    0.19
  10   0  -4    1.07    0.35
  10   0  -3    0.20    0.27
 -10   0   3    0.31    0.64
 -10   0   2    4.04    1.34
  10   0  -2    5.64    0.74
 -10   0   2    6.20    1.23
  10   0  -2    4.35    1.30
  10   0  -1    0.28    0.31
 -10   0   1    0.11    0.69
  10   0  -1   -0.17    0.73
  10   0   0    2.58    0.49
 -10   0   0    2.21    1.04
  10   0   0    0.83    0.81
  10   0   1    1.75    0.46
 -10   0  -1    0.82    0.81
 -10   0  -1    2.88    0.93
 -10   0  -2    3.46    1.17
  10   0   2    4.82    0.62
  10   0   2    3.57    0.67
 -10   0  -2    6.04    1.18
  10   0   3    3.47    0.58
 -10   0  -3    3.33    1.12
  10   0   3    4.14    0.70
 -10   0  -3    4.73    1.10
  10   0   3    4.37    0.49
 -10   0  -4    2.19    0.93
  10   0   4    1.09    0.38
 -10   0  -4    1.94    0.83
  10   0   4    1.03    0.89
  10   0   4    2.02    0.29
 -10   0  -5    0.14    0.75
  10   0   5   -0.23    0.34
 -10   0  -5   -0.38    0.68
  10   0   5    0.15    0.16
  10   0   6    0.31    0.38
 -10   0  -6    0.14    0.76
  10   0   6    0.64    0.19
  10   0   6    0.37    0.79
  10   0   7    1.46    0.53
 -10   0  -7    0.26    0.94
  10   0   7    1.52    0.42
  10   0   7    1.97    0.28
  10   0   7    1.15    0.95
  10   0   8    0.06    0.44
  10   0   8    0.27    0.19
  10   1  -3    0.57    0.35
 -10  -1   3    0.57    0.60
 -10  -1   2    0.74    0.91
  10   1  -2    0.78    0.35
 -10  -1   2    1.10    0.68
 -10  -1   1    0.36    0.89
  10   1  -1    0.07    0.30
 -10  -1   1    0.41    0.65
  10   1  -1   -0.17    0.73
 -10  -1   0    0.52    0.87
  10   1   0    1.00    0.37
 -10  -1   0    1.92    0.72
  10   1   0    2.34    0.99
  10   1   1    0.20    0.32
 -10  -1  -1    0.33    0.90
 -10  -1  -1    0.22    0.65
  10   1   1    0.50    0.69
 -10  -1  -2    4.66    1.30
  10   1   2    6.71    0.87
  10   1   2    5.78    0.74
  10   1   2    4.81    1.34
 -10  -1  -3   57.46    6.63
  10   1   3   65.90    6.09
  10   1   3   57.98    5.97
 -10  -1  -4    3.78    1.12
  10   1   4    2.72    0.52
  10   1   4    2.31    0.59
 -10  -1  -4    4.58    1.02
  10   1   4    3.36    0.40
  10   1   5    0.77    0.35
 -10  -1  -5   -0.15    0.78
 -10  -1  -5    0.61    0.65
  10   1   5    0.52    0.17
  10   1   6    1.19    0.42
 -10  -1  -6    0.14    0.88
  10   1   6    1.72    0.26
  10   1   6    1.28    0.97
  10   1   7    4.34    0.78
  10   1   7    3.25    1.24
  10   1   7    5.65    0.55
  10   1   8    2.22    0.56
 -10  -1  -8    0.27    1.01
  10   1   8    1.79    1.11
  10   2  -2    2.21    0.43
 -10  -2   2    1.36    0.70
 -10  -2   2    2.17    0.41
 -10  -2   1    3.26    1.32
  10   2  -1    6.68    0.81
 -10  -2   1    5.69    1.12
 -10  -2   1    6.45    0.73
  10   2  -1    4.44    1.28
  10   2   0    0.37    0.33
 -10  -2   0    0.10    0.60
  10   2   0   -0.17    0.68
 -10  -2  -1    3.23    1.16
  10   2   1    3.88    0.60
 -10  -2  -1    4.91    1.02
  10   2   1    2.66    1.07
 -10  -2  -2    0.50    0.83
  10   2   2    0.17    0.35
  10   2   2    0.29    0.24
 -10  -2  -2    1.05    0.68
  10   2   2    0.50    0.81
 -10  -2  -3    0.16    0.73
  10   2   3    0.68    0.28
  10   2   3    0.83    0.38
 -10  -2  -3    0.65    0.69
  10   2   4    3.87    0.62
  10   2   4    3.99    0.72
 -10  -2  -4    2.82    1.12
 -10  -2  -4    5.35    1.12
  10   2   4    4.79    0.50
  10   2   4    2.75    1.10
  10   2   5    0.40    0.32
  10   2   5    0.21    0.40
 -10  -2  -5    0.61    0.80
 -10  -2  -5    0.59    0.73
  10   2   5    0.52    0.17
  10   2   5    0.71    0.83
  10   2   6    9.28    1.25
  10   2   6   11.94    1.08
  10   2   7    0.70    0.39
 -10  -2  -7    0.15    0.87
  10   2   8    2.83    0.59
 -10  -2  -8    0.58    1.17
  10   2   9    0.36    0.42
 -10  -2  -9    0.14    0.84
 -10  -3   1    6.43    1.59
  10   3  -1    6.54    0.83
 -10  -3   1    5.78    1.08
 -10  -3   1    7.61    0.79
 -10  -3   0    0.72    0.92
  10   3   0    0.40    0.29
 -10  -3   0    0.83    0.61
  10   3   0    0.50    0.82
 -10  -3   0    0.49    0.25
  10   3   1    0.95    0.37
 -10  -3  -1    1.15    0.66
  10   3   1    1.33    0.86
 -10  -3  -1    1.81    0.33
  10   3   2    0.20    0.32
 -10  -3  -2   -0.17    0.82
 -10  -3  -2    0.60    0.63
  10   3   2    0.17    0.74
 -10  -3  -2    0.49    0.24
  10   3   3    0.63    0.39
 -10  -3  -3    1.00    0.83
 -10  -3  -3   -0.10    0.60
  10   3   3   -0.17    0.73
 -10  -3  -3    0.49    0.21
  10   3   4    0.83    0.43
 -10  -3  -4    0.16    0.80
 -10  -3  -4    0.66    0.63
 -10  -3  -4    0.25    0.19
  10   3   4    1.03    0.80
  10   3   5    0.16    0.41
 -10  -3  -5    0.48    0.88
  10   3   5    0.58    0.16
 -10  -3  -5    0.43    0.18
  10   3   5   -0.53    0.83
 -10  -3  -6    0.79    0.88
  10   3   6    1.32    0.21
  10   3   6    2.38    1.04
  10   3   7    4.35    0.67
 -10  -3  -7    0.46    1.18
  10   3   7    1.91    1.11
  10   3   8    6.92    0.90
  10   3   8    6.36    1.56
  10   3   9   15.95    1.62
 -10  -3  -9    4.20    2.29
  10   4  -1   -0.17    0.88
 -10  -4   1    1.24    0.33
  10   4   0    5.18    0.70
 -10  -4   0    5.31    1.43
 -10  -4   0    4.40    0.94
 -10  -4   0    4.98    0.61
  10   4   1    2.14    0.46
 -10  -4  -1    1.80    1.09
 -10  -4  -1    1.52    0.66
  10   4   1   -0.17    0.87
 -10  -4  -1    2.11    0.35
  10   4   2    3.91    0.63
 -10  -4  -2    2.46    0.84
  10   4   2    2.51    1.12
 -10  -4  -2    4.32    0.51
 -10  -4  -3    3.80    1.23
 -10  -4  -3    4.60    1.00
  10   4   3    4.05    1.22
 -10  -4  -3    4.31    0.52
 -10  -4  -4    1.36    0.88
 -10  -4  -4    1.71    0.76
 -10  -4  -4    1.85    0.29
  10   4   4    1.55    0.93
  10   4   5    1.11    0.20
 -10  -4  -5    1.46    0.23
  10   4   6    1.22    0.51
 -10  -4  -6    0.66    0.90
  10   4   6    1.10    0.88
 -10  -4  -7   -0.16    0.99
  10   4   7    0.38    0.89
 -10  -4  -8    0.32    1.03
  10   4   8    0.60    0.90
 -10  -4  -9    0.48    1.08
 -10  -4 -10    0.31    0.85
 -10  -5   0    4.34    0.54
  10   5   0    0.17    1.12
  10   5   1   -0.17    0.80
 -10  -5  -1    1.16    0.29
 -10  -5  -2    0.18    0.83
 -10  -5  -2    0.35    0.56
  10   5   2   -0.17    0.80
 -10  -5  -2    0.24    0.22
 -10  -5  -3    1.24    0.66
  10   5   3   -0.17    0.81
 -10  -5  -3    0.88    0.24
  10   5   4    0.42    0.36
 -10  -5  -4    0.35    0.83
 -10  -5  -4    1.13    0.72
 -10  -5  -4    0.50    0.20
  10   5   4   -0.17    0.72
 -10  -5  -5    2.10    1.06
  10   5   5    3.02    0.63
 -10  -5  -5    3.26    0.39
  10   5   5    2.48    1.05
  10   5   6   -0.05    0.45
  10   5   6    0.18    0.83
 -10  -5  -7    1.38    0.94
  10   5   7    1.14    0.85
 -10  -5  -8    0.17    1.16
 -10  -5  -9   -0.17    0.97
 -10  -5 -10    0.17    0.91
  10   6   0   -0.17    1.10
  10   6   1    0.17    1.31
 -10  -6  -1    6.95    0.72
  10   6   2   -0.17    0.90
 -10  -6  -2    2.03    0.35
 -10  -6  -3    0.45    0.57
 -10  -6  -3    0.09    0.22
  10   6   3   -0.17    0.77
  10   6   4    0.79    0.43
 -10  -6  -4    0.37    0.99
 -10  -6  -4    1.37    0.28
  10   6   4   -0.17    0.81
 -10  -6  -5    1.10    1.01
  10   6   5    2.40    0.51
  10   6   5    0.18    0.93
 -10  -6  -6    1.27    1.02
  10   6   6    2.20    0.56
  10   6   6    0.18    1.02
 -10  -6  -7    2.54    1.07
  10   6   7    0.19    0.89
 -10  -7  -1   43.85    4.20
 -10  -7  -2    6.04    0.76
 -10  -7  -3   -0.26    0.35
  10   7   3    0.17    0.86
 -10  -7  -4    2.32    0.49
  10   7   4 4598.58   38.42
 -10  -7  -5    0.43    0.24
  10   7   5    0.18    1.02
  10   7   7    0.19    0.96
 -10  -8  -2    6.14    0.76
 -10  -8  -3    1.92    0.37
  10   8   4    0.17    1.35
 -10  -8  -5    1.25    0.29
  10   8   5   -0.17    0.89
 -10  -8  -6    1.62    0.33
  10   8   6    0.18    1.05
 -10  -9  -3    0.33    0.26
  11  -4   3    0.56    0.32
  11  -4   5    2.39    0.60
  11  -3  -1    3.16    0.61
  11  -3   2    2.77    0.47
  11  -3   3    0.27    0.29
  11  -3   3    0.76    0.24
  11  -3   4    9.46    1.04
  11  -3   4   10.17    1.00
  11  -3   5    0.54    0.42
  11  -3   6    1.57    0.54
  11  -2  -3    2.79    0.54
  11  -2  -2    0.12    0.36
  11  -2  -1    1.05    0.42
  11  -2   0    1.06    0.43
  11  -2   1    0.19    0.39
  11  -2   2    0.37    0.22
 -11   2  -3    0.16    0.97
  11  -2   3    1.03    0.27
  11  -2   4    1.84    0.53
  11  -2   4    1.70    0.42
  11  -2   4    2.20    0.34
 -11   2  -5    0.44    0.85
  11  -2   5    1.19    0.50
  11  -2   5    1.85    0.31
  11  -2   6    2.41    0.65
  11  -2   6    4.45    0.50
  11  -2   7   15.24    1.51
  11  -1  -2    4.15    0.67
 -11   1   2    4.47    1.13
  11  -1  -1    0.77    0.41
 -11   1   1    1.43    0.92
  11  -1   0    1.46    0.49
 -11   1   0    2.49    0.92
  11  -1   1    1.54    0.49
 -11   1  -1    3.50    1.06
 -11   1  -2    0.69    0.88
  11  -1   2    0.97    0.45
 -11   1  -2    1.77    0.84
  11  -1   2    0.83    0.25
 -11   1  -3    0.16    0.98
 -11   1  -3    1.92    0.93
  11  -1   3    1.56    0.29
 -11   1  -4    0.16    0.95
  11  -1   4    0.26    0.35
  11  -1   4    0.65    0.21
  11  -1   5    0.94    0.41
 -11   1  -5    0.15   67.55
  11  -1   5    1.11    0.25
  11  -1   6   -0.05    0.40
 -11   1  -6    0.15    0.89
  11  -1   6    0.12    0.21
  11  -1   7    0.48    0.45
  11  -1   7    1.32    0.26
 -11   0   2    3.57    1.05
  11   0  -1    0.62    0.38
 -11   0   1    0.61    0.79
  11   0   0   -0.04    0.37
 -11   0   0    0.25    0.71
  11   0   1    0.85    0.42
 -11   0  -1    1.42    0.89
 -11   0  -2    0.18    0.92
  11   0   2    0.95    0.41
 -11   0  -2    0.91    0.69
 -11   0  -3   -0.17    0.92
  11   0   3    0.11    0.42
 -11   0  -3    0.26    0.78
  11   0   3    0.52    0.20
 -11   0  -4   -0.16    0.76
  11   0   4    0.25    0.32
 -11   0  -4    0.54    0.77
  11   0   4    0.51    0.20
  11   0   5    3.28    0.60
  11   0   5    2.93    0.38
  11   0   6    2.71    0.63
  11   0   6    3.58    0.41
 -11   0  -7    0.15    0.94
  11   0   7    0.23    0.41
 -11  -1   1    2.86    0.93
  11   1   0    0.81    0.41
 -11  -1   0    2.92    0.89
  11   1   1    0.14    0.38
 -11  -1  -1    0.24    0.71
  11   1   2   -0.20    0.44
 -11  -1  -2    0.49    0.71
 -11  -1  -3    0.17    0.77
  11   1   3    0.42    0.40
 -11  -1  -3    0.51    0.71
 -11  -1  -4    0.17    0.81
  11   1   4    0.88    0.38
  11   1   4    1.28    0.51
 -11  -1  -4    1.16    0.79
  11   1   4    1.19    0.24
  11   1   5    1.94    0.49
 -11  -1  -5    1.87    0.84
  11   1   5    2.58    0.32
  11   1   6   18.37    2.28
  11   1   6   22.67    2.08
  11   1   7    0.72    0.42
 -11  -1  -7   -0.15    0.89
 -11  -1  -8    0.74    1.05
 -11  -2   1   31.06    3.55
 -11  -2   0    3.93    1.01
 -11  -2   0    3.51    0.51
 -11  -2  -1    0.46    0.66
  11   2   2    3.24    0.65
 -11  -2  -2    4.35    1.09
  11   2   3    0.21    0.38
 -11  -2  -3   -0.71    0.95
 -11  -2  -3    0.12    0.69
  11   2   4    3.98    0.66
  11   2   4    4.68    0.80
 -11  -2  -4    2.95    1.27
  11   2   4    4.68    0.52
  11   2   5    0.30    0.33
 -11  -2  -5   -0.17    0.87
 -11  -2  -5   -0.39    0.73
  11   2   5    0.44    0.18
  11   2   6    0.71    0.40
 -11  -2  -6    0.33    0.83
 -11  -2  -6    1.75    0.95
  11   2   7    1.16    0.46
 -11  -2  -7    0.16    0.92
  11   2   8    0.29    0.44
 -11  -3  -1    1.95    0.79
 -11  -3  -1    1.00    0.30
 -11  -3  -2    8.04    1.41
 -11  -3  -2    8.65    0.93
 -11  -3  -3    1.28    0.81
 -11  -3  -3    1.95    0.34
  11   3   4    2.32    0.53
 -11  -3  -4    3.98    1.01
 -11  -3  -4    4.14    0.46
  11   3   5    0.86    0.37
 -11  -3  -5    0.88    0.94
 -11  -3  -5    1.51    0.87
  11   3   6    0.41    0.36
 -11  -3  -6   -0.17    0.88
  11   3   7   -0.10    0.36
 -11  -3  -7    0.34    0.92
  11   3   8    1.26    0.50
 -11  -4  -1   -0.02    0.25
 -11  -4  -2    0.21    0.67
 -11  -4  -2    0.86    0.28
 -11  -4  -3    3.43    0.97
 -11  -4  -3    3.58    0.47
 -11  -4  -4    7.68    1.42
 -11  -4  -4    7.34    0.79
 -11  -4  -5   25.50    3.10
  11   4   8    0.27    0.40
 -11  -5  -2    0.76    0.28
 -11  -5  -3    1.15    0.74
 -11  -5  -3    1.26    0.29
 -11  -5  -4    0.56    0.65
 -11  -5  -5   -0.24    0.72
 -11  -6  -2    0.55    0.29
 -11  -6  -3    1.89    0.35
 -11  -6  -4    3.84    0.99
 -11  -6  -5    0.58    0.69
 -11  -7  -5    0.22    0.74
  12  -1   4    3.67    0.47
  12  -1   5    0.10    0.21
  12   0   3    0.02    0.21
  12   0   4    0.13    0.21
  12   1   3    0.54    0.22
  12   1   4    0.33    0.22
 -12  -2  -2   14.98    1.52
 -12  -2  -3    0.54    0.26
  12   2   7    0.99    0.48
 -12  -3  -2    0.37    0.78
  12   3   7    1.73    0.52
 -12  -4  -3   -0.12    0.77
   0   0   0    0.00    0.00
;
_shelx_hkl_checksum              45493
loop_
_space_group_symop_operation_xyz
'x, y, z'
loop_
_atom_site_label
_atom_site_type_symbol
_atom_site_fract_x
_atom_site_fract_y
_atom_site_fract_z
_atom_site_U_iso_or_equiv
_atom_site_adp_type
_atom_site_occupancy
_atom_site_site_symmetry_order
_atom_site_calc_flag
_atom_site_refinement_flags_posn
_atom_site_refinement_flags_adp
_atom_site_refinement_flags_occupancy
_atom_site_disorder_assembly
_atom_site_disorder_group
K1 K 0.1430(6) 0.1355(4) 0.3811(5) 0.0413(13) Uani 1 1 d . . . . .
K2 K 1.0000(6) 1.0000(4) 1.0000(5) 0.0400(12) Uani 1 1 d . . . . .
K3 K 0.8044(6) 0.4170(5) 0.0816(5) 0.0478(14) Uani 1 1 d . . . . .
K4 K 0.3636(6) 0.3529(5) 0.9148(6) 0.0454(14) Uani 1 1 d . . . . .
Cd1 Cd 0.29649(19) 0.69430(14) 0.53067(16) 0.0212(4) Uani 1 1 d . . . . .
Ga1 Ga 0.9951(2) 0.39245(19) 0.6288(2) 0.0144(5) Uani 1 1 d . . . . .
Ga2 Ga 0.4091(2) 0.7903(2) 0.8381(2) 0.0159(5) Uani 1 1 d . . . . .
Ga3 Ga 0.8331(3) 0.7473(2) 0.6799(3) 0.0170(5) Uani 1 1 d . . . . .
Ga4 Ga 0.5935(3) 0.9926(2) 0.4251(2) 0.0143(5) Uani 1 1 d . . . . .
Ga5 Ga 0.7469(2) 0.64866(19) 0.3704(2) 0.0159(5) Uani 1 1 d . . . . .
Ga6 Ga 0.7130(3) 0.09235(19) 0.7183(2) 0.0151(5) Uani 1 1 d . . . . .
Ga7 Ga 0.4357(2) 0.3497(2) 0.4741(2) 0.0162(5) Uani 1 1 d . . . . .
Ga8 Ga 0.2169(3) 0.60184(18) 0.2163(2) 0.0159(5) Uani 1 1 d . . . . .
Ga9 Ga 0.5166(3) 0.8893(2) 0.1334(2) 0.0149(5) Uani 1 1 d . . . . .
Se1 Se 0.7667(2) 0.26832(17) 0.7975(2) 0.0158(5) Uani 1 1 d . . . . .
Se2 Se 0.5269(2) 0.51651(16) 0.55325(19) 0.0160(5) Uani 1 1 d . . . . .
Se3 Se 0.9661(2) 0.48285(17) 0.37947(18) 0.0131(5) Uani 1 1 d . . . . .
Se4 Se 0.4631(2) 0.99358(17) 0.89152(19) 0.0132(4) Uani 1 1 d . . . . .
Se5 Se 0.5532(2) 0.08756(17) 0.1899(2) 0.0193(5) Uani 1 1 d . . . . .
Se6 Se 0.3535(2) 0.90074(17) 0.60098(19) 0.0147(4) Uani 1 1 d . . . . .
Se7 Se 0.6678(2) 0.19119(17) 0.4734(2) 0.0130(5) Uani 1 1 d . . . . .
Se8 Se 0.6080(2) 0.62220(18) 0.8430(2) 0.0191(5) Uani 1 1 d . . . . .
Se9 Se 0.8232(2) 0.84063(18) 0.4261(2) 0.0145(4) Uani 1 1 d . . . . .
Se10 Se 0.0379(2) 0.57179(16) 0.7147(2) 0.0154(4) Uani 1 1 d . . . . .
Se11 Se 0.7305(3) 0.73331(19) 0.1294(2) 0.0190(4) Uani 1 1 d . . . . .
Se12 Se 0.2517(2) 0.80440(17) 0.27123(19) 0.0165(5) Uani 1 1 d . . . . .
Se13 Se 0.2113(2) 0.23683(18) 0.6561(2) 0.0188(5) Uani 1 1 d . . . . .
Se14 Se 0.1643(2) 0.6813(2) 0.9855(2) 0.0181(4) Uani 1 1 d . . . . .
Se15 Se 0.9283(2) 0.93893(17) 0.7114(2) 0.0181(5) Uani 1 1 d . . . . .
Se16 Se 0.4064(2) 0.42128(17) 0.23632(19) 0.0187(5) Uani 1 1 d . . . . .
Cl1 Cl 0.0640(6) 0.2157(5) 0.1053(6) 0.0322(11) Uani 1 1 d . . . . .
loop_
_atom_site_aniso_label
_atom_site_aniso_U_11
_atom_site_aniso_U_22
_atom_site_aniso_U_33
_atom_site_aniso_U_23
_atom_site_aniso_U_13
_atom_site_aniso_U_12
K1 0.048(3) 0.038(2) 0.029(3) -0.003(2) -0.008(2) -0.002(2)
K2 0.044(3) 0.027(2) 0.047(3) -0.006(2) -0.016(2) -0.0032(19)
K3 0.046(3) 0.049(3) 0.038(3) -0.010(2) -0.007(2) 0.016(2)
K4 0.044(3) 0.047(3) 0.040(3) -0.014(2) -0.001(3) -0.010(2)
Cd1 0.0201(8) 0.0194(7) 0.0231(8) -0.0077(6) -0.0034(6) -0.0009(5)
Ga1 0.0139(11) 0.0115(9) 0.0150(10) -0.0028(8) -0.0020(8) 0.0002(7)
Ga2 0.0144(11) 0.0156(9) 0.0152(10) -0.0038(8) -0.0014(9) -0.0020(8)
Ga3 0.0168(11) 0.0143(9) 0.0199(11) -0.0065(8) -0.0050(9) 0.0026(8)
Ga4 0.0168(11) 0.0133(9) 0.0135(9) -0.0047(7) -0.0054(8) 0.0015(7)
Ga5 0.0145(11) 0.0148(10) 0.0176(11) -0.0052(8) -0.0049(9) 0.0037(8)
Ga6 0.0151(11) 0.0120(9) 0.0179(11) -0.0050(8) -0.0040(8) 0.0002(7)
Ga7 0.0152(12) 0.0158(10) 0.0171(10) -0.0056(8) -0.0041(9) 0.0022(8)
Ga8 0.0161(11) 0.0161(10) 0.0143(10) -0.0035(8) -0.0049(8) 0.0013(8)
Ga9 0.0151(11) 0.0159(9) 0.0139(9) -0.0055(8) -0.0037(8) 0.0011(7)
Se1 0.0160(10) 0.0141(9) 0.0163(11) -0.0070(8) 0.0013(8) -0.0043(7)
Se2 0.0158(11) 0.0154(9) 0.0168(10) -0.0069(8) -0.0024(8) -0.0006(7)
Se3 0.0115(9) 0.0124(9) 0.0128(10) -0.0028(8) -0.0018(8) 0.0020(7)
Se4 0.0131(9) 0.0131(9) 0.0128(10) -0.0039(7) -0.0030(7) -0.0001(7)
Se5 0.0320(13) 0.0132(9) 0.0139(9) -0.0032(8) -0.0098(9) -0.0005(8)
Se6 0.0148(10) 0.0154(9) 0.0130(10) -0.0035(8) -0.0041(8) -0.0001(7)
Se7 0.0135(10) 0.0109(8) 0.0148(10) -0.0048(7) -0.0037(8) 0.0012(7)
Se8 0.0168(10) 0.0154(9) 0.0217(11) -0.0042(8) -0.0029(8) 0.0009(7)
Se9 0.0150(10) 0.0134(9) 0.0152(10) -0.0058(8) -0.0037(8) 0.0019(7)
Se10 0.0153(10) 0.0115(8) 0.0213(11) -0.0071(8) -0.0064(8) 0.0021(7)
Se11 0.0206(10) 0.0210(9) 0.0160(9) -0.0075(7) -0.0064(8) 0.0070(7)
Se12 0.0150(10) 0.0162(9) 0.0169(10) -0.0063(8) -0.0005(8) -0.0003(7)
Se13 0.0140(10) 0.0133(8) 0.0205(12) 0.0000(8) 0.0001(9) 0.0032(7)
Se14 0.0151(10) 0.0227(9) 0.0128(9) -0.0010(7) -0.0038(8) -0.0043(7)
Se15 0.0161(10) 0.0149(9) 0.0274(11) -0.0104(8) -0.0093(9) 0.0039(7)
Se16 0.0204(10) 0.0199(10) 0.0154(10) -0.0061(8) -0.0062(8) 0.0070(8)
Cl1 0.032(3) 0.032(2) 0.035(3) -0.011(2) -0.014(2) 0.0049(19)
loop_
_atom_type_symbol
_atom_type_description
_atom_type_scat_dispersion_real
_atom_type_scat_dispersion_imag
_atom_type_scat_source
Se Se -0.0929 2.2259 'International Tables Vol C Tables 4.2.6.8 and 6.1.1.4'
K K 0.2009 0.2494 'International Tables Vol C Tables 4.2.6.8 and 6.1.1.4'
Ga Ga 0.2307 1.6083 'International Tables Vol C Tables 4.2.6.8 and 6.1.1.4'
Cd Cd -0.8075 1.2024 'International Tables Vol C Tables 4.2.6.8 and 6.1.1.4'
Cl Cl 0.1484 0.1585 'International Tables Vol C Tables 4.2.6.8 and 6.1.1.4'
loop_
_geom_angle_atom_site_label_1
_geom_angle_atom_site_label_2
_geom_angle_atom_site_label_3
_geom_angle
_geom_angle_site_symmetry_1
_geom_angle_site_symmetry_3
_geom_angle_publ_flag
Cl1 K1 Se15 128.5(2) . 1_445 ?
Cl1 K1 Se6 143.37(19) . 1_545 ?
Se15 K1 Se6 64.47(9) 1_445 1_545 ?
Cl1 K1 Se16 89.54(15) . . ?
Se15 K1 Se16 136.84(17) 1_445 . ?
Se6 K1 Se16 98.61(15) 1_545 . ?
Cl1 K1 Se13 148.59(17) . . ?
Se15 K1 Se13 68.22(10) 1_445 . ?
Se6 K1 Se13 65.18(10) 1_545 . ?
Se16 K1 Se13 68.66(10) . . ?
Cl1 K1 Se5 86.74(16) . . ?
Se15 K1 Se5 129.74(14) 1_445 . ?
Se6 K1 Se5 66.68(10) 1_545 . ?
Se16 K1 Se5 61.74(9) . . ?
Se13 K1 Se5 101.24(14) . . ?
Cl1 K1 Se3 84.04(15) . 1_455 ?
Se15 K1 Se3 96.98(13) 1_445 1_455 ?
Se6 K1 Se3 131.50(16) 1_545 1_455 ?
Se16 K1 Se3 63.61(8) . 1_455 ?
Se13 K1 Se3 66.31(9) . 1_455 ?
Se5 K1 Se3 124.53(12) . 1_455 ?
Cl1 K1 Ga7 125.10(16) . . ?
Se15 K1 Ga7 102.68(14) 1_445 . ?
Se6 K1 Ga7 71.57(11) 1_545 . ?
Se16 K1 Ga7 35.71(7) . . ?
Se13 K1 Ga7 35.76(6) . . ?
Se5 K1 Ga7 71.89(10) . . ?
Se3 K1 Ga7 69.76(9) 1_455 . ?
Cl1 K1 K4 40.74(14) . 1_554 ?
Se15 K1 K4 168.36(18) 1_445 1_554 ?
Se6 K1 K4 120.70(15) 1_545 1_554 ?
Se16 K1 K4 54.53(9) . 1_554 ?
Se13 K1 K4 123.18(13) . 1_554 ?
Se5 K1 K4 54.02(10) . 1_554 ?
Se3 K1 K4 86.72(10) 1_455 1_554 ?
Ga7 K1 K4 88.96(11) . 1_554 ?
Cl1 K1 K3 34.28(13) . 1_455 ?
Se15 K1 K3 111.15(15) 1_445 1_455 ?
Se6 K1 K3 172.71(15) 1_545 1_455 ?
Se16 K1 K3 88.51(11) . 1_455 ?
Se13 K1 K3 119.46(13) . 1_455 ?
Se5 K1 K3 116.03(13) . 1_455 ?
Se3 K1 K3 53.44(9) 1_455 1_455 ?
Ga7 K1 K3 115.58(12) . 1_455 ?
K4 K1 K3 62.45(11) 1_554 1_455 ?
Cl1 K2 Se11 134.2(2) 1_666 1_556 ?
Cl1 K2 Se15 145.21(17) 1_666 . ?
Se11 K2 Se15 71.14(11) 1_556 . ?
Cl1 K2 Se14 137.0(2) 1_666 1_655 ?
Se11 K2 Se14 66.05(9) 1_556 1_655 ?
Se15 K2 Se14 69.58(10) . 1_655 ?
Cl1 K2 Se13 83.72(14) 1_666 1_665 ?
Se11 K2 Se13 137.96(17) 1_556 1_665 ?
Se15 K2 Se13 66.88(10) . 1_665 ?
Se14 K2 Se13 100.36(13) 1_655 1_665 ?
Cl1 K2 Se1 84.83(14) 1_666 1_565 ?
Se11 K2 Se1 97.24(13) 1_556 1_565 ?
Se15 K2 Se1 66.10(10) . 1_565 ?
Se14 K2 Se1 135.63(17) 1_655 1_565 ?
Se13 K2 Se1 63.85(9) 1_665 1_565 ?
Cl1 K2 Se12 76.62(16) 1_666 1_656 ?
Se11 K2 Se12 93.68(10) 1_556 1_656 ?
Se15 K2 Se12 132.29(13) . 1_656 ?
Se14 K2 Se12 63.02(8) 1_655 1_656 ?
Se13 K2 Se12 116.08(14) 1_665 1_656 ?
Se1 K2 Se12 161.22(16) 1_565 1_656 ?
Cl1 K2 Se4 81.32(16) 1_666 1_655 ?
Se11 K2 Se4 130.30(12) 1_556 1_655 ?
Se15 K2 Se4 98.58(12) . 1_655 ?
Se14 K2 Se4 64.90(9) 1_655 1_655 ?
Se13 K2 Se4 60.33(8) 1_665 1_655 ?
Se1 K2 Se4 123.51(12) 1_565 1_655 ?
Se12 K2 Se4 56.88(8) 1_656 1_655 ?
Cl1 K2 K4 36.68(13) 1_666 1_665 ?
Se11 K2 K4 169.08(17) 1_556 1_665 ?
Se15 K2 K4 119.78(13) . 1_665 ?
Se14 K2 K4 115.91(13) 1_655 1_665 ?
Se13 K2 K4 52.96(9) 1_665 1_665 ?
Se1 K2 K4 88.31(10) 1_565 1_665 ?
Se12 K2 K4 78.60(12) 1_656 1_665 ?
Se4 K2 K4 51.13(9) 1_655 1_665 ?
Cl1 K2 K3 35.92(13) 1_666 1_566 ?
Se11 K2 K3 115.20(13) 1_556 1_566 ?
Se15 K2 K3 118.83(13) . 1_566 ?
Se14 K2 K3 171.59(17) 1_655 1_566 ?
Se13 K2 K3 84.09(10) 1_665 1_566 ?
Se1 K2 K3 52.76(9) 1_565 1_566 ?
Se12 K2 K3 108.64(14) 1_656 1_566 ?
Se4 K2 K3 112.16(13) 1_655 1_566 ?
K4 K2 K3 61.17(11) 1_665 1_566 ?
Cl1 K3 Se8 141.2(2) 1_655 1_554 ?
Cl1 K3 Se16 137.83(18) 1_655 . ?
Se8 K3 Se16 68.42(11) 1_554 . ?
Cl1 K3 Se11 135.0(2) 1_655 . ?
Se8 K3 Se11 70.87(11) 1_554 . ?
Se16 K3 Se11 73.41(11) . . ?
Cl1 K3 Se10 82.95(16) 1_655 1_654 ?
Se8 K3 Se10 64.23(10) 1_554 1_654 ?
Se16 K3 Se10 132.52(16) . 1_654 ?
Se11 K3 Se10 93.94(12) . 1_654 ?
Cl1 K3 Se7 80.39(15) 1_655 . ?
Se8 K3 Se7 132.00(16) 1_554 . ?
Se16 K3 Se7 63.60(9) . . ?
Se11 K3 Se7 96.25(13) . . ?
Se10 K3 Se7 163.19(16) 1_654 . ?
Cl1 K3 Se5 83.06(15) 1_655 . ?
Se8 K3 Se5 95.15(14) 1_554 . ?
Se16 K3 Se5 60.91(9) . . ?
Se11 K3 Se5 134.08(16) . . ?
Se10 K3 Se5 119.66(15) 1_654 . ?
Se7 K3 Se5 60.42(8) . . ?
Cl1 K3 Se1 80.87(16) 1_655 1_554 ?
Se8 K3 Se1 65.60(10) 1_554 1_554 ?
Se16 K3 Se1 96.67(14) . 1_554 ?
Se11 K3 Se1 135.84(15) . 1_554 ?
Se10 K3 Se1 60.87(9) 1_654 1_554 ?
Se7 K3 Se1 118.08(13) . 1_554 ?
Se5 K3 Se1 59.04(9) . 1_554 ?
Cl1 K3 K2 36.20(14) 1_655 1_544 ?
Se8 K3 K2 113.91(15) 1_554 1_544 ?
Se16 K3 K2 116.25(14) . 1_544 ?
Se11 K3 K2 170.08(17) . 1_544 ?
Se10 K3 K2 81.08(11) 1_654 1_544 ?
Se7 K3 K2 86.76(11) . 1_544 ?
Se5 K3 K2 55.39(9) . 1_544 ?
Se1 K3 K2 48.33(9) 1_554 1_544 ?
Cl1 K3 K4 121.12(19) 1_655 1_554 ?
Se8 K3 K4 44.99(9) 1_554 1_554 ?
Se16 K3 K4 50.85(10) . 1_554 ?
Se11 K3 K4 103.82(14) . 1_554 ?
Se10 K3 K4 91.08(13) 1_654 1_554 ?
Se7 K3 K4 99.40(13) . 1_554 ?
Se5 K3 K4 50.16(9) . 1_554 ?
Se1 K3 K4 47.07(9) 1_554 1_554 ?
K2 K3 K4 84.94(12) 1_544 1_554 ?
Cl1 K3 K4 34.88(12) 1_655 1_654 ?
Se8 K3 K4 118.45(14) 1_554 1_654 ?
Se16 K3 K4 172.50(14) . 1_654 ?
Se11 K3 K4 111.07(15) . 1_654 ?
Se10 K3 K4 54.22(9) 1_654 1_654 ?
Se7 K3 K4 109.39(14) . 1_654 ?
Se5 K3 K4 113.90(13) . 1_654 ?
Se1 K3 K4 84.23(11) 1_554 1_654 ?
K2 K3 K4 59.08(10) 1_544 1_654 ?
K4 K3 K4 131.10(16) 1_554 1_654 ?
Cl1 K3 K1 33.89(14) 1_655 1_655 ?
Se8 K3 K1 173.34(16) 1_554 1_655 ?
Se16 K3 K1 118.24(13) . 1_655 ?
Se11 K3 K1 110.21(15) . 1_655 ?
Se10 K3 K1 109.12(14) 1_654 1_655 ?
Se7 K3 K1 54.66(9) . 1_655 ?
Se5 K3 K1 88.64(11) . 1_655 ?
Se1 K3 K1 112.17(13) 1_554 1_655 ?
K2 K3 K1 63.99(11) 1_544 1_655 ?
K4 K3 K1 138.52(14) 1_554 1_655 ?
K4 K3 K1 54.90(10) 1_654 1_655 ?
Cl1 K4 Se8 142.3(2) 1_556 . ?
Cl1 K4 Se2 138.6(2) 1_556 . ?
Se8 K4 Se2 67.10(10) . . ?
Cl1 K4 Se1 139.92(18) 1_556 . ?
Se8 K4 Se1 68.67(11) . . ?
Se2 K4 Se1 65.48(10) . . ?
Cl1 K4 Se16 84.64(16) 1_556 1_556 ?
Se8 K4 Se16 64.40(10) . 1_556 ?
Se2 K4 Se16 131.50(15) . 1_556 ?
Se1 K4 Se16 96.66(14) . 1_556 ?
Cl1 K4 Se5 85.15(15) 1_556 1_556 ?
Se8 K4 Se5 95.87(14) . 1_556 ?
Se2 K4 Se5 127.77(16) . 1_556 ?
Se1 K4 Se5 62.36(10) . 1_556 ?
Se16 K4 Se5 59.23(9) 1_556 1_556 ?
Cl1 K4 Se4 83.53(15) 1_556 1_545 ?
Se8 K4 Se4 129.56(16) . 1_545 ?
Se2 K4 Se4 91.85(13) . 1_545 ?
Se1 K4 Se4 60.89(9) . 1_545 ?
Se16 K4 Se4 119.39(14) 1_556 1_545 ?
Se5 K4 Se4 60.65(8) 1_556 1_545 ?
Cl1 K4 Se13 79.50(16) 1_556 . ?
Se8 K4 Se13 129.90(15) . . ?
Se2 K4 Se13 63.22(10) . . ?
Se1 K4 Se13 95.74(12) . . ?
Se16 K4 Se13 164.13(15) 1_556 . ?
Se5 K4 Se13 119.22(12) 1_556 . ?
Se4 K4 Se13 59.37(8) 1_545 . ?
Cl1 K4 Se14 83.16(15) 1_556 . ?
Se8 K4 Se14 63.65(9) . . ?
Se2 K4 Se14 96.83(12) . . ?
Se1 K4 Se14 132.28(14) . . ?
Se16 K4 Se14 61.15(8) 1_556 . ?
Se5 K4 Se14 119.97(14) 1_556 . ?
Se4 K4 Se14 166.55(16) 1_545 . ?
Se13 K4 Se14 115.95(15) . . ?
Cl1 K4 K1 40.07(14) 1_556 1_556 ?
Se8 K4 K1 114.28(15) . 1_556 ?
Se2 K4 K1 178.57(18) . 1_556 ?
Se1 K4 K1 115.21(15) . 1_556 ?
Se16 K4 K1 49.88(10) 1_556 1_556 ?
Se5 K4 K1 52.87(10) 1_556 1_556 ?
Se4 K4 K1 87.49(11) 1_545 1_556 ?
Se13 K4 K1 115.36(13) . 1_556 ?
Se14 K4 K1 83.59(11) . 1_556 ?
Cl1 K4 K2 36.81(13) 1_556 1_445 ?
Se8 K4 K2 176.19(16) . 1_445 ?
Se2 K4 K2 111.42(15) . 1_445 ?
Se1 K4 K2 114.20(12) . 1_445 ?
Se16 K4 K2 116.96(13) 1_556 1_445 ?
Se5 K4 K2 87.79(10) 1_556 1_445 ?
Se4 K4 K2 53.41(9) 1_545 1_445 ?
Se13 K4 K2 48.28(9) . 1_445 ?
Se14 K4 K2 113.52(13) . 1_445 ?
K1 K4 K2 67.18(11) 1_556 1_445 ?
Cl1 K4 K3 124.24(19) 1_556 1_556 ?
Se8 K4 K3 44.16(9) . 1_556 ?
Se2 K4 K3 97.15(13) . 1_556 ?
Se1 K4 K3 52.48(10) . 1_556 ?
Se16 K4 K3 45.43(9) 1_556 1_556 ?
Se5 K4 K3 51.70(9) 1_556 1_556 ?
Se4 K4 K3 99.29(13) 1_545 1_556 ?
Se13 K4 K3 148.19(14) . 1_556 ?
Se14 K4 K3 89.83(12) . 1_556 ?
K1 K4 K3 84.21(13) 1_556 1_556 ?
K2 K4 K3 139.47(13) 1_445 1_556 ?
Se2 Cd1 Se6 109.87(8) . . ?
Se2 Cd1 Se12 113.89(8) . . ?
Se6 Cd1 Se12 106.78(7) . . ?
Se2 Cd1 Se10 109.06(7) . . ?
Se6 Cd1 Se10 106.61(7) . . ?
Se12 Cd1 Se10 110.36(8) . . ?
Se13 Ga1 Se1 106.84(9) 1_655 . ?
Se13 Ga1 Se10 106.25(11) 1_655 1_655 ?
Se1 Ga1 Se10 104.71(9) . 1_655 ?
Se13 Ga1 Se3 111.82(9) 1_655 . ?
Se1 Ga1 Se3 112.61(10) . . ?
Se10 Ga1 Se3 114.01(9) 1_655 . ?
Se8 Ga2 Se14 109.98(11) . . ?
Se8 Ga2 Se6 112.88(10) . . ?
Se14 Ga2 Se6 102.86(11) . . ?
Se8 Ga2 Se4 116.46(11) . . ?
Se14 Ga2 Se4 111.48(10) . . ?
Se6 Ga2 Se4 102.15(9) . . ?
Se8 Ga3 Se15 120.43(12) . . ?
Se8 Ga3 Se10 102.09(9) . 1_655 ?
Se15 Ga3 Se10 105.05(11) . 1_655 ?
Se8 Ga3 Se9 115.49(11) . . ?
Se15 Ga3 Se9 103.32(10) . . ?
Se10 Ga3 Se9 109.84(10) 1_655 . ?
Se5 Ga4 Se6 111.49(11) 1_565 . ?
Se5 Ga4 Se9 109.31(11) 1_565 . ?
Se6 Ga4 Se9 117.85(9) . . ?
Se5 Ga4 Se7 105.54(9) 1_565 1_565 ?
Se6 Ga4 Se7 105.95(9) . 1_565 ?
Se9 Ga4 Se7 105.77(10) . 1_565 ?
Se11 Ga5 Se2 118.42(12) . . ?
Se11 Ga5 Se9 108.89(10) . . ?
Se2 Ga5 Se9 111.83(10) . . ?
Se11 Ga5 Se3 104.87(10) . . ?
Se2 Ga5 Se3 104.60(9) . . ?
Se9 Ga5 Se3 107.39(11) . . ?
Se15 Ga6 Se1 110.14(11) 1_545 . ?
Se15 Ga6 Se4 116.88(9) 1_545 1_545 ?
Se1 Ga6 Se4 101.55(9) . 1_545 ?
Se15 Ga6 Se7 107.38(10) 1_545 . ?
Se1 Ga6 Se7 112.08(9) . . ?
Se4 Ga6 Se7 108.85(11) 1_545 . ?
Se16 Ga7 Se13 114.94(11) . . ?
Se16 Ga7 Se2 119.58(10) . . ?
Se13 Ga7 Se2 106.25(10) . . ?
Se16 Ga7 Se7 103.34(10) . . ?
Se13 Ga7 Se7 111.62(9) . . ?
Se2 Ga7 Se7 100.04(9) . . ?
Se16 Ga7 K1 60.35(9) . . ?
Se13 Ga7 K1 61.29(10) . . ?
Se2 Ga7 K1 160.27(11) . . ?
Se7 Ga7 K1 98.96(10) . . ?
Se16 Ga8 Se14 110.25(11) . 1_554 ?
Se16 Ga8 Se12 121.18(12) . . ?
Se14 Ga8 Se12 107.94(10) 1_554 . ?
Se16 Ga8 Se3 104.61(9) . 1_455 ?
Se14 Ga8 Se3 103.33(11) 1_554 1_455 ?
Se12 Ga8 Se3 108.04(9) . 1_455 ?
Se11 Ga9 Se5 116.35(11) . 1_565 ?
Se11 Ga9 Se12 120.82(10) . . ?
Se5 Ga9 Se12 104.96(10) 1_565 . ?
Se11 Ga9 Se4 110.06(9) . 1_554 ?
Se5 Ga9 Se4 103.61(9) 1_565 1_554 ?
Se12 Ga9 Se4 98.36(9) . 1_554 ?
Ga6 Se1 Ga1 106.94(10) . . ?
Ga6 Se1 K4 95.68(11) . . ?
Ga1 Se1 K4 135.66(10) . . ?
Ga6 Se1 K2 84.22(10) . 1_545 ?
Ga1 Se1 K2 92.68(10) . 1_545 ?
K4 Se1 K2 127.82(12) . 1_545 ?
Ga6 Se1 K3 154.83(11) . 1_556 ?
Ga1 Se1 K3 92.48(10) . 1_556 ?
K4 Se1 K3 80.45(12) . 1_556 ?
K2 Se1 K3 78.91(12) 1_545 1_556 ?
Ga5 Se2 Ga7 109.62(9) . . ?
Ga5 Se2 Cd1 103.06(8) . . ?
Ga7 Se2 Cd1 99.91(9) . . ?
Ga5 Se2 K4 146.79(13) . . ?
Ga7 Se2 K4 96.87(11) . . ?
Cd1 Se2 K4 91.29(11) . . ?
Ga5 Se3 Ga1 106.96(9) . . ?
Ga5 Se3 Ga8 110.82(9) . 1_655 ?
Ga1 Se3 Ga8 108.65(9) . 1_655 ?
Ga5 Se3 K1 152.05(12) . 1_655 ?
Ga1 Se3 K1 82.57(10) . 1_655 ?
Ga8 Se3 K1 89.79(9) 1_655 1_655 ?
Ga6 Se4 Ga2 104.82(9) 1_565 . ?
Ga6 Se4 Ga9 107.56(9) 1_565 1_556 ?
Ga2 Se4 Ga9 103.97(8) . 1_556 ?
Ga6 Se4 K4 88.45(10) 1_565 1_565 ?
Ga2 Se4 K4 152.25(13) . 1_565 ?
Ga9 Se4 K4 94.71(11) 1_556 1_565 ?
Ga6 Se4 K2 149.17(10) 1_565 1_455 ?
Ga2 Se4 K2 81.17(10) . 1_455 ?
Ga9 Se4 K2 99.95(10) 1_556 1_455 ?
K4 Se4 K2 75.46(11) 1_565 1_455 ?
Ga4 Se5 Ga9 104.77(9) 1_545 1_545 ?
Ga4 Se5 K1 83.46(11) 1_545 . ?
Ga9 Se5 K1 100.24(11) 1_545 . ?
Ga4 Se5 K4 150.35(11) 1_545 1_554 ?
Ga9 Se5 K4 97.21(11) 1_545 1_554 ?
K1 Se5 K4 73.11(11) . 1_554 ?
Ga4 Se5 K3 93.81(11) 1_545 . ?
Ga9 Se5 K3 145.73(11) 1_545 . ?
K1 Se5 K3 110.44(11) . . ?
K4 Se5 K3 78.14(11) 1_554 . ?
Ga4 Se6 Ga2 109.31(10) . . ?
Ga4 Se6 Cd1 100.89(8) . . ?
Ga2 Se6 Cd1 105.12(8) . . ?
Ga4 Se6 K1 89.79(10) . 1_565 ?
Ga2 Se6 K1 149.70(11) . 1_565 ?
Cd1 Se6 K1 93.55(10) . 1_565 ?
Ga4 Se7 Ga6 105.74(9) 1_545 . ?
Ga4 Se7 Ga7 106.96(10) 1_545 . ?
Ga6 Se7 Ga7 109.17(10) . . ?
Ga4 Se7 K3 94.49(11) 1_545 . ?
Ga6 Se7 K3 149.87(12) . . ?
Ga7 Se7 K3 85.15(10) . . ?
Ga2 Se8 Ga3 104.61(9) . . ?
Ga2 Se8 K3 136.89(13) . 1_556 ?
Ga3 Se8 K3 94.70(12) . 1_556 ?
Ga2 Se8 K4 95.60(12) . . ?
Ga3 Se8 K4 143.21(13) . . ?
K3 Se8 K4 90.85(14) 1_556 . ?
Ga4 Se9 Ga5 104.61(10) . . ?
Ga4 Se9 Ga3 103.31(9) . . ?
Ga5 Se9 Ga3 107.43(9) . . ?
Ga1 Se10 Ga3 109.99(10) 1_455 1_455 ?
Ga1 Se10 Cd1 102.48(8) 1_455 . ?
Ga3 Se10 Cd1 105.61(8) 1_455 . ?
Ga1 Se10 K3 97.93(11) 1_455 1_456 ?
Ga3 Se10 K3 86.59(10) 1_455 1_456 ?
Cd1 Se10 K3 150.67(12) . 1_456 ?
Ga5 Se11 Ga9 101.99(10) . . ?
Ga5 Se11 K2 97.80(13) . 1_554 ?
Ga9 Se11 K2 91.94(10) . 1_554 ?
Ga5 Se11 K3 95.75(11) . . ?
Ga9 Se11 K3 136.66(13) . . ?
K2 Se11 K3 124.56(13) 1_554 . ?
Ga8 Se12 Ga9 104.77(9) . . ?
Ga8 Se12 Cd1 102.87(8) . . ?
Ga9 Se12 Cd1 100.46(9) . . ?
Ga8 Se12 K2 85.77(10) . 1_454 ?
Ga9 Se12 K2 102.16(10) . 1_454 ?
Cd1 Se12 K2 152.79(10) . 1_454 ?
Ga7 Se13 Ga1 107.62(8) . 1_455 ?
Ga7 Se13 K1 82.96(10) . . ?
Ga1 Se13 K1 88.44(11) 1_455 . ?
Ga7 Se13 K2 156.43(12) . 1_445 ?
Ga1 Se13 K2 93.43(10) 1_455 1_445 ?
K1 Se13 K2 108.70(12) . 1_445 ?
Ga7 Se13 K4 87.56(10) . . ?
Ga1 Se13 K4 98.46(10) 1_455 . ?
K1 Se13 K4 169.63(13) . . ?
K2 Se13 K4 78.76(12) 1_445 . ?
Ga8 Se14 Ga2 100.92(11) 1_556 . ?
Ga8 Se14 K2 95.48(12) 1_556 1_455 ?
Ga2 Se14 K2 91.97(11) . 1_455 ?
Ga8 Se14 K4 91.13(11) 1_556 . ?
Ga2 Se14 K4 83.18(10) . . ?
K2 Se14 K4 172.45(12) 1_455 . ?
Ga6 Se15 Ga3 105.02(10) 1_565 . ?
Ga6 Se15 K1 96.45(11) 1_565 1_665 ?
Ga3 Se15 K1 105.30(12) . 1_665 ?
Ga6 Se15 K2 87.93(11) 1_565 . ?
Ga3 Se15 K2 135.16(11) . . ?
K1 Se15 K2 115.82(13) 1_665 . ?
Ga7 Se16 Ga8 105.43(10) . . ?
Ga7 Se16 K3 94.93(12) . . ?
Ga8 Se16 K3 133.00(11) . . ?
Ga7 Se16 K1 83.94(11) . . ?
Ga8 Se16 K1 97.97(12) . . ?
K3 Se16 K1 126.41(12) . . ?
Ga7 Se16 K4 153.10(10) . 1_554 ?
Ga8 Se16 K4 94.67(11) . 1_554 ?
K3 Se16 K4 83.72(13) . 1_554 ?
K1 Se16 K4 75.59(12) . 1_554 ?
K1 Cl1 K3 111.8(2) . 1_455 ?
K1 Cl1 K4 99.2(2) . 1_554 ?
K3 Cl1 K4 110.4(2) 1_455 1_554 ?
K1 Cl1 K2 120.4(2) . 1_444 ?
K3 Cl1 K2 107.9(2) 1_455 1_444 ?
K4 Cl1 K2 106.5(2) 1_554 1_444 ?
loop_
_geom_bond_atom_site_label_1
_geom_bond_atom_site_label_2
_geom_bond_distance
_geom_bond_site_symmetry_2
_geom_bond_publ_flag
K1 Cl1 2.907(8) . ?
K1 Se15 3.391(5) 1_445 ?
K1 Se6 3.427(5) 1_545 ?
K1 Se16 3.520(5) . ?
K1 Se13 3.559(6) . ?
K1 Se5 3.715(5) . ?
K1 Se3 3.766(5) 1_455 ?
K2 Cl1 2.956(7) 1_666 ?
K2 Se11 3.422(5) 1_556 ?
K2 Se15 3.475(6) . ?
K2 Se14 3.505(5) 1_655 ?
K2 Se13 3.600(5) 1_665 ?
K2 Se1 3.626(5) 1_565 ?
K2 Se12 3.876(5) 1_656 ?
K2 Se4 3.924(5) 1_655 ?
K3 Cl1 2.936(7) 1_655 ?
K3 Se8 3.348(6) 1_554 ?
K3 Se16 3.444(5) . ?
K3 Se11 3.452(6) . ?
K3 Se10 3.626(5) 1_654 ?
K3 Se7 3.770(5) . ?
K3 Se5 3.854(5) . ?
K3 Se1 3.865(6) 1_554 ?
K4 Cl1 2.947(7) 1_556 ?
K4 Se8 3.397(5) . ?
K4 Se2 3.436(6) . ?
K4 Se1 3.568(6) . ?
K4 Se16 3.749(6) 1_556 ?
K4 Se5 3.770(6) 1_556 ?
K4 Se4 3.805(5) 1_545 ?
K4 Se13 3.850(6) . ?
K4 Se14 3.890(5) . ?
Cd1 Se2 2.601(2) . ?
Cd1 Se6 2.609(2) . ?
Cd1 Se12 2.614(3) . ?
Cd1 Se10 2.615(2) . ?
Ga1 Se13 2.377(3) 1_655 ?
Ga1 Se1 2.382(2) . ?
Ga1 Se10 2.417(3) 1_655 ?
Ga1 Se3 2.465(2) . ?
Ga2 Se8 2.343(3) . ?
Ga2 Se14 2.377(3) . ?
Ga2 Se6 2.446(3) . ?
Ga2 Se4 2.464(3) . ?
Ga3 Se8 2.347(3) . ?
Ga3 Se15 2.367(3) . ?
Ga3 Se10 2.430(3) 1_655 ?
Ga3 Se9 2.456(3) . ?
Ga4 Se5 2.367(3) 1_565 ?
Ga4 Se6 2.390(3) . ?
Ga4 Se9 2.439(3) . ?
Ga4 Se7 2.451(2) 1_565 ?
Ga5 Se11 2.351(3) . ?
Ga5 Se2 2.411(2) . ?
Ga5 Se9 2.440(3) . ?
Ga5 Se3 2.453(3) . ?
Ga6 Se15 2.356(3) 1_545 ?
Ga6 Se1 2.370(3) . ?
Ga6 Se4 2.459(2) 1_545 ?
Ga6 Se7 2.475(3) . ?
Ga7 Se16 2.364(3) . ?
Ga7 Se13 2.371(2) . ?
Ga7 Se2 2.423(3) . ?
Ga7 Se7 2.494(3) . ?
Ga8 Se16 2.369(3) . ?
Ga8 Se14 2.369(3) 1_554 ?
Ga8 Se12 2.416(3) . ?
Ga8 Se3 2.490(2) 1_455 ?
Ga9 Se11 2.362(3) . ?
Ga9 Se5 2.387(3) 1_565 ?
Ga9 Se12 2.431(3) . ?
Ga9 Se4 2.479(2) 1_554 ?
Se1 K2 3.626(5) 1_545 ?
Se1 K3 3.865(6) 1_556 ?
Se3 Ga8 2.490(2) 1_655 ?
Se3 K1 3.766(5) 1_655 ?
Se4 Ga6 2.459(2) 1_565 ?
Se4 Ga9 2.479(2) 1_556 ?
Se4 K4 3.805(5) 1_565 ?
Se4 K2 3.924(5) 1_455 ?
Se5 Ga4 2.367(3) 1_545 ?
Se5 Ga9 2.387(3) 1_545 ?
Se5 K4 3.770(6) 1_554 ?
Se6 K1 3.427(5) 1_565 ?
Se7 Ga4 2.451(2) 1_545 ?
Se8 K3 3.348(6) 1_556 ?
Se10 Ga1 2.417(3) 1_455 ?
Se10 Ga3 2.430(3) 1_455 ?
Se10 K3 3.626(5) 1_456 ?
Se11 K2 3.422(5) 1_554 ?
Se12 K2 3.876(5) 1_454 ?
Se13 Ga1 2.377(3) 1_455 ?
Se13 K2 3.600(5) 1_445 ?
Se14 Ga8 2.369(3) 1_556 ?
Se14 K2 3.504(5) 1_455 ?
Se15 Ga6 2.356(3) 1_565 ?
Se15 K1 3.391(5) 1_665 ?
Se16 K4 3.749(6) 1_554 ?
Cl1 K3 2.936(7) 1_455 ?
Cl1 K4 2.947(7) 1_554 ?
Cl1 K2 2.956(7) 1_444 ?
