#------------------------------------------------------------------------------
#$Date: 2021-07-13 01:37:39 +0300 (Tue, 13 Jul 2021) $
#$Revision: 267474 $
#$URL: file:///home/coder/svn-repositories/cod/cif/4/00/40/4004002.cif $
#------------------------------------------------------------------------------
#
# This file is available in the Crystallography Open Database (COD),
# http://www.crystallography.net/
#
# All data on this site have been placed in the public domain by the
# contributors.
#
data_4004002
loop_
_publ_author_name
'Laing, Craig C.'
'Shen, Jiahong'
'Chica, Daniel G.'
'Cuthriell, Shelby A.'
'Schaller, Richard D.'
'Wolverton, Chris'
'Kanatzidis, Mercouri G.'
_publ_section_title
;
 Photoluminescent Re6Q8I2 (Q = S, Se) Semiconducting Cluster Compounds
;
_journal_name_full               'Chemistry of Materials'
_journal_paper_doi               10.1021/acs.chemmater.1c01696
_journal_year                    2021
_chemical_formula_moiety         '0.5(I4 Re12 S16)'
_chemical_formula_sum            'I2 Re6 S8'
_chemical_formula_weight         1627.48
_space_group_crystal_system      monoclinic
_space_group_IT_number           14
_space_group_name_Hall           '-P 2yn'
_space_group_name_H-M_alt        'P 1 21/n 1'
_atom_sites_solution_primary     dual
_audit_creation_date             2021-05-05
_audit_creation_method
;
Olex2 1.2
(compiled 2018.05.29 svn.r3508 for OlexSys, GUI svn.r5506)
;
_cell_angle_alpha                90
_cell_angle_beta                 98.77(3)
_cell_angle_gamma                90
_cell_formula_units_Z            2
_cell_length_a                   6.3649(13)
_cell_length_b                   11.607(2)
_cell_length_c                   10.177(2)
_cell_measurement_reflns_used    14430
_cell_measurement_temperature    293
_cell_measurement_theta_max      32.67
_cell_measurement_theta_min      2.11
_cell_volume                     743.1(3)
_computing_molecular_graphics    'Olex2 (Dolomanov et al., 2009)'
_computing_publication_material  'Olex2 (Dolomanov et al., 2009)'
_computing_structure_refinement  'ShelXL (Sheldrick, 2015)'
_computing_structure_solution    'ShelXT (Sheldrick, 2015)'
_diffrn_ambient_temperature      293
_diffrn_detector                 'Pilatus300K CdTe'
_diffrn_detector_area_resol_mean 5.81
_diffrn_measured_fraction_theta_full 0.994
_diffrn_measured_fraction_theta_max 0.997
_diffrn_measurement_device       'Eulerian 4-circle diffractometer'
_diffrn_measurement_device_type  STADIVARI
_diffrn_measurement_method       'rotation method, \w scans'
_diffrn_radiation_monochromator  'Graded multilayer mirror'
_diffrn_radiation_polarisn_norm  180
_diffrn_radiation_probe          x-ray
_diffrn_radiation_type           AgK\a
_diffrn_radiation_wavelength     0.56083
_diffrn_reflns_av_R_equivalents  0.0346
_diffrn_reflns_av_unetI/netI     0.0402
_diffrn_reflns_Laue_measured_fraction_full 0.994
_diffrn_reflns_Laue_measured_fraction_max 0.997
_diffrn_reflns_limit_h_max       10
_diffrn_reflns_limit_h_min       -10
_diffrn_reflns_limit_k_max       18
_diffrn_reflns_limit_k_min       -19
_diffrn_reflns_limit_l_max       16
_diffrn_reflns_limit_l_min       -17
_diffrn_reflns_number            10313
_diffrn_reflns_point_group_measured_fraction_full 0.994
_diffrn_reflns_point_group_measured_fraction_max 0.997
_diffrn_reflns_theta_full        19.664
_diffrn_reflns_theta_max         27.998
_diffrn_reflns_theta_min         2.114
_diffrn_source                   'Axo Ag'
_diffrn_source_current           0.680
_diffrn_source_power             0.044
_diffrn_source_voltage           65
_exptl_absorpt_coefficient_mu    28.940
_exptl_absorpt_correction_T_max  0.0311
_exptl_absorpt_correction_T_min  0.0063
_exptl_absorpt_correction_type   numerical
_exptl_absorpt_process_details
;
STOE X-Red32, absorption correction by Gaussian integration, analogous to
P. Coppens, "The Evaluation of Absorption and Extinction in Single-Crystal
Structure Analysis", published in: F. R. Ahmed (Editor), "Crystallographic
Computing", Munksgaard, Copenhagen (1970), 255 - 270. Afterwards scaling of
reflection intensities was performed within STOE LANA. J. Koziskova, F. Hahn,
J. Richter, J. Kozisek, Acta Chimica Slovaca, vol. 9, no. 2, 2016, pp. 136-140.
;
_exptl_crystal_colour            black
_exptl_crystal_colour_primary    black
_exptl_crystal_density_diffrn    7.274
_exptl_crystal_density_method    'not measured'
_exptl_crystal_description       needle
_exptl_crystal_F_000             1368
_exptl_crystal_preparation       'Grown in a NaI salt flux'
_exptl_crystal_recrystallization_method 'Grown in a NaI salt flux'
_exptl_crystal_size_max          0.023
_exptl_crystal_size_mid          0.009
_exptl_crystal_size_min          0.008
_refine_diff_density_max         3.191
_refine_diff_density_min         -3.672
_refine_diff_density_rms         0.646
_refine_ls_extinction_method     none
_refine_ls_goodness_of_fit_ref   1.091
_refine_ls_hydrogen_treatment    undef
_refine_ls_matrix_type           full
_refine_ls_number_parameters     73
_refine_ls_number_reflns         3639
_refine_ls_number_restraints     0
_refine_ls_restrained_S_all      1.091
_refine_ls_R_factor_all          0.0563
_refine_ls_R_factor_gt           0.0420
_refine_ls_shift/su_max          0.001
_refine_ls_shift/su_mean         0.000
_refine_ls_structure_factor_coef Fsqd
_refine_ls_weighting_details
'w=1/[\s^2^(Fo^2^)+(0.0396P)^2^+26.0296P] where P=(Fo^2^+2Fc^2^)/3'
_refine_ls_weighting_scheme      calc
_refine_ls_wR_factor_gt          0.0977
_refine_ls_wR_factor_ref         0.1033
_reflns_Friedel_coverage         0.000
_reflns_number_gt                2952
_reflns_number_total             3639
_reflns_threshold_expression     'I > 2\s(I)'
_cod_data_source_file            cm1c01696_si_002.cif
_cod_data_source_block           try4
_cod_depositor_comments
;
The following automatic conversions were performed:

data item '_exptl_absorpt_correction_type' value 'Numerical' was
changed to 'numerical' in accordance with the
/home/data/users/saulius/crontab/automatic-downloads/rss-feeds/ACS/lib/dictionaries/cif_core.dic
dictionary named 'cif_core.dic' version 2.4.2 last updated on
2011-04-26.

Automatic conversion script
Id: cif_fix_values 7556 2019-12-06 15:28:31Z antanas 
;
_cod_original_cell_volume        743.0(3)
_cod_database_code               4004002
_shelx_shelxl_version_number     2018/3
_shelx_space_group_comment
;
The symmetry employed for this shelxl refinement is uniquely defined
by the following loop, which should always be used as a source of
symmetry information in preference to the above space-group names.
They are only intended as comments.
;
_shelx_estimated_absorpt_t_max   0.801
_shelx_estimated_absorpt_t_min   0.556
_olex2_refinement_description
;
;
_shelx_res_file
;
TITL try4_a.res in P2(1)/n
    try4.res
    created by SHELXL-2018/3 at 15:59:31 on 05-May-2021
REM Old TITL Try4 in P2(1)/n
REM SHELXT solution in P2(1)/n: R1 0.080, Rweak 0.005, Alpha 0.019
REM <I/s> 1.311 for 83 systematic absences, Orientation as input
REM Formula found by SHELXT: S4 I Re3
CELL 0.56083 6.3649 11.6067 10.1769 90 98.774 90
ZERR 2 0.0013 0.0023 0.002 0 0.03 0
LATT 1
SYMM 0.5-X,0.5+Y,0.5-Z
SFAC S I Re
UNIT 16 4 12

L.S. 99
PLAN  10
SIZE 0.008 0.009 0.023
TEMP 19.85
list 4
fmap 2 53
ACTA
OMIT 2 6 2
OMIT 4 3 5
OMIT 2 1 6
OMIT 2 3 2
OMIT 2 4 3
OMIT 2 10 1
OMIT 2 4 2
OMIT 2 8 2
REM <olex2.extras>
REM <HklSrc "%.\\Try4.hkl">
REM </olex2.extras>

WGHT    0.039600   26.029602
FVAR       0.14981
RE3   3    0.617683    0.447561    0.665702    11.00000    0.01226    0.01709 =
         0.01501    0.00024    0.00110    0.00009
RE1   3    0.248509    0.526938    0.560712    11.00000    0.01144    0.01732 =
         0.01583   -0.00043    0.00168    0.00012
RE2   3    0.587207    0.648593    0.545168    11.00000    0.01231    0.01614 =
         0.01589   -0.00061    0.00138   -0.00005
I1    2    0.786280    0.377340    0.919452    11.00000    0.03224    0.01964 =
         0.01823    0.00027   -0.00161    0.00379
S2    1    0.239793    0.708505    0.448054    11.00000    0.01700    0.01861 =
         0.01995    0.00083    0.00121    0.00214
S3    1    0.454334    0.612081    0.750257    11.00000    0.01531    0.02158 =
         0.01634   -0.00175    0.00278    0.00014
S4    1    0.295664    0.343251    0.668678    11.00000    0.01591    0.02047 =
         0.01939    0.00155    0.00340   -0.00279
S1    1    0.918250    0.570086    0.652512    11.00000    0.01174    0.02116 =
         0.01984   -0.00154    0.00215   -0.00073
HKLF 4




REM  try4_a.res in P2(1)/n
REM wR2 = 0.1033, GooF = S = 1.091, Restrained GooF = 1.091 for all data
REM R1 = 0.0420 for 2952 Fo > 4sig(Fo) and 0.0563 for all 3639 data
REM 73 parameters refined using 0 restraints

END

WGHT      0.0396     26.0371

REM Highest difference peak  3.191,  deepest hole -3.672,  1-sigma level  0.646
Q1    1   1.0398  0.6443  0.5446  11.00000  0.05    3.19
Q2    1   1.0863  0.4475  0.6728  11.00000  0.05    3.19
Q3    1   0.6199  0.3809  0.6627  11.00000  0.05    3.07
Q4    1   0.8044  0.4357  0.9134  11.00000  0.05    2.95
Q5    1   0.2460  0.4811  0.4341  11.00000  0.05    2.76
Q6    1   0.2569  0.4616  0.5516  11.00000  0.05    2.43
Q7    1   1.0000  0.5000  1.0000  10.50000  0.05    2.43
Q8    1   0.5659  0.6130  0.4240  11.00000  0.05    2.40
Q9    1   0.2193  0.5833  0.5814  11.00000  0.05    2.35
Q10   1   0.6183  0.6992  0.5292  11.00000  0.05    2.31
;
_shelx_res_checksum              68561
_shelx_hkl_file
;
  -3   1  -1  759.12   15.20
  -2   0  -1    8.40    5.10
  -1  11   7  292.07    9.50
   1 -18   5   -2.90    7.80
   3 -16   7   37.00   10.20
   4 -14   8   16.40   11.40
   4  -9   5  193.78   14.20
   4   5  11   21.30    7.90
   5 -11  10    8.30   10.80
   5 -10   9  169.08   14.60
   5  -8   8   -3.50    9.40
   5   1  11   16.60    8.90
  -4   1  -1  117.99    8.70
  -2 -16   1  138.89    7.30
  -2   3   0  380.76   10.80
  -1  -9  -1    3.30    4.20
  -1  -2  -1   24.60    2.30
   2 -15   4    9.40    7.60
   4 -13   7   -1.30    9.30
   5  -9   8   86.79   12.30
   5   2  13  133.69   11.40
  -2  10   5  115.79    8.90
  -1 -17   2   49.50    7.00
   3 -10   3   39.30   11.10
   4 -12   6  164.48   14.10
   4 -10   5   51.19   10.90
   4  -1   5  616.64   18.00
   5 -11   9  188.58   15.70
   5 -10   8  142.99   13.40
   5  -7   7  495.95   20.00
   5  -5   7 2448.75   39.60
   5  -4   7  142.29   12.90
   5   0   9  306.07   16.00
   5   1  10   45.70   10.00
   5   2  12    4.90    6.90
  -2   9   4  720.73   16.30
   0  10   7  135.79    5.90
   1 -12   1   37.80    9.00
   2  -7   1  499.75   15.80
   3 -13   4   11.20   11.20
   4  -6   4  403.06   17.00
   4  -5   4   35.40   10.80
   4   5  10   25.20    8.10
   5  -8   7   24.50   10.70
   5  -3   7   94.29   11.90
   5   2  11  448.66   17.00
  -6 -10  -1   78.79    5.30
  -1   4   1 1647.84   17.70
   2 -17   5  120.69   12.50
   2  -8   1   85.29    9.60
   3 -16   6    1.00    7.60
   3 -11   3  155.28   12.90
   4  -8   4  148.59   13.30
   4  -7   4   20.50    9.70
   5 -12   9   50.39   11.50
   5 -11   8  120.29   13.60
   5  -9   7    7.90   10.80
   1  10   9  656.93    6.90
   3 -15   5   37.30    9.60
   4  -3   4   57.69   10.60
   4   0   5   -5.50    6.30
   4   3   7  223.98   12.80
   4   6  12  123.79    9.90
   5 -10   7   28.40   10.10
   5  -2   7   68.09   11.00
   5   0   8   -9.40    9.80
   5   1   9  147.49   14.10
   5   3  13  104.19   10.80
  -4   0  -1    3.30    5.40
  -3   0  -1 4066.89   33.60
  -3   3   0  199.48    9.40
  -3   5   1  476.45   14.30
  -1  10   6  486.15   11.70
   1 -18   4   92.99   10.50
   1 -15   2   59.59   10.10
   2  -3   1 3853.81   33.90
   3  -6   2   91.89    8.50
   3  -5   2    6.00    8.40
   3   2   4   29.70    5.70
   4 -15   7   64.49   12.90
   4 -12   5  638.34   22.60
   4  -9   4  339.17   16.60
   5 -12   8  180.18   15.60
   5  -7   6  218.88   15.80
   5  -5   6    5.10   10.40
   5   2  10   31.80    8.90
   6  -7  11  175.98   15.30
   6  -5  11   64.19   10.50
   6  -3  12  310.07   18.60
  -3 -12  -1   81.29    2.60
  -1 -19   3   -4.70    4.90
   0 -12   0  846.42   16.80
   0  11   9  503.35    9.80
   3  -8   2 2003.70   32.80
   3   0   3  299.77   11.50
   3   8  11  113.19    6.80
   4 -14   6   11.10    9.90
   4 -10   4   24.30   10.30
   4  -2   4  566.04   17.70
   4   2   6  784.82   18.80
   5 -11   7  123.29   13.60
   5  -8   6    7.80    9.90
   6  -6  10  139.69   14.90
   6  -3  11   69.19   11.90
  -6  -9  -1    9.20    5.00
  -3 -15   0    2.30    2.80
  -1 -16   1   41.60    6.30
  -1 -10  -1  193.28    6.80
  -1   9   5  207.68    8.60
   1 -13   1   18.50    8.10
   2 -18   5   -2.70    9.10
   2 -10   1   57.09    9.60
   2   3   3  220.78    7.10
   4   6  11  269.27   12.70
   5 -13   8   11.20   10.90
   5  -3   6   11.50   10.40
   5   3  11   60.89   10.50
   6  -9  10   20.10   12.20
   6  -4  10   50.49   10.50
   6  -2  11   16.10   11.10
  -2   6   2   82.19    6.70
  -1   8   4  271.77    9.20
   0 -15   1   75.69    9.50
   2   1   2 1126.29   15.50
   4 -13   5   53.19   11.10
   4 -11   4  370.66   17.80
   5 -12   7   -8.60   10.30
   5 -10   6   71.99   12.70
   5   1   8  352.86   17.00
   5   2   9   29.80   10.30
   6  -7   9   12.00   10.40
   6  -6   9   13.40   10.90
   6  -5   9   97.59   14.10
   6  -1  12   95.89   11.20
  -1 -18   2    6.40    5.20
   3 -15   4   62.29   10.00
   5  -2   6    2.30    9.80
   5   0   7    9.20    9.10
   5   4  13  330.47   14.30
   6  -9   9   79.49   12.70
   6  -8   9   53.39   12.10
   6  -2  10    3.00    8.60
   6  -1  11   -9.40    9.80
  -6  -8  -1   16.30    5.30
  -4  -1  -1   93.49    7.00
   0   9   6 1168.88   13.80
   1 -16   2   36.70    8.30
   1   1   1  558.74    8.00
   2 -14   2  130.59   12.60
   4 -12   4  186.58   14.00
   4  -8   3  720.33   22.00
   4  -7   3 1787.72   32.60
   4  -5   3  300.77   16.10
   4  -1   4    1.10    7.40
   5 -13   7    6.20    9.80
   5 -11   6   35.90   10.40
   5  -7   5   32.70   11.50
   5  -5   5   38.50   10.90
   5   3  10  152.98   12.90
   5   4  12   42.60    9.90
   6 -10   9   23.00   11.90
   6  -3   9   22.20    9.30
   6   0  12   52.09   10.30
  -4   2   0   32.00    7.10
  -3   6   2   -5.60    6.00
  -1  11   8   24.20    4.90
   0 -13   0   -1.40    5.50
   0  -7  -1  181.18    7.30
   1 -14   1    6.50    8.20
   2 -16   3    8.40    8.10
   3 -17   5   26.30   11.10
   3   4   5  158.18    9.00
   4  -9   3  290.97   16.20
   4  -4   3  443.96   17.50
   5 -12   6  157.18   15.30
   5  -9   5   28.90   10.30
   6  -8   8    1.10   10.00
   6  -6   8   90.39   12.30
   6  -5   8   41.30   11.60
   6  -1  10    1.50   11.00
  -3  -1  -1  745.43   14.40
  -2   4   1  627.54   14.00
   1   6   4   12.30    1.70
   3 -14   3    4.90   10.40
   4   6  10   24.00    7.80
   5 -14   7    2.60   10.80
   5 -10   5  232.68   14.90
   5   2   8    6.70   11.30
   6   0  11    9.10    8.60
  -5  -3  -1  488.65   14.20
  -3   2   0 1742.53   24.00
  -2 -12  -1  228.38    5.90
  -1 -11  -1   88.49    5.90
   0   7   4 1370.36   14.40
   1 -18   3  261.77   13.20
   3   1   3  276.27   10.50
   4 -13   4  261.07   16.20
   4 -10   3   33.00   10.50
   4  -3   3 3404.26   40.60
   4   3   6  106.59   10.00
   5  -3   5  138.99   12.20
   5   1   7   78.39   10.40
   5   3   9   65.99   11.90
   5   4  11  496.35   18.00
   6 -10   8  293.07   17.70
  -5 -10  -1  193.98    6.20
  -3   4   1  643.54   16.70
   1  -2   0 1206.08   14.90
   3   8  10  442.46    9.90
   4 -11   3   -1.70    9.80
   4   0   4   41.80    8.00
   5 -13   6   24.50    9.60
   6 -11   8   11.80   11.50
   6  -8   7  141.69   13.20
   6  -7   7    8.60   10.70
   6  -5   7  203.98   15.10
   6  -1   9  482.65   19.90
   6   0  10  389.76   18.10
   6   1  12   89.69   10.80
  -4  -2  -1 1086.89   18.50
  -2   8   4 1582.24   24.30
  -2   9   5   44.20    7.20
  -1 -17   1    2.50    4.70
  -1   5   2   17.00    5.70
   0 -18   2  207.58   10.60
   0  -9  -1 1173.98   16.10
   3 -15   3   31.90   10.00
   5  -2   5  126.69   12.60
   6  -9   7  162.98   14.10
   6  -2   8  349.27   17.90
   6   1  11  -14.90    8.80
  -5  -4  -1  168.88    9.40
  -1   1   0 2137.19   16.70
   3  -1   2 3170.98   32.60
   3   7   8   11.20    5.10
   4 -16   5   67.99   11.10
   4 -12   3   50.69   12.80
   4  -2   3   51.49    9.00
   5 -14   6   55.19   11.20
   5 -12   5   50.19   10.70
   5  -7   4    1.90    9.50
   5   4  10   19.90    9.40
   6 -10   7    3.70    9.20
   0 -14   0    9.40    6.50
   2  -8   0  211.18   12.50
   3  -5   1   60.59    9.80
   5  -9   4  131.09   12.70
   5  -5   4    3.80    8.70
   6 -11   7  117.09   13.30
   6   0   9    2.30    9.50
   6   1  10    2.40    9.20
  -5  -9  -1   70.59    5.00
  -5  -5  -1    4.20    6.10
  -4   1   0   -1.70    5.80
  -3  -2  -1 1271.77   17.40
  -1  10   7  163.58    8.30
   0 -10  -1   31.80    5.70
   2 -16   2    7.70    8.50
   4  -8   2   19.80   10.60
   4  -7   2  764.92   22.40
   5 -15   6   21.60   12.00
   5 -13   5  127.09   13.50
   5 -10   4   27.00   10.00
   5  -4   4  402.86   17.00
   5  -1   5  164.78   12.30
   5   2   7   59.99   11.20
   6 -12   7    4.90   11.60
   6  -8   6   66.29   12.00
   6  -7   6    0.20    9.50
   6  -6   6  154.18   14.30
  -2  -2  -1  944.31   12.00
   2  -9   0  418.06   15.00
   3 -16   3  381.36   18.10
   3 -14   2   43.80   10.90
   3 -10   1 1087.79   25.20
   3  -4   1    2.00    7.90
   4 -13   3  203.58   15.60
   4  -9   2  608.54   21.30
   4  -6   2  303.77   15.90
   4   6   9   54.09    7.60
   5 -11   4    9.10    9.80
   5   1   6   29.20   10.00
   6 -10   6  -10.50    9.40
   6  -5   6  486.85   19.80
   6   2  11   19.20    9.70
   7  -5  10    1.40    9.90
  -5  -8  -1    5.70    4.40
  -5  -6  -1  173.18    8.40
  -1 -12  -1   45.50    4.90
   0  10   8  337.27    9.10
   1   7   5  528.25    5.60
   2 -18   3   41.10    8.90
   2 -14   1  135.89   12.40
   2 -10   0   86.39    9.80
   3 -11   1   -0.80   10.50
   4 -10   2  179.18   13.70
   4  -5   2  501.85   17.30
   4  -1   3  139.89   10.10
   4   1   4   -0.60    6.40
   4   7  11   73.69    8.00
   5 -14   5   97.79   12.60
   5  -3   4  859.31   23.10
   5   4   9   58.39   11.50
   5   5  11   12.60    9.90
   6 -11   6   63.19   11.20
   6  -4   6   14.30    9.30
   7  -7   9  298.27   18.30
   7  -4  10   31.00   10.70
  -3   1   0  109.49    8.50
  -3   5   2   -1.40    6.20
  -1   3   1  264.47    8.30
  -1  11   9  302.37   10.50
   0  -4  -1  279.67    6.90
   4 -16   4  108.19   12.40
   4  -4   2  804.42   21.40
   5 -12   4  211.78   14.90
   6  -3   6    6.50    9.40
   6   0   8 2087.09   36.00
   6   1   9  479.25   18.70
   7  -3  10   91.69   14.40
  -2 -16   0   19.50    3.90
  -2   1   0  518.25   12.10
   0 -19   2    3.20    5.20
   0 -15   0    6.00    5.50
   0 -11  -1  464.15   11.20
   2  -4   0  608.04   15.00
   4 -11   2   12.30    9.80
   5 -15   5   -2.20   11.90
   5 -13   4  315.47   18.70
   5  -8   3  265.67   16.30
   5  -7   3  535.15   20.50
   6 -12   6    2.70    9.40
   6  -8   5  615.24   22.30
   6  -7   5  104.79   12.20
   6  -1   7  525.15   19.40
   6   2  10    4.40    8.20
   7  -4   9   95.29   11.90
  -4  -4  -1  327.87   10.50
  -3   3   1   80.39    8.30
  -1   6   3   78.79    6.30
  -1   9   6  272.07   10.10
   2   2   2 2318.37   20.20
   3 -15   2    5.80    7.10
   3   0   2    4.80    6.40
   3   2   3  106.59    7.40
   5  -9   3  101.69   12.60
   5  -6   3   94.59   12.70
   6 -13   6   53.59   12.20
   6 -10   5   84.39   12.10
   6  -9   5  319.57   17.30
   6  -5   5    3.40    9.90
   7  -9   8  177.78   15.10
   7  -8   8  151.18   14.60
   7  -7   8    9.60    9.90
   7  -6   8  139.09   14.30
   7  -2  10    3.50   12.60
  -4   0   0    9.60    5.90
  -2 -13  -1  107.69    4.60
  -1 -16   0   41.50    5.60
   2 -15   1  121.39   10.40
   2   5   4   87.79    4.70
   4 -15   3    1.80    7.80
   4  -3   2 1477.45   26.40
   4   5   7  244.58   11.70
   5 -10   3    1.30    9.50
   5  -5   3  209.88   15.00
   5   5  10    1.80    9.50
   6 -11   5   63.19   11.20
   7  -3   9   71.09   10.60
  -3  -3  -1  284.57    8.90
  -3   6   3  470.95   16.20
  -2   3   1 1089.99   18.10
   2 -12   0  284.77   13.00
   3 -13   1   49.20   10.30
   4 -17   4   83.99   11.40
   4   0   3    1.70    7.00
   5 -14   4  121.79   13.50
   5 -11   3   42.40   10.60
   5  -4   3 1804.62   32.40
   5   2   6   -0.20   10.00
   6  -4   5   11.70   10.20
   6   0   7   26.70   10.80
   6   1   8  219.08   13.50
   6   2   9  199.18   13.30
   6   3  11   54.59   10.10
  -1 -13  -1   19.40    4.50
  -1   7   4  338.87   10.60
  -1   8   5   90.29    7.40
   3 -16   2    9.50    9.40
   5 -12   3  153.58   13.60
   5  -1   4  237.28   13.50
   5   4   8  735.73   20.30
   6 -12   5    3.50    9.10
   7 -10   7  282.37   18.10
   7  -9   7   63.29   12.00
   7  -7   7  103.79   13.20
   7  -6   7   -1.30    8.90
   7  -1  10    0.90    9.40
  -4  -5  -1  626.64   13.10
  -4   2   1  343.87   13.90
  -2   9   6   10.70    6.70
   0 -18   1    1.60    5.10
   2 -18   2   10.70    7.70
   2  -3   0  358.86   12.10
   3 -18   3  254.17   14.60
   3  -2   1 1293.47   22.00
   4  -2   2 1327.57   24.50
   6 -13   5   -0.10    9.70
   6  -8   4   20.00   10.90
   6  -7   4  405.26   18.80
   6   3  10    7.90    9.80
   7  -5   7   26.60   10.60
   7  -3   8   52.09    9.70
  -2   8   5  203.28   11.00
   0 -16   0   47.40    7.40
   2 -13   0   52.29    9.30
   3 -14   1    5.10    9.40
   5 -13   3    6.00    9.90
   5  -3   3  124.69   12.40
   6 -10   4  126.09   13.70
   6  -9   4  946.41   26.80
   6  -6   4    8.20   11.30
   7  -1   9   17.20   10.40
  -6 -10   0  339.07   10.50
   3  -9   0  622.24   19.40
   3  -8   0  873.41   21.50
   3  -7   0  147.09   11.40
   3   5   5  839.92   14.10
   4 -10   1  143.79   13.10
   4  -6   1   54.29   10.70
   6 -14   5  228.38   15.50
   6 -11   4   23.80   10.40
   6  -5   4   -5.70   10.40
   6  -2   5   70.49   10.60
   6   1   7  528.25   20.80
   6   4  12   35.20    8.80
   7  -9   6   99.19   13.00
   7  -8   6   53.99   11.10
   7  -7   6   26.20    9.60
   7  -2   8  242.28   15.40
   7   0  10   -6.60    8.80
  -4  -6  -1   69.79    5.90
  -3   0   0    4.60    5.50
  -1  10   8  177.58    8.80
   3 -17   2   46.90    9.40
   4 -17   3   71.19   12.60
   4 -11   1  379.06   17.80
   5 -16   4   19.20    8.40
   5 -14   3  319.67   18.60
   5 -10   2  402.76   18.90
   5  -9   2   50.09   11.30
   5  -8   2  205.58   15.20
   5  -7   2  460.75   19.90
   5   0   4   -9.10   10.00
   5   5   9  383.16   14.40
   6 -12   4   49.00   12.00
   6   0   6  109.79   12.40
   6   2   8  359.56   16.20
   7 -10   6   34.40   11.20
   7  -6   6   21.60   11.00
  -6  -9   0   37.90    6.10
  -6  -8   0   24.30    6.20
  -4  -1   0   -0.80    5.40
  -3   4   2   75.79    8.70
  -2  -3  -1 3802.32   20.90
   0 -13  -1  107.69    7.20
   0   9   7   12.20    4.30
   2 -14   0  182.98   12.40
   3   4   4   80.29    7.00
   4 -15   2   14.70    8.20
   5 -11   2   23.70   10.00
   5  -2   3 1741.13   30.50
   5   6  11   57.79    7.50
   6  -4   4   54.49   10.80
   6   3   9   21.60    9.20
   6   4  11   64.59   10.40
   7 -11   6   20.10   10.10
   3  -5   0   96.49    9.70
   4 -12   1   49.20   10.70
   4  -1   2  492.95   16.00
   4   1   3  132.79   10.80
   6 -13   4   -6.40   10.10
   7  -4   6  124.89   13.50
   7  -1   8  114.29   12.50
   7   0   9  123.99   13.00
  -4  -9  -1  351.96    7.70
  -4  -7  -1  129.69    6.20
  -3   2   1  553.44   15.70
  -1 -14  -1   11.60    4.10
   5 -12   2  113.49   12.90
   5   3   6    1.90    9.40
   6  -9   3   -1.60   10.70
   6  -8   3 1251.77   30.60
   6  -7   3  216.38   15.60
   6  -3   4  962.60   25.70
   7  -9   5   92.29   12.20
   7   1  10    3.40    8.80
  -4  -8  -1  567.74   10.40
  -2   4   2 1008.00   18.80
   2 -15   0  504.55   16.60
   2  -9  -1  624.44   16.50
   2  -8  -1  649.24   16.10
   2  -2   0  796.32   16.00
   3 -16   1   11.20    8.50
   3  -1   1  797.32   16.90
   4 -16   2   69.99   10.50
   5 -13   2  450.05   20.20
   5  -4   2   53.89   12.10
   5   2   5  136.49   11.90
   5   4   7  151.08   11.90
   6 -14   4    2.50    9.30
   6 -11   3  -11.10    9.30
   6 -10   3   55.89   11.40
   6  -6   3  299.77   16.50
   7 -11   5    1.40   10.90
   7 -10   5   22.50   10.60
   7  -7   5    0.80    9.70
   7  -6   5   -7.50    9.20
  -4   1   1   30.00    7.80
  -1   4   2  798.22   13.80
   0 -17   0    6.00    5.10
   0 -14  -1  348.87   10.80
   0  10   9   17.70    5.20
   3 -13   0   26.40    9.00
   3  -4   0  352.56   13.70
   5 -16   3   13.00    7.70
   5  -1   3   79.39    9.80
   5   6  10   12.00    8.10
   6   1   6   79.19   13.10
   6   2   7   10.70   12.60
   7 -12   5  -10.30   11.60
   7  -5   5  430.36   19.70
   7  -1   7   10.90    9.60
   7   0   8   10.00   10.20
  -5  -4   0   24.20    6.70
  -3   5   3   11.00    6.80
  -2 -14  -1  131.09    4.50
   1   9   8  357.66    6.90
   2 -18   1   77.39    9.00
   2 -11  -1  472.45   14.90
   4 -14   1   27.40    8.90
   4   5   6  239.68   11.60
   5   5   8   -7.40    9.50
   6 -12   3   78.99   11.70
   6  -5   3  125.99   13.40
   6  -2   4   74.09   12.10
   6   3   8  148.59   13.30
   8  -5   8  191.78   14.50
  -4  -2   0   26.00    6.50
  -1   9   7   25.60    6.20
   1 -19   1   -1.40    5.30
   2  -6  -1   -3.00    6.80
   3   7   7  427.86    8.50
   4 -17   2    8.50    9.50
   5  -3   2 2393.86   35.80
   6 -13   3   30.70   10.50
   6   0   5   -9.50   10.40
   7  -4   5  520.65   20.70
   7  -2   6   21.00   11.60
   8  -7   7    1.40   10.40
   8  -4   8  161.58   13.40
   1 -17   0   12.40    6.20
   2 -16   0   19.80    7.30
   2 -12  -1   18.70    7.10
   3 -17   1    0.40    6.90
   3 -14   0  369.96   15.70
   4 -15   1  191.68   12.90
   4 -10   0  816.42   23.00
   4  -9   0   89.79   12.30
   4  -8   0  674.63   21.10
   4   3   4   61.79    7.40
   5 -15   2   44.40   10.70
   5 -10   1  206.78   15.50
   5  -9   1   91.09   12.30
   5  -8   1    7.80   10.40
   5  -7   1  106.69   13.10
   6  -4   3  386.16   17.90
   7 -10   4    8.20    9.80
   7  -9   4  101.29   13.60
   7  -7   4   22.40   10.60
   7   2  10   12.90   10.60
   8  -6   7   -4.30   10.30
  -5  -5   0   50.09    7.60
  -3  -1   0  103.99    7.10
   0   8   6 1490.65   17.00
   1 -14  -1  172.58    9.20
   4 -11   0  210.38   13.50
   4  -7   0   94.79   12.10
   4   0   2  446.26   15.30
   5 -11   1  384.46   18.30
   5  -6   1  187.98   14.40
   6 -14   3   18.10   10.40
   6   4   9   35.30   11.50
   7 -11   4  108.79   13.60
   7  -6   4   33.40   10.40
   7  -3   5    4.30   10.00
   7   0   7  597.34   22.00
   7   1   8  137.79   13.40
   8  -3   8   31.40   10.70
   8  -2   9    6.00   10.00
  -1  10   9  170.88    8.90
   2  -5  -1 1234.28   21.10
   3 -15   0    3.00    8.50
   4  -6   0  170.38   13.20
   4   6   7 1044.40   17.30
   5 -12   1   85.29   12.40
   5   0   3   -2.00    8.80
   6 -11   2   43.20   11.50
   6 -10   2   22.60   10.80
   6  -9   2  333.77   18.00
   6  -8   2  703.03   23.90
   6  -7   2  454.85   20.10
   6  -3   3   12.10   11.60
   7 -12   4  111.09   13.10
   7  -1   6    9.40    8.40
   8  -8   6   -1.60   10.70
   8  -7   6   40.60   11.10
   8  -4   7    5.20    9.80
  -3   3   2  102.69   10.10
  -2   8   6  200.08   10.80
  -1 -15  -1   37.40    4.80
  -1   0   0    8.60    4.30
   0 -18   0    0.70    5.50
   0 -15  -1   72.59    6.30
   0   5   3  254.17    6.70
   2 -13  -1   69.69    9.10
   2   1   1 1274.27   16.00
   4 -16   1   10.10    9.40
   4  -2   1 1111.29   22.50
   5 -16   2   54.69   10.80
   5  -5   1    8.20    9.60
   5  -2   2  163.38   13.20
   6 -12   2    4.60    9.80
   6  -6   2  508.75   20.70
   6   2   6   13.20   11.60
   7 -13   4  101.29   13.10
   7  -5   4    8.10   10.50
   7   2   9   21.70    9.20
  -5 -12   0  569.14   10.40
  -4   0   1   -7.30    6.30
  -1   8   6  111.09    8.00
   3 -18   1    5.30    7.80
   3  -9  -1  662.33   18.70
   3   0   1 4148.58   36.20
   5   4   6  582.54   18.00
   5   6   9    6.60    7.60
   6   1   5   74.09   11.60
   6   3   7   96.39   13.30
   7  -4   4  104.19   11.90
   8  -2   8  166.08   14.60
   8  -1   9  105.69   12.80
  -5  -6   0   60.09    7.00
  -4   2   2  698.03   19.00
  -3   1   1  265.17   11.10
  -1   5   3  642.84   13.60
   1 -18   0   46.20    6.50
   1 -15  -1   81.79    7.70
   2 -14  -1  415.26   14.50
   3  -7  -1  212.98   12.30
   6 -13   2    2.70    9.60
   6  -5   2    9.40   11.90
   6  -2   3 1012.00   26.20
   6   5  10   13.30   10.50
   7 -10   3   30.00   11.40
   7  -9   3  113.09   14.30
   7  -8   3    0.90   10.60
   8 -10   5    2.30   11.40
   8  -9   5   53.39   13.00
   0   7   5    4.00    4.50
   2  -1   0  517.35   12.90
   3 -16   0  465.45   16.50
   3 -12  -1   28.20    9.20
   4 -17   1   82.59    9.90
   4 -14   0  185.58   12.20
   5  -4   1  159.58   13.40
   6 -14   2   13.30    9.70
   6   4   8    4.70    9.90
   7 -12   3   34.90   12.60
   7 -11   3  204.68   15.50
   7  -7   3   22.60   10.30
   7   0   6   -0.10    8.50
   7   1   7    2.00   10.40
   7   3  10  103.59   12.50
   8  -8   5   88.99   13.10
   8  -7   5   20.10   11.20
  -5  -7   0  133.29    8.70
  -1   7   5    7.40    6.50
   2  -4  -1  656.73   16.00
   3  -6  -1   55.59    9.00
   3   2   2 5846.31   39.40
   4  -4   0  369.26   16.10
   5 -15   1  354.76   17.10
   5  -1   2  255.27   14.70
   6  -4   2  105.09   13.60
   7 -13   3  263.67   18.10
   7  -6   3    3.60   10.70
   7  -3   4  639.94   22.50
   7  -1   5  147.59   15.10
   7   2   8  260.07   15.50
   8  -6   5  604.24   23.00
   8  -2   7   18.90   10.10
   8   0   9   -1.50    9.90
  -3  -6  -1    9.90    4.00
  -3   4   3  209.18   12.30
   0 -16  -1  137.39    7.60
   0  10  10  324.67   10.50
   3 -13  -1  221.58   12.00
   3  -2   0 1767.92   25.40
   4  -1   1  239.88   13.10
   7  -5   3  150.08   14.40
   8  -5   5    3.40   12.50
   8  -3   6  172.78   14.70
  -5 -10   0  553.44   12.20
  -5  -8   0    7.10    5.80
  -2  -4  -1 2387.86   15.40
   1 -16  -1   35.80    7.10
   3 -17   0    3.30    7.50
   5  -8   0    7.50   10.20
   5   1   3   85.69    9.90
   6 -11   1   13.30   10.50
   6 -10   1   69.29   12.50
   6  -9   1   -3.10   10.80
   6  -8   1   14.90   11.80
   6  -1   3   15.20   12.50
   7   3   9   80.89   11.80
  -5  -9   0  161.58    8.00
  -1   9   8   63.79    7.70
   0 -10  -2   42.80    5.70
   0   9   8   16.60    5.00
   3 -14  -1   10.80    9.40
   3  -5  -1  460.15   16.20
   4   7   8  115.09    6.60
   5 -16   1   35.60    9.70
   5  -7   0  142.39   13.50
   6 -12   1   40.60   11.50
   6  -7   1  416.16   19.20
   6  -3   2  221.68   15.50
   6   5   9   95.89   11.60
   7  -4   3  101.99   12.80
   8 -10   4   -2.70   10.30
   8  -9   4   43.60   12.40
   8  -8   4  123.69   14.40
   8  -1   7    9.50   11.80
   8   0   8   71.49   12.30
  -3   5   4   74.89    9.20
  -2   3   2 3137.29   32.40
   1 -10  -2  617.74   14.10
   4 -16   0   76.59   11.30
   4 -10  -1   42.30   10.40
   4  -9  -1   70.09   11.70
   6  -6   1  294.77   18.10
   6   2   5   76.79   11.70
   6   3   6    6.70   10.60
   7 -11   2   -3.90   10.80
   7 -10   2  165.78   14.70
   7  -9   2   10.30   10.20
   7  -8   2   81.99   13.40
   8  -7   4  157.38   15.20
  -4  -1   1   24.70    6.60
   1 -11  -2   46.20    6.60
   2   3   2  157.28    6.20
   4 -11  -1   13.50    8.40
   4  -3   0  193.38   11.30
   5   6   8  664.13   16.50
   6   1   4  651.93   22.00
   7 -12   2  471.85   21.90
   7  -7   2  160.28   15.50
   7   0   5  112.39   14.50
   8  -6   4  102.69   13.10
   8   1   9  113.79   13.30
  -4   1   2  126.09   10.50
  -2  -1   0  489.85   10.90
   1 -12  -2  543.75   13.70
   3 -15  -1  947.81   21.60
   4  -7  -1   36.70   10.70
   4   4   4  286.87   12.30
   5 -14   0   59.49    9.80
   5  -5   0   40.10   11.60
   6  -5   1  363.56   18.30
   7 -13   2   -1.30   10.30
   7  -6   2   -4.70   11.30
   7  -3   3  245.18   17.20
   7   3   8   47.40   11.80
   7   4  10   47.00    9.80
   8  -5   4  540.25   22.20
  -3   2   2 1148.89   22.30
   0 -12  -2   20.10    5.00
   1 -17  -1    3.70    6.00
   2 -11  -2  155.78    9.50
   2  -3  -1 1107.79   19.40
   4 -17   0    0.20    7.70
   4 -13  -1   43.80   10.30
   4   5   5   25.40    7.50
   6 -15   1   60.49   10.10
   6  -2   2   28.90   11.60
   7 -14   2    9.20   11.30
   8 -11   3   12.40   13.00
   8 -10   3  110.49   13.50
   8  -9   3   13.10   10.90
   8   0   7    2.80   10.50
  -3  -7  -1 1481.95   14.10
  -2   1   1  178.68    9.40
   2  -8  -2  158.18    9.80
   4  -6  -1 3111.99   40.20
   5 -15   0   29.50    8.30
   5   4   5  494.95   16.60
   6  -4   1   82.09   12.10
   7  -5   2   58.49   13.10
   8  -8   3   -4.20   10.20
   8  -7   3  152.28   15.50
   8   1   8   -5.80    9.00
  -5  -4   1   46.90    8.60
  -2   4   3 3057.69   34.00
   1 -13  -2  729.33   15.40
   3  -1   0  114.39   10.10
   3   1   1  793.62   16.40
   4 -14  -1   75.09    9.00
   5  -4   0   15.60   10.70
   6 -11   0   14.70   10.10
   6 -10   0  340.87   19.10
   6  -9   0   44.20   11.60
   7  -2   3  581.14   21.90
   8  -2   5    2.60    8.80
  -2   7   6   19.90    8.00
  -1   8   7  465.95   13.60
   0 -13  -2  169.78    7.60
   4  -2   0   30.70    9.40
   5 -16   0   32.10    9.90
   5   5   6   11.60    8.50
   6 -12   0   48.60   12.10
   7 -11   1  195.58   16.30
   7 -10   1   15.70   10.80
   7  -9   1   -4.80   11.80
   7  -8   1  468.95   22.50
   7  -4   2   29.10   11.90
   7   1   5  165.58   15.60
   7   2   6   16.80   10.70
   7   4   9  111.09   12.30
   8  -6   3   54.59   11.70
   8   2   9   13.20   11.20
   9  -4   6    4.40    8.70
  -1 -11  -2    6.00    4.20
   1   8   7    9.30    3.60
   3  -9  -2  538.85   17.40
   3   5   4   41.80    5.90
   4 -15  -1  124.79   11.30
   4  -5  -1  808.12   21.20
   4   6   6   32.50    6.70
   5 -11  -1  468.45   19.60
   5 -10  -1  620.64   21.90
   5  -9  -1   19.90   10.90
   6 -13   0  104.39   13.90
   6  -7   0  117.19   14.50
   6  -1   2  118.89   14.10
   7 -12   1   20.60   10.00
   7  -7   1  200.38   15.70
   7   0   4    0.00   11.10
   7   3   7    5.80    9.50
   8  -5   3   89.79   11.60
   8   0   6  248.18   17.50
  -4  -2   1  360.66   13.00
   1 -14  -2  287.77   11.10
   3 -17  -1   49.60    8.20
   3 -12  -2   11.10    6.80
   3  -8  -2  835.12   20.70
   5 -17   0   -2.20    9.10
   5  -8  -1  123.79   13.20
   5  -1   1  103.59   12.10
   6  -3   1   -8.40   11.20
   6   2   4   85.49   13.20
   6   3   5   58.59   11.60
   8 -11   2  229.08   16.60
   8 -10   2    2.90   10.90
   8  -9   2    8.60   10.20
   8  -1   5   30.90   10.20
   8   1   7    3.60    9.70
   9  -3   6    8.30    9.80
  -5  -5   1 1991.00   29.10
  -3  -3   0  209.78    9.40
  -3   3   3 1427.06   26.70
  -1   3   2  963.70   16.00
  -1   9   9    5.70    6.00
   0   8   7  299.17    9.30
   1   9   9  163.78    6.70
   2   0   0 2035.10   22.20
   3 -13  -2   35.60    8.80
   4 -16  -1  159.48   12.20
   4   2   2 1347.87   23.00
   5  -7  -1  348.77   17.50
   5  -3   0  177.68   14.40
   5   1   2  245.48   14.70
   6   4   6   24.30   10.70
   8  -8   2   61.89   13.30
   8  -4   3   85.39   13.70
   8   2   8  160.18   14.10
   9  -7   4  248.28   16.70
  -4   0   2 1171.78   24.20
  -3  -8  -1  282.37    6.70
   3  -7  -2  133.49   10.40
   5 -14  -1   -1.20    8.00
   5   7   9   70.59    7.50
   6 -15   0  130.49   12.80
   8  -7   2   18.60   11.10
   9  -6   4  171.98   16.00
   9  -4   5   10.00    9.50
  -3   4   4   69.99    9.00
   0   9   9  508.55   12.70
   1 -15  -2  102.49    7.70
   3 -14  -2  148.79   11.50
   6  -5   0  225.88   15.60
   6   6   9   26.00    8.90
   8  -6   2   67.69   12.20
   9  -2   6    7.70   12.50
  -1  -8  -2    6.60    3.50
  -1   7   6   50.39    6.60
   1  -2  -1   28.50    6.80
   3 -18  -1    5.70    6.80
   4 -17  -1   98.99   10.70
   4 -10  -2  145.29   11.50
   4  -9  -2   43.10   10.50
   4  -1   0    5.30    8.80
   5 -15  -1   39.00   10.30
   6  -2   1   84.09   12.90
   6   0   2  308.17   17.10
   6   5   7  212.78   12.60
   7 -10   0  100.09   14.60
   7  -2   2   71.69   14.50
   7   2   5  573.84   22.40
   8  -3   3   20.20   11.90
   8   0   5    4.60   11.90
   8   1   6   15.30   11.40
   9  -5   4   38.10   11.90
   9  -3   5   52.19   11.40
  -5  -6   1  138.39   10.50
   0  -6  -2 1658.13   16.40
   1   2   1   29.40    3.70
   2  -2  -1  174.48   10.30
   3  -6  -2    5.40    8.60
   3   3   2   24.70    6.80
   4 -13  -2    5.00    8.40
   4  -8  -2  198.08   14.20
   5  -5  -1 1995.80   34.60
   6 -11  -1  598.04   22.00
   6 -10  -1    7.70   10.70
   6  -9  -1  349.37   19.30
   6  -4   0   10.70   10.30
   7  -9   0   16.80   10.60
   7  -8   0  147.49   15.00
   7   1   4 1122.29   28.40
   7   3   6  119.19   13.60
   8  -1   4   12.90   11.80
   8   2   7   16.90   10.50
   9  -8   3  183.08   15.60
  -3  -9  -1  772.62    9.60
  -1 -13  -2   19.30    4.20
   0 -15  -2  268.87    9.10
   2  -5  -2  147.99    9.90
   3 -15  -2    3.60    6.70
   5 -16  -1   62.79   10.90
   5  -2   0  -12.70   10.40
   5   0   1   23.10    9.00
   6 -12  -1   10.90   10.30
   6  -8  -1  145.69   14.30
   8 -11   1   71.29   13.30
   8 -10   1   15.20   12.40
   8  -9   1   18.80   11.40
   9  -7   3   23.90   11.00
  -3  -1   1  281.27   11.40
  -2   2   2  104.09    9.50
  -1   4   3 6012.40   40.30
   2 -16  -2   10.70    7.20
   2   2   1 1024.80   14.30
   4 -14  -2   39.40    8.80
   4  -3  -1  461.45   17.30
   7  -7   0  266.77   17.10
   7   4   7  188.88   15.20
   7   5   9  378.26   15.40
   8  -8   1  108.79   13.30
   9  -6   3  182.88   15.80
   9  -2   5  152.58   14.70
  -5  -7   1  354.96   14.00
  -4  -7   0   93.09    7.00
  -4   1   3 2754.72   39.10
  -2   7   7   11.00    7.90
  -1   6   5   59.79    7.30
   3 -16  -2  118.59    9.30
   3  -2  -1  493.05   15.60
   4   7   7    2.80    4.90
   5 -11  -2  181.68   14.70
   5 -10  -2    3.60   11.00
   5   3   3  126.19   11.10
   5   4   4  393.26   15.80
   6 -14  -1   30.60    8.80
   6  -7  -1  114.79   13.40
   6  -1   1  128.49   13.30
   7  -6   0 1229.88   30.70
   7  -3   1   -1.90   11.10
   8  -7   1    8.50   10.50
   8   3   8   20.40   12.20
  -3 -11  -1   11.20    2.40
  -3 -10  -1  983.80   10.10
   3  -5  -2   11.40    8.60
   4 -15  -2  342.57   14.80
   5  -9  -2    2.30   10.20
   5  -4  -1   48.00   12.00
   6 -15  -1    6.90    7.70
   6  -6  -1  300.37   17.20
   6  -3   0  406.06   19.40
   6   4   5   12.20    9.80
   8  -6   1   -4.20   11.10
   9  -9   2   19.70   11.50
   9  -8   2  289.87   19.80
   9  -5   3    3.60   10.60
   9  -3   4    6.90    8.40
  -4  -1   2  141.19   11.30
   2 -17  -2   -0.10    6.20
   4   8   9  156.08    5.40
   5 -13  -2    9.90    7.90
   5  -8  -2   30.10   11.30
   6   6   8   85.19   10.40
   7  -5   0    9.10   11.60
   8  -3   2  157.98   15.50
   8   0   4   82.29   12.80
   8   2   6   -0.70    9.60
   9  -7   2  138.99   16.20
  -5  -8   1  116.99    9.80
  -4  -8   0  697.13   14.30
  -3  -4   0  394.86   11.70
  -2  -2   0  762.42   13.00
  -1 -14  -2   66.89    4.70
   0 -16  -2  174.18    7.60
   4 -16  -2   46.90    8.40
   5 -14  -2   81.89   10.20
   6 -16  -1    0.70    9.20
   7 -11  -1  246.98   18.00
   7   2   4  194.38   16.00
   9  -4   3   26.10   12.70
   9  -1   5   14.60   12.40
   9   0   6   -7.90   10.10
  -4 -13   0    4.70    3.50
   0   9  10   49.30    6.50
   1 -17  -2   36.50    5.80
   4  -5  -2 2787.32   38.00
   5  -7  -2  595.74   20.70
   5  -1   0 1424.06   27.20
   5   7   8    4.90    5.90
   6   5   6  472.55   16.50
   7 -13  -1    4.00   11.80
   7 -12  -1    7.60    9.60
   7 -10  -1  311.17   18.20
   7  -2   1  152.68   15.10
   7   1   3  477.45   20.30
   7   3   5   10.40   10.80
   7   5   8    3.60    8.40
   8 -12   0  132.49   15.10
   8 -11   0    7.10   10.50
   8 -10   0   33.60   10.90
   8  -9   0  166.08   16.40
   8   3   7  159.78   14.20
   9  -2   4    2.20    9.80
  -5  -9   1   20.50    6.90
  -2   3   3 1882.21   27.30
  -1   1   1  303.67    9.30
   2  -4  -2 1014.20   19.50
   3 -11  -3    4.50    8.40
   4  -2  -1  338.67   15.20
   4   0   0   11.20    8.00
   4   5   4   50.49    7.40
   5  -3  -1  238.08   15.50
   7  -8  -1    2.00   11.20
   7  -4   0  713.13   25.10
   8  -8   0   97.29   13.70
   8  -2   2   53.39   14.60
  -5 -12   1   35.20    5.90
  -4  -9   0   84.69    7.00
  -2   5   5  294.07   13.90
   1   9  10   14.70    5.20
   3 -12  -3   12.40    8.30
   3  -4  -2   60.79   10.10
   4 -17  -2    9.60    6.30
   5  -6  -2 3228.18   44.00
   5   1   1  100.29   10.50
   5   6   6  507.25   14.00
   6 -10  -2  622.64   22.10
   6  -9  -2  246.68   15.90
   6   0   1    1.60   10.20
   7  -7  -1  285.67   17.60
   7   4   6  136.19   13.60
   8  -7   0    4.80   12.00
   8  -4   1   11.40   10.50
   9  -9   1  317.07   19.60
   9  -5   2   11.00   10.30
  -4 -12   0   32.80    4.70
  -3   3   4   60.09    9.30
  -3   4   5   33.40    8.50
   3 -13  -3  138.99   11.40
   5 -16  -2   38.40    8.50
   6  -8  -2   40.10   11.50
   6  -4  -1   91.09   13.80
   8   2   5    9.90   10.60
   8   4   8  183.58   14.90
   9  -8   1   18.50   10.90
   9  -1   4  180.58   17.30
   9   0   5  748.93   26.10
  -4 -11   0  214.48    8.10
  -4 -10   0  810.52   14.10
  -4   0   3   20.70    8.80
   1 -12  -3   53.89    8.30
   1   7   6  110.49    5.20
   2 -14  -3   15.70    6.80
   2  -8  -3 1514.85   25.20
   3 -14  -3    3.10    8.00
   3  -8  -3   97.49   10.20
   4 -12  -3  831.92   21.60
   6 -14  -2   33.40    8.30
   7  -3   0  256.77   17.40
   8  -6   0    0.90   10.40
   8   0   3    5.50   10.60
   9  -7   1  330.57   19.60
   9  -4   2   47.70   11.90
  -3   0   2   -6.00    7.20
   0   6   5  523.05   10.90
   1 -18  -2    2.70    4.40
   4 -13  -3  138.09   12.00
   4  -9  -3  112.29   11.20
   4  -4  -2  726.43   20.70
   5 -17  -2   57.69    9.30
   5  -5  -2    5.00   10.70
   6 -15  -2  126.29   12.70
   6  -7  -2    3.00   11.10
   7  -1   1   35.90   11.90
   8  -3   1  385.86   19.60
   8   3   6  172.08   14.40
   9  -6   1    3.90    9.80
  -4  -2   2  733.33   19.60
  -3  -2   1  537.35   14.50
  -1   8   9   12.70    6.20
   1  -9  -3  192.98   10.10
   3 -15  -3    3.40    6.40
   3  -1  -1  287.57   11.80
   3   7   6  709.33    7.50
   4 -14  -3   62.99    8.90
   4  -8  -3   -4.00   10.20
   5   0   0   10.00    9.20
   6  -1   0  151.48   14.10
   6   3   3   11.90   10.70
   6   4   4   45.30   11.50
   6   6   7   38.40    7.90
   8 -12  -1   10.80   10.70
   8 -11  -1   -6.10   10.80
   8 -10  -1   12.40   11.50
   8  -5   0  537.05   22.10
   2 -15  -3   -3.90    6.30
   3  -7  -3  421.76   15.40
   5 -13  -3    9.30    8.00
   5 -10  -3    5.60    9.90
   6 -16  -2  113.59   12.20
   6  -6  -2  356.06   18.70
   6  -3  -1   16.20   11.00
   7 -12  -2   65.09   12.30
   7 -11  -2  200.18   15.50
   7 -10  -2   70.39   11.70
   7   2   3  571.94   20.60
   7   3   4  660.43   21.80
   8  -9  -1    4.20   10.10
   8  -8  -1   96.19   14.60
   9 -10   0   65.49   12.00
   9  -9   0  187.08   16.20
  -4  -5   1  799.52   18.50
  -1  -1   0 2095.99   14.50
   1 -14  -3  527.55   13.50
   3   1   0  119.89    9.30
   4 -15  -3    1.70    6.60
   4  -7  -3   22.70   10.50
   4  -1  -1   35.00    9.70
   5  -9  -3   17.40   10.10
   7 -14  -2    5.70    9.60
   7  -9  -2  487.05   20.90
   7   4   5  524.55   19.30
   8  -4   0  547.85   22.40
   8  -2   1  240.68   17.30
   8   4   7   12.30    9.20
   9  -8   0  404.56   20.50
   9  -1   3    3.20   10.90
   9   0   4   -3.50   11.80
   9   1   5   12.70   10.90
   1   8   8  211.88    7.80
   2   1   0  520.05   12.70
   5 -14  -3    4.90    7.50
   5  -4  -2 1851.61   32.10
   6   1   1  135.29   12.80
   7  -8  -2   12.50   11.60
   8  -7  -1   23.20   10.80
   8   1   3    6.40    9.20
   9   2   6   -4.70   10.40
  -2   6   7   26.10    8.60
   2 -16  -3    4.50    6.50
   2  -3  -2 3092.39   32.50
   3  -6  -3  474.75   16.00
   4 -16  -3    6.60    6.70
   5 -15  -3  181.08   12.00
   6 -11  -3   62.49   12.50
   6  -5  -2  170.88   15.20
   7   0   1    8.10   11.10
   8   0   2  282.77   17.30
   8   3   5   90.39   11.70
   9  -4   1   34.70   11.00
  -3   1   3 1888.91   30.40
  -2   1   2 1321.17   21.60
  -1   6   6   12.60    6.60
   1 -15  -3  277.97   10.30
   4  -6  -3 1273.57   27.10
   5  -7  -3   28.40   11.80
   5   2   1  310.97   14.10
   6 -13  -3   12.30    7.10
   6 -10  -3  213.28   15.20
   9  -6   0   77.89   13.70
  -4  -1   3 2916.81   39.80
   0   4   3   41.10    4.90
   2  -6  -3 2971.30   33.00
   4 -17  -3   14.70    7.00
   5 -16  -3  226.48   13.00
   5  -1  -1    3.10    9.40
   5   7   7  488.95   11.80
   6 -14  -3  330.17   16.00
   6  -9  -3   -3.30    9.60
   6   0   0 3125.79   43.00
   7  -6  -2  237.28   16.40
   7   5   6   16.30   10.00
   7   6   8  142.89   12.10
   8 -11  -2   36.20   12.30
   9 -10  -1   58.89   13.50
   9  -3   1  434.86   22.50
  -4  -3   2  534.35   16.50
   0   8   9    6.60    5.30
   2   8   8  281.07    6.10
   5  -6  -3  664.23   22.10
   5  -3  -2   45.20   11.40
   6 -15  -3   -4.60    9.40
   6  -8  -3  214.08   16.30
   6  -4  -2   28.50   12.70
   7  -3  -1  293.27   17.50
   7  -1   0   25.70   12.10
   8 -12  -2    8.20   10.10
   8 -10  -2  235.08   16.00
   8  -9  -2  211.98   17.10
   8  -5  -1   94.59   12.90
   9  -9  -1  231.48   17.40
   9  -5   0    3.20   11.20
   9   0   3   72.09   13.80
  -4  -6   1 3139.69   33.60
  -3   2   4  207.18   12.80
  -3   3   5   99.49   10.00
  -1   2   2   44.90    7.60
  -1   7   8   14.20    7.10
   0 -12  -3   15.60    5.20
   0 -11  -3   44.00    5.90
   0   7   7  233.28    9.00
   1 -16  -3   10.10    5.30
   5 -17  -3    3.00    7.20
   7   3   3  257.17   17.00
   8  -8  -2   -1.30   11.90
   9  -8  -1   42.10   12.20
   9   2   5  152.18   14.20
   0 -13  -3   66.29    5.90
   0 -10  -3   21.40    5.80
   3 -18  -3    9.70    5.70
   4  -5  -3   23.90   10.80
   5   1   0 1524.55   28.80
   6  -7  -3  475.55   20.10
   6   6   6  166.98   10.50
   7 -11  -3  131.59   13.50
   7 -10  -3  269.27   16.40
   7  -5  -2   65.59   12.60
   7   2   2   63.79   11.70
   8  -4  -1  425.96   21.70
   8   2   3   89.49   13.60
   9  -7  -1   53.29   13.50
  10  -3   2   11.00   10.90
  -3  -1   2 6667.23   51.39
  -2   2   3  616.74   16.40
   3 -12  -4  432.06   16.60
   3 -11  -4  122.89   11.60
   4 -12  -4    0.90    7.90
   4 -11  -4 1143.09   25.60
   4  -2  -2  719.53   20.40
   5   6   5   48.50    7.50
   6   3   2  207.18   13.10
   6   4   3  401.96   17.40
   6   7   8    7.80    6.30
   7 -14  -3  269.77   15.30
   7  -9  -3   23.40   11.10
   7   4   4   74.19   12.60
   8  -7  -2   40.60   11.50
   8   1   2  281.97   18.00
   8   3   4  109.29   12.90
   9  -4   0   37.30   10.90
   9   3   6    7.90   11.80
  -3  -3   1   92.69    8.40
  -2  -3   0  391.16    9.40
  -2   4   5   61.49    8.00
   2 -18  -3   -1.60    6.00
   3 -13  -4   -6.90    8.10
   3 -10  -4  109.49   10.90
   4 -13  -4  671.63   18.90
   4   0  -1   -4.60    8.80
   5 -12  -4  259.37   15.00
   5  -5  -3 1225.98   27.90
   6  -6  -3   52.89   13.10
   6  -1  -1 3536.65   46.10
   7  -8  -3   37.20   11.80
   7  -2  -1   31.50   11.50
   9  -6  -1    0.40   11.10
  10  -4   1   36.50   13.80
  10  -1   3   18.00   13.80
  -3  -6   0  237.08    8.80
  -2  -1   1  179.08    9.30
  -1   4   4    1.70    7.10
   0 -14  -3  543.65   11.30
   4 -14  -4   41.30    8.30
   4  -9  -4   47.10    9.70
   4   7   6   20.90    4.90
   5 -13  -4    8.50    7.00
   7  -4  -2   26.60   12.00
   7   0   0  -11.20   10.50
   7   6   7    3.40    9.20
   8  -6  -2  -17.90   10.60
   8   4   5  591.94   21.30
   8   5   7   46.00   11.30
   9  -3   0   34.50   13.60
   9   0   2   22.80   10.90
   9   1   3   -0.50   11.20
  10  -6   0    7.40   10.70
  10  -2   2  338.87   19.80
  -4  -7   1   38.50    7.90
   3   5   3  257.37    8.30
   4 -15  -4    7.70    7.00
   4  -4  -3  657.23   20.20
   5 -14  -4    4.50    8.40
   5  -9  -4  111.49   12.90
   5   0  -1 1608.74   30.20
   6   5   4   -1.70   10.00
   7  -7  -3   52.79   11.50
   7   5   5  427.76   17.00
   8 -12  -3   15.00   11.80
   8  -3  -1  328.37   18.80
   8  -1   0  229.18   18.20
   9 -10  -2   28.90   12.10
   9  -9  -2   24.00   11.40
   9  -5  -1  105.19   13.30
   9   2   4   18.00    9.20
  -4  -2   3 1629.94   30.20
   0   8  10   18.60    6.20
   2 -13  -4   19.30    6.80
   3  -4  -3  222.38   13.40
   3   3   1  290.17   10.50
   4  -8  -4  195.88   13.20
   4   3   1 1688.93   25.40
   4   5   3  278.67   10.60
   5 -15  -4   77.29    9.10
   5  -8  -4  380.16   19.00
   6 -13  -4   47.50    8.70
   6 -10  -4   62.09   11.30
   6  -5  -3   28.60   11.60
   8 -11  -3  139.39   14.10
   8 -10  -3  106.39   13.80
   9  -8  -2   90.49   13.70
  10  -5   0    7.90   10.60
   1   6   5   49.80    4.20
   1   8   9  145.59    8.40
   2  -2  -2  101.69   10.60
   3  -8  -4  678.13   19.30
   4 -16  -4   19.30    7.20
   5  -4  -3   98.69   12.70
   6 -14  -4   15.00    9.40
   6  -9  -4  597.14   21.90
   7  -6  -3   -3.30   12.10
   7  -3  -2  203.88   16.30
   8  -9  -3  323.47   17.80
  -3   0   3 4093.99   44.70
  -1   6   7  133.29   10.30
   0 -15  -3   34.40    4.50
   2   0  -1    8.30    9.00
   4  -7  -4   10.80    9.40
   5 -16  -4    3.80    7.00
   5   4   2   62.09    9.70
   6 -15  -4  209.38   13.00
   6  -2  -2  239.38   16.10
   8  -8  -3  195.88   15.70
   8  -2  -1   13.70   13.10
   8   2   2   54.79   11.00
   9  -2   0  473.55   22.80
  10  -1   2    3.10   13.60
  10   0   3   20.30   11.40
   4 -17  -4   68.39    8.30
   4   2   0   31.80    8.50
   5  -7  -4  398.56   17.80
   6  -8  -4  125.99   13.70
   6  -4  -3   74.99   13.50
   6   0  -1   18.90   11.30
   7 -11  -4   10.20    9.30
   7  -5  -3  183.28   15.20
   7   2   1  132.59   13.70
   7   3   2   30.60   11.40
   8  -7  -3    9.80   10.10
   8  -4  -2  259.17   18.30
   8   1   1  521.65   21.90
   8   5   6  164.28   14.10
   9   4   6    9.90   11.60
  -4  -8   1    2.20    6.60
   2 -15  -4   -3.40    6.20
   3  -7  -4 1904.41   30.40
   4  -1  -2  135.09   13.20
   5   2   0   16.60    8.70
   5   5   3  202.38   11.60
   6   6   5   21.00    8.40
   7 -14  -4  129.49   11.90
   7 -10  -4   17.50   10.10
   7  -9  -4   25.60   10.90
   7   4   3   94.39   12.00
   9  -6  -2   27.20   11.10
   9   0   1  259.37   17.70
   9   1   2    6.70   10.80
  10  -6  -1   67.79   13.10
  10  -2   1  200.68   15.90
  -3   1   4 1519.75   29.60
  -3   2   5    8.10    9.00
   0  -8  -3 2313.77   20.60
   0   6   6  285.37   10.00
   0   7   8   10.10    6.70
   3 -17  -4  205.88   10.20
   4  -6  -4    2.80    9.80
   4  -3  -3   77.99   12.00
   5  -6  -4  127.79   13.80
   5  -3  -3  236.08   16.10
   6  -7  -4  325.57   17.80
   7   6   6   16.90    8.70
   8   4   4  185.88   13.40
   9 -10  -3  232.48   17.10
   9  -3  -1   25.80   13.10
  -3  -7   0  130.89    7.90
   2  -4  -3 3091.99   33.60
   2   4   2  188.48    6.10
   4   6   4  418.66   11.60
   5   7   6  221.58    9.10
   7  -2  -2   33.60   11.80
   8  -3  -2   -1.10   10.90
   9  -9  -3  106.99   13.60
   9  -5  -2   32.70   11.70
  10   0   2  107.49   16.20
  -4  -9   1   85.39    8.20
  -3  -4   1  650.93   15.20
  -3  -2   2 1193.48   22.90
   1   7   7  283.97    8.80
   6  -6  -4  177.28   16.30
   6  -3  -3  323.67   18.00
   6  -1  -2  143.19   15.90
   6   4   2  111.09   11.70
   7  -7  -4  112.09   13.50
   7   0  -1  765.42   25.40
   7   5   4   14.30   10.70
   8 -11  -4   16.20   10.10
   8 -10  -4  166.88   15.00
   9  -8  -3   15.40   11.10
  10  -1   1  112.59   14.80
  -2   0   2  250.97   10.90
  -2   4   6  162.88   10.80
   1 -13  -4  963.70   17.50
   3  -6  -4  776.72   20.40
   5 -13  -5   83.99   11.60
   5 -12  -5   47.60    9.70
   5 -11  -5  259.97   16.20
   5   1  -1   10.60    9.30
   6   2   0  341.37   16.90
   8  -9  -4  150.78   14.30
   8  -5  -3   -5.00   11.10
   8   5   5   10.40   10.40
   9  -7  -3   -7.00   11.10
   9  -4  -2  203.18   16.80
   9  -2  -1   -7.10   13.20
   9   4   5    1.30   10.20
  10  -4  -1   16.00   13.00
   0  -4  -2  123.09    5.60
   2   3   1 4073.49   26.90
   3   6   4   54.59    5.40
   4 -13  -5  124.29   10.60
   4 -12  -5  777.42   22.50
   4 -11  -5  -12.70   10.00
   4  -5  -4  139.19   14.20
   5 -14  -5  125.79   11.30
   5  -5  -4  172.98   14.30
   5   6   4   16.50    8.70
   6 -13  -5   10.10    8.20
   6 -12  -5   23.00    9.20
   6   5   3  147.89   12.80
   8  -8  -4   50.59   11.50
   8   3   2  190.88   15.20
   9   2   2  260.27   17.80
  10  -6  -2   34.80   14.30
  -4 -10   1   33.00    7.00
  -1   6   8 2243.88   31.40
   1 -14  -4   31.20    6.40
   1 -10  -4   70.39    7.80
   4 -14  -5  145.69   10.80
   4 -10  -5  263.07   16.00
   5 -15  -5   16.00    7.80
   5  -9  -5  252.57   15.40
   6 -14  -5   14.90    8.80
   6  -5  -4   28.30   12.70
   7  -6  -4   70.39   12.40
   7  -1  -2  169.38   15.30
   8  -2  -2    5.20   12.60
   9  -6  -3   57.59   12.70
  -4 -11   1   18.70    6.70
  -2   3   5  268.37   12.90
   2   8   9   -1.50    4.90
   3 -12  -5   51.19   10.80
   4 -15  -5   54.29    8.10
   5  -2  -3   29.00   11.90
   6 -15  -5    4.20    8.80
   6  -9  -5  186.78   15.60
   7   3   1   11.60    9.60
   8  -7  -4  389.36   20.50
   8  -4  -3  198.88   16.60
   8   4   3   76.99   12.10
   9   0   0   -1.50    9.40
  10  -3  -1   17.20   12.60
  10   1   2   -9.20   12.30
  -4  -6   2   67.89    9.40
  -2   1   3   17.60    8.30
   3 -11  -5   30.60    9.60
   5 -16  -5   -1.60    7.60
   5  -8  -5   59.59   11.90
   5   0  -2    6.20   10.60
   6  -2  -3   13.10   12.10
   7 -14  -5  134.59   12.50
   7 -13  -5   62.19    9.50
   7 -10  -5   17.50   10.50
   7  -5  -4  156.78   14.80
   7   4   2   22.00   12.00
   7   6   5   -0.10    8.50
   8   0  -1   -2.40   11.60
   9 -10  -4    3.10   10.00
   9  -9  -4  133.49   15.70
   9  -5  -3  159.88   16.90
   9  -1  -1  176.98   19.20
  10  -5  -2  434.36   21.90
  10   0   1    3.90   12.50
  10   2   3    9.40   12.10
  -3  -8   0  867.61   14.50
  -3  -1   3 1954.70   31.90
  -1   0   1 5513.75   30.60
   0   7   9   34.50    6.90
   1 -15  -4   31.20    5.30
   1  -9  -4   27.30    6.70
   3 -10  -5    6.70    9.30
   4 -16  -5    2.80    6.80
   4  -8  -5   15.00    9.20
   5  -4  -4   -0.60   11.40
   6  -4  -4   19.90   11.60
   7  -9  -5    7.60   11.30
   7   1  -1   27.60   12.10
   8  -6  -4   99.29   14.30
   9   4   4   85.89   12.90
  10  -1   0   36.70   11.10
  -4  -4   3  643.14   19.90
   2  -1  -2 1417.66   23.10
   5  -7  -5  794.12   24.10
   5   8   8   -3.30    3.80
   7  -8  -5  117.99   15.40
   7  -2  -3  185.28   15.90
   7   5   3  160.78   13.70
   7   7   7  108.49    9.10
   8 -11  -5    2.50   11.10
   8  -3  -3   18.10   13.00
   8  -1  -2   50.69   14.60
   8   5   4  590.14   20.60
   8   6   6    4.00    8.20
   9  -8  -4   52.69   12.70
  10  -4  -2   86.69   14.00
  -3   0   4    9.40    9.30
  -3   1   5  264.67   14.70
  -2  -4   0  603.94   11.40
   2  -3  -3 1925.91   27.10
   2   2   0  785.22   14.90
   5   3   0  193.98   14.10
   5   4   1  168.98   13.20
   8 -10  -5   89.39   13.00
   9  -7  -4   72.59   13.50
   9  -4  -3    6.30   11.50
   9  -2  -2    3.20   12.00
   9   2   1   52.69   13.40
  10  -6  -3  395.56   22.30
   7  -7  -5   19.80   11.10
   7   0  -2   19.50   12.80
   8  -9  -5   13.70   10.20
   8  -5  -4  670.53   24.60
   8   2   0  610.94   24.40
   8   3   1  369.86   19.40
   9   3   2   13.40   10.90
  10   1   1  102.89   15.90
  -4  -7   2  227.38   12.10
  -3  -3   2  107.29    9.10
   1  -2  -2   34.20    7.50
   3   0  -2   -2.10   10.10
   4   3   0  190.08   11.70
   5  -6  -5   -0.80   11.80
   5  -3  -4  101.09   14.50
   5   2  -1  439.76   18.20
   6  -6  -5   36.00   12.90
   6   4   1   74.39   11.10
   8  -8  -5  179.88   15.40
   9  -6  -4    9.30   11.40
   9   5   5   29.30   10.00
  10  -3  -2   54.79   13.20
  10   0   0    2.10   10.90
   0   6   7  613.54   14.90
   0   7  10   93.99    8.80
   2 -12  -5  395.56   13.70
   3  -4  -4   72.29   10.90
   6   2  -1   27.40   11.20
   8  -2  -3  229.58   18.00
   8   4   2   10.00    9.60
   9   4   3   14.00   10.50
  10  -5  -3   13.30   11.80
  -3  -9   0  596.24   12.10
  -1   5   7 2645.64   33.40
   3 -17  -5    4.00    5.10
   4  -6  -5   -2.10   10.90
   4  -1  -3 2890.01   41.20
   4   5   2  494.75   14.10
   5 -13  -6  139.39   12.60
   5 -12  -6   64.59   11.10
   6 -13  -6    2.30    8.10
   6 -12  -6   -4.00    8.60
   6 -11  -6   87.69   11.00
   6   5   2   20.60   10.60
   7  -6  -5   66.19   13.10
   7  -3  -4 1220.38   31.80
   7   6   4   31.00   11.90
   8  -7  -5  360.86   20.80
   8   0  -2  114.89   16.30
   9  -9  -5    1.20   11.90
   9  -5  -4   49.10   12.40
   9  -1  -2  179.68   17.20
  -1   3   4 5039.70   41.00
   1   7   8   10.40    5.70
   4  -3  -4  110.39   10.20
   5 -14  -6    5.00    8.20
   5 -11  -6   22.60   10.50
   5   1  -2 1330.47   30.30
   5   7   5   27.90    7.10
   6 -14  -6   30.50    9.00
   6  -5  -5  103.49   14.50
   7 -13  -6   55.89    9.40
   7   4   1  117.49   15.00
   8   5   3   92.99   13.00
   8   6   5  629.74   20.00
  10  -4  -3  362.26   21.00
  10  -2  -2    6.00   14.20
  -4  -8   2  186.58   12.20
  -2   3   6  399.86   15.60
   2 -15  -5   27.80    7.20
   2  -5  -4  868.01   19.40
   5 -15  -6   38.10    8.80
   6 -15  -6   19.80    8.00
   6  -9  -6  565.74   22.70
   8  -6  -5  242.58   17.90
   9  -8  -5  118.49   14.90
  -1   2   3 3940.11   34.50
   4 -13  -6  112.09   11.20
   4 -12  -6  400.26   17.80
   4 -11  -6   22.10   10.70
   4   7   5   77.39    5.90
   6  -2  -4  411.86   21.10
   7  -9  -6   28.40   11.40
   8  -3  -4  439.56   22.30
   9  -7  -5   33.90   13.00
   9  -4  -4   -7.60   11.90
   9  -2  -3  363.46   21.80
   9   1  -1  183.28   15.90
   9   2   0  460.75   21.60
   9   3   1  431.76   21.10
   9   5   4   40.60   12.40
  10  -6  -4    4.20   11.30
  10   1   0   42.80   13.80
  10   2   1  192.98   15.90
  -3 -10   0  847.92   14.10
  -3  -2   3 1657.73   29.30
   4 -10  -6    2.60   10.40
   4  -5  -5  140.69   13.90
   4   1  -2  131.59   13.60
   5 -16  -6   15.60    7.10
   5  -2  -4 1092.79   29.70
   5   6   3  107.49   10.10
   6  -8  -6   87.69   12.40
   7  -8  -6   21.40   11.50
   7  -2  -4   28.20   12.90
   7   5   2   65.29   12.40
   8 -10  -6    7.20   10.50
   8  -5  -5    2.70   13.30
  10  -3  -3   -1.60   11.70
  10   0  -1    1.20   10.20
  10   3   2   22.00   12.50
  -4  -9   2   47.00    8.50
  -2  -1   2 1427.46   24.50
   2 -16  -5   24.30    5.90
   3   3   0  213.68   10.90
   3   4   1    6.60    6.60
   4 -15  -6    7.60    6.10
   5  -8  -6  672.83   23.20
   6  -4  -5  147.79   16.10
   6   0  -3   10.70   12.90
   6   6   3  260.97   14.20
   8  -9  -6    3.50   10.80
   8   2  -1   13.60   13.10
   8   3   0   16.60   10.90
   9  -6  -5  217.58   16.80
   9   4   2   40.90   10.70
  10  -5  -4  293.07   19.90
  -4  -6   3 1167.48   24.50
  -3  -1   4 1517.75   29.20
  -3   0   5  120.29   12.60
  -1   5   8  146.39   11.20
   0   4   4   52.79    5.60
   1   0  -1 6259.57   34.00
   3  -3  -4   50.99   11.00
   3  -1  -3 1944.21   31.90
   3   8   9  108.19    5.30
   5  -4  -5  124.29   15.90
   6  -7  -6  767.12   25.40
   7  -7  -6  149.49   14.80
   7   0  -3   84.79   16.20
   8  -8  -6  147.89   14.70
   8   1  -2   25.90   14.20
   8   4   1    2.80   11.70
   9  -3  -4   39.60   12.90
  -3 -13   0   25.60    5.20
  -3 -11   0   60.29    6.20
  -3  -4   2   58.69    9.10
   0   6   8  365.06   12.50
   2  -2  -3  589.94   17.30
   3   2  -1  503.65   16.50
   4  -2  -4   57.19   13.00
   5  -7  -6  229.18   17.10
   8  -4  -5  415.26   21.10
   8  -2  -4   -5.10   12.20
   9  -5  -5   11.20   13.10
   9  -1  -3  120.59   15.90
  10  -4  -4   15.90   12.10
  10  -2  -3   -0.30   14.30
  -4 -10   2  140.89   10.10
  -3 -12   0   34.80    5.40
  -2   0   3  222.78   13.60
  -2   1   4  275.97   13.80
   1   6   6  623.44   11.90
   1   7   9  472.95   12.90
   3 -11  -6   13.80    9.40
   4   6   3  574.54   13.40
   6   4   0    6.80   11.40
   8  -7  -6   67.29   14.30
   8   0  -3   -2.40   12.10
   8   5   2   12.00    9.50
   9  -9  -6   11.60   10.20
   9   5   3   13.90   10.70
  10   2   0   66.69   14.60
  -4 -13   2    3.70    7.20
  -4 -11   2  564.84   15.70
   2  -4  -4 2938.71   34.40
   3 -10  -6  268.27   14.50
   4  -4  -5   82.19   13.00
   4   0  -3   11.40   11.30
   5   3  -1  227.38   14.60
   6  -3  -5  554.34   24.00
   6  -1  -4   62.99   15.70
   6   2  -2  238.48   17.10
   7  -6  -6   40.10   12.40
   7  -3  -5   44.40   13.40
   7  -1  -4  179.18   17.20
   9  -8  -6    8.10   11.70
   9   2  -1    0.10   10.20
   9   3   0   20.00   12.90
  10   0  -2   14.00   12.40
  10   3   1  409.76   21.70
  -4 -12   2   83.89    8.50
   2   7   7  182.48    6.70
   3 -15  -6   65.29    8.40
   5  -6  -6   32.00   12.00
   6 -14  -7   -1.70    9.00
   6 -13  -7   -0.90    8.20
   6 -12  -7   77.99   12.10
   6 -11  -7   22.00    8.60
   6   5   1  378.86   17.70
   7 -13  -7  205.78   15.10
   7 -12  -7   17.60    9.00
   7 -11  -7  391.26   18.40
   7   4   0  687.43   23.60
   8  -6  -6  315.77   20.10
   9  -7  -6  344.37   21.40
   9  -4  -5   24.50   12.30
   9  -2  -4  102.59   14.70
  10  -3  -4    1.10   12.70
   0 -12  -4   58.09    5.60
   2   0  -2  263.07   14.10
   3  -9  -6    9.90    9.50
   5   2  -2   54.09   11.70
   5   8   7   22.90    4.00
   6  -5  -6   45.70   13.70
   7  -5  -6   30.00   13.30
   8  -1  -4   49.40   14.40
   9   0  -3 1008.80   33.10
   9   4   1   31.00   11.80
  10  -5  -5   10.70   12.50
  10   4   2  242.58   16.90
  -2  -8  -1   69.89    4.70
   0 -13  -4   43.00    4.90
   0   6   9  555.74   15.60
   1   7  10  785.02   17.00
   3 -16  -6    6.80    6.60
   3   1  -2 6597.74   55.29
   5 -14  -7  116.29   11.10
   5 -13  -7   63.99   10.90
   5 -12  -7  200.18   14.00
   5 -11  -7   31.80   10.20
   6   1  -3  179.68   17.80
   7  -9  -7    9.40   11.00
   7   1  -3    4.60   14.30
   7   5   1  745.93   23.20
   8  -5  -6   61.59   15.60
   8   3  -1  310.07   20.20
  -3  -7   1  227.18   10.60
  -2  -5   0 4918.11   30.50
  -2  -3   1 1080.59   18.60
   0 -11  -4    8.10    4.40
   5 -15  -7  214.38   13.00
   5  -5  -6  106.69   15.90
   5   1  -3   13.60   12.60
   7  -8  -7  110.99   13.20
   7  -2  -5 1196.48   32.90
   8  -9  -7    4.40   10.80
   8   6   3   52.69   11.90
   9  -3  -5   45.70   13.20
   9   5   2    9.70   11.60
   9   6   4  192.68   13.80
  -2   2   6  249.08   12.90
   0 -14  -4    8.80    3.90
   1 -12  -5   47.00    7.10
   1 -11  -5  232.48   10.70
   3  -2  -4  225.58   14.80
   4  -3  -5 1533.05   32.30
   4  -1  -4  538.35   21.70
   4   3  -1  463.15   17.20
   4   4   0  349.07   13.50
   6  -8  -7  446.76   21.40
   6  -2  -5 1336.77   34.70
   7  -4  -6   13.80   12.00
   8  -8  -7   24.20   11.30
   8   1  -3   93.89   15.00
   9  -1  -4  721.93   28.20
  10  -4  -5   24.60   13.10
  10  -2  -4   52.89   12.60
  10   1  -2   21.80   12.80
  10   2  -1   25.10   13.80
  10   3   0   50.59   13.90
  -3  -2   4  205.98   12.40
   0   3   3  727.03   12.90
   4 -12  -7   28.00    9.60
   4   2  -2  750.52   22.50
   5   7   4    0.10    6.90
   6  -4  -6   49.90   15.60
   6   0  -4  429.86   22.50
   7  -7  -7    7.80   10.70
   7   0  -4   -7.20   13.10
   8  -4  -6   16.20   12.20
   8  -2  -5   95.89   15.50
   8   5   1   77.59   12.30
   9  -5  -6   45.40   13.40
  -3  -5   2    9.40    6.50
   0 -10  -4   31.10    5.80
   1  -3  -3  147.89    8.90
   3  -4  -5   22.70   10.40
   4 -14  -7  109.09   10.10
   4 -13  -7  254.67   13.50
   4 -11  -7    7.80   10.90
   5  -2  -5  701.33   26.30
   6  -7  -7  362.36   20.10
   7   6   2   11.30   11.50
   7   7   4   32.40    8.30
   8  -7  -7  173.58   16.80
   8   0  -4  536.45   25.20
   9  -8  -7  118.89   15.00
   9   2  -2    7.70   10.40
   9   3  -1   29.20   12.20
   0 -15  -4    4.70    3.80
   3   0  -3 4322.77   47.80
   4 -10  -7   76.79   12.20
   4   5   1  629.14   16.60
   5  -4  -6  185.48   17.70
   5   0  -4   -5.30   14.00
   5   6   2   18.90    9.30
   9  -4  -6   18.00   11.40
   9  -2  -5   35.10   14.30
   9   4   0   28.60   10.60
  10  -1  -4   72.79   17.00
  -2   1   5   57.29    8.90
   2 -13  -6  660.33   16.70
   2 -12  -6   89.39    9.60
   2 -11  -6  452.95   15.00
   2  -3  -4 1745.93   28.30
   4  -9  -7    3.60   11.00
   5  -7  -7  160.78   14.30
   6  -6  -7   62.79   13.10
   6   3  -2   63.59   14.00
   7  -6  -7   -3.90   11.20
   7  -3  -6  842.92   29.40
   7  -1  -5  209.88   19.80
   7   4  -1  662.93   24.50
   8  -6  -7   53.59   13.80
   9  -7  -7  171.98   17.00
   9   0  -4    4.80   12.00
   0   5   7  818.62   17.70
   2 -14  -6   17.40    6.50
   6  -1  -5  138.49   18.80
   6   2  -3   -2.50   13.80
   7 -12  -8  232.98   16.60
   7   2  -3  197.28   18.80
   8  -3  -6   16.10   13.30
   8  -1  -5   57.99   14.80
   8   3  -2   -4.80   13.80
   8   6   2   77.09   13.00
   9   5   1   79.19   12.30
  -2  -2   2  151.08   10.30
  -1   4   8 2280.77   33.40
   1  -9  -5  208.98   10.00
   1  -1  -2  306.17   12.60
   1   6   7   -5.70    5.40
   6 -14  -8    8.90    8.90
   6 -13  -8   13.10    9.70
   6 -12  -8   -0.40    9.90
   6 -11  -8   88.79   12.00
   6   5   0  225.28   15.90
   8   4  -1  430.26   21.70
   9  -3  -6   35.20   14.80
  10  -4  -6  140.69   16.80
  10  -2  -5   56.99   14.40
  10   1  -3  100.89   14.00
  10   2  -2    3.10   12.00
  10   3  -1   15.50   12.50
  -2   0   4  733.83   19.10
  -1   2   4  467.25   14.00
   1 -16  -5    2.10    4.30
   2 -15  -6   58.19    7.30
   2   7   8    5.40    4.70
   3  -6  -6  332.47   16.50
   5  -6  -7   91.69   14.80
   5   3  -2   41.50   11.40
   6  -5  -7   80.89   15.00
   6   8   6   63.29    6.60
   8  -9  -8   60.39   13.80
   8  -5  -7   67.69   13.20
   8   1  -4   31.00   14.30
   9  -1  -5   82.99   15.40
  10   4   0  217.18   17.40
  -2  -1   3   24.60    8.90
   0  -9  -4 3019.60   23.70
   0  -3  -2  309.67    8.30
   4  -4  -6  697.93   23.70
   5  -3  -6 1874.21   38.40
   5  -1  -5  357.86   21.40
   5   2  -3   27.20   12.70
   6   1  -4   56.09   15.40
   7  -8  -8   -4.50   11.90
   8  -8  -8   11.10   13.40
   8  -2  -6   22.80   15.90
   9   2  -3  372.96   21.50
   9   3  -2   60.19   13.40
  -3  -2   5   18.10    8.60
  -1   3   6  504.85   17.00
   3  -3  -5   93.69   12.50
   4  -7  -7  519.45   20.20
   4   0  -4  182.68   16.00
   5 -14  -8  374.46   16.90
   5 -13  -8   35.60    9.60
   5 -12  -8  113.59   12.60
   5 -11  -8   80.59   11.30
   6   7   3  203.08   11.80
   7  -4  -7    8.60   12.80
   7   0  -5  533.45   25.40
   7   7   3   14.20    9.20
   9   1  -4  760.22   30.40
   9   4  -1   10.50   12.20
   9   6   2   65.69   11.90
  10  -3  -6   10.50   13.50
  -2  -9  -1  543.75    9.10
   0   2   2   26.70    6.10
   0   5   8  498.55   15.60
   1  -8  -5   96.09    8.30
   3 -14  -7   15.50    7.90
   3 -10  -7  468.65   18.20
   5 -10  -8  161.08   14.10
   5   5   0   38.90   10.00
   6  -8  -8  116.39   15.80
   6  -2  -6   60.29   16.20
   6   6   1  303.77   16.60
   7  -7  -8   75.99   13.90
   7   6   1  305.77   16.40
   8  -7  -8   61.69   13.80
   8   0  -5    4.80   12.80
   9  -2  -6    4.20   13.90
  10  -1  -5   21.30   13.60
  10   5   1   47.40   12.30
  -2   1   6  580.74   18.50
   2   7   9   99.59    6.90
   3 -15  -7    6.50    6.70
   3   3  -1   94.89   10.30
   5  -9  -8    5.80   11.30
   5   1  -4   52.89   15.70
   6   0  -5  -13.00   14.60
   8   6   1    1.70   11.40
   8   7   3  161.18   14.70
   9  -7  -8   27.80   12.50
   9   0  -5  523.95   25.00
   9   5   0  -10.00   10.50
  10   2  -3    2.70   12.30
  10   3  -2   62.09   15.90
  -3 -10   1  288.47   11.20
   0  -5  -3  274.47    8.70
   1   6   8   -4.70    5.70
   2   2  -1  180.28   11.90
   2   7  10   16.10    5.80
   3  -9  -7  461.15   17.70
   3  -5  -6  264.87   15.50
   3   2  -2 1200.88   26.50
   4  -6  -7  262.17   18.00
   4   6   2  294.07   11.30
   4   7   4   34.80    5.60
   7   4  -2   38.30   14.90
   8  -6  -8   40.30   13.30
  10  -2  -6  155.98   17.60
  10   4  -1   57.79   13.10
  -3 -14   1   10.50    5.50
  -1  -1   1  306.47   10.60
   0   5   9  177.58   11.40
   4  -3  -6   41.00   13.60
   5   8   6   13.60    3.90
   7  -3  -7   18.90   15.10
   7  -1  -6  130.09   18.80
   7   2  -4   47.00   15.30
   8  -3  -7   -7.40   12.80
   8  -1  -6   86.79   15.90
   8   2  -4    7.90   15.30
   8   4  -2  259.67   19.90
   9  -6  -8  240.68   19.40
  10  -4  -7    7.70   13.00
  -3 -11   1   80.09    7.90
  -3  -5   3    0.20    8.90
  -2  -4   1  590.34   13.70
   4 -13  -8   11.70    7.80
   4 -12  -8    7.30    8.60
   4  -1  -5   36.80   13.00
   4   3  -2  520.25   19.60
   5  -4  -7  254.97   17.70
   5   0  -5  366.16   22.00
   5   7   3  536.75   13.90
   6  -6  -8  260.57   18.00
   6   3  -3  320.37   20.40
   7 -11  -9  150.98   14.40
   7   5  -1  806.52   26.10
   9  -3  -7   81.89   14.90
   9  -1  -6    3.90   13.60
   9   3  -3    8.90   12.30
   9   6   1    6.60   11.30
  10   0  -5    2.70   13.40
  -3 -13   1  195.18    9.00
  -3  -7   2  101.69    9.50
  -1   0   2    7.20    8.10
   0  -8  -4  198.98    8.00
   1   5   5   15.80    4.80
   1   6   9  164.68    9.70
   1   6  10  869.51   20.10
   2  -4  -5   92.59   10.90
   2  -2  -4 1089.89   23.00
   2   1  -2 1491.25   26.20
   2   6   5 2307.87   14.00
   3  -8  -7  140.49   12.20
   3   1  -3 1965.40   34.30
   4 -11  -8   43.30   10.90
   5   6   1  186.98   12.50
   6  -3  -7  -11.40   13.30
   6   8   5  671.93   14.20
   7 -10  -9    5.20   10.00
   7   8   5  128.79    9.40
   8  -5  -8    2.20   11.50
   8   1  -5   59.39   16.60
   9  -5  -8    9.60   13.10
   9   4  -2  171.08   16.80
   9   7   3   25.20   12.20
  10   5   0    2.10   10.50
  -3  -4   4   61.79    9.00
  -3  -3   5   98.29   10.50
  -2   0   5  -14.60    7.60
   3  -2  -5   10.00   10.90
   4 -10  -8  414.76   18.70
   6 -13  -9   -1.50    8.10
   6 -11  -9  143.49   13.80
   7   7   2  161.78   12.50
   8  -8  -9  115.19   15.90
   8  -2  -7  101.29   16.10
   9   1  -5   56.89   16.30
  10  -3  -7  395.36   22.80
  10  -1  -6   51.69   14.50
   3  -4  -6  503.45   19.30
   6 -10  -9    5.10    9.80
   7  -2  -7   44.70   15.40
   7   6   0 1229.58   29.20
   8  -4  -8  116.49   16.00
   8   7   2   14.90   10.20
   9  -2  -7    4.60   13.60
   9   5  -1  106.09   13.90
  10   2  -4   57.29   13.90
  10   3  -3   -7.70   12.10
  -2 -14  -1  131.19    5.60
  -1   2   5 2535.45   31.90
   1   4   3 1020.80    9.00
   4 -16  -8    8.90    6.00
   4   1  -4  579.34   22.60
   5  -6  -8    2.30   12.60
   5   3  -3  238.28   16.00
   5   4  -2 1825.72   34.00
   6  -9  -9   15.60   11.30
   6   7   2  455.75   15.80
   7  -4  -8  292.47   20.90
   7   0  -6    0.20   15.00
   8   6   0  -13.50    9.30
   9  -4  -8  136.69   16.80
   9   0  -6   -3.50   13.00
  10   4  -2   91.19   14.60
  -2  -3   2 3016.10   32.00
  -2  -1   4  272.27   13.10
   3   0  -4  -14.10   12.50
   4  -8  -8    7.40   10.50
   4  -2  -6 1749.82   35.30
   5  -3  -7   52.49   13.90
   5  -1  -6  282.67   20.00
   5   2  -4 1064.49   30.10
   6  -2  -7  822.72   28.50
   6   6   0  358.56   17.90
   7  -7  -9  163.78   16.50
  10  -2  -7   -0.40   12.40
   2   0  -3  106.39   13.30
   5 -12  -9    4.10    9.20
   5 -11  -9  310.07   16.90
   6   0  -6   79.09   16.30
   7   3  -4 1201.08   34.60
   8  -6  -9   59.49   12.70
   8  -1  -7  249.48   20.90
   9  -6  -9    5.70   11.50
   9   6   0   74.19   11.70
   9   7   2  150.58   12.60
  10   0  -6   29.60   14.00
  10   5  -1   61.29   12.20
  -2 -13  -1  100.99    5.30
  -2 -11  -1  122.79    5.30
  -2  -2   3  552.24   15.20
   4  -4  -7  951.70   26.80
   4   0  -5  -10.40   11.80
   5 -10  -9  377.86   18.40
   5  -5  -8   31.20   12.10
   6  -4  -8   64.79   14.60
   7  -6  -9   31.90   12.00
   7  -1  -7   82.69   15.80
   7   8   4  119.79    9.70
   8  -3  -8   99.89   15.10
   8   2  -5   84.79   15.80
   8   5  -2  126.89   15.50
   9  -1  -7   20.10   14.80
   9   3  -4   36.80   13.40
   9   4  -3   18.60   11.40
  -2   0   6 3192.48   39.80
   0   3   4 4586.44   32.30
   2 -13  -7   17.60    6.30
   2 -12  -7  594.04   16.20
   2 -11  -7  332.97   13.50
   3  -6  -7  205.98   13.20
   6  -7  -9  136.29   14.30
   7  -3  -8   11.20   12.60
   7   2  -5 1224.68   34.20
   7   5  -2   52.19   13.40
   8  -5  -9    9.00   13.50
   8   1  -6   88.49   17.40
   9   5  -2   35.60   12.30
  10  -1  -7  193.28   17.30
   2 -14  -7   -2.60    6.30
   2  -3  -5  277.27   14.10
   3  -3  -6   23.00    9.90
   6   3  -4   41.00   14.70
   6   4  -3   78.39   13.80
   6   8   4   19.40    7.10
   7 -11 -10   14.40   10.90
   7   7   1  223.38   14.60
   9  -5  -9    7.40   11.60
  10   3  -4   -4.50   10.80
  10   6   0   -6.20   10.70
  -1   2   6   62.49    8.30
   0   4   7  429.16   13.80
   1 -13  -6   42.30    5.90
   1 -12  -6  870.31   16.20
   1 -11  -6  148.89    9.20
   2 -10  -7  260.27   12.40
   3 -14  -8   49.50    8.80
   3 -13  -8   85.39   10.10
   3  -1  -5  255.37   15.00
   5  -8  -9   55.19   12.30
   5  -2  -7  651.53   23.70
   6  -6  -9  498.95   21.60
   6  -3  -8   23.90   12.30
   6  -1  -7    8.10   13.70
   7 -10 -10    6.80    9.80
   7  -5  -9  782.52   27.00
   7   1  -6   99.39   15.90
   8  -2  -8  271.37   20.40
   8   6  -1  127.39   13.50
   9  -2  -8  175.78   17.10
  -1   1   4 2798.32   30.40
   1 -14  -6    6.70    5.30
   2 -15  -7   12.60    5.90
   3 -10  -8  285.17   15.20
   5  -4  -8  257.87   17.00
   5   0  -6    4.70   13.10
   5   7   2  470.05   14.30
   6   5  -2  145.79   13.40
   7  -2  -8   41.10   13.20
   7   6  -1   12.30   12.00
   8  -4  -9   72.79   13.30
   8   0  -7   -5.90   13.10
   9   0  -7   27.20   13.50
   9   6  -1   11.20   10.00
   9   7   1  352.06   17.00
  10   5  -2  422.06   20.10
  -2  -5   1 1227.58   17.50
  -2  -1   5   56.79    9.10
   0   4   8   20.00    7.70
   1   5   6   75.79    5.90
   2  -5  -6    9.50    7.30
   3 -15  -8    4.40    5.70
   4  -1  -6  121.19   14.40
   5   6   0   70.89    9.40
   6 -12 -10   18.60    9.00
   6 -11 -10   28.10   10.20
   6   1  -6  347.97   20.00
   6   7   1  405.26   16.10
   7   0  -7    3.70   12.20
   7   8   3   12.30    8.10
   8  -7 -10    7.30   10.90
   8   8   3   -7.50    9.60
  10   0  -7    6.70   12.00
  -3 -13   2   30.40    7.20
  -3 -12   2   13.20    6.20
   1   1  -1  304.07   10.30
   4 -12  -9    8.90    7.50
   4   3  -3   54.49   10.90
   6 -10 -10  378.76   18.70
   6  -5  -9   46.20   11.80
   7  -4  -9   91.39   13.30
   8   4  -4  249.38   19.50
   9   4  -4   -7.00   10.70
  -1   2   7   26.60    7.60
   3   3  -2  117.09   10.80
   4 -10  -9   -2.60    8.60
   5   3  -4  101.49   13.20
   6  -9 -10   16.80    9.50
   6  -2  -8   28.00   11.70
   7  -7 -10   10.10   10.80
   8  -3  -9   92.89   13.80
   8  -1  -8  181.28   17.40
   8   2  -6    4.40   13.70
   9  -1  -8   60.49   13.00
   9   2  -6    1.70   12.60
  10   6  -1   52.79   11.20
  -5  -9   9  192.78   11.20
  -4 -14   6  254.07   15.00
  -3 -17   2   -8.60    9.40
  -3 -16   3  212.68   16.70
  -2 -18  -2   14.10    9.60
  -1 -17  -5   14.20    8.90
  -1 -16  -3  283.97   16.50
  -1 -11   2   42.60   10.30
  -1   2   2   44.30    4.70
   0 -14  -5   72.09   10.60
   1  -9 -11   11.40    5.60
   1  -9  -5  200.78   10.90
   1   1 -10   30.70    3.20
  -6 -12   9    5.90    7.20
  -5 -12   8  106.49   10.80
  -4  -8   8   -0.30    7.80
  -3  -3   7  451.85    9.80
  -2 -17  -1   46.60   12.70
  -2 -13   3  403.66   18.50
  -2 -11   4   85.29   11.50
  -2  -8   5  219.48   12.30
  -1 -17  -7    9.80    7.00
  -1  -8   3  909.11   20.40
  -1   5   0    4.40    6.10
  -1   6  -1 1136.99   21.80
   0 -14 -10   23.40    7.30
   0 -13 -12   23.80    7.20
   0   4  -3   45.50    5.70
  -7 -11  10   25.10    7.20
  -6 -14   8    4.10    7.60
  -6  -8  10   80.89    7.50
  -3  -5   7  741.73   14.80
  -3  -4   7  546.65   11.50
  -2 -18  -3   40.40   10.60
  -2   7   1   15.60    6.90
  -1 -15  -2   48.00    9.50
  -1 -12   1  146.89   14.20
   0 -14  -9    2.50    7.30
   0 -14  -7  223.18   12.90
   0 -13  -4   37.80    9.80
   0 -12 -13   14.40    5.70
   1  -9 -10  317.47   11.30
   1  -7 -12   77.59    5.90
   1  -7  -4  318.37   11.80
  -5  -8   9   57.09    8.40
  -5   6   7   95.59    7.80
  -4 -11   7   12.90    8.90
  -3 -14   4    4.80    9.90
  -2 -16   0   14.00    9.50
  -2 -15   1  205.18   16.00
  -2 -14   2  191.78   14.80
  -2   6   2   80.69    8.50
  -1 -14  -1   11.20   10.00
  -1 -13   0   35.00   11.20
  -1 -10   2  598.44   19.00
  -1  -7   3   15.30    6.90
   0 -13 -11   15.40    7.00
   0 -12  -3   10.00    8.30
   0  -8   0   39.50    8.10
   0   2  -1  203.08    6.40
   1  -9  -7   28.20    7.20
   1  -8 -11   -1.20    4.70
   1  -8  -5   87.89    7.60
  -4 -17   3    9.90   10.70
  -4 -13   6  125.09   11.40
  -3 -17   1   53.49   10.90
  -3 -15   3   10.70   10.00
  -2 -18  -4   76.29   11.70
  -2 -17  -2   57.59   10.40
  -2  -7   5  700.83   17.00
  -1 -16  -5    1.80    8.60
  -1   4   1 1694.43   20.80
   0 -13  -5    3.60    8.10
   0 -11  -2  323.97   15.20
   0   5  -4    0.90    4.80
   1  -9  -8   60.99    7.60
  -6 -11   9  157.68   11.40
  -5 -15   6   34.10    9.90
  -5 -11   8   66.89    9.30
  -3 -16   2  108.49   13.30
  -2 -18  -5    7.00    9.40
  -2 -10   4   -5.60    9.50
  -1 -15  -3   -4.20    9.00
   0  -7   0    1.10    7.30
   1  -6 -12    9.50    3.90
  -7 -10  10   11.70    6.50
  -6 -13   8    7.00    8.80
  -5 -13   7   58.89    9.90
  -5  -7   9   14.50    6.80
  -2 -16  -1  112.59   13.00
  -2   3   4 1747.63   17.70
  -2   5   3   77.79    8.30
  -1 -16  -8   57.39    9.80
  -1 -11   1  707.33   22.10
   0 -13  -9   -2.80    7.10
   0 -12  -4   55.79    9.20
   0  -9  -1 1124.09   23.40
   1  -8 -10   13.50    5.30
   1  -7  -5    3.40    5.30
   1  -5  -4   64.39    5.90
   1  -2  -4  471.75    7.80
  -4 -10   7   44.90    9.60
  -4  -6   8   12.50    6.30
  -3 -13   4  -12.10   10.30
  -2 -17  -3   70.89   10.60
  -2 -15   0  460.05   19.40
  -2 -14   1  408.36   18.30
  -2 -13   2   27.20   10.50
  -1 -14  -2   59.99   10.60
  -1 -13  -1   18.40   10.00
  -1 -12   0  398.56   17.90
  -1  -9   2  757.12   20.30
   0 -13  -8   77.09    8.10
   0 -11 -13    1.70    5.90
   1  -5 -12   47.00    4.30
  -4 -18   1    1.00    9.90
  -4 -12   6  368.26   16.50
  -4   6   6  265.67   10.40
  -3 -18  -2   21.10   11.70
  -3 -17   0   -5.10    9.90
  -3   5   5  282.17    9.80
  -2 -17  -4   76.09   12.00
  -1  -5   3  605.24   14.00
   0 -12 -11  210.38   11.20
   0   6  -5  550.04   14.50
   1  -6  -5   63.39    6.70
  -5 -14   6    2.50    8.80
  -5 -10   8  140.99   10.80
  -5  -6   9   74.09    8.00
  -4 -16   3   10.20   10.10
  -4  -5   8  365.16   11.10
  -3 -16   1   64.29   11.80
  -3 -15   2   11.60    9.80
  -3 -14   3    1.20   10.60
  -2 -16  -2   13.70   10.20
  -2 -11   3   73.09   12.00
  -2  -9   4  686.83   19.30
  -2  -5   5  327.97   10.80
  -1 -15  -5  140.79   12.00
  -1 -14  -3    7.70    8.60
   1  -7 -10   58.89    6.40
   1   1 -11    3.00    2.50
   1   2  -9   10.70    3.40
   1   2  -8   49.60    4.30
  -7  -9  10   14.60    7.50
  -6 -14   7    9.80    8.60
  -5 -12   7  197.68   13.70
  -3 -18  -3  258.27   17.50
  -2 -17  -5   99.19   11.50
  -1 -15  -9   -2.90    8.50
  -1 -15  -7  705.53   21.30
  -1 -10   1 1257.17   27.00
  -1  -8   2   31.40    8.30
   0 -12 -10   15.40    7.20
   0 -11  -4    7.70    8.00
   0  -8  -1   -5.60    5.20
   0   4  -2  125.09    7.50
   0   5  -3  239.48    9.70
   1  -4 -12  115.89    4.70
  -6 -12   8    8.00    7.60
  -5 -15   5   20.40   10.40
  -4  -9   7    2.10    7.90
  -3 -17  -1   -2.80   10.10
  -3 -12   4  424.26   19.40
  -2 -17  -7   55.19    9.00
  -2 -16  -3   19.00    9.30
  -2 -15  -1  114.89   12.60
  -2  -4   5   76.19    6.70
  -1 -15  -8   51.29    8.30
  -1 -13  -2   14.70   10.30
  -1  -3   3  155.38    7.70
  -1  -2   3 3861.81   22.60
   0 -12  -9   65.39    8.70
   0 -12  -7    1.40    8.10
   0 -10 -13   53.09    7.20
   0  -9  -2  837.32   21.00
   0  -5   0    3.90    6.90
   1   2  -7   22.50    3.70
  -6 -15   6   27.50   10.60
  -4  -4   8  986.60   14.40
  -4  -1   8    8.70    2.80
  -2 -14   0  181.88   15.60
  -2 -13   1   69.49   12.20
  -1 -14  -4   67.79   10.30
  -1 -12  -1   38.60   10.80
  -1 -11   0  515.55   19.30
   0 -10  -3   12.70    8.30
   0   6  -4  251.17   10.60
   1  -3 -12  872.01    9.30
   1   2 -10  305.87    7.20
  -7 -11   9  165.38   12.20
  -6  -4  10   25.70    5.10
  -6   5   9   51.99    5.50
  -5  -9   8   -5.60    8.30
  -5   5   8   31.90    5.30
  -4 -11   6   16.30    8.80
  -4  -3   8   91.59    6.20
  -3 -17  -2   37.70   12.70
  -3 -16   0  472.55   20.70
  -3 -13   3  153.78   14.50
  -3   3   6   22.30    4.30
  -2 -16  -4   82.59   11.70
  -2 -10   3   30.50    9.90
  -1 -14 -11   -0.60    6.90
   0 -11  -5  145.59   11.70
   1  -2 -12  279.77    4.40
  -7  -8  10    7.70    8.30
  -5 -13   6  155.48   13.10
  -3 -15   1  978.20   28.20
  -2 -15  -2   40.50   10.80
  -2  -2   5  190.58    6.20
  -1 -14 -10   32.80    8.50
  -1 -14  -5  181.88   13.30
  -1 -13  -3  395.26   17.20
  -1  -7   2   28.60    8.10
   1  -5 -11   67.19    5.50
  -6 -13   7   16.90    8.30
  -6 -11   8   76.29    9.90
  -5 -11   7   30.60    9.60
  -5  -4   9    8.00    5.00
  -4  -2   8  252.47    6.30
  -2 -16  -5    3.80    9.10
  -1 -14  -9   48.40    9.80
   0 -11 -10  385.46   14.10
   0 -10 -12   -1.40    5.50
   0 -10  -4   33.90    9.20
   0   3  -1  241.98    7.40
   1  -6  -8 2228.68   24.30
  -6  -3  10   13.00    4.00
  -5 -14   5  157.48   13.50
  -4 -17   0   -8.60   10.30
  -3 -17  -3   54.19   11.40
  -3 -16  -1   -2.70   10.50
  -3 -11   4   99.89   13.10
  -3   6   5 1646.14   22.90
  -2 -16  -8   17.10    8.50
  -2 -15  -3    9.90    8.60
  -2 -14  -1  145.79   13.30
  -2 -11   2  162.48   14.00
  -1 -14  -8   44.20    8.20
  -1 -13 -12   -0.80    6.50
  -1 -12  -2  367.96   17.20
   0 -11  -9  497.85   16.80
   0 -11  -7    9.20    7.90
   0  -9 -13   32.80    6.90
   0  -9  -3  421.76   14.90
  -6 -14   6   29.00   10.60
  -6  -8   9   16.40    8.60
  -4 -10   6   -2.50    8.00
  -3 -17  -4  393.36   19.70
  -2 -13   0   51.89   11.30
  -2 -12   1   28.20   11.90
  -2  -7   4  793.12   18.80
  -1 -13  -4  341.27   16.30
  -1 -11  -1   89.49   11.40
   0  -3   0    2.30    4.20
   0   6  -3  814.02   17.70
   1  -5 -10   24.60    5.30
   1   3  -9  158.08    6.60
   1   3  -8   10.90    4.60
  -7 -12   8  232.08   14.30
  -7 -10   9    6.80    7.50
  -6 -15   5   15.60    9.20
  -6  -2  10  253.17    5.90
  -5  -8   8  259.47   12.30
  -5  -3   9    3.00    4.40
  -4 -16   1  170.48   15.20
  -4 -13   4  858.21   27.00
  -4   5   7  251.27    8.80
  -3 -15   0   -4.50    9.90
  -3 -12   3   13.90   10.70
  -2 -15  -4    4.90   10.20
  -2  -9   3  228.58   13.60
  -1 -13 -11   -4.20    6.30
  -1  -6   2  155.58   10.10
   0 -10  -5  151.58   10.70
   0   5  -2 1264.07   19.90
   1  -4 -11  496.15    9.30
   1   2 -11  191.88    5.60
  -7  -7  10   14.00    6.00
  -6  -1  10    6.40    2.40
  -5 -17   1   -3.50   11.80
  -5 -12   6   73.39   10.70
  -4 -17  -1   94.19   13.00
  -4 -14   3   54.29   13.30
  -3 -17  -5   31.70   10.70
  -3 -16  -2   10.50    9.30
  -3 -14   1    3.30   10.30
  -1 -12  -3  213.28   13.70
  -1  -8   1   24.10    8.90
   0  -2   0 3654.33   21.20
   1  -5  -9 2477.05   23.50
   1  -5  -7 2555.14   24.20
   1   3  -7   27.90    4.50
  -6 -12   7   88.79   10.40
  -6 -10   8   -6.20    7.80
  -6   6   9  473.05   11.90
  -5   6   8    2.50    4.80
  -4  -7   7  506.15   15.30
  -2 -15  -5   18.80    9.80
  -1 -13 -10    0.90    6.60
  -1 -13  -6  309.87   16.30
  -1   6   1   11.00    6.20
   0  -9 -12  211.48   10.70
   0  -9  -4 2908.21   35.00
   1  -5  -8  145.79    7.60
   1   1  -5 2093.39   12.20
   1   3 -10   38.10    4.10
  -7 -13   7  270.67   16.80
  -5 -13   5  115.99   12.60
  -5  -2   9  113.09    4.90
  -3 -10   4  132.39   13.50
  -3   4   6  516.05   10.60
  -2 -15  -9   89.89   11.60
  -2 -13  -1  116.99   12.90
  -1 -13  -9    2.60    7.40
  -1 -13  -8   38.90    8.20
  -1 -12 -12   89.09    9.10
  -1 -11  -2    3.40    9.90
  -1  -9   0  767.72   21.50
  -1   4   2  828.92   14.30
   0 -10  -9   19.30    8.20
   0 -10  -8  357.36   14.00
   0  -8  -3 2191.98   29.60
  -6 -13   6   -0.40    9.70
  -6  -7   9  150.68   10.30
  -5 -15   3  234.58   17.60
  -5  -7   8  175.58   10.80
  -4  -9   6   21.30    8.40
  -3   7   5  106.09    8.60
  -2 -15  -8   33.70    8.50
  -2 -14  -3  529.85   20.00
  -1 -12  -4  825.92   22.50
   0  -5  -1 1457.05   21.10
   0   4  -1  273.77    9.50
   1  -4 -10   94.09    6.10
  -7  -9   9   12.80    7.60
  -6 -14   5   15.20   10.00
  -5 -17   0    5.80   10.30
  -4 -17  -3   74.39   12.40
  -4 -15   1  143.09   15.30
  -4 -12   4   26.90   11.60
  -3 -16  -4    5.00    8.90
  -3 -14   0  383.06   19.40
  -3 -11   3   -1.30   10.40
  -2  -8   3 1560.54   27.30
  -1 -12 -11   79.69    9.40
  -1  -5   2   10.90    7.30
   0  -9  -5   31.50    7.40
   1  -3 -11   65.29    4.40
   1   4  -9  422.56   10.60
   1   4  -8 2428.96   23.80
  -8  -8  10    4.80    7.00
  -7 -11   8   79.79    9.90
  -7  -6  10  784.02   16.20
  -6 -15   4  228.18   15.80
  -5 -11   6   26.80    9.20
  -4 -13   3  142.69   15.50
  -4   6   7  261.17    9.80
  -3 -16  -5  493.15   20.70
  -3 -15  -2    5.20   10.80
  -3 -12   2    1.50   10.20
  -2 -14  -4  130.79   13.00
  -2 -13  -2  410.56   17.90
  -1 -12  -5  102.99   11.20
  -1  -7   1  450.05   15.30
   0   6  -2 1638.14   24.50
   1  -4  -7   50.09    5.00
   1   3 -11   58.29    4.70
  -6 -11   7   29.50    9.40
  -6  -9   8   27.90    8.10
  -5 -16   1   74.39   12.70
  -5  -9   7  460.75   17.10
  -5  -1   9   41.60    3.30
  -4 -17  -4  102.59   12.50
  -3 -16  -6    9.60    8.70
  -2 -14  -5   55.79   11.50
  -1 -12 -10    0.70    8.10
  -1 -12  -6    8.70    9.90
   0  -8  -4  172.98   10.30
   1  -4  -9  420.56    9.70
   1  -4  -8 2362.06   21.10
   1   4 -10   85.99    6.10
  -5 -15   2   14.90   11.90
  -5 -12   5   41.10   11.60
  -3 -15  -3   22.00   10.40
  -3  -9   4    6.50    9.10
  -2 -14 -10  118.19   11.20
  -2 -12  -1  230.18   15.00
  -1 -10  -2  282.77   14.50
   0  -8 -12   53.39    7.20
   0  -7  -3 1405.96   22.70
   0  -6  -2 1567.04   23.50
   1   2 -12  255.17    5.80
   1   2  -5 2510.25   18.00
  -7 -12   7   10.10    9.10
  -6 -16   2  117.39   13.70
  -6 -12   6   21.00   10.80
  -5 -14   3   -8.60   10.80
  -4 -16  -2   68.19   12.10
  -4 -15   0  225.88   16.90
  -4  -8   6  161.98   11.50
  -3 -14  -1    7.90   10.20
  -3  -4   6  526.35   12.10
  -3   5   6  277.97    9.40
  -2 -14  -9   52.39   10.20
  -2 -14  -6  219.28   14.40
  -2 -11   0   14.20   10.10
  -2 -10   1    4.50   10.00
  -1 -12  -8  164.28   11.50
  -1 -11 -12    2.50    5.60
  -1  -8   0  148.09   10.00
  -1   5   2   10.70    5.20
   0  -9  -9  527.95   15.50
   0  -9  -8    8.00    7.40
   0  -7 -13  251.57   10.20
   0  -6 -14   -2.60    4.50
   0   5  -1 1482.95   21.20
  -5 -16   0   19.30   11.50
  -5  -6   8    4.40    7.50
  -4 -14   1   85.69   12.90
  -3 -15  -4   50.09   11.20
  -3 -13   0   31.30   10.70
  -2  -7   3  798.32   19.40
  -1 -11  -4  107.69   10.80
   1   4 -11  496.15   10.90
   1   5  -9 2508.75   26.60
   1   5  -8  148.59    8.40
  -8  -7  10   -3.10    6.80
  -7 -14   5  197.38   16.30
  -7 -13   6   65.89   11.50
  -7 -10   8   43.00    9.40
  -7  -5  10   51.59    6.90
  -6 -14   4   38.20    9.90
  -6 -13   5   19.50   10.20
  -5 -10   6  157.88   13.20
  -5   0   9  792.52    6.20
  -4 -16  -3   21.20   10.10
  -4 -11   4 1194.58   29.40
  -3 -10   3  995.30   26.50
  -1 -11 -11   52.59    8.20
  -1  -4   2  811.72   15.00
   0  -8 -11    5.40    6.70
   0  -8  -5 3060.89   33.70
   1  -3 -10   36.50    4.40
  -6 -10   7   65.29   10.40
  -5 -15   1   40.10   12.90
  -5   3   9   -0.70    2.90
  -4 -15  -1  182.28   15.40
  -4 -12   3  948.01   26.80
  -3 -15  -5   29.90    9.70
  -3 -14  -2   33.80   10.50
  -3 -12   1   23.50   10.30
  -3 -11   2  946.01   26.60
  -2 -13 -11  157.98   11.60
  -2 -13  -4  580.24   19.80
  -2 -12  -2  836.12   23.90
  -1 -11  -5  257.27   13.90
  -1 -10  -3    8.50    9.50
   1  -3  -7   22.90    4.30
   1  -2 -11  187.88    4.90
   1   3 -12  859.21   11.60
   1   3  -5 2546.35   22.10
   1   5 -10   17.00    5.70
   1   5  -7 2744.73   28.20
  -8  -9   9   19.40    7.90
  -6 -16   1   -3.30   10.70
  -5 -16  -1   43.70   11.00
  -5  -8   7   47.60    9.80
  -4 -16  -4  114.59   13.50
  -3 -15  -8   -8.90    8.10
  -2 -13  -5  384.16   17.00
  -1 -11 -10  133.09   10.10
  -1 -11  -6   61.19   10.60
  -7 -11   7  474.35   19.20
  -6   3  10   15.80    2.70
  -5 -11   5  274.57   16.40
  -4 -16  -6    0.90   10.10
  -4 -15  -2   18.80   11.40
  -3 -14  -3   -2.30   10.30
  -3 -13  -1   29.90   10.70
  -3   6   6  344.47   11.10
  -2 -13 -10    5.00    7.50
  -2 -13  -6   19.00   10.00
  -2 -11  -1  121.89   13.40
  -2  -8   2  170.88   12.30
  -1 -11  -9  113.79    9.70
  -1  -9  -2  317.07   14.80
   0  -7 -12  110.69    7.90
   0  -5  -2 1188.68   19.30
   0   6  -1  215.18   10.40
   1  -3  -9  149.88    6.10
  -6 -15   2  128.59   13.90
  -6 -11   6   95.69   13.00
  -6  -5   9   47.50    7.80
  -5 -13   3    8.40   10.90
  -3  -3   6   24.20    5.10
  -2 -13  -9  114.69   11.10
  -2 -13  -8   31.50    7.90
  -2 -12  -3 1673.73   32.00
  -2 -10   0   99.89   11.80
  -2  -4   4 3138.09   28.20
  -1  -8  -1  190.08   11.70
  -1  -7   0  178.88   11.60
   0  -8  -8   14.70    6.80
   0  -6  -3  754.62   16.20
   0   3   0   -1.70    5.30
   1  -3  -8    4.90    3.50
   1   4  -5 2129.29   23.50
   1   6  -9    6.40    5.60
   1   6  -8 2416.06   28.40
  -7 -12   6  402.06   19.80
  -5 -15   0   32.70   11.60
  -5  -5   8   26.70    7.40
  -5   4   9    6.10    3.80
  -4 -13   1   47.90   12.00
  -3 -14  -4    8.90    9.10
  -3 -12   0   27.00   10.90
  -2 -12 -12    4.10    6.70
  -1 -10  -4    4.30    8.60
   1   4 -12  117.09    6.10
   1   6  -7  133.59    9.50
  -8  -6  10   17.10    6.50
  -7 -14   4  147.39   13.40
  -7 -13   5   62.99   11.70
  -7  -9   8   68.29    9.50
  -6 -13   4   90.39   12.40
  -6 -12   5   15.80    8.90
  -5 -16  -3    9.70   10.60
  -5  -9   6  130.39   12.20
  -4 -12   2  117.99   13.30
  -4 -10   4  178.88   13.50
  -3  -9   3  942.61   25.10
  -1 -10 -11   -2.00    7.00
   0  -7  -5    0.50    5.60
  -8 -10   8  137.79   12.10
  -6  -9   7  351.36   15.70
  -6   4  10   26.60    3.60
  -5 -14   1    4.40    9.90
  -4 -15  -4   77.59   12.20
  -4 -11   3  498.45   20.10
  -3 -14  -5   11.20    9.00
  -3 -11   1   85.69   12.20
  -3 -10   2  388.46   18.50
  -2 -12 -11  261.37   14.10
  -2 -12  -4  147.99   12.70
  -2 -11  -2 1082.39   26.10
  -1 -10  -5  202.78   12.70
  -1  -9 -13   83.69    8.70
   0   4   0  758.62   14.00
   0   7  -1  171.68   10.30
   1   6  -6   11.90    6.50
  -8  -8   9  104.49    9.80
  -6  -7   8    8.00    7.80
  -5 -16  -4   16.70   11.00
  -5 -15  -1  349.57   19.10
  -5  -7   7  163.78   11.50
  -4  -4   7  982.70   16.20
  -3 -14  -8  128.39   11.90
  -3 -14  -6   35.40   10.40
  -3   7   6 1136.59   19.60
  -2 -12  -5  154.58   14.00
  -2 -11 -13   14.40    8.00
  -1 -10 -10   78.49    9.50
  -1  -9  -3  238.18   13.00
  -1  -5   1  948.61   17.40
   1   5 -12   43.70    5.40
  -8 -11   7   32.90   10.70
  -7 -10   7   74.99   11.10
  -5 -13   2   14.90   10.80
  -5 -10   5   22.40   10.20
  -5   5   9   24.40    4.20
  -4 -15  -5    8.30    9.00
  -4 -14  -2  209.98   17.40
  -4 -13   0   -1.50   10.30
  -3 -13  -3   31.30   10.70
  -3 -12  -1   75.49   11.70
  -1 -10  -6  436.26   16.30
   0  -7  -6  377.96   12.20
   1  -2 -10  325.87    6.50
  -6 -14   2   28.90   11.00
  -6 -10   6   29.10   10.80
  -5 -15  -2   36.70   12.30
  -5 -12   3  105.69   13.60
  -4   4   8 1000.90   12.40
  -3  -7   4 1921.81   29.50
  -2 -12  -9   -4.80    7.60
  -2 -12  -6  248.68   14.20
  -2 -11  -3   35.10   10.10
  -2  -7   2  256.07   13.00
  -1 -10  -8  599.04   18.30
  -1  -8  -2   -2.30    7.70
  -1   3   3  147.69    7.20
   0  -6 -12  271.77   10.40
   1   2  -4  452.55    8.20
   1   3  -4 4965.90   29.90
  -7 -14   3  289.07   15.90
  -7 -11   6    5.00   10.50
  -6 -15   0  120.89   14.30
  -6  -4   9  314.37   10.30
  -5 -14   0   74.79   13.10
  -4  -6   6  259.97   11.60
  -3 -13  -4    6.00    9.70
  -2 -11 -12  484.45   17.10
  -2  -9   0  412.86   17.10
  -2  -8   1  646.64   19.00
  -1  -9  -4   87.29    9.70
  -1  -7  -1 3114.99   34.70
  -1   2   3 3797.92   19.80
   0  -5  -3  235.28    9.60
   0  -4  -2  114.09    7.80
   1  -2  -7   24.00    3.80
   1   3 -13   12.90    3.10
   1   6 -12    2.90    4.80
   1   7  -6   53.89    8.40
  -8  -5  10  252.57   11.40
  -7 -13   4  152.28   12.90
  -7 -12   5  158.58   14.80
  -7  -8   8    2.30    8.80
  -7  -6   9   33.60    8.40
  -6 -12   4  108.99   12.90
  -6 -11   5   12.30    8.80
  -5 -15  -3   60.49   12.70
  -5  -4   8  263.57   10.00
  -5   6   9   79.99    5.90
  -4 -14  -3  131.39   12.90
  -4  -9   4   52.69   11.00
  -4   5   8  367.96    9.20
  -3 -13 -10   86.79   11.90
  -3 -11   0   71.89   11.60
  -2  -3   4 1756.52   19.00
  -1   4   3 6071.19   36.30
  -8  -9   8   63.29   10.00
  -5 -13   1   26.00   13.00
  -5  -8   6  740.43   20.50
  -4 -13  -1  155.88   14.60
  -4 -10   3  122.09   14.30
  -3 -13  -5   28.60   10.40
  -3 -12  -2  120.99   13.00
  -3 -10   1  300.57   16.90
  -3  -8   3   89.99   11.50
  -3  -2   6  858.51   11.60
  -2 -11 -11   71.49    9.80
  -2 -11  -4 1313.07   28.00
  -2  -5   3   72.89    7.90
  -1  -9 -11    5.10    6.70
  -1  -8 -13   15.70    7.10
   0  -5 -13   29.10    4.80
   0   6   0  672.63   15.30
   1   5  -4   72.39    8.00
  -8  -7   9   -2.00    7.10
  -6 -14   1   39.20   10.40
  -5 -15  -4   31.30   11.20
  -5 -14  -1  271.87   17.20
  -4 -14  -4  184.38   13.50
  -3 -13  -9  116.59   10.20
  -3 -13  -8   52.29    9.20
  -3 -13  -6    7.10    9.60
  -2 -10 -13   84.89   10.30
  -2 -10  -2  175.18   13.00
  -1  -9  -5  292.27   14.00
  -1   5   3  649.93   13.90
   0  -6 -11    8.60    5.90
   1  -2  -9    4.20    3.30
   1  -2  -8   60.09    4.20
  -8 -10   7   55.09   10.90
  -5 -15  -5    8.20    8.90
  -5 -12   2   52.39   11.70
  -4 -14  -5  419.66   18.70
  -4   6   8   11.30    5.20
  -2 -11  -5   29.20   10.10
  -1  -9 -10   11.90    8.60
  -1  -8  -3   52.59    8.10
   0   7   0   -4.80    6.20
   1  -1 -11    8.20    2.30
  -7  -9   7   -4.20    8.60
  -6 -15  -2   94.39   12.90
  -6 -13   2   93.59   12.90
  -5 -15  -6   37.00    9.70
  -5 -11   3  278.97   18.00
  -5  -9   5  260.47   15.00
  -5   7   9   17.50    4.30
  -4 -14  -7   50.69   10.70
  -4 -14  -6   12.30    8.50
  -4 -13  -2   75.99   12.00
  -4 -12   0   48.60   11.80
  -4  -3   7 2309.37   22.00
  -2 -11  -9   50.59    9.60
  -2 -11  -6   88.99   10.80
  -2  -9  -1  582.54   19.00
  -1  -9  -6   81.09    9.20
  -1  -7 -14    5.70    5.80
  -1  -4   1 1748.43   21.90
  -1   6   3   81.49    7.30
   1   6  -4  125.99    8.30
  -8 -12   5   21.40   10.40
  -7 -13   3   50.09   10.20
  -6  -9   6  641.04   22.00
  -5 -14  -2   75.09   11.70
  -5 -13   0   13.10   10.10
  -3 -12 -11   -1.30    8.40
  -3  -6   4  818.92   19.10
  -2 -11  -8    1.70    8.70
  -2 -10  -3  116.39   12.60
  -1  -9  -8  372.56   15.00
   0  -6  -6  268.97    9.90
  -7 -14   1   62.19   12.80
  -7 -12   4   -3.30    8.60
  -7 -11   5  102.59   13.10
  -7 -10   6   82.69   11.10
  -6 -15  -3   50.29   11.50
  -6 -11   4   25.40   10.50
  -6 -10   5  271.27   15.80
  -4 -13  -3  192.98   14.90
  -4 -11   1   23.10   12.00
  -3 -12  -4   15.50   11.00
  -2 -10 -12   15.20    7.40
  -2  -8   0  214.58   13.60
  -1  -7  -2 2279.47   29.50
  -1   1   3  143.49    3.30
  -1   7   3   10.00    5.80
   0  -5  -4    5.30    5.30
   0  -2  -1  217.08    6.90
   1   7  -4  336.27   13.20
  -8  -8   8    7.40    9.50
  -8  -4  10   99.19    7.70
  -7  -5   9  871.11   18.50
  -6  -3   9    2.50    5.10
  -5 -14  -3  320.77   17.40
  -4 -12  -1  132.19   13.50
  -4  -5   6  910.21   17.90
  -3 -12 -10   20.90    8.80
  -3 -12  -5   89.59   13.10
  -3 -10   0  874.21   24.20
  -1  -8  -4  934.51   20.80
  -7  -2  10   38.20    5.10
  -6 -14  -1   80.19   12.30
  -6 -13   1   10.70   10.40
  -5 -14  -4  124.29   13.30
  -5 -13  -1  582.14   22.90
  -5  -3   8  416.16   11.30
  -4  -9   3  128.19   13.40
  -3 -12  -9    8.70    6.90
  -3 -12  -6   12.00   10.30
  -3 -11  -2  345.57   17.40
  -3  -9   1  681.83   21.50
  -3  -7   3  439.36   16.70
  -2 -10  -4   -2.60   10.20
   1   4  -3 5711.13   37.00
  -8  -6   9   44.20    9.60
  -7 -14   0   -1.40   11.20
  -5 -14  -5  107.79   13.60
  -4 -13  -9    4.50    7.90
  -4 -13  -5   58.29   11.00
  -3 -12  -7   13.20    9.60
  -3 -11 -12   12.90    8.10
  -3  -8   2  843.12   22.40
  -3   4   7  554.94   10.10
  -3   5   7  746.23   13.10
  -2  -9  -2   25.30   10.50
   0  -4 -13  200.58    8.10
  -8 -12   4   -9.10    9.70
  -8  -9   7    3.20    8.20
  -7  -8   7  107.29   11.80
  -6 -14  -2   -6.70   10.20
  -6 -12   2   20.70    9.50
  -5 -14  -7    2.80    8.20
  -5 -14  -6   60.49   10.60
  -5 -11   2  176.58   15.60
  -5  -5   7   86.09   10.00
  -4 -13  -6  132.19   12.30
  -3   6   7  198.28    8.60
  -2 -10 -10   10.40    8.50
  -2 -10  -5   10.90    9.90
  -1  -8  -5  643.54   17.70
   1   3  -3  152.18    7.00
  -8 -10   6    7.20    8.90
  -6 -13   0  138.09   14.50
  -5 -13  -2  407.96   19.30
  -5 -10   3   -2.50   10.20
  -5  -8   5   60.69   11.50
  -4 -12  -2  357.96   18.20
  -3 -11  -3  142.69   13.20
  -3 -10  -1 1039.10   27.00
  -2  -4   3 2990.10   29.20
  -1  -8 -10  164.68   11.40
  -1  -7  -3   41.20    8.00
  -1  -6 -14    2.80    7.20
   0  -5 -11   -0.10    5.10
   0   6   1  204.68    9.80
   1   7  -3    7.90    6.50
  -7 -14  -1   12.00    9.40
  -7 -11   4   14.20    8.70
  -7  -9   6   29.50   10.80
  -6 -14  -3   32.60   10.50
  -6  -8   6  100.49   13.70
  -3 -11 -11   10.20    8.20
  -3   7   7 1397.06   21.00
  -2 -10  -9   23.80    8.40
  -2 -10  -6  237.58   14.00
  -2  -8  -1   77.39   11.20
  -2  -2   4 1187.68   14.20
  -1  -8  -9  153.78   11.60
  -1  -8  -6  376.06   14.60
  -7 -13   1    4.60    9.90
  -7 -10   5   15.70   10.90
  -6 -14  -4   11.20   11.20
  -6  -9   5  186.18   15.60
  -5 -13  -3   -1.60    9.30
  -4 -12  -3   80.29   12.60
  -4 -10   1   33.50   12.20
  -3 -11  -4   36.00   11.00
  -2  -9 -12   14.90    7.20
  -1  -8  -8  216.88   12.30
   0   3   1  231.38    8.00
   0   7   1  179.78    9.30
  -9  -6   9   -3.40    7.00
  -8  -7   8   52.99    9.20
  -8  -3  10    9.50    5.60
  -7 -14  -2   42.30   10.80
  -7  -6   8  469.15   16.80
  -6 -14  -5  196.18   14.60
  -6 -13  -1   79.79   11.50
  -5   1   9   41.80    2.40
  -4 -11  -1  341.27   17.70
  -3 -11 -10  173.08   12.80
  -3  -5   4   67.79    8.20
   0  -5 -10   24.20    6.30
  -8 -12   3   11.70    9.20
  -6 -12   1    3.50    9.80
  -5 -13  -4  338.67   18.00
  -5 -12  -1   46.10   11.60
  -5 -11   1  458.35   21.10
  -4 -12 -10   11.40    8.60
  -4 -12  -4  201.88   14.80
  -4  -9   2   38.50   12.60
  -4  -7   4   49.50   10.10
  -4  -2   7  429.46   10.00
  -3 -11  -9   26.40    8.30
  -3 -11  -5   36.20    9.90
  -3 -10  -2  620.24   22.10
  -2  -7   0  236.88   11.40
  -2  -5   2  171.88   10.80
  -1  -7  -4  106.59    9.40
   1  -1 -10   31.60    3.30
  -8 -11   4   -5.50   11.40
  -8  -8   7   24.10    9.20
  -8  -5   9   26.10    7.80
  -7 -13   0  130.19   13.80
  -6  -2   9    8.70    5.00
  -5 -13  -6   27.50   11.40
  -5 -13  -5  112.89   13.00
  -5  -6   6   27.10    9.20
  -4 -12  -9   28.50    7.90
  -4 -12  -5  545.55   20.70
  -3 -11  -7   47.60   10.60
  -3 -11  -6  521.85   19.10
  -3 -10 -12   -5.20    7.40
  -3  -8   1  428.66   17.80
  -3  -1   6   52.89    4.50
  -2  -9  -4  277.57   14.80
  -2  -6   1    3.80    6.20
   0  -5  -9  184.88    9.20
  -8 -10   5   92.79   12.40
  -8  -9   6   -3.90    9.20
  -6 -13  -2   -2.90   10.00
  -6 -11   2  158.88   14.30
  -5 -13  -7    5.20    9.20
  -5 -10   2   -1.20   11.30
  -4 -12  -7   75.49   11.80
  -4 -12  -6  154.98   14.00
  -3  -7   2  115.99   11.40
  -3  -6   3  513.65   17.60
  -1  -6 -13   57.39    7.80
  -1  -3   1  270.17    8.70
   1   5  -2    6.20    5.30
   1   6  -2  153.18    9.20
   1   7  -2   19.20    6.90
  -9  -7   8   24.80    9.40
  -5 -12  -2  119.79   14.10
  -4 -11  -2   77.89   12.40
  -2  -9 -10   31.80    9.30
  -2  -9  -5   52.79   11.60
  -1  -7  -5  534.15   16.20
  -1   6   4  123.29    9.30
  -7 -13  -1   99.19   13.50
  -7 -12   1   22.70   10.70
  -7 -10   4   16.80    8.20
  -7  -8   6   28.30   11.40
  -6 -13  -3   14.80   10.20
  -6  -4   8   71.49    9.40
  -5 -11   0  546.05   22.50
  -5  -9   3   18.00   11.80
  -5  -7   5  793.92   22.00
  -5  -4   7  250.87   12.20
  -5  -2   8   12.00    5.60
  -3 -10 -11   54.39    9.50
  -3  -9  -1  775.62   23.60
  -1   5   4   67.69    6.90
  -9  -8   7  132.19   12.30
  -7  -9   5   14.80    9.60
  -6 -13  -4   17.50   10.30
  -6  -8   5 1206.08   28.70
  -5 -12  -3  146.19   14.00
  -4 -11 -11    5.20    7.70
  -4 -11  -3   12.30   10.70
  -3 -10  -4   14.20    9.90
  -3  -9 -13   49.00    8.70
  -2  -8 -12   49.40    8.50
  -1  -5 -14    8.40    5.90
   0  -3 -13  481.35   11.60
   1  -1  -7  231.28    5.00
  -9  -9   6    8.90    8.60
  -9  -5   9    2.40    8.50
  -8 -11   3  134.69   13.00
  -7 -13  -2    6.50   10.70
  -6 -13  -6   57.99   10.80
  -6 -13  -5    4.40    9.70
  -6 -12  -1   36.80   11.80
  -3 -10 -10  111.29   11.20
  -2   6   6  436.06   12.80
  -2   7   6   71.19    7.60
  -1  -7  -8   21.40    8.70
   1  -1  -9   61.09    3.90
  -8 -12   1    9.60   11.20
  -7 -13  -3  212.58   16.40
  -7 -12   0   49.30   13.20
  -7  -5   8   11.50   10.10
  -5 -12  -9   41.50    8.10
  -5 -12  -4  194.68   14.60
  -5 -11  -1  358.86   18.10
  -5 -10   1  625.54   22.40
  -4 -11 -10   13.00    7.00
  -4 -11  -4  321.57   17.60
  -3 -10  -9    4.20    8.10
  -3 -10  -5  246.68   15.20
  -1  -6 -12   86.89    9.50
  -1   4   4    0.60    4.70
   0  -2 -14   16.20    4.70
  -8  -2  10   61.99    7.00
  -7 -13  -4  127.89   14.80
  -7  -3   9  175.68   10.00
  -6 -12  -2   -0.60   11.50
  -5 -12  -7    1.40   10.50
  -5 -12  -6  145.59   13.10
  -5 -12  -5   42.10   10.90
  -4 -11  -9   66.89    8.80
  -4 -11  -5  145.39   13.40
  -3 -10  -6  232.48   14.90
  -3  -9  -2  189.08   15.60
  -2  -8 -11   -0.20    8.10
   0   6   2 1521.35   23.60
   0   7   2  124.99    9.10
  -8  -9   5    7.70    9.60
  -8  -7   7  170.38   12.60
  -8  -4   9   79.89    9.00
  -6 -10   2  540.95   21.10
  -4 -11  -7  114.29   11.70
  -4 -11  -6  658.53   22.20
  -4 -10 -12    5.30    8.20
  -4  -6   4    1.00    7.90
  -3  -9 -12   54.39    8.90
  -2  -8  -4  280.17   15.20
  -2  -6   0  166.68   12.30
   1  -1  -8  184.48    4.90
   1   7  -1  450.75   14.90
  -9  -6   8  270.47   14.40
  -8 -12   0  135.49   14.80
  -8  -8   6  146.89   12.10
  -6 -12  -3   75.79   11.90
  -6 -11   0    0.00   10.60
  -5 -11  -2   13.10   11.40
  -5  -9   2    2.50   11.70
  -5  -5   6  123.79   11.60
  -4 -10  -2  180.98   14.80
  -3  -4   4   69.69    7.80
  -1  -6  -4   19.90    7.50
   0   5   2 1176.58   19.10
   1   6  -1   -5.50    5.60
  -9 -10   4   -1.50    9.40
  -7 -11   1  241.78   15.60
  -7  -9   4   23.10   10.30
  -5 -10   0  510.25   21.20
  -4   7   9    6.80    5.10
  -4   8   9    6.10    5.30
  -3  -9 -11  265.97   14.40
  -3  -9  -3  405.96   19.00
  -2  -8 -10  160.68   13.10
  -2   4   6  187.88    7.00
  -1  -5 -13   61.99    8.30
   2   7  -9  129.29    9.30
  -9  -9   5    3.80    7.80
  -9  -7   7  152.48   12.70
  -7 -12  -2  454.45   21.20
  -7  -7   6  147.19   13.30
  -6 -12  -4   69.89   11.40
  -5 -11 -10   -9.40    7.50
  -5 -11  -3   44.90   11.40
  -5  -8   3  144.59   14.40
  -4 -10 -11   20.00    8.70
  -2  -8  -9    0.50    9.50
  -2  -8  -5  357.56   16.60
  -2  -7  -2   77.29    8.60
   1   5  -1  942.91   17.50
   2   6  -9  271.47   11.10
  -9  -8   6    5.20    8.20
  -8 -12  -1  217.28   16.50
  -8 -10   3  104.59   11.40
  -6 -12  -7    1.30    8.90
  -6 -12  -6   -1.00    8.90
  -6 -12  -5    0.30    9.90
  -6 -11  -1    9.10   10.10
  -6  -6   6  107.69   12.90
  -4 -10  -3   46.20   12.20
  -4  -3   6   30.90    6.80
  -3  -9 -10   58.19   10.00
  -3  -8 -13  140.19   10.60
  -3  -8  -1  325.57   17.50
  -2  -8  -7   85.79   12.30
  -2  -6 -14   20.00    6.90
  -1  -6  -5   55.79    8.40
   0  -3 -12  146.59    7.60
   2   6  -7   41.00    7.60
  -9  -4   9   52.19    8.60
  -8 -11   1   -0.80   10.60
  -8  -5   8    7.30    9.50
  -7 -12  -3   36.10   11.80
  -7 -11   0    9.10   12.30
  -7 -10   2   55.29   12.00
  -6  -7   5  139.29   13.00
  -6  -1   9  791.22   12.90
  -5 -11  -4   -3.50   11.20
  -4 -10 -10  150.18   11.80
  -4  -8   1    7.00   11.10
  -3  -9  -4  356.36   17.00
  -2  -7 -12   28.90    7.50
  -1  -4 -14   -2.10    7.40
   0  -4  -8    9.70    5.80
   2   6 -10  250.47   10.10
  -9 -10   3  230.58   14.60
  -8  -9   4  146.59   13.10
  -7 -12  -4  100.69   14.20
  -7  -4   8  269.07   14.40
  -5 -11  -7   99.69   13.90
  -5 -11  -6   26.10   11.60
  -5 -11  -5  269.57   16.60
  -4 -10  -9   11.50    8.40
  -4 -10  -4   31.80   10.60
  -4  -9  -1  376.56   19.00
  -3  -9  -9  232.78   15.00
  -3  -9  -5   44.40   11.40
  -3   7   8    9.20    5.30
  -1  -4  -1  130.49    9.90
   2   5  -9  271.07    9.50
   2   5  -8 1739.53   22.00
   2   7 -11   36.70    6.10
  -8  -6   7   52.99   10.00
  -7 -12  -5    4.40   10.10
  -7   0  10   -0.70    4.40
  -6 -11  -2   49.80   12.10
  -5  -3   7   38.90    8.10
  -4 -10  -5   56.79   11.40
  -4  -9 -12  267.77   14.70
  -4  -1   7  157.08    7.10
  -4   5   9   58.09    5.00
  -3  -9  -7  201.38   15.30
  -3  -9  -6  156.48   13.60
  -3  -8 -12  196.38   12.70
  -3  -7 -14  163.78   11.60
  -2  -7  -3   45.30   11.00
  -2  -6  -1 2326.47   33.20
  -1  -6  -8    1.00    8.40
  -1  -5 -12   68.39    8.70
  -1  -3 -15    2.30    5.90
  -1  -1   2  307.57    6.40
  -9  -9   4  150.88   14.50
  -8 -11   0   13.80   10.70
  -8  -8   5  168.38   13.10
  -8  -7   6   60.49   10.70
  -8  -3   9  107.09   10.40
  -7 -11  -1  188.08   15.10
  -6 -11  -3   -2.70   11.50
  -6  -9   2  265.37   16.80
  -5   5  10   29.40    3.80
  -4 -10  -7    3.30    8.60
  -4 -10  -6  555.74   21.00
  -4  -7   2  255.57   16.50
  -3  -8  -2 1897.01   34.40
  -3  -7   0  144.89   14.40
  -3   6   8  126.09    6.90
  -1  -5  -3  458.85   14.70
   1   0 -11   48.00    3.10
   1   7   0  184.18   10.60
   2   5 -10  463.75   11.50
   2   6 -11  164.38    8.30
  -9  -5   8    8.20    9.00
  -7 -10   1  273.77   16.80
  -7  -2   9  164.58    9.20
  -6 -10   0  403.16   18.90
  -5 -10  -2  402.16   18.80
  -5  -8   2   24.30   10.50
  -5  -1   8  208.68    8.30
  -4  -9  -2  605.44   21.60
   2   5  -6    7.70    6.10
  -9 -10   2   51.49   10.00
  -9  -8   5  109.69   11.90
  -9  -6   7  127.29   11.90
  -8 -11  -1   75.79   13.50
  -7 -11  -2   15.40   10.20
  -7  -8   4   -2.60   10.70
  -7  -5   7  117.09   11.70
  -6 -11  -8   19.80   10.40
  -6 -11  -4    1.10    9.60
  -6  -4   7   11.80    9.50
  -6   2  10  242.18    4.30
  -5 -10 -10  147.99   11.90
  -5  -9   0  163.48   14.50
  -4  -9 -11   10.50    7.30
  -4  -6   3 1377.56   28.10
  -3  -8 -11  110.69   11.10
  -2  -7 -10    6.70   10.40
  -2  -7  -4   71.59   11.80
  -1  -3   0  370.96   11.80
   0  -3 -11  328.17   10.70
   0   7   3 1486.65   24.30
   1   6   0 1679.13   24.50
  -8  -9   3  297.37   16.70
  -7  -7   5   25.40   11.00
  -7  -6   6   30.80   11.30
  -6 -11  -7   96.79   12.00
  -6 -11  -6   59.79   11.80
  -6 -11  -5   77.09   11.30
  -5 -10  -3    5.20   11.10
  -4  -8   0  689.33   23.00
  -3  -8  -3  264.87   16.30
  -3  -7 -13    1.90    7.80
  -2   3   6  381.46    7.70
  -1  -5 -11  258.77   12.50
   1   2  -2   33.70    5.10
   2   4  -9  818.52   12.70
   2   4  -8  164.68    7.10
  -8 -10   1   12.80   10.20
  -7 -11  -3  217.28   15.80
  -6 -10  -1   90.39   12.50
  -5 -10  -4   17.90   12.30
  -5  -7   3   26.10   10.00
  -5  -4   6  178.78   11.70
  -4  -9 -10  373.46   16.30
  -4  -9  -3  259.27   16.60
  -3  -6   1   52.09    8.60
  -3   5   8    0.90    4.20
  -2  -7  -5 1094.29   24.50
  -2  -5 -14  295.27   13.30
  -1  -4 -13   27.40    7.10
  -1  -2   1   28.90    6.10
   1   1  -3  138.49    3.90
   2   4  -7   95.59    6.30
   2   5 -11   38.20    5.00
  -9  -9   3  109.29   12.20
  -9  -3   9  167.68   10.50
  -8  -4   8  101.99   10.80
  -7 -11  -5    4.60   11.30
  -7 -11  -4   98.19   13.20
  -7 -10   0  100.19   12.30
  -7  -9   2  487.35   20.60
  -6  -9   1  369.66   18.30
  -6  -6   5   32.00   10.70
  -6  -5   6   48.40   12.30
  -5 -10  -8  140.69   12.50
  -5 -10  -5  201.28   15.90
  -3  -8  -4   49.90   11.50
  -3  -7  -1 1705.93   31.60
  -2  -7  -6  506.85   17.60
   2   6 -12  110.79    6.80
  -8 -11  -3   12.80   10.80
  -7 -11  -6   11.00    9.60
  -6 -10  -2   32.60   12.50
  -5 -10  -7   14.70    9.20
  -5 -10  -6   72.19   12.30
  -5  -9  -1   81.79   13.10
  -4  -9  -9   79.89   10.00
  -4  -9  -4  317.47   17.20
  -3  -8  -9  114.29   11.80
  -3  -5   2   13.40    8.90
  -2  -7  -7  206.38   13.00
   0  -3 -10    3.40    6.70
   2   6  -4  918.61   19.50
  -9  -8   4   34.70   11.50
  -8 -10   0   33.80   11.20
  -8  -7   5  340.97   17.20
  -8  -5   7   48.20    9.90
  -7 -10  -1    5.90    9.90
  -5  -9 -11   -6.90    9.30
  -4  -9  -5  188.58   14.50
  -4  -8  -1  614.54   21.40
  -4  -7   1   36.30   11.50
  -3  -8  -5   99.29   12.30
  -3  -7 -12  164.38   11.40
  -3  -3   4   61.59    7.80
   1   3  -1  266.47    8.10
   2   4 -10  386.86    8.50
  -9 -10   0   64.69   12.10
  -7  -3   8   11.80    8.80
  -6 -10  -3   68.09   13.10
  -6  -8   2   62.79   11.10
  -4  -9  -7  263.97   15.10
  -4  -9  -6   47.00   10.50
  -3  -8  -7   81.19   11.30
  -3  -8  -6  542.05   19.40
  -3  -4   3  216.18   11.70
  -2   6   7   33.60    6.00
  -1  -5  -5   13.70    7.30
  -1  -4  -2 2024.10   25.80
  -1  -3 -14  200.18   10.00
   0   5   3  251.47    9.60
  -9  -9   2    6.80    9.10
  -9  -7   5   30.00   10.30
  -9  -4   8  125.99   11.40
  -8 -10  -1   19.70   12.20
  -7 -10  -2  149.29   13.90
  -7  -9   1  100.79   12.60
  -6 -10  -4  150.28   14.60
  -5  -9  -2   35.10   11.70
  -4   4   9   63.59    3.70
  -2  -6 -11  387.56   15.80
   0  -2 -12  316.07   10.30
  -9  -6   6    8.10    8.70
  -9  -5   7   89.19   10.70
  -8  -2   9  162.18   10.20
  -6 -10  -7    7.90    9.10
  -6 -10  -6    7.70    9.50
  -6 -10  -5  116.59   12.10
  -5  -9 -10   25.80    7.30
  -5  -7   2  579.64   20.10
  -4  -8 -11  483.35   17.50
  -4  -8  -2   28.20   10.90
  -4  -6   2   69.99   10.60
  -3  -7  -2  263.97   14.00
  -2  -3   2 3203.98   30.80
  -1  -5  -8   50.19    8.90
  -1  -5  -6   85.99    8.70
  -1  -4 -12   14.10    7.20
   0  -3  -9   97.99    7.70
   2   5  -4  867.11   17.20
  -8  -9   1   15.90   10.50
  -8  -8   3  203.38   14.60
  -7 -10  -3   39.90   11.80
  -7  -4   7   17.00    9.70
  -5  -9  -3  112.89   13.10
  -4  -7 -13  110.19   10.30
  -4  -2   6 1738.63   21.80
  -3  -6   0  261.57   13.10
   1   4   0 2880.11   27.80
   2   5 -12  226.98    7.20
  -9  -8   3    9.40    7.70
  -8 -10  -3  113.09   15.10
  -8   0  10   69.19    6.70
  -7 -10  -7  254.47   15.60
  -7 -10  -6   67.09   11.80
  -7 -10  -5   27.40   12.30
  -7 -10  -4    2.20   10.50
  -7  -9   0   18.00   10.80
  -7  -6   5   66.59   11.40
  -7  -5   6   30.60   10.70
  -6   0   9    0.10    5.00
  -5  -9  -4   93.39   12.10
  -4  -8 -10  135.79   11.10
  -3  -6 -13  143.49   10.50
  -2  -6 -10   49.80   10.00
  -1   2   4  457.25    8.00
   0  -3  -8  236.48    8.80
   1   6   1 1002.50   19.10
   2   6  -3 2881.41   32.90
  -8 -10  -4   -0.60   10.10
  -8  -7   4  384.76   17.40
  -7  -8   2   19.70   10.90
  -7  -1   9    6.90    6.30
  -6  -9 -10   16.10    7.20
  -5  -9  -8   89.39   10.80
  -5  -9  -5   26.80   10.00
  -4  -8  -3  656.73   22.10
  -3  -7 -10   12.00    7.70
  -3  -7  -3 1468.05   28.50
  -2  -6  -4  400.06   15.60
   0   7   4 1351.26   23.20
  -9  -2   9    0.60    6.70
  -8 -10  -5   12.40   10.50
  -8  -9   0  154.68   14.00
  -8  -3   8   98.59   11.20
  -7   1  10   11.00    4.70
  -6  -9  -2  360.36   18.20
  -5  -9  -6  205.38   14.30
  -4  -7 -12   59.89    9.10
  -3   4   8   53.89    4.40
  -2  -4 -14   21.20    8.00
  -2   5   7  316.87    9.50
  -1  -4 -11   -0.80    6.90
   2   7  -2  249.48   11.80
  -9  -9   0  171.88   14.50
  -8  -6   5  232.18   14.80
  -7  -9  -1    0.00    9.30
  -6  -4   6   60.89   10.70
  -5  -8 -11  121.69   11.40
  -4  -8  -4  140.79   13.00
  -4   8  10    5.50    4.50
  -3  -7  -9  164.58   11.90
  -3  -7  -4 2856.01   38.40
  -3   0   6    3.60    3.60
  -3   8   9    2.00    5.40
  -2  -6  -5 2485.35   33.50
  -1  -4  -3 1065.19   19.00
  -1  -3 -13   87.09    8.00
  -1   7   6   48.10    7.60
   0   1   1 5280.97   18.80
   0   4   3   45.30    6.10
   1   0 -10    1.50    3.20
   2   3  -7  661.43   10.20
 -10  -6   5   -1.20    9.30
  -9  -8   2   90.09   11.70
  -8  -9  -1   20.60   11.60
  -8  -5   6   68.39   10.20
  -8  -4   7   34.30    8.30
  -6  -9  -8   52.49   10.50
  -5  -7   1  362.96   17.00
  -4  -8  -7   13.50    9.20
  -4  -8  -6   28.60    9.20
  -4  -8  -5   26.50    9.50
  -4  -7  -1  128.49   13.60
  -3  -6 -12   44.30    8.00
  -3  -6  -1    8.30    8.80
  -2  -6  -7  327.87   14.30
  -1  -3  -1  212.48   10.50
   0  -1 -13   -1.50    4.70
   1   5   1 8922.61   52.79
   2   3  -9   61.89    4.00
  -9  -9  -1  268.17   17.30
  -9  -6   5  243.88   14.50
  -9  -3   8   45.80    8.20
  -7  -9  -2   14.10    9.40
  -7  -8   1    8.00    9.50
  -6  -9  -7  153.88   13.30
  -6  -9  -6  324.97   16.90
  -6  -9  -5  316.17   16.90
  -6  -9  -4 1023.50   27.70
  -6  -8   0   21.00   11.00
  -6  -7   2    4.50   10.40
  -5  -8 -10   12.00    6.80
  -5  -8  -2  180.48   14.30
  -5  -4   5  137.19   10.30
  -3  -7  -7  394.46   16.30
  -3  -7  -6  656.93   20.40
  -3  -7  -5  633.54   19.90
   0  -2 -11  101.19    7.40
   0   6   4  246.38   10.60
   2   5  -3   78.59    6.90
 -10  -5   6   12.10    8.10
 -10  -4   7   11.20    8.60
  -9  -9  -2    8.70   10.00
  -9  -5   6   45.20    9.30
  -9  -4   7   65.99    9.80
  -8  -7   3   13.50    9.50
  -7  -9  -3  124.09   12.70
  -4  -7 -11   78.79    9.40
  -4  -6 -13   -1.00    7.60
  -4   7  10  167.28    7.10
  -2  -5  -2  719.83   19.00
   1   7   2 2305.37   30.70
   2   4  -4 2784.52   26.00
  -9  -7   3    5.10    8.40
  -8  -8   1  137.39   14.50
  -7  -9  -7   65.79   11.10
  -7  -9  -6  103.59   13.40
  -7  -9  -4  103.19   12.50
  -7  -2   8   40.90    9.00
  -5  -8  -3  258.57   15.90
  -5  -7 -12   47.60    8.60
  -3   7   9    4.60    4.70
  -2  -5 -11   30.60    8.30
  -2  -4 -13   27.80    8.50
  -1  -4  -4  204.38   10.60
  -1   6   6   12.60    5.90
  -8  -9  -5   84.89   13.30
  -8  -1   9  633.64   16.10
  -7  -9  -5   90.29   11.90
  -7  -8   0  170.88   14.10
  -6  -8 -10  150.58   11.30
  -6  -8  -1   22.40   10.80
  -5  -7   0  138.49   12.80
  -5  -6   2 3128.29   40.40
  -4  -7 -10  144.89   10.70
  -4  -7  -2  748.03   22.20
  -3  -6  -2   83.89   10.70
  -3  -5 -13  188.88   11.20
  -3  -4   2   89.09   10.10
   0   0 -14    7.80    5.10
   2   7  -1   21.60    7.10
 -10  -6   4   -5.10    9.90
  -8  -8   0  104.39   13.30
  -7  -7   2   22.80   10.10
  -6  -6   3   62.79   10.40
  -5  -8  -7   22.60    9.20
  -5  -8  -4  176.58   14.40
  -5   0   8    6.10    4.70
  -1  -3 -12   -0.10    7.10
   0   2   2   18.50    5.70
  -9  -6   4   17.40    8.50
  -7  -4   6    6.90    9.00
  -7  -3   7   15.40    8.60
  -6  -8  -2  845.52   25.60
  -6  -7   1  112.29   11.90
  -6  -1   8   -4.90    7.70
  -5  -8  -6   -1.10    8.70
  -5  -8  -5   38.20   10.20
  -5  -7 -11   11.30    7.10
  -4  -7  -3 1675.13   31.10
  -4  -6 -12  120.79   10.70
  -4  -5 -14   21.00    7.70
  -4  -5   2 2809.82   35.90
  -3  -6 -10   14.00    7.80
  -2  -5 -10  621.64   17.70
  -2  -5  -3  213.68   12.20
   1   6   2 1380.96   23.20
  -9  -7   2   13.50    7.90
  -9  -1   9  176.38   10.10
  -6  -8  -8    1.60    9.70
  -4  -6   0  169.68   13.80
  -3  -5   0   93.79   10.40
  -2  -3 -14    6.40    7.60
  -2   7   8  139.59    8.60
   0   5   4    3.40    5.60
   1   2  -1   26.00    5.50
   2   5  -2  176.98    9.30
 -10  -5   5    1.80    7.70
  -9  -8  -1   19.70    9.90
  -9  -5   5   15.90    8.90
  -8  -8  -1  105.59   12.80
  -8  -5   5   -2.00    9.10
  -8  -2   8  291.27   13.20
  -7  -8  -2   64.69   13.40
  -6  -8  -7  130.59   13.80
  -6  -8  -3 1209.88   29.50
  -5  -7  -1  108.79   13.60
  -5  -5   3 1216.48   24.60
  -4  -7  -8  101.89   12.00
  -4  -7  -4   34.20   11.30
  -4   0   7   -7.00    5.30
  -3  -6  -9   15.90    9.10
  -3  -6  -3  863.21   21.80
  -3  -5 -12   11.70    7.20
  -2  -5  -9  328.07   14.10
   1   4   1  140.19    8.70
 -10  -4   6  131.69   11.90
  -9  -8  -2  303.17   17.20
  -8  -8  -2   72.09   13.60
  -8  -4   6   11.00    8.70
  -8  -3   7   -5.20    9.60
  -8   1  10   57.39    6.20
  -7  -8  -8  140.99   13.00
  -7  -7   1  289.07   16.40
  -6  -8  -5  659.93   22.40
  -6  -7 -11  164.48   12.50
  -6  -7   0  126.49   13.70
  -5  -7 -10    0.10    6.70
  -4  -7  -7   -2.80    8.90
  -4  -7  -6   13.70    9.00
  -4  -7  -5   85.69   12.40
  -3   6   9   -0.10    4.40
   2   4  -3 3004.90   27.90
   2   6  -1    0.20    5.10
 -10  -6   3  451.45   19.70
 -10  -3   7  400.16   16.30
  -9  -4   6   -1.80    6.80
  -9  -3   7  105.19   11.00
  -8  -7   1   33.20   10.20
  -7  -8  -7   21.40    9.80
  -7  -8  -3   -8.90    9.70
  -7   0   9  105.39    8.30
  -6  -6   2  360.36   16.60
  -6  -4   5  162.48   11.60
  -6  -2   7  850.21   18.60
  -5  -6 -12   67.39    9.80
  -4  -6 -11  255.67   13.50
  -4  -5 -13    6.40    8.00
  -4  -4   3  681.13   17.70
  -4   6  10    3.80    4.40
  -3  -6  -4   52.89   10.30
  -2  -4  -1 2539.35   32.50
  -2  -2 -15    3.50    6.10
   0  -1 -12   52.09    6.40
   3   7  -8    2.50    7.30
  -9  -6   3   32.60    8.90
  -8  -8  -6    4.00   10.60
  -8  -8  -5   99.89   13.30
  -8  -8  -4  130.39   14.10
  -8  -6   3  119.49   11.40
  -7  -8  -5  115.09   13.40
  -7  -8  -4  123.89   13.50
  -6  -7 -10   28.90    8.50
  -6  -3   6  631.24   17.80
  -3  -6  -6  297.57   15.60
  -3  -6  -5 1376.66   27.00
  -2  -5  -7  837.42   20.60
  -2  -5  -5  108.49    9.90
  -1  -2 -13  231.88   10.60
   1   7   3   39.20    7.50
   3   7  -9    7.80    6.60
  -7  -7   0  268.47   16.40
  -7  -5   4  152.18   12.90
  -5  -7  -8   -1.10   10.20
  -5  -7  -3  483.55   19.40
  -5  -1   7  250.67   11.10
  -3  -5 -11   -3.50    7.90
  -3  -5  -1   69.29    9.90
  -2  -5  -6 2117.79   30.10
   1   5   2   81.29    8.00
 -10  -6   2   29.80    9.80
  -9  -7   0   37.00   11.00
  -8  -7   0   44.50   11.20
  -4  -6 -10   16.80    6.90
  -3  -4 -13   10.60    6.40
  -2   6   8  124.69    7.40
   3   7 -10    9.90    6.50
  -9  -6   2   27.30    9.60
  -7  -6   2  229.58   14.60
  -6  -7  -2  454.05   20.60
  -5  -7  -7  479.65   18.60
  -5  -7  -6  222.18   13.70
  -5  -7  -5   25.40   10.10
  -5  -6 -11   41.80    9.30
  -5  -6   0   67.99   11.20
  -5  -5 -13   33.30    8.90
  -5  -3   5  651.33   16.50
  -5  -2   6 1646.24   23.50
  -5   2   9  131.79    4.70
  -4  -6  -2  312.07   15.90
  -1   7   7  531.75   14.30
   2   3  -4 1829.42   19.20
 -10  -4   5   22.50    9.00
  -9  -7  -1  329.37   18.00
  -8  -7  -1   -3.10   10.60
  -7  -4   5  474.25   17.50
  -7  -1   8  287.47   12.20
  -6  -7  -8    5.20    9.60
  -6  -6   1  309.67   16.40
  -6   1   9  893.51   13.80
  -5  -5   2   13.40    8.40
  -4  -5 -12   13.30    7.30
  -4  -1   6  185.68    8.70
  -2   2   6  255.87    5.00
  -1  -3 -10  387.16   12.90
  -1  -1 -14  347.67   12.40
 -10  -6   1   62.89    9.90
  -9  -7  -2  139.79   14.40
  -9  -4   5   23.20    9.40
  -8  -4   5  411.56   17.20
  -8   0   9    1.90    5.90
  -7  -7  -2  145.09   13.60
  -7  -3   6  845.92   21.30
  -7   2  10   37.30    5.20
  -6  -7  -7    9.50    9.40
  -6  -6 -11   86.79   10.50
  -3  -5 -10   -9.20    7.00
   0  -2  -6   60.19    6.50
   2   6   0  163.28   10.70
   3   6  -8  150.08    9.50
   3   6  -7  223.28   10.20
 -10  -5   3   -2.90    9.90
 -10  -3   6    7.30    8.10
 -10  -2   7   -7.40    8.20
 -10  -1   8    0.80    7.10
  -9  -7  -4  237.58   16.50
  -9  -7  -3   23.30   10.00
  -9   0   9  184.68   10.30
  -8  -7  -7   -0.50    9.90
  -8  -7  -2    4.40    9.40
  -7  -7  -7   83.39   12.20
  -7  -6   1   19.30   11.70
  -7  -2   7   33.30    8.70
  -6  -7  -6   -7.00    9.10
  -6  -7  -5  105.39   12.40
  -5  -6 -10    5.60    6.50
  -4  -6  -8  248.28   13.80
  -4  -6  -3  630.94   19.80
  -3  -5  -2   -1.20    8.40
  -2  -4 -10  657.43   17.40
   0   0 -13   -0.30    5.10
   0   4   4   56.89    7.40
   1   6   3  634.54   17.10
   3   6  -9    1.60    5.90
  -9  -5   3  155.98   12.90
  -9  -3   6   37.60    8.60
  -8  -7  -6   37.70   11.40
  -8  -7  -5   33.80   11.40
  -8  -7  -4  186.58   14.70
  -8  -6   1  115.29   12.70
  -8  -3   6   12.60    8.50
  -7  -7  -6   26.50   10.40
  -7  -7  -5   10.60   11.70
  -7  -7  -4   25.30   10.70
  -7  -7  -3   27.40   10.00
  -5  -6  -1  180.28   14.30
  -5  -5 -12   10.10    8.40
  -4  -6  -7  898.21   23.20
  -4  -6  -4  429.36   17.40
  -4  -5 -11   20.10    8.40
  -3  -5  -9   53.89    9.80
  -3  -4 -12    4.10    6.90
  -1  -2 -12  386.26   12.40
  -9  -2   7   19.50    8.60
  -8  -5   3   -0.70   10.20
  -8  -2   7  118.29   11.80
  -8  -1   8  164.68   11.80
  -6  -6 -10  105.09   10.60
  -6  -6   0  370.06   17.20
  -4  -6  -5  150.18   13.00
  -4  -4 -13    0.90    7.20
  -4  -4   2  813.32   19.30
  -3   8  10  177.48    8.10
   1   0  -8    0.20    3.30
   1   1  -2  298.97    5.90
   3   6  -5 1624.04   24.30
 -10  -5   2  408.66   18.90
 -10  -4   4   -1.60    8.60
  -9  -6   0   73.99   11.70
  -6  -5   2  149.19   12.10
  -5  -6  -2   15.70   11.60
  -5  -4   3  105.59    9.80
  -2  -4  -9  868.01   19.30
  -2  -1 -15   -1.00    5.80
  -2   8   9  161.18    8.90
  -1   6   7  141.29    8.90
  -7  -6  -9  107.39   13.30
  -7  -6   0 1213.38   28.80
  -5  -5   1 1987.20   32.10
  -4  -5 -10   41.40    8.70
  -3  -4   0  354.16   14.00
  -3  -3   2  115.09    8.80
  -3   5   9  217.18    6.90
  -1  -3  -4  848.42   16.20
   1   3   1  192.38    9.00
 -10  -3   5   26.30   10.00
  -9  -6  -1   -4.70    9.90
  -9  -4   4   -8.40    9.30
  -6   0   8   59.59    7.80
  -5  -6  -7   36.30    9.50
  -5  -6  -3   97.89   12.90
  -5  -5 -11    2.00    6.60
  -5  -4 -13  315.27   15.00
  -4  -3 -14    9.10    7.00
  -3  -5  -7   62.59    9.80
  -3  -4 -11  288.27   13.90
  -3  -3 -13    0.80    6.10
   0   1 -14   64.49    5.90
   0   7   6  396.06   13.90
   2   3  -3 1830.72   19.60
 -10  -5   1   53.69    9.70
  -9  -6  -2   54.99   11.90
  -8  -6  -1  -13.70   10.50
  -8  -4   4  243.68   13.90
  -7  -6  -8  140.99   12.70
  -7  -6  -1  322.97   17.50
  -7  -5   2   64.39   10.60
  -6  -6  -8   80.39   11.20
  -6  -6  -2  488.85   19.70
  -5  -6  -6  475.75   18.60
  -5  -6  -4   19.20   10.60
  -4  -4 -12  198.88   12.50
  -3  -5  -6   -6.60    7.80
  -2  -4  -4  282.27   12.10
  -2   5   8 1695.23   19.50
   0   5   5  361.66   12.10
   2   5   0 4789.12   40.70
 -10  -4   3  365.26   18.10
 -10  -2   6  156.68   12.20
  -9  -6  -4  180.98   15.60
  -9  -6  -3  198.88   16.00
  -8  -6  -7    2.90   10.40
  -6  -6  -7   27.00    9.40
  -6  -2   6   63.79    9.10
  -6  -1   7    7.60    8.10
  -6   3  10   18.90    3.40
  -2  -4  -7  706.53   17.40
  -2  -2 -13  167.68   10.90
  -1  -3  -6 2120.39   25.30
  -1  -3  -5  475.45   12.60
  -1  -2 -11   10.30    6.90
  -1  -1 -13   52.39    6.70
   1   5   3  424.56   13.50
   2   6   1 2208.68   30.80
   3   5  -7  747.73   14.40
 -10  -1   7  214.18   13.10
 -10   0   8    6.30    7.50
  -9  -3   5   69.89    9.90
  -8  -6  -6    4.10    9.90
  -8  -6  -3   49.80   11.40
  -7  -6  -7    3.20    8.70
  -7  -6  -2   13.10    9.70
  -7  -3   5   32.90    9.70
  -7   1   9   -2.40    6.60
  -6  -6  -6  167.68   13.50
  -6  -6  -4   22.10    9.40
  -6  -5   1   52.79   10.70
  -5  -5 -10   -3.20    7.30
  -5  -5   0   53.59   10.60
  -2  -4  -5 1455.95   23.80
  -2  -1   3   24.00    5.50
  -1  -2  -1   22.10    7.00
   1   1 -11    8.10    3.40
   2   4  -1  620.94   13.50
   3   5  -8   -1.70    4.80
   3   5  -6  267.87   10.00
  -8  -6  -4  119.69   12.30
  -8  -5   1   76.69   12.60
  -8  -3   5  190.78   12.90
  -7  -6  -6   26.90   10.60
  -7  -6  -4   37.70   11.30
  -7  -6  -3    4.70    9.30
  -7  -5   1  812.02   24.10
  -6  -6  -5   29.60   10.30
  -6  -5 -10   14.00    7.50
  -4  -4   1 2217.68   30.70
  -3  -4 -10   -4.90    6.50
  -3  -4  -1    5.40    8.30
  -2   7   9  136.49    7.90
   0  -1 -10    9.50    5.50
   3   6 -11    6.00    4.10
   3   6  -3  432.86   13.40
 -10  -4   2   91.09   11.70
 -10  -3   4   -9.30    9.70
  -9  -5   0  -17.00   10.70
  -9  -2   6    3.40    7.60
  -9   1   9  168.48   10.00
  -8   1   9  640.04   15.70
  -5  -4   2 1933.11   30.00
  -4  -3 -13   61.49    9.00
  -4   5  10  882.01    9.30
  -3  -3 -12    9.40    6.90
   2   2  -7  259.07    4.90
   2   2  -6  248.38    5.60
   3   5  -9  203.78    7.80
   3   5  -5  270.27    9.80
  -9  -1   7   29.80    9.10
  -9   0   8   -6.40    8.00
  -8  -4   3  212.68   14.10
  -8  -2   6   13.30    9.30
  -7   0   8    7.00    7.60
  -6  -5   0  212.48   14.20
  -5  -5  -1   14.00   10.00
  -4  -5  -3  293.47   15.00
  -3  -2   3 1650.73   20.80
  -2  -1 -14   59.59    7.90
  -1   0 -14    1.90    6.00
   0   0 -12  151.58    8.10
   1   6   4   15.40    6.30
 -10  -4   1   37.80   10.40
  -9  -5  -1   87.89   12.90
  -8  -5  -8  190.88   15.30
  -8  -5   0  572.74   22.10
  -8  -1   7  259.57   14.40
  -7  -5   0   18.70    9.90
  -7  -1   7   81.49   10.20
  -5  -5  -8    1.20    9.20
  -5  -3 -13   89.19   10.80
  -5   1   8  224.78    8.00
  -4  -5  -5   38.00    9.70
  -4  -5  -4   67.49   11.00
  -3  -4  -9  246.28   12.70
  -2  -3 -10  395.96   13.70
  -2  -3  -1 4165.98   34.80
  -1   7   8   19.00    6.80
 -10  -2   5   49.90    8.90
  -9  -5  -5   26.90   11.50
  -9  -5  -2    6.70    9.90
  -9  -4   2  176.58   13.50
  -9  -3   4   55.09   10.10
  -8   0   8  597.34   17.20
  -7  -5  -8    0.00   11.00
  -6  -4 -11   58.59    9.80
  -3  -4  -2  468.15   15.30
  -3  -3   1   89.89    8.50
  -1  -2 -10  130.79    8.40
  -1   5   7 2876.41   28.40
   2   3  -2 3103.79   25.90
   3   6  -2   -5.80    5.40
  -9  -5  -4   44.20   12.20
  -9  -5  -3    3.80   10.10
  -8  -5  -7   39.90   11.60
  -8  -5  -1   86.09   12.80
  -6  -5  -8   43.10   10.30
  -6  -4   2   31.40   10.30
  -5  -5  -2   98.39   10.30
  -5  -1   6  280.07   10.80
  -4  -4 -10   62.29    8.70
  -2   0 -15    5.70    6.50
  -2   3   7  648.64    9.60
 -10  -1   6   49.80    9.80
  -8  -5  -6  158.78   15.60
  -8  -5  -2   13.80   11.00
  -8  -3   4  459.75   18.10
  -7  -5  -7   21.30   10.70
  -7  -4   2   36.20   10.40
  -7  -3   4 1208.68   25.60
  -5  -5  -6    2.30    8.90
  -5  -4   1   59.49   10.10
  -5   0   7  133.19    8.50
  -4  -3 -12  256.07   13.20
  -3  -3 -11  421.66   15.10
  -3  -2 -13    0.50    5.70
  -2  -3  -9  814.32   18.40
   2   2  -8 1040.90    7.40
   2   6   2  179.58   10.80
   3   5 -10    6.80    4.20
 -10  -4  -1   48.70   11.70
 -10   0   7   -1.60    7.80
  -9  -2   5   26.30    9.70
  -8  -5  -5   -1.20   10.30
  -8  -5  -3   85.29   12.90
  -7  -5  -6   21.50   10.20
  -7  -5  -2   72.79   13.20
  -5  -5  -4    7.50   10.20
  -5  -4 -10   12.60    8.00
  -3  -4  -3   30.80    8.70
  -2  -2   1  190.78    7.90
   2   4   0  623.94   14.10
 -10  -3   2   44.30    9.60
 -10  -2   4   41.10   10.60
 -10   1   8    3.20    8.10
  -9  -3   3    3.90    8.00
  -7  -5  -4    3.70    9.80
  -7  -5  -3  141.09   15.00
  -6  -4 -10   61.59    9.40
  -6  -3 -12  279.37   15.60
  -6  -2   5 1300.17   24.00
  -5  -3 -12  481.25   18.10
  -3  -4  -4   91.29    9.60
   3   5  -3    2.70    4.50
  -9  -4   0   18.70   11.10
  -8  -4   1  453.25   19.10
  -8  -2   5   88.79   12.70
  -6  -4   1   96.29   11.90
  -4  -2 -13   -8.30    7.30
  -3  -4  -5  120.69   10.10
  -2   6   9  279.77    9.90
   0   4   5  699.53   16.00
   1   4   3 1098.29   19.30
   3   6 -12   43.40    4.30
   3   6  -1   42.00    6.60
  -9  -4  -1   32.10   10.60
  -9  -1   6    6.70    8.10
  -8  -4  -8  168.08   15.70
  -8  -3   3    4.60   10.90
  -7  -4  -9  109.59   12.70
  -7  -4   1  697.23   21.80
  -7  -2   5 1216.08   25.10
  -5  -4   0   10.80    9.70
  -3  -1   4 1510.25   17.80
  -2  -1 -13   19.30    6.90
   0   1 -13    5.90    5.00
   1   5   4   46.50    6.90
  -9  -4  -5    3.70   11.10
  -9  -4  -4  104.79   14.80
  -9  -4  -2   35.00   11.70
  -9   0   7   25.20    8.80
  -9   2   9   -3.70    6.80
  -8  -4   0  550.14   21.40
  -6  -1   6  369.36   14.50
  -6   2   9    1.90    5.20
  -5  -2 -13  130.59   11.10
  -3  -2 -12  287.37   12.70
  -2   8  10   24.20    6.10
   2   2  -4 1284.47   13.90
 -10  -2   3    0.20   11.10
 -10  -1   5   21.30    8.10
  -9  -4  -3   23.10   10.80
  -9  -3   2   47.50    9.40
  -9  -2   4  116.79   12.50
  -9   1   8   58.69    9.20
  -8  -4  -7   11.90   10.60
  -8  -1   6   76.89   10.80
  -7  -4  -8  161.88   14.10
  -7  -4   0  721.13   23.80
  -6  -3 -11   67.69   10.10
  -5  -3 -11   51.09    9.10
  -5   4  10  185.48    3.70
  -4  -4  -7  667.53   19.80
  -3   6  10    1.20    4.30
  -2  -3  -7 1466.15   23.10
  -2   0   4  797.72    8.60
  -1   0 -13  334.67   11.50
  -1   6   8 2491.15   28.30
   0  -1  -8    9.20    4.80
   0   0 -11   -7.00    5.30
   3   4  -7  570.54   11.10
   3   5  -2   15.30    5.20
  -8  -4  -6  192.18   16.30
  -8  -4  -1   -3.30   10.50
  -7  -1   6  122.69   11.30
  -6  -4  -8    5.60    8.30
  -5  -4  -1  156.78   13.10
  -4  -4  -6   76.19   11.60
  -4   2   8  257.47    5.60
  -2  -3  -6 1492.45   23.70
  -2   0 -14  278.07   12.00
  -1  -1 -11   15.50    5.90
   1   6   5   59.59    7.90
   2   3  -1 1110.49   17.00
   3   4  -5   19.50    5.10
 -10  -3  -2   11.70   10.80
 -10   0   6   39.30    8.90
  -8  -4  -5  668.93   24.40
  -8  -4  -4  183.98   15.50
  -8  -4  -3   69.89   11.70
  -8  -4  -2   18.20   11.00
  -8   0   7   -0.50    8.60
  -8   2   9  173.88    9.20
  -7  -4  -7  202.08   15.40
  -7  -4  -1  122.99   12.90
  -6   0   7    9.90    7.80
  -6   1   8   11.90    6.60
  -5  -4  -7  133.99   11.70
  -4  -4  -5   70.09   10.50
  -4  -4  -3  426.46   15.80
  -4  -3 -10  286.97   14.20
  -4   0   6  781.52   13.30
  -3   8  11  127.09    7.20
  -2  -3  -5 2509.75   29.40
   3   4  -8   51.19    4.70
 -10  -2   2    7.50    7.90
 -10   1   7  202.98   13.00
  -8  -2   4   -0.40    9.70
  -8   1   8  185.48   11.00
  -7  -4  -6  145.19   14.60
  -7   0   7   -2.80    8.50
  -7   2   9  152.88    8.80
  -6  -4  -7  117.79   12.20
  -6  -4  -1   89.69   12.60
  -6  -2 -12   38.00   11.10
  -5  -4  -2   68.99   11.70
  -4  -2 -12  163.48   11.20
  -3  -2   2 1196.48   18.60
  -3  -1 -13   80.49    8.20
  -2   1 -15   -4.30    6.10
   4   7  -9    9.80    5.40
 -10  -1   4   85.99   11.10
  -9  -3   0   28.50   11.10
  -9  -2   3  383.76   17.30
  -9  -1   5   67.79   10.20
  -7  -4  -5  521.45   21.30
  -7  -4  -4   77.39   11.70
  -7  -4  -3   96.09   12.60
  -7  -4  -2   34.70   10.50
  -7  -3   2  205.28   14.10
  -7   1   8  275.47   11.50
  -6  -4  -6   27.00   11.10
  -6  -4  -2  101.29   12.30
  -6  -3   2   58.69   10.50
  -5  -4  -6  595.74   19.80
  -5  -2 -12    1.60    7.90
  -4  -2   3 1601.24   22.90
  -3  -2 -11  289.77   13.80
   1   1 -10   35.90    3.70
   2   4   1 2472.55   28.40
 -10  -2   1   20.50   10.10
  -9  -3  -6    8.50   10.20
  -9  -3  -1  456.05   20.90
  -8  -3  -8   28.70   10.70
  -8  -3   1  326.97   16.40
  -7  -3  -9   73.29   11.70
  -7  -2   4   29.90    8.80
  -6  -4  -5    1.60   10.80
  -6  -4  -4   57.29   10.90
  -6  -4  -3  386.66   17.70
  -5  -4  -5  505.65   18.80
  -5  -4  -4  421.36   17.50
  -5  -4  -3 1918.31   32.70
  -4   1   7  139.39    6.40
  -2  -2   0  784.02   14.90
   1   2   1   28.40    4.70
  -9  -3  -5   61.89   12.40
  -9  -3  -4    5.40   11.00
  -9  -3  -3    9.40   12.00
  -9  -3  -2    6.10    8.80
  -8  -3  -7  144.39   15.80
  -6  -3  -9   11.70   10.50
  -4  -1 -13   16.70    8.10
  -1  -2  -5 3492.75   29.10
  -1  -2  -4 2858.31   25.60
   0  -1  -4 2902.81   19.10
   3   5  -1  442.76   13.10
 -10  -1   3  127.49   13.70
 -10   0   5    3.90    8.00
  -9  -2   2    0.20    8.90
  -9   0   6   -0.90    7.30
  -8  -1   5   48.20   10.20
  -7  -3  -8   46.00   10.70
  -7  -3   1  286.17   14.90
  -6  -2 -11   23.40    7.80
  -5  -1 -13   18.30    7.90
  -4  -3   0  208.38   11.90
  -4  -2 -11  176.68   11.90
  -3  -3  -7   -3.50    6.40
  -1  -1 -10  750.02   15.20
  -1   4   7   45.70    6.00
  -1   7   9  478.45   13.90
   0  -1  -6  586.44   10.40
   3   4  -9  384.26    8.10
   4   7 -10  162.88    8.00
 -10  -2  -1  175.18   15.60
  -9   1   7   33.90    8.90
  -8  -3  -6  184.48   15.50
  -8  -2   3  233.98   13.70
  -6  -3   1   11.90    9.40
  -4  -3  -8   44.50    8.50
  -3  -3  -2   19.80    7.80
  -2  -2  -9    5.70    5.40
  -2   7  10   16.50    5.70
  -1   0 -12   -0.50    5.60
   0  -1  -5  464.45    9.10
   0   1   2  425.46    6.80
   4   6  -7  259.97   10.10
   4   6  -6  265.47   10.30
 -10  -2  -2  337.47   18.70
  -9   2   8  134.29   10.90
  -9   3   9  160.98    9.70
  -8  -3  -5  103.19   12.60
  -8  -2  -9    8.80   10.20
  -7  -3  -7   -3.40    9.10
  -7  -1   5  215.28   12.60
  -6  -3  -8  135.59   12.80
  -5  -3  -8   11.70    8.30
  -5  -2   3   26.10    6.80
  -3  -3  -6   40.90    8.40
  -3  -1 -12  151.38   10.60
  -2   0 -13   13.30    7.30
 -10  -1   2    9.40    7.80
  -8  -3  -3   24.90   11.00
  -8  -3  -2  157.58   13.80
  -8   0   6   80.59   10.50
  -7  -3   0  250.37   14.70
  -6  -1 -12   91.69   12.80
  -6  -1   5  147.79    9.60
  -5  -3   0  181.18   12.70
  -3  -3  -4  286.07   12.50
  -3  -3  -3  230.58   11.60
  -3   4   9  370.76    6.10
   0   0 -10 2519.55   22.00
   0   1 -12   44.80    5.20
   1   4   4  189.48    9.80
   1   5   5   15.30    7.30
   4   6  -8    6.20    4.90
 -10   0   4  282.97   15.60
 -10   2   7   -0.30    8.10
  -9  -2  -6    8.70   10.80
  -8  -2  -8  186.48   15.30
  -7  -3  -1  -11.20    9.10
  -6  -3  -7   81.09   11.60
  -5  -1 -12  193.68   13.30
  -4  -3  -7  186.28   12.10
  -4  -3  -1 1569.44   26.20
  -4  -2 -10   17.80    8.50
  -2  -1   2 1327.17   14.80
  -1  -1   0 2230.78   16.60
   2   5   3  212.48   11.10
   3   5   0   73.29    7.50
 -10  -1   1   19.70    8.80
  -9  -2  -5  168.38   15.40
  -9  -2   0  444.86   20.10
  -9  -1   3   89.09   10.90
  -9   0   5  480.75   17.70
  -8  -1   4   27.90    9.70
  -7  -3  -5    1.40   10.20
  -7  -3  -2   44.20   10.70
  -7  -2  -9   26.90   10.10
  -5  -3  -7  130.19   11.30
  -5  -2 -10   18.80    7.60
  -5   0   6    0.80    6.10
  -4  -1   4  489.65   12.40
   1   3   3  440.66   12.30
   3   4  -2   74.49    6.90
  -9  -2  -3    7.40    9.30
  -8  -2  -7    4.40   11.10
  -8   1   7  254.27   12.70
  -7  -3  -3  272.67   16.40
  -7   0   6   -1.50    8.10
  -6  -3  -6    7.10    9.00
  -6  -3  -1   -6.50   10.20
  -5  -3  -6    4.20    8.20
  -5  -3  -1  476.25   16.60
  -4  -3  -6   67.89    9.50
  -4  -3  -2 1490.55   26.30
  -3   0 -13    4.60    6.10
  -2  -2  -1  895.11   15.10
  -2   2 -15   10.00    7.20
  -2   5   9  242.88    8.10
   4   6  -9  351.26   10.20
   4   7 -11   30.00    4.50
 -10  -1  -1  118.19   14.90
  -8  -2   1    6.20   10.10
  -8   2   8  268.27   12.20
  -7  -2   2   26.90    9.30
  -6  -3  -5   65.89   11.60
  -6  -3  -2  216.18   14.50
  -6  -2  -9  185.88   13.50
  -6   0   6   69.09    8.50
  -5   0 -13   57.29    8.60
  -4  -3  -5  159.58   11.50
  -4  -3  -4   54.19    9.70
  -4  -3  -3 3261.47   38.10
  -4   0 -13   -6.40    7.00
  -1   1 -13   38.80    6.10
   2   2  -2  156.28    7.20
 -10  -1  -3   18.90   10.70
 -10  -1  -2   -7.40   10.60
 -10   0   3   -1.70    8.40
 -10   1   5   32.90    8.80
  -8  -2  -6  -13.00   10.70
  -8  -1  -9  111.19   14.10
  -6  -3  -4  965.90   24.80
  -5  -3  -5  122.29   11.60
  -5  -3  -4  849.81   22.30
  -5  -3  -2 2328.77   34.40
  -3  -1 -11  427.06   15.00
  -2  -2  -7  157.98    8.40
   0   3   5  350.56    9.80
   0  -3   4 4432.56   42.90
   1   9  -4   24.90   10.00
   2  -8   1   74.39    7.70
   2  14  -4  145.59   16.50
   4   3 -10  461.65   24.10
   4   4 -10  690.03   28.10
   4   6 -10  -10.80   15.80
   5 -12  -1   29.90    4.80
   8  -6 -11   19.70    7.90
   8  -1 -13   65.59   13.00
   0  -2   2   22.80    6.90
   0   2  -1  220.28    7.80
   1   1  -4 2763.42   32.10
   1  13  -2  744.63   22.10
   1  16   2   30.70    6.80
   3   0  -8   -5.10   10.60
   3  10  -8  313.57   22.20
   4   2 -10   42.40   13.70
   4  12  -9    3.30   17.50
   4  14  -8  189.48   19.70
   4  17  -6   10.80   12.60
   5   1 -11   49.70   13.90
   5   9 -11   43.20   15.10
   6   9 -12   52.59   15.60
   7  -8  -9   23.20    8.00
   7   2 -13  214.48   17.90
   0  -3   6  501.75   17.50
   1  15   0    6.40    7.60
   2   4  -7  100.69   16.10
   2   5  -7  378.96   20.30
   2   6  -7   26.60   14.70
   2  13  -5  556.54   24.10
   3  13  -7   -7.00   13.80
   3  16  -5  418.36   21.20
   3  18  -3   29.70   12.60
   4   9 -10   -5.90   17.20
   4  16  -7   58.99   18.70
   5  10 -11  103.89   18.90
   5  13 -10  -10.60   15.00
   6  -8  -8  117.39    8.80
   6  -3 -11   67.09   11.60
   6  10 -12   40.20   16.40
   7   1 -13   14.00   10.00
   1  12  -3   61.09   12.60
   3  15  -6   83.69   14.30
   4  -8  -5   16.40    4.40
   4  -7  -6  481.15   12.40
   4   1 -10   15.60   12.30
   5  -3 -10    3.40   11.30
   6   0 -12   66.79   11.90
   7  -3 -12  209.28   14.80
   0  13   6   11.90    2.70
   1  -6   4   15.60    7.00
   1   6  -5   65.59   11.90
   2   8  -7  114.79   16.40
   2  18   0   56.19    8.40
   3   4  -9  432.36   23.20
   4  10 -10  177.28   19.20
   4  15  -8   18.50   13.40
   5  11 -11   38.40   15.60
   7   0 -13   68.99   13.60
   0  13   3   65.09    4.10
   1   7  -5   10.50    9.70
   2   2  -7  238.58   16.50
   2  15  -4    1.20   10.00
   2  16  -3   13.10   10.10
   3  -1  -8  954.40   24.80
   3   3  -9   81.49   14.10
   3   8  -9    2.60   15.20
   3  14  -7   18.00   12.20
   6  -7  -9  125.09    9.20
   6  -1 -12    6.10    9.30
   6   5 -13    7.80   14.90
   7  -7 -10    0.20    6.50
   0  11   0   -1.50    7.70
   1  16   1  208.88    9.90
   2  17  -2    4.60    9.40
   3   2  -9    2.50   12.80
   3   9  -9  440.86   24.50
   4  -6  -7  253.37   11.70
   4   0 -10  124.39   13.50
   4  11 -10   85.39   17.20
   5  -1 -11   29.80   12.10
   5   4 -12  117.09   17.10
   5   5 -12  131.99   16.60
   5   6 -12  310.97   21.60
   5   7 -12  352.06   23.60
   5  12 -11   18.00   14.00
   6   4 -13    5.80   12.40
   6   6 -13    2.60   12.90
   6   7 -13  145.09   18.60
   7  -1 -13   18.00   11.00
   0  -2   3   28.00    7.20
   0   5  -2 1107.19   18.80
   0  12   1  179.98    8.40
   1  -5   1 8894.31   42.20
   1   0  -4   -6.40    5.50
   1  11  -4  184.98   13.80
   1  14  -2  289.17   14.30
   2  10  -7  272.37   18.40
   2  14  -5  323.97   18.00
   3  17  -5    7.90   10.10
   3  18  -4  144.39   14.70
   4 -10  -2  153.58    4.60
   4  -3  -9  177.58   13.50
   4  14  -9   15.10   11.80
   5   3 -12   19.10   12.70
   5   8 -12    8.90   14.40
   6  -4 -11   -0.10    8.60
   6   3 -13  241.88   19.00
   6   8 -13  129.69   16.60
   8  -7 -11    1.80    5.50
   0  -2   6   45.90    7.30
   0   7  -2  124.89    8.60
   0  12   8  144.69    7.20
   1  15  -1   92.79    9.60
   2  -8   3   72.99    8.90
   2   1  -7 2407.16   36.40
   3   1  -9  308.57   18.40
   4   4 -11  822.32   29.50
   4   5 -11   27.70   13.80
   4  12 -10   -8.40   11.70
   4  16  -8   15.40   15.90
   5  -8  -7   54.39    6.10
   5   9 -12    1.70   13.40
   6  -2 -12   38.50   10.90
   7  -4 -12   35.80    8.60
   0  10  -1   29.10    7.60
   1   9  -5  214.48   14.60
   2  13  -6  853.61   27.70
   2  18  -1   85.09   10.40
   3  15  -7   10.30   13.70
   4   3 -11  165.18   17.20
   4   8 -11    3.80   13.40
   5  -9  -6  129.59    5.50
   5  -7  -8  176.28    9.40
   5  -4 -10  179.08   12.70
   5  -2 -11   56.79   12.10
   5  10 -12    6.00   13.50
   6  -6 -10   74.39    9.20
   6   1 -13   97.09   11.70
   7  -6 -11    4.30    7.30
   7  -2 -13  203.78   14.30
   7   2 -14   -4.80   10.10
   0   8  -2  831.02   17.80
   1  -3  -2  983.20    8.90
   1  12  -4  274.87   15.10
   2   6  -8  133.59   15.60
   2  16  -4   81.99   11.20
   3  -2  -8  703.73   20.00
   3  11  -9  184.58   18.80
   4   9 -11    5.70   12.60
   4  15  -9   69.89   14.50
   7   1 -14   60.49   11.60
   2   0  -7    5.80    8.80
   2   4  -8  174.88   17.00
   2   7  -8  148.69   16.00
   2   8  -8   10.80   12.20
   2  15  -5   21.20   10.80
   2  17  -3   69.19   10.30
   3   0  -9  949.90   25.20
   4  10 -11   76.29   15.30
   5  11 -12  -16.80   11.80
   6   0 -13    2.50    9.70
   0   3  -2  286.67    9.70
   1  -5   2   74.29    7.70
   2   3  -8  123.19   13.80
   3   4 -10  256.27   19.00
   3   5 -10   22.70   12.10
   3   7 -10    1.70   13.10
   3   8 -10  213.98   18.20
   3  12  -9    6.80   13.50
   3  14  -8   56.79   12.00
   3  17  -6  441.06   21.10
   4   1 -11  154.08   14.20
   5  -6  -9   69.39    8.50
   6  -3 -12   19.10    8.70
   7   0 -14  -11.20   10.60
   0  -1   6  561.64   16.50
   1  -5   5   19.40    7.40
   1   1  -5 2142.99   27.90
   2  -7   0  245.58    7.20
   2  14  -6   16.00   11.40
   2  18  -2   88.49    9.80
   3   3 -10  261.77   17.00
   3   9 -10    9.10   13.80
   3  16  -7    4.20   11.40
   4  -2 -10   44.20   10.30
   4  11 -11   34.10   12.40
   5   5 -13    5.00   10.80
   5   6 -13  213.88   18.00
   5   7 -13   43.50   15.80
   6   5 -14   34.00   12.40
   6   6 -14   21.10   12.70
   7  -3 -13  113.09   10.50
   0  10   9   15.60    5.00
   0  12   0  845.22   14.80
   1  -5   3  440.46   12.60
   1  -5   4   41.10    6.90
   1   5  -6   25.50    9.60
   1   7  -6   54.79   11.40
   1  15  -2   98.59   10.80
   2   2  -8 1112.29   26.70
   5  -3 -11  264.07   15.40
   5   4 -13    8.50   11.60
   5   8 -13  217.98   18.40
   6  -1 -13   96.59   12.90
   6   4 -14  161.48   15.90
   7  -8 -10   -5.00    5.80
   0   0   7    6.70    6.30
   0  12   7   -3.40    3.70
   0  13   5    4.10    1.60
   1   4  -6   13.00    8.80
   1   8  -6  139.59   12.90
   2  13  -7   18.80   11.50
   3   2 -10    6.30   11.20
   3  10 -10   45.00   13.90
   3  15  -8   -0.40   10.20
   4   0 -11    2.80    9.70
   4   5 -12  587.84   24.00
   4   6 -12   73.39   13.60
   4   7 -12  117.69   15.20
   5  -1 -12   42.10   11.00
   5   3 -13   79.99   12.90
   5   9 -13  109.09   15.00
   7  -1 -14   59.29   10.60
   0  -1   2  426.46    8.60
   0  -1   5  457.75   13.00
   0  11   8   53.59    5.30
   1  16  -1   37.70    7.50
   2  -1  -7 2802.02   34.30
   2  16  -5   42.60    9.60
   2  17  -4   14.20    9.10
   4   4 -12  261.37   18.10
   5   2 -13    6.30    9.80
   5  10 -13   10.40   12.60
   6  -8  -9   11.80    5.40
   7  -7 -11   -3.20    6.50
   0  -1   4 3157.78   29.50
   0   6  -3  837.82   17.30
   1  12  -5   57.09   10.70
   1  17   1   26.00    5.40
   2   1  -8 1037.30   24.40
   2  15  -6  111.69   11.80
   3  -9   1  797.12   14.40
   3   1 -10  393.86   18.20
   3  11 -10   23.60   11.30
   4   3 -12   39.70   12.00
   4   9 -12   12.00   11.80
   6  -7 -10  143.59    9.40
   6  -4 -12   45.80    8.10
   6  -2 -13   59.79   10.00
   6   1 -14   13.90    9.10
   0  -1   3  279.77    8.40
   2  -7   1  484.85   11.00
   2   7  -9  143.49   15.60
   2  18  -3   32.30    8.40
   3  -9   2  178.18    8.90
   3  -9   3  386.96   13.10
   3  14  -9   87.39   11.70
   3  17  -7   37.40   10.60
   4  -3 -10  441.16   16.30
   4  10 -12   51.59   11.80
   7  -2 -14    6.50    8.00
   0   0   6  109.09    8.70
   0   2  -2   30.10    6.00
   1   0  -5   16.60    7.30
   2  14  -7   -5.30    9.30
   3   5 -11  245.48   17.00
   3   6 -11   11.10   12.70
   3   7 -11   26.80   12.60
   3  12 -10   12.40   11.50
   4   2 -12  137.09   13.50
   4  11 -12  233.38   18.20
   5  -4 -11   23.50    9.00
   5  -2 -12   29.20    7.90
   7  -6 -12   11.60    6.00
   0   4  -3   39.80    7.40
   1  13  -5  803.22   22.00
   2   9  -9   -2.30   10.20
   3   0 -10    2.80    9.30
   3   9 -11  353.96   19.70
   5   0 -13  106.19   11.60
   5   6 -14  134.99   16.10
   6  -6 -11    8.00    6.60
   6   0 -14   39.80    8.30
   0  13   0   -1.60    5.60
   1  17   0    9.80    5.30
   2   0  -8 4010.00   43.40
   2   3  -9   59.09   11.90
   2  10  -9   47.70   12.20
   2  13  -8   12.90    9.80
   2  16  -6   43.90    9.50
   2  17  -5  531.15   18.50
   3   3 -11  124.39   13.10
   3  15  -9  301.77   19.10
   4 -10  -1   37.20    3.80
   4  12 -12   52.89   12.50
   5   4 -14  113.39   14.70
   5   5 -14   32.10   11.90
   5   8 -14  340.57   20.30
   6  -3 -13  270.07   13.60
   0   0   5   -4.00    5.30
   2  15  -7   32.00   10.80
   2  18  -4   96.19    9.90
   4  -2 -11   -6.50    7.60
   4   6 -13    6.30   10.50
   5  -7  -9   15.20    6.00
   5   3 -14   60.49   13.10
   6  -1 -14   26.20    9.20
   7  -3 -14  429.46   16.30
   0   3  -3  731.53   14.30
   1  -4   0 2993.60   16.00
   1   4  -7   45.10   10.50
   1   9  -7   20.50    9.60
   2   2  -9   23.50   11.10
   2  11  -9   46.60   10.90
   3   2 -11  900.01   25.30
   3  11 -11    7.50   11.00
   4   4 -13   16.20    9.50
   4   5 -13   24.00   10.50
   4   8 -13    7.40   10.80
   4   9 -13    3.40   11.00
   5  -8  -8  279.97    8.80
   5  -6 -10  446.76   14.00
   5  -3 -12   13.30    7.80
   5  -1 -13   59.69    9.10
   6   2 -15  253.67   15.40
   0   2   7  135.69    8.80
   0   9   8   10.30    4.40
   0  11   7    8.30    3.50
   1  14  -5  370.06   16.10
   1  15  -4   41.80    8.60
   2  14  -8   46.20   10.20
   3  -1 -10  391.46   16.10
   3  16  -9   35.50   12.40
   4  -4 -10  662.03   18.00
   0   5   8  475.25   13.40
   0   7  -4 1388.46   22.90
   0  12   6   52.09    3.50
   1   3  -7   22.50    8.70
   1  16  -3   15.90    8.40
   2   6 -10  310.17   18.30
   3  12 -11   67.39   13.60
   4   3 -13   13.80    9.30
   4  11 -13    3.70   12.20
   6   1 -15   25.30    8.00
   0   0   4  163.58    8.00
   0   5  -4    8.50    6.80
   0   6   8  378.16   11.40
   0   7   8   -0.60    5.60
   0   8   8   21.10    5.20
   0  11  -3   47.70    8.00
   0  14   2   33.30    3.50
   1  -4   3 1119.79   17.70
   1  13  -6   42.40   10.20
   2  -1  -8  979.10   21.00
   2   1  -9  506.45   18.00
   2  16  -7   13.50    8.90
   2  17  -6   44.40    8.80
   3   1 -11  428.56   18.00
   3   5 -12   97.49   13.00
   3   6 -12   41.80   12.60
   3   7 -12    4.50   11.20
   3  15 -10    8.20    9.60
   4 -10   1  139.89    7.30
   6  -4 -13   13.00    6.70
   6  -2 -14  212.68   12.80
   1  17  -2   61.19    8.40
   2  10 -10  148.39   13.80
   2  13  -9   35.80    9.40
   2  18  -5   33.30    8.70
   3  -8  -2  787.32    7.10
   3   4 -12    3.40    9.70
   3   9 -12  166.38   15.10
   4  -1 -12  247.58   14.40
   5  -2 -13    2.10    7.10
   5   6 -15    8.00    9.60
   6   0 -15    8.60    9.50
   7  -7 -12    0.70    4.50
   0   4  -4   50.39    7.50
   1  -4   1  132.09    6.00
   1  -4   2 1990.70   20.60
   1   2  -7   18.80    8.30
   1   7  -8   18.20   10.30
   1   8  -8   51.99   10.50
   1  15  -5  112.29   10.00
   2   3 -10   65.49   11.40
   3  10 -12   -6.40    9.40
   5 -11   0  496.75   11.10
   5  -4 -12  149.79   10.30
   5   0 -14    1.90    7.60
   5   5 -15    4.40    9.60
   6  -7 -11   62.59    7.20
   0   0   3    3.90    4.80
   0   1   5  486.65   12.70
   0   2  -3   29.70    6.90
   0   2   6   50.69    6.00
   0  10   7  135.29    5.90
   0  12  -3    7.10    8.00
   0  14   0    9.50    5.00
   1   5  -8  157.88   12.50
   1  14  -6    0.70    8.90
   2  -6   4  417.16   13.70
   2  11 -10   47.60   11.00
   3   0 -11 1084.59   25.50
   3   3 -12  351.66   17.20
   3  11 -12   83.39   13.20
   3  14 -11   25.40    9.70
   4   6 -14   15.50    9.50
   4   7 -14    2.70   10.20
   5  -9  -7  447.06    8.10
   5   4 -15    5.00    9.10
   6  -8 -10   75.59    5.90
   7  -6 -13    9.20    5.40
   0   1  -2  438.76    8.60
   1   4  -8 2368.96   34.20
   1  10  -8  194.28   13.50
   2   0  -9   10.00    8.20
   2  14  -9  520.55   20.40
   3  -8   3  237.88   10.30
   4   9 -14   30.70   10.40
   6  -6 -12   84.39    8.20
   6  -3 -14   51.69    8.20
   6  -1 -15    9.70    8.90
   0   6  -5  640.34   16.60
   0   7  -5   -0.10    6.60
   0  11  -4    6.50    7.40
   1  13  -7  197.68   12.60
   2   2 -10    3.00    9.40
   2  16  -8   59.19   10.20
   2  17  -7   83.39    9.80
   3   2 -12  336.77   17.10
   3  12 -12  172.08   15.80
   4  -2 -12  151.08   11.80
   5  -1 -14   35.50    9.60
   0   0   2 2628.94   17.40
   0   3  -4 4457.75   34.90
   0   5   7  815.32   15.10
   0   9  -5   34.60    7.70
   0   9   7   14.60    3.70
   1  -2   6 1484.45   26.50
   1   1  -7  244.58   11.70
   1   3  -8   13.20    8.90
   2  -6   3  312.07   11.80
   2  -2  -8 1110.39   21.30
   2   8 -11  819.42   25.30
   3   7 -13   44.80   10.90
   4   3 -14   62.09   11.50
   5  -3 -13   56.59    7.80
   0   3   6  504.15   12.20
   0   5  -5  367.46   12.10
   0  13  -3   73.19    8.60
   1  15  -6  108.39   10.40
   2   5 -11   30.50   10.50
   2  10 -11  117.99   12.70
   2  15  -9   53.69   11.30
   3   5 -13   49.60   10.80
   3   6 -13  102.69   12.50
   3   8 -13  138.79   14.40
   3   9 -13   91.59   13.40
   4  -4 -11  821.52   20.00
   5  -6 -11  247.48   11.40
   5   1 -15  170.58   12.50
   0   1   4 3178.08   26.60
   0   7   7  238.68    8.20
   0  11   6    0.30    2.90
   0  12  -4   57.59    8.60
   1  -3  -3  162.98    5.60
   1   6  -9    4.50    9.20
   1   7  -9  485.45   19.00
   1   8  -9   16.60    9.30
   1  14  -7   24.30    9.30
   1  17  -4  125.89    9.60
   2  -1  -9  507.25   16.30
   2   1 -10  245.08   13.90
   2  11 -11   58.89   12.30
   3  -7  -5   95.49    4.40
   3  -5  -8    2.90    6.00
   3  10 -13    1.40   11.30
   4  -7  -8  170.08    7.70
   4   2 -14  115.09   13.00
   5  -7 -10   94.09    7.10
   6  -2 -15  199.98   12.00
   0   2   5 2653.53   26.40
   0   4  -5  557.74   15.00
   0  14  -2   39.40    6.60
   1   9  -9   12.40    9.80
   1  18  -2    7.50    6.70
   2   3 -11   19.30    9.50
   2  14 -10    8.90    7.90
   2  17  -8    7.60    8.60
   3  -8  -1  395.96    7.10
   3  -8   1  286.47    9.00
   3  -3 -10  248.78   12.90
   4  -1 -13    7.90    7.20
   5  -2 -14  189.88   12.40
   6  -4 -14  144.69    9.90
   1  -1  -6    5.30    6.20
   1  10  -9  186.68   14.00
   1  13  -8   97.59   10.10
   2  12 -11   17.70   10.20
   3   0 -12    2.70    8.30
   3  12 -13   17.20   11.90
   4  -3 -12   37.30    9.50
   4   5 -15    8.50    9.30
   4   6 -15   22.80   10.60
   5   0 -15  197.28   12.90
   0   2  -4  411.46   11.30
   0   9  -6 1275.87   24.50
   1  -2  -5 2561.74   24.60
   1   0  -7   45.30    7.50
   1  11  -9  302.87   15.60
   1  16  -6  -10.10    6.60
   2   0 -10  125.59   11.30
   4   4 -15   94.79   11.60
   5  -4 -13   11.50    6.70
   0   5  -6  181.38   11.00
   0  14  -3  554.44   14.60
   0  15   0   -1.10    4.60
   1  15  -7   17.60    7.30
   1  17  -5   34.90    7.80
   1  18  -3    2.30    5.90
   2   6 -12  105.29   13.20
   2   7 -12  559.44   21.70
   2   9 -12  397.46   19.80
   2  15 -10  179.08   14.40
   3   2 -13   79.79   10.80
   6  -7 -12    4.80    6.20
   6  -3 -15   78.79    9.30
   0  15  -1   78.19    6.40
   0  15   1   74.89    4.70
   1  -3   3  431.66   11.00
   1  -1   6  918.81   19.00
   1   1  -8  187.28   11.70
   1  14  -8  127.89   12.30
   2  -5   4   71.29    7.40
   2  10 -12   80.59   12.10
   3   6 -14   54.49   11.50
   3   7 -14  232.68   16.20
   3   8 -14    1.40   10.20
   3   9 -14   32.40   11.60
   4  -2 -13  170.78   10.90
   4   0 -14   71.79    9.00
   4   3 -15  194.08   14.90
   5  -1 -15  160.08   11.60
   0  10   6  434.66    8.20
   0  11  -6    7.10    8.10
   0  12   5  104.39    3.60
   1   6 -10  445.26   18.10
   1   7 -10   72.09   11.10
   1   8 -10   24.00    9.90
   2  -2  -9   -1.90    7.20
   2   4 -12  257.57   15.40
   2  11 -12    3.00    9.50
   2  14 -11   17.20    8.20
   3   1 -13  307.17   16.00
   3   5 -14   63.99   11.10
   3  10 -14   25.40   10.70
   5  -3 -14   50.49    8.20
   6  -8 -11    2.30    4.40
   0   1   3  286.67    8.00
   0  13  -5    2.20    8.40
   0  15  -2  279.87   10.00
   1   5 -10   11.90    9.60
   1  10 -10   73.69   11.70
   1  13  -9   13.30    8.00
   1  16  -7   27.10    7.90
   1  18  -4   83.69    8.50
   2   1 -11   -1.00    8.40
   2  12 -12    2.20   10.80
   4  -8  -7  150.68    6.00
   4  -6 -10   18.60    6.40
   5   1 -16   29.20    7.60
   0   2   4  426.36   11.20
   0   6  -7  610.44   18.00
   0   6   6  262.97    8.30
   0   7  -7  255.37   13.10
   0   8  -7  288.57   14.10
   0   9   6 1096.79   13.40
   0  12  -6   33.40    9.00
   1  11 -10   85.09   12.10
   1  15  -8   26.10    8.60
   1  17  -6   35.40    7.20
   2  -1 -10  252.27   13.20
   2   3 -12  548.25   20.40
   3  -4 -10  269.97   12.10
   3   3 -14   -4.10    8.10
   4  -4 -12  219.98   12.30
   4  -1 -14  144.09   11.10
   0  10  -7  119.99   11.60
   0  15  -3   41.20    7.20
   1   4 -10   92.19   11.50
   1  14  -9   16.10    8.10
   3  -7   3 1308.87   21.40
   4  -3 -13   -0.30    7.60
   5  -7 -11   78.19    7.30
   5  -6 -12  292.87   11.80
   5  -2 -15  116.19   10.20
   5   0 -16    0.70    8.90
   0   1  -4 2882.61   26.50
   0   3  -6  503.35   14.10
   0   7   6  374.66    8.80
   0  15   2  268.27    5.20
   1  -3   2  496.25   10.90
   1  -2   4 2924.61   29.70
   1   0  -8    6.00    8.10
   1  18  -5   20.00    7.10
   2   0 -11    5.10    9.10
   2   2 -12   47.80   11.00
   2   7 -13  292.67   17.20
   2   8 -13  321.67   17.70
   2   9 -13    0.60   10.60
   2  10 -13  117.09   14.50
   4  -7  -9    7.20    5.40
   5  -9  -8   -1.30    3.00
   0  13  -6   21.30    9.20
   0  14  -5   72.39    9.10
   1  -2  -6   67.79    7.00
   1   0   6   -1.40    5.90
   1   1  -9   63.79    9.40
   1   3 -10   45.10   10.10
   1   7 -11  158.88   14.20
   1   8 -11   -3.00    8.90
   1  16  -8   61.39    9.40
   1  17  -7    1.90    7.10
   2   5 -13   16.80   10.50
   3  -2 -12  324.87   14.60
   3   7 -15   94.49   12.50
   3   8 -15  155.58   14.50
   4   3 -16   19.90   11.00
   5  -4 -14   84.79    8.50
   0   0  -2 2654.23   18.30
   0   4  -7  412.76   15.30
   0   8  -8   20.30    8.90
   0  12  -7    0.60    8.40
   0  15  -4    1.20    7.30
   1  -1   5  755.52   16.10
   1   6 -11    4.70    9.60
   1   9 -11    8.00    9.10
   1  10 -11  124.29   12.00
   1  13 -10   30.80    8.10
   1  15  -9   89.19   11.30
   2   4 -13  158.38   13.50
   3  -6  -8  129.09    7.90
   3   5 -15  226.08   15.80
   4   0 -15   -4.10    6.20
   5  -1 -16   38.10    9.30
   0   7  -8    4.30    8.30
   0   9  -8   14.30    8.10
   0  10  -8  335.67   16.30
   0  16  -1  155.78    7.40
   1   5 -11   75.69   11.60
   1  11 -11  438.36   18.90
   1  18  -6  124.09   10.40
   2   1 -12  212.18   14.10
   2  12 -13   -4.30    9.40
   3  -7  -6 1089.79   12.50
   3  -7   2  252.77   10.00
   3   1 -14   11.20    8.70
   3   4 -15   54.69    9.80
   5  -8 -10   47.50    5.10
   5  -3 -15  193.68   11.60
   6  -7 -13   60.79    7.10
   0   1  -5  441.66   13.30
   0   2  -6   55.79    8.60
   0  13   4   33.20    2.00
   0  15  -5   47.40    7.40
   0  16   0   58.49    5.00
   1   2 -10  305.47   14.90
   1  14 -10   24.10    8.40
   2  -1 -11   -0.10    7.80
   2   3 -13  158.48   13.70
   4  -9  -1   70.89    4.40
   0   0  -3    6.10    5.80
   0   5  -8  455.65   16.70
   0  11   5  140.79    4.60
   0  13  -7   16.80    8.60
   1  -1  -8  188.98   11.40
   1  16  -9   39.20    9.10
   1  17  -8   42.20    9.10
   2   7 -14   86.19   12.00
   2   8 -14  208.48   15.70
   2   9 -14   29.90   11.60
   3   3 -15  102.99   12.90
   4  -9  -2   34.40    3.30
   4  -1 -15  251.87   14.20
   4   1 -16   15.20    8.20
   6  -8 -12    4.70    5.30
   0  12  -8  151.58   12.90
   1   0  -9  727.83   19.60
   1  13 -11  108.29   11.90
   1  15 -10   31.40   10.40
   2   0 -12  133.39   13.70
   2   6 -14  181.38   14.50
   2  10 -14    6.50   10.50
   3  -4 -11  234.18   12.10
   3  -3 -12  295.47   14.60
   4  -6 -11  600.64   15.70
   0   4  -8   13.90    8.70
   0   8  -9    0.90    9.30
   0  14  -7  215.38   12.60
   0  15  -6  174.58   10.80
   0  16  -4   87.19    8.20
   1  -2  -7   23.90    6.70
   1  -2   3  224.78    9.10
   1   1 -10   34.10   10.10
   1   3 -11   65.69   10.60
   1   6 -12    8.40    9.20
   1   7 -12   85.69   11.80
   1   8 -12    8.20    9.60
   1   9 -12  -11.90    8.60
   1  10 -12    9.80    9.00
   2   5 -14    7.70    9.90
   2  11 -14    6.80    9.80
   3  -2 -13   77.49   10.40
   3   2 -15    8.10    9.20
   4  -3 -14   61.59    8.90
   5  -5 -14   31.20    6.70
   0   1   2  404.96    7.70
   0   2  -7  128.59   10.60
   0  10  -9   20.60    9.40
   0  16   1  141.29    5.20
   1   5 -12   42.30   12.10
   1  11 -12   -5.90    8.40
   1  14 -11  103.69   11.70
   2   4 -14   70.29   11.40
   3   5 -16   10.80   10.50
   4  -8  -8    2.80    3.80
   4  -8   2   12.10    5.90
   4   0 -16   11.40    8.10
   5 -10  -2    1.50    3.40
   5  -4 -15   -0.70    6.70
  -1   9  -2  340.37   10.60
  -1   9  -1    7.90    5.00
   0   2   3   22.20    5.10
   0  16  -5   -5.10    7.10
   1   0   5  661.53   15.20
   2   1 -13   17.70   10.00
   3   4 -16  116.69   12.70
   4  -7 -10  160.78    8.70
   4  -2 -15    3.30    7.80
   5 -10  -4   20.00    2.20
  -1   7  -3   45.60    7.00
  -1  10  -2  329.07   11.20
   0   6   5  483.95    9.90
   0  12  -9   62.99   10.50
   0  15  -7  107.59   10.20
   2   3 -14    2.80    9.90
   3  -6  -9   -2.10    5.80
   3  -1 -14    0.80    6.90
   5 -10  -3    1.20    2.40
  -1   8  -4  995.00   20.50
  -1  10  -3   16.40    7.60
  -1  10  -1  190.98    8.10
   0   4  -9   41.90   10.00
   0   8 -10    2.80   10.70
   0  14  -8   -6.30    7.70
   0  16  -6   33.60    7.40
   0  17  -3  335.97   11.60
   1  -1  -9   53.19    9.80
   1  13 -12  181.98   15.00
   2  -5  -7  316.37   10.00
   2  -4  -9  748.13   17.50
   2   6 -15   70.99   13.10
   2   7 -15   81.89   12.50
   2   8 -15    5.30    9.90
   2   9 -15   25.70   10.70
   3   3 -16   13.30    9.10
  -1   6  -3  571.44   14.60
  -1   6  -2 1410.46   19.50
  -1   7  -4  118.99    9.60
  -1   9   0  657.13   11.00
  -1  10  -4   -0.60    7.60
   0   0  -5   -9.80    6.90
   0   7 -10   83.19   12.10
   0   7   5    0.70    3.80
   0   9 -10   32.90   10.00
   0  10 -10  324.27   16.80
   0  13  -9   -1.00    6.80
   0  17  -4    7.90    6.50
   0  17  -1  384.86   10.20
   1  -2  -8   54.49    7.80
   1   1 -11    4.20   10.40
   1   7 -13    0.80   10.40
   1   8 -13   41.80   10.20
   1   9 -13    5.70    8.30
   1  10 -13    2.60    8.40
   1  12   7   12.20    4.70
   2   0 -13    0.70   11.00
   2   2 -14   16.10    9.30
   3  -7  -7 1288.37   15.70
   3   0 -15   30.50    8.00
   4  -5 -13   29.80    7.10
   4  -4 -14   77.89    9.40
   4  -1 -16   18.20    8.90
   5  -8 -11   62.69    5.90
  -1   6  -4   17.60    8.80
  -1   6  -1 1072.89   15.50
  -1  11  -3  524.85   14.60
   0   1  -7    1.00    7.80
   0   6 -10  135.29   12.30
   1   6 -13   53.49   11.00
   1  11 -13    2.70    9.60
   2  -4   3  102.19    7.20
   3  -3 -13  163.78   11.50
  -1  10   0 1300.57   15.10
  -1  11  -4  111.99    9.60
  -1  11  -1   80.59    7.30
   0   3  -9   85.79   11.10
   0   5 -10   22.70   10.60
   0  15  -8  321.87   14.60
   0  16  -7  191.68   12.00
   0  17  -5   56.59    7.40
   1   5 -13   12.90    9.40
   2   4 -15   34.00   10.30
   3  -2 -14   21.10    8.20
   4  -3 -15  191.38   11.80
  -1   5  -2   73.49    7.50
  -1  11  -5  242.38   12.50
  -1  12  -3  216.78   10.60
  -1  12  -2  360.26   12.60
   4  -2 -16  135.69   12.10
  -1   6  -5   59.99    9.10
  -1   8  -6  385.06   15.10
  -1   9  -6   64.39   10.30
  -1  12  -4  764.72   18.10
   0   4 -10    5.20    9.80
   0   7 -11  366.26   17.50
   0   8 -11   12.50    9.90
   0   9 -11   21.80   10.60
   0  10 -11   44.70   10.50
   0  13 -10  128.89   11.70
   0  17  -6   -2.10    6.70
   1  -1 -10   33.30   10.80
   1   6   7   -4.80    6.30
   1  11   7   30.50    5.50
   2  -3 -11   17.10    8.50
   2   3 -15    6.90    9.30
   3  -1 -15   13.80    8.30
   4  -7 -11   31.20    7.20
   5  -7 -13   34.20    6.40
  -1   7  -6  113.49   11.70
  -1  12  -5   89.49   10.40
  -1  12  -1   46.50    7.00
   0   1  -8   11.50    9.70
   0   2  -9  606.24   20.20
   0   6 -11    7.50   10.40
   0  11 -11   44.00   11.00
   0  15  -9   11.00    8.40
   0  16  -8   62.79    9.10
   1  -2  -9   12.20    8.30
   1  -2   2  165.18    8.10
   1   3 -13    7.30    9.40
   1   8 -14    2.00    9.40
   1   9 -14    9.80    9.60
   1  10 -14   57.79   12.40
   2  -4 -10  341.97   14.30
   2   6 -16   51.09   12.70
   3  -6 -10    4.40    6.10
   4  -8  -9    1.60    4.70
  -1   5  -5    9.50    8.20
  -1   5  -1 9795.02   43.70
  -1  11  -6   58.19    9.50
  -1  11   0  514.75   10.20
   0   3 -10    8.00   10.10
   0  14 -10   18.30    9.70
   0  17  -7  306.57   14.60
   0  18  -4   39.00    6.80
   0  18  -3   66.59    7.10
   1   1 -12  238.88   15.30
   1   7   7  287.57   11.20
   1  10   7  128.69    8.30
   1  11 -14   12.50   10.20
   2   2 -15   17.60    9.60
   2   5 -16    7.60   10.30
   3   0 -16    5.40    8.10
  -1   7  -7  295.77   15.50
  -1   8  -7    7.90    9.30
  -1  12  -6    1.80    9.30
  -1  13  -4  352.76   13.40
  -1  13  -2   18.50    7.10
   0   0  -7    1.80    7.70
   0  18  -5  163.98    9.80
   1   0   4   -2.10    5.80
   1   8   7   11.70    6.20
   1   9   7  169.38    8.90
   3  -7  -8    3.50    5.40
   3  -4 -13   -5.70    8.40
   4  -5 -14   60.59    8.50
  -1   4  -4  195.58   11.30
  -1   4  -3 1052.49   18.90
  -1   5  -6   86.29   10.80
  -1   6  -7    2.20    9.80
  -1  11  -7   36.70   10.10
  -1  13  -5   12.20    8.60
   0  -1  -4 2883.21   27.80
   0   4 -11   -0.60   10.50
   0  10 -12   -2.60    9.00
   0  13 -11   12.80    7.80
   0  16  -9    1.20    7.70
   0  17  -8    3.00    8.00
   0  18  -6  138.69   10.70
   1  -3   0  387.56    7.40
   1  -1   3  641.44   14.70
   1   2 -13  649.34   22.90
   2   1 -15  222.38   17.70
   3  -2 -15    3.30    9.20
   4  -3 -16   22.30    9.10
   5  -8 -12    0.10    4.60
  -1   4  -5 2357.96   32.20
  -1   9  -8  364.86   16.90
  -1  12  -7    1.70    9.30
  -1  13  -6  302.87   15.30
   0  -1  -3  281.57    9.60
   0   1  -9 3063.99   41.70
   0   2 -10  291.67   16.00
   0   7 -12  102.49   12.60
   0  11 -12   46.40   11.00
   0  14 -11  188.18   16.10
   1  -1 -11    2.90   10.10
   1   8 -15   57.69   14.10
   1   9 -15   -6.50   10.40
   2  -6  -4  936.21    9.10
   2  -3 -12  551.94   19.20
   2  -2 -13  491.25   19.80
   6 -10  -1    0.40    4.90
  -1   5  -7  100.89   12.60
  -1  13  -1   18.40    6.30
  -1  14  -4   87.19    9.30
  -1  14  -3   16.80    7.90
   0  -1  -5  447.96   13.00
   0   0  -8 3682.73   43.10
   0   3   3  672.03   10.70
   1  -2 -10  360.76   16.50
   1   3 -14  641.14   23.10
   1   7 -15    3.00   10.50
   2  -6  -5  184.28    6.30
   3  -7  -1  212.58    6.90
   3  -5   3  237.08   11.10
   3  -1 -16   34.00   10.90
  -1  13  -7  306.57   15.50
  -1  14  -5  195.88   11.80
   0   5 -12   16.70   11.20
   0  13 -12   44.70   10.30
   1   2   5 3279.77   33.10
   1  13   6  311.57    9.70
   2  -4 -11   91.19   11.10
   4  -7 -12  109.79    9.40
   5  -7 -14    7.60    5.60
  -1   9  -9  157.18   13.90
  -1   9   1   63.39    4.00
  -1  12  -8  163.48   13.10
  -1  14  -2   65.09    7.40
   0   4 -12    9.90   10.00
   0   8 -13  460.95   20.70
   0   9 -13   34.50   11.60
   0  10 -13   54.69   12.70
   1   5 -15    9.10   10.60
   2  -6  -6  411.56   10.30
   3  -7  -9    6.90    7.10
   4  -8 -10    6.70    5.30
  -1   3  -5  456.85   16.30
  -1   4  -7  347.47   17.00
  -1   5  -8   40.70   12.70
  -1   7  -9  477.85   20.20
   0   1 -10    8.30   11.40
   0   2 -11   96.19   12.20
   0   7 -13  244.78   16.50
   1   2 -14   48.70   10.90
   1   4 -15    5.40    9.60
   2  -3   3  197.78   10.30
   2  -2   4  542.85   16.70
   3  -4 -14   67.99   10.40
   4  -5 -15   12.80    7.60
   4  -4 -16  205.68   13.40
  -1   3  -6 1944.81   31.60
  -1   3  -3  419.96   13.80
  -1   6  -9  154.18   14.80
  -1   8   1   25.30    3.40
  -1  12  -9    0.60    8.90
  -1  13  -8   26.50    8.70
  -1  14  -7  149.39   11.80
  -1  15  -5  127.19   11.10
  -1  15  -4   30.00    8.40
   0  -1  -7    0.80    8.50
   0   0  -9   -2.30   10.10
   0   6 -13  143.99   13.60
   1  -1 -12  249.38   16.40
   1   0 -13  136.19   13.40
   2  -2 -14   24.60   10.10
   3  -2 -16    0.40    9.20
   5  -9  -1    3.50    4.20
  -1   4  -8   -7.60   11.00
  -1  14  -1   12.40    5.70
  -1  15  -6   32.00    8.40
  -1  15  -3   -1.30    6.90
   1   1 -14   -5.40   11.60
   1   6 -16  169.28   15.70
   1  12   6   10.60    5.40
   2  -6  -7   27.00    6.10
   2  -1 -15  227.58   15.50
   4  -8  -1    1.10    4.50
   5  -8 -13    2.50    5.00
  -1   3  -7  396.26   18.10
  -1   5  -9  706.53   23.50
  -1   8 -10  150.88   14.50
  -1  10 -10   68.19   12.20
  -1  13  -9    0.00    8.00
  -1  14  -8   49.90    9.60
  -1  15  -7  676.23   19.90
   0   8 -14   20.70   13.30
   0   9 -14  181.48   15.90
   1  -4  -3 6197.08   25.80
   1   1   4 3099.49   31.50
   2  -4 -12  258.47   15.40
   5  -9 -11    0.00    4.50
  -1   3  -2  509.65   13.10
  -1   5   0    5.50    3.70
  -1   6 -10  814.32   25.10
  -1  12 -10    3.30    9.50
  -1  13   0   40.30    4.80
  -1  15  -2   52.99    7.90
   0   0 -10 2433.46   39.40
   0   1 -11  295.87   17.80
   0   2   2   22.00    4.40
   0   4 -13  205.88   15.30
   0   7 -14  305.57   18.70
   0  10 -14   62.69   12.40
   1   2 -15    9.10   10.20
   2   0 -16  425.16   19.90
   4  -7 -13   40.30    8.10
  -1   3  -8  159.98   14.80
  -1   4  -9   15.50   11.80
  -1  14  -9   32.50    9.30
  -1  15  -8   70.09    9.90
  -1  16  -5   10.90    7.30
  -1  16  -4    7.30    8.30
   0  11   4    2.10    3.10
   1  11   6   63.89    7.40
   2  -6  -8  127.19    8.80
   3  -7 -10    7.60    6.80
   3  -4 -15   51.79   10.20
   4  -8 -11   15.90    5.90
  -1   2  -6 1504.55   28.50
  -1   2  -5 3345.37   37.60
  -1   2  -4 2881.21   33.20
  -1   5 -10    3.20   11.90
  -1   7 -11   55.39   12.50
  -1   8 -11  151.48   14.30
  -1   9 -11    1.20    9.70
  -1  10 -11    3.60   10.90
  -1  13 -10    0.60    8.80
  -1  16  -6  145.49   11.10
   0  -1  -9 2970.90   41.80
   0   3 -13  434.16   20.80
   0   5 -14   84.49   12.90
   1   0 -14    6.70   11.00
   2  -3 -14   12.40   10.20
   2   0   5  119.99    9.10
   3  -5 -14   59.29   10.30
   3  -5   2    6.60    7.00
  -1   2  -7  144.49   13.40
  -1  15  -9    3.10    8.70
  -1  16  -7    3.70    6.90
  -1  16  -3  317.37   11.90
   1   0   3  297.07   11.20
   1   1 -15   25.80   12.60
   1   3 -16   19.90   10.60
   1   9   6   73.39    8.30
   2  -2 -15   16.30    8.20
  -1   3  -9  183.18   15.60
  -1  14 -10   23.00    9.40
  -1  16  -8   52.29    9.80
   0  -2  -6   53.39    9.10
   0  -2  -5 2567.14   30.20
   0   0 -11  -12.90   11.70
   0   2 -13  330.47   18.50
   0   4 -14   56.39   11.50
   0   4   3   49.50    5.00
   0   8   4  168.88    6.60
   0  10   4   37.70    4.30
   0  14   3  538.95    5.80
   1  -2   1   31.90    6.30
   2  -4 -13  132.59   13.10
   2  -4   1 2419.96   24.90
   3  -4   3   40.90    7.40
   5  -9  -2   -7.20    4.60
  -1   2  -8  275.27   16.40
  -1   2  -3  220.08   11.60
  -1   5 -11  246.58   16.90
  -1   8 -12   56.29   12.50
  -1   9 -12   19.70   10.90
  -1  10 -12   16.50   11.60
  -1  13 -11   -7.50    8.00
   0   6 -15   47.70   12.60
   0   9   4 2906.11   21.10
   1   2 -16    6.70   11.20
   2  -6  -9  255.67   11.30
   2  -1   4   53.49    8.80
   2   0 -17    0.30    7.80
   3  -7 -11   24.40    7.50
   4  -9  -7    2.50    2.60
  -1   7 -12  403.16   19.70
  -1  12 -12   88.39   12.50
  -1  14 -11  -10.50   11.60
  -1  15 -10    4.80    8.80
  -1  16  -9   63.29   10.70
  -1  16  -2   39.20    7.00
  -1  17  -7   13.30    9.30
  -1  17  -6    9.90    8.10
  -1  17  -5   18.90    7.30
   0   3 -14  159.88   15.40
   2  -5 -12  206.58   14.90
   4  -8 -12  186.68   10.70
   4  -7 -14    7.30    7.00
   5  -8   0   11.20    6.80
  -1   2  -9  110.59   14.20
  -1   4 -11  -12.90   12.20
  -1  13 -12    1.10    9.40
  -1  14   0  186.28    7.00
  -1  17  -4    2.00    6.40
   0  -2  -8  525.55   18.40
   0   0 -12  157.58   16.30
   0   1 -13    8.10   12.80
   2  -3 -15   -6.30   10.90
   2  -2   3 3380.56   36.30
   3  -4 -16  122.79   12.80
  -1   1  -7   18.00   10.50
  -1   1  -6  842.82   22.00
  -1   9 -13   76.59   13.00
  -1  10 -13   40.50   11.90
   0   1   1 5252.27   17.50
   0   2 -14   23.00   11.00
   0   4 -15   -2.90   10.60
   1  -4 -10   96.19   11.40
   1  -3 -12  896.31   25.50
   2  -4 -14   84.39   12.30
   2  -2 -16  153.68   14.60
   3  -5 -15  220.78   13.70
   4  -9  -8   -1.30    3.20
  -1   3 -11   78.19   13.90
  -1   7 -13  311.67   19.40
  -1  17  -3   32.80    7.50
   0  -2  -9  718.73   21.90
   0  -1 -11  276.67   17.80
   0   6 -16   21.20   12.00
   2  -1 -17  452.85   21.60
  -2   8  -6    6.60   11.40
  -2   8  -5  356.96   16.40
  -2  10  -6  220.68   15.00
  -2  10  -5   21.50   10.10
  -2  11  -6   87.09   12.20
  -1   1  -4 3353.86   36.80
  -1   2 -10  132.69   14.90
  -1   3  -1  197.38    8.40
  -1   6 -13   46.20   12.90
   0   3 -15   51.89   13.10
   1  -2 -14   38.10   11.80
   3  -7 -12    1.20    7.80
   6 -10  -4   58.29    5.20
  -2   7  -7  209.28   16.10
  -2   7  -6  549.35   20.50
  -2   7  -5 1165.18   26.60
  -2   8  -8  332.07   18.90
  -2   9  -8   10.80   11.10
  -2  10  -4    1.10    7.50
  -2  12  -6  268.77   16.00
  -1   1  -9   30.70   13.30
  -1   5 -13   48.40   12.30
  -1  18  -5   -2.40    6.70
   0  -2 -10  309.67   19.20
   0   0 -13    0.50   12.60
   0   1 -14   73.39   12.70
   1  -4 -11  496.85   19.30
   2  -5 -13   24.80    9.80
   2  -5  -1 1229.48   12.60
   3  -8  -7  158.88    6.30
   4  -9  -9  645.14   11.30
  -2   7  -8    6.70   12.10
  -2   9  -9   49.70   13.90
  -2  11  -8   -6.60   10.10
  -2  11  -4 1391.06   26.10
  -2  12  -7   24.50    9.50
  -1   3 -12   -6.80   12.00
  -1   7 -14    9.60   13.40
  -1   8 -14  203.88   17.10
  -1   9 -14   70.79   13.90
  -1  10 -14   57.09   12.60
   0   2 -15  270.77   17.90
   1  -3 -13   20.90   10.90
   1  13   5   13.70    5.90
   2  -3 -16   53.49   12.40
   3  -8  -8  610.84   12.10
   4  -8 -13   13.80    6.60
   4  -7 -15   11.40    7.30
  -2   6  -7  343.47   18.80
  -2   6  -6  129.89   14.40
  -2   7  -4   61.79    9.00
  -2   8  -9    7.20   12.20
  -2  11  -9   40.30   11.60
  -2  12  -8   38.30   10.20
  -2  12  -4  176.58   12.90
  -2  13  -7   40.10   10.40
  -2  13  -6   12.00    9.30
  -1   4 -13   19.90   11.80
  -1   6 -14    1.40   10.50
   2  -4 -15   28.80   10.10
   3  -8  -9   11.00    5.70
   3  -5 -16    7.70    9.40
   5  -9  -3   24.30    4.40
  -2   6  -8   30.90   12.20
  -2   7  -9  109.39   14.60
  -2   9  -3   74.89    7.80
  -2  12  -9    1.00    9.70
  -2  13  -8   33.20   10.70
  -2  13  -5  386.66   16.40
  -1   0  -7  246.98   15.40
  -1   1 -10  758.62   25.50
   0  -2 -11  110.89   14.30
   0   3 -16   32.50   13.00
   1   6   5   49.80    8.30
   2   0   4   18.60    7.80
   2   2   5  334.37   14.10
   3  -8  -6  606.44    8.00
   3  -7 -13   34.30    9.40
   3  -3   3  244.98   12.30
   4  -9 -10    5.50    5.00
   4  -6   1   61.49    8.50
  -2   5  -7  871.51   26.80
  -2   5  -6 2153.68   36.40
  -2   6  -9 1100.99   31.10
  -2   6  -4  404.96   16.00
  -2   7 -10   25.40   13.90
  -2   8 -10  142.09   14.90
  -2  11 -10  214.58   16.00
  -2  11  -3   35.40    8.60
  -1   0  -8    9.50   10.30
  -1   0  -6    2.20    7.00
  -1   2 -12  376.26   21.30
  -1   3 -13   69.29   14.00
  -1   8 -15   -1.30   10.80
   0  -3  -8  225.48   14.10
   0  -3  -7  138.59   12.00
   0  -1 -13    1.80   11.20
   0   0 -14    9.10   11.40
   0   5   3  257.17    7.20
   1  -3 -14  741.33   25.00
   1  -2 -15   17.40    9.70
   1  -1 -16  128.59   13.30
   1   0 -17   18.00   11.10
   1   1   3  637.44   14.90
   2  -5 -14    5.10    9.30
   3  -6 -15  143.89   12.50
   3  -4   2  454.85   14.90
  -2   5  -8   71.49   13.80
  -2   5  -5  106.89   11.70
  -2  12 -10  141.29   13.30
  -2  13  -4  529.45   17.00
  -2  14  -8  211.18   14.90
  -2  14  -6  222.28   12.90
  -2  14  -5   54.49   11.00
  -1   0  -9 1076.29   28.80
  -1   1 -11    9.20   12.60
  -1   4 -14   14.70   13.00
  -1   7 -15   37.80   13.00
   0   2 -16   14.20   13.70
   1   3   4  872.81   17.20
   3  -8 -10  196.28    9.60
  -2   5  -9  313.87   20.30
  -2   6 -10   32.40   12.90
  -2   8 -11    1.20   11.10
  -2  14  -9   45.80   10.60
  -1   6 -15   -6.40   13.30
  -1  15   0    5.70    4.10
   0  -2 -12  306.77   19.00
   1  -5 -10   20.90   10.00
  -2   4  -7  800.52   25.40
  -2   4  -6  687.33   22.60
  -2   5  -4   67.79   10.40
  -2  12 -11  237.38   16.30
  -2  14  -4  154.08   12.30
  -2  15  -7  109.99   11.30
  -2  15  -6  161.38   12.10
  -1   0 -10   -2.10   12.30
  -1   1 -12   82.59   16.10
  -1   2 -13  219.18   18.50
   0  -3 -10    4.80   10.50
   0   0 -15   -8.50   13.70
   2  -4 -16   28.70   11.20
   2  -1   3  436.66   14.80
   4  -9 -11    3.70    5.10
  -2   4  -9  910.11   28.90
  -2   6 -11  421.96   21.50
  -2   8 -12   49.50   12.90
  -2   9 -12    5.00   12.00
  -2   9  -2   21.30    7.10
  -2  10 -12   10.10   11.50
  -2  10  -2  188.28   10.50
  -2  13 -11  182.68   16.00
  -2  14 -10  108.19   12.00
  -2  15  -9   94.79   12.50
  -1   3 -14  250.77   18.10
   0   1 -16  -10.90   11.40
   1  -5 -11   78.99   12.50
   1  -3 -15   52.69   13.10
   1  -2 -16   11.50   10.70
   2  -7  -9  138.09   10.00
   2  -7  -8  137.89    9.20
   2  -7  -7   16.30    6.40
   2  -6 -13   27.10    9.00
   2  -5 -15   34.10   10.40
   3  -8 -11  141.99    9.40
  -2   4  -5 1505.55   29.50
  -2   7 -12   12.70   12.30
  -2  12 -12    0.20    9.80
  -2  15  -5   18.30    9.00
  -1   0 -11   12.70   12.70
  -1   4 -15  -16.40   11.80
   2   3   5 2664.03   35.80
   3  -6 -16  329.47   17.20
   3  -1   4  449.46   17.00
   4  -7  -1   33.90    6.10
  -2   3  -8   62.89   13.60
  -2   3  -7 1518.05   32.70
  -2   6 -12   -3.20   12.30
  -2   9 -13  121.79   15.20
  -2  16  -8    5.60    8.90
  -2  16  -7   14.60    8.90
  -1   1 -13   53.49   13.30
  -1   2 -14  469.65   23.40
   2  -7 -10   19.10    8.90
   3  -6  -1   46.00    5.50
   4  -8  -3    7.50    4.10
  -2   3  -6 1567.44   31.50
  -2   4 -11  114.09   15.40
  -2   5 -12   19.00   14.70
  -2   7 -13   72.59   13.90
  -2   8 -13   19.50   11.60
  -2  14  -3  555.04   16.10
  -2  15  -4   12.50    8.60
  -2  16  -6   44.00   10.10
  -1   3 -15    9.90   11.60
   0   3   2  299.87    7.20
   2  -4   0  654.73   12.20
   2  -2   2 2370.16   29.20
   2   1   4   48.50    7.40
   3  -8 -12  235.48   12.30
  -2   3 -10  395.06   21.20
  -2   5  -3  200.38   11.60
  -2   6 -13   25.60   12.00
  -2  16  -5   -5.10    9.40
  -1   4 -16   68.59   15.00
   1  -3 -16   32.10   12.50
   1   0   2   11.30    5.40
   2  -7 -11   32.80    9.40
  -2   4 -12  120.39   15.90
  -2   8 -14    7.60   11.20
  -1   1 -14  387.26   22.50
  -1   2 -15  126.99   18.40
   2  -7  -6   19.10    5.20
   2  -5 -16    6.40    9.40
   5  -9  -4   88.79    5.60
   6  -9  -3    3.70    5.90
  -2   2  -8   92.29   14.40
  -2   2  -7  168.78   15.80
  -2   3 -11  425.26   22.80
  -2   5 -13   33.60   13.60
  -2   7 -14   57.89   13.60
  -2  13  -2  404.66   12.90
  -2  17  -7   71.59   11.10
  -1  -1 -11    5.70   12.50
  -1   0 -13  379.16   21.50
   0  -4  -8   23.40    8.80
   1  -5 -13    8.80    9.90
   1  -4 -15   13.10   10.60
   2   4   5 1521.95   27.70
   4  -6   0  163.38   10.40
   5  -8  -2   21.20    5.90
  -2   2 -10  614.84   24.80
  -2   2  -9    6.40   10.50
  -2   6 -14   23.70   12.80
  -2  15  -3   15.40    7.90
  -2  16  -4   73.79   10.80
  -2  17  -6    3.70    8.60
  -1   2  -1   34.30    6.90
   0  -1 -16    4.90   11.40
   3  -8 -13  120.89   10.80
   4  -9 -13   -0.50    5.00
  -2   2  -6  666.93   22.40
  -2   3 -12   64.09   14.60
  -2   5 -14  356.56   22.50
  -1  -1 -12   78.79   14.60
  -1   1 -15   67.19   13.50
   0  -2 -15  293.57   18.30
   2  -6 -15   74.49   11.00
   3  -3   2   25.00    7.20
   3   0   4   -0.30    8.20
   4  -4   2  796.52   21.50
  -2   2 -11  543.95   24.70
  -2   3  -4  124.29   10.90
  -2   4  -3  139.29   11.20
  -2  10  -1   66.49    8.50
  -2  17  -5  116.29   10.50
  -1  -2  -9   95.29   15.50
  -1   0 -14   13.60   11.60
   0  -3 -14  187.08   16.20
   1  -5 -14   97.19   12.70
   1   5   4   57.79    8.20
  -3   8  -8  162.08   17.70
  -3  10  -9    7.70   12.70
  -3  11  -9   25.80   11.20
  -2   1  -8   16.20   12.60
  -2   3 -13  172.08   17.90
  -2   4 -14   36.30   12.40
  -2   6 -15  132.59   16.90
  -2   9  -1  550.14   13.10
  -2  11  -1  129.89    9.30
  -2  14  -2  118.69    8.40
  -1  -1 -13   43.60   13.90
   0  -4 -12    4.00   12.00
   1  -6  -7  136.49    9.40
   2   0   3   36.90    7.80
   2   2   4  553.74   17.40
   3  -8 -14    2.60    8.30
  -3   7  -8   21.60   14.30
  -3   8 -10  393.56   22.30
  -3   8  -7   75.49   13.90
  -3  10  -6  206.28   15.90
  -3  11 -10  172.88   15.20
  -3  11  -7   50.69   12.00
  -3  12  -8  199.98   15.10
  -2   1 -10    8.20   13.60
  -2   1  -9   33.50   10.60
  -2   1  -7  463.85   20.60
  -2   2 -12   34.70   13.10
  -2   5 -15   68.99   13.70
  -1  -2 -11   12.00   13.00
  -1   0 -15  273.57   21.90
   0  -2 -16   15.70   11.50
   1  -6 -12   10.10   11.00
   1  -1   1  537.55   11.60
  -3   7 -10    6.50   12.00
  -3   7  -9  171.68   17.00
  -3   7  -7  443.46   22.00
  -3   8 -11   95.89   15.60
  -3  11 -11   22.70   11.80
  -3  11  -6  534.05   21.00
  -3  12 -10   28.70   12.30
  -3  13  -9  126.69   13.70
  -2   1 -11  307.97   19.10
  -2   3 -14   14.60   12.60
  -2   5  -2  732.03   16.70
  -2  16  -3    9.10    7.40
  -2  17  -4   85.19   10.20
   0  -3 -15   58.49   12.50
   1  -5 -15    4.00   10.50
   2  -6 -16   56.69   10.90
  -3   6  -8  257.87   18.70
  -3   7 -11  283.07   19.30
  -3   7  -6  732.03   25.30
  -3  12  -6    8.00    9.80
  -3  13 -10   83.39   12.50
  -2   1  -6  147.19   13.90
  -2   2 -13  141.09   16.80
  -2   4 -15  321.37   21.30
  -2  12  -1  249.88   10.10
  -1  -2 -12  360.26   20.50
   0  12   3   14.30    4.40
  -3   6 -10    6.30   12.30
  -3   6  -7  134.19   14.70
  -3   9 -12   50.59   13.80
  -3   9  -5   33.60    9.60
  -3  11 -12    6.30   10.50
  -3  11  -5   24.30   11.50
  -3  13  -6    9.70    8.70
  -3  14  -9   37.60   10.90
  -3  14  -8  125.69   12.90
  -2   1 -12  119.49   16.90
   3  -1   3  277.67   14.30
  -3   5  -8   -4.60   13.00
  -3   6 -11   28.50   12.20
  -3   6  -6  307.47   18.30
  -3   7 -12  155.68   16.50
  -3   9 -13   42.90   13.20
  -3  12  -5   86.59   11.80
  -3  14  -7   -3.30    9.20
  -2   0 -10  198.28   17.60
  -2   0  -9   12.30   13.80
  -2   2 -14  233.18   19.40
  -2   3 -15  199.88   19.00
  -2   3  -3  208.18   13.40
  -2  15  -2   42.10    7.60
  -1  -2 -13  223.58   18.90
  -1   0 -16    0.80   12.20
   0  -4 -14   46.50   12.10
   1  -6  -6   19.90    6.00
   3   1   4  439.96   17.50
   4  -7  -2  201.88    8.10
   5  -6   0   64.29    9.40
   6  -9  -4  554.74   13.00
  -3   5 -11   -5.70   11.50
  -3   5  -7   54.39   14.80
  -3   6 -12   38.90   14.00
  -3   7 -13    0.40   14.50
  -3   7  -5  620.54   20.90
  -2   0 -11    4.20   12.70
  -2   0  -8   12.70   10.40
  -2   1 -13   30.20   13.40
  -2   1  -5  148.49   14.50
  -1  -3 -10  386.16   19.60
   0  -5 -11    3.30   11.10
   0  -5 -10   27.00   10.30
   0  -5  -9  183.58   13.30
   0  -3 -16   25.10   12.40
   1  -6 -14   41.60   10.70
   1  -5 -16    2.50   10.00
  -3   4 -10  -10.30   12.50
  -3   4  -9  257.57   19.80
  -3   4  -8  133.79   15.20
  -3  10  -4   19.20   10.10
  -3  13  -5   28.60   10.40
  -3  14  -6   39.70    8.70
  -3  15  -7  174.88   13.10
  -2   0  -7  137.79   15.70
  -1  -3 -11   70.19   13.70
   1  -2   0 1225.88   12.90
   2  -8 -11  675.13   17.50
   2  -8 -10   23.60    7.30
   2  -1   2 1099.59   19.90
   3  -9 -10    5.30    5.00
  -3   4 -11  308.87   19.60
  -3   6 -13  141.29   16.10
  -3   9  -4  334.17   14.60
  -3  11  -4   33.20   11.00
  -2   0 -12    9.20   12.80
  -2   4  -2  151.78   10.00
  -1   3   0  402.96    8.20
   0  -4 -15   -1.30   11.90
   0  11   3   45.20    5.00
   2  -8 -12   99.19   10.40
   2  -8  -9  154.98    8.90
   4  -3   2 1486.75   28.90
   5  -8  -3  126.79    7.80
  -3   4 -12   12.20   12.00
  -3   4  -7   41.00   12.00
  -3   5 -13  186.98   18.30
  -3   6 -14   95.59   16.30
  -3  12  -4   16.40    8.40
  -3  14  -5    8.70    9.30
  -3  15  -6   13.30    9.20
  -2   0 -13   11.60   12.40
  -2   0  -6   16.30   11.70
  -2   6  -1 2207.98   24.40
   0  -5 -13   34.20   12.50
   1  -6 -15    4.60   10.30
   2  -7  -5  704.23    8.70
   2   1   3  422.76   14.50
   3  -9  -9  395.26    9.50
   3  -2   2 5779.12   50.29
  -3   7  -4 2744.33   37.20
  -3  16  -7   26.30    9.60
  -2  -1 -10    9.70   12.30
  -2  -1  -9   37.70   13.50
   0  10   3   11.40    5.00
   1   1   2  104.29    6.70
   2  -8 -13  334.57   14.80
  -3   3 -11  426.46   22.10
  -3   3  -8    4.90    9.70
  -3   4  -6  327.67   18.80
  -3   5 -14   17.00   12.90
  -3   5  -5  841.22   24.80
  -3  13  -4   16.40    9.10
  -2  -1 -11  283.67   19.00
  -2  -1  -8   22.30   13.40
  -2   0 -14  260.67   19.50
  -2  16  -2   10.10    6.30
  -1   0  -2    2.50    9.10
   0  -5 -14   84.49   13.40
   0  -4 -16   43.60   13.30
   1  -7  -9  461.45   15.40
   1  -3  -1  261.67    4.10
   2  -8  -8   13.80    5.60
   4  -5   0  390.86   14.60
  -3   3  -7  -10.40   12.30
  -3   6  -4   50.79    9.50
  -3  15  -5   33.90    9.80
  -2  -1 -12  138.19   16.10
  -1  -3 -14  253.57   17.60
  -1  -2 -16   36.10   11.90
   1  -6 -16  194.98   15.40
   1  10   4    3.90    6.80
   2  -8 -14  189.28   12.60
   3   0   3  282.67   14.10
  -3   2 -11  329.77   21.90
  -3   2 -10  601.14   25.50
  -3   2  -9  137.09   16.30
  -3   4 -14  230.68   19.40
  -3   9  -3  390.86   15.50
  -3  10  -3   40.50    9.60
  -2  -1 -13   26.50   12.30
  -2  -1  -7  471.85   21.50
  -2   0 -15   10.50   14.70
  -2   0  -5  163.48   14.10
  -2   1 -16   44.60   13.70
  -1  -3  -6 2136.59   33.00
   0   4   2  118.39    5.80
   2  -2   1 1045.90   18.10
   6  -8  -3  211.48   10.70
  -3   2 -12  272.17   19.30
  -3   2  -8  408.26   21.70
  -3   3  -6   34.70   13.90
  -3   4  -5  155.78   13.60
  -3  11  -3  158.28   11.40
  -3  14  -4    3.40    9.50
  -1  -4 -12   11.60   13.40
  -1  -4  -9   17.00   10.60
  -1  -3 -15    2.60   10.00
   0  -5 -15   45.20   12.20
   1  -7  -8   12.90    8.20
   3  -6  -2   -1.80    3.50
   3  -3   1  294.77   12.10
  -3   3 -14    6.90   12.90
  -3   4 -15   15.10   13.20
  -3   5  -4   28.30    9.70
  -3  12  -3   83.39   10.60
  -2  -1 -14   74.79   14.90
  -2   3  -2  157.68   10.50
  -2   5  -1 1888.31   22.50
   0  -6 -10  146.59   13.70
   2  -8 -15    0.50    7.50
   3  -9  -8  946.01   11.60
  -4   8 -10  151.88   18.20
  -4  10 -11   14.20   11.00
  -4  10 -10  160.68   16.30
  -4  10  -9    1.40   11.10
  -4  11 -11    7.30   11.00
  -4  11 -10    2.50    9.70
  -4  11  -9   71.19   13.80
  -3   2 -13   -0.60   11.70
  -3   2  -7  545.05   22.70
  -3  16  -5  528.55   16.90
  -2  -2 -12   45.40   14.90
  -2  -2 -11  521.35   24.00
  -2  -2  -9    4.10   12.20
  -2  -1  -6  156.18   14.40
  -2   0 -16   16.80   13.10
  -1  -4 -13   38.90   11.00
  -1  -4  -8   -1.10   10.10
  -1   1  -1  526.35   11.90
   0  -6 -12  283.87   18.00
   0  -5 -16  124.69   14.10
   1   4   3 1136.39   18.50
   2   5   4   79.29    8.80
   6  -9  -5  192.68    8.20
  -4   8 -12  215.78   20.00
  -4   8  -9  153.78   17.80
  -4  10 -12   -0.60   11.10
  -4  10  -8   14.10   10.30
  -4  11  -8   21.40   10.70
  -4  12 -10   31.80   11.50
  -4  12  -9   32.30   10.80
  -3   1 -12  178.18   19.00
  -3   1 -11  515.15   24.40
  -3   1 -10  813.72   28.20
  -3   1  -9   45.80   14.10
  -3   2 -14   87.19   15.90
  -3   3 -15   20.20   13.90
  -3  13  -3   41.20    9.90
  -3  15  -4   56.89    9.90
  -2  -1 -15   -3.00   13.50
  -1  -4 -14    8.60   10.70
  -1  -3 -16   43.10   11.10
   0  -6 -13  166.78   14.90
   1  -7 -15   11.60    9.60
   3  -4   0  370.36   12.00
   4  -2   2 1298.77   26.60
   5  -6  -1  121.89    9.60
  -4   7 -12   56.99   13.80
  -4   7 -11   64.99   13.40
  -4   7  -8  107.59   16.00
  -4   9  -7  243.18   17.40
  -4  10  -7   -6.40    9.60
  -4  12  -8   53.99   11.90
  -4  13  -9   -2.20   10.30
  -3   1  -8  373.46   21.20
  -3   3  -5  313.87   17.50
  -2  -2 -13  156.68   17.00
   0  -6 -14    6.40   10.50
   2   2   3 3326.97   35.20
  -4   6 -11  260.37   18.60
  -4   8 -13   97.79   14.90
  -4  11  -7  113.79   13.70
  -4  13  -8    5.60    9.30
  -3   1 -13   86.69   13.60
  -3   2 -15   31.20   13.20
  -3   4  -4   85.29   10.90
  -3   6  -3  820.42   19.80
  -1  -4 -15    0.70   13.20
  -1  -4  -7  364.86   15.70
  -1  -3  -5  482.35   16.30
   1  -7  -7  506.15   12.90
   2  -8  -7  106.89    5.70
   2  -3   0  386.46   10.50
   2   0   2 7028.00   47.50
  -4   6 -13    0.00   13.80
  -4   6  -8  276.67   19.30
  -4   7  -7    3.70   12.20
  -4  12  -7   94.59   11.10
  -3   1 -14   28.30   13.60
  -3   1  -7   10.40   13.50
  -2  -2  -7  147.09   15.40
  -2   1  -3  444.66   16.70
   0  -6 -15   48.20   11.80
   3  -1   2 3016.70   35.30
   3   1   3  287.67   13.60
  -4   5 -12   22.50   12.90
  -4   5  -9  389.96   21.50
  -4   9  -6   43.50   10.80
  -4  10  -6  506.05   19.90
  -4  11  -6  629.24   21.20
  -4  13  -7    0.40    8.60
  -4  14  -8    1.50    8.90
  -3   0 -12    9.20   12.90
  -3   0 -11  154.48   16.00
  -3   0 -10    0.20   11.40
  -3   0  -9    3.30   12.30
  -3  14  -3    6.70    7.10
  -3  16  -4   -3.30    9.10
  -2  -3 -11  417.06   22.70
  -2  -1  -5  148.39   13.10
  -2   8   0  216.38    8.60
  -1  -5 -12   64.19   11.70
   4  -3   1 1597.44   27.30
  -4   4 -11  144.39   15.10
  -4   4 -10   50.39   13.20
  -4   5 -13   10.30   13.00
  -4   5  -8 1027.50   30.30
  -4   6  -7  966.10   28.30
  -4  12  -6  154.28   13.10
  -3   0 -13    6.00   12.50
  -3   5  -3  235.18   12.70
  -3  10  -2  603.54   16.00
  -2  -3 -12   32.80   13.70
  -1  -5 -13   57.39   12.00
   1  -8 -12   14.90    8.40
   2  -4  -1  584.24   10.00
  -4   4 -12  205.18   17.60
  -4   4  -9   94.99   15.70
  -4   7  -6   17.20   10.70
  -4  14  -7   41.50    8.60
  -3   0 -14  -14.90   11.80
  -3   0  -8   -1.50   13.10
  -3   1  -6 2940.91   44.40
  -3   2  -5   63.49   12.90
  -3  11  -2  337.57   13.20
  -2  -3  -9  868.41   26.90
  -2   4  -1 2402.46   24.70
  -1  -5 -14   20.90   11.60
   0  -6 -16   15.40   10.10
   2  -9 -13   -3.80    6.70
   2  -9 -11  344.27   11.60
   2   7   4   64.29    8.50
   4  -7  -3   27.30    4.70
  -4   4 -13   -8.00   11.90
  -4   4  -8   10.20   13.20
  -4   5  -7  239.68   17.40
  -4   6  -6   38.40   10.40
  -4  10  -5   50.49   11.00
  -2  -2  -6  612.24   20.30
  -2   2  -2 2174.48   27.20
  -1  -4  -6  276.57   12.70
   1  -8 -10   11.10    7.60
   1   2   2  162.98    8.00
   1  14   3   22.90    6.70
  -4   3 -12  251.27   19.30
  -4   3 -11  216.48   17.40
  -4   3 -10  293.97   18.80
  -4   3  -9   54.79   13.40
  -4  11  -5  137.59   12.90
  -4  15  -7   38.20   10.10
  -3  -1 -12  147.29   16.90
  -3  -1 -11  459.05   23.40
  -3  -1 -10  757.92   26.40
  -3   0 -15  310.67   21.30
  -3   0  -7 2699.53   43.40
  -3  12  -2  114.59    9.60
  -3  15  -3   30.90    7.50
  -2  -3 -15  167.78   16.40
  -2  -3  -8   49.10   11.90
  -1  -5 -15   73.99   11.70
   0  -7 -13  259.37   15.20
   0  -7 -12  104.39   11.40
   0  -7 -11  363.66   16.20
   1   0   1  674.73   11.50
   2   9   4  301.87   13.60
   2  10   4   11.10    8.70
   6  -8  -4  108.49    8.00
  -4   4  -7  664.63   24.80
  -3  -1 -13   93.09   14.00
  -3  -1  -9   39.80   13.50
   3   2   3  100.09    9.60
  -4  -5  -8 1036.80   21.00
  -3   5   3    1.00    8.50
   1  -5  15   70.89   13.30
   2 -15  -3   -6.70    9.80
   2  -8  -2  172.48   13.20
   3 -14   0  321.47   20.00
   3 -13   0   25.40   12.20
   3 -12   0   31.20   11.90
  -4   6  11  605.54   14.90
  -3  -2  -6  895.41   19.10
  -1   1  14   -4.30    6.20
   0  -2  15  305.77   17.20
   1 -11  -5  223.78   11.90
   2 -12  -3   42.30    9.80
   2  -9  14    6.80   12.40
   2  -7  13   84.49   14.00
   2  -4  10  667.33   23.60
   3 -16   1    3.40    9.90
   3 -12  11    2.00   11.20
   3 -10   1 1068.59   29.50
   3  -7   7  440.96   22.00
  -3  -6  -8  248.58    8.60
   0 -17  -6   -0.60    7.20
   1 -18  -4   74.29   10.40
   1 -12  -5   48.90    8.50
   1  -4  14   14.90   13.40
   1  -3  13  104.09   13.80
   2 -19  -1  151.08   14.80
   2  -3   7 1528.25   29.20
   3 -15   1  454.55   20.80
   3 -11   1    9.60   11.60
   3  -9   2  169.88   18.10
   3  -8   3  292.87   19.80
   3  -8   8  150.88   16.60
  -1   1  -1  578.94   13.80
   2  -6  12    5.10   10.20
   2  -3   5 2530.45   35.20
   2  -3   6 1424.96   27.70
   3 -17   3   56.49   12.60
   3 -14   1   17.70   10.20
   3 -13   1   51.19   12.40
   3 -12   1   83.99   14.40
   3 -12  10   24.00   14.60
   3  -8   4   64.49   13.70
  -3   4   0  389.76   16.10
   0 -16  -6   32.50    8.90
   1  -6  15  -13.40   11.60
   2 -16  -2   13.20    9.70
   2  -9  -2 1208.88   25.10
   2  -8  13    6.50   11.40
   2  -7  -1   11.00    8.60
   3 -17   4  395.06   21.00
   3 -17   5   34.30   13.80
   3 -15   2   -2.40   10.40
   3 -10   2  626.34   24.30
   3  -9   3  394.26   21.90
   3  -9   8  253.07   19.80
   3  -8   5   95.99   16.00
  -3   5   2    2.10    7.70
   1 -17  -4  114.79   10.80
   2 -18  -1   66.19   10.60
   3 -15   8  -13.80   10.90
   3 -14   2   40.10   12.30
   3 -14   9   43.70   13.60
   3 -13   2   -6.40   10.60
   3 -13   9  106.59   15.50
   3 -12   2  112.69   14.00
   3 -12   9    3.70   12.80
   3 -11   2  329.07   19.80
   3 -10   8  671.63   26.60
   3  -9   4  312.37   20.20
   3  -9   7  210.28   17.10
  -3   1  -4  439.96   16.40
  -3   5  12   86.79    5.40
  -2  -3  -6 1432.76   17.50
   1 -19  -3   -0.60    7.30
   2 -15  -2   25.70    8.10
   2 -10  -2 1218.68   25.50
   2  -9  13  111.09   13.90
   2  -7  12   26.30   12.30
   2  -6   0  171.88   13.20
   2  -5  10  630.04   22.80
   3 -16   5  453.35   22.30
   3 -16   6    3.50   11.30
   3 -15   3   34.30   11.30
   3 -15   7  173.28   16.70
   3 -14   3    3.20   10.20
   3 -13   8   50.09   15.10
   3 -12   8  161.78   18.30
   3 -11   8   76.89   15.30
   3  -9   5   47.20   14.50
   3  -9   6  185.18   17.50
  -3   6   6  303.97   12.00
   0  -4  16   43.80   12.70
   1 -16  -4   17.50    7.70
   1  -7  15   28.80   11.60
   1  -5  14    8.90   12.00
   1  -2  11   14.20   10.80
   1  -1   9   34.80    9.60
   2 -17  -1  141.39   11.60
   2 -13  -2   36.90    9.40
   2 -11  13    4.80   13.90
   2 -10  13   86.59   14.40
   3 -15   6    9.00   11.10
   3 -13   3   46.10   11.90
   3 -13   7   80.99   16.20
   3 -12   3   89.29   14.60
   3 -10   4   20.10   12.70
   3 -10   5  237.88   18.70
   3 -10   6  220.08   17.60
   3 -10   7  936.41   29.90
  -4  -4  -8   22.50    7.20
  -4  -2  -7  218.18   11.90
  -3   3  -2   14.30    8.70
  -3   6   8  134.79    8.10
   0 -14  -6   65.49    8.80
   0   0  12  158.08   11.00
   1 -18  -3    4.70    8.30
   1  -4  13   33.40   11.40
   2 -19   1   -0.50    9.00
   2 -18   0   47.30    8.80
   2 -16  -1  141.19   12.20
   2  -8  12   46.10   12.10
   3 -14   5    8.70   11.00
   3 -14   6   30.10   11.80
   3 -13   4   15.10   10.90
   3 -13   5   35.40   12.10
   3 -12   4   11.90   13.00
   3 -12   5   81.79   15.00
   3 -12   6   14.70   12.00
   3 -12   7   21.30   12.90
   3 -11   5   39.90   14.50
  -3  -3  -7   -2.40    6.30
  -3   6   5 1603.04   25.40
  -2   0  -4    9.00    7.00
  -2   5   6    4.70    5.30
  -2   5   7  390.46   10.00
   0 -13  -6   16.80    7.20
   0 -11  -6    0.00    6.90
   0   1  10    8.70    6.80
   1 -15  -4   39.60    8.10
   2  -9  12   17.70   12.50
   2  -4   4  262.87   14.10
   2  -4   7  723.03   21.40
   1 -19  -2  114.19   12.30
   1 -14  -4   38.80    9.00
   1  -8  15   -0.60    9.20
   1  -6  14    8.30    9.90
   2 -17   0   20.70    9.20
   2 -15  -1  229.78   15.00
   2  -9  -1  633.34   19.40
   2  -7  11  155.18   13.80
   2  -6  10   37.70   11.10
   2  -5   2  734.83   21.60
   2  -4   6  678.03   19.90
  -3   5   1  462.35   16.40
   0  -5  16  131.69   14.20
   0  -2  14   13.70   11.00
   0  -1  13    7.50    8.60
   1 -17  -3   18.30    8.30
   1  -1   8 1334.57   22.80
   2 -12  12    9.60    9.30
   2 -11  12  400.96   20.60
   2 -10  12    5.20    9.20
  -3  -1  -6 2865.51   33.30
  -3   4  -1    1.70   10.30
   1  -2   1   34.40    9.40
   1  -2  10  139.59   12.90
   2 -12  -1   14.90   10.10
   2 -11  -1  433.96   16.90
   2 -10  -1   14.40    9.10
   2  -8  11    5.00    9.40
  -3  -5  -8   -2.70    5.20
  -2   4   1  675.73   17.30
  -1   2   0 1178.98   17.60
   1 -18  -2    6.60    8.70
   1  -7  14   13.60   10.30
   1  -5  13   52.49   11.00
   2  -9  11   20.90   11.50
   2  -7  10   15.70   11.50
   2  -5   3  209.48   13.90
   1 -19  -1   -0.10    9.50
   1  -4  12   21.20   11.10
   2 -18   4   75.39   12.00
   2 -18   5    2.30   10.80
   2 -17   2   68.39   11.30
   2 -10  11    2.10   10.20
  -4  -6  -9   37.90    5.80
  -3   6   3  446.56   15.60
  -3   6  10    3.70    4.70
  -2   3  -1 3914.11   40.00
  -1   3   2  982.40   15.70
   0 -18  -4   31.30    8.50
   0  -7  -5    2.30    5.20
   0  -6  16   21.70   10.40
   0  -4  15    2.00    9.20
   1  -8  14  213.58   15.30
   1  -1   4 3275.57   29.70
   2  -9   0  406.26   17.20
   2  -7   1  468.35   18.70
   2  -6   2  178.28   14.90
   2  -5   4   71.29   11.00
  -4  -3  -8   56.29    8.20
  -1 -17  -6   -1.30    7.80
   1  -9  14   93.59   13.90
   1  -4  -1 1802.62   23.20
   1  -3   0  400.26   13.90
   1  -1   6  908.71   17.50
   2 -17   4   70.79   12.20
   2 -16   8   13.60   12.70
   2 -15   1  117.89   12.50
   2 -13  10   11.70   12.70
   2 -12   0  264.67   14.70
   2 -10   0   74.19   11.40
   2  -6   8  -22.70    9.80
   2  -5   5  104.19    9.30
  -3   2  -4   34.50    8.60
  -3   5   0   76.69    9.60
  -2   5   9  248.78    7.20
  -1 -12  -7   10.50    5.10
   0 -15  -5   51.59    9.30
   1 -19   0  109.59   13.00
   1 -18  -1   62.09    9.40
   1 -10  14   54.99   12.20
   1  -2   9  101.19   10.50
   1  -1   5  767.32   15.40
   2 -14   1  120.19   13.60
   2 -12  10  112.69   14.90
   2 -11   0   25.40    9.90
   2 -11  10  194.18   17.20
   2  -8   1   77.39   12.00
   2  -6   3  331.57   16.70
  -3   3  -3  235.38   13.20
  -2  -9  -8    5.70    2.20
  -2   5   3   72.19    7.70
   0  -3  14  183.58   13.60
   1 -16  -2  168.58   12.30
   1  -7  13  338.87   18.10
   1  -5  12   63.29   12.80
   2 -16   6   39.30   11.10
   2 -16   7   13.10   10.70
   2 -15   2   40.10   11.00
   2 -15   8   32.70   12.20
   2 -14   9   37.90   12.20
   2 -13   9  107.29   15.90
   2  -8   9   -5.80   11.30
   2  -7   2   31.70   12.00
   2  -7   8   -3.90   11.30
  -4   7  11   36.30    5.70
  -3   6   2    0.00    7.20
  -1  -1  15   25.70    8.40
  -1   1  13   30.80    6.50
   0 -17  -4   10.10    6.50
   0 -14  -5   80.49    8.60
   0  -5  15   58.49   11.10
   0  -3  -3  774.92    7.80
   1 -13  -3   84.19   10.30
   1  -3  10  382.26   15.90
   2 -15   3   12.00    9.60
   2 -15   7  111.89   13.30
   2 -14   8  186.08   16.40
   2 -13   1  108.39   11.60
   2 -12   9   -2.90   10.10
   2 -11   9   52.09   12.00
   2 -10   9   29.90   11.30
   2  -9   1  562.24   20.10
   2  -9   9   50.89   12.50
   2  -6   5 2157.88   35.60
   2  -6   6  117.99   13.00
  -3  -2  -7  487.85   13.60
  -1 -16  -6  136.79   10.50
   0  -2  13  385.16   15.70
   0  -1  12   45.10    8.60
   1 -19   1    0.60    6.70
   1 -12  -3   59.69    8.90
   1 -11  -3   29.00    8.20
   1  -8  13    8.00   10.00
   1  -6  -2  135.69    8.00
   1  -4  11   -9.90   10.70
   2 -15   4   -2.90   10.30
   2 -15   5   10.10    9.20
   2 -15   6  124.19   14.50
   2 -14   7   14.80   12.30
   2 -13   8   17.00   11.80
   2 -10   1   56.39   11.60
   2  -8   2   63.99   13.00
   2  -8   8  286.17   18.20
   2  -7   3   54.69   12.80
   2  -7   7  177.58   15.50
  -2 -12  -8   26.30    4.40
  -2   4   0  677.53   18.20
   0 -18  -3   57.39    9.60
   0 -13  -5    2.30    7.50
   0  -8  -5 3094.09   25.40
   1 -19   2  166.48   13.40
   1 -15  -2   90.49   10.20
   1 -11  13  126.99   15.80
   1 -10  13   53.79   13.10
   1  -9  13   82.29   13.00
   1  -6  12   88.19   12.10
   1  -2   2  176.28   10.30
   2 -14   6  167.78   14.60
   2 -12   8   24.80   12.50
   2 -11   8   10.10   11.00
   2 -10   8  669.83   24.80
   2  -7   6  493.15   20.30
  -4  -5  -9  387.06   11.20
  -3   0  -6   14.10    7.60
  -2  -2  -6  596.04   12.10
  -1 -18  -5   -0.80    6.50
   0 -19  -2    2.10    7.70
   0 -16  -4   81.79    8.70
   0  -6  15   59.29   12.20
   1 -16  -1   34.10    8.60
   2 -14   5   51.09   11.10
   2 -13   3    2.00   10.40
   2 -13   7   22.60   10.90
   2 -12   7    8.80   11.40
   2 -10   2  199.58   14.70
   2  -8   3   43.90   14.10
   2  -8   7  100.19   13.30
   2  -7   5 1036.50   26.50
  -4  -2  -8   41.50    8.20
  -2 -11  -8    0.90    3.40
  -2   2  -3 3307.47   36.70
  -2   5   2  166.78   10.10
   0 -12  -5  116.39    8.30
   0  -4  14   71.09   12.50
   1 -17   0   16.80    8.20
   1  -7  12  394.96   19.30
   2 -11   7  390.26   20.60
   2  -9   3   71.59   12.90
   2  -8   4  277.17   17.60
   2  -8   5  327.37   18.30
   2  -8   6   -2.00   11.10
  -3   6   1   48.10    7.90
  -3   6  11    0.50    4.30
  -2  -4  -7  626.34    9.50
  -2   1  -4   55.29    8.20
  -1 -15  -6   34.80    6.60
  -1   0  -3  298.57    9.10
  -1   1  -2   96.69    8.60
   0 -11  -5  149.79    8.70
   0 -10  -5  152.58    8.50
   0  -9  -5   36.30    6.20
   0  -7  15    5.10    9.10
   1 -13  12   -5.10   10.00
   1  -8  12   77.09   12.20
   1  -5  -1  949.90   17.60
   1  -4  10  564.54   19.00
   2 -11   5   38.00   11.30
   2 -10   3  103.09   13.40
   2 -10   4    3.30   11.00
   2 -10   6  216.98   17.80
   2  -9   4  291.67   17.70
   2  -9   5   42.90   14.50
   2  -9   6  184.58   15.80
  -3   7   7 1308.47   20.80
  -2   3  -2  185.58   11.10
   0  -8  15  131.89   13.70
   1 -11  12   11.30    8.40
   1 -10  12   17.20   10.50
  -1   3   1  294.27   10.60
   0 -19  -1   14.70    7.70
   0  -5  14   80.79   11.20
   0  -3  13  483.75   19.00
   0   0  10 2474.05   27.20
   1 -18   4   58.09   11.40
   1 -18   5    5.30    9.20
   1 -16   0   40.70    9.00
   1  -6  11  579.94   21.00
   1  -3   1  218.28   10.20
   1  -2   3  218.38   10.20
  -3   3  -4  286.87   14.90
  -3   7   8    0.50    5.40
  -1  -4  16  106.49   10.70
  -1  -2  15    5.60    8.40
   0   1   8    9.60    5.70
   1 -16   9   71.69   12.70
   1 -15  10   -1.00   10.80
   1  -4   0 3039.80   30.40
   1  -2   6 1452.75   22.30
  -4  -4  -9   96.49    8.00
  -3   2  -5   52.49    9.90
  -2   3  13  148.49    5.10
  -1 -14  -6  125.89    8.80
   0 -16  -3  140.79   10.80
   0  -6  14    1.00    9.30
   0  -1  11  274.37   13.50
   1 -14  10   23.80   10.70
   1  -7  11   77.79   11.80
   1  -5  10    5.20    9.30
  -3  -1  -7   22.30    6.90
  -2   5   1 1378.96   24.80
  -1   2  -1   30.30    7.70
  -1   4   6   10.30    3.50
   0 -19   0   -0.10    8.30
   1 -17   4   -6.00    9.10
   1 -17   5   16.20    9.90
   1  -8  11  159.78   14.10
   1  -6  -1    1.40    6.90
  -1 -16  -5    8.30    6.20
  -1  -5  16    2.30    8.60
  -1   4   4    6.50    4.70
   0 -18  -1   -3.70    8.10
   0 -17  -2  104.49    9.90
   0  -7  14  325.77   16.80
   0  -4  13  189.48   14.60
   1 -16   2   37.80    9.80
   1 -16   7    5.80   10.30
  -4   8  10    4.10    5.50
  -3   7   9    5.20    5.20
  -2 -17  -6    2.20    6.90
  -2   2  14   21.90    5.40
  -2   5  10  431.96    6.70
  -2   6   5  171.98    9.60
  -1 -13  -6  285.67   10.90
  -1  -1  14    2.00    7.20
   0 -19   1   11.20    7.20
   0 -15  -3   33.30    8.20
   0  -9  14  180.28   14.90
   0  -8  14   25.60    9.90
   1 -16   4    7.50    8.50
   1 -16   5   13.20    9.00
   1 -16   6  146.39   13.20
   1 -15   8   60.49   12.00
   1 -14   9   67.19   11.40
   1 -12  -1  147.19   11.30
   1  -3   7  393.96   14.10
  -3  -3  -8    4.20    5.00
  -2   6   6  448.06   12.00
  -1  -3  15   39.00    9.80
   1 -15   2   42.40    9.80
   1 -13   9   -1.20   10.00
   0 -18   0    0.60    7.20
   0 -17  -1  401.46   17.20
   0 -16  -2  184.78   11.60
   0  -5  13   29.60    9.20
   0  -3  12  137.69   12.10
   1 -15   3  -10.10    8.40
   1 -14   1   10.40    9.40
   1 -14   8   44.40   11.50
   1 -13   0   30.70    8.90
   1  -8  -1   16.10    7.30
   1  -5   0    2.40    5.80
   1  -4   1  131.99   11.20
  -4  -3  -9   53.79    7.00
  -2  -1  -6  145.59    7.80
  -2   6   7   34.30    5.80
  -1 -19  -2  147.89   12.10
  -1 -18  -3  236.48   13.30
  -1 -12  -6    8.10    6.20
   0 -12  13    6.40    8.70
   1 -15   4   30.30    9.70
   1 -15   5  126.89   13.30
   1 -14   7  164.78   15.10
   1 -12   9   -7.20   10.60
  -2 -18  -5    1.00    5.70
  -2 -14  -7   14.20    5.40
  -2   5   0 4928.71   46.90
  -2   6   3 2880.81   33.30
  -1  -4  15   -3.10    9.60
  -1   1  12  257.77    9.90
  -1   4   3 5674.83   33.50
   0 -11  13   15.30    8.50
   0  -6  13  158.48   13.20
   0  -2  11   93.19   11.00
   0   0   9    0.40    6.80
   1 -14   2   55.79   10.50
   1 -14   6  115.49   13.60
   1 -13   1   17.70   10.10
   1 -12   0  375.16   15.70
   1 -11   9  112.29   13.10
   1  -5   8   55.29   12.20
  -3  -7  -9  162.38    4.30
  -2   2  -4  486.85   15.00
  -2   3  -3  193.78   10.60
   0 -17   0    9.90    6.90
   0 -10  13   66.39   12.80
   0  -8  13  491.15   22.00
   0  -7  13  246.78   16.20
   1 -14   5  190.98   14.80
   1 -13   7  310.97   18.10
   1 -12   8  153.38   15.20
   1  -8   9  141.89   15.00
   1  -6   0 1687.03   25.80
  -3   0  -7 2657.63   32.30
  -1  -2  14   46.40    9.40
   0 -18   3   68.39   11.30
   0 -18   6  117.39   13.80
   1 -13   2    9.60   10.10
   1 -12   1   32.30   10.30
   1 -11   8  470.15   21.20
   1  -6   8    1.90    9.70
  -3   7  10   10.00    5.50
  -3   8   5 1053.69   22.80
  -2   1  -5  151.18   10.70
  -2   4  -2  213.38   11.40
  -2   6   2  105.09    9.40
  -1 -14  -5  187.38   10.50
  -1 -11  -6   70.99    6.40
  -1  -5  15   12.40    9.80
   0 -18   4   32.00   10.30
   0 -18   5  156.48   14.10
   0 -17   8   13.90   10.20
   0 -14  11  149.09   17.30
   0 -13  -3   65.09    8.60
   0  -8  -4  172.28    8.10
   1 -13   5    8.90   10.70
   1 -12   7    5.40   10.40
   1 -10   8  603.44   23.50
   1  -8   0  138.69   10.90
   1  -7   0  173.08   11.30
   1  -7   8   16.70   11.20
   1  -5   1 9999.00   61.29
   1  -5   7  115.99   11.10
   1  -4   2 1990.90   28.50
   1  -4   6  270.57   13.40
  -4  -2  -9   39.80    7.50
  -3   8   6  615.94   17.30
  -1 -18  -2   72.69    9.30
  -1 -17  -3   22.00    7.80
  -1  -6  15   15.30    9.30
  -1   4   7   43.70    2.80
   0 -17   7  293.87   18.50
   0 -16   9    3.60   10.50
   0 -15  10    7.30   11.20
   0 -11  12   43.30   10.10
   0  -5  12   22.20   11.30
   1 -12   6    3.10   11.50
   1 -11   1   86.19   11.10
  -2 -17  -5   85.09    8.40
  -2 -13  -7   31.60    5.80
  -2  -2  16  168.48   12.10
  -2   6   8  140.39    7.10
  -1 -10  -6  429.76   10.90
  -1  -9  15   20.30   11.20
  -1  -7  15   11.70   10.50
  -1   4   2  819.72   15.20
   0 -17   6   -1.90    9.60
   0 -16   0   54.09    9.30
   0 -16   8   63.79   14.60
   0 -15  -1   70.09   10.30
   0 -14  -2   36.80    9.10
   0 -13  11   21.80   11.10
   0 -12  -3    9.40    7.40
   0 -10  12    5.20    8.60
   0  -6  12  287.77   17.90
   0  -3  11  315.07   15.70
   0  -2  -2   25.90    3.40
   1 -12   4  758.92   24.00
   1 -12   5   87.49   12.70
   1 -11   6   53.99   12.80
   1 -10   1  183.78   13.30
   1 -10   7  127.39   15.30
   1  -6   7    0.40   10.80
   1  -4   3  996.70   21.60
   1  -4   4  182.78   12.30
   1  -4   5 2218.38   32.10
  -3  -6  -9   20.90    3.70
  -3   6  12   46.70    3.90
  -2   5  -1 1838.92   30.10
  -1  -3  14  723.03   21.10
   0 -17   3  350.56   17.90
   0 -17   5   60.29   11.90
   0 -15   9    1.30   11.40
   0 -14  10   20.70   12.10
   0  -9  12  203.38   15.20
   0  -8  12   62.49   11.50
   0  -7  12  104.99   12.20
   1 -11   2    5.50    9.90
   1 -11   5  220.28   15.40
   1  -9   7  190.38   15.70
   1  -8   7    8.20   11.90
   1  -5   6   83.09   11.10
  -2 -15  -6  129.89    9.30
  -1 -19   1   -7.60   10.10
  -1 -18  -1   54.29    9.90
  -1 -13  -5   10.10    7.00
  -1  -6  -6  615.54    7.10
  -1  -1  13   27.10    8.80
   0 -16   7  195.28   16.20
   1 -11   3  504.15   19.60
   1 -11   4  103.59   12.60
   1 -10   6  424.66   20.00
   1  -8   1  179.98   12.40
   1  -7   1 3255.77   38.30
   1  -6   6  622.14   22.20
   1  -5   5   19.40    9.60
  -1 -17  -2  229.78   13.70
  -1 -16  -3  305.47   14.10
  -1  -9  -6   74.89    6.00
  -1   1  -3  613.74   13.30
  -1   2  -2  163.38    9.40
   0 -16   2  193.08   14.20
   0 -16   6   39.60   10.80
   0 -15   8  315.77   19.10
   0 -13  10  126.29   15.00
   0 -11  -3   37.50    7.00
   0  -4  -3   46.60    4.30
   0  -4  11    0.20   10.30
   0  -2  10  275.27   13.70
   0   0   8 3743.33   30.80
   1 -10   4    8.90   11.80
   1 -10   5  197.38   15.40
   1  -9   2  313.67   15.80
   1  -9   6   73.29   10.80
   1  -8   6  399.96   19.90
   1  -6   2 1434.96   27.10
   1  -5   4   37.50   10.60
  -3   1  -7   26.50    8.20
  -1 -19   2  111.19   12.70
  -1 -11  14   18.40   11.00
  -1  -4  14   39.70   11.30
  -1   3   9  156.98    4.90
   0 -16   3  133.89   13.60
   0 -16   4   85.79   11.80
   0 -16   5    7.30   10.40
   0 -14  -1  324.27   15.10
   0 -14   9   16.60   10.80
   0  -1   9 2982.30   32.10
   1  -9   3  244.68   15.40
   1  -9   4   78.69   13.00
   1  -9   5  325.77   17.90
   1  -8   5  682.03   23.80
   1  -7   2 2360.76   34.40
  -1 -18   0   47.40   10.20
  -1 -10  14   70.99   13.20
  -1  -8  -6  378.96    8.40
  -1  -7  -6  126.29    5.40
   0 -15   1   66.09   11.20
   0 -15   7  112.79   14.40
   0 -12  10   19.30   11.90
   0  -5  11    4.10   10.60
   1  -8   3   37.90   11.60
   1  -7   3   34.00   11.20
   1  -6   3  600.84   18.70
   1  -6   4    9.10   10.20
  -3  -5  -9   64.59    5.00
  -2 -16  -5    4.10    6.60
  -2  -4  16   41.80   10.20
  -2   3  -4  115.39   10.20
  -2   4  -3  178.68   12.00
  -1  -9  14   -7.20   10.20
  -1  -8  14    7.80   10.40
  -1  -6  14   25.90   10.40
  -1   0  12    5.00    7.10
  -1   4   1 1852.61   23.30
   0 -15   6  181.08   14.80
   0 -14   8  -10.30    9.80
   0 -13   9    0.80   10.50
   0 -12  -2   13.60    8.10
   0  -8  11   18.30   10.70
   0  -7  11  398.96   18.70
   0  -6  11   10.50   10.90
   0  -3  10    8.10    9.10
  -2  -2  -7  157.98    6.90
  -2  -1  15  250.57   13.40
  -2   1  14   11.20    6.10
  -2   6   0  165.98   11.60
  -1 -18   1   49.10    9.40
  -1 -12  -5   92.89    7.70
  -1 -12  13  142.59   14.10
  -1  -7  14  121.59   13.10
  -1  -2  13  714.33   19.90
  -1   0  -4   -3.00    5.40
  -1   3  -1  170.98    8.70
   0 -15   3   26.60   10.00
   0 -15   4   10.20    9.50
   0 -15   5   49.10   12.30
   0 -11  10  414.56   20.40
  -2 -14  -6  174.38    9.90
  -2  -5  16    6.90   10.30
  -2   2  -5  326.17   13.70
  -2   5  -2  683.43   19.70
  -2   7   4  783.92   18.50
  -1 -18   6  124.29   15.40
  -1 -16  -2   26.90    8.70
  -1 -15  -3   -3.10    7.40
  -1 -11  13   -3.00    9.40
   0 -14   7  217.28   17.00
   0 -13   8   78.09   12.80
   0 -10  10  343.37   18.50
  -2 -19  -1   -1.70    7.90
  -2   7   5  736.13   16.50
  -1 -18   5   15.10   10.30
  -1 -17   0   15.30    7.60
  -1 -17   8   67.09   12.80
  -1   1  11    4.90    6.70
   0 -14   1  353.56   16.50
   0 -14   6   55.89   12.20
   0  -9  10   18.80   13.60
   0  -5  -3  230.48    7.80
   0  -4  10    6.40    8.00
   0  -2   9  658.23   18.00
   0   1   5  466.85    8.10
  -4  -4 -10   59.99    6.30
  -3  -4  -9  249.88    8.50
  -3   8   9    9.10    5.70
  -1 -17   7   13.20   10.40
  -1 -16   9   29.90   13.00
  -1 -15  10   13.80   11.60
  -1 -14  11   92.69   15.60
  -1 -10  13    2.70   10.10
  -1  -3  13   15.20   12.00
   0 -14   2   36.90   10.60
   0 -14   5   67.09   13.00
   0 -13   0   -1.40    8.80
   0 -13   7   14.80   11.00
   0 -12   8  151.38   16.20
   0  -5  10   13.60   11.30
  -3   0  -8    8.10    7.80
  -2 -19   0   63.19   11.60
  -2 -18  -2   16.30    7.10
  -2 -15  -5   12.70    7.30
  -2 -11  -7  389.06   10.80
  -2   7   2  224.08   12.20
  -2   7   6   61.29    7.20
  -1 -17   1    0.40    8.50
  -1 -17   6   36.40   13.10
  -1 -16  -1  196.88   12.60
  -1 -11  -5  219.48   10.20
  -1  -9  13  -15.20   11.00
  -1   2  10  338.77    9.30
   0 -14   4    9.40    9.80
  -3 -16  -6    2.40    7.60
  -3   7  11   19.00    4.70
  -2 -17  -3   69.69    9.70
  -2   6  -1 2124.89   33.80
  -1 -17   5   11.60    9.90
  -1 -16   8   72.99   13.70
  -1 -15  -2   52.49    9.90
  -1 -14  -3   27.10    8.90
  -1 -13  11  103.29   17.00
  -1  -8  13   35.70   12.40
  -1  -4  13  399.36   17.70
   0 -13   1   96.79   12.30
   0 -13   6   23.50   11.50
   0 -10   9   20.20   11.60
  -4  -3 -10  303.37   10.80
  -2 -19   1  166.08   14.20
  -2   6   9  251.27    6.70
  -1 -17   3   14.40   10.60
  -1 -15   9   64.49   13.10
  -1  -7  13    2.00   10.40
  -1  -6  13   60.69   10.60
  -1  -5  13   -4.90    9.80
  -1   4   0 3034.00   31.30
   0 -13   2  162.48   13.10
   0 -13   5    5.30   11.30
   0 -12   0  690.83   20.80
   0 -11   8   42.60   12.80
   0  -9   9  532.35   22.40
   0  -3   9   88.09   10.10
  -3 -17  -5   23.00    7.00
  -3  -3  -9   37.20    5.90
  -3   9   7  480.25   16.00
  -2 -19   2   -4.30    9.30
  -2 -18  -1   70.09   10.60
  -2 -13  -6   18.80    6.30
  -2  -9  15   10.20   10.60
  -2  -3  15    2.40    9.30
  -2   2  13  498.45   11.80
  -2   4  -4  271.07   13.80
  -2   7   1   16.20    7.50
  -1 -16   0   40.30    9.00
  -1 -16   7   24.20   11.80
  -2  -8  15   -6.00    9.60
  -2  -4  15   42.80   10.70
  -2   0  14  104.29    9.60
  -2   7   7   26.90    6.00
  -1 -16   6   11.70   10.40
  -1 -15   8   22.20   11.00
  -1 -12  11   -8.70   11.40
  -1 -10  12   -0.90   10.80
   0 -10   8  344.07   18.90
   0  -7   9   30.50   11.40
   0   1   4 2990.40   16.50
  -3 -14  -7   -3.50    5.30
  -2 -18   0   54.09   12.10
  -2 -11  14    5.90   11.80
  -2  -7  15  100.69   12.80
  -2  -6  15   70.29   12.20
  -2  -5  15   37.00   11.30
  -1 -16   2  185.18   16.00
  -1 -16   5   -0.10    9.90
  -1 -15  -1   44.00    9.40
  -1 -14   9   11.20   12.20
  -1 -13  10   29.90   13.20
  -1  -9  12   -0.60   10.20
  -1  -2  12  294.27   14.50
  -1   2  -3  226.78   10.00
  -1   3  -2  490.65   14.60
  -1   5   3  614.44   12.80
   0 -12   5  112.09   14.30
   0  -9   8   12.50   11.20
   0  -6   9  593.74   21.30
  -2 -14  -5   41.60    8.10
  -2   6  -2  183.38   13.40
  -2   7   0  246.38   14.00
  -1 -16   3    5.00   10.90
  -1 -16   4   17.80   10.30
  -1 -15   7    6.50   11.40
  -1 -14  -2   53.49   10.60
  -1 -13  -3  396.16   15.80
   0 -12   2    8.10   10.00
   0 -12   3   17.60   11.10
   0 -12   4   46.30   11.90
   0 -11   0   -5.50    8.60
   0 -11   6    3.20   11.80
   0 -10  -1   36.80    8.80
   0 -10   7  125.79   14.60
  -3  -2  -9  154.78    8.70
  -2 -18   1   83.59   11.00
  -2 -16  -3   10.10    8.30
  -2 -10  -7   44.20    6.00
  -2 -10  14    3.80   11.10
  -1 -14   8   93.49   16.40
  -1  -8  12    4.70   10.20
  -1  -3  12  881.91   23.30
  -1  -1  -5  669.53   10.50
  -1   0  11   47.90    8.20
  -1   5   2    4.30    6.40
   0  -8   8   20.40   12.50
   0   0   6   95.69    7.00
   0   1   3  298.27    5.00
  -3   8  10  220.18    8.90
  -3   9   8  969.80   20.30
  -2 -18   2   75.99   11.40
  -2 -18   4   39.40   13.70
  -2 -18   5   28.50   12.40
  -2 -17   8    9.60   13.70
  -2 -12  13   -5.50    9.50
  -2  -1  14    6.70    9.40
  -1 -15   6   70.49   13.30
  -1 -13   9    2.10   12.60
  -1 -12  10  317.07   20.10
  -1  -7  12   86.99   12.50
  -1  -6  12   10.50   11.60
  -1  -4  12  113.09   14.10
  -1   1  -4 2999.00   27.50
  -1   4  -1  145.39   10.60
  -1   5   5   76.79    5.50
   0 -11   1  455.15   18.30
   0  -9   7    7.60   11.90
   0  -7   8   13.30   10.70
  -2 -16   9  177.88   19.20
  -2 -12  -6  260.07   10.90
  -2  -9  14   37.50   12.10
  -2   0  -7  185.88    9.50
  -1 -15   5  109.09   14.70
  -1 -14  -1   15.20    8.80
  -1  -9  -5  262.37    9.90
  -1  -5  12   47.20   13.30
   0 -11   2  331.27   16.50
   0 -11   4   10.60   10.90
   0 -10   0 1916.81   31.60
   0  -6   8  389.96   17.60
   0  -5   8  464.75   18.50
   0  -4   8   15.20    8.00
   0  -3  -2  312.67    7.80
  -2 -17   7   77.29   14.40
  -2 -15  10  141.99   17.10
  -2 -14  11   27.00   13.40
  -2 -11  13   -2.30    9.50
  -2  -8  14  194.18   16.40
  -2   8   4 1591.94   26.80
  -1 -15   3  256.37   17.30
  -1 -15   4   28.70   11.30
  -1 -14   7    2.00   12.30
  -1 -11  10   90.09   15.10
  -1   5   1  989.60   18.50
   0 -10   5  148.39   14.50
   0  -8   7  303.97   18.30
  -3 -18  -2   30.60   10.10
  -3  -2  16    8.70   11.10
  -3  -1  -9   39.30    7.70
  -2 -17   0   34.70    8.80
  -2 -17   6   39.60   13.30
  -2 -16  -2   12.90    9.00
  -2  -2  14   14.80   10.10
  -2   8   5  251.47   12.10
  -1 -13  -2   17.50    9.40
  -1 -13   8   92.99   13.90
  -1 -12  -3  215.98   12.00
  -1 -12   9   95.09   15.20
   0 -10   1   40.60    9.50
   0 -10   4   26.60   11.60
   0  -9   6 1099.19   29.20
  -3 -13  -7   60.69    7.30
  -2 -17   1  160.58   14.40
  -2 -17   5  405.76   22.30
  -2 -16   8   41.10   13.80
  -2 -15  -3   20.40    8.70
  -2 -13  -5  378.26   14.80
  -2 -10  13  112.29   14.40
  -2  -7  14   87.09   12.10
  -2  -6  14  175.08   15.20
  -2  -3  14   12.30   11.80
  -2   1  13   18.70    7.40
  -1 -10  10   59.39   14.70
  -1   1  10   36.80    7.80
   0 -10   2   43.40   11.50
   0  -9   0   -7.80    8.10
   0  -8  -1   -0.50    7.30
   0  -7   7  243.28   16.50
  -3 -11  -8   67.39    6.00
  -3  -6  16  346.47   19.20
  -3  -3  16   12.30   10.20
  -2 -17   3   74.29   13.60
  -2 -17   4   14.40   11.50
  -2 -15   9   60.89   14.00
  -2 -13  11   45.40   16.20
  -2  -5  14   -3.70   10.00
  -2   7   8  140.99    6.90
  -1 -14   1  155.48   14.80
  -1 -14   5  268.37   18.20
  -1 -13   7  154.98   17.00
  -1  -7  11  142.49   14.80
   0  -9   5   27.00   12.20
   0  -8   6 1534.35   33.10
   0  -6   7  610.64   21.60
  -3 -18  -1   11.30   10.40
  -3 -17  -3   45.80    9.10
  -3   0  -9    8.00    7.60
  -2 -16  -1  116.49   12.10
  -2 -16   7    2.30   13.20
  -2 -14  10   22.30   13.30
  -1 -14   2  298.17   18.20
  -1 -14   3  499.05   21.70
  -1 -14   4   28.50   11.20
  -1 -12   8  205.78   16.70
  -1   3  -3  412.16   14.50
   0  -9   1 1149.98   25.40
   0  -9   4 2784.32   42.10
   0  -5   7  834.62   23.30
   0  -1   6  614.64   14.70
  -3   1  15    7.10    7.30
  -2 -16   6   32.30   14.40
  -2  -9  -7  182.18    7.50
  -2  -9  13  -10.50    9.00
  -2  -4  -8  193.68    5.30
  -2   8   6  208.18   10.30
  -1 -13   6   38.70   13.70
  -1 -10  -4   -4.20    6.70
  -1  -9  10  314.97   19.10
  -1  -8  -5  614.84   12.60
  -1  -5  11   87.89   12.70
  -1  -3  11   64.29   12.70
  -1   0  -5  712.63   13.30
  -1   4  -2 1927.21   28.70
   0  -9   2  820.12   22.90
   0  -9   3  441.46   18.70
   0  -8   5 3127.39   44.40
   0  -7   6  395.66   19.50
  -3 -18   0   -1.30   10.50
  -3 -14  -6   42.50    8.20
  -2 -15  -2   31.10   10.50
  -2 -15   8  121.19   16.00
  -2 -12  11   34.70   15.70
  -2  -8  13  334.27   20.20
  -2  -3  -8   45.80    5.00
  -1 -12  -2  383.26   15.90
  -1 -12   7   33.70   12.60
  -1 -10   9  177.68   16.70
  -1  -4  11  515.85   19.20
  -1   2  -4 2840.22   30.60
   0  -8   0   40.90    7.10
   0  -6   6  268.17   16.60
  -3 -17  -2   41.00    9.90
  -3  -8  15  150.98   15.70
  -2 -16   4   80.99   14.90
  -2 -16   5   33.70   12.60
  -2 -14   9  485.35   23.90
  -2 -13  10   25.60   13.90
  -2   0  13   -5.10    9.00
  -1 -13   5  605.34   23.90
  -1 -11   8   20.90   13.60
  -1  -8  10   23.60   12.40
  -1   5   6   35.00    4.50
   0  -8   1   -6.90    8.80
   0  -8   4  196.48   15.80
   0  -2   6   55.89    8.40
  -3 -18   2   46.40   10.70
  -3 -18   4  153.98   16.80
  -3   5  13   44.60    3.70
  -2 -15   7   49.40   13.50
  -2 -14  -3  531.75   19.60
  -2  -7  13  252.97   18.40
  -1 -13   1  387.26   18.40
  -1 -13   2  712.33   23.70
  -1 -13   3   95.09   13.70
  -1 -13   4  868.11   27.30
  -1   0  10   -4.20    9.40
  -1   5  -1 9538.55   63.09
   0  -8   2  835.72   22.80
   0  -6  -1  196.88   10.40
   0  -5   6  194.38   13.70
  -3 -17   7   11.80   15.60
  -3 -16   9   10.30   12.90
  -3 -10  14   12.90   14.40
  -3  -7  15   99.99   14.00
  -2 -15  -1  119.59   11.40
  -2 -14   8   46.60   14.90
  -2 -12  -5  159.08   10.40
  -2  -2  -8   89.19    6.70
  -2   2  -7  161.18   11.00
  -1 -12   6  879.21   28.40
  -1   2   9   12.20    6.10
  -1   6   2  141.09   10.20
   0  -7   4 1299.97   28.50
   0  -6   5  624.24   21.50
  -3 -16  -3  352.06   17.00
  -3 -15  10   27.20   14.80
  -3 -13  12   16.40   12.30
  -3   3  14    5.10    5.60
  -2 -15   6   85.49   14.30
  -2 -12  10   34.90   13.60
  -2  -9  12  405.06   21.20
  -2  -6  13   36.10   11.40
  -2  -1  13   23.90    9.60
  -1 -12   5   40.00   12.60
  -1  -9  -4   85.29    7.90
  -1   6   3   85.59    7.00
  -3 -17   6  414.66   23.70
  -3 -12  -7   20.90    6.70
  -3  -6  15  137.19   13.80
  -3  10   8  310.77   13.20
  -2 -15   0  510.05   20.90
  -2 -15   5   29.10   12.00
  -2  -5  13   10.90   11.20
  -2   8   7  111.69    8.30
  -1  -8   9   10.90   14.00
  -1  -7  -5  545.35   11.10
  -1   6   1    4.40    6.00
   0  -7   1  171.08   12.60
   0  -7   2  124.09   12.40
   0  -7   3 1487.75   29.30
   0  -5  -1 1496.05   21.40
   0  -5   5  358.86   17.10
   0   0   4  173.38    8.30
  -3 -17   0    6.70   11.10
  -3 -17   5    5.40   13.60
  -3 -16   8   32.60   13.90
  -3 -11  13   76.89   14.30
  -3  -9  14   14.80   13.10
  -3  -1  15   -0.60   10.50
  -2 -15   4    9.10   11.70
  -2 -14  -2  120.29   13.00
  -2 -14   7    4.30   13.80
  -2  -8  12  110.39   14.20
  -2  -3  13  156.58   15.40
  -1 -12   1  186.08   14.30
  -1 -12   4  228.78   17.30
  -1 -11   6  152.68   16.30
  -1   1  -5  751.52   15.30
   0  -6   0  710.33   18.30
   0  -6   4  246.68   15.30
   0  -2   5 2793.82   33.00
  -4 -16  -5   43.40    9.00
  -3 -17   1   52.69   10.60
  -3 -17   4  241.08   20.10
  -3 -15   9  249.08   22.10
  -3  -4  15   53.09   11.80
  -3  -3  15  112.59   13.30
  -3  -2  15    4.00   11.30
  -2 -15   2   27.00   12.00
  -2 -15   3    6.00   10.90
  -2   2  12   54.59    7.10
  -2   4  11  101.99    5.10
  -2   9   5   36.70    8.10
  -1 -12   2  567.94   22.10
  -1 -12   3   57.79   12.70
  -1 -10   7  175.18   17.50
  -1  -9   8   74.79   15.20
  -1  -2  10  351.56   16.20
  -1   3  -4  879.91   19.70
  -1   5  -2   78.09   10.20
  -1   6   0 1669.23   27.30
   0  -6   3  818.82   22.20
   0  -3   5  392.56   15.20
  -4 -15  -6    5.00    6.50
  -3 -17   2    7.00   10.30
  -3 -16  -2    1.10    9.40
  -3 -16   7    9.80   13.00
  -3 -14  -5    5.40    8.90
  -3 -14  10  316.27   23.20
  -3 -13  -6    4.20    7.50
  -3 -13  11   16.60   13.30
  -3  -8  14   10.60   10.90
  -2 -14   6   11.10   13.90
  -2 -12   9    2.60   13.20
  -2 -11  10   43.80   13.80
  -2 -10  -6  242.68   10.50
  -2  -7  12  472.45   21.80
  -2   0  -8    5.70    6.70
  -1 -11   5  224.48   17.20
  -1  -7   9  474.45   21.50
   0  -6   1  202.58   13.50
   0  -5   4    0.50   10.60
  -3 -10  -8  661.53   12.80
  -3 -10  13    6.00   11.30
  -2 -14  -1  131.79   14.20
  -2 -13  -3   -1.70   10.10
   0  -5   0    5.50    8.70
  -3 -16  -1    6.30    9.00
  -3 -16   6   -0.30   13.90
  -3 -15   8   -9.10   13.60
  -3  -7  14  195.48   16.80
  -3  -3 -10  197.78    8.90
  -3  -2 -10  594.44   14.50
  -3   8  11  134.59    6.40
  -2 -14   5  319.47   20.50
  -2 -13   7   14.60   14.30
  -2 -11  -5   36.50    8.50
  -2  -8  -7   95.29    5.70
  -1 -11   0  500.05   19.20
  -1 -11   4  175.28   16.60
  -1 -10   6  473.95   22.40
  -1  -9   7   24.00   13.30
  -1  -8   8   46.80   14.30
  -1  -6   9    2.50   11.30
  -1   6  -1 1076.99   23.50
   0  -5   3  257.77   14.90
  -4 -18   1    4.50   10.80
  -3 -16   5  362.66   21.80
  -3  -1 -10  784.52   18.40
  -3   9  10    9.70    5.50
  -2 -14   4  161.48   17.00
  -2 -12   8  268.37   19.60
  -2  -6  12  118.69   13.40
  -2   1  -8   26.00    8.50
  -2   9   6   11.20    7.30
  -1 -11   1  735.23   22.90
  -1 -11   3   23.40   13.20
  -1  -8  -4  935.91   17.20
  -1   2  -5 3479.95   35.00
  -1   6   5   77.29    5.70
   0  -5   1 1529.95   26.00
   0  -2   4  424.66   14.60
  -4 -17  -2   17.80    9.70
  -3 -16   0  485.95   21.60
  -3 -16   4   -1.10   11.90
  -3 -14   9   64.99   15.50
  -3 -13  10  105.39   15.90
  -3 -12  11   58.49   15.60
  -3  -9  13   84.49   12.90
  -3  -6  14   40.50   12.50
  -3  -4 -10   -0.10    4.20
  -2 -14   2  199.78   17.40
  -2 -14   3    6.20   12.10
  -2 -13  -2  397.36   17.70
  -2 -13   6  755.12   28.00
  -2  -5  12  212.68   17.60
  -1 -11   2   48.50   12.40
  -1 -10   5   36.60   13.20
   0  -4   0  839.22   17.60
   0  -4   3   50.39   11.50
  -4  -4  16  216.58   15.50
  -3 -16   3  205.88   18.00
  -3   0 -10   -4.20    7.70
  -3  10   9  374.86   12.70
  -1  -6  -5   49.99    5.30
  -1  -2  -6 1449.06   12.90
  -1   3   8    7.00    4.40
  -1   4  -4  194.48   11.80
  -1   5  -3  439.36   16.60
  -4 -17   6   10.00   13.50
  -4 -15  -5   -1.70    7.60
  -4  -3  16   14.30   10.10
  -3 -15  -2    3.00   10.40
  -3 -14   8   62.59   16.80
  -3  -5  14   64.69   12.60
  -2 -13   5  528.45   24.00
  -2  -9  10  505.75   25.40
  -2  -4  12  264.87   17.40
  -2   0  12  157.08   12.20
  -2   7   9  137.89    5.60
  -1 -10  -1  182.18   12.90
  -1 -10   4   74.49   13.80
  -1  -9   6  267.27   18.40
  -1  -8   7  497.95   22.70
  -1   6  -2 1412.86   28.30
  -1   7   1  436.26   14.90
   0  -4   1  270.37   13.60
   0  -4   2  113.29   11.90
  -4 -17   5   53.89   15.60
  -4 -16   8   25.50   14.70
  -4 -12  -8   -2.20    5.50
  -4  -2  16  166.78   13.50
  -3 -15   6   76.69   14.70
  -3 -13  -5   20.20   10.10
  -3 -11  -7   38.90    7.50
  -3   1  14   -1.20    8.50
  -2 -13  -1  107.09   13.40
  -2 -12  -3 1611.14   29.60
  -2 -11   8   17.30   13.50
  -2 -10   9   75.79   14.80
  -2  -3  12  574.64   21.90
  -2   8   8    8.40    5.40
  -1   0   9  804.82   17.30
   0  -3   0   -3.40    7.90
  -4 -17   0    1.10    9.20
  -4 -17   4   91.99   16.60
  -4 -16  -3   12.90    9.20
  -4 -14  -6    6.70    7.40
  -4 -11  13   19.50   12.90
  -4  -7  15   14.70   12.00
  -3 -15  -1  483.25   21.00
  -3 -15   5   24.40   12.60
  -3 -13   9   79.29   15.50
  -3 -12  -6    5.10    8.40
  -3 -12  10   20.20   13.90
  -3 -11  11   -2.00   13.60
  -3  -4  14   70.69   11.90
  -2 -13   4   12.70   13.30
  -2  -2  12   48.20   11.20
  -2  -1  12  210.78   14.40
  -1 -10   0 1275.07   27.20
  -1 -10   1 1233.08   28.10
  -1 -10   2  620.14   21.60
  -1 -10   3   15.20   11.40
  -1  -2   9    7.70    8.20
  -1  -1   9   69.59    9.60
  -1   3  -5  457.15   14.80
   0  -2   3   34.50    9.80
  -4 -17   1  115.99   13.90
  -4 -17   2   -1.70    9.40
  -4 -16   7   49.20   15.30
  -4 -15   9   50.89   16.00
  -4 -13  -7   -1.40    5.80
  -4  -9  14   32.00   14.90
  -3 -14   7   13.30   12.40
  -3  -9  12  174.88   17.00
  -3  -7  13   34.90   11.90
  -3  -3  14   14.80   11.30
  -3   0  14   -0.90    9.60
  -2 -13   1   64.99   12.60
  -2 -13   3  422.96   21.60
  -2 -12   6  114.49   16.50
  -2  -9  -6  190.08    9.30
  -2  -8  10   23.90   12.10
  -2  -6  11  168.68   15.20
  -2  10   5  114.59   10.30
  -1  -8   6  136.09   15.10
  -1  -7   7  507.55   21.90
  -1   7  -1 3108.19   40.10
   0  -3   2  312.27   12.30
  -4 -14  10   91.19   16.80
  -4 -13  11  134.89   16.90
  -4  -6  15   19.60   11.80
  -3 -15   0    7.50   10.50
  -3 -15   3    4.90   12.70
  -3 -15   4   99.29   14.50
  -3 -14  -3    2.70    8.90
  -3  -2  14   27.50   10.80
  -3  -1  14   14.40    9.30
  -2 -11   7  337.57   20.20
  -2   9   7  433.66   12.70
  -1   5  -4   46.40    9.20
  -1   6  -3  596.74   20.40
  -1   7   4  324.27   11.10
  -4 -16   6   67.89   14.60
  -4 -15   8   32.60   16.50
  -3 -15   2   10.20   12.20
  -3 -14   6   12.40   15.50
  -3 -10  11  194.08   18.90
  -3  -5 -10   -1.80    2.80
  -2 -12  -2  851.31   23.30
  -2 -12   5  410.16   22.00
  -2 -10  -5   15.60    8.20
  -2 -10   8  260.37   20.30
  -2  -9   9  -19.30   13.90
  -1  -9   4   26.90   12.30
   0  -2   2   28.80    9.20
  -4 -10  13  137.49   16.60
  -4  -8  14   18.00   12.80
  -3 -12   9   15.00   14.10
  -3  -6  13   76.49   13.30
  -2  -5  11   31.20   11.70
  -1  -9  -1   10.50    8.00
  -1  -9   3  190.68   14.90
  -1  -6   7  141.29   14.50
  -1  -4   8 2288.07   35.70
  -1   4  -5 2324.27   33.60
  -1   7  -2 2399.26   37.00
  -4 -16  -1    0.90    8.90
  -4 -16   5   14.60   13.00
  -4 -14   9   17.10   13.70
  -4  -5  15   16.20    9.30
  -3 -14  -2   45.60   11.10
  -3 -14   5    0.50   11.40
  -3  -8  12  263.37   17.40
  -2 -12   4  131.89   16.10
  -2 -11   6  463.85   22.60
  -2   3  11   17.00    5.90
  -1  -9   0  694.93   19.90
  -1  -8   5   86.59   13.80
  -4 -16   0   81.39   13.40
  -4 -16   4   13.40   12.50
  -4 -15   7   20.50   14.60
  -4 -13  10    8.00   14.20
  -4 -12  11  101.89   16.90
  -3 -13   7   10.70   13.00
  -3  -5  13   48.40   11.80
  -3   4  13    4.60    5.10
  -2 -12   3   35.60   14.10
  -2  -8   9  164.08   17.80
  -2  -4  11   97.19   12.70
  -2  10   6  210.38   10.90
  -1  -9   1   61.29   10.60
  -1  -9   2  794.62   23.00
  -1   6   6   11.80    4.50
  -4 -16   1  163.78   14.00
  -4 -16   3    0.90   13.70
  -4 -15  -3   -0.20    8.60
  -4 -14  -5  386.46   14.90
  -4  -9  13   -5.70   11.10
  -4  -7  14    7.00   11.20
  -4  -4  15  102.59   11.50
  -3 -14  -1   14.70   11.00
  -3 -14   4   -2.90   12.70
  -3 -12   8   -3.40   14.80
  -3  -9  -8  252.17    8.20
  -2 -12   0  274.27   16.10
  -2 -12   1   19.60   11.30
  -2 -12   2    7.00   12.10
  -2 -10   7  266.67   20.00
  -2  -9   8  217.18   18.70
  -2  -1  -9   29.20    6.00
  -2   0  -9   12.20    6.90
  -1  -8   4  277.27   16.80
  -1  -3   8    3.70    7.90
  -4 -15   6   20.30   12.20
  -4 -14   8  139.09   17.20
  -4  -3  15  211.48   14.40
  -3 -14   0  355.06   18.70
  -3 -13   6  129.39   15.40
  -3 -12  -5   89.59    9.80
  -3 -11   9  182.58   17.20
  -3 -10  10   43.60   14.40
  -3  -7  12   -3.70   10.30
  -3  -4  13    8.90   10.30
  -2 -11   5   80.99   15.80
  -2  -3  11   11.30   10.30
  -2   1  -9   30.90    7.40
  -1  -8  -2   -0.10    5.50
  -1  -5   7 2630.34   39.00
  -1   2   8   62.09    5.80
  -1   3  -6 1819.02   28.10
  -1   5  -5   15.50    8.40
  -1   7   5    2.50    5.40
  -5 -17   0   -4.40    9.50
  -5 -17   1   -9.40   11.00
  -5 -17   2   54.19   11.70
  -4 -13  -6  114.39   10.40
  -3 -14   2  135.29   14.90
  -3 -13  -3   31.40   11.10
  -2  -7  -7  191.18    6.20
  -2  -2  -9    5.80    3.80
  -1  -7   5   -1.80    9.80
  -1  -6   6   14.50   10.00
  -5 -16  -3    6.70    8.00
  -4 -15  -2   18.10    9.80
  -4 -15   5   68.19   13.90
  -4 -13   9  152.18   17.50
  -4 -12  10   -6.90   14.00
  -4  -6  14    5.60   10.40
  -3 -10  -7  930.31   16.90
  -3  -3  13  169.18   14.50
  -2 -11  -2 1035.90   23.50
  -2 -11   4  115.89   15.40
  -2  -7   9  135.09   15.60
  -2  -2  11  271.07   14.30
  -2   2  11  261.47   10.10
  -1  -8  -1  173.98   11.70
  -5 -16   6   18.30   12.20
  -4 -14   7  134.79   17.10
  -4 -12  -7   57.89    7.80
  -4 -11  -8    2.30    4.90
  -4  -8  13   22.40   11.10
  -4  -1  15  291.97   14.80
  -4   0  15   -3.40    9.30
  -4   1  15  237.08   12.70
  -3 -13   5   99.79   15.00
  -3 -12   7   46.60   13.40
  -3  -6  12   36.10   11.00
  -3  -1 -11  447.86   13.60
  -2  -9   7  413.66   20.50
  -2  -8   8    4.80   11.80
  -1  -8   2   30.70    9.60
  -1  -5  -5   11.30    3.70
  -1  -4   7   45.30    9.40
  -1   0   8    7.10    6.20
  -1   1   8  176.98    8.20
  -5 -15   8   13.80   13.10
  -4 -15  -1  146.69   13.80
  -4 -15   4   13.60   11.10
  -3 -13  -2   -5.10    9.10
  -3 -11   8  206.78   18.60
  -3  -9  10    4.50   12.90
  -3  -2  13   82.29   11.40
  -3   3  13  173.68    8.40
  -2 -11   3   85.09   13.30
  -2  -9  -5   58.69    8.30
  -2   0  11    2.20    8.80
  -2   1  11    1.10    7.20
  -2   9   8  196.68    8.70
  -1  -8   0  149.69   10.50
  -1  -8   1   14.80    8.80
  -5 -16  -2   42.70    9.10
  -5 -16   5   -4.60   11.60
  -4 -15   0  224.68   14.90
  -4 -15   1  123.99   13.40
  -4 -15   3   -2.10   12.20
  -4 -13   8   23.20   12.20
  -4  -5  14   61.59   10.90
  -3 -10   9  325.77   19.70
  -3  -2 -11  282.27   10.30
  -2 -11   1  428.26   18.20
  -2 -11   2  168.78   14.50
  -2 -10   5  101.99   15.00
  -2  -8  -6   14.80    5.40
  -2  10   7  268.37   10.60
  -1  -5   6   31.70    9.80
  -5 -16  -1   29.60    9.90
  -5 -16   4   21.60   10.80
  -5 -15   7  201.08   18.20
  -5 -14   9   32.20   14.10
  -5 -10  13    2.20    9.50
  -5  -6  15    0.30    9.40
  -4 -14   6  254.07   18.10
  -4 -12   9   14.50   14.40
  -4  -7  13   32.10   12.10
  -3 -13  -1   27.50   10.40
  -3 -13   3  157.88   15.60
  -3 -12   6    0.70   11.20
  -3  -5  12   92.69   13.20
  -3   0  13  367.76   15.00
  -3   2  13   68.99    8.20
  -1  -6   5   62.39    8.70
  -1  -3   7   23.90    8.90
  -1   1  -7   10.00    5.90
  -5 -15  -4   34.50    7.60
  -5 -13  10   -5.50   12.10
  -5 -12  11   10.00   13.10
  -4 -14  -3  108.29   11.10
  -4 -11  10   70.69   14.30
  -4 -10  11   58.29   14.70
  -4  -4  14   67.99   10.90
  -3 -13   1  195.28   15.80
  -3 -13   2   46.10   12.00
  -1   0  -7  203.88    8.10
   0   2   0 3546.05   22.60
  -5 -16   2   35.80   10.20
  -5 -13  -7    4.70    6.10
  -4 -14   5  137.69   14.80
  -4 -13  -5   45.00    8.60
  -4 -13   7  208.88   18.40
  -3 -12   5   34.40   12.20
  -3 -11   7   -5.10   11.20
  -3  -8  10  176.08   16.00
  -2 -10   4   26.00   11.00
  -5 -15   6   40.30   13.30
  -5 -14   8  371.36   22.00
  -5  -5  15    4.10    8.40
  -4 -14   4   50.09   13.80
  -4  -8  12  174.48   15.00
  -3 -12  -3   83.59   10.80
  -3 -11  -5   20.00    7.60
  -3 -10   8  278.87   17.70
  -3  -9   9  347.07   19.70
  -2  -3  10   61.59    9.90
  -1  -7   2   31.00    8.20
   0   1  -1 5380.66   23.30
   0   2  -1  214.28    8.40
   0   2   1  219.78    6.00
  -5 -15  -3   23.80    6.80
  -5 -13   9  107.49   16.70
  -5  -7  14   14.30   10.90
  -4 -14  -2  182.38   12.10
  -4 -12   8    9.60   11.10
  -4  -6  13    0.20    8.80
  -4  -3  14   55.39    9.20
  -3  -6  11    7.00   10.50
  -2 -10   3   29.40   10.80
  -2  -9   5   42.50   11.10
  -1  -5   5   76.09    9.90
  -1  -4   6    8.80    8.10
  -1  -2   7   29.70    6.30
  -1  -1  -7    3.10    3.30
   0   3   0   -2.30    6.10
  -5 -15   5   20.10   11.30
  -5 -12  10   53.49   14.80
  -4 -14  -1   36.70    8.10
  -4 -14   3   46.20   12.10
  -4 -13   6  117.99   14.90
  -4 -12  -6  142.89    9.10
  -4 -11   9  132.59   14.10
  -4 -10  10  115.49   15.40
  -4  -9  11   -0.10   11.80
  -3 -11   6   10.00   11.40
  -1   9   4   21.50    6.10
   0   3  -1  242.28   10.00
  -5 -15   4   76.89   11.60
  -5 -14   7  123.99   14.60
  -5 -11  11   25.50   11.80
  -4 -14   0  166.68   12.80
  -4 -14   2   22.80   10.90
  -3 -12  -2  102.79   10.80
  -3 -12   3    0.70   10.80
  -3  -7  10   12.70    9.40
  -2 -10  -1   63.89    8.60
  -2 -10   0   72.39    9.20
  -2 -10   1   11.40    8.40
  -2  -2  10   13.10    7.20
   0   3   1  235.38    7.80
  -9   8  -1   16.50    8.10
  -7   4  -4  105.19   12.90
  -7   4  -2   34.10   10.20
  -6   5 -11   68.99   13.80
  -5   2  -7   72.69   12.20
  -4   1  -7 1222.68   27.70
  -3   6   8  157.48    8.70
  -2   0  -8   15.50    9.00
  -2   0  -1   10.00    5.30
  -1   4 -16   60.99   10.40
   2   2 -14   23.20    7.00
  -8   6  -6   10.60    8.50
  -8   6   0  -17.20    9.40
  -7   7   5   12.90    3.10
  -6   3  -7  101.09   14.20
  -6   3   0  420.26   13.90
  -5   4 -12   26.20   11.80
  -4   8   9    3.10    4.40
  -3   0  -5  228.48   12.30
  -3   0  -4    0.10    7.40
  -3   4   6  490.85    9.20
  -2   1 -11  305.57   15.80
  -1   1 -12   78.09   10.90
  -1   3 -15   13.90    7.80
   0   0 -10 2394.26   31.90
   0   2   4  418.36   10.70
   1   1   2   92.19    6.60
   1   3   5  447.86   14.20
  -9   8   0  410.46   14.60
  -8   6  -7    0.20    9.00
  -8   8   4   44.70    5.00
  -7   4  -1  129.69   11.80
  -7   5  -9  379.86   20.70
  -7   5   2   61.89    7.70
  -6   4 -10   54.59   12.90
  -5   2  -8   -0.40   10.50
  -4   1  -8  139.59   13.70
  -3   0  -6    2.40    9.30
  -3   2 -12  285.47   17.00
  -3   4 -15   10.50   12.00
  -2   1   2 1516.25    5.90
  -1   2   4  450.95    9.30
   3   1 -12  589.14   13.90
   3   1   0  113.69    6.70
   3   2   2 5596.24   43.20
  -4   4 -14   43.00   13.10
  -3   3 -14   -0.90   11.20
  -1   0 -10    5.10    7.50
   1   1 -13   36.70    8.40
   1   3 -16   16.90    8.60
  -8   6   1  130.09    9.60
  -5   2  -9   26.60   11.80
  -4   3 -13   60.99   14.40
  -3   0  -7 2758.72   38.30
  -1   0   0    2.70    2.40
   0   1 -13   -1.60    7.50
   0   3 -16   40.80   10.00
   1   0 -11   42.70    8.10
   2   1 -13   17.20    8.00
   2   3 -16   59.79    8.60
   3   0  -9  818.22   13.50
   4   3 -15  201.38   10.40
  -9   7  -4  256.47   15.00
  -9   7  -3   33.10    9.00
  -9   8   1   32.40    8.10
  -8   5  -5    1.20   10.90
  -8   5  -3   91.29   11.00
  -8   5  -2   13.10    8.70
  -8   7   3    9.60    5.30
  -7   5 -10   -0.60   11.70
  -6   3  -9   31.10   11.70
  -4   1  -9  103.79   13.50
  -3   0  -8    6.50    9.80
  -3   0  -2    3.40    4.60
  -2   6   8  139.99    9.40
   0  -1  -6  601.74   14.10
   1   2 -15   10.70    8.10
   2   1   1 1241.58   16.20
   5   2  -2   56.29    6.40
  -9   7  -2  156.38   11.80
  -7   6   4   56.39    5.00
  -6   2  -5   89.79   12.60
  -5   1  -4  231.38   14.10
  -4   1   0    8.70    4.50
  -2   0 -10  237.38   14.70
  -2   2 -14  239.28   16.20
  -1  -1  -6  961.30   19.20
  -1  -1  -5  821.32   17.40
  -1   0 -11   10.40    8.20
   0  -1  -7    1.20    5.60
   0   3   5  382.66   11.80
   2   2 -15    8.30    7.10
   7   4  -4  364.96   11.60
  -9   7  -1  337.57   14.50
  -6   4   3   87.59    6.30
  -5   1  -3   66.89    9.10
  -5   2 -10   29.80   11.70
  -5   2   1  454.75   11.60
  -4   1 -10  296.27   19.10
  -4   7   8  165.08    7.30
  -1  -1  -7    8.40    7.30
  -1   2 -15  182.18   13.70
   0  -1  -4 3082.29   25.90
   0   4   6  158.48    9.70
   1  -1  -7  229.28    9.00
   3   3   3  234.58   11.70
   5   2 -12   19.50    4.20
  -8   5  -7   45.60   10.30
  -7   3  -5   -3.80   10.40
  -7   4  -9  104.09   14.30
  -6   2  -7    1.80   11.50
  -6   3 -10   13.60   11.40
  -6   4 -12   31.60   12.40
  -5   3   3  259.57    7.10
  -4   0  -5   -5.70    9.10
  -4   3 -14   14.90   12.60
  -3   3 -15   13.60   11.50
  -2   1 -13   17.30   11.30
  -2   5   7  348.67   11.30
  -1  -1  -4 3321.77   30.50
  -1   3   5 2433.46   24.60
   0  -1  -8    9.10    6.20
   0   1 -14   73.99   10.00
   3   1 -13  328.37   11.80
   4   2   0   33.10    6.00
  -9   7   0   31.50    9.90
  -5   1  -8  368.16   18.70
  -4   0  -6 4154.68   46.80
  -4   0  -4   48.30    9.30
  -3   1 -12  168.88   14.50
  -3   2 -14  101.09   15.20
  -2   0 -11   20.80   10.00
  -2   4   6  164.08    7.30
  -1  -1  -8 1364.86   24.50
   1  -1  -8  178.18    8.40
   1   0 -12    2.40    7.00
   4   2 -14  116.59    8.40
   6   3  -3  332.77   10.70
  -8   5   0  571.14   17.60
  -8   6   2   -4.40    6.10
  -7   3  -2   41.60   10.10
  -7   4 -10   43.80   13.60
  -6   2  -8  378.86   19.30
  -6   3 -11   67.89   15.90
  -4   0  -7    3.40    9.70
  -4   0  -3    4.20    7.20
  -4   1 -11   54.79   12.70
  -3   0 -10   -0.60    9.60
  -3   0  -1 4055.59   31.30
  -2  -1  -7  451.65   16.30
  -1   0 -12    4.10    8.50
   0  -1  -9 3026.50   33.90
   2   1 -14    7.10    6.40
  -9   6  -5  132.79   12.60
  -9   6  -4  191.38   13.30
  -6   2  -1  106.79    9.10
  -5   1  -9  186.28   15.60
  -4   0  -8  970.10   26.30
  -1  -1  -9   30.00    9.00
  -1  -1  -3  619.94   13.60
   0   2 -16   12.10    9.20
   1   2 -16   15.50    7.00
   4   1 -12  231.48    9.30
  -9   6  -2   67.79   10.20
  -8   4  -6  217.18   15.90
  -8   4  -5  681.03   22.80
  -8   4  -4  197.18   14.00
  -7   3  -1   11.60    9.30
  -6   2  -9  186.98   16.00
  -3   1 -13   91.79   13.00
  -2  -1  -8   29.50   10.10
  -2   0 -12   16.00   10.60
  -2   0   0 1977.70   16.50
  -1   2 -16   44.00    9.30
   0  -1 -10   11.70    8.20
   0  -1  -3  299.57    8.80
  -8   4  -7    2.80   10.30
  -5   2 -12    0.10   11.60
  -4   0  -9   -4.40   11.40
  -4   0  -2  449.16   13.90
  -4   1 -12  238.68   16.70
  -3   0 -11  139.19   14.10
  -2  -1  -9   32.00   10.20
  -1  -1 -10  797.02   20.50
   0   0 -13    0.60    7.60
   0   1 -15   37.00    8.90
   1   0 -13  132.79   10.10
   1   1 -15   32.40    8.60
   3   0 -11  951.30   16.50
   3   2   1 1324.17   20.10
   5   2  -3   30.50    4.90
  -9   6  -1   13.00    7.90
  -9   7   1   43.50    7.40
  -8   4  -2    7.70    7.80
  -5   1 -10   31.40   11.90
  -4   2 -14   38.00   12.60
  -3  -1  -7   17.70   10.30
  -3  -1  -5   43.60    9.20
  -3   2 -15   41.00   11.20
  -3   7   8   -0.90    5.90
  -1   1 -15   77.09    9.80
   1   3   4  864.91   17.70
   2   2   2 2091.19   24.50
   3   1 -14   10.90    6.00
   4   1  -3 2757.92   18.30
   7   4  -6    3.40    4.70
  -8   4  -8  170.58   14.60
  -8   5   1   85.99    8.80
  -7   3 -10  105.09   16.90
  -6   1  -5   65.39   11.40
  -6   1  -4  649.83   20.60
  -6   2   0  341.97   12.90
  -4   0 -10   17.20   11.30
  -3  -1  -8  367.26   17.10
   1   4   5 2230.98   30.40
   2   1 -15  237.18   11.90
   5   2 -13   -2.70    4.20
   5   3  -1  240.08   10.90
   6   3  -4   47.10    5.80
  -7   2  -4  203.48   14.60
  -6   1  -7  533.55   21.80
  -6   2 -11   20.70   13.30
  -6   3   2   74.69    7.10
  -5   0  -7    2.00   10.10
  -5   0  -6   -8.50   10.90
  -5   0  -5  260.17   15.30
  -5   1 -11   21.20   12.70
  -4   1   1   39.40    5.40
  -3  -1  -4  439.86   14.90
  -3   0 -12   -2.90   10.30
  -2   0 -13   12.00    9.90
  -1  -1 -11   21.00    8.70
   2   0 -13    4.90    6.50
   3   1  -1  264.67    7.60
   4   2 -15    6.00    5.20
   6   4  -2   32.50    8.60
  -9   5  -5   34.90    9.10
  -9   5  -4   48.30    9.80
  -7   4   2   45.10    8.10
  -6   8   7  470.25    7.30
  -5   0  -8   20.50   10.50
  -5   0  -4    3.70    8.80
  -4   0 -11   -7.60   12.50
  -4   5   6  917.01   10.90
  -3  -1  -9   42.50   11.50
   0   0 -14   14.30    7.70
   1  -1 -11    0.40    6.60
   1   0 -14  -10.90    7.30
   3   0 -12   -1.90    6.00
   3   3   2   14.20    6.60
   4   1 -13   13.20    5.60
  -9   6   0   69.19    9.90
  -5   7   7  155.78    5.90
  -2  -1 -11  285.27   15.60
   0   1 -16   -6.20    8.40
   1   1 -16  126.19   11.10
   2   4   4  262.37   13.20
   7   4  -7    4.30    4.10
  -9   5  -2   15.20    7.90
  -8   3  -4  105.79   13.10
  -8   7   4  475.65    9.60
  -6   2 -12   37.10   13.30
  -5   0  -9  348.07   18.50
  -5   0  -3   22.10    8.40
  -5   1 -12  170.68   17.50
  -4  -1  -7 1178.08   27.40
  -4  -1  -6   44.80   10.80
  -3  -1  -3  278.37   11.90
  -3   0 -13   -1.90   10.20
  -3   1 -15    9.30   11.60
  -2   0 -14  269.87   18.10
  -1  -1 -12   78.59   10.80
  -1  -1  -2  100.39    7.30
  -1   1 -16   36.00    8.70
  -9   7   2   17.20    6.70
  -8   3  -8   26.20   10.50
  -8   4   0  536.95   17.40
  -8   6   3  127.89    7.10
  -6   1 -10   -0.60   12.00
  -5   0 -10    1.40   12.50
  -5   2   2   58.59    5.40
  -4  -1  -8  130.09   14.10
  -4  -1  -5  679.43   20.00
  -4   0 -12    7.40   11.50
  -4   1 -14  -12.30   10.80
  -4   8   8    1.20    5.10
  -3   0   0    1.90    4.30
  -3   6   7  210.58    8.60
  -2  -1  -2 1095.89   17.30
   0   2   3   31.50    5.30
   1  -1 -12  256.77   12.10
   2   0 -14  115.99    9.10
   3   1 -15    6.20    5.50
   5   1  -9   44.20    3.00
  -7   2 -10   14.30   11.70
  -4  -1  -9   87.69   12.60
  -3  -1 -11  546.65   21.20
  -2  -1 -12  118.19   12.50
  -1   0 -15  327.87   16.30
   0   0 -15   -8.30    8.40
   0   4   5  622.44   15.80
   2  -1  -5   56.79    4.20
   2   1 -16   55.69    8.00
  -9   5  -1   87.19   10.20
  -8   3  -2  178.88   12.80
  -6   1 -11   -3.60   12.10
  -5   0  -2    2.60    6.70
  -4   4   5   76.59    3.40
  -3   0 -14   -1.20    9.30
  -1  -2  -8  269.87   13.10
  -1  -2  -7  138.69   10.70
   0  -1 -13    1.60    7.60
   0   3   4 4515.05   35.40
   1   0 -15   25.10    8.00
   2   1   0  485.65   10.00
   3   0 -13  379.36   12.70
   4   0  -9   -1.70    3.60
   4   0  -8  322.97    6.60
   5   2 -14    2.10    4.30
   6   3  -5  538.15   11.30
   7   4  -8  283.87    7.50
  -9   4  -6   13.50    9.60
  -9   4  -5    8.10    8.20
  -9   4  -4   99.79   12.00
  -9   6   1   21.50    7.00
  -8   5   2  138.69    8.30
  -7   1  -7   16.50   14.40
  -7   2  -1  158.28   12.10
  -7   3   1  277.27   11.50
  -6   0  -7   95.99   13.30
  -6   0  -6  134.19   14.00
  -6   1  -1  143.99   10.60
  -6   2   1   31.60    7.10
  -5   0 -11   20.60   11.50
  -5   9   8    3.60    4.40
  -4  -1 -10  303.07   18.20
  -4   0 -13   -2.50   10.90
  -3  -1 -12  190.88   14.60
  -2  -2  -8   96.49   11.00
  -1  -2  -9   93.09   10.10
   0  -2  -9  667.33   17.30
   0  -2  -8  516.45   14.60
   0  -2  -7  138.99    9.00
   1  -1 -13   25.10    9.10
   4   1 -14  138.79    8.00
   5   2  -4 1082.19   13.80
  -9   4  -3   14.60    8.70
  -6   0  -8 2478.45   43.40
  -6   0  -5    6.60    8.90
  -3  -1  -2 2984.70   30.30
  -2  -1 -13   31.50    9.30
  -1  -2 -10  129.59   11.90
   0  -2  -6   50.39    7.40
   4   0 -10  152.68    6.60
   5   3  -2   35.10    6.30
   6   4  -3   92.89    8.00
  -8   2  -7    9.20   11.00
  -8   2  -6    7.80    8.40
  -8   2  -5   -3.10    9.30
  -7   1  -9   12.20   12.00
  -7   1  -4 1139.39   27.00
  -6   0  -9   -3.40   11.10
  -6   0  -4  812.02   22.80
  -5  -1  -7   80.99   12.70
  -5  -1  -6   28.90   10.50
  -5   0 -12   -6.40   11.40
  -4  -1 -11   68.29   11.00
  -4  -1  -3  134.59   10.10
  -3  -2  -7  516.55   18.80
  -2  -2 -10  599.64   20.00
  -2  -2  -5  341.97   13.90
  -1   0 -16   -6.60    8.10
   0  -1 -14   71.99    9.20
   0   0 -16  -10.00    8.80
   1   5   5   14.40    7.10
   2   0 -15   10.80    6.20
   7   5  -5  298.57   10.70
  -9   5   0   -3.10    7.80
  -8   2  -8  191.68   16.60
  -8   2  -4   66.69   13.10
  -8   4   1  460.05   14.90
  -6   0 -10  439.06   22.60
  -5  -1  -5  159.08   14.00
  -4   0 -14  494.15   22.80
  -3  -2  -8  411.46   18.10
  -3  -2  -6  891.91   22.20
  -3  -1 -13   84.59   12.30
  -3   0 -15  372.66   19.40
  -3   5   6  276.27    8.50
  -2   5   6    3.10    5.50
   0  -1  -2  455.15    8.60
   1   0 -16    2.30    7.20
   2   1 -17  468.55   17.30
   3   0 -14   -4.20    5.90
   3   2   0 1703.73   21.60
   4   0 -11    4.10    4.60
   4   4   1  348.57   14.40
   5   1 -11   47.30    4.20
  -7   1 -10    3.00   11.20
  -5   0 -13   67.99   13.40
  -5   0  -1   22.20    7.60
  -4  -1 -12  233.68   16.90
  -3   1   2 6716.93   23.40
  -2  -1 -14   75.49   11.80
  -2   0 -16    5.00    8.90
  -1   4   5 2163.68   25.50
   1  -1 -14   -6.20    7.30
  -9   3  -6    4.40   11.20
  -8   2  -3  102.29   11.30
  -6   0 -11   -8.80   12.30
  -5  -1 -10   42.00   12.20
  -3  -2 -10  555.94   20.40
  -3  -2  -5   55.79   10.30
   0  -2  -5 2630.64   27.00
   1   4   4  194.38   11.10
   3  -1  -9  317.27    9.50
   4   0  -7   -0.70    2.60
   5   4  -1   52.69    8.70
  -9   3  -5   56.29   11.30
  -7   2   0   15.90    7.90
  -5   1   1    0.40    4.40
  -4  -2  -8   59.09   11.40
  -4  -2  -7  270.07   15.40
  -4  -1 -13   10.40   13.10
  -4  -1  -2  455.85   14.20
  -4   2   3 1639.24   11.00
  -3  -1 -14   28.20   10.40
  -2  -2 -12   47.50   10.80
  -1  -2  -4 2987.40   30.30
  -1  -1 -15   79.09   10.20
   0  -1 -15   40.50    9.30
   1  -2 -11  200.58   11.30
   1   2   2  154.18    7.00
   2   0 -16  489.35   16.30
   3  -1  -8  953.70   13.70
  -9   3  -4    1.10    8.70
  -9   4  -1   34.10    9.10
  -8   3   0   25.70   11.10
  -7   1  -2    4.50    7.70
  -6   0 -12   61.09   14.10
  -6   1   0  145.19    9.20
  -4  -2  -9   60.79   12.90
  -4  -2  -6  673.83   21.20
  -4   7   7  503.15   10.80
  -4   9   8    2.20    4.70
   1   3   3  409.26   11.90
   2   2   1  906.81   15.80
   3  -1 -11  412.66   11.80
   3   4   2  448.96   15.70
   6   3  -6  656.43   11.30
  -9   3  -3   10.90    8.90
  -9   6   2   32.10    6.60
  -7   0  -8    6.20   11.10
  -7   0  -7  614.44   23.70
  -6  -1  -8  233.68   16.40
  -6  -1  -7  507.45   21.00
  -5  -1  -3   73.99    9.10
  -4  -2 -10   17.80   11.90
  -4  -2  -5  847.02   22.30
  -3  -2 -12  269.07   16.50
  -2  -2 -13  142.09   13.80
  -2  -1  -1 1222.48   16.60
  -2   7   7   17.90    6.50
   0  -2 -13  337.37   15.30
   1  -2 -12  266.97   12.50
   1  -1 -15   28.40    7.90
   1   0 -17   19.00    7.50
   2   4   3  128.59   10.10
   3   0 -15   39.40    7.00
   5   1 -12   39.90    4.50
   6   4  -4   12.00    6.70
   7   5  -6   33.30    5.50
  -9   5   1  110.49    9.90
  -8   1  -8   -8.40    9.60
  -8   1  -7    3.20    9.00
  -8   1  -6    9.40   10.40
  -7   0  -9  115.29   14.40
  -6  -1  -9  529.35   23.30
  -6  -1  -6  105.09   13.40
  -5   6   6   24.80    3.30
  -4  -2 -11  199.48   15.70
  -4  -1 -14   20.90   10.80
  -3  -1 -15    7.00   10.30
  -1  -1 -16   34.50   11.00
   2   3   2  158.48    9.40
   3  -1 -12  573.74   14.50
   4   1  -4  498.65    7.30
  -8   1  -5    2.30    9.80
  -7   0 -10   -3.60   11.70
  -7   0  -4    6.80   10.20
  -6  -1 -10    1.80   11.60
  -6  -1  -5   69.89   11.70
  -6   3   3  326.47    8.60
  -6   4   4   16.00    3.50
  -5  -1 -13   33.90   14.00
  -3  -2 -13   -5.30    9.40
  -3   4   5   28.80    4.10
  -2  -1 -16   59.09   10.40
  -1  -2 -14  463.15   17.90
   0  -1 -16   -1.40    7.50
   3  -1  -7  237.28    7.10
   4   0 -13   -0.80    5.10
  -9   3  -2    6.50    8.10
  -8   1  -4   18.70   10.90
  -7   3   2  211.08    9.50
  -5  -2  -9   32.60   10.80
  -5  -2  -8    9.80    9.80
  -4  -2 -12  157.68   15.50
  -4  -2  -4  528.65   17.80
  -2  -3  -9  836.42   22.80
  -2  -3  -8   56.69   10.30
  -2  -2  -3 3342.47   32.80
  -1  -3  -9  204.28   12.90
  -1  -3  -8  150.88   11.90
   0   5   5  350.46   12.90
   1  -2 -13  709.73   19.00
   2   0 -17    4.10    7.10
   5   3  -3  262.57    9.90
  -9   4   0   31.10    8.30
  -8   2  -1  242.58   13.90
  -6  -1  -4  628.64   20.90
  -3  -2  -3  110.59    9.70
  -2  -3 -10  393.26   17.30
  -2  -3  -7 1526.65   28.10
  -1  -3 -10  369.86   15.50
   1  -1 -16  111.59   10.30
   2  -1 -15  240.58   11.30
   3  -1 -13  317.57   12.20
   3   0 -16    2.70    6.40
   3   1  -2 6533.85   29.30
   5   1 -13   27.50    4.40
  -8   5   3    7.90    5.30
  -7   0  -3  539.25   19.90
  -6   2   2  244.48    9.30
  -5  -2 -11  488.95   22.00
  -5   8   7   58.39    5.60
  -4  -2 -13   -2.60    9.40
  -3  -3 -10  195.98   14.70
  -3  -3  -9   41.50   10.60
  -3  -3  -8    3.80   10.10
  -3  -3  -7    2.70    9.80
  -3  -2 -14   85.39   11.80
  -2  -3 -11  405.36   17.70
  -1  -3 -11   64.59   10.60
  -1  -3  -7  445.16   15.60
  -1  -2 -15  159.38   12.30
   0  -3  -9   95.89   10.40
   5   2  -5  691.53   10.30
   7   5  -7  117.29    6.70
 -10   5  -1   35.40    9.20
  -9   2  -4    6.60    8.00
  -4  -1  -1  259.27   10.60
  -2  -3 -12   48.20   11.80
  -1  -3 -12    0.40    9.20
  -1  -2  -3  213.78    8.70
   0  -3 -10   -0.20    7.40
   0  -3  -8  232.58   11.30
   0  -2 -15  273.37   14.50
   4   0 -14   65.79    7.30
  -9   3  -1  453.55   17.50
  -8   0  -7   -2.60    8.60
  -7  -1  -9   11.70   10.60
  -7  -1  -8  107.49   13.90
  -5  -2 -12    6.30   11.40
  -4  -2 -14   36.70   12.80
  -4  -2  -3   58.89    9.30
  -3  -3  -6   49.70   10.80
  -2   3   4 1680.23   15.70
  -1  -3  -6 2107.49   29.40
  -9   2  -3   16.20    8.60
  -8   0  -6  217.38   15.10
  -7  -1 -10   -0.70   11.30
  -6  -2  -9  191.08   15.90
  -6  -2  -8  363.66   19.40
  -6  -2  -7   19.80   10.80
  -5  -2  -4 1389.06   28.20
  -4  -3  -7  203.88   15.30
  -3  -3 -12    7.50   10.50
  -3  -2 -15   28.40   10.20
  -3   0   1  245.68    7.70
  -2  -3 -13  174.18   13.70
  -2   6   6  375.26   12.30
   0  -3 -12  136.59   11.00
   0  -3  -7  135.19    9.50
   0   4   4   52.09    7.20
   1   5   4   55.69    7.80
   2  -1 -16   39.50    8.40
   2  -1  -4  282.37    5.50
   3  -1 -14    3.90    6.80
   6   3  -7    4.30    4.60
 -10   4  -2  257.47   14.70
  -8   0  -5   12.00    9.40
  -8   6   4   90.09    4.90
  -7   0  -2   -4.90    8.40
  -6  -2 -10   13.30   11.30
  -6  -2  -6    5.70   11.10
  -6   1   1 3448.85   31.60
  -5  -2 -13  135.69   15.30
  -4  -3 -11  224.68   16.80
  -4  -3  -6   85.89   11.90
  -3  -3  -5  297.27   14.90
  -2  -3  -5 2379.66   32.10
  -1  -2 -16   36.70    9.50
   1  -2 -15    6.90    7.40
   3   5   2   -3.00    8.10
   6   4  -5  153.78    8.10
  -9   1  -6  622.74   24.10
  -8   2   0  631.74   18.10
  -7   1   0   25.00    9.30
  -6  -2 -11   18.70   12.80
  -4  -3 -12  265.27   16.90
  -4   8   7  146.09    7.90
  -3  -3 -13    1.70    9.20
   0  -3 -13  443.16   17.00
   0  -2 -16   18.80    7.60
   1  -3 -10   34.00    8.40
   2   5   3  205.38   12.60
   4   0 -15   -0.90    6.10
  -9   2  -2  254.57   14.20
  -9   5   2   30.20    6.50
  -8   0  -4   29.00   11.70
  -6  -2 -12   32.50   12.40
  -5  -3 -10  151.88   14.90
  -5  -3  -9   84.49   13.60
  -5  -3  -8    3.50   12.20
  -5  -1  -1   95.09    9.60
  -4   6   6  260.97    7.50
  -3   8   7  142.79    8.50
  -1  -3  -5  442.46   14.40
  -1   5   5   69.09    6.80
   1  -3 -11   58.09    8.30
   3  -1 -15    7.70    6.30
   3   4   1    7.90    7.20
  -9   4   1   11.20    7.60
  -5  -3 -11   53.79   12.30
  -5  -3  -7  102.59   13.00
  -4  -3 -13   68.09   12.80
  -4  -3  -5  163.58   12.90
  -3  -3 -14   12.00    8.30
  -3   6   6  319.57    9.40
   0  -3 -14  159.68   11.30
   0   6   5  537.85   15.50
   1  -3 -12  866.51   20.70
   1  -2 -16    3.10    7.70
   2  -1 -17  441.86   16.10
   3   2  -1  510.65   12.30
   6   5  -4   22.60    7.50
 -10   4  -1   50.19    8.70
  -9   3   0   33.10    9.60
  -6   0   0 2997.60   33.00
  -5  -3  -6    4.80   11.10
  -2  -4 -10  640.94   20.80
  -1  -3 -15    6.70    6.90
   0   3   3  668.43   13.80
   1  -3 -13   22.10    9.30
   1   4   3 1124.79   21.40
   3   3   0  200.38    9.90
  -8  -1  -7   14.60   10.70
  -8   0  -3    0.90    9.40
  -8   1  -1  515.05   17.70
  -7  -2  -9   24.50   11.70
  -7  -2  -8  257.37   17.00
  -7  -2  -7   -0.90   11.70
  -7  -1  -3  420.66   17.50
  -7   0  -1   -5.80    8.80
  -5  -3 -12  447.96   21.40
  -3  -4 -10    2.80   10.30
  -3  -4  -9  253.17   16.50
  -3  -3 -15   26.80   10.10
  -3  -3  -4  299.77   12.50
  -2  -4 -11   75.39   12.10
  -2  -4  -8  195.28   14.20
  -2  -3  -4  120.39   10.30
  -1  -4 -10  577.34   19.10
   2   4   2  224.08   11.90
  -8  -1  -6   17.10    9.30
  -7  -2  -6   24.90   11.80
  -6  -3  -9   16.80   11.40
  -6  -3  -8  149.09   16.20
  -5  -3  -5  127.99   12.80
  -4  -3  -4   56.69   10.70
  -3  -4 -11  303.47   16.50
  -3  -4  -8  129.99   13.20
  -2  -4 -12  130.99   12.30
  -1  -4  -9   13.00    9.10
   0  -3 -15   55.89    8.60
   0  -2  -3   30.00    6.60
   3  -1 -16   33.30    6.60
   3  -1  -6   44.30    4.00
   4   2  -3 1591.54   18.50
   5   3  -4   98.39    7.10
 -10   3  -2    3.00    8.80
  -9   0  -6    9.00   10.60
  -9   2  -1   40.90    9.10
  -8  -1  -5    8.40   10.70
  -6  -3 -10    6.30   10.60
  -5   2   3   22.00    4.40
  -5   9   7  391.96   10.50
  -4  -4 -10   58.49   12.80
  -4  -4  -9  131.09   15.00
  -4  -4  -8   20.30   10.90
  -3  -4 -12    4.70    9.60
  -3  -4  -7   31.30   11.80
  -2  -4 -13   35.10   11.60
  -2  -4  -7  818.02   22.50
  -2   2   3  530.45    6.70
  -1  -4  -8   -1.80    8.70
  -1  -3 -16   43.30   10.20
   1  -3 -14  658.13   18.70
   3  -2 -11  771.32   16.10
   4   5   0  403.06   16.10
  -9   0  -5  782.32   25.60
  -6  -3 -12  296.37   21.10
  -6  -2  -3 1003.20   24.30
  -5  -2  -2  159.58   10.90
  -4  -4 -11  134.99   13.60
  -4  -1   0   10.00    5.60
  -3  -4 -13    1.20    8.90
   0   2   2   26.40    5.90
   3  -2 -10   -2.90    5.80
   5   5  -2    7.90    7.50
  -8   0  -2  264.27   14.60
  -6  -3  -6    2.80   10.00
  -4  -4 -12  208.68   15.20
  -4  -4  -7  727.73   23.00
  -4   9   7    5.10    5.60
  -3  -4  -6  323.67   16.50
  -2   7   6   19.70    6.30
  -1  -4  -7  362.56   14.90
  -1  -2  -2  151.78    9.40
   0  -4 -12    9.00    7.60
   0  -4  -9   47.80    8.60
   0  -3 -16   29.50    7.40
   0  -3  -5  380.26   12.80
   1  -3 -15   43.40    8.70
   1   3   2  504.95   14.20
   2   3   1 4057.99   37.00
   3  -2 -13   77.89    8.10
   4  -1 -11  177.68    7.80
   6   4  -6   50.19    6.00
 -10   2  -3   19.40    9.00
 -10   4   0  212.08   11.70
  -8  -1  -4   18.30    9.40
  -8   2   1    6.10    7.30
  -8   3   2    4.10    5.70
  -7  -1  -2   -1.30    8.60
  -7   2   2   28.20    6.70
  -5  -4 -11  487.95   22.10
  -5  -4 -10   18.40   11.70
  -5  -4  -9   75.49   12.40
  -5  -4  -8  669.63   23.80
  -5  -3  -4  880.61   23.30
  -4  -4 -13    9.00   10.40
  -3  -4 -14  216.88   15.80
  -3  -3  -3  227.68   12.40
  -2  -4  -6  667.53   20.20
  -1  -4 -14    6.50    8.10
  -1   4   4    0.00    5.00
   4  -1 -13   18.30    5.70
   6   3  -8   30.00    3.90
 -10   3  -1  413.76   16.70
  -9   0  -4    0.50    8.20
  -7  -3  -9   85.79   13.30
  -7   1   1   34.70    8.20
  -6  -3  -5   54.99   11.90
  -5  -4 -12   47.50   11.60
  -5  -4  -7  137.89   14.00
  -4  -4  -6   83.79   12.40
  -2  -4 -15  282.07   16.20
  -2  -1   0  486.05   11.50
   0  -4  -8    6.90    7.20
   0   5   4    2.60    5.60
   2   1  -1  174.08    6.70
   2   2   0  769.42   15.00
   3  -2 -14   24.40    6.70
   3  -2  -9    1.80    5.60
   4  -1 -10   15.00    4.50
  -8   1   0  248.38   12.90
  -7  -3  -8   45.60   12.30
  -7  -3  -7   14.70   11.90
  -7   3   3   50.89    6.10
  -4  -4 -14   46.30   11.80
  -2  -3  -3  210.08   12.30
  -1  -4 -15   -6.70    7.40
   0  -4 -14   68.89   10.30
   1  -3 -16   20.60    7.30
   3   5   1   54.69    8.60
   6   5  -5   91.39    7.10
  -9  -1  -6  611.74   24.60
  -9   3   1   22.70    7.60
  -8  -2  -6   -3.00    9.10
  -8  -1  -3   12.70   10.90
  -8   4   3  207.78    7.90
  -7   0   0    5.80    8.40
  -5  -4 -13  334.77   19.20
  -5  -4  -6  571.74   21.40
  -5  10   7   16.50    5.80
  -3   7   6 1061.69   17.80
  -1  -4  -6  276.77   13.50
   0   1   1 5294.07   21.90
 -10   2  -2  330.67   16.00
  -9   0  -3   84.39   11.40
  -8   0  -1    5.60    9.50
  -7  -3  -6  110.89   14.90
  -6  -4 -11   66.89   14.00
  -6  -4 -10   49.80   12.10
  -6  -4  -9   33.80   12.00
  -6  -4  -8    7.80   11.20
  -6  -3  -4  973.10   25.50
  -5  -3  -3  132.89   12.20
  -5   7   6  223.08    7.10
  -4  -4  -5   66.19   12.20
  -3  -5 -12    1.40   10.70
  -3  -5 -10   -6.50    9.90
  -3  -5  -9   58.29   11.60
  -2  -5 -12   22.30   10.30
  -2  -5 -11   29.40   10.80
  -2  -5 -10  616.54   21.70
  -2  -4  -5 1425.26   27.00
  -1  -4 -16   61.59   11.40
   0  -4 -15   -1.70    7.20
   0  -4  -7  402.66   14.20
   1  -4 -12  127.59   10.60
   1  -4 -11  476.95   16.50
   1   2   1   29.00    7.10
   3  -2 -15   11.70    7.10
  -9  -1  -5   18.50   10.30
  -9   1  -1  344.27   15.80
  -8  -2  -5    7.80    9.00
  -6  -4 -12   44.30   12.50
  -6  -4  -7  123.79   13.80
  -4  -5 -11   10.50   10.60
  -4  -5 -10   46.40   12.00
  -4  -5  -9  475.75   20.50
  -3  -5  -8    2.80   10.80
  -2  -5 -13   47.50   11.90
  -1  -5 -11  252.27   15.50
   1  -4 -13  402.06   15.70
   1  -4 -10   87.19    9.30
   1   5   3  440.06   14.70
   2   5   2  712.13   18.80
 -10   1  -3   22.40    9.30
  -7  -1  -1   37.80   10.10
  -6   1   2  118.99    8.80
  -4  -5 -12    9.40    9.70
  -4  -5  -8 1022.90   28.40
  -4   7   6  462.15   11.00
  -3   5   5  292.87    8.70
  -2  -5  -8   72.09   12.60
   0  -4 -16   47.60    9.60
   1  -4 -14   50.89    9.10
   2  -3  -8  135.49    9.10
  -8  -2  -4   60.09   11.50
  -8  -1  -2  287.27   15.70
  -6  -4  -6   29.00   12.20
  -5  -5 -11    9.10   12.90
  -3  -5 -14   30.40   10.70
  -3  -5  -7   59.49   12.30
  -1  -5  -9  724.13   21.90
   3  -2 -16    3.60    6.40
   3  -2  -8  697.43   13.00
   4  -1  -9   38.70    5.20
 -10   3   0   65.79    9.10
  -9  -1  -4  173.08   14.70
  -9   0  -2    9.40    8.50
  -6  -3  -3   39.00   10.00
  -6  -1   0  139.79   10.00
  -5  -5 -12   12.50   10.60
  -5  -5  -9  337.17   19.30
  -5   5   5  238.98    5.00
  -4  -5 -14   14.60   10.30
  -4  -4  -4  291.17   16.10
  -3  -4  -4   88.69   10.90
  -2  -5  -7  868.51   24.20
  -2  -2  -1  897.31   16.40
  -1  -5 -14    0.60    8.10
  -1  -4  -5 2282.47   31.80
   0  -3  -4 4691.83   37.80
   1  -4 -15    3.40    7.60
   1   1   0 2196.68   17.40
   5   0 -13    5.70    4.20
   5   0 -12   -1.90    3.90
 -10   2  -1  180.58   12.40
  -7  -4  -8  155.48   15.40
  -7  -2  -2   63.89   11.70
  -5  -5 -13   33.10   13.20
  -2  -5 -15   51.99    9.10
  -1  -5  -8   37.40   10.20
  -1  -3  -3  397.36   12.70
   0  -5 -12   17.00    8.80
   0  -4  -6  144.89   10.40
   5   5  -3 1107.19   20.30
   6   4  -7    7.70    4.20
  -9  -2  -6    6.80   11.40
  -8  -3  -6  185.68   15.60
  -7  -4  -7  200.38   16.60
  -6  -5 -10   14.90   13.90
  -6  -4  -5   16.80    9.80
  -6   2   3    8.00    5.00
  -5  -5  -7 2576.04   43.00
  -4  -5  -6  229.68   15.80
  -4   5   5  147.49    5.90
  -3  -5  -6   -2.60   10.60
  -2  -4  -4  270.77   14.00
  -1  -5 -15   64.29    9.00
   0  -5 -13   26.90    8.70
   1  -4 -16   92.29   10.40
 -10   1  -2   -0.60    9.10
  -9  -1  -3    5.20    9.80
  -8   1   1  205.18   12.30
  -7  -4  -6  138.09   16.00
  -6  -5 -11   59.89   12.70
  -5  -3  -2 2336.77   34.40
  -3   8   6  601.64   15.40
  -2   6   5  185.08    9.30
   0  -5 -14   83.79   11.00
   0  -5  -9  190.38   13.20
   6   5  -6   53.19    6.40
  -9  -2  -5  157.08   15.30
  -9   1   0   86.49   11.50
  -8  -3  -5  107.29   13.40
  -8   0   0  455.45   17.70
  -5  -5  -6   -2.90   10.20
  -3  -6 -12   50.09   11.60
  -3  -6 -11   29.20   10.80
  -3  -6 -10   18.40   10.80
  -2  -5  -6 2136.99   35.20
   0  -5 -15   57.29    9.70
   4   1  -5   38.00    3.90
   5   0 -11 1108.49   11.30
   6   3  -9    1.80    3.00
 -10   0  -3   -8.50    9.40
  -9   2   1    5.50    8.20
  -8   2   2   17.70    7.10
  -7  -3  -3  267.17   16.10
  -6  -4  -4   49.70   12.00
  -4  -6 -12  115.19   14.40
  -3  -6 -13  143.59   14.20
  -3  -6  -9   10.20   12.10
  -2  -6 -12   -0.40    9.00
  -2  -6 -11  414.46   18.80
   1   4   2 2018.90   27.00
   1   6   3  626.14   17.90
   2  -2  -5  198.18    7.40
   2   6   2  172.28   11.60
   3  -3 -14    7.80    7.30
   3  -3 -12  344.27   12.80
  -9   0  -1  257.97   13.90
  -8  -1  -1  498.95   18.90
  -7  -5 -10    8.20   12.80
  -7  -1   0   18.50   10.10
  -7   0   1  813.32   18.70
  -7   4   4  363.56    6.30
  -5  -6 -11   72.79   14.60
  -4  -6 -13    8.50   10.00
  -4  -5  -5   49.10   12.90
  -4  -4  -3  428.06   17.80
  -4   8   6  138.19    8.20
  -3  -6 -14   82.79   13.00
  -3  -5  -5  836.52   24.00
  -3  -4  -3   33.30    9.90
  -2  -6  -9 1082.09   27.50
   0  -5 -16  112.59   12.20
   3  -3 -11  124.39    9.20
  -9  -2  -4   16.10   10.10
  -9   3   2   61.09    7.90
  -8  -3  -4   94.79   11.80
  -8   5   4  721.93    8.80
  -7  -5  -9  353.76   20.80
  -6  -5  -6  467.15   21.40
  -5  -6 -12   95.29   14.20
  -5  -6  -9    9.60   10.70
  -5  -5  -5   43.30   11.80
  -5  -4  -3 1873.91   34.10
  -5   8   6  699.73   13.30
  -3  -6  -8  257.27   17.20
  -1  -6 -13   55.69    9.40
  -1  -6 -11  583.74   21.10
   1  -5 -13    1.60    8.60
   3  -3 -15   98.29    9.10
 -10   1  -1  128.59   11.70
 -10   2   0   69.99    9.60
  -9  -3  -6    6.20   13.10
  -9  -1  -2   13.90    9.30
  -8  -2  -2   57.39    9.90
  -5  -6  -8  664.93   24.50
  -4  -1   1   34.30    5.90
  -2  -6 -15  142.19   12.40
  -2  -6  -8    2.80   11.20
  -1  -6 -14    4.00    6.90
  -1  -5  -6   93.29   11.70
   0   7   4 1378.26   25.00
   1  -5 -14   78.39   10.20
   1  -5 -11   78.79    9.30
   3   5   0   75.59    8.10
   4  -2 -13  143.69    8.60
  -8  -4  -6  215.28   16.40
  -7  -5  -7   35.20   12.30
  -6  -6 -11  124.99   15.30
  -3  -6  -7  130.09   14.90
  -1  -6 -15   -0.80    9.30
  -1  -6  -9  177.68   13.70
   0  -4  -5  700.73   18.20
   1  -5 -15   -0.30    8.10
   1  -5 -10   17.30    8.20
   3  -3 -16    9.70    6.10
   4  -2 -14  111.79    8.40
   4  -2 -12  140.29    8.20
   4   2  -4   52.99    5.40
 -10   0  -2  127.09   12.90
  -6  -6  -9   17.00   11.50
  -6  -5  -5    2.60   12.20
  -6  -4  -3  410.56   18.50
  -4  -3  -1 1641.14   27.20
   4  -2 -15    1.50    6.10
  -9  -3  -5   56.49   10.90
  -9  -2  -3    6.30    8.00
  -8  -4  -5  631.24   22.80
  -8  -3  -3   32.80    9.00
  -8   3   3   13.90    5.20
  -7  -5  -6   27.00   11.30
  -7  -3  -2   31.80   10.50
  -6   9   6  640.74   12.70
  -5  -3  -1  471.85   16.20
  -5   0   2    6.10    5.80
  -4  -5  -4   68.69   11.90
   0  -6 -14   -7.70    8.50
   0  -6 -13  162.58   12.10
   0  -6 -12  294.57   15.60
   0  -6 -11   15.10   10.30
   1  -5 -16    5.80    7.50
   3  -2  -7  224.58    7.80
 -10  -1  -3   10.70    9.70
  -6  -2   0  342.67   14.40
  -5  -5  -4   21.00   10.80
  -4  -7 -12   71.19   12.30
  -4  -7 -11   74.29   11.50
  -4  -6  -6   43.50   12.20
  -3  -7 -11  273.97   16.80
  -3  -5  -4   33.90   11.20
  -1  -6  -8   -3.40    9.20
   4  -2 -11    4.50    5.30
   5   5  -4  127.59    8.90
   6   4  -8   66.59    5.30
  -9   0   0   -8.70    9.60
  -7  -6  -9  115.39   13.90
  -7   2   3  192.28    7.90
  -5  -7 -12   73.19   13.40
  -5  -7 -11   11.90   12.40
  -5  -6  -6  496.55   20.80
  -5   9   6  140.29    8.10
  -4  -7 -13  107.29   13.20
  -4  -7 -10  146.29   14.10
  -4  -4  -2  782.32   20.40
  -3  -7 -14  173.28   13.60
  -3  -7 -10    9.40   10.30
  -3  -3  -1  287.47   13.00
  -3  -1   1  304.27    9.40
  -2  -7 -12   13.30    9.90
  -2  -7 -11  146.09   12.90
  -1  -2  -1   36.40    7.80
   0  -6 -15   58.79    8.80
   0   3   2  300.37   10.30
   2   5   1 1893.81   27.40
   6   5  -7   69.59    6.40
  -9  -3  -4    7.60    9.20
  -9  -1  -1  329.27   15.20
  -9   1   1  172.58   12.10
  -8  -1   0  266.47   13.90
  -8   0   1    0.60    8.80
  -7  -6  -8  150.78   15.90
  -5  -7 -10   16.90   10.10
  -5  -4  -2   51.99   10.10
  -4  -7  -9   91.89   12.50
  -3  -7  -9  172.78   15.30
  -1  -5  -5    8.60    8.50
  -1   6   4  113.19    9.20
   0  -6 -16   13.40    8.30
   1  -4  -6   16.00    5.60
   3  -3  -9   52.39    7.30
  -9  -4  -6    0.30   11.30
  -8  -4  -4  186.18   13.10
  -8  -2  -1  243.78   14.40
  -6  -6  -6  160.68   15.00
  -6   0   2 2486.25   25.80
  -5  -7  -9   74.99   12.10
  -4  -7  -8  111.69   13.30
  -2  -6  -6  128.19   13.20
  -2  -5  -4   80.69   10.20
  -1  -7 -13  309.47   15.40
  -1  -3  -2  510.95   14.40
   0  -3  -3  761.02   15.80
   1   5   2   75.79    9.30
   3   4  -1  626.24   15.10
   3   6   0  226.48   11.40
   4  -1  -8   10.50    3.30
   5   2  -7  611.14    8.70
   5   4  -5  121.19    7.40
 -10   0  -1   -0.70    8.80
 -10   1   0   34.20    9.10
  -8  -3  -2  172.88   13.60
  -7  -6  -7    0.90   10.40
  -6  -7 -10   19.20   11.20
  -5  -7  -8    1.20    9.80
  -5  -6  -5   54.39   10.70
  -4  -6  -5  144.49   14.30
  -3  -4  -2  427.26   15.50
  -2  -7  -9  108.19   12.10
  -1  -7 -14   12.70    7.10
   0  -5  -6  198.78   11.50
   1   3   1  199.28    8.80
 -10  -1  -2   -1.20    9.00
  -9  -4  -5    5.20   11.20
  -8   1   2   38.90    8.20
  -7  -2   0   12.60    9.20
  -6  -7  -9   38.80   10.10
  -5  -5  -3  193.88   14.00
  -4  -5  -3  291.67   14.90
  -3  -6  -5 1423.16   29.30
  -1  -7 -15   46.50    9.10
  -1  -7 -10  814.52   22.80
   1  -6 -14   36.70    8.30
   1  -6 -13   58.39    9.10
   1  -6 -12   11.10    9.30
   3  -4 -14   71.99    8.30
   3  -4 -13   -0.40    7.80
  -9  -3  -3    7.50    8.70
  -9   2   2    8.80    6.80
  -8  -5  -5    1.40    9.10
  -7  -6  -6   30.30   11.30
  -7  -3  -1    0.50    8.70
  -7  -1   1   28.90    8.20
  -6  -7  -8    9.90    9.40
  -6  -6  -5   16.40   10.40
  -4  -7  -7   -3.80    9.60
  -4   6   5    8.30    4.90
   0  -6  -8  382.26   15.20
   1  -6 -15    3.30    7.10
 -10  -2  -3    8.60    8.90
  -6  -5  -3  129.09   12.80
  -4  -8 -13   91.99   13.00
  -4  -8 -12  232.58   15.30
  -4  -8 -11  486.05   21.20
  -3  -8 -13  136.59   13.50
  -3  -8 -12  207.18   15.00
  -3  -7  -7  406.96   18.10
  -3  -5  -3  248.18   13.90
  -3   4   4   63.69    5.20
  -3   7   5  105.69    7.80
  -1  -7  -9  500.65   18.10
  -1  -4  -3 1002.20   20.10
   1  -6 -11    9.70    8.10
   3  -4 -12   -0.70    6.40
  -7  -7  -9  333.67   18.80
  -7  -4  -2   34.40    9.60
  -6  -7  -7   18.10    9.80
  -6   6   5   28.40    3.30
  -5  -8 -11  149.09   13.80
  -4  -8 -10  121.09   13.30
  -3  -8 -11   94.89   11.60
  -2  -3  -1 3812.52   34.80
  -1   7   4  334.37   13.10
   0  -7 -13  266.97   14.10
   0  -7 -12  113.29    9.90
   0  -4  -4   59.99    8.30
   1  -6 -16  170.78   10.90
  -9  -4  -4   87.89   11.00
  -7  -7  -8   16.40    9.70
  -7  -6  -5    1.70   13.00
  -5  -8 -10   26.40   10.30
  -5  -7  -6  226.78   14.70
  -5  -6  -4   17.40   10.80
  -4  -8  -9  158.18   14.90
  -4  -6  -4  405.66   17.20
  -3  -8 -10  433.46   18.60
  -2  -8 -14   -0.80    6.40
  -2  -8 -12   39.90   10.20
  -2  -7  -7  206.38   13.80
  -2  -6  -5 2118.09   32.20
   0  -7 -15    2.70    7.60
   1  -6 -10  465.95   15.80
   1   6   2 1409.06   23.20
   3  -4 -11  263.97   11.00
  -9  -2  -1   53.49    8.80
  -9  -1   0   94.29   10.70
  -8  -5  -4  542.75   19.60
  -6  -6  -4   21.40   10.80
  -5  -8  -9   17.20   10.20
  -5  -3   0  174.88   10.70
  -5   6   5    3.40    3.60
  -3  -8  -9  112.39   12.20
  -3  -7  -6  663.53   21.30
  -2  -4  -2  192.78   10.10
  -1  -7  -8   23.00    9.40
   1  -5  -7 2692.03   30.90
   6   5  -8  244.28    9.10
 -10  -1  -1  117.59   11.40
  -9  -3  -2    7.50    7.20
  -8  -3  -1  364.36   16.20
  -8  -2   0  614.64   18.80
  -7  -7  -7   87.99   12.40
  -6  -8 -10  159.08   14.20
  -5  -4  -1  163.18   11.10
  -5   1   3    4.00    4.10
  -4  -8  -8  206.88   14.70
  -3  -6  -4   43.60   10.60
  -2  -8 -10  152.78   13.00
   0  -6  -7  620.94   17.40
   2   4   0  671.63   15.10
   3  -3  -8   12.20    5.70
   3   5  -1  444.56   13.10
 -10  -2  -2  353.16   15.50
 -10   0   0   12.00    8.30
  -9  -5  -5   33.30   10.80
  -9   0   1   17.10    8.70
  -8  -4  -2    0.60    9.00
  -8  -1   1  206.28   12.40
  -6  -8  -9   61.29   11.00
  -5  -8  -8   -5.10    9.10
  -5  -5  -2   92.69   10.80
  -4  -4  -1  335.27   13.70
  -3  -8  -8  148.69   12.90
  -3   0   2    0.30    3.80
  -1  -8 -14  207.58   12.80
  -1  -8 -13    7.50    6.90
  -1   2   2   39.30    4.50
   0   7   3 1462.15   23.50
   1  -6  -9    2.90    7.70
   3   3  -2  117.09    7.40
   5   5  -5  243.38    9.60
  -9  -4  -3   15.60    9.10
  -8  -6  -5  610.24   21.20
  -7   7   5   20.00    3.50
  -6  -2   1   32.10    8.10
  -6   1   3  200.98    7.20
  -5  -7  -5   23.70   10.90
  -4  -5  -2  501.35   16.90
  -2  -8  -9   -4.90    8.30
  -1  -8 -15   -0.10    7.50
   0  -5  -5  352.46   13.20
   1  -4  -5 2189.78   26.00
   4  -3 -13    6.30    4.70
   5  -1 -13   -2.40    2.70
 -10   1   1   13.90    7.00
  -8   2   3  219.08    7.80
  -7  -7  -6   23.90    9.60
  -5  -8  -7   15.40    9.40
  -4  -9 -12  294.07   16.40
  -2  -7  -6  512.25   18.30
   1  -7 -14  135.69   10.50
   1   7   2 2302.27   29.50
  -9  -5  -4   47.90   10.80
  -9   3   3    2.40    4.40
  -7  -4  -1  128.39   11.40
  -7  -3   0  283.47   13.60
  -5  -9 -11  -11.10    9.00
  -5  -6  -3  101.89   11.30
  -4  -9 -11    7.80    9.20
  -4  -6  -3  558.54   18.80
  -4  -2   1  360.46   11.10
  -3  -9 -12   51.19    9.90
  -3  -9 -11  251.97   16.10
  -3  -8  -7   71.89   10.80
  -2  -8  -8  330.97   15.90
  -1  -6  -5   47.80    9.10
   1  -7 -15    6.50    6.30
   1  -7 -13   -3.30    6.60
   1   4   1  141.09    8.60
   4   5  -3   54.49    7.20
  -9   1   2  208.38    9.70
  -7  -8  -8  156.78   14.40
  -7  -5  -2   77.39   10.00
  -6  -6  -3  259.17   14.90
  -5  -9 -10   40.60    9.90
  -4  -9 -10  409.66   18.40
  -3  -5  -2   -3.40    7.60
   0  -8 -14   16.10    8.10
  -9  -3  -1  438.46   16.50
  -8  -6  -4  114.79   10.90
  -8   0   2   90.19    8.50
  -7  -7  -5   -2.90    9.60
  -7  -2   1   37.00    7.90
  -6  -9 -10    8.90   10.50
  -5  -9  -9    3.40    8.90
  -5  -8  -6    6.20    9.30
  -4  -9  -9   54.79   10.80
  -3  -9 -10   61.09   10.60
  -2  -9 -14   -2.00    6.00
  -1  -8  -9  143.09   12.30
   0  -8 -15  133.59   10.80
   0  -8 -12   61.59    8.10
   1  -7 -11  151.48   10.80
   3  -5 -14   60.79    7.50
 -10  -3  -2    5.40    8.40
 -10  -2  -1  196.48   12.80
  -9  -6  -5  120.09   12.90
  -9  -2   0  458.95   16.30
  -7  -8  -7   19.70    9.80
  -7   1   3   12.30    5.50
  -6  -8  -6   63.19   10.90
  -6  -1   2  130.19    8.20
  -5  -1   2 1362.76   18.20
  -4  -8  -6   10.00   10.30
  -4  -7  -4   27.50    9.80
  -3  -9  -9  215.98   14.10
  -2  -9 -11   25.60    8.90
   0  -8 -11   12.50    8.90
   0  -7  -8    6.70    7.30
   2   5   0 4776.92   38.70
   3  -5 -16    4.10    5.20
 -10  -1   0   46.10    8.30
  -6  -9  -9   69.79   11.20
  -6  -7  -4  403.76   17.10
  -4  -9  -8   43.00   10.60
  -3  -8  -6  531.75   18.90
  -2  -9 -10   35.30    9.80
  -2  -8  -7   99.69   11.40
   5  -1 -12   40.60    3.00
  -9  -5  -3   -0.40    7.90
  -9  -1   1  182.28   11.10
  -8  -7  -5   25.90    8.00
  -8  -5  -2   11.00    8.00
  -8  -3   0   22.50    9.10
  -6  -9  -8   51.59   10.30
  -6   7   5  146.79    6.40
  -4   9   5   89.59    8.70
  -1  -9 -14   99.59   10.20
  -1  -9 -13   73.29    8.70
  -1  -9 -12   25.20    7.20
  -1  -8  -8  211.38   13.60
  -1  -7  -6  117.09   11.60
   1  -7 -10   64.59    9.10
   4   6  -3 1209.58   21.60
   6   4 -10   21.30    4.10
  -7  -8  -6   56.39    9.90
  -7  -1   2  176.08    9.60
  -5  -8  -5   36.20   10.50
  -5  -5  -1    7.10    7.60
  -4 -10 -12   -6.60    8.00
  -3  -9  -8  242.28   14.60
  -3   5   4   72.59    5.80
   3   4  -2   92.49    8.20
   4  -3 -11  173.18    7.00
   4   2  -5  158.58    6.10
   5   3  -7   44.10    4.70
 -10   0   1    3.90    6.40
  -8  -2   1    3.90    9.20
  -7  -9  -8  186.28   15.20
  -6  -4   0   -3.00    5.70
  -5  -9  -7    9.60    9.20
  -5  -6  -2   15.20    9.10
  -5  -4   0   23.50    7.00
  -4 -10 -11   25.80    8.90
  -4  -9  -7  287.97   16.30
  -4  -8  -5   27.30   10.00
  -3 -10 -12    8.10    7.90
  -1  -4  -2 1999.80   27.00
   1   5   1 9532.35   53.29
  -7  -5  -1  753.72   20.60
  -5 -10 -10  159.98   13.10
  -4 -10 -10  150.28   13.50
  -4  -5  -1  627.74   18.20
  -3 -10 -11   68.19   10.40
  -2  -8  -6    3.10    9.00
  -2  -5  -2  672.33   18.40
  -1  -9 -10   15.90    8.60
  -1   6   3   81.19    6.50
   0   5   2 1123.89   17.60
   1  -8 -15   56.89    8.50
   1  -8 -14    2.10    6.80
   2  -3  -5  316.57    9.20
   2   6   0  170.28    9.40
   3  -5 -11  230.58   10.20
   3   2  -3 1607.84   16.70
   4   4  -4   78.69    6.80
   5   5  -6  117.39    8.20
  -8  -7  -4  146.69   11.40
  -7  -8  -5  115.99   12.10
  -7  -6  -2    1.80    8.00
  -7  -4   0  707.73   19.10
  -6  -3   1    3.80    8.10
  -5 -10  -9  129.09   12.80
  -5  -7  -3  479.35   17.90
  -3 -10 -10   81.89   10.80
  -3  -9  -7  192.98   14.20
  -3  -8  -5   98.59   11.90
  -2  -9  -8   13.20    8.80
  -1  -6  -4   14.40    8.10
   0  -5  -4    7.40    7.60
   1  -8 -13   39.10    8.30
   2   3  -1 1103.89   16.40
 -10  -4  -2  247.88   13.40
 -10  -3  -1  392.46   16.40
  -9  -5  -2   11.10    8.30
  -9  -4  -1   36.70    8.20
  -9   0   2   12.00    6.50
  -6 -10  -9   21.70    8.90
  -5  -9  -6  185.68   13.90
  -4 -10  -9    4.30    8.50
  -4  -4   0  353.66   13.50
  -2 -10 -11   11.00    8.40
  -1  -3  -1  222.78    9.90
   1  -8 -12    2.50    7.40
 -10  -2   0   72.29    8.70
  -9  -6  -3  199.18   13.30
  -9  -3   0   31.10    8.30
  -7  -3   1  286.27   12.90
  -6  -9  -6  352.66   17.00
  -5 -10  -8  138.49   12.60
  -5  -8  -4  197.08   13.80
  -4  -9  -6   45.60   10.20
  -2  -7  -4   65.99   10.30
  -1  -9  -9  160.88   12.50
  -1  -7  -5  541.65   17.60
   0  -9 -12  191.28   11.80
   2   7   0  255.57   11.80
  -8  -8  -5   82.59   10.80
  -8  -5  -1   75.89    9.40
  -7  -9  -6   96.49   11.40
  -6 -10  -8  278.47   16.20
  -4 -10  -8   -1.70    8.60
  -4  -8  -4  150.78   12.70
  -2 -10 -10   18.90    8.70
  -1 -10 -14   57.79    8.90
  -1   7   3    7.70    5.30
   0   6   2 1587.24   22.70
   1  -8 -11    4.60    8.00
   1   6   1 1146.49   20.50
   3   5  -2    1.50    5.40
  -8  -4  10   98.79   15.70
  -8  -1  13   76.99   16.00
  -7 -12   6  449.46   20.80
  -7  -8   6   36.50   12.70
  -7  -1   9    4.20   15.60
  -7   1  11   13.80   15.90
  -6 -11   4   18.40   10.40
  -6   2   9    4.10   16.60
  -6   4  12   48.80   17.50
  -5   4   9   11.80   15.60
  -4   2   5  155.68   20.60
  -3   1   3 1972.70   36.00
  -1 -15  -1   45.50    6.60
  -7  -2   8   39.40   15.50
  -7   2  12   69.79   17.30
  -6   0   7   18.50   15.80
  -6   5  14   46.90   15.60
  -5  -2   4 1125.79   30.10
  -5   6  12  329.77   23.50
  -2   5   5  357.06   18.30
  -2   8   9  169.48   16.30
  -1   5   4   70.59   10.10
  -1   6   5   79.19   11.80
   0  10  11   67.79   13.80
   1  10  10   67.79   12.50
   3  -3  -2  110.89   12.30
   5   4   2   69.69   10.40
   5   6   4   15.20    7.90
  -8  -5   9   18.80   12.60
  -8  -2  11   57.39   16.10
  -8  -1  12   27.50   14.00
  -7  -7   6  145.69   16.30
  -7   3  14  422.66   26.50
  -6  -7   4  360.86   20.60
  -5   0   5  413.66   23.70
  -4  -1   3 2798.62   41.90
  -4   6   9  335.77   23.20
  -4   7  11   29.40   16.60
  -4   8  14   32.30   11.60
  -3   9  14   25.50   13.30
  -2   4   4 2764.42   40.50
  -2   6   6  368.96   18.40
  -2   9  11  392.46   20.50
   0 -12  -2   13.30    6.90
  -8 -10   8  120.49   15.20
  -8  -8   8    4.20   11.80
  -8   0  13   17.90   12.80
  -7  -6   6   37.40   16.50
  -7   1  10   16.90   13.70
  -7   3  13   97.19   16.90
  -6   4  11   14.80   14.00
  -6   5  13   26.60   14.70
  -4 -10   1   36.30    5.50
  -4  -9   1   82.89    7.30
  -3   4   5   25.40   14.10
  -3   5   6  261.47   18.30
  -1  10  12    3.30    9.40
  -8  -4   9   74.89   14.90
  -7   0   9   79.69   16.60
  -7   2  11   14.40   14.30
  -6 -13   4   67.99    8.80
  -6  -3   5  552.74   24.60
  -6  -1   6  362.96   23.70
  -5   3   7   38.40   16.70
  -4   1   4  535.35   21.30
  -4   8  13   29.50   11.30
  -3  -3   1   81.39    7.90
  -3   6   7  212.78   18.70
  -3   9  13   75.59   15.00
  -2   7   7   24.80   11.20
  -1   4   3 6083.99   49.30
  -1   9   9   10.00   11.80
   0 -11  -2  329.27   12.70
   1  -5  -2   10.50    7.70
   2  -4  -2  980.70   21.90
  -8  -2  10   41.80   14.90
  -8  -1  11   15.80   12.20
  -8   0  12   65.99   17.70
  -6   2   8   -5.00   16.80
  -6   3   9    5.20   14.50
  -6   5  12    9.20   12.80
  -5   2   6 1735.73   41.60
  -5   4   8  245.58   21.50
  -4 -11   1   15.00    3.90
  -3   3   4   60.09   14.10
   0   9   8    4.30   10.40
   4  -1  -1   36.40    8.80
   6   6   5   26.10    8.10
  -8  -6   8   42.90   13.50
  -8   1  13   47.30   16.80
  -7  -5   6   46.20   13.40
  -7   3  12  210.28   19.80
  -6   4  10   17.30   14.50
  -6   6  14   20.60   16.40
  -5   5   9   19.30   15.20
  -4  -8   1   -1.70    6.60
  -4  -3   2  514.25   16.80
  -4   8  12  232.98   18.20
  -3  -8   0  868.91    8.90
  -3   9  12  163.38   16.30
  -2   3   3 1862.21   30.90
  -2   9  10  528.25   22.00
  -2  10  13  130.09   14.00
  -1 -14  -1   13.40    5.20
  -1  10  11  115.39   12.40
   0  10  10  338.47   16.60
   2  -1  -1  168.78   11.20
   3  -4  -2   62.49   10.60
   3   3   1  297.57   10.50
   5   8   7   22.80    4.40
  -7  -2   7   40.60   13.40
  -4   4   6  681.83   25.40
  -4   5   7  233.08   19.80
  -1   1   1  296.27   10.70
  -1   8   7  493.05   18.10
   0  11  13    3.50    8.60
   2  10   9   28.70    7.70
   4   1   0    9.80    7.70
   6   4   3  401.66   16.20
  -8  -5   8   -1.90   11.50
  -8   0  11   -6.80   13.70
  -8   1  12   20.90   13.90
  -7   1   9   -2.40   12.90
  -7   3  11  -25.40   12.20
  -7   4  13  137.29   17.00
  -6  -5   4   39.40   11.70
  -6   5  11    5.80   13.70
  -6   6  13   14.40   12.40
  -5   1   5  363.36   22.40
  -5   6  10  434.66   24.00
  -5   7  12  364.16   22.70
  -4   3   5 1500.95   36.30
  -2  10  12   71.99   12.80
   0   2   1  203.98    6.10
   1  -6  -2  145.09    9.60
   3  -1  -1  285.77   11.90
   6   5   4   -4.00    8.60
  -7 -10   5   23.40   12.80
  -7   0   8  -12.20   14.30
  -5 -10   2   -2.50    7.10
  -5  -9   2   -3.10    8.50
  -4  -7   1   41.70    6.80
  -4   9  14   18.90   12.60
  -3   9  11  315.77   18.20
  -1  11  14    9.20    9.40
   1  10   9  669.53   17.40
   2   9   7  176.88    8.60
   4   4   2  794.92   16.60
   5   2   1  324.17   15.00
  -8 -11   7   39.20   12.90
  -8 -10   7   64.89   13.20
  -8  -9   7    8.50   10.80
  -8  -8   7   13.10   11.40
  -8  -4   8  118.09   13.80
  -7  -8   5  124.49   14.50
  -7   4  12   46.80   14.80
  -6   3   8   18.30   17.60
  -6   4   9  327.97   21.10
  -6   6  12   94.79   16.90
  -5  -8   2   34.30    9.10
  -5   7  11   66.19   16.50
  -5   8  14  321.37   19.50
  -3   2   3 1672.43   32.00
  -3  10  14   36.70   11.60
   0   5   3  237.98   10.00
   0   8   6 1516.65   25.20
  -8   0  10   69.29   14.10
  -8   1  11    1.10   12.60
  -7  -1   7   81.29   15.60
  -6   2   7  841.42   32.20
  -5 -11   2  176.58    8.10
  -5   4   7  265.47   20.40
  -4   2   4   53.29   14.80
  -4   9  13   -3.10    9.30
  -2   9   9   16.40   11.10
  -1 -13  -1   23.10    5.10
  -1   9   8   66.19   11.80
  -1  10  10   68.99   12.00
  -1  11  13    0.60    9.00
   1   9   7  154.78   10.40
   3  10   9    7.10    4.30
  -9  -5  10   18.60   12.30
  -8  -6   7   50.79   14.00
  -8  -3   8   85.19   14.30
  -8  -1   9  572.54   27.90
  -8   2  12   14.00   13.70
  -7  -6   5   69.29   15.80
  -7   1   8  265.47   20.70
  -7   3  10  146.99   18.50
  -7   5  13   45.80   14.80
  -6  -1   5  150.08   17.80
  -6   5  10  239.68   19.90
  -5   0   4   -3.40   12.90
  -5   3   6 1750.62   39.10
  -5   6   9   63.59   16.80
  -4  -2   2  755.62   20.10
  -3   6   6  282.47   18.30
  -3  10  13   11.20   11.30
  -2  -3   0  389.76    8.50
  -2  10  11   76.59   12.20
  -1   3   2  994.10   18.90
   0  10   9   19.00    9.10
   1  11  11   54.79   10.00
  -9  -4  10   18.70   14.40
  -7   4  11  123.69   16.00
  -6   6  11    9.00   12.10
  -6   7  13  100.89   18.20
  -4 -12   1   68.59    2.80
  -4  -6   1 3189.18   29.70
  -4   9  12   12.20    9.60
  -3  -7   0  136.99    5.20
  -3   5   5  283.27   17.60
  -3   7   7 1289.07   31.20
  -3   9  10   13.00   10.50
  -2   2   2   99.49   11.90
  -2   7   6   44.40   10.30
  -2  11  14    1.50    8.90
  -1  11  12    3.50    9.80
   1  -2  -1   19.80    5.50
  -8  -5   7   73.69   14.20
  -7  -5   5  314.27   19.50
  -7  -2   6  437.86   23.20
  -7   0   7    6.60   13.40
  -7   5  12   98.09   17.50
  -5  -2   3   24.10   10.00
  -5   2   5  671.13   26.90
  -5   7  10   89.69   16.00
  -4   6   7  251.57   20.20
  -3  -2   1  547.85   14.50
  -3  10  12    0.60   12.10
  -2   0   1   20.00    8.50
   0  11  11   56.09   10.20
   2  -7  -2  233.38   12.80
   4   5   3  298.37    9.90
   4   7   5   78.69    4.90
  -9  -6   9    3.50   10.30
  -9  -3  10   34.20   12.50
  -8   1  10   54.29   14.60
  -6   4   8   64.59   15.60
  -4   4   5   73.09   15.70
  -4   7   8  159.88   16.50
  -3   4   4   57.99   13.40
  -2  11  13    9.80   10.00
  -9  -5   9   -1.80   12.60
  -8  -4   7   40.80   12.20
  -8   0   9  -10.20   12.20
  -8   3  12   48.90   14.40
  -7   3   9  203.58   19.20
  -7   4  10  334.67   21.40
  -6 -10   3  236.88   13.00
  -6   0   5    8.00   13.10
  -6   5   9   39.10   15.60
  -5 -12   2   45.50    4.80
  -2  10  10  136.79   12.60
  -1 -12  -1   42.30    5.20
  -1  10   9  177.98   13.80
  -8  -1   8  169.98   20.00
  -7  -4   5  486.45   22.00
  -7   2   8   37.30   14.20
  -7   5  11   79.09   16.90
  -7   6  13   14.60   12.10
  -6  -7   3  515.75   18.10
  -6   6  10   79.09   15.90
  -5   5   7   73.29   16.50
  -5   6   8   16.30   13.00
  -5   8  11   69.29   14.90
  -4   1   3 2831.82   40.90
  -4   8   9    2.00   11.70
  -1   6   4  120.49    9.90
  -1   8   6  110.09   11.30
  -1  11  11  462.35   18.30
   2  -2  -1  169.38    8.90
   4   6   4  423.66    9.80
  -9  -4   9   28.90   13.40
  -8  -9   6   10.40   11.70
  -8   2  10   55.09   14.00
  -7  -1   6  100.69   16.10
  -6  -6   3   60.99   12.60
  -6  -2   4  425.36   20.00
  -6   2   6   63.39   16.80
  -5   1   4   41.30   12.80
  -5   4   6  176.48   18.30
  -5   9  13  108.29   13.30
  -4   3   4   94.39   17.30
  -4  10  13  153.28   15.80
  -3   1   2 6776.62   54.49
  -3   9   9  365.56   19.50
  -3  10  11  206.18   15.20
  -2  11  12    1.80    8.10
  -1  -1   0 2145.69   13.40
  -9   0  11   96.99   15.60
  -8 -10   6   16.20   11.10
  -8  -7   6   52.39   12.40
  -8   1   9  574.54   26.90
  -8   3  11    4.00   12.90
  -8   4  12   -0.40   14.10
  -7   6  12   21.20   12.80
  -6   7  11   70.09   14.80
  -5  -1   3   -3.20   10.10
  -4  -1   2  127.89   12.10
  -2 -14   0  187.98    6.90
   1  11  10  143.39   10.00
   5   4   3 1856.91   27.00
  -9  -7   8   38.60   11.60
  -9  -3   9  156.88   15.90
  -8 -11   6   42.40   10.60
  -6  -5   3   45.40   11.50
  -5   3   5  708.13   26.80
  -5   9  12   13.60   10.00
  -4  10  12   19.80   13.20
  -3  -6   0  262.57    7.40
  -3  11  13   82.09   11.40
  -1 -11  -1   89.19    6.20
  -1   9   7   32.20    8.90
   0 -13  -1   95.19    7.80
   0   4   2  120.89    7.70
   0  10   8  343.67   14.90
   0  11  10  445.76   16.60
   5   7   6  215.38    8.60
   6   4   4   64.99   10.20
   6   6   6  150.58   10.30
  -8   0   8  595.04   26.30
  -7   0   6   -1.60   14.40
  -7   3   8   14.90   16.80
  -7   4   9   88.39   15.90
  -7   5  10   58.59   15.40
  -6   1   5  159.38   18.10
  -6   4   7   12.60   14.20
  -6   5   8  240.48   20.00
  -6   6   9  465.85   23.90
  -5   8  10   46.50   13.40
  -3   7   6  985.20   26.90
  -2  11  11   41.50    9.90
  -1  12  13  188.08   13.50
   2  10   8  692.33   12.90
   2  11  10  193.08    9.00
   6   5   5    8.10    8.00
  -9  -5   8    4.80   11.40
  -9  -2   9    4.00   11.70
  -9   1  11   16.00   13.60
  -8   3  10   19.00   12.40
  -8   4  11   47.50   16.00
  -7  -9   4   28.20   11.80
  -7  -8   4   -5.50   11.80
  -7  -7   4  121.09   14.50
  -7   6  11    6.00   12.00
  -6 -12   3  142.69    8.10
  -6  -1   4   63.79   13.60
  -6   8  12   19.60   12.40
  -4   6   6  250.77   18.50
  -3  10  10   39.00   11.90
   3   0   0   -0.60    5.80
   5   5   4   24.60    7.10
  -9  -4   8  138.49   16.70
  -9   0  10   -5.70   12.50
  -8  -4   6   23.60   12.30
  -7  -6   4   71.99   13.80
  -6   3   6  633.44   28.10
  -6   7  10  145.49   16.30
  -5   6   7   93.99   15.50
  -4   5   5  145.19   16.90
  -3  -1   1  308.57   12.40
  -3  11  12   67.39   12.10
   0  12  12  132.79   11.20
   4  -1   0    5.10    7.00
   5   6   5   47.90    6.90
  -8   1   8  154.78   18.30
  -8   5  12   13.40   12.40
  -7   7  12   -8.40   11.50
  -5   0   3   32.70   11.80
  -5   5   6  130.39   17.30
  -5   7   8  184.98   17.90
  -5  10  13   10.40   11.10
  -4   2   3 1670.83   33.00
  -4  10  11   93.59   12.90
  -1 -15   0   -0.90    5.00
  -1  10   8  176.48   12.80
   0 -12  -1  167.68    9.10
   5   2   2  169.48   11.80
  -9  -3   8   38.40   10.70
  -9   2  11  101.79   15.10
  -8  -3   6    6.40   12.30
  -7 -11   4    2.70    7.20
  -7   1   6  144.79   17.60
  -6   8  11   -5.10   11.10
  -5 -13   2    3.80    2.80
  -5   8   9   48.90   14.60
  -4  11  13   13.70   11.80
  -2  12  13   -0.40    9.10
  -1  12  12   25.30    9.10
   1   8   5  644.84   13.30
   3  -4  -1  622.14   18.20
  -9  -7   7  159.08   15.50
  -9   1  10   18.90   12.50
  -8   0   7    4.10   14.70
  -7  -1   5  233.58   17.70
  -7   6  10  746.83   29.20
  -6   0   4  460.55   21.20
  -6   2   5 1312.77   35.30
  -6   6   8  246.38   19.20
  -4   4   4   71.59   14.90
  -3  11  11    2.60   10.50
  -2   3   2 3037.60   34.90
  -2  11  10   55.09    9.80
   1   7   4  104.89    7.00
   4   3   2 1530.45   22.10
  -9  -6   7  133.79   14.60
  -9  -2   8  149.69   15.00
  -9   0   9  171.48   17.90
  -8   5  11   18.50   12.70
  -7   3   7    8.40   15.00
  -7   7  11    1.80   12.00
  -6   5   7   72.69   15.80
  -6   7   9  144.69   17.20
  -5  10  12   16.50   11.20
  -3  10   9  330.17   18.30
  -1  -9  -1    4.10    4.70
   0   8   5 2976.80   31.20
   0  11   9  486.95   16.40
   4   1   1  165.88   10.50
  -9  -5   7  106.29   14.70
  -8   2   8  286.67   20.70
  -7 -12   4   -4.20    6.30
  -4  -3   1  476.95   14.10
  -4  10  10  173.98   15.10
  -4  11  12  185.88   15.50
  -3   2   2 1173.78   23.40
  -3  12  13   11.30   10.40
  -2  10   8  287.97   16.20
  -2  12  12   -0.90    8.60
   0 -11  -1  479.55   13.40
   0   9   6 1190.08   21.90
   0  12  11  211.68   12.20
   2   0   0 2013.50   22.10
  -9  -4   7   64.19   15.00
  -9   2  10   50.69   14.30
  -7   0   5  470.65   23.10
  -7   2   6  405.96   23.60
  -4   7   6  446.96   21.00
  -3   4   3  221.38   15.20
  -2  -2   0  775.92   12.40
  -1  12  11   -2.30    7.60
   1  12  11   74.49    8.30
  -8 -10   5   96.89   12.60
  -8  -5   5    1.60   11.30
  -8   4   9   61.29   14.10
  -8   5  10  278.47   20.70
  -7   5   8    1.70   14.00
  -7   6   9   40.80   14.20
  -6  -2   3   11.10   10.40
  -5   1   3   -2.90   12.40
  -5   7   7  152.08   16.80
  -5  10  11  104.69   13.30
  -2   5   3   61.19   10.80
  -1   4   2  804.82   17.00
  -9  -3   7   94.29   14.20
  -8   6  11   14.80   13.60
  -7   4   7   10.10   14.10
  -7   7  10    0.10   12.60
  -6   3   5  527.65   25.30
  -6   9  11  100.79   16.20
  -5   6   6   17.80   13.80
  -4   3   3  110.99   13.90
  -4  11  11   32.50   12.90
  -3   7   5   96.99   13.90
  -3  11  10    9.00   10.60
  -3  12  12  129.59   13.60
  -1 -14   0  186.48    8.60
  -1   9   6  272.27   13.40
   0  10   7  115.29   12.30
   3  -1   0  109.49    7.90
   5   3   3  116.89   10.40
  -9   3  10   51.39   14.10
  -8 -11   5   -1.20    8.30
  -7   8  11   77.99   16.30
  -6   6   7   62.69   14.70
  -6   7   8   -2.50   13.90
  -5   5   5  226.98   19.20
  -5   9   9  181.78   17.30
  -4   1   2  131.39   12.80
  -3   0   1  258.27   12.90
  -2  11   9   45.40   11.00
  -1   7   4  341.77   13.70
   0 -10  -1   34.30    6.20
   2  -5  -1 1348.57   24.60
   5   1   2  265.07   14.30
  -9  -2   7   16.70   11.30
  -8  -3   5  186.18   17.50
  -8   0   6   87.09   16.30
  -7   1   5  234.28   18.70
  -6  -1   3  186.48   15.10
  -6   5   6   61.19   15.60
  -6   8   9   11.20   12.60
  -4  -2   1  345.07   13.20
  -4   5   4  131.89   16.40
  -4  10   9    4.90   11.40
  -3   6   4  804.42   24.80
  -1  10   7  160.18   12.40
   0   6   3  780.22   15.30
   1  10   7  121.69    8.90
   2  -6  -1   -0.90    7.10
  -9  -7   6  342.77   19.50
  -8   5   9   14.60   15.20
  -6  -7   2   10.20    9.90
  -6   9  10   27.90   13.20
  -5  -1   2 1326.17   27.40
  -5  10  10   39.50   12.50
  -5  11  12   -8.30   11.60
  -3  -4   0  376.46    9.60
   0  12  10   20.70    9.10
   1   0   0    6.00    4.30
   2  11   9   42.20    5.80
   4   0   1    8.00    6.50
   4   4   3  413.76   12.30
  -9  -8   6   16.00   11.70
  -9  -6   6    5.70   11.10
  -9  -1   7   35.10   13.40
  -9   1   8   61.79   15.50
  -8  -2   5   87.89   16.10
  -8   4   8  106.19   16.60
  -8   6  10   19.00   13.20
  -8   7  11    2.20   14.80
  -7  -1   4  173.98   16.40
  -7   6   8  443.66   24.00
  -7   7   9  168.78   17.20
  -6  -6   2  371.26   15.90
  -6   2   4  417.36   22.80
  -5   2   3   26.90   12.90
  -3  12  11   76.09   11.90
  -2   8   5  178.38   13.20
  -1  12  10  355.66   15.80
   1  -9  -1   61.59    7.20
  -9   3   9  144.39   18.10
  -9   4  10    6.80   13.10
  -8   1   6   92.09   15.40
  -7  -8   3   60.89   10.50
  -7  -7   3   36.30   13.00
  -7  -6   3  -17.40   11.10
  -7   5   7  106.99   17.60
  -6  -9   2  264.57   11.60
  -6   4   5  142.89   18.50
  -5   4   4   -6.10   14.10
  -4  11  10   57.89   11.40
  -4  12  12   20.10   10.90
  -3  11   9  176.38   14.60
   3  -2   0 1777.22   27.70
   5   4   4  413.06   15.00
  -9  -4   6   15.00   10.40
  -8   3   7  -10.60   14.00
  -7  -9   3   39.30    9.80
  -7  -5   3  204.38   16.00
  -6   0   3    2.30   11.80
  -5  -7   1  359.06   12.60
  -5   8   7   58.09   14.10
  -5   9   8   12.70   12.00
  -5  11  11   30.60   11.60
  -4   9   7   -5.60   10.60
  -3   3   2  100.09   10.10
  -2   7   4  762.12   22.00
  -2  12  10   40.00    9.30
  -1   6   3   80.29    8.60
  -1  11   8   32.00    8.70
  -1  13  12  246.18   14.10
   0  -6  -1  207.08    9.10
   1  -7  -1  459.55   13.90
   1  -6  -1    9.10    7.00
   1  12  10    6.70    7.10
   2   9   6  177.18    6.00
  -9  -3   6   36.50   12.40
  -9   2   8  153.98   18.80
  -7   0   4  -13.40   12.70
  -7   4   6   -8.70   13.70
  -7   9  11    9.80   12.30
  -6  -4   2   27.40   10.30
  -6   7   7  288.67   21.60
  -5  -8   1  118.69    7.90
  -5  -6   1  134.39   10.10
  -4   4   3  682.03   23.30
  -4   7   5  456.15   21.90
  -3   5   3   -1.70   10.60
  -2 -12   0  276.87    7.90
  -2   4   2 1022.30   22.50
  -2  13  12    5.40    8.80
  -1 -13   0   42.10    6.10
   2   2   1  987.70   13.20
   2   4   2  185.88    4.70
   3   1   1  776.52   16.20
  -9   5  10   20.40   13.90
  -8  -7   4  468.85   20.80
  -8  -6   4   94.89   12.70
  -8   5   8    2.60   13.70
  -8   6   9   38.30   14.00
  -8   7  10    0.90   13.10
  -7  -4   3  431.16   19.40
  -6 -10   2  612.44   13.80
  -6   6   6  100.19   17.20
  -6   9   9   11.00   12.60
  -5  -5   1 1982.30   27.50
  -5   0   2    7.50    9.80
  -4  -1   1   40.80    8.90
  -4   2   2  705.53   21.60
  -4  12  11  106.99   14.30
  -2  11   8   11.20   10.40
   2  -1   0  520.45   13.80
   5   2   3 1740.33   29.40
   5   5   5   51.09    8.30
   5   7   7  502.85   13.40
  -9   4   9   22.40   15.50
  -8  -8   4   59.69   13.00
  -8  -5   4  718.13   24.40
  -8   2   6   27.70   13.20
  -7 -10   3  265.47   11.80
  -7   8   9   19.30   13.50
  -6   3   4   51.99   15.90
  -3 -14   1    5.70    3.50
  -3   1   1  270.07   13.90
  -3   8   5 1025.50   27.70
  -3  12  10    5.20    9.80
  -3  13  12   -0.60    9.50
  -2   2   1  177.88   11.80
   1  11   8  446.06   12.90
   4  -1   1  145.29   10.60
  -9   1   7   35.30   14.20
  -9   3   8   33.60   15.10
  -8   0   5    0.80   13.30
  -8   4   7   27.10   15.10
  -7  -3   3   49.40   11.40
  -7   6   7    1.70   13.40
  -7   9  10   20.90   15.90
  -6   1   3  194.48   16.70
  -5  -9   1   13.50    5.00
  -5   3   3  251.57   18.10
  -5  11  10  252.77   17.80
  -4  11   9  119.49   12.70
  -3  -3   0  207.58    8.60
  -1  12   9  110.29   11.20
  -1  13  11  111.79   11.00
   5   6   6  532.25   14.60
 -10  -4   7   19.40   13.60
  -9  -1   6    6.90   12.20
  -7   1   4  193.18   17.80
  -7   5   6   36.00   14.80
  -5   5   4  148.89   18.00
  -3   7   4 1911.91   36.90
  -3  11   8  187.18   15.40
  -2  -1   0  492.05   11.40
  -2  12   9   11.10    8.80
  -2  13  11   56.99   10.50
   0  12   9   52.99    9.70
   4   5   4   41.20    6.70
 -10  -3   7  391.46   23.90
 -10   0   8    9.10   11.00
  -9   2   7    4.50   15.30
  -8 -10   4  163.58   12.60
  -8  -3   4  439.76   21.30
  -8   3   6   25.40   14.00
  -8   7   9    8.90   13.10
  -6  11  11  166.98   15.90
  -5   1   2 1320.87   29.50
   0  13  11   17.60    7.30
   3  -4   0  378.96   15.10
  -9  -6   5  273.77   17.40
  -8  -2   4   20.80   13.70
  -8   1   5   62.69   14.00
  -8   6   8   50.19   14.60
  -8   8  10    8.30   13.60
  -7 -11   3  120.79    8.60
  -6   7   6  733.73   30.00
  -6   9   8   14.10   12.90
  -5   8   6  611.64   25.40
  -5  12  11   10.10   11.80
  -4   0   1   -8.00    8.90
  -4  12  10    0.80   10.10
  -3  13  11    4.70    9.90
  -1   9   5  220.18   12.40
  -1  10   6  456.05   17.20
   2  10   7   34.60    4.60
   3  -5   0   94.19   10.90
   4  -2   1 1107.89   24.20
 -10  -2   7   -6.60   13.20
  -9  -4   5   29.70   13.10
  -9   4   8  136.69   18.80
  -7   2   4   50.99   15.10
  -7   4   5  513.55   25.80
  -7   8   8   12.50   12.60
  -6 -11   2  159.08    7.60
  -6   2   3   10.70   13.30
  -6  10   9    7.60   12.50
  -5   7   5  794.62   30.00
  -4   3   2  508.85   20.00
  -4   5   3   28.60   14.10
  -4   9   6   24.50   12.10
  -3   4   2   80.59   12.90
  -3  12   9   26.80    9.60
  -1 -12   0  390.16   11.20
   0   9   5   31.30    8.60
   0  10   6  453.65   15.10
  -9  -9   5   -0.60   10.50
  -9  -3   5   68.69   12.90
  -7   7   7    1.00   13.60
  -7   9   9    5.30   12.60
  -6   6   5   23.80   15.00
  -5  11   9  240.38   16.80
  -4  11   8   41.80   11.20
  -2  10   6  213.48   13.90
  -1  11   7  297.97   15.30
   0 -12   0  706.03   16.60
   2  -2   0  779.82   17.30
 -10  -1   7  213.08   17.80
  -9   1   6    6.10   15.80
  -9   3   7   99.19   17.30
  -9   6   9   -7.40   13.80
  -6  11  10   34.50   11.50
  -5 -10   1  643.34   10.10
  -5  -2   1  446.16   16.40
  -5   4   3  102.29   13.80
  -4  13  11  126.99   14.60
  -3  -2   0 1822.22   23.20
  -2  11   7  320.47   17.10
  -2  13  10   23.50    9.40
  -1   0   0    4.30    5.30
  -1   3   1  278.37   11.20
   0   5   2 1131.69   15.20
   4   3   3 3426.66   34.60
  -8   7   8   47.70   16.40
  -7   0   3   78.89   13.60
  -5   6   4  127.59   17.10
  -5  12  10   35.70   13.20
  -4   7   4   30.00   15.40
  -4  12   9   12.90   12.80
  -3   2   1  515.75   18.30
  -2 -11   0   20.60    4.50
  -2   8   4 1682.03   31.50
   0  11   7    4.00    7.80
   1  12   9    0.50    6.30
   3   6   4   58.19    5.00
   4   8   7    9.10    4.70
 -10  -5   6   11.60   11.00
 -10   0   7   -4.10   11.00
  -9  -1   5   66.79   14.10
  -8   6   7   54.19   17.20
  -7   5   5  306.07   23.20
  -6   9   7  242.18   21.60
  -3   9   5   25.10   12.10
  -3  11   7  -13.90   11.90
  -3  13  10  100.79   12.50
  -2   5   2  119.89   11.70
  -2  12   8  237.68   15.20
  -1  12   8  184.08   13.50
   0   3   1  238.28    6.60
   0  13  10  130.79   10.70
 -10  -3   6   16.60   14.10
  -9   2   6    6.60   13.80
  -9   4   7   65.49   17.20
  -8   3   5  171.38   19.10
  -7   9   8   39.70   16.30
  -6   0   2 2420.46   40.70
  -6   3   3  328.07   21.60
  -6   8   6   98.89   18.20
  -6  10   8   -2.50   12.00
  -5  10   7   15.70   13.20
  -4   1   1   33.90   11.30
   2  -3   0  391.16   13.80
   4   7   6   21.70    6.40
   5   4   5  509.95   17.10
  -8  -5   3   -1.20   12.70
  -8   5   6   72.99   17.90
  -7  -6   2  238.78   15.50
  -7   1   3    5.10   12.70
  -7   8   7   95.59   16.20
  -7  10   9    5.20   12.80
  -5  -1   1    0.80    9.10
  -4  -5   0  390.36   12.30
  -3   8   4  688.43   23.70
  -3  12   8  -16.30   11.90
  -2 -14   1  412.26   11.40
  -1   7   3    9.90    6.90
   0 -11   0   -1.20    5.80
   1 -10   0 1255.67   24.50
 -10  -2   6  147.39   17.70
  -9   6   8  249.58   23.20
  -8  -7   3    3.20   11.10
  -8  -4   3  194.38   17.70
  -8   1   4   50.69   14.60
  -8   8   8   -2.10   16.90
  -7  -7   2   21.10    9.80
  -7  -4   2   33.10   13.60
  -6   7   5  142.79   18.80
  -5   5   3 1338.47   33.80
  -4   6   3 1372.56   32.80
  -4  13  10   19.40    9.90
  -2   7   3  785.22   21.80
   1   9   5  288.97    9.60
   1  10   6  424.16   11.80
   2  -7   0  257.67   12.70
   5   2   4 1363.96   27.00
 -10  -1   6   44.50   14.80
  -9   3   6   44.20   14.70
  -9   5   7  111.39   19.90
  -8  -3   3   18.40   11.50
  -8   9   9    4.10   14.10
  -7  -3   2  217.78   16.30
  -7   4   4  350.46   23.30
  -6   1   2  141.89   15.60
  -6  12  10   16.80   11.80
  -5   3   2   29.10   13.80
  -5  12   9    4.80   10.00
  -4  -7   0   97.99    6.50
  -4   9   5   44.20   15.60
  -4  11   7   13.40   11.20
  -3  -1   0  105.69    9.40
  -3   5   2   -1.70   11.10
  -3  14  11   22.00   11.20
  -2  13   9   32.00    9.40
  -2  14  11   35.80    9.60
   2  -6   0  156.48   11.20
   2  -5   0 4862.21   46.00
   3  -1   1  769.82   18.10
  -9  -7   4   77.79   12.50
  -9  -6   4   16.70    9.90
  -9  -5   4   55.59   12.20
  -9  -4   4   -2.50   10.20
  -8   4   5  404.86   24.40
  -7  -8   2    9.30    8.70
  -7   6   5   63.59   17.60
  -6   4   3  107.69   15.90
  -5   0   1 1528.35   30.80
  -5   7   4  430.56   23.90
  -4  12   8   11.20    9.70
  -3  13   9   74.09   12.10
  -1  13   9    4.90    9.80
  -1  14  11  113.39   10.80
   5   5   6    2.90    8.10
 -10   0   6   26.00   13.10
  -8  -2   3  208.68   16.80
  -8   2   4   21.00   14.60
  -8   6   6  308.77   23.00
  -7  -2   2   16.60   11.90
  -6  -5   1   48.60   11.70
  -6  -4   1   84.79   12.20
  -6   6   4  175.48   19.60
  -6  10   7   64.89   16.60
  -5  13  10    1.80   11.80
  -4  -3   0  179.48   10.10
  -4   2   1  338.97   16.90
  -4   8   4  199.58   18.80
  -3   7   3  443.46   19.40
   2  11   8    3.20    3.90
   3   2   2 5741.53   40.30
   5   6   7   38.70    8.90
  -9  -8   4   69.09   12.30
  -9  -2   4  106.49   15.10
  -9   4   6    2.60   14.60
  -9   7   8   24.20   15.10
  -8  -1   3   93.49   15.90
  -7   9   7   13.10   13.50
  -7  10   8   40.30   12.70
  -6  -7   1  112.69   11.00
  -4  13   9  155.88   16.10
  -3 -13   1  230.08    7.40
  -3   3   1   70.79    9.80
  -2  10   5  112.89   12.50
   1  11   7   23.30    6.50
   2   1   1 1259.17   17.30
   3  -2   1 1295.57   24.60
   4  -1   2  414.46   15.90
   4   2   3   59.89    8.90
 -10  -6   5    0.60   12.60
 -10  -5   5   14.10   12.60
 -10   1   6   40.20   13.90
  -8   9   8   65.39   15.10
  -7   5   4  156.68   19.20
  -7   8   6   37.00   14.70
  -6  -3   1   10.70    9.00
  -6   2   2  250.77   18.30
  -6   8   5 1193.98   35.90
  -6  12   9   -7.60    9.70
  -5  10   6  114.79   16.40
  -3  11   6    3.90   12.70
  -2  12   7  573.74   21.80
  -1  10   5   38.20    9.40
  -1  11   6  158.58   12.70
   1   8   4  957.70   14.10
   4   4   4  281.57   11.70
 -10  -3   5   14.70   13.20
  -9  -1   4  751.82   27.20
  -8   5   5    7.80   15.10
  -8   8   7   33.30   14.10
  -7   3   3   53.19   14.60
  -5   4   2 2016.60   38.80
  -5   6   3  619.84   25.50
  -5   9   5  268.97   20.50
  -5  12   8  122.89   14.50
  -4  -2   0   26.60    7.80
  -4   5   2 2737.03   43.50
  -3  12   7   56.79   14.90
  -3  14  10  357.46   18.10
  -2  14  10   14.80   10.10
   0  13   9   -2.50    7.70
   5   3   5  128.19   12.00
 -10  -2   5   63.49   14.70
 -10   4   7   17.50   15.00
  -9   0   4    6.80   12.60
  -9   5   6   61.29   14.70
  -8   7   6   67.39   15.90
  -7   0   2   13.70   13.40
  -6  -8   1  139.99    9.60
  -4   7   3   20.40   13.90
  -3   9   4   17.40   13.90
  -2   6   2   70.89   10.90
  -1 -10   0 1230.88   18.60
  -1  12   7   25.20    9.40
   3  -3   1  291.97   14.90
   3   4   3   31.40    5.60
 -10  -1   5   31.90   16.20
  -6   7   4  342.47   23.20
  -5   8   4  416.86   24.00
  -5  13   9   88.09   13.50
  -4  10   5  252.87   20.30
  -4  12   7   23.70   11.50
  -4  14  10   98.29   13.20
  -3  13   8   91.59   13.40
  -2   4   1  629.74   18.30
  -2  13   8   15.20   10.50
  -1   6   2  141.39    9.60
  -1  14  10   30.00    9.00
   1  -2   0 1244.28   18.00
   3  -4   1   11.40    8.20
  -8   1   3   64.89   15.30
  -8   4   4  275.57   21.30
  -7  10   7   64.69   15.60
  -7  11   8   78.39   15.70
  -6  -1   1 3476.35   46.40
  -6   3   2   55.89   14.40
  -4  -1   0    3.90    8.30
  -4   3   1  471.95   19.30
  -1   4   1 1696.73   22.20
   1  -7   0  174.48   10.50
  -7  -7   2   12.20    3.80
  -4   3   3   70.69    8.60
  -2   3   2 3105.59   32.00
   0 -19   0   -5.20    7.10
   0 -11  -2  335.57   13.50
   0 -10  -2   46.80    7.70
   0  -9  -2  817.52   18.30
   0  -8  -2  860.21   18.80
   1 -19   0  105.59   10.00
   1 -10  -2  586.74   17.40
   2   7   6  451.75   12.60
   3 -14  -1   -3.70    8.60
   3  -5  -1  485.15   15.30
   5 -16   1   49.60   10.80
   5 -12   0  583.74   20.50
   6  -3   2  214.68   11.70
   8 -10   4   -9.10    8.30
   8  -9   4   50.89    8.20
   8  -8   4  131.09   10.70
  -5 -12   0  561.64   10.80
  -1 -19   0  101.89    9.30
   1 -11  -2   36.30    8.80
   1  -8  -2   28.40    8.20
   4 -11  -1   15.70    9.60
   4  -9  -1   78.59   11.70
   5 -13   0    9.40   10.00
   5   5   7 2330.37   14.10
   6 -13   1   78.09   12.60
   7  -9   2   11.00    8.60
   7  -8   2   75.09   11.10
   7  -4   3   80.89   10.10
   8  -7   4  167.38   11.60
   8  -1   7   14.40    7.20
  -7  -3   3   37.90    6.90
  -4 -16   0   65.99    7.30
  -3 -14  -1    5.50    6.00
  -1 -11  -2   12.60    7.40
   0 -17  -1  398.46   15.30
   0  -7  -2  113.59    8.90
   1 -17  -1   -1.90    6.10
   3 -18   0    1.40    9.10
   4 -12  -1   67.09   11.70
   5 -14   0   71.19   11.70
   6 -14   1   88.59   12.20
   8  -6   4  110.89   10.60
   8  -2   6   -6.20    9.10
  -5  -3   1  211.18    7.30
  -2 -19   0   49.00    7.80
  -2 -16  -1  105.49    8.80
  -1 -17  -1   28.70    7.50
  -1 -12  -2  366.66   14.00
   1 -13  -2  720.73   20.20
   1  -7  -2   26.30    8.50
   2 -11  -2  147.39   12.30
   2 -10  -2 1160.28   24.70
   2  -9  -2 1261.77   25.80
   4 -17   0   -2.90    9.30
   4 -13  -1   52.29   11.40
   6   2   5   86.49    6.20
   7 -13   2   -4.00   11.90
  -6  -7   1  101.69    3.40
  -5 -13   0    2.20    4.40
  -4   1   2  129.89    9.50
   2 -17  -1  167.68   13.20
   2 -12  -2    7.30    8.60
   2   6   5 2294.07   24.60
   3 -16  -1   53.69   10.10
   4 -14  -1   77.19   11.20
   5  -5   0   48.70    9.30
   6 -15   1   57.29   12.70
   7 -14   2   24.80   10.20
   7  -6   2    4.80    8.20
   7   1   6   14.40    6.00
  -6  -3   2   65.79    6.70
  -3 -15  -1  460.05   14.40
  -2   4   3 3152.28   37.10
  -1 -13  -2   23.30    7.70
   0 -18  -1   -3.10    7.40
   0 -14  -2   37.30    8.40
   1 -18  -1   58.89    8.40
   1 -14  -2  284.57   14.00
   2 -13  -2   31.80    9.60
   2  -7  -2  256.77   13.90
   4  -6  -1 3063.99   38.80
   4   6   7  943.61   14.00
   7  -3   3  255.67   13.70
   8 -11   3   20.80    9.60
   8 -10   3   97.99   11.50
   8  -9   3   11.10    9.70
   8  -5   4  554.94   17.50
   8  -3   5   92.99   10.20
  -7  -8   2   18.90    3.30
  -2 -17  -1   59.69    7.70
  -1 -18  -1   50.69    8.40
   1   7   6  123.89    9.80
   2 -14  -2  202.78   13.10
   3 -17  -1   56.49   11.70
   3 -11  -2  876.51   23.20
   3 -10  -2  364.76   17.20
   4 -15  -1  134.79   13.30
   4   7   9   98.89    7.60
   5 -16   0   24.50   11.40
   6 -11   0  -12.70    9.80
   6  -2   2   74.49    9.80
   6   1   4  675.93   14.20
   6   3   6    2.50    3.00
   8  -8   3    2.50    7.40
  -4 -17   0    3.00    5.70
  -2   1   1  173.58    8.80
  -2   5   4  837.42   20.90
  -1 -14  -2   64.19    8.90
  -1   3   2  983.00   18.00
   0 -15  -2  282.27   13.90
   2   5   4   77.69    5.80
   3  -9  -2  593.74   20.10
   5 -11  -1  486.35   20.60
   5   0   2    8.10    6.30
   6 -13   0  145.29   15.10
   6 -12   0   50.49   11.60
   6  -9   0   33.00   10.40
   6  -4   1   83.69   10.70
   7  -5   2   59.49   11.40
   7  -1   4 1157.98   21.70
   7   2   7    1.30    4.20
   8  -7   3  155.18   12.40
  -6  -1   3  186.58   10.80
  -5  -1   2 1289.37   20.50
  -4 -11  -1  347.57    9.70
  -4 -10  -1  143.89    6.60
  -3 -16  -1    2.00    6.30
   0 -19  -1   11.90    8.20
   1 -19  -1   -0.30    6.30
   1   0   0    4.70    2.60
   2 -15  -2   20.50    9.10
   2  -6  -2  116.39   11.40
   3 -13  -2   33.90    9.80
   4 -16  -1  149.69   14.40
   4  -5  -1  862.11   21.00
   5 -17   0    7.90    9.70
   5 -13  -1   44.10   10.70
   5 -12  -1   36.30   10.40
   5  -9  -1    8.20   10.60
   5  -4   0   14.20    7.50
   7 -12   1   26.60   11.00
   8  -4   4  181.28   11.80
  -7  -4   3  422.76   12.00
  -3   0   1  243.28    8.60
  -1 -15  -2   52.79    8.50
   2 -19  -1  162.38   12.50
   3 -18  -1   13.00    8.30
   3 -14  -2  149.09   12.80
   3   6   6  286.57    8.90
   4  -2   0   39.20    7.80
   5 -14  -1    4.00   10.90
   5  -8  -1  128.39   12.60
   6 -14   0   10.50   10.30
   6  -7   0  139.09   12.70
   7 -14   1    5.80   10.80
   7 -13   1  106.79   13.00
   7  -8   1  478.95   19.00
   8  -6   3   45.10    9.40
  -4  -9  -1  384.86    8.10
  -3   3   3 1440.96   25.40
  -2 -18  -1   65.09    7.40
  -1 -19  -1    3.20    6.30
  -1   6   5   54.39    8.30
   1   6   5   57.79    7.80
   2 -16  -2    3.40    8.40
   3 -15  -2    6.80    8.00
   3  -7  -2  125.99   12.40
   4 -17  -1  107.79   12.40
   5  -7  -1  356.26   16.00
   6 -15   0  123.89   14.50
   6   0   3    1.50    6.90
   7  -7   1  200.78   14.10
   8  -1   6   15.80    6.50
  -4 -13  -1  127.29    7.30
  -3   4   4   52.79    8.40
  -2  -8  -2   74.19    5.70
  -1 -16  -2   30.80    7.80
  -1   4   3 6010.70   45.30
  -1   5   4   62.89    8.10
   1 -17  -2   50.19    7.60
   1  -5  -2   14.20    7.30
   1  -2  -1   31.10    6.70
   1   3   2  503.85    9.00
   2   7   7  182.38   10.30
   3  -3  -1   72.39    8.50
   4 -13  -2    4.70    9.60
   4 -12  -2  121.39   12.70
   4 -11  -2  607.34   20.40
   4 -10  -2  165.78   13.80
   7  -2   3  601.04   17.70
   8 -11   2  219.08   13.60
   8 -10   2    2.50    7.70
   8  -9   2    1.90    9.40
   8  -2   5    2.80    8.10
   9  -6   5  112.29   10.70
  -3 -17  -1    6.20    5.50
   0 -17  -2  117.59   10.10
   0  -5  -2 1248.98   18.30
   0   6   5  529.65   15.90
   3 -16  -2  126.39   11.80
   4 -18  -1    2.80    8.80
   4 -14  -2   23.10    9.50
   8  -8   2   74.79   10.70
   8  -5   3   79.49    9.10
   9  -4   6    6.20    6.40
  -4 -14  -1   25.90    5.30
  -2 -19  -1   -1.20    6.40
   3  -6  -2   -0.20    5.80
   4  -8  -2  206.38   13.30
   4  -4  -1 2060.29   28.70
   5  -6  -1  133.09   11.50
   5  -3   0  181.68   10.90
   8  -3   4  103.29   10.80
  -6  -4   2   24.30    5.40
  -1 -17  -2  231.48   11.60
   0 -18  -2  205.88   11.90
   0   5   4    3.60    5.50
   1 -18  -2    4.40    5.60
   1 -12  -3   52.49    9.40
   1 -11  -3   28.20    9.40
   1 -10  -3   11.10    8.10
   3 -17  -2   -1.50    7.30
   4 -15  -2  377.06   16.60
   5 -17  -1    2.90    9.60
   6 -13  -1   -3.00    8.80
   6 -11  -1  588.74   21.30
   6 -10  -1    4.10    9.60
   7 -12   0   55.09   11.00
   7 -11   0    4.90    9.20
   9  -5   5   35.80    8.20
  -3 -18  -1   12.70    5.80
   0   4   3   47.60    6.60
   1 -13  -3   84.39    9.40
   1   4   3  985.80   14.10
   2 -10  -3   29.10    9.10
   2  -2  -1  170.78    8.80
   4 -16  -2   50.09    8.60
   4  -7  -2  219.68   13.60
   6 -14  -1   35.80   10.60
   6  -9  -1  330.97   16.30
   7 -14   0   12.60    9.80
   7 -13   0  136.49   13.30
   7  -3   2   27.60    9.50
  -6  -2   3    9.50    6.50
  -5   0   3   23.50    6.70
  -4   0   2 1131.29   18.40
  -2   2   2  150.58    9.20
  -1 -18  -2   87.09    8.60
   0 -13  -3   75.39    9.70
   1 -19  -2  117.69   11.10
   1  -9  -3  173.08   11.00
   2  -9  -3  211.38   12.90
   3 -18  -2   51.79    9.10
   5 -11  -2  164.38   12.70
   5 -10  -2    0.10    9.10
   5  -5  -1 1989.50   30.20
   6 -15  -1   -0.30    9.60
   6  -8  -1  144.49   12.20
   7  -5   1  745.23   20.00
   8 -12   1  213.58   14.40
   8 -11   1   69.99   10.50
   8  -6   2   78.09    9.80
   8  -4   3   70.39    9.70
  -3 -12  -2  111.49    7.90
   0 -19  -2    4.10    7.10
   0 -14  -3  541.45   16.60
   0  -9  -3  448.36   14.40
   2 -19  -2    5.60    6.50
   2 -15  -3    0.30    6.80
   2   0   0 2078.49   16.90
   3 -12  -3    2.50    8.10
   3 -11  -3   -1.40    9.20
   3 -10  -3  908.11   22.80
   3  -5  -2    3.10    7.50
   4 -17  -2   10.80    8.10
   5 -14  -2   82.89   10.90
   5  -9  -2    6.40    9.60
   6 -16  -1    2.40   10.40
   9  -6   4  156.78   11.40
   1  -8  -3  960.00   20.20
   2  -8  -3 1477.55   26.50
   3 -14  -3    4.80    8.40
   4  -6  -2   74.99   10.10
   5 -15  -2   21.40    8.40
   9  -8   3  191.28   12.00
   3  -3  -7  456.35   19.40
   3   0  -8    7.40   11.10
   4  -6  -7  246.08   15.60
   4  -2  -9   40.60   13.30
   4   5 -10  930.41   25.80
   5 -11  -4   48.30   10.30
   5  -3 -10   -7.60   10.90
   5   7 -11   89.39   12.40
   6  -3 -11   50.59   11.30
   6   1 -12   -1.80   11.00
   7  -7 -10   15.60   10.60
   7   6 -13    8.30   11.60
   0  10   1   26.20    5.60
   1   7  -4  318.97    8.60
   2  -8   0  205.28    8.50
   3 -11   3  148.69    5.20
   3   8  -8  606.14   18.80
   4  10  -9   12.40   10.90
   5 -13   0    7.60    5.30
   5  -8  -7   44.00   11.30
   5   2 -11   77.09   12.40
   5  11 -10  293.07   15.60
   6 -14   0    2.90    5.00
   6   2 -12   37.90   14.20
   6   7 -12    3.40   10.10
   7 -13  -4  158.88   11.50
   7  -5 -11   79.29   12.80
   7   4 -13  128.99   14.50
   7   5 -13   69.19   14.00
   8  -8 -10    3.50   10.90
   8  -1 -13   52.89   13.80
   1  -7   7  276.87   10.20
   2   0  -6 3222.48   38.90
   2  11  -5   77.79    6.40
   3  -6  -5 1584.84   30.70
   3  13  -6  155.78    8.50
   4 -12   1   91.69    7.00
   4 -10  -3  140.19   10.30
   4  -4  -8 1023.90   27.40
   5 -10  -5   22.90    8.70
   5   5 -11  435.56   21.40
   5   6 -11  255.47   16.90
   6 -12  -4   97.79   10.30
   6  -5 -10  232.78   15.60
   6   5 -12    5.90   10.10
   6  11 -11  215.18   15.60
   7 -14  -2   15.90    7.10
   7  -2 -12   78.19   13.40
   8  -4 -12    9.90   10.20
   1  -7   4  108.29    3.90
   1  -5   0    6.20    4.60
   1   2  -4  443.96   12.30
   1  13  -1  397.26    8.40
   3 -10   0  843.42   15.70
   3  -7  -4 1967.80   32.00
   4  -7  -6  429.16   18.30
   4  -1  -9   21.30   12.80
   5 -12  -2   40.10    8.40
   5  -2 -10    5.30   10.60
   5  13  -9  109.39   11.80
   6 -13  -2  101.29    9.30
   6  -8  -8  105.79   12.90
   6  -2 -11    8.40   12.50
   7  -8  -9   40.40   10.60
   8   0 -13    4.40   10.40
   0   9   0   -6.30    4.30
   1  -7   8   17.40    7.10
   1  -1  -3  149.39    9.90
   2  -9   9   53.29    7.30
   3  -2  -7  196.48   14.60
   4  -8  -5   10.70   10.00
   5  -6  -8   13.10   11.20
   5  -4  -9   15.70   11.10
   6 -11  -5   31.80    9.10
   7 -12  -5  152.48   11.80
   7  -4 -11   98.49   14.10
   7  -1 -12    3.80   12.00
   8 -11  -7   28.70   10.60
   8   1 -13   60.59   14.50
   0  -4   7  410.66   13.50
   2   1  -6  656.43   19.30
   4 -11  -1    6.60    7.70
   4   0  -9    8.00   10.90
   4   9  -9  679.33   20.90
   5  -1 -10  958.10   28.30
   5  10 -10   47.60   10.00
   6 -10  -6   15.80    7.70
   6  -6  -9  452.95   20.70
   6  -1 -11  796.02   26.60
   6  10 -11  114.39   13.30
   7 -11  -6    7.10    7.70
   7 -10  -7   71.89    9.30
   8  -3 -12   35.60   12.00
  -1   3   6  495.15   17.60
  -1   4   5 2166.08   33.00
   0  -4   8   14.70    8.00
   1   3  -4 5173.28   35.70
   3   3  -8   19.30    9.50
   4  -3  -8   90.09   11.40
   5 -13   1  452.25   12.40
   7 -14  -1    3.20    6.60
   7   0 -12  -15.80   10.70
   8  -5 -11   30.00   11.30
  -1   2   6   64.39    9.50
  -1   6   5   79.79    9.00
   1  15   1   46.20    6.40
   2  -5  -3   69.29    9.60
   4   1  -9    4.30   11.10
   5 -11  -3  256.77   13.50
   5  -7  -7  155.48   13.50
   5   0 -10   -0.80   11.00
   6   0 -11   -4.40   10.80
   6   9 -11   97.29   12.50
   7  -3 -11  -13.20   10.80
   7   1 -12   -1.80   10.60
   7   8 -12   81.99   13.40
   8  -2 -12    1.30   12.50
   0  11   1  478.75   11.80
   1   4  -4    5.60    4.90
   1   5  -4   74.29    6.40
   2   7  -6   47.40    8.90
   3  -1  -7  232.88   15.60
   4   8  -9   -1.30   10.40
   5  -8  -6  616.04   20.80
   5  -3  -9    1.00   11.20
   5   9 -10  207.88   13.90
   6 -12  -3  132.09   10.20
   7  -5 -10   48.00   11.90
   7   2 -12   88.09   13.80
  -1   2   5 2426.96   32.10
  -1   4   4   -1.50    6.90
  -1   5   4   63.49    8.30
   3  -9  -1  701.03   16.00
   3  10  -7  490.55   14.90
   4 -12   2  357.46    9.40
   4  -2  -8  247.88   16.40
   4   2  -9   49.00   12.30
   5 -12  -1   42.00    7.90
   5 -10  -4   21.10    8.20
   5  -5  -8   27.90    8.60
   5   1 -10 1017.40   28.40
   6 -13  -1    4.90    6.50
   6   1 -11  846.52   26.90
   6   8 -11    4.10   10.10
   6  12 -10   14.40    8.90
   7  -8  -8    8.30   10.60
   7  -2 -11   24.50   12.00
   7   6 -12   18.60   13.40
   7   7 -12    4.30    9.90
   8 -12  -5    6.90    8.60
   8  -9  -8   58.69   10.30
   8  -4 -11   53.79   12.10
   8  -1 -12   38.10   12.50
  -1   1   6   -1.00    6.80
  -1   3   4 5083.59   43.00
   2   4  -6  201.28   12.40
   3  -3  -6   28.50   10.80
   4   3  -9  209.78   15.00
   4   7  -9    7.60   11.50
   6 -11  -4   18.70    8.80
   6  -8  -7  437.16   19.10
   6   2 -11    1.50   10.30
   7 -12  -4   -3.00    7.30
   7   5 -12  105.29   12.40
   8 -11  -6   46.10   10.30
   8 -10  -7   46.00   10.30
  -1   7   4  335.87   13.30
   0  -4   4   59.29    5.20
   3   0  -7 3382.26   42.50
   4  -7  -5  455.45   18.00
   4   6  -9  352.56   17.10
   5  -2  -9  133.19   14.60
   5   2 -10   -2.40   10.10
   5   7 -10   96.89   13.10
   6 -10  -5  250.07   14.00
   6   6 -11    7.90   10.60
   6   7 -11   60.59   12.10
   7 -11  -5   89.39   11.00
   7  -9  -7    3.20    8.20
   7  -4 -10  323.67   19.20
   8   0 -12  101.69   13.60
  -1   0   7   52.49    7.90
  -1   1   5 2072.99   28.10
   1   0  -3  145.59    9.30
   3 -10   1 1035.60   15.80
   4 -11   0  197.28   10.30
   4  -9  -3  121.99   10.60
   5   3 -10   13.20   10.30
   5   5 -10   21.20   12.50
   6   5 -11    8.70    9.90
   7 -10  -6   85.69    9.80
   7  -6  -9   38.30   11.00
   7  -1 -11   16.90   10.10
   8  -7  -9   -0.80    8.10
   8  -3 -11   13.60   10.80
   8   1 -12   12.30   11.60
  -1   2   4  459.05   13.00
   0  10   0 1911.81   18.10
   4  -1  -8    7.70    8.20
   5  -4  -8  259.97   16.20
   6  -6  -8  247.68   16.00
   6  -4  -9  324.07   17.80
   6  11 -10   36.90   10.90
   8  -5 -10  264.07   17.20
  -1   0   6    2.30    5.00
  -1   5   3  626.74   14.80
   0  -5   7  853.31   17.60
   0  -5   8  519.75   15.70
   2  -8   1   85.89    6.20
   3   1  -7  230.78   14.10
   5  11  -9  369.86   16.80
   6  -1 -10    9.40   11.10
   7  -7  -8   66.79   11.00
   7   0 -11   60.69   11.90
   8  -2 -11   67.09   12.60
   2   0  -5   -5.30    9.40
   3  -4  -5   31.50    9.80
   3  -2  -6  869.21   22.50
   4  -5  -6  923.31   23.80
   4  -3  -7 2418.26   38.70
   4   0  -8  164.28   14.30
   4  10  -8  476.15   17.90
   5  -7  -6  222.48   14.20
   6  -7  -7  301.57   16.20
   7  -5  -9  854.81   26.30
   7  -3 -10  147.29   14.10
   7   9 -11    1.80    9.90
   8 -12  -4   -2.00    6.90
   8   4 -12  -10.50    8.90
   8   5 -12   26.10   11.40
   3   2  -7  230.28   13.20
   5 -10  -3    6.30    8.70
   6  -3  -9   10.20    9.70
   6   0 -10 1468.55   33.90
   7 -12  -3    5.80    6.30
   8  -9  -7    1.20    7.50
   8  -6  -9   45.50   11.10
   8  -4 -10  103.09   12.20
   9  -5 -10   30.10   10.90
  -1   0   5   20.30    5.00
  -1   1   4 2703.93   29.00
   0   0   0    0.00    0.00

_computing_structure_solution     'SHELXT 2018/2 (Sheldrick, 2018)'
;
_shelx_hkl_checksum              48438
_olex2_exptl_crystal_mounting_method 'super glued to a glass fiber'
_olex2_submission_special_instructions 'No special instructions were received'
loop_
_space_group_symop_operation_xyz
'x, y, z'
'-x+1/2, y+1/2, -z+1/2'
'-x, -y, -z'
'x-1/2, -y-1/2, z-1/2'
loop_
_atom_site_label
_atom_site_type_symbol
_atom_site_fract_x
_atom_site_fract_y
_atom_site_fract_z
_atom_site_U_iso_or_equiv
_atom_site_adp_type
_atom_site_occupancy
_atom_site_site_symmetry_order
_atom_site_calc_flag
_atom_site_refinement_flags_posn
_atom_site_refinement_flags_adp
_atom_site_refinement_flags_occupancy
_atom_site_disorder_assembly
_atom_site_disorder_group
Re3 Re 0.61768(6) 0.44756(4) 0.66570(4) 0.01489(8) Uani 1 1 d . . . . .
Re1 Re 0.24851(6) 0.52694(4) 0.56071(4) 0.01490(8) Uani 1 1 d . . . . .
Re2 Re 0.58721(6) 0.64859(3) 0.54517(4) 0.01486(8) Uani 1 1 d . . . . .
I1 I 0.78628(14) 0.37734(7) 0.91945(7) 0.02394(15) Uani 1 1 d . . . . .
S2 S 0.2398(4) 0.7085(2) 0.4481(3) 0.0187(4) Uani 1 1 d . . . . .
S3 S 0.4543(4) 0.6121(2) 0.7503(3) 0.0177(4) Uani 1 1 d . . . . .
S4 S 0.2957(4) 0.3433(2) 0.6687(3) 0.0185(4) Uani 1 1 d . . . . .
S1 S 0.9183(4) 0.5701(2) 0.6525(3) 0.0176(4) Uani 1 1 d . . . . .
loop_
_atom_site_aniso_label
_atom_site_aniso_U_11
_atom_site_aniso_U_22
_atom_site_aniso_U_33
_atom_site_aniso_U_23
_atom_site_aniso_U_13
_atom_site_aniso_U_12
Re3 0.01226(14) 0.01709(16) 0.01501(15) 0.00024(12) 0.00110(12) 0.00009(12)
Re1 0.01144(14) 0.01732(16) 0.01583(16) -0.00043(12) 0.00168(12) 0.00012(12)
Re2 0.01231(14) 0.01614(16) 0.01589(15) -0.00061(12) 0.00138(12) -0.00005(12)
I1 0.0322(4) 0.0196(3) 0.0182(3) 0.0003(2) -0.0016(3) 0.0038(3)
S2 0.0170(10) 0.0186(10) 0.0200(11) 0.0008(9) 0.0012(9) 0.0021(9)
S3 0.0153(10) 0.0216(11) 0.0163(10) -0.0017(9) 0.0028(8) 0.0001(9)
S4 0.0159(10) 0.0205(11) 0.0194(11) 0.0015(9) 0.0034(9) -0.0028(9)
S1 0.0117(9) 0.0212(11) 0.0198(10) -0.0015(9) 0.0021(8) -0.0007(8)
loop_
_atom_type_symbol
_atom_type_description
_atom_type_scat_dispersion_real
_atom_type_scat_dispersion_imag
_atom_type_scat_source
S S 0.0826 0.0763 'International Tables Vol C Tables 4.2.6.8 and 6.1.1.4'
I I -0.8919 1.1868 'International Tables Vol C Tables 4.2.6.8 and 6.1.1.4'
Re Re -0.4693 4.8944 'International Tables Vol C Tables 4.2.6.8 and 6.1.1.4'
loop_
_geom_angle_atom_site_label_1
_geom_angle_atom_site_label_2
_geom_angle_atom_site_label_3
_geom_angle
_geom_angle_site_symmetry_1
_geom_angle_site_symmetry_3
_geom_angle_publ_flag
Re1 Re3 Re1 89.61(3) 3_666 . ?
Re1 Re3 Re2 59.708(18) . . ?
Re1 Re3 Re2 59.663(16) 3_666 . ?
Re1 Re3 I1 136.95(3) 3_666 . ?
Re1 Re3 I1 133.39(3) . . ?
Re2 Re3 Re1 60.30(2) 3_666 3_666 ?
Re2 Re3 Re1 60.13(3) 3_666 . ?
Re2 Re3 Re2 90.22(2) 3_666 . ?
Re2 Re3 I1 136.25(3) 3_666 . ?
Re2 Re3 I1 133.48(2) . . ?
S2 Re3 Re1 57.19(7) 3_666 3_666 ?
S2 Re3 Re1 116.99(7) 3_666 . ?
S2 Re3 Re2 56.94(7) 3_666 3_666 ?
S2 Re3 Re2 116.80(7) 3_666 . ?
S2 Re3 I1 96.12(7) 3_666 . ?
S2 Re3 S1 93.27(10) 3_666 . ?
S3 Re3 Re1 116.59(7) . 3_666 ?
S3 Re3 Re1 56.64(7) . . ?
S3 Re3 Re2 116.75(7) . 3_666 ?
S3 Re3 Re2 56.99(7) . . ?
S3 Re3 I1 91.57(7) . . ?
S3 Re3 S2 172.31(9) . 3_666 ?
S3 Re3 S1 86.63(9) . . ?
S4 Re3 Re1 117.96(7) . 3_666 ?
S4 Re3 Re1 57.31(7) . . ?
S4 Re3 Re2 117.00(7) . . ?
S4 Re3 Re2 57.74(7) . 3_666 ?
S4 Re3 I1 92.89(7) . . ?
S4 Re3 S2 90.67(10) . 3_666 ?
S4 Re3 S3 88.81(10) . . ?
S4 Re3 S1 173.69(10) . . ?
S1 Re3 Re1 116.42(7) . . ?
S1 Re3 Re1 60.70(7) . 3_666 ?
S1 Re3 Re2 56.75(7) . . ?
S1 Re3 Re2 120.90(7) . 3_666 ?
S1 Re3 I1 91.59(7) . . ?
Re3 Re1 Re3 90.39(3) 3_666 . ?
Re3 Re1 Re2 59.77(3) 3_666 . ?
Re3 Re1 Re2 59.76(2) . 3_666 ?
Re3 Re1 Re2 60.876(19) 3_666 3_666 ?
Re3 Re1 Re2 60.76(2) . . ?
Re2 Re1 Re2 90.62(2) 3_666 . ?
S2 Re1 Re3 57.38(7) . 3_666 ?
S2 Re1 Re3 117.54(7) . . ?
S2 Re1 Re2 56.80(7) . . ?
S2 Re1 Re2 118.21(7) . 3_666 ?
S2 Re1 S4 173.84(9) . . ?
S2 Re1 S1 90.29(9) . 3_666 ?
S2 Re1 S1 92.50(9) . 1_455 ?
S3 Re1 Re3 117.32(7) . 3_666 ?
S3 Re1 Re3 57.40(7) . . ?
S3 Re1 Re2 117.13(7) . 3_666 ?
S3 Re1 Re2 57.60(7) . . ?
S3 Re1 S2 89.56(10) . . ?
S3 Re1 S4 89.01(10) . . ?
S3 Re1 S1 171.46(9) . 3_666 ?
S3 Re1 S1 90.24(9) . 1_455 ?
S4 Re1 Re3 118.29(7) . 3_666 ?
S4 Re1 Re3 56.88(7) . . ?
S4 Re1 Re2 117.63(7) . . ?
S4 Re1 Re2 57.47(7) . 3_666 ?
S4 Re1 S1 93.50(9) . 1_455 ?
S4 Re1 S1 90.23(10) . 3_666 ?
S1 Re1 Re3 136.43(7) 1_455 3_666 ?
S1 Re1 Re3 55.96(6) 3_666 3_666 ?
S1 Re1 Re3 133.06(7) 1_455 . ?
S1 Re1 Re3 115.46(7) 3_666 . ?
S1 Re1 Re2 132.19(7) 1_455 . ?
S1 Re1 Re2 137.14(7) 1_455 3_666 ?
S1 Re1 Re2 115.63(6) 3_666 . ?
S1 Re1 Re2 55.80(6) 3_666 3_666 ?
S1 Re1 S1 98.30(8) 1_455 3_666 ?
Re3 Re2 Re3 89.78(2) 3_666 . ?
Re3 Re2 Re1 60.11(2) 3_666 3_666 ?
Re3 Re2 Re1 59.94(2) 3_666 . ?
Re3 Re2 I1 141.93(3) . 2_656 ?
Re3 Re2 I1 128.18(2) 3_666 2_656 ?
Re1 Re2 Re3 59.53(2) . . ?
Re1 Re2 Re3 59.46(2) 3_666 . ?
Re1 Re2 Re1 89.38(2) 3_666 . ?
Re1 Re2 I1 132.48(3) 3_666 2_656 ?
Re1 Re2 I1 137.41(3) . 2_656 ?
S2 Re2 Re3 57.58(7) . 3_666 ?
S2 Re2 Re3 116.74(7) . . ?
S2 Re2 Re1 117.61(7) . 3_666 ?
S2 Re2 Re1 57.23(7) . . ?
S2 Re2 I1 90.41(7) . 2_656 ?
S2 Re2 S3 89.11(10) . . ?
S2 Re2 S4 90.53(10) . 3_666 ?
S2 Re2 S1 173.60(10) . . ?
S3 Re2 Re3 116.36(7) . 3_666 ?
S3 Re2 Re3 56.61(7) . . ?
S3 Re2 Re1 116.02(7) . 3_666 ?
S3 Re2 Re1 56.47(7) . . ?
S3 Re2 I1 100.89(7) . 2_656 ?
S3 Re2 S4 171.63(9) . 3_666 ?
S4 Re2 Re3 116.46(7) 3_666 . ?
S4 Re2 Re3 56.89(7) 3_666 3_666 ?
S4 Re2 Re1 57.06(7) 3_666 3_666 ?
S4 Re2 Re1 116.74(7) 3_666 . ?
S4 Re2 I1 87.48(7) 3_666 2_656 ?
S1 Re2 Re3 56.88(7) . . ?
S1 Re2 Re3 120.67(7) . 3_666 ?
S1 Re2 Re1 60.67(7) . 3_666 ?
S1 Re2 Re1 116.38(7) . . ?
S1 Re2 I1 94.98(7) . 2_656 ?
S1 Re2 S3 86.48(9) . . ?
S1 Re2 S4 93.15(10) . 3_666 ?
Re3 I1 Re2 117.77(3) . 2_646 ?
Re1 S2 Re3 65.43(7) . 3_666 ?
Re2 S2 Re3 65.48(7) . 3_666 ?
Re2 S2 Re1 65.96(7) . . ?
Re3 S3 Re2 66.40(7) . . ?
Re1 S3 Re3 65.96(7) . . ?
Re1 S3 Re2 65.93(7) . . ?
Re3 S4 Re1 65.81(7) . . ?
Re3 S4 Re2 65.37(7) . 3_666 ?
Re1 S4 Re2 65.48(7) . 3_666 ?
Re3 S1 Re1 129.02(12) . 1_655 ?
Re3 S1 Re1 63.34(7) . 3_666 ?
Re1 S1 Re1 81.70(8) 1_655 3_666 ?
Re2 S1 Re3 66.37(7) . . ?
Re2 S1 Re1 129.89(12) . 1_655 ?
Re2 S1 Re1 63.53(7) . 3_666 ?
loop_
_geom_bond_atom_site_label_1
_geom_bond_atom_site_label_2
_geom_bond_distance
_geom_bond_site_symmetry_2
_geom_bond_publ_flag
Re3 Re1 2.5973(8) . ?
Re3 Re1 2.5924(8) 3_666 ?
Re3 Re2 2.5880(9) 3_666 ?
Re3 Re2 2.6295(7) . ?
Re3 I1 2.7639(11) . ?
Re3 S2 2.401(3) 3_666 ?
Re3 S3 2.396(3) . ?
Re3 S4 2.385(3) . ?
Re3 S1 2.404(3) . ?
Re1 Re2 2.5978(7) 3_666 ?
Re1 Re2 2.6020(7) . ?
Re1 S2 2.396(3) . ?
Re1 S3 2.375(3) . ?
Re1 S4 2.396(3) . ?
Re1 S1 2.478(3) 1_455 ?
Re1 S1 2.530(3) 3_666 ?
Re2 I1 2.7819(10) 2_656 ?
Re2 S2 2.384(3) . ?
Re2 S3 2.406(3) . ?
Re2 S4 2.407(3) 3_666 ?
Re2 S1 2.400(3) . ?
