#------------------------------------------------------------------------------
#$Date: 2022-04-04 00:52:00 +0300 (Mon, 04 Apr 2022) $
#$Revision: 274284 $
#$URL: file:///home/coder/svn-repositories/cod/cif/4/00/40/4004077.cif $
#------------------------------------------------------------------------------
#
# This file is available in the Crystallography Open Database (COD),
# http://www.crystallography.net/
#
# All data on this site have been placed in the public domain by the
# contributors.
#
data_4004077
loop_
_publ_author_name
'Xue, Jie'
'Wang, Ziyu'
'Comstock, Andrew'
'Wang, Zhiyu'
'Sung, Herman H. Y.'
'Williams, Ian D.'
'Sun, Dali'
'Liu, Junwei'
'Lu, Haipeng'
_publ_section_title
;
 Chemical Control of Magnetic Ordering in Hybrid Fe--Cl Layered Double
 Perovskites
;
_journal_issue                   6
_journal_name_full               'Chemistry of Materials'
_journal_page_first              2813
_journal_page_last               2823
_journal_paper_doi               10.1021/acs.chemmater.2c00163
_journal_volume                  34
_journal_year                    2022
_chemical_formula_moiety         'Ag Cl8 In, 2(C4 H14 N2)'
_chemical_formula_sum            'C8 H28 Ag Cl8 In N4'
_chemical_formula_weight         686.63
_space_group_crystal_system      triclinic
_space_group_IT_number           2
_space_group_name_Hall           '-P 1'
_space_group_name_H-M_alt        'P -1'
_atom_sites_solution_hydrogens   geom
_atom_sites_solution_primary     dual
_audit_creation_date             2021-09-07
_audit_creation_method
;
Olex2 1.5-alpha
(compiled 2021.08.20 svn.r13c46975 for OlexSys, GUI svn.r6396)
;
_cell_angle_alpha                102.735(7)
_cell_angle_beta                 91.155(6)
_cell_angle_gamma                90.898(6)
_cell_formula_units_Z            1
_cell_length_a                   7.7161(5)
_cell_length_b                   7.8117(7)
_cell_length_c                   9.3428(7)
_cell_measurement_reflns_used    2396
_cell_measurement_temperature    173.00(10)
_cell_measurement_theta_max      76.1980
_cell_measurement_theta_min      4.8290
_cell_volume                     549.06(7)
_computing_cell_refinement       'CrysAlisPro 1.171.41.93a (Rigaku OD, 2020)'
_computing_data_collection       'CrysAlisPro 1.171.41.93a (Rigaku OD, 2020)'
_computing_data_reduction        'CrysAlisPro 1.171.41.93a (Rigaku OD, 2020)'
_computing_molecular_graphics    'Olex2 1.5-alpha (Dolomanov et al., 2009)'
_computing_publication_material  'Olex2 1.5-alpha (Dolomanov et al., 2009)'
_computing_structure_refinement  'SHELXL 2014/7 (Sheldrick, 2015)'
_computing_structure_solution    'SHELXT 2014/4 (Sheldrick, 2014)'
_diffrn_ambient_environment      N~2~
_diffrn_ambient_temperature      173.00(10)
_diffrn_detector                 'CCD plate'
_diffrn_detector_area_resol_mean 5.1788
_diffrn_detector_type            Atlas
_diffrn_measured_fraction_theta_full 0.990
_diffrn_measured_fraction_theta_max 0.956
_diffrn_measurement_details
;
List of Runs (angles in degrees, time in seconds):

  # Type    Start    End  Width  t~exp~   \w     \q     \k     \f   Frames
--------------------------------------------------------------------------
  1  \w     82.00 108.00   1.00   16.00    --  113.00-111.00   0.00   26
  2  \w    -73.00  35.00   1.00    8.00    --  -40.20  77.00 120.00  108
  3  \w    -62.00  34.00   1.00    8.00    --  -40.20  57.00   0.00   96
  4  \w     52.00  87.00   1.00    8.00    --   40.20-125.00   0.00   35
  5  \w     13.00 111.00   1.00    8.00    --   40.20  57.00-120.00   98
  6  \w     50.00 138.00   1.00   16.00    --  113.00 -61.00 -30.00   88
  7  \w     43.00  78.00   1.00   16.00    --  113.00-111.00   0.00   35
  8  \w    105.00 177.00   1.00   16.00    --  113.00  77.00 -30.00   72
  9  \w    111.00 161.00   1.00   16.00    --  113.00  77.00-180.00   50
 10  \w    104.00 178.00   1.00   16.00    --  113.00  77.00  60.00   74
 11  \w     35.00 108.00   1.00   16.00    --  113.00-111.00 -90.00   73
 12  \w     35.00 107.00   1.00   16.00    --  113.00-111.00-180.00   72
 13  \w     87.00 178.00   1.00   16.00    --  113.00  61.00 120.00   91
 14  \w    105.00 145.00   1.00   16.00    --  113.00  77.00  30.00   40
 15  \w    148.00 174.00   1.00   16.00    --  113.00  77.00  30.00   26
 16  \w     79.00 112.00   1.00   16.00    --  113.00-126.00 119.00   33
;
_diffrn_measurement_device       'kappa diffractometer'
_diffrn_measurement_device_type  'SuperNova, Dual, Cu at home/near, Atlas'
_diffrn_measurement_method       '\w scans'
_diffrn_orient_matrix_type
'CrysAlisPro convention (1999,Acta A55,543-557)'
_diffrn_orient_matrix_UB_11      -0.0702436000
_diffrn_orient_matrix_UB_12      0.0490213000
_diffrn_orient_matrix_UB_13      0.1566353000
_diffrn_orient_matrix_UB_21      -0.1867098000
_diffrn_orient_matrix_UB_22      -0.0332652000
_diffrn_orient_matrix_UB_23      -0.0626955000
_diffrn_orient_matrix_UB_31      0.0100124000
_diffrn_orient_matrix_UB_32      -0.1933667000
_diffrn_orient_matrix_UB_33      0.0114192000
_diffrn_radiation_monochromator  mirror
_diffrn_radiation_probe          x-ray
_diffrn_radiation_type           CuK\a
_diffrn_radiation_wavelength     1.54184
_diffrn_reflns_av_R_equivalents  0.0223
_diffrn_reflns_av_unetI/netI     0.0285
_diffrn_reflns_Laue_measured_fraction_full 0.990
_diffrn_reflns_Laue_measured_fraction_max 0.956
_diffrn_reflns_limit_h_max       9
_diffrn_reflns_limit_h_min       -8
_diffrn_reflns_limit_k_max       7
_diffrn_reflns_limit_k_min       -9
_diffrn_reflns_limit_l_max       11
_diffrn_reflns_limit_l_min       -11
_diffrn_reflns_number            3286
_diffrn_reflns_point_group_measured_fraction_full 0.990
_diffrn_reflns_point_group_measured_fraction_max 0.956
_diffrn_reflns_theta_full        67.684
_diffrn_reflns_theta_max         76.182
_diffrn_reflns_theta_min         4.854
_diffrn_source                   'micro-focus sealed X-ray tube'
_diffrn_source_current           0.80
_diffrn_source_power             0.040
_diffrn_source_target            Cu
_diffrn_source_type              'SuperNova (Cu) X-ray Source'
_diffrn_source_voltage           50
_exptl_absorpt_coefficient_mu    24.505
_exptl_absorpt_correction_T_max  1.00000
_exptl_absorpt_correction_T_min  0.73671
_exptl_absorpt_correction_type   multi-scan
_exptl_absorpt_process_details
;
CrysAlisPro 1.171.41.93a (Rigaku Oxford Diffraction, 2020)
Empirical absorption correction using spherical harmonics,
implemented in SCALE3 ABSPACK scaling algorithm.
;
_exptl_crystal_colour            yellow
_exptl_crystal_colour_primary    yellow
_exptl_crystal_density_diffrn    2.077
_exptl_crystal_description       block
_exptl_crystal_F_000             336
_exptl_crystal_size_max          0.04
_exptl_crystal_size_mid          0.03
_exptl_crystal_size_min          0.03
_refine_diff_density_max         1.395
_refine_diff_density_min         -1.342
_refine_diff_density_rms         0.172
_refine_ls_extinction_method     none
_refine_ls_goodness_of_fit_ref   1.018
_refine_ls_hydrogen_treatment    constr
_refine_ls_matrix_type           full
_refine_ls_number_parameters     105
_refine_ls_number_reflns         2200
_refine_ls_number_restraints     0
_refine_ls_restrained_S_all      1.018
_refine_ls_R_factor_all          0.0335
_refine_ls_R_factor_gt           0.0311
_refine_ls_shift/su_max          0.000
_refine_ls_shift/su_mean         0.000
_refine_ls_structure_factor_coef Fsqd
_refine_ls_weighting_details
'w=1/[\s^2^(Fo^2^)+(0.0710P)^2^+0.9200P] where P=(Fo^2^+2Fc^2^)/3'
_refine_ls_weighting_scheme      calc
_refine_ls_wR_factor_gt          0.0972
_refine_ls_wR_factor_ref         0.0997
_reflns_Friedel_coverage         0.000
_reflns_number_gt                2083
_reflns_number_total             2200
_reflns_threshold_expression     'I > 2\s(I)'
_cod_data_source_file            cm2c00163_si_003.cif
_cod_data_source_block           xuejie25cu_173k_auto
_cod_database_code               4004077
_shelx_shelxl_version_number     2014/7
_chemical_oxdiff_formula         'In Fe Cl4 C4N2H14'
_shelx_space_group_comment
;
The symmetry employed for this shelxl refinement is uniquely defined
by the following loop, which should always be used as a source of
symmetry information in preference to the above space-group names.
They are only intended as comments.
;
_shelx_estimated_absorpt_t_max   0.527
_shelx_estimated_absorpt_t_min   0.441
_olex2_refinement_description
;
1. Fixed Uiso
 At 1.2 times of:
  All C(H,H) groups, All N(H,H,H) groups
2.a Secondary CH2 refined with riding coordinates:
 C3(H3A,H3B), C4(H4A,H4B), C1(H1D,H1E), C2(H2D,H2E)
2.b Idealised Me refined as rotating group:
 N2(H2A,H2B,H2C), N1(H1A,H1B,H1C)
;
_shelx_res_file
;
    xuejie25cu_173k_auto.res created by SHELXL-2014/7

TITL xuejie25cu_173k_auto_a.res in P-1
REM Old TITL xuejie25Cu_173K_auto in P-1 #2
REM SHELXT solution in P-1
REM R1 0.149, Rweak 0.011, Alpha 0.026, Orientation as input
REM Formula found by SHELXT: C8 Cl8 In N4 Sr
CELL 1.54184 7.7161 7.8117 9.3428 102.735 91.155 90.898
ZERR 1 0.0005 0.0007 0.0007 0.007 0.006 0.006
LATT 1
SFAC C H Ag Cl In N
UNIT 8 28 1 8 1 4

L.S. 10
PLAN  6
SIZE 0.03 0.03 0.04
TEMP -100.15(10)
CONF
CONN 6 2 $Ag
BOND $H
list 4
MORE -1
fmap 2
acta
OMIT -3 0 2
REM <olex2.extras>
REM <HklSrc "%.\\xuejie25Cu_173K_auto.hkl">
REM </olex2.extras>

WGHT    0.071000    0.920000
FVAR       0.64422
IN1   5    0.500000    0.500000    0.000000    10.50000    0.01034    0.01005 =
         0.01184    0.00346    0.00073    0.00037
AG1   3    0.000000    0.000000    0.000000    10.50000    0.02982    0.03088 =
         0.01975    0.00717   -0.00324   -0.00135
CL1   4    0.748454    0.305289    0.042663    11.00000    0.02525    0.02464 =
         0.02568    0.00781    0.00144    0.00627
CL2   4    0.433249    0.550370    0.270116    11.00000    0.02263    0.03215 =
         0.01976    0.00392    0.00119    0.00176
CL3   4    0.298062    0.234464   -0.048395    11.00000    0.02227    0.02746 =
         0.02692    0.01053   -0.00458   -0.00651
CL4   4    0.053302    0.041050    0.265212    11.00000    0.02595    0.03012 =
         0.01974    0.00366   -0.00166    0.00130
N2    6    0.020326    0.610389    0.239376    11.00000    0.02416    0.03677 =
         0.02577    0.01029   -0.00016   -0.00022
AFIX 137
H2A   2    0.130521    0.586192    0.264031    11.00000   -1.20000
H2B   2    0.022057    0.704705    0.197015    11.00000   -1.20000
H2C   2   -0.026957    0.515803    0.174934    11.00000   -1.20000
AFIX   0
C3    1   -0.084443    0.506340    0.458093    11.00000    0.02056    0.03493 =
         0.02684    0.01134    0.00045   -0.00201
AFIX  23
H3A   2   -0.108091    0.392663    0.388512    11.00000   -1.20000
H3B   2   -0.179997    0.525977    0.528638    11.00000   -1.20000
AFIX   0
C4    1   -0.085315    0.650374    0.373623    11.00000    0.03141    0.03143 =
         0.02398    0.00958    0.00134    0.00519
AFIX  23
H4A   2   -0.206388    0.670145    0.345129    11.00000   -1.20000
H4B   2   -0.040274    0.760418    0.438570    11.00000   -1.20000
AFIX   0

N1    6    0.457568    0.077054    0.230989    11.00000    0.02919    0.03518 =
         0.02236    0.01165   -0.00186   -0.00058
AFIX 137
H1A   2    0.499588   -0.024111    0.176193    11.00000   -1.20000
H1B   2    0.453402    0.159836    0.176124    11.00000   -1.20000
H1C   2    0.349028    0.056498    0.260544    11.00000   -1.20000
AFIX   0
C1    1    0.573456    0.140894    0.362323    11.00000    0.02869    0.02892 =
         0.02498    0.00949   -0.00285   -0.00648
AFIX  23
H1D   2    0.529664    0.253262    0.419532    11.00000   -1.20000
H1E   2    0.691196    0.163480    0.329572    11.00000   -1.20000
AFIX   0
C2    1    0.584095    0.010252    0.460358    11.00000    0.01944    0.03051 =
         0.02385    0.00965   -0.00015    0.00093
AFIX  23
H2D   2    0.678454    0.048251    0.534484    11.00000   -1.20000
H2E   2    0.614781   -0.105588    0.399992    11.00000   -1.20000
AFIX   0
HKLF 4

REM  xuejie25cu_173k_auto_a.res in P-1
REM R1 =  0.0311 for    2083 Fo > 4sig(Fo)  and  0.0335 for all    2200 data
REM    105 parameters refined using      0 restraints

END

WGHT      0.0404      1.7101

REM Highest difference peak  1.395,  deepest hole -1.342,  1-sigma level  0.172
Q1    1   0.6173  0.3784 -0.0031  11.00000  0.05    0.89
Q2    1   0.5007  0.3243 -0.0062  11.00000  0.05    0.84
Q3    1   0.1094 -0.1060 -0.0168  11.00000  0.05    0.75
Q4    1   0.0343  0.1425  0.0095  11.00000  0.05    0.72
Q5    1   0.5000  0.0000  0.0000  10.50000  0.05    0.69
Q6    1   0.1439  0.0559  0.0088  11.00000  0.05    0.69
;
_shelx_res_checksum              83625
_shelx_hkl_file
;
  -8  -5   0  196.76    5.86
  -8  -5   1   84.45    3.97
  -8  -5   2   96.81    3.92
  -8  -4  -1  598.00   12.85
  -8  -4   0  125.53    6.06
  -8  -4   1  113.19    5.67
  -8  -4   2  494.44   10.86
  -8  -3  -2   29.08    2.95
  -8  -3  -1   14.34    2.22
  -8  -3   0   55.75    4.23
  -8  -3   3   25.44    3.25
  -8  -3   4    8.54    1.88
  -8  -3   5   89.51    5.29
  -8  -3   6   96.48    4.52
  -8  -2   2 1027.17   20.10
  -8  -2   3  375.95   12.39
  -8  -2   4   73.33    5.57
  -8  -2   5  490.75   13.34
  -8  -2   6  591.44   12.42
  -8  -1   3    4.55    1.97
  -8  -1   4   14.13    2.55
  -8  -1   5    4.29    1.81
  -8  -1   6    6.08    1.60
  -8   0   3  135.24    7.05
  -8   0   4   92.03    5.93
  -8   0   5  516.09   13.01
  -8   0   6  358.74    9.11
  -8   1   4  108.32    5.71
  -8   1   5  263.15    8.22
  -8   1   6   97.68    4.02
  -8   2   5  751.00   10.59
  -7  -6  -1   26.06    2.56
  -7  -6   0  132.61    6.31
  -7  -6   1   36.49    3.61
  -7  -6   2    4.71    1.53
  -7  -6   3   12.79    2.22
  -7  -6   4   72.72    4.19
  -7  -6   5    1.08    0.74
  -7  -5  -2  657.33   15.99
  -7  -5  -1  826.58   19.53
  -7  -5   0  284.26   11.77
  -7  -5   1   66.05    5.81
  -7  -5   2  506.90   15.68
  -7  -5   3  209.17    9.69
  -7  -5   4   20.92    2.90
  -7  -5   5   33.52    3.13
  -7  -5   6  151.34    4.60
  -7  -4  -3    4.02    1.61
  -7  -4  -2   21.88    3.83
  -7  -4  -1   34.10    4.50
  -7  -4   0  106.18    7.91
  -7  -4   1    1.94    1.78
  -7  -4   2    5.46    2.09
  -7  -4   3   48.32    4.88
  -7  -4   3   54.82    5.90
  -7  -4   4   91.35    7.32
  -7  -4   4   95.61    6.32
  -7  -4   5    2.43    2.08
  -7  -4   5    2.56    1.62
  -7  -4   6   29.35    3.49
  -7  -4   7   44.28    3.38
  -7  -3  -3   43.03    5.01
  -7  -3  -2  861.86   22.68
  -7  -3  -1  770.32   21.37
  -7  -3   0  387.37   14.88
  -7  -3   1  708.77   19.49
  -7  -3   1  682.93   19.32
  -7  -3   2 1833.03   31.25
  -7  -3   2 1816.76   33.27
  -7  -3   3 1095.54   26.40
  -7  -3   3 1090.81   22.64
  -7  -3   4  647.97   20.17
  -7  -3   5  756.81   21.07
  -7  -3   6 1322.73   25.76
  -7  -3   7  553.60   13.72
  -7  -3   8   98.35    3.75
  -7  -2  -3    6.22    2.10
  -7  -2  -2    5.09    2.35
  -7  -2  -1  280.32   12.35
  -7  -2   0  151.24    8.50
  -7  -2   1    2.87    1.64
  -7  -2   2   53.52    5.55
  -7  -2   3  212.29   11.44
  -7  -2   4   90.77    7.77
  -7  -2   5    5.30    2.24
  -7  -2   6   56.36    5.69
  -7  -2   7   51.49    4.67
  -7  -2   8   36.83    2.79
  -7  -1  -3  383.29   13.72
  -7  -1   2  616.68   18.10
  -7  -1   3   83.97    7.06
  -7  -1   4   10.52    2.69
  -7  -1   5  285.74   13.08
  -7  -1   6  560.17   17.43
  -7  -1   7   76.83    5.51
  -7  -1   8  123.56    5.11
  -7   0   2   20.72    3.23
  -7   0   3   20.17    3.30
  -7   0   4    4.59    2.17
  -7   0   5   16.46    3.55
  -7   0   6   46.02    4.85
  -7   0   7   51.87    4.54
  -7   0   8    7.39    1.37
  -7   1   3  336.24   13.05
  -7   1   4  390.21   14.67
  -7   1   5 1077.66   24.28
  -7   1   6  475.29   14.74
  -7   1   7   49.11    4.14
  -7   2   3  108.37    7.02
  -7   2   4   16.43    3.07
  -7   2   5   17.96    3.28
  -7   2   6  111.34    6.37
  -7   2   7   12.83    1.72
  -7   3   4  444.20   12.79
  -7   3   5  721.30   15.22
  -7   3   6  257.94    7.46
  -7   4   5   47.33    2.49
  -6  -7  -1   94.57    4.25
  -6  -7   0  394.28   10.39
  -6  -7   1  146.59    6.94
  -6  -7   2   35.40    3.65
  -6  -7   3  268.95    9.63
  -6  -7   4  401.00   10.99
  -6  -7   5   54.04    3.56
  -6  -6  -2  338.71   11.64
  -6  -6  -1  706.94   18.80
  -6  -6   0  298.54   12.90
  -6  -6   1  430.83   15.91
  -6  -6   2  286.27   13.16
  -6  -6   3  592.72   18.59
  -6  -6   4  262.77   11.67
  -6  -6   5  126.52    7.50
  -6  -6   6  480.33   12.64
  -6  -6   7  328.11    7.78
  -6  -5  -3   16.14    3.02
  -6  -5  -2  129.54    9.13
  -6  -5  -1    3.01    2.33
  -6  -5   0    1.12    1.77
  -6  -5   1  190.15   11.68
  -6  -5   2  171.71   11.10
  -6  -5   3   11.63    3.37
  -6  -5   4   14.19    3.31
  -6  -5   4   17.06    3.80
  -6  -5   5   64.90    6.21
  -6  -5   5   61.00    6.11
  -6  -5   6    4.59    2.36
  -6  -5   6    1.77    1.72
  -6  -5   7  246.48    8.59
  -6  -4  -4  177.06   10.41
  -6  -4  -3  278.41   14.03
  -6  -4  -2  419.58   17.61
  -6  -4  -1  777.96   24.08
  -6  -4   0  328.38   15.44
  -6  -4   1  358.16   16.01
  -6  -4   2  676.47   22.01
  -6  -4   2  670.41   21.43
  -6  -4   3  999.60   27.17
  -6  -4   3  967.72   25.53
  -6  -4   4  185.28   10.82
  -6  -4   4  186.21   11.81
  -6  -4   5  441.77   16.02
  -6  -4   5  464.04   17.93
  -6  -4   6  904.45   23.39
  -6  -4   6  893.22   20.90
  -6  -4   7  313.98   11.76
  -6  -4   7  327.93   10.85
  -6  -4   8  218.13    7.32
  -6  -3  -4  270.95   13.77
  -6  -3  -3   66.49    6.98
  -6  -3  -2  148.15   10.34
  -6  -3  -1  597.50   19.96
  -6  -3   0  447.41   15.46
  -6  -3   0  475.94   17.44
  -6  -3   1   54.83    6.07
  -6  -3   1   55.45    5.68
  -6  -3   2  173.15   10.22
  -6  -3   2  170.91   10.44
  -6  -3   3  488.10   16.78
  -6  -3   3  509.56   18.69
  -6  -3   4   31.54    5.33
  -6  -3   4   40.32    5.05
  -6  -3   5   54.49    5.50
  -6  -3   5   54.77    6.69
  -6  -3   6   18.31    2.88
  -6  -3   6   15.41    3.55
  -6  -3   7   50.43    5.25
  -6  -3   8   61.89    4.63
  -6  -2  -4  596.35   20.68
  -6  -2  -3 1027.66   26.47
  -6  -2  -2 1243.61   28.43
  -6  -2  -1 1887.09   32.98
  -6  -2   0  533.07   16.32
  -6  -2   1 1024.17   22.24
  -6  -2   1 1029.63   21.86
  -6  -2   2 1532.57   30.12
  -6  -2   3  748.24   21.85
  -6  -2   4  233.53   12.81
  -6  -2   5  800.56   23.77
  -6  -2   6  646.55   21.21
  -6  -2   7  216.64   11.26
  -6  -2   8  150.47    7.89
  -6  -2   9  247.64    6.20
  -6  -1  -4    0.68    1.56
  -6  -1  -3  233.00   11.66
  -6  -1  -2  155.87    8.62
  -6  -1   0   34.87    6.33
  -6  -1   1  153.07   13.38
  -6  -1   2   27.43    3.69
  -6  -1   2   26.59    5.10
  -6  -1   3  176.59   12.67
  -6  -1   3  163.44    9.95
  -6  -1   4    9.63    3.69
  -6  -1   5   29.23    4.95
  -6  -1   6  392.29   16.66
  -6  -1   7  298.31   13.52
  -6  -1   8   20.97    3.19
  -6  -1   9   88.42    4.09
  -6   0  -1  755.67   30.64
  -6   0   0   92.94   10.76
  -6   0   1 1386.67   40.85
  -6   0   2  986.45   21.14
  -6   0   2 1139.61   35.83
  -6   0   3  600.14   18.37
  -6   0   3  611.81   24.54
  -6   0   4  606.78   19.61
  -6   0   5 1167.18   28.80
  -6   0   6 1011.13   26.72
  -6   0   7  355.14   14.73
  -6   0   8  380.86   12.41
  -6   0   9  668.51   10.54
  -6   1  -2  178.26   14.48
  -6   1  -1  536.19   25.74
  -6   1   0   27.09    6.50
  -6   1   1   -3.08    3.21
  -6   1   2   64.93    8.84
  -6   1   3   20.30    4.98
  -6   1   7   20.46    4.05
  -6   1   8   61.12    4.70
  -6   2  -2 2239.59   49.78
  -6   2  -1  969.68   34.07
  -6   2   0  522.27   25.45
  -6   2   1 1472.22   42.71
  -6   2   8  191.72    6.94
  -5  -8   1  133.91    5.89
  -5  -8   2    1.66    1.04
  -5  -8   2    1.49    0.92
  -5  -8   3   27.95    2.93
  -5  -8   3   26.16    2.55
  -5  -8   4  131.62    5.11
  -5  -8   4  126.91    5.31
  -5  -7  -2  770.81   13.97
  -5  -7  -1  667.75   15.59
  -5  -7  -1  616.55   14.45
  -5  -7   0  869.38   19.98
  -5  -7   1  436.46   14.91
  -5  -7   2  568.82   17.48
  -5  -7   3  421.41   15.16
  -5  -7   4  198.15   10.13
  -5  -7   5  141.81    6.90
  -5  -7   5  152.54    8.44
  -5  -7   6  118.96    6.67
  -5  -7   7   96.28    4.70
  -5  -6  -3   98.94    6.61
  -5  -6  -2   18.63    3.31
  -5  -6  -1   -0.07    1.76
  -5  -6   0  258.94   13.53
  -5  -6   1   20.32    3.85
  -5  -6   2   68.62    7.17
  -5  -6   3   58.33    6.97
  -5  -6   4  101.08    8.85
  -5  -6   5    1.53    2.61
  -5  -6   6    4.45    2.34
  -5  -6   7   86.37    6.31
  -5  -6   8   62.39    4.15
  -5  -5  -4  155.00    9.45
  -5  -5  -3   89.22    8.04
  -5  -5  -2  227.57   13.02
  -5  -5  -1  350.13   16.36
  -5  -5   0  480.70   19.23
  -5  -5   1  385.04   17.38
  -5  -5   2 1108.97   29.27
  -5  -5   3  940.05   26.95
  -5  -5   3  966.26   27.54
  -5  -5   4 1141.98   29.88
  -5  -5   4 1169.70   29.78
  -5  -5   5 1103.57   28.68
  -5  -5   5 1084.41   27.57
  -5  -5   6 1023.51   26.63
  -5  -5   6 1037.31   25.04
  -5  -5   7 1202.05   23.11
  -5  -5   7 1181.59   26.12
  -5  -5   8  603.85   15.33
  -5  -5   9  526.23    9.52
  -5  -4  -4  213.96   12.70
  -5  -4  -3    3.23    2.20
  -5  -4  -2  233.79   13.28
  -5  -4  -1  100.90    8.72
  -5  -4   0  442.91   17.36
  -5  -4   0  435.08   21.79
  -5  -4   1    5.74    3.05
  -5  -4   1    4.75    2.37
  -5  -4   1    4.31    2.55
  -5  -4   2   13.07    4.47
  -5  -4   2   10.64    2.63
  -5  -4   2   14.53    3.73
  -5  -4   3  328.93   14.94
  -5  -4   3  323.22   14.89
  -5  -4   4  206.79   12.12
  -5  -4   4  200.34   11.97
  -5  -4   5    5.56    2.88
  -5  -4   5    8.31    3.00
  -5  -4   6    2.08    1.87
  -5  -4   6    4.74    2.38
  -5  -4   7  240.52   11.93
  -5  -4   7  241.96   11.48
  -5  -4   8   44.36    4.60
  -5  -4   8   45.40    4.18
  -5  -4   9    5.56    1.48
  -5  -3  -5 1253.30   31.13
  -5  -3  -4 1441.94   33.73
  -5  -3  -3  917.49   25.83
  -5  -3  -2 1825.13   35.07
  -5  -3  -2 1739.99   42.47
  -5  -3  -1 1160.10   26.81
  -5  -3  -1 1182.61   34.98
  -5  -3   0  784.38   28.12
  -5  -3   1  503.72   22.39
  -5  -3   2  693.83   26.00
  -5  -3   3  350.91   14.68
  -5  -3   3  380.38   14.14
  -5  -3   4  213.75   11.73
  -5  -3   4  195.06   10.50
  -5  -3   5   68.28    6.67
  -5  -3   5   69.77    6.82
  -5  -3   6  293.01   14.17
  -5  -3   6  260.48   12.64
  -5  -3   7  233.26   11.34
  -5  -3   7  244.21   12.15
  -5  -3   8   62.49    5.03
  -5  -3   8   55.97    5.11
  -5  -3   9  312.14    8.05
  -5  -2  -5  359.83   16.61
  -5  -2  -4  665.76   21.66
  -5  -2  -3  105.98    8.57
  -5  -2  -3  111.16   10.20
  -5  -2  -2   33.11    5.64
  -5  -2  -1  601.64   22.29
  -5  -2   1  356.00   18.80
  -5  -2   2   92.64    9.29
  -5  -2   4   -4.87    2.50
  -5  -2   4    1.82    2.11
  -5  -2   5  252.20   15.96
  -5  -2   5  266.29   13.35
  -5  -2   6    6.82    2.98
  -5  -2   7  181.08   10.97
  -5  -2   8   10.87    2.73
  -5  -2   9   10.59    1.91
  -5  -1  -4  313.61   13.99
  -5  -1  -1 1082.11   35.71
  -5  -1   0 1620.49   42.53
  -5  -1   1 1616.97   41.14
  -5  -1   2 3309.00   57.26
  -5  -1   3 2236.12   45.52
  -5  -1   4 1237.51   26.70
  -5  -1   5 1455.21   41.45
  -5  -1   5 1481.45   31.32
  -5  -1   6 1695.73   34.78
  -5  -1   7  702.19   22.17
  -5  -1   8  356.37   14.25
  -5  -1   9  480.49   12.42
  -5   0  -4    3.67    1.70
  -5   0  -2  212.72   15.38
  -5   0  -1  988.63   33.49
  -5   0   0   95.31   10.41
  -5   0   1    3.48    2.46
  -5   0   2  519.59   23.10
  -5   0   3 1478.61   38.91
  -5   0   4   19.93    4.77
  -5   0   8   23.17    4.12
  -5   0   9    3.06    1.50
  -5   1  -3 1295.74   37.36
  -5   1  -2 1484.68   40.54
  -5   1  -1  348.86   19.68
  -5   1   0  514.69   23.89
  -5   1   1  540.17   24.84
  -5   1   2 1263.84   37.59
  -5   1   3  141.90   12.46
  -5   1   4  191.31   14.12
  -5   1   9  551.44   12.12
  -5   2  -3  175.15   13.22
  -5   2  -2   54.96    7.92
  -5   2  -1    8.86    3.44
  -5   2   0  560.50   25.53
  -5   2   1  483.06   24.01
  -5   2   2   46.60    7.90
  -5   2   3    1.33    2.59
  -5   2   4  436.39   21.75
  -5   2   9   71.45    3.54
  -5   3  -3 1271.61   33.37
  -5   3  -2 1508.08   39.65
  -5   3  -1  813.74   30.22
  -5   3   0 1200.31   37.51
  -5   3   1 1737.90   46.29
  -5   3   2 1366.22   41.49
  -5   3   3  286.39   18.50
  -5   4  -1  529.70   23.42
  -5   4   0   25.65    5.52
  -5   4   1  361.84   20.74
  -4  -8   0  248.31    9.30
  -4  -8   1  476.41   10.91
  -4  -8   1  458.31   14.72
  -4  -8   2  358.30   10.67
  -4  -8   2  349.72   13.58
  -4  -8   3  264.94    9.54
  -4  -8   3  243.77   11.05
  -4  -8   4  324.86   10.30
  -4  -8   4  302.49   11.24
  -4  -8   5  294.94    8.96
  -4  -8   5  313.13    9.59
  -4  -8   6  238.00    7.24
  -4  -7  -2   55.10    4.29
  -4  -7  -1   -1.11    1.22
  -4  -7   0   91.05    6.99
  -4  -7   1   52.88    5.73
  -4  -7   2  205.79   11.24
  -4  -7   3   66.42    6.78
  -4  -7   4   43.44    5.56
  -4  -7   5   97.35    7.79
  -4  -7   6  187.93   10.14
  -4  -7   7   18.16    3.36
  -4  -7   8  159.63    6.34
  -4  -6  -5  277.13    7.55
  -4  -6  -4  290.04    9.85
  -4  -6  -3  592.43   17.57
  -4  -6  -2  417.94   15.96
  -4  -6  -1  383.80   15.97
  -4  -6   0  410.71   16.99
  -4  -6   1  702.08   22.64
  -4  -6   2  428.32   17.96
  -4  -6   3  467.31   16.35
  -4  -6   3  495.10   19.68
  -4  -6   4  538.20   20.81
  -4  -6   5  509.88   20.05
  -4  -6   6  513.29   19.70
  -4  -6   7  401.76   16.10
  -4  -6   8  411.45   14.25
  -4  -6   9  322.61    9.22
  -4  -5  -6  131.49    6.79
  -4  -5  -5    3.75    2.01
  -4  -5  -4  163.41   10.22
  -4  -5  -4  165.85    9.55
  -4  -5  -3    7.86    2.22
  -4  -5  -2    2.10    1.74
  -4  -5  -1  418.15   17.00
  -4  -5   0  739.08   22.72
  -4  -5   1  145.14   10.07
  -4  -5   1  130.28   13.39
  -4  -5   2   91.01   11.36
  -4  -5   2   98.12    8.51
  -4  -5   3  658.44   21.08
  -4  -5   3  691.67   22.29
  -4  -5   4  894.69   24.77
  -4  -5   4  884.47   25.88
  -4  -5   5   22.09    4.55
  -4  -5   5   20.05    3.81
  -4  -5   6   23.77    4.66
  -4  -5   6   24.55    4.20
  -4  -5   7  270.47   14.19
  -4  -5   7  284.97   11.51
  -4  -5   8   26.21    4.20
  -4  -5   9  131.57    7.37
  -4  -4  -8  173.32    5.45
  -4  -4  -7  339.69   11.81
  -4  -4  -5  403.57   16.81
  -4  -4  -4  700.02   22.68
  -4  -4  -3 1407.98   31.48
  -4  -4  -2 1156.73   27.65
  -4  -4  -2 1171.96   40.07
  -4  -4  -1 1368.39   42.71
  -4  -4  -1 1286.39   28.01
  -4  -4   0 1738.06   47.21
  -4  -4   1 2024.67   50.56
  -4  -4   2 1393.79   42.20
  -4  -4   3 1422.09   43.56
  -4  -4   4  970.88   24.28
  -4  -4   4  931.20   25.03
  -4  -4   5 1008.18   25.25
  -4  -4   5 1016.18   26.90
  -4  -4   6  734.89   23.46
  -4  -4   6  749.06   21.69
  -4  -4   7  404.18   17.23
  -4  -4   7  406.90   15.01
  -4  -4   8  432.78   16.65
  -4  -4   9  260.92   10.99
  -4  -4  10  279.61    7.59
  -4  -3  -5  118.88    9.50
  -4  -3  -4   48.52    8.19
  -4  -3  -4   38.07    5.20
  -4  -3  -3   78.31    6.74
  -4  -3  -3   86.42   10.63
  -4  -3  -2  242.87   16.82
  -4  -3  -1    3.47    2.75
  -4  -3   0    7.98    3.08
  -4  -3   1  767.10   27.86
  -4  -3   2  221.46   15.08
  -4  -3   3  143.75   12.45
  -4  -3   4   -1.06    1.76
  -4  -3   5  405.07   15.35
  -4  -3   5  371.03   18.30
  -4  -3   5  394.34   14.70
  -4  -3   6  173.67   10.89
  -4  -3   6  179.08   10.68
  -4  -3   7  341.47   14.17
  -4  -3   7  311.05   14.70
  -4  -3   8   74.36    6.43
  -4  -3   8   77.51    7.00
  -4  -3   9    2.12    1.62
  -4  -3  10  220.19    6.29
  -4  -2  -5  432.40   17.54
  -4  -2  -4  695.82   28.55
  -4  -2  -4  711.86   20.78
  -4  -2  -3  761.99   28.05
  -4  -2  -2  252.51   15.26
  -4  -2  -1  614.56   22.63
  -4  -2   0  685.57   23.21
  -4  -2   1 1081.82   28.67
  -4  -2   1 1021.46   28.88
  -4  -2   2  572.55   20.44
  -4  -2   2  606.17   22.15
  -4  -2   3  787.49   22.71
  -4  -2   4  927.20   29.77
  -4  -2   5 1238.69   37.14
  -4  -2   6  883.77   21.61
  -4  -2   6  908.17   23.57
  -4  -2   6  889.82   31.92
  -4  -2   7  803.06   22.66
  -4  -2   7  789.76   22.18
  -4  -2   8  840.96   22.14
  -4  -2   8  867.92   21.81
  -4  -1  -5  365.81   15.36
  -4  -1  -5  368.42   19.74
  -4  -1  -4  197.26   13.87
  -4  -1  -3   80.07    8.19
  -4  -1  -2   23.52    4.29
  -4  -1  -1 1220.65   27.30
  -4  -1  -1 1256.57   34.46
  -4  -1   0  547.61   17.17
  -4  -1   0  510.27   20.96
  -4  -1   1   82.94    8.32
  -4  -1   1   65.18    6.04
  -4  -1   2  599.95   21.33
  -4  -1   3  463.82   18.40
  -4  -1   4    9.94    2.82
  -4  -1   5  158.10   13.39
  -4  -1   6   98.32   11.25
  -4  -1   8  142.42    9.18
  -4  -1   9  198.06    8.78
  -4   0  -5 1902.13   41.40
  -4   0  -4 2868.93   48.01
  -4   0  -3 2673.85   41.94
  -4   0  -2 2658.51   49.68
  -4   0  -2 2505.28   35.69
  -4   0  -1 4732.60   66.98
  -4   0   0 3694.13   58.22
  -4   0   1 3303.82   54.04
  -4   0   2 1334.37   33.45
  -4   0   3 1493.61   36.27
  -4   0   4 1352.78   34.42
  -4   0   6  332.52   20.91
  -4   0   9  230.79    9.61
  -4   1  -3  461.17   20.01
  -4   1  -2  102.06    9.73
  -4   1  -1  465.18   20.43
  -4   1   0  158.90   12.16
  -4   1   1  231.13   14.62
  -4   1   2  326.22   17.48
  -4   1   3  122.23   10.75
  -4   1   4    4.87    2.67
  -4   1   5    3.28    1.96
  -4   2  -3  201.46   12.80
  -4   2  -2  388.68   18.22
  -4   2  -1 1012.37   30.78
  -4   2   0  674.62   25.54
  -4   2   1  930.97   30.85
  -4   2   2  979.50   32.09
  -4   2   3 1949.30   46.33
  -4   2   4 1517.41   40.72
  -4   2   5 1261.62   35.76
  -4   3  -3   98.81    8.66
  -4   3  -2  428.83   19.27
  -4   3  -1  357.56   18.40
  -4   3   0  112.25   10.93
  -4   3   1   14.75    4.67
  -4   3   2  258.20   17.43
  -4   3   3   14.50    4.14
  -4   3   4  107.50   11.56
  -4   3   9   34.39    2.37
  -4   4  -2 1891.31   41.53
  -4   4  -1 1437.74   38.84
  -4   4   0  808.34   29.59
  -4   4   1  658.26   27.46
  -4   4   2  607.05   27.15
  -4   4   3  369.65   21.22
  -4   5  -1   68.99    8.19
  -4   5   0   56.92    7.82
  -3  -9   1  727.49   13.68
  -3  -9   2  727.43   15.26
  -3  -9   3  342.50   10.33
  -3  -9   4  314.54    8.87
  -3  -8  -1    2.53    1.45
  -3  -8   0   51.34    5.13
  -3  -8   1  130.04    8.95
  -3  -8   2    6.89    2.44
  -3  -8   3   19.67    3.75
  -3  -8   3   18.60    2.66
  -3  -8   4   73.44    6.53
  -3  -8   4   93.37    7.68
  -3  -8   4   86.69    5.84
  -3  -8   5   13.65    2.62
  -3  -8   5   15.61    2.70
  -3  -8   5   18.66    3.65
  -3  -8   6    8.78    1.93
  -3  -8   6   13.51    2.59
  -3  -8   7   69.22    3.75
  -3  -7  -4   67.65    4.75
  -3  -7  -3  225.86   10.01
  -3  -7  -2  197.21    9.85
  -3  -7  -1   27.27    3.94
  -3  -7   0  100.02    7.18
  -3  -7   1  465.40   16.45
  -3  -7   2  339.06   16.93
  -3  -7   2  326.27   14.27
  -3  -7   3  192.24   12.57
  -3  -7   3  185.92   11.26
  -3  -7   4  642.57   20.75
  -3  -7   4  616.87   21.09
  -3  -7   5  990.58   25.10
  -3  -7   5 1003.10   24.32
  -3  -7   5 1048.02   26.71
  -3  -7   6  635.83   20.12
  -3  -7   6  644.74   18.35
  -3  -7   7  568.43   17.59
  -3  -7   7  542.49   13.88
  -3  -7   8  929.67   19.32
  -3  -7   9  923.07   13.68
  -3  -6  -6   16.13    2.52
  -3  -6  -5   35.99    4.38
  -3  -6  -4   49.05    5.55
  -3  -6  -3   17.51    2.94
  -3  -6  -3   17.55    3.42
  -3  -6  -2   80.49    6.65
  -3  -6  -2   59.06    6.12
  -3  -6  -1   45.73    5.67
  -3  -6   0  170.81   10.30
  -3  -6   1   46.87    6.95
  -3  -6   1   33.93    4.85
  -3  -6   2   89.26    8.23
  -3  -6   2  103.62    8.57
  -3  -6   3  141.67   10.17
  -3  -6   3  147.14   10.34
  -3  -6   4  100.33    8.30
  -3  -6   4  107.46    9.30
  -3  -6   5   46.42    5.62
  -3  -6   5   45.20    6.11
  -3  -6   6    0.78    1.76
  -3  -6   6    3.59    2.36
  -3  -6   7  132.07   10.02
  -3  -6   8   88.78    7.67
  -3  -6   9    4.69    1.75
  -3  -6  10    3.07    1.11
  -3  -5  -7  679.54   16.42
  -3  -5  -6  716.34   20.85
  -3  -5  -5  603.98   20.91
  -3  -5  -4 1071.72   27.87
  -3  -5  -4 1061.76   25.63
  -3  -5  -3 1936.77   36.57
  -3  -5  -3 1906.95   34.84
  -3  -5  -2 1531.65   30.33
  -3  -5  -2 1572.47   29.33
  -3  -5  -1 1116.88   40.60
  -3  -5  -1 1102.19   24.68
  -3  -5   0 2080.30   54.62
  -3  -5   1 2083.95   54.04
  -3  -5   2  784.45   33.40
  -3  -5   3  429.74   15.33
  -3  -5   3  484.11   17.17
  -3  -5   3  444.78   25.34
  -3  -5   4  821.48   21.36
  -3  -5   4  878.94   24.69
  -3  -5   5  453.92   15.44
  -3  -5   5  509.55   19.32
  -3  -5   6   68.01    5.75
  -3  -5   6   81.84    8.37
  -3  -5   7  101.58    9.46
  -3  -5   8  317.17   15.71
  -3  -5   9  166.84   10.00
  -3  -5  10   41.43    3.83
  -3  -4  -8  274.68   10.51
  -3  -4  -5   49.51    5.67
  -3  -4  -4  862.98   23.66
  -3  -4  -3  160.65    9.42
  -3  -4  -3  186.43   16.43
  -3  -4  -2   50.81    8.29
  -3  -4  -1  280.07   18.91
  -3  -4   0  805.67   31.22
  -3  -4   1   14.41    4.98
  -3  -4   2  127.38   12.99
  -3  -4   3  124.03   12.57
  -3  -4   5   28.42    4.50
  -3  -4   6  238.35   10.63
  -3  -4   6  264.98   13.88
  -3  -4   7   93.66    9.02
  -3  -4   8    2.78    2.91
  -3  -4   9   85.06    7.77
  -3  -4  10    3.69    1.49
  -3  -3  -5  134.25    9.49
  -3  -3  -4  501.82   26.06
  -3  -3  -3  899.97   33.47
  -3  -3  -2  453.63   22.34
  -3  -3  -1  649.61   25.83
  -3  -3   0 2036.47   44.65
  -3  -3   1 1821.65   41.94
  -3  -3   2 1354.23   36.49
  -3  -3   3 2195.75   48.48
  -3  -3   3 2226.79   37.35
  -3  -3   4 3310.99   52.87
  -3  -3   5 1895.68   43.70
  -3  -3   6 1242.48   27.87
  -3  -3   6 1240.34   37.51
  -3  -3   7 1728.69   35.29
  -3  -3   8 1663.04   35.90
  -3  -3   9  687.92   21.65
  -3  -3  10  342.46   13.04
  -3  -2  -5   16.47    3.05
  -3  -2  -5   24.96    6.40
  -3  -2  -4  146.78   13.20
  -3  -2  -3  950.37   31.05
  -3  -2  -2  378.20   18.08
  -3  -2  -1  598.96   21.51
  -3  -2   0  200.67   12.36
  -3  -2   1   68.94    7.01
  -3  -2   1   58.76    5.84
  -3  -2   2    4.33    2.62
  -3  -2   2    2.51    1.37
  -3  -2   3 1452.19   26.24
  -3  -2   3 1470.66   32.10
  -3  -2   4  514.90   21.16
  -3  -2   5   10.20    3.87
  -3  -2   6  112.63   11.60
  -3  -2   7 1017.84   25.42
  -3  -2   7 1052.66   22.95
  -3  -2   8    4.47    2.76
  -3  -2   9    0.44    2.09
  -3  -2  10   95.60    6.61
  -3  -1  -6 1200.68   38.98
  -3  -1  -5 1124.96   35.72
  -3  -1  -4 2347.86   47.91
  -3  -1  -3 2722.66   47.04
  -3  -1  -2 1659.42   32.79
  -3  -1  -1 1839.96   36.49
  -3  -1  -1 1902.73   31.85
  -3  -1   0 2449.30   34.60
  -3  -1   0 2415.95   39.54
  -3  -1   1 1073.85   24.88
  -3  -1   1 1067.13   22.15
  -3  -1   2  950.63   23.02
  -3  -1   2  933.91   22.23
  -3  -1   3 1249.96   26.26
  -3  -1   4 1067.24   23.89
  -3  -1   5  246.99   16.41
  -3  -1   6  390.59   21.61
  -3  -1   7  729.13   30.53
  -3  -1   7  721.90   19.14
  -3  -1   8  538.72   17.76
  -3  -1   9  225.64   10.87
  -3  -1  10  298.11   10.22
  -3   0  -6  172.43   14.03
  -3   0  -5 1366.17   36.38
  -3   0  -4  539.22   20.43
  -3   0  -3  556.64   18.38
  -3   0  -2  354.34   12.47
  -3   0  -2  332.11   15.02
  -3   0  -1  533.12   18.46
  -3   0  -1  477.11   12.29
  -3   0   0  157.89    9.94
  -3   0   0  156.53    6.38
  -3   0   1 1387.54   29.40
  -3   0   2 1136.57   28.98
  -3   0   3  365.30   15.27
  -3   0   4  944.90   25.06
  -3   0   5  750.24   22.33
  -3   0   6   10.80    3.94
  -3   1  -6  405.49   20.00
  -3   1  -5  663.00   23.96
  -3   1  -4 2101.80   37.11
  -3   1  -3 1872.06   34.98
  -3   1  -3 1923.62   30.36
  -3   1  -2 1618.18   32.26
  -3   1  -2 1583.18   22.20
  -3   1  -1 1897.76   35.34
  -3   1  -1 1891.85   16.42
  -3   1   0 3074.89   46.02
  -3   1   1 2760.77   44.77
  -3   1   2 2740.70   44.77
  -3   1   3 2800.13   46.77
  -3   1   4 1726.32   37.61
  -3   1   5 1296.52   33.41
  -3   1   6 1232.98   38.76
  -3   2  -6    0.69    1.91
  -3   2  -5   34.08    5.05
  -3   2  -3  192.04   10.63
  -3   2  -2  740.23   21.81
  -3   2  -1 1067.35   27.39
  -3   2   0  110.49    9.13
  -3   2   1   41.64    5.41
  -3   2   2 2108.05   42.54
  -3   2   3 1601.89   38.24
  -3   2   4   34.27    5.97
  -3   2   5  243.53   15.72
  -3   2   6  509.52   21.09
  -3   2   6  506.39   22.58
  -3   3  -3 1393.58   28.40
  -3   3  -2  827.20   23.64
  -3   3  -1 1460.32   33.20
  -3   3   0 1906.34   40.24
  -3   3   1 1284.16   34.64
  -3   3   2  948.30   31.08
  -3   3   3 1002.34   33.14
  -3   3   4  962.07   32.80
  -3   3   5  776.04   29.38
  -3   4  -2   37.20    5.38
  -3   4  -1   25.21    4.68
  -3   4   0 1090.68   32.09
  -3   4   1  267.44   16.71
  -3   4   2   72.41    9.42
  -3   4   3  125.79   12.36
  -3   4   4  372.54   21.30
  -3   5  -1 1140.46   31.72
  -3   5   0  962.31   31.57
  -3   5   1  577.62   25.86
  -3   5   2  488.03   24.14
  -2  -9   0  125.75    5.55
  -2  -9   1   27.57    3.53
  -2  -9   2   12.83    2.81
  -2  -9   3   37.31    4.24
  -2  -9   4    4.70    1.89
  -2  -9   5    7.55    1.46
  -2  -8  -3  476.89   12.34
  -2  -8  -2  766.91   18.06
  -2  -8  -1  143.13    7.94
  -2  -8  -1  170.51    9.17
  -2  -8   0  267.50   11.60
  -2  -8   0  250.52   12.28
  -2  -8   1  655.19   17.54
  -2  -8   1  627.65   21.02
  -2  -8   2  475.68   19.03
  -2  -8   3  174.45   11.39
  -2  -8   3  185.90   12.57
  -2  -8   4  287.40   13.70
  -2  -8   4  309.51   15.54
  -2  -8   5  587.35   17.17
  -2  -8   5  584.28   19.94
  -2  -8   6  338.34   13.68
  -2  -8   6  343.29   10.43
  -2  -8   7  144.50    7.32
  -2  -8   7  132.55    5.54
  -2  -7  -5   15.33    2.57
  -2  -7  -4   -0.23    1.94
  -2  -7  -3    4.62    2.84
  -2  -7  -2   30.62    4.77
  -2  -7  -1   21.25    3.61
  -2  -7  -1   32.00    4.85
  -2  -7   0  280.82   14.65
  -2  -7   0  281.79   13.91
  -2  -7   1   77.32    9.31
  -2  -7   1   74.93    6.77
  -2  -7   2  104.50   10.27
  -2  -7   3  202.65   13.50
  -2  -7   3  212.43   11.12
  -2  -7   4  782.92   24.05
  -2  -7   4  774.20   25.89
  -2  -7   4  790.06   22.62
  -2  -7   5  185.22   10.78
  -2  -7   5  190.23   11.32
  -2  -7   5  180.51   12.23
  -2  -7   6   49.08    5.86
  -2  -7   6   43.39    5.68
  -2  -7   7  177.94   10.47
  -2  -7   7  188.67   10.46
  -2  -7   8  335.57   12.31
  -2  -7   8  320.66   11.36
  -2  -7   9    1.39    1.08
  -2  -6  -7  249.83    7.78
  -2  -6  -6  449.06   15.24
  -2  -6  -5   62.00    6.76
  -2  -6  -4  175.64   11.85
  -2  -6  -3  998.23   28.42
  -2  -6  -2  864.83   25.59
  -2  -6  -1  317.00   14.73
  -2  -6   0 1097.69   30.27
  -2  -6   0 1080.65   38.78
  -2  -6   0 1065.06   24.74
  -2  -6   1 1893.57   51.93
  -2  -6   1 1789.00   28.93
  -2  -6   1 1847.00   30.16
  -2  -6   1 1860.63   38.78
  -2  -6   2 1478.50   34.05
  -2  -6   2 1427.58   28.41
  -2  -6   2 1453.26   45.71
  -2  -6   2 1392.57   27.47
  -2  -6   3  626.52   19.40
  -2  -6   3  667.34   20.98
  -2  -6   3  647.12   30.34
  -2  -6   3  669.81   22.51
  -2  -6   4 1268.42   29.85
  -2  -6   5 1672.63   35.70
  -2  -6   5 1723.00   35.98
  -2  -6   6  628.41   21.41
  -2  -6   6  577.40   21.20
  -2  -6   7  438.87   17.26
  -2  -6   7  448.83   19.06
  -2  -6   8  750.35   19.95
  -2  -6   8  782.30   23.63
  -2  -6   9  511.31   16.65
  -2  -6  10  138.01    6.35
  -2  -5  -8   70.51    4.40
  -2  -5  -7  184.75   10.31
  -2  -5  -6   16.76    4.21
  -2  -5  -5  128.95   11.24
  -2  -5  -4  170.44   11.76
  -2  -5  -3   12.94    3.60
  -2  -5  -2   14.10    3.28
  -2  -5  -2   13.30    4.83
  -2  -5  -1   18.38    4.99
  -2  -5   0    5.12    3.45
  -2  -5   1  195.64   15.96
  -2  -5   2  247.85   18.26
  -2  -5   3   50.26    8.18
  -2  -5   4   24.33    5.28
  -2  -5   5  499.47   21.54
  -2  -5   5  479.67   16.34
  -2  -5   6   65.34    7.26
  -2  -5   6   54.15    6.12
  -2  -5   7   74.68    8.30
  -2  -5   7   79.44    7.29
  -2  -5   8   44.90    6.35
  -2  -5   8   37.09    4.71
  -2  -5   9   11.82    2.52
  -2  -5  10   45.15    4.89
  -2  -4  -9  278.65    8.09
  -2  -4  -8  422.76   15.25
  -2  -4  -4 1136.13   23.13
  -2  -4  -4 1211.85   42.14
  -2  -4  -3 1982.52   52.04
  -2  -4  -2  780.22   31.23
  -2  -4  -1  110.71   11.25
  -2  -4   0  971.12   32.34
  -2  -4   1 1498.03   40.10
  -2  -4   2  375.47   20.20
  -2  -4   3   71.82    8.02
  -2  -4   3   73.71    9.42
  -2  -4   4 1285.44   33.55
  -2  -4   4 1288.17   30.47
  -2  -4   5 1136.39   30.84
  -2  -4   5 1171.78   32.62
  -2  -4   6  315.81   14.79
  -2  -4   6  306.55   17.91
  -2  -4   7  660.02   22.39
  -2  -4   7  655.00   18.53
  -2  -4   8  999.80   28.70
  -2  -4   8  952.14   22.62
  -2  -4   9  784.71   24.74
  -2  -4  10  355.61   14.41
  -2  -4  11  551.72   12.00
  -2  -3  -5   62.97    5.99
  -2  -3  -5   58.46    9.44
  -2  -3  -4   21.94    5.50
  -2  -3  -3   19.57    5.20
  -2  -3  -2   69.95    8.34
  -2  -3  -1  407.45   19.02
  -2  -3   0  676.19   23.69
  -2  -3   1   63.88    7.33
  -2  -3   2  204.75   13.42
  -2  -3   2  213.05   11.56
  -2  -3   2  220.60    8.88
  -2  -3   3 1057.11   31.82
  -2  -3   3 1082.60   25.74
  -2  -3   3 1104.37   24.45
  -2  -3   4  364.79   15.09
  -2  -3   4  378.31   16.61
  -2  -3   5  116.91   10.43
  -2  -3   5  117.36    8.73
  -2  -3   6  219.95   15.66
  -2  -3   7  109.26    8.61
  -2  -3   7   86.86   10.23
  -2  -3   8    4.15    2.87
  -2  -3   9  145.49   10.78
  -2  -3  10    2.34    1.96
  -2  -3  11   23.13    3.04
  -2  -2  -6  297.60   20.82
  -2  -2  -5  418.60   23.09
  -2  -2  -4 3371.02   62.33
  -2  -2  -3 4095.11   64.02
  -2  -2  -2 2164.90   41.22
  -2  -2  -1 2127.30   37.84
  -2  -2   0 9922.28   84.95
  -2  -2   0 9999.00   47.33
  -2  -2   1 8361.12   75.62
  -2  -2   1 8283.30   54.27
  -2  -2   2 1919.85   25.58
  -2  -2   2 1910.48   27.55
  -2  -2   2 1930.29   35.70
  -2  -2   2 1970.02   28.41
  -2  -2   3 2546.73   25.43
  -2  -2   3 2555.16   32.62
  -2  -2   3 2474.90   38.20
  -2  -2   4 4918.60   49.91
  -2  -2   4 4945.45   64.39
  -2  -2   5 2129.52   46.03
  -2  -2   6  621.32   26.59
  -2  -2   7  700.32   20.92
  -2  -2   7  801.79   31.89
  -2  -2   8  853.30   24.94
  -2  -2   9  327.64   15.45
  -2  -2  10   54.11    5.95
  -2  -2  11  242.93    8.87
  -2  -1  -6   30.64    7.02
  -2  -1  -5   80.59    9.79
  -2  -1  -4    3.06    2.83
  -2  -1  -3    2.62    2.12
  -2  -1  -2  459.55   15.66
  -2  -1  -1   39.45    4.28
  -2  -1   0    2.24    1.52
  -2  -1   0    5.07    1.82
  -2  -1   1 1438.50   22.79
  -2  -1   1 1413.87   23.25
  -2  -1   2   53.48    2.93
  -2  -1   2   52.82    4.41
  -2  -1   2   49.87    4.81
  -2  -1   3   52.57    4.38
  -2  -1   3   65.40    3.65
  -2  -1   4   60.26    6.92
  -2  -1   4   51.26    4.26
  -2  -1   5   68.51    8.17
  -2  -1   6  258.33   17.02
  -2  -1   7  176.75    9.47
  -2  -1   7  197.52   15.69
  -2  -1   8   24.91    4.04
  -2  -1   9    2.24    2.10
  -2  -1  10  312.86   12.45
  -2  -1  11  143.19    5.80
  -2   0  -7 1590.93   46.00
  -2   0  -6  312.54   19.22
  -2   0  -5  852.35   29.05
  -2   0  -4 2421.70   43.71
  -2   0  -3  647.67   18.86
  -2   0  -2  107.06    7.01
  -2   0  -2  105.16    6.39
  -2   0  -1  225.71    9.63
  -2   0  -1  219.22    7.38
  -2   0   0 5494.94   36.92
  -2   0   1  170.19    8.13
  -2   0   1  155.79    5.75
  -2   0   2   18.82    2.87
  -2   0   3 1748.97   28.53
  -2   0   4 3837.00   45.78
  -2   0   5 1517.90   29.29
  -2   0   5 1545.46   38.36
  -2   0   6  758.96   28.76
  -2   0   7 2068.36   31.24
  -2   0   7 2137.57   50.58
  -2   0   8 1951.04   34.32
  -2   0   9  808.11   21.19
  -2   0  10  580.32   15.06
  -2   1  -7    4.52    2.69
  -2   1  -3   52.07    4.51
  -2   1  -2    7.86    2.14
  -2   1  -1 1480.90   25.02
  -2   1  -1 1525.88   14.61
  -2   1   0   32.58    3.92
  -2   1   1  112.55    6.94
  -2   1   2  585.07   16.96
  -2   1   3   43.61    5.17
  -2   1   4    3.00    2.14
  -2   1   5   90.07    9.17
  -2   1   5   82.45    7.67
  -2   1   6  121.03   11.31
  -2   1   7   21.28    4.75
  -2   2  -3 2982.25   34.39
  -2   2  -2 3019.19   36.90
  -2   2  -1 9160.53   73.76
  -2   2   0 8036.31   71.63
  -2   2   1 1203.24   26.43
  -2   2   2 1563.42   32.90
  -2   2   3 3207.30   50.20
  -2   2   4 1888.34   40.26
  -2   2   5   86.49    9.42
  -2   2   5   72.95    8.53
  -2   2   6  163.16   12.16
  -2   2   6  157.09   11.85
  -2   3  -2  413.07   13.73
  -2   3  -1  316.27   13.11
  -2   3   0  103.61    8.04
  -2   3   1    1.38    1.52
  -2   3   2  235.67   14.01
  -2   3   3   92.44    9.15
  -2   3   4   20.30    4.83
  -2   3   5    5.77    3.24
  -2   4  -2  584.49   17.96
  -2   4  -1 1557.61   32.49
  -2   4   0  998.52   28.27
  -2   4   1  316.45   16.83
  -2   4   2 1832.63   43.20
  -2   4   3 2766.82   56.21
  -2   4   4 1493.18   42.02
  -2   5  -1    7.92    2.45
  -2   5   0   53.18    7.34
  -2   5   1   18.87    4.69
  -2   5   2  301.85   18.65
  -2   5   3   27.75    6.06
  -2   6   1  211.58   14.57
  -1  -9  -1   62.92    4.22
  -1  -9   0    4.56    1.77
  -1  -9   1  200.12    9.62
  -1  -9   1  195.94    8.45
  -1  -9   2  270.83   11.91
  -1  -9   2  269.95    9.52
  -1  -9   3   20.84    3.60
  -1  -9   4   49.86    4.87
  -1  -9   4   65.21    7.00
  -1  -9   5  579.35   16.41
  -1  -9   6  368.31   11.04
  -1  -8  -4    9.39    1.98
  -1  -8  -3    8.21    2.83
  -1  -8  -2    5.87    2.87
  -1  -8  -1    6.07    2.21
  -1  -8  -1   -0.29    2.37
  -1  -8   0    5.43    2.53
  -1  -8   0    1.41    2.04
  -1  -8   1   13.66    3.56
  -1  -8   1   11.51    3.32
  -1  -8   2   -3.15    2.83
  -1  -8   2   -1.26    2.83
  -1  -8   2    3.93    4.99
  -1  -8   3   10.26    3.47
  -1  -8   3   14.76    3.64
  -1  -8   3   15.55    5.01
  -1  -8   4    9.18    2.83
  -1  -8   4   12.80    4.07
  -1  -8   5   18.92    3.65
  -1  -8   5   14.81    3.66
  -1  -8   6   19.31    2.77
  -1  -8   6   11.54    3.06
  -1  -8   7   67.82    6.02
  -1  -8   8   17.83    2.46
  -1  -7  -6  488.82   10.98
  -1  -7  -5  195.27    9.91
  -1  -7  -4  318.34   14.92
  -1  -7  -3 1205.42   31.69
  -1  -7  -2 1153.17   31.35
  -1  -7  -1  765.49   22.35
  -1  -7  -1  692.57   24.31
  -1  -7   0  700.77   23.70
  -1  -7   0  770.79   24.27
  -1  -7   1 2833.62   48.46
  -1  -7   1 2794.78   52.17
  -1  -7   1 2731.19   39.37
  -1  -7   2 1246.37   34.58
  -1  -7   2 1221.10   29.93
  -1  -7   2 1216.83   31.55
  -1  -7   2 1195.12   28.19
  -1  -7   3  300.08   14.67
  -1  -7   3  303.94   17.09
  -1  -7   3  315.29   15.61
  -1  -7   3  293.82   13.97
  -1  -7   4  988.02   26.69
  -1  -7   4 1014.95   31.34
  -1  -7   4 1007.30   24.79
  -1  -7   4 1004.96   28.55
  -1  -7   5 1324.70   29.01
  -1  -7   5 1281.02   27.15
  -1  -7   6  250.39   12.45
  -1  -7   6  255.23   14.90
  -1  -7   7   38.03    4.71
  -1  -7   7   54.31    6.72
  -1  -7   8  267.24   11.00
  -1  -7   9  312.14    9.48
  -1  -6  -7   17.40    2.66
  -1  -6  -6   24.23    4.28
  -1  -6  -5   21.28    4.60
  -1  -6  -4  135.46   10.88
  -1  -6  -3  215.42   13.78
  -1  -6  -2  138.97   10.58
  -1  -6  -1  106.22    7.69
  -1  -6  -1   96.31   10.81
  -1  -6  -1  112.54    9.20
  -1  -6   0  246.98   17.51
  -1  -6   0  259.75   12.99
  -1  -6   0  274.27   14.70
  -1  -6   1  265.47   14.14
  -1  -6   1  268.61   18.39
  -1  -6   1  260.30   12.36
  -1  -6   2   20.38    5.56
  -1  -6   2   31.52    4.74
  -1  -6   2   31.20    4.14
  -1  -6   3   85.53    7.24
  -1  -6   4   19.04    3.16
  -1  -6   4   24.74    4.50
  -1  -6   4   31.13    5.51
  -1  -6   4   16.30    4.94
  -1  -6   5   10.55    3.33
  -1  -6   5   13.40    2.54
  -1  -6   5   15.06    3.85
  -1  -6   5   13.93    4.18
  -1  -6   6    3.36    2.19
  -1  -6   7    5.96    3.29
  -1  -6   8   10.14    3.28
  -1  -6   9    7.70    2.34
  -1  -6  10   13.55    2.51
  -1  -6  10   12.07    1.85
  -1  -5  -8  162.44    7.44
  -1  -5  -7  668.93   20.84
  -1  -5  -6  367.14   17.55
  -1  -5  -5  129.92   10.91
  -1  -5  -4  200.74   13.12
  -1  -5  -3 1114.95   37.85
  -1  -5  -3 1073.13   28.40
  -1  -5  -2  343.40   21.03
  -1  -5  -1   36.84    6.82
  -1  -5   0  696.34   28.03
  -1  -5   1 2278.37   50.62
  -1  -5   2  182.14   14.64
  -1  -5   2  164.23   14.13
  -1  -5   3  576.25   26.92
  -1  -5   3  573.24   26.36
  -1  -5   4 2325.66   52.77
  -1  -5   5 2127.87   36.18
  -1  -5   5 2112.68   51.20
  -1  -5   6  687.26   25.84
  -1  -5   6  750.78   22.69
  -1  -5   6  778.25   23.78
  -1  -5   6  725.74   28.17
  -1  -5   7  708.94   23.38
  -1  -5   7  717.14   23.26
  -1  -5   8 2354.79   42.23
  -1  -5   8 2340.29   43.70
  -1  -5   9 1321.62   30.63
  -1  -5   9 1358.07   28.95
  -1  -5  10  298.82   10.52
  -1  -5  11  406.43    9.92
  -1  -4  -9   11.12    2.00
  -1  -4  -8   38.78    4.72
  -1  -4  -4    8.05    4.86
  -1  -4  -3   73.70    9.79
  -1  -4  -2  412.08   21.27
  -1  -4  -1   96.65    9.94
  -1  -4   0    3.93    2.31
  -1  -4   1   29.98    5.81
  -1  -4   2   46.98    4.25
  -1  -4   2   44.84    6.67
  -1  -4   2   46.73    6.88
  -1  -4   3  124.53    8.44
  -1  -4   3  125.77   10.99
  -1  -4   3  107.36   10.60
  -1  -4   4  122.78    9.49
  -1  -4   4  119.40   10.80
  -1  -4   5  218.90   14.48
  -1  -4   5  215.23   14.79
  -1  -4   6   44.96    7.16
  -1  -4   6   59.38    7.86
  -1  -4   7  379.40   21.34
  -1  -4   7  364.39   16.05
  -1  -4   7  340.30   15.00
  -1  -4   8  231.70   13.68
  -1  -4   8  232.23   12.78
  -1  -4   9   43.50    5.80
  -1  -4   9   41.74    5.33
  -1  -4  10   95.39    7.89
  -1  -4  10   88.76    6.22
  -1  -4  11   96.64    5.90
  -1  -3  -5  678.93   30.19
  -1  -3  -4 1617.17   44.60
  -1  -3  -3 4451.91   69.12
  -1  -3  -2 1030.70   29.91
  -1  -3  -1 1874.87   37.64
  -1  -3   0 4716.15   58.62
  -1  -3   1 3496.89   29.19
  -1  -3   1 3483.60   48.82
  -1  -3   2  304.39   10.28
  -1  -3   2  287.50   14.33
  -1  -3   2  311.75   14.34
  -1  -3   3 2051.24   33.79
  -1  -3   3 2009.38   37.47
  -1  -3   3 2105.50   42.07
  -1  -3   4 2296.48   41.11
  -1  -3   5 1119.79   32.09
  -1  -3   6   27.32    5.69
  -1  -3   7  479.04   17.66
  -1  -3   7  479.34   24.42
  -1  -3   8 1623.29   35.26
  -1  -3   9  109.22    9.52
  -1  -3  10   50.66    4.78
  -1  -3  10   46.62    5.99
  -1  -3  11  397.37   13.01
  -1  -2  -6  190.63   16.32
  -1  -2  -5  576.80   26.42
  -1  -2  -4 1215.80   35.35
  -1  -2  -3  179.81   12.38
  -1  -2  -2  212.28   11.58
  -1  -2  -1 1042.70   23.31
  -1  -2   0  316.13   11.72
  -1  -2   1   29.73    3.61
  -1  -2   1   26.40    2.20
  -1  -2   2  173.30    9.67
  -1  -2   2  173.13    8.31
  -1  -2   2  183.65    7.91
  -1  -2   3    4.57    2.18
  -1  -2   4   80.37    7.72
  -1  -2   5  480.93   20.61
  -1  -2   6  349.02   19.73
  -1  -2   7    1.13    2.85
  -1  -2   8  159.55   10.76
  -1  -2   9   83.96    7.92
  -1  -2  10    3.08    2.19
  -1  -2  11    7.36    2.03
  -1  -1  -9  128.46    8.20
  -1  -1  -7 2003.85   53.78
  -1  -1  -6  763.89   31.58
  -1  -1  -5  265.68   17.05
  -1  -1  -4 2659.28   48.20
  -1  -1  -3 4048.82   52.80
  -1  -1  -2  290.83   11.55
  -1  -1  -1 4806.56   42.94
  -1  -1   0 3051.90   29.41
  -1  -1   1 3953.81   28.86
  -1  -1   1 3960.28   30.69
  -1  -1   2 1298.75   14.45
  -1  -1   3 4768.33   33.57
  -1  -1   3 4733.35   50.41
  -1  -1   4 5715.05   40.42
  -1  -1   4 5821.27   64.78
  -1  -1   5 1462.50   35.39
  -1  -1   6  791.37   28.75
  -1  -1   7 3162.25   61.34
  -1  -1   8 1965.72   37.14
  -1  -1   9  212.46   12.50
  -1  -1  10  423.80   16.15
  -1  -1  11  706.65   15.82
  -1   0 -10    5.07    2.25
  -1   0  -7  429.47   24.27
  -1   0  -1   91.82    4.24
  -1   0   0   88.08    2.68
  -1   0   1  104.24    4.33
  -1   0   2  407.01    9.65
  -1   0   3 2741.23   30.21
  -1   0   4  484.45   17.84
  -1   0   4  470.21   13.21
  -1   0   5  204.71   12.87
  -1   0   5  223.33   10.05
  -1   0   6  858.66   28.65
  -1   0   7  565.01   16.66
  -1   0   7  550.76   24.39
  -1   0   8   23.92    4.30
  -1   0   9   46.71    5.78
  -1   0  10   56.60    5.54
  -1   0  11   15.77    2.09
  -1   1 -11  631.37   13.54
  -1   1  -2 1056.92   14.44
  -1   1  -1 3586.85   29.70
  -1   1   0 2958.68   27.52
  -1   1   4 2235.47   38.09
  -1   1   5  388.33   17.22
  -1   1   5  391.75   15.81
  -1   1   6  961.98   25.78
  -1   1   6  882.92   28.34
  -1   1   7 1823.89   29.58
  -1   1   7 1716.36   38.88
  -1   1   8  743.06   20.77
  -1   1   9  156.87    8.99
  -1   1  10  540.11   13.84
  -1   2  -2   69.01    3.94
  -1   2  -1    7.51    1.81
  -1   2   0  297.24    9.76
  -1   2   5  148.64   10.31
  -1   2   6   -2.02    2.26
  -1   3  -2  251.06    8.53
  -1   3  -1 2643.27   32.95
  -1   3   0 3195.64   40.47
  -1   3   5  446.65   21.56
  -1   3   6  850.22   29.05
  -1   4  -2  466.82   13.44
  -1   4  -1  727.57   19.39
  -1   4   0  144.71    9.68
  -1   4   4   74.23    9.10
  -1   4   5  242.99   16.58
  -1   5  -1 4064.09   54.24
  -1   5   0 2103.24   42.12
  -1   5   1  731.03   26.64
  -1   5   2 1211.44   36.12
  -1   5   3 2279.71   52.93
  -1   6   1   10.64    3.04
   0  -9  -2    5.22    1.29
   0  -9  -1    5.17    1.82
   0  -9   0   -0.65    2.53
   0  -9   1    9.72    2.50
   0  -9   2   58.77    5.96
   0  -9   2   56.67    5.61
   0  -9   3   77.47    6.66
   0  -9   4  126.73    8.75
   0  -9   5  166.27    9.18
   0  -9   6  185.00    8.31
   0  -9   7  135.86    5.43
   0  -8  -4   23.70    3.23
   0  -8  -3  202.68   10.67
   0  -8  -2  633.06   21.31
   0  -8  -1   71.35    6.16
   0  -8  -1   64.71    7.30
   0  -8   0  289.29   13.96
   0  -8   0  252.05   14.48
   0  -8   1  759.77   24.30
   0  -8   1  775.91   20.19
   0  -8   2  789.87   25.09
   0  -8   2  781.94   22.32
   0  -8   2  727.46   24.26
   0  -8   2  755.66   26.23
   0  -8   3  354.92   18.21
   0  -8   3  358.95   16.42
   0  -8   3  365.90   16.27
   0  -8   3  377.71   17.31
   0  -8   4  571.65   20.25
   0  -8   4  533.05   21.86
   0  -8   4  590.18   20.96
   0  -8   4  565.37   19.78
   0  -8   5 1089.58   24.72
   0  -8   5 1104.45   30.59
   0  -8   5 1026.92   27.68
   0  -8   6  718.18   23.13
   0  -8   7  244.35   12.13
   0  -8   8  532.65   14.41
   0  -7  -6   73.37    4.43
   0  -7  -5  210.28   10.58
   0  -7  -4  104.33    9.05
   0  -7  -3   51.73    7.01
   0  -7  -2  114.36   10.23
   0  -7  -1   89.13    7.71
   0  -7  -1   88.17    9.14
   0  -7   0   20.38    4.36
   0  -7   0   20.68    4.84
   0  -7   0   28.83    6.68
   0  -7   1    2.28    1.96
   0  -7   1    1.24    2.59
   0  -7   1    5.11    3.30
   0  -7   1    0.06    1.65
   0  -7   2   -2.51    3.78
   0  -7   2   -0.71    2.47
   0  -7   2    3.00    2.54
   0  -7   2    5.26    1.63
   0  -7   3    7.39    2.67
   0  -7   3    2.66    2.68
   0  -7   3    7.83    3.68
   0  -7   3    9.70    2.96
   0  -7   4   22.85    4.11
   0  -7   4   25.50    5.49
   0  -7   4   22.10    3.93
   0  -7   5   56.99    6.22
   0  -7   5   57.74    8.48
   0  -7   5   51.60    6.91
   0  -7   6   49.35    6.92
   0  -7   6   51.00    7.11
   0  -7   7   32.89    5.56
   0  -7   8    7.05    1.89
   0  -7   8   10.49    3.45
   0  -7   9    2.04    0.94
   0  -7   9    3.58    1.92
   0  -6  -7  728.21   15.59
   0  -6  -6 1339.68   28.98
   0  -6  -5  352.91   16.85
   0  -6  -4  479.51   21.00
   0  -6  -3 1754.48   39.78
   0  -6  -2 1451.15   34.96
   0  -6  -1  198.80   10.39
   0  -6  -1  199.04   12.55
   0  -6   0  757.95   23.23
   0  -6   0  777.30   21.37
   0  -6   0  739.11   22.66
   0  -6   1 1065.79   25.46
   0  -6   1 1061.22   26.52
   0  -6   1 1088.75   27.12
   0  -6   1 1083.79   32.76
   0  -6   2  851.09   22.54
   0  -6   2  870.66   29.55
   0  -6   3   47.31    5.16
   0  -6   3   50.36    6.27
   0  -6   3   48.06    8.67
   0  -6   3   40.28    5.09
   0  -6   3   45.56    4.94
   0  -6   4  349.86   16.63
   0  -6   4  354.89   13.99
   0  -6   4  369.79   23.36
   0  -6   4  318.38   14.40
   0  -6   4  337.77   14.81
   0  -6   5  951.84   21.76
   0  -6   5  952.03   26.23
   0  -6   5  987.50   28.84
   0  -6   6  173.43   11.38
   0  -6   6  177.95   12.64
   0  -6   7  115.71   10.18
   0  -6   8  629.87   22.61
   0  -6   9  519.96   18.15
   0  -6  10  125.79    6.67
   0  -6  10  108.11    5.87
   0  -5  -8    6.95    2.08
   0  -5  -7   19.21    3.87
   0  -5  -6    4.32    2.38
   0  -5  -5   11.98    4.28
   0  -5  -4   23.88    4.84
   0  -5  -3    2.89    2.66
   0  -5  -3    0.18    2.15
   0  -5  -2   36.45    6.27
   0  -5  -1   65.11    8.30
   0  -5   0   54.42    7.41
   0  -5   1   98.40    9.43
   0  -5   2  297.13   16.76
   0  -5   2  314.40   19.82
   0  -5   3  338.25   20.83
   0  -5   4  238.32   14.37
   0  -5   4  239.87   17.81
   0  -5   5  183.16   13.54
   0  -5   5  169.94   14.90
   0  -5   6  170.68   13.63
   0  -5   6  150.95   10.87
   0  -5   6  159.53    9.40
   0  -5   6  167.47   14.85
   0  -5   6  159.98    9.61
   0  -5   7  127.87    9.27
   0  -5   7  139.97   10.80
   0  -5   8   50.37    6.66
   0  -5   8   52.50    6.33
   0  -5   9   13.35    3.69
   0  -5   9   16.29    4.13
   0  -5  10    3.67    2.03
   0  -5  10    0.94    1.38
   0  -4  -9   11.58    1.72
   0  -4  -8   16.37    3.45
   0  -4  -7  733.87   23.85
   0  -4  -5   21.30    5.23
   0  -4  -4  689.63   28.42
   0  -4  -3 2038.31   46.75
   0  -4  -2 1508.21   37.33
   0  -4  -1  442.45   18.92
   0  -4   0 3371.02   51.20
   0  -4   1 6069.79   69.84
   0  -4   1 6078.77   79.13
   0  -4   2 3998.66   47.50
   0  -4   2 3955.35   56.98
   0  -4   2 3922.30   63.13
   0  -4   3  829.60   23.31
   0  -4   3  844.49   29.22
   0  -4   4 5096.35   66.87
   0  -4   4 5088.02   77.01
   0  -4   5 3829.10   63.11
   0  -4   6  845.44   31.27
   0  -4   7 1164.21   38.18
   0  -4   7 1174.23   28.11
   0  -4   8 1208.30   30.14
   0  -4   9  722.03   23.15
   0  -4   9  732.46   23.72
   0  -4  10   94.69    7.49
   0  -4  10  100.70    7.92
   0  -4  11  250.66    9.39
   0  -4  11  247.99    8.17
   0  -3  -9   33.65    3.98
   0  -3  -6  119.56   12.28
   0  -3  -5   17.86    5.18
   0  -3  -4    2.23    2.67
   0  -3  -3   27.52    5.04
   0  -3  -2   27.25    4.84
   0  -3  -1    2.57    2.02
   0  -3   0   90.57    7.06
   0  -3   0   93.09    8.00
   0  -3   1   39.11    3.52
   0  -3   1   44.54    4.72
   0  -3   1   41.17    5.32
   0  -3   2   11.76    3.09
   0  -3   2   15.16    2.88
   0  -3   2   13.37    2.67
   0  -3   3   50.29    5.39
   0  -3   4   58.92    6.62
   0  -3   5   26.04    5.11
   0  -3   6   -1.86    1.94
   0  -3   7   -0.85    2.42
   0  -3   7    3.52    2.00
   0  -3   8    2.04    2.68
   0  -3   9   16.69    4.35
   0  -3  10   29.61    5.00
   0  -3  11   58.51    5.22
   0  -3  11   57.41    4.21
   0  -2 -10  700.63   13.09
   0  -2  -9  338.05   12.78
   0  -2  -8 1440.27   31.03
   0  -2  -7 3204.91   46.11
   0  -2  -6  897.61   34.64
   0  -2  -5  452.19   22.52
   0  -2  -4 3738.86   60.34
   0  -2  -3 3085.76   47.99
   0  -2  -2  490.28   16.06
   0  -2  -1  394.79   12.72
   0  -2   0 4114.46   36.13
   0  -2   0   -0.72    0.83
   0  -2   1 2566.09   25.58
   0  -2   1 2567.07   30.54
   0  -2   2  203.09    9.30
   0  -2   2  204.49    8.37
   0  -2   3   39.73    4.89
   0  -2   4 4329.10   55.74
   0  -2   5  986.99   29.49
   0  -2   6  300.97   17.70
   0  -2   7 1107.83   36.09
   0  -2   8 1972.22   38.75
   0  -2   9 1225.34   31.84
   0  -2  10  307.00   15.12
   0  -2  11 1147.06   23.02
   0  -2  11 1085.37   17.91
   0  -1 -10   26.19    3.49
   0  -1  -9    5.83    2.99
   0  -1  -7   59.86    9.57
   0  -1  -6   27.68    6.65
   0  -1  -5   -2.98    3.09
   0  -1  -2   61.85    4.87
   0  -1  -1   15.03    1.95
   0  -1   0   41.98    1.80
   0  -1   0   37.24    2.36
   0  -1   1  128.12    4.90
   0  -1   1  122.07    4.14
   0  -1   2  105.83    5.35
   0  -1   3   84.38    5.97
   0  -1   4   19.64    3.51
   0  -1   5   35.00    5.27
   0  -1   6   12.71    4.19
   0  -1   7   13.36    4.12
   0  -1   8    2.61    2.70
   0  -1   9    4.20    2.18
   0  -1  10    0.72    1.80
   0  -1  11    2.42    1.81
   0   0 -11  487.98   11.31
   0   0 -10   11.44    3.03
   0   0   1 5769.39   33.11
   0   0   2 2538.37   25.86
   0   0   3 7280.71   59.01
   0   0   4 9143.74   77.31
   0   0   5 1817.72   35.70
   0   0   6  239.11   14.24
   0   0   7 1303.62   35.55
   0   0   8 1296.08   29.60
   0   0   9   52.92    6.33
   0   0  10   14.78    3.12
   0   0  11  530.47   12.65
   0   1 -11    3.63    1.99
   0   1  -1  120.04    2.10
   0   1   3   59.28    4.63
   0   1   4    2.72    1.13
   0   1   5    1.67    1.94
   0   1   6   19.45    3.72
   0   1   7   44.40    4.92
   0   1   8    3.23    2.22
   0   1   9    4.50    2.38
   0   1  10   28.75    3.67
   0   2   3 2894.04   32.42
   0   2   4 3537.10   41.03
   0   2   7 3296.07   44.37
   0   2   8 1495.04   29.81
   0   2   9  350.37   12.88
   0   2  10  703.20   12.76
   0   3  -2   14.82    1.63
   0   3   7   43.02    4.53
   0   3   8    4.38    1.97
   0   5  -1  105.84    7.80
   0   6   1  190.09   13.38
   1  -9  -2  482.91   11.14
   1  -9  -1  402.43   12.65
   1  -9   0  271.99   11.69
   1  -9   1  915.91   22.75
   1  -9   2 1059.77   24.71
   1  -9   2 1115.37   20.70
   1  -9   3  438.75   14.08
   1  -9   4  363.72   12.83
   1  -9   4  411.74   13.94
   1  -9   5  957.39   19.67
   1  -9   6  549.51   13.05
   1  -8  -4    5.46    1.96
   1  -8  -3    8.27    2.57
   1  -8  -2  136.79    9.85
   1  -8  -1  193.00   12.54
   1  -8   0   69.11    7.13
   1  -8   0   78.55    8.54
   1  -8   1   40.17    5.63
   1  -8   1   35.71    5.54
   1  -8   1   38.30    4.65
   1  -8   2  399.22   17.73
   1  -8   2  370.37   16.81
   1  -8   2  388.56   18.68
   1  -8   2  392.96   16.19
   1  -8   3  190.18   12.53
   1  -8   3  190.40   12.12
   1  -8   3  209.45   13.54
   1  -8   3  190.60   11.75
   1  -8   4   17.27    4.02
   1  -8   4    6.01    2.29
   1  -8   4   12.88    3.33
   1  -8   5   50.18    6.31
   1  -8   5   34.95    5.42
   1  -8   6  137.18    9.57
   1  -8   6  149.40   10.04
   1  -8   7    6.80    2.03
   1  -8   8   -1.61    1.85
   1  -7  -5  162.46    8.80
   1  -7  -4  137.18    9.81
   1  -7  -3  613.67   22.65
   1  -7  -2  378.33   18.68
   1  -7  -1  102.73    8.25
   1  -7  -1  108.17   10.42
   1  -7   0   72.35    7.62
   1  -7   0   82.65    8.47
   1  -7   0   78.62    8.63
   1  -7   0   79.35    6.51
   1  -7   1  996.70   27.99
   1  -7   1 1018.20   30.51
   1  -7   1 1020.11   25.74
   1  -7   1  951.34   27.86
   1  -7   2  297.85   15.34
   1  -7   2  306.94   16.59
   1  -7   2  298.59   14.52
   1  -7   2  289.44   15.25
   1  -7   3   25.60    5.04
   1  -7   3   38.25    6.66
   1  -7   3   26.09    4.46
   1  -7   4  491.78   18.84
   1  -7   4  491.85   21.23
   1  -7   4  515.06   20.06
   1  -7   5 1201.68   27.50
   1  -7   5 1174.52   32.53
   1  -7   5 1177.04   30.77
   1  -7   6  443.54   19.66
   1  -7   6  434.64   17.88
   1  -7   7  209.76   13.19
   1  -7   8  750.62   22.24
   1  -7   9 1036.12   21.10
   1  -6  -7   18.11    2.09
   1  -6  -6   88.74    7.06
   1  -6  -5   33.96    5.40
   1  -6  -4   20.55    5.03
   1  -6  -3   36.01    6.20
   1  -6  -2    3.52    2.21
   1  -6  -1   23.17    3.83
   1  -6  -1   14.67    4.03
   1  -6   0  313.38   13.59
   1  -6   0  290.57   13.14
   1  -6   0  305.16   15.07
   1  -6   0  275.62   11.08
   1  -6   1   78.56    7.56
   1  -6   1   77.18    6.16
   1  -6   1   71.06    6.60
   1  -6   2   32.88    4.63
   1  -6   2   35.05    7.55
   1  -6   2   32.77    5.16
   1  -6   2   25.02    3.72
   1  -6   3   67.81    6.58
   1  -6   3   75.45    7.27
   1  -6   3   69.66   10.33
   1  -6   3   72.10    7.40
   1  -6   3   68.98    6.58
   1  -6   4   26.13    4.09
   1  -6   4   32.02    5.55
   1  -6   4   29.09    6.71
   1  -6   4   30.58    5.43
   1  -6   4   29.12    4.61
   1  -6   5   33.14    4.38
   1  -6   5   33.71    5.93
   1  -6   5   21.89    4.08
   1  -6   6  158.22   11.86
   1  -6   6  144.02    9.95
   1  -6   7   31.86    5.75
   1  -6   7   27.40    4.81
   1  -6   8   35.76    5.79
   1  -6   9  141.64    9.58
   1  -6  10  182.89    8.32
   1  -6  10  157.95    5.64
   1  -5  -8  166.23    5.56
   1  -5  -7  630.73   17.93
   1  -5  -6  603.88   20.75
   1  -5  -5  443.59   18.72
   1  -5  -4  696.13   23.22
   1  -5  -3 2252.49   40.76
   1  -5   1 4106.61   71.88
   1  -5   2  620.70   28.07
   1  -5   3  849.16   27.96
   1  -5   3  884.87   34.04
   1  -5   4 2204.73   48.52
   1  -5   4 2148.85   55.13
   1  -5   5 1574.41   43.34
   1  -5   5 1633.44   33.26
   1  -5   5 1608.87   48.39
   1  -5   5 1610.82   31.03
   1  -5   6  241.05   16.98
   1  -5   6  260.13   19.46
   1  -5   6  240.55   11.31
   1  -5   6  225.39   13.44
   1  -5   6  239.87   12.93
   1  -5   7  108.26    9.87
   1  -5   8  957.45   24.23
   1  -5   8 1037.15   30.71
   1  -5   9  506.96   19.87
   1  -5   9  494.39   16.26
   1  -5  10   11.25    2.86
   1  -5  10   12.22    2.32
   1  -5  11   65.11    3.81
   1  -4  -8   17.78    3.09
   1  -4  -7   19.50    3.62
   1  -4  -7   18.83    3.87
   1  -4  -6  114.64    8.34
   1  -4  -6  128.41    9.81
   1  -4  -5  211.65   10.84
   1  -4  -5  241.59   13.03
   1  -4  -3  384.70   17.63
   1  -4  -2 1310.84   30.53
   1  -4  -1  384.26   15.20
   1  -4   0  152.79    9.08
   1  -4   0  178.47   12.84
   1  -4   1  777.37   20.64
   1  -4   1  778.95   27.06
   1  -4   2  444.70   17.51
   1  -4   2  461.35   21.27
   1  -4   3    2.80    2.35
   1  -4   3    4.45    3.22
   1  -4   4   12.39    4.75
   1  -4   5    3.58    2.51
   1  -4   6    6.50    3.74
   1  -4   7  233.83   11.60
   1  -4   7  232.00   12.57
   1  -4   8  114.93    8.93
   1  -4   9   21.94    4.16
   1  -4  10   34.19    4.48
   1  -4  10   32.01    4.60
   1  -4  11   61.10    4.16
   1  -4  11   54.45    4.20
   1  -3  -9  117.55    6.21
   1  -3  -8  357.46   14.60
   1  -3  -8  365.64   14.15
   1  -3  -7  846.71   24.57
   1  -3  -6  709.05   21.31
   1  -3  -5  417.61   20.42
   1  -3  -4  838.78   27.65
   1  -3  -3 2442.02   42.48
   1  -3  -2  421.71   15.16
   1  -3  -1 1073.14   21.66
   1  -3   0 3468.41   37.19
   1  -3   0 3474.82   48.04
   1  -3   1 2736.19   37.99
   1  -3   1 2747.91   33.38
   1  -3   2  246.53   11.69
   1  -3   3 2699.46   43.48
   1  -3   4 3341.77   53.55
   1  -3   5 2397.78   49.04
   1  -3   6  385.25   20.68
   1  -3   7 1220.53   39.73
   1  -3   7 1140.01   25.54
   1  -3   7 1169.02   24.71
   1  -3   8 3134.78   48.77
   1  -3   8 3089.28   45.28
   1  -3   9  552.50   20.61
   1  -3  10  210.03   11.52
   1  -3  11  658.50   15.50
   1  -3  11  660.19   15.83
   1  -2 -10  102.17    5.34
   1  -2  -9   12.69    3.03
   1  -2  -8   34.33    5.54
   1  -2  -7   15.25    4.56
   1  -2  -6    5.54    3.14
   1  -2  -5  301.83   18.11
   1  -2  -4  972.59   27.88
   1  -2  -3  105.76    8.08
   1  -2  -2  141.79    7.76
   1  -2  -1 1185.46   18.07
   1  -2   0  324.65    7.80
   1  -2   0  325.24   10.92
   1  -2   1    3.41    1.24
   1  -2   1    5.92    2.01
   1  -2   2   77.83    6.47
   1  -2   3    3.27    2.47
   1  -2   4  217.53   12.40
   1  -2   5  617.10   23.56
   1  -2   6  581.76   24.44
   1  -2   7  114.55   11.63
   1  -2   8  406.91   17.02
   1  -2   9  304.05   15.53
   1  -2  10   92.39    8.09
   1  -2  11   27.13    3.69
   1  -1 -10  489.72   15.63
   1  -1  -9  151.63   10.95
   1  -1  -8  739.21   24.48
   1  -1  -7 1798.71   47.61
   1  -1  -6  951.77   33.23
   1  -1  -1 4654.29   31.37
   1  -1   0 3212.05   17.28
   1  -1   1 3428.50   31.67
   1  -1   2 1098.08   19.03
   1  -1   3 3467.07   41.08
   1  -1   4 4546.26   54.34
   1  -1   5  976.08   27.28
   1  -1   6  220.63   14.17
   1  -1   7 2173.08   48.03
   1  -1   8 1739.41   35.22
   1  -1   9  105.33    9.01
   1  -1  10  289.81   13.89
   1  -1  11  701.52   16.75
   1   0 -11   13.40    2.20
   1   0 -10   64.85    6.72
   1   0   1   94.11    3.75
   1   0   2   12.42    2.10
   1   0   3 1479.95   23.39
   1   0   4  272.28   11.57
   1   0   5  105.64    8.24
   1   0   6  321.34   15.89
   1   0   7  420.20   18.54
   1   0   7  439.55   16.03
   1   0   8   43.85    5.77
   1   0   9   22.20    4.32
   1   0  10    5.24    2.15
   1   0  11    1.71    1.19
   1   1 -11  710.58   17.26
   1   1   1 4937.82   26.46
   1   1   2  289.02    6.87
   1   1   3 4011.67   36.38
   1   1   4 2643.68   34.15
   1   1   5  269.40   12.01
   1   1   7 1951.42   35.84
   1   1   8  750.19   23.28
   1   1   9  122.58    9.14
   1   1  10  425.60   14.34
   1   2 -11   10.64    2.84
   1   2   2  193.10    3.66
   1   2   6  173.13    9.37
   1   2   7   82.18    7.37
   1   2   8  166.49   10.44
   1   2   9   39.88    4.80
   1   2  10   -0.82    1.45
   1   3   6 1144.68   25.52
   1   3   7 1237.38   27.28
   1   3   8  489.36   15.90
   1   3   9   86.60    5.48
   1   4   5   79.46    6.16
   1   4   6   34.41    4.41
   1   4   7    4.51    1.65
   2  -9  -1  297.74    9.61
   2  -9   0   24.95    3.84
   2  -9   1   26.27    4.25
   2  -9   1   17.77    2.26
   2  -9   2   78.37    5.46
   2  -9   2   87.09    7.40
   2  -9   3   55.00    5.11
   2  -9   4   20.10    3.21
   2  -9   5   12.59    2.08
   2  -8  -3  572.82   15.30
   2  -8  -2  971.94   23.94
   2  -8  -1  496.68   18.92
   2  -8   0  526.98   20.50
   2  -8   0  523.36   15.21
   2  -8   1  620.25   23.13
   2  -8   1  657.61   19.37
   2  -8   2  598.13   18.30
   2  -8   2  574.09   22.64
   2  -8   2  554.53   19.23
   2  -8   3  275.46   15.90
   2  -8   3  265.48   13.69
   2  -8   3  262.37   12.56
   2  -8   4  244.31   12.31
   2  -8   4  277.63   13.99
   2  -8   5  311.89   13.68
   2  -8   5  306.93   14.18
   2  -8   6  166.29    9.53
   2  -8   6  168.73    9.49
   2  -8   7   54.57    4.77
   2  -8   8  140.76    5.87
   2  -7  -5   64.97    4.68
   2  -7  -4    9.00    2.86
   2  -7  -3   84.01    7.93
   2  -7  -2  105.46    9.49
   2  -7  -1   49.71    7.03
   2  -7   0   23.57    5.18
   2  -7   0   22.78    4.02
   2  -7   1   27.36    5.11
   2  -7   1   27.88    5.83
   2  -7   1   38.77    5.32
   2  -7   1   28.52    4.29
   2  -7   2  136.48   10.71
   2  -7   2  128.67    9.38
   2  -7   2  143.93   11.59
   2  -7   2  151.76   10.59
   2  -7   3  206.00   12.33
   2  -7   3  224.41   13.22
   2  -7   3  228.25   14.69
   2  -7   3  242.04   13.73
   2  -7   4   10.49    5.55
   2  -7   4    2.38    2.21
   2  -7   5  140.66   10.54
   2  -7   5  149.57   10.40
   2  -7   6  346.59   16.44
   2  -7   6  371.59   15.85
   2  -7   7  114.36    8.87
   2  -7   7  116.27    7.72
   2  -7   8    2.61    2.12
   2  -7   9  193.77    7.94
   2  -6  -6  272.21    9.90
   2  -6  -5   47.89    5.61
   2  -6  -4   48.38    5.37
   2  -6  -4   52.85    7.01
   2  -6  -3  364.87   14.78
   2  -6  -3  351.97   16.70
   2  -6  -2  598.48   19.14
   2  -6  -2  660.22   22.95
   2  -6  -1  207.27   11.32
   2  -6  -1  191.24   10.65
   2  -6  -1  221.26   13.19
   2  -6  -1  208.53    9.90
   2  -6   0  574.01   17.97
   2  -6   0  577.70   19.67
   2  -6   0  608.51   21.86
   2  -6   0  593.22   18.15
   2  -6   1 1261.69   29.12
   2  -6   1 1357.06   32.56
   2  -6   1 1305.43   28.49
   2  -6   2 1644.66   33.59
   2  -6   2 1651.70   47.85
   2  -6   2 1717.76   36.91
   2  -6   2 1705.27   33.87
   2  -6   3  946.71   24.93
   2  -6   3  914.24   23.95
   2  -6   3  994.14   37.86
   2  -6   3  964.26   28.28
   2  -6   3  952.23   25.52
   2  -6   4 1513.11   31.08
   2  -6   4 1451.80   32.66
   2  -6   4 1490.08   36.10
   2  -6   4 1475.08   32.08
   2  -6   5 2004.58   40.33
   2  -6   5 2109.23   38.63
   2  -6   5 2068.97   39.05
   2  -6   6 1130.22   30.98
   2  -6   6 1168.77   27.82
   2  -6   7  890.77   27.69
   2  -6   7  901.44   22.31
   2  -6   8 1120.58   29.29
   2  -6   9  713.67   20.35
   2  -6  10  247.58    8.65
   2  -5  -7   18.38    2.54
   2  -5  -6  270.53   12.25
   2  -5  -6  273.68   12.25
   2  -5  -5  128.45    9.44
   2  -5  -5  140.98    9.71
   2  -5  -4   25.58    4.64
   2  -5  -4   20.68    4.17
   2  -5  -3   22.88    4.03
   2  -5  -3   24.78    4.34
   2  -5  -2  330.36   13.72
   2  -5   1    9.98    3.88
   2  -5   2  106.67   11.47
   2  -5   3   -1.88    2.67
   2  -5   3    3.58    2.97
   2  -5   4  392.64   21.97
   2  -5   4  386.56   23.51
   2  -5   5   66.35    6.59
   2  -5   5   65.87    9.97
   2  -5   5   78.89    6.43
   2  -5   5   67.78    9.21
   2  -5   5   79.84    7.21
   2  -5   6    5.12    2.29
   2  -5   6    8.40    2.02
   2  -5   7   71.82    8.14
   2  -5   7   67.40    7.53
   2  -5   8   29.61    5.23
   2  -5   9   67.46    7.21
   2  -5  10   16.59    3.56
   2  -4  -8  529.12   14.57
   2  -4  -7 1561.37   31.59
   2  -4  -6 1552.08   33.81
   2  -4  -6 1521.52   29.64
   2  -4  -5  671.96   22.02
   2  -4  -5  680.34   19.66
   2  -4  -4 1461.59   30.10
   2  -4  -4 1461.33   27.40
   2  -4   0  977.35   28.62
   2  -4   1 1558.33   37.38
   2  -4   2  579.82   22.95
   2  -4   2  577.51   24.17
   2  -4   3   14.55    4.14
   2  -4   4  573.51   24.99
   2  -4   5  676.20   28.58
   2  -4   6  106.68   11.85
   2  -4   6  105.35    8.39
   2  -4   7  322.74   15.40
   2  -4   8  501.98   17.37
   2  -4   8  567.14   20.61
   2  -4   9  525.29   16.88
   2  -4  10  290.76   10.43
   2  -4  10  263.60   12.70
   2  -4  11  449.55   11.15
   2  -3  -9   49.99    4.49
   2  -3  -8   31.34    4.98
   2  -3  -7   -0.46    2.45
   2  -3  -6  450.31   18.33
   2  -3  -5    1.62    2.45
   2  -3   0  106.04    7.95
   2  -3   1  331.67   14.89
   2  -3   2  401.56   17.38
   2  -3   3   49.47    6.57
   2  -3   4   18.78    4.20
   2  -3   5  677.86   27.09
   2  -3   6    4.17    2.28
   2  -3   7    3.55    1.96
   2  -3   7    4.07    3.06
   2  -3   7    2.59    2.37
   2  -3   8    6.10    2.68
   2  -3   8    3.36    2.11
   2  -3   9  136.61    9.59
   2  -3  10   -1.41    1.65
   2  -3  11   45.70    3.56
   2  -3  11   44.97    4.00
   2  -2 -10   95.52    5.44
   2  -2  -9   13.35    3.38
   2  -2  -8  193.63   12.79
   2  -2  -7  683.43   23.65
   2  -2  -6  189.83   12.09
   2  -2  -5   79.05    8.31
   2  -2  -4 1795.62   34.79
   2  -2  -3 3001.08   39.01
   2  -2  -2 1538.40   21.54
   2  -2  -1 1143.27   11.91
   2  -2   0 7972.81   60.71
   2  -2   1 8982.54   79.53
   2  -2   2 3135.09   44.37
   2  -2   3 2964.20   45.88
   2  -2   4 6283.57   73.83
   2  -2   5 3323.31   56.56
   2  -2   6 1256.85   36.33
   2  -2   7 1251.43   26.77
   2  -2   7 1245.26   24.28
   2  -2   8 1338.68   30.94
   2  -2   8 1392.32   26.36
   2  -2   9  562.24   20.33
   2  -2  10   50.96    5.58
   2  -2  11  273.88    9.28
   2  -1 -10  130.99    8.22
   2  -1  -9   21.42    4.65
   2  -1  -8  124.39   10.38
   2  -1  -7   31.76    5.35
   2  -1  -6  132.99   11.56
   2  -1   1 1562.42   26.09
   2  -1   2    4.53    1.72
   2  -1   3   45.05    5.17
   2  -1   4   74.46    6.96
   2  -1   5  286.69   14.93
   2  -1   6   35.85    5.77
   2  -1   7    8.25    3.21
   2  -1   7    3.96    1.63
   2  -1   8   17.19    3.85
   2  -1   9  147.98   10.38
   2  -1  10   24.22    4.02
   2  -1  11   11.02    2.24
   2   0 -11  940.55   16.61
   2   0 -10  616.28   19.63
   2   0  -9  910.98   27.60
   2   0   1  237.53    8.57
   2   0   2  101.38    5.84
   2   0   3  622.51   16.24
   2   0   4 2170.75   34.50
   2   0   5  836.46   23.01
   2   0   6  288.39   14.64
   2   0   7 1486.98   31.60
   2   0   8 2056.84   40.28
   2   0   9  629.71   21.58
   2   0  10  503.53   16.82
   2   0  11 1205.51   17.85
   2   1 -11  154.13    7.53
   2   1 -10  341.77   15.38
   2   1   2  455.82   10.39
   2   1   3    3.26    1.46
   2   1   4    5.62    1.84
   2   1   7    5.77    2.65
   2   1   8  116.05    9.33
   2   1   9   56.87    6.36
   2   1  10   23.53    3.73
   2   2 -11  247.12    9.68
   2   2   6  269.99   13.09
   2   2   7 1141.51   28.77
   2   2   8  354.85   15.95
   2   2   9    8.37    2.25
   2   2  10  103.70    5.28
   2   3 -11   27.87    3.10
   2   3   6   84.55    7.36
   2   3   7    7.03    2.57
   2   3   8    2.82    1.95
   2   3   9   28.03    3.44
   2   4 -11  522.57   10.03
   2   4   5  221.09   11.83
   2   4   6 1040.20   25.61
   2   4   7 1554.36   29.26
   2   4   8  393.22   11.49
   2   5   5  116.68    8.14
   2   5   6   20.94    3.28
   2   5   7  174.12    6.64
   3  -9   1  172.06    5.48
   3  -9   2  175.71    7.17
   3  -9   3   82.16    5.28
   3  -9   4   69.50    4.82
   3  -9   5  190.35    6.78
   3  -8  -3   -1.00    0.99
   3  -8  -2   61.92    4.99
   3  -8  -1   56.76    5.56
   3  -8   0   28.00    4.26
   3  -8   0   33.34    3.78
   3  -8   1  175.75   11.19
   3  -8   1  158.88    9.38
   3  -8   2   49.64    7.14
   3  -8   2   40.93    5.07
   3  -8   3    0.67    1.97
   3  -8   4  139.38    9.31
   3  -8   5   25.97    4.00
   3  -8   6   88.65    4.91
   3  -8   6   86.85    6.02
   3  -7  -4  331.49   10.15
   3  -7  -3  623.22   17.85
   3  -7  -2  612.47   20.05
   3  -7  -1  483.68   19.15
   3  -7  -1  486.28   16.09
   3  -7   0  771.44   25.02
   3  -7   0  743.96   21.90
   3  -7   1 1145.97   31.82
   3  -7   1 1180.49   29.67
   3  -7   2  862.21   27.84
   3  -7   2  847.36   25.98
   3  -7   3  581.59   22.97
   3  -7   3  554.74   21.14
   3  -7   4  697.24   23.34
   3  -7   5  974.34   26.32
   3  -7   6  509.43   16.89
   3  -7   6  488.35   16.55
   3  -7   7  220.40   10.21
   3  -7   7  211.90    8.73
   3  -7   8  308.96   10.18
   3  -6  -6   34.36    2.81
   3  -6  -5  104.87    7.09
   3  -6  -4    3.94    2.44
   3  -6  -4    2.09    2.05
   3  -6  -3   12.31    3.36
   3  -6  -3   16.31    3.57
   3  -6  -2  469.76   18.53
   3  -6  -2  515.32   19.33
   3  -6  -1  531.66   19.60
   3  -6  -1  587.61   20.87
   3  -6  -1  560.14   18.51
   3  -6   0   28.03    4.79
   3  -6   0   32.55    5.41
   3  -6   0   29.53    4.74
   3  -6   1  209.64   12.77
   3  -6   1  248.10   13.34
   3  -6   2 1304.92   32.64
   3  -6   2 1314.30   31.03
   3  -6   3  124.12   10.57
   3  -6   3   93.94    8.38
   3  -6   4   34.02    4.69
   3  -6   4   25.16    4.84
   3  -6   5  108.29    8.66
   3  -6   5   99.86    8.44
   3  -6   5  115.03    9.00
   3  -6   6  248.17   13.23
   3  -6   6  220.39   11.50
   3  -6   6  229.44   13.24
   3  -6   7    8.38    3.48
   3  -6   8   65.78    6.29
   3  -6   9    4.07    1.66
   3  -5  -7  282.00    9.92
   3  -5  -6  372.99   14.78
   3  -5  -5  332.27   15.70
   3  -5  -4  583.89   21.08
   3  -5  -3  737.47   23.39
   3  -5  -3  743.41   20.41
   3  -5  -2  491.50   18.58
   3  -5  -2  488.82   16.32
   3  -5  -2  481.79   15.07
   3  -5  -1  562.55   18.86
   3  -5  -1  554.21   17.04
   3  -5  -1  553.61   16.95
   3  -5   1 1183.61   34.35
   3  -5   2  528.77   24.39
   3  -5   3  514.28   18.71
   3  -5   3  509.84   25.43
   3  -5   3  522.27   17.32
   3  -5   4 1288.04   29.17
   3  -5   4 1219.82   41.36
   3  -5   4 1247.78   26.99
   3  -5   4 1237.58   26.48
   3  -5   5 1164.32   27.27
   3  -5   5 1117.82   39.60
   3  -5   5 1128.73   25.06
   3  -5   5 1120.73   27.96
   3  -5   6  510.66   19.78
   3  -5   6  499.74   19.60
   3  -5   7  474.36   19.42
   3  -5   7  431.70   18.93
   3  -5   8  955.50   26.53
   3  -5   8 1017.56   27.57
   3  -5   9  852.44   22.25
   3  -5  10  271.45    9.35
   3  -4  -8    9.84    2.41
   3  -4  -7   30.21    4.66
   3  -4  -6  122.00   10.12
   3  -4  -5   58.23    7.24
   3  -4  -4  398.27   17.26
   3  -4  -3  124.48    9.02
   3  -4   0 1163.89   29.20
   3  -4   1   21.48    4.57
   3  -4   2   39.68    6.49
   3  -4   3  304.90   19.09
   3  -4   4   35.64    7.13
   3  -4   5   51.10    5.81
   3  -4   5   57.84    5.91
   3  -4   5   58.93    9.05
   3  -4   6  550.28   19.85
   3  -4   7    2.32    1.73
   3  -4   8   74.98    7.67
   3  -4   9  556.24   17.84
   3  -4  10  181.77    9.18
   3  -3  -9  390.77   11.85
   3  -3  -8  410.21   16.30
   3  -3  -7  604.66   22.16
   3  -3  -6  713.09   24.30
   3  -3  -5  750.80   23.61
   3  -3   0 2012.88   33.61
   3  -3   1 1523.64   31.81
   3  -3   3 1343.17   37.40
   3  -3   4 2151.37   49.23
   3  -3   5 1143.54   37.02
   3  -3   6  456.28   16.61
   3  -3   6  404.49   22.74
   3  -3   7  783.57   23.26
   3  -3   8 1234.79   26.68
   3  -3   8 1243.59   29.37
   3  -3   9  412.42   14.83
   3  -3   9  417.00   14.93
   3  -3  10  146.07    7.03
   3  -3  11  357.50    8.91
   3  -2 -10   53.90    3.73
   3  -2  -9    6.74    2.75
   3  -2  -8   95.34    8.98
   3  -2  -7   87.09    8.89
   3  -2  -6  528.78   20.00
   3  -2   0  120.66    6.45
   3  -2   2  724.06   24.27
   3  -2   3  197.39   13.05
   3  -2   4   77.36    8.80
   3  -2   5   39.78    6.62
   3  -2   6   -1.90    2.68
   3  -2   7  982.12   24.14
   3  -2   7  891.59   22.83
   3  -2   8   32.30    4.51
   3  -2   8   33.66    5.29
   3  -2   9    2.74    1.82
   3  -2  10  110.23    6.88
   3  -1 -10  360.10   12.30
   3  -1  -9  226.34   12.70
   3  -1  -8  531.97   21.12
   3  -1  -7 1038.52   29.26
   3  -1  -6 1289.05   29.92
   3  -1   2 1545.77   31.67
   3  -1   3 1918.71   36.89
   3  -1   4 2057.10   40.39
   3  -1   5  655.40   23.52
   3  -1   6  386.78   18.89
   3  -1   7 1200.64   23.72
   3  -1   7 1116.14   27.31
   3  -1   8  839.49   24.50
   3  -1   9  236.66   12.80
   3  -1  10  237.25   10.51
   3   0 -11   98.41    4.36
   3   0 -10  114.57    7.85
   3   0  -9    1.66    2.44
   3   0  -8  192.15   12.64
   3   0  -7   90.77    8.30
   3   0   2  346.92   13.21
   3   0   3  569.40   17.52
   3   0   4  520.78   17.93
   3   0   5 1254.05   29.14
   3   0   6  153.62    9.19
   3   0   7    6.01    2.57
   3   0   8  545.81   20.15
   3   0   9  227.22   12.28
   3   0  10   23.17    3.50
   3   1 -11  582.75   11.90
   3   1 -10  345.59   13.61
   3   1  -9  258.01   13.85
   3   1   6 1127.17   27.00
   3   1   7 1484.14   33.23
   3   1   8  772.42   24.16
   3   1   9  287.91   13.15
   3   1  10  342.68   10.78
   3   2 -11   60.94    3.84
   3   2 -10  102.08    7.13
   3   2   6  312.34   14.85
   3   2   7  192.57   12.08
   3   2   8   25.55    4.52
   3   2   9   -0.48    1.64
   3   2  10   30.59    2.40
   3   3 -10  352.16   11.87
   3   3   6  280.72   14.47
   3   3   7  471.96   18.18
   3   3   8  243.72   11.42
   3   3   9  116.32    5.64
   3   4 -10    7.27    1.69
   3   4   6    1.32    2.09
   3   4   7   33.16    4.47
   3   4   8  242.33    8.50
   3   5   5  538.22   18.32
   3   5   6  642.66   17.44
   3   5   7  607.68   12.78
   3   6   4   43.94    4.55
   3   6   5   33.37    3.57
   3   7   3  184.45    7.65
   4  -9   3   88.39    4.12
   4  -8  -1  200.21    7.26
   4  -8   0  142.06    7.66
   4  -8   0  124.00    6.65
   4  -8   1  121.78    7.57
   4  -8   2  215.57   10.68
   4  -8   3  385.32   14.54
   4  -8   4  493.62   15.43
   4  -8   5  410.81   12.48
   4  -8   6  454.34    9.64
   4  -7  -2  237.07    9.75
   4  -7  -1  162.34    9.27
   4  -7  -1  151.09    8.86
   4  -7   0   19.16    3.78
   4  -7   0   11.10    2.77
   4  -7   1   11.31    3.40
   4  -7   1    9.20    3.11
   4  -7   2  127.48   10.09
   4  -7   2  111.58    9.29
   4  -7   3   64.11    7.08
   4  -7   4  105.84    8.61
   4  -7   5    4.40    2.54
   4  -7   6   91.13    6.15
   4  -6  -6  448.92    9.01
   4  -6  -5  835.83   18.90
   4  -6  -4  837.54   22.58
   4  -6  -3  821.16   24.71
   4  -6  -2 1109.40   29.83
   4  -6  -2 1126.18   25.77
   4  -6  -1 1249.85   32.00
   4  -6  -1 1279.63   28.13
   4  -6  -1 1254.68   29.68
   4  -6   0  686.26   23.15
   4  -6   0  651.09   21.12
   4  -6   0  646.24   22.24
   4  -6   1  632.28   21.41
   4  -6   1  639.76   22.57
   4  -6   2  529.21   18.15
   4  -6   2  534.61   20.16
   4  -6   2  531.29   20.78
   4  -6   3  484.87   18.34
   4  -6   3  486.28   19.46
   4  -6   4  210.68   12.47
   4  -6   4  213.39   11.35
   4  -6   5   84.65    7.40
   4  -6   5   79.52    7.34
   4  -6   6  143.52    8.19
   4  -6   6  166.13   10.65
   4  -6   7  160.51    8.26
   4  -6   7  141.18    9.66
   4  -6   8  113.74    5.88
   4  -5  -7   24.66    2.84
   4  -5  -6  202.73   10.38
   4  -5  -5  119.34    9.27
   4  -5  -4   26.30    5.20
   4  -5  -3   12.17    3.83
   4  -5  -2  423.64   18.45
   4  -5  -2  397.68   16.00
   4  -5  -1   37.82    5.51
   4  -5  -1   38.20    5.48
   4  -5   0   47.23    6.14
   4  -5   0   42.37    4.60
   4  -5   0   50.66    6.38
   4  -5   1   67.31    6.74
   4  -5   1   78.30    6.31
   4  -5   1   65.78    6.00
   4  -5   1   66.17    7.05
   4  -5   2  371.23   14.93
   4  -5   2  402.61   15.80
   4  -5   2  382.43   16.22
   4  -5   3   26.89    3.72
   4  -5   3   33.17    4.83
   4  -5   3   29.59    4.73
   4  -5   4  161.01   10.90
   4  -5   4  155.32   10.11
   4  -5   4  163.03   10.14
   4  -5   5  314.93   15.82
   4  -5   5  308.89   13.29
   4  -5   5  308.19   14.81
   4  -5   6  216.31   11.19
   4  -5   6  208.30   13.23
   4  -5   7   11.54    3.22
   4  -5   7   14.77    3.38
   4  -5   8    6.25    2.74
   4  -5   8    5.01    1.83
   4  -5   9  183.91    7.79
   4  -4  -8  164.63    7.00
   4  -4  -7  112.17    8.06
   4  -4  -6  136.06   10.47
   4  -4  -5  191.35   13.00
   4  -4  -4  131.44   10.57
   4  -4  -3  406.58   17.47
   4  -4  -2  661.01   21.57
   4  -4   3 2348.13   50.01
   4  -4   4 1573.38   30.57
   4  -4   4 1524.72   27.03
   4  -4   5 1933.57   36.78
   4  -4   5 1963.07   37.82
   4  -4   6 1964.04   39.81
   4  -4   7 1230.27   31.44
   4  -4   8  878.49   25.26
   4  -4   9  590.72   16.61
   4  -4   9  530.98   16.06
   4  -4  10  484.81   10.60
   4  -3  -9   38.95    3.14
   4  -3  -8   44.59    5.13
   4  -3  -7   26.46    5.03
   4  -3  -6  276.34   15.52
   4  -3  -5   14.35    4.41
   4  -3  -4  103.49    8.59
   4  -3   4   26.51    6.70
   4  -3   5  708.14   21.41
   4  -3   5  741.99   31.19
   4  -3   5  756.77   20.94
   4  -3   6   11.98    3.40
   4  -3   6    9.43    3.00
   4  -3   7   46.77    5.90
   4  -3   8   -2.38    1.93
   4  -3   9  210.16    9.83
   4  -3  10    1.88    1.14
   4  -2  -9  690.70   17.42
   4  -2  -8  991.65   26.28
   4  -2  -7 1001.01   28.82
   4  -2  -6 1284.92   32.33
   4  -2  -5 1265.98   30.38
   4  -2   4  199.28   14.89
   4  -2   5  417.83   21.75
   4  -2   6  308.98   14.29
   4  -2   6  275.58   16.93
   4  -2   7  245.84   12.68
   4  -2   8  463.12   15.85
   4  -2   8  445.02   15.91
   4  -2   9  441.20   13.65
   4  -2   9  382.42   12.07
   4  -2  10  502.34    9.59
   4  -1 -10  356.36    9.61
   4  -1  -9   48.98    5.46
   4  -1  -8    1.35    2.60
   4  -1  -7  180.64   11.86
   4  -1  -6  686.82   22.08
   4  -1  -5   -0.30    2.48
   4  -1   4    2.85    2.65
   4  -1   5  208.58   13.93
   4  -1   6   67.89    6.24
   4  -1   6   71.09    5.98
   4  -1   7   60.20    5.92
   4  -1   7   65.65    6.42
   4  -1   8   27.17    3.69
   4  -1   8   23.55    3.93
   4  -1   9  292.19   11.87
   4  -1  10   33.81    3.03
   4   0 -10  172.10    7.61
   4   0  -9  214.88   11.18
   4   0  -8  215.73   12.67
   4   0  -7  302.28   14.74
   4   0  -6  366.37   15.01
   4   0   6  991.18   22.25
   4   0   6 1008.97   24.87
   4   0   7  791.39   23.07
   4   0   8  593.37   19.53
   4   0   9  250.85   11.06
   4   0  10  168.31    6.44
   4   1 -10   60.18    4.61
   4   1  -9  202.64   10.59
   4   1  -8  116.37    8.71
   4   1  -7   19.30    3.81
   4   1  -6  106.49    7.23
   4   1   6   58.67    6.40
   4   1   7   16.92    4.03
   4   1   8   98.84    8.08
   4   1   9   19.33    3.08
   4   1  10  194.28    5.75
   4   2 -10  657.79   14.02
   4   2  -9  629.48   17.39
   4   2  -8  853.40   22.16
   4   2  -7  823.94   20.68
   4   2   6  495.40   19.25
   4   2   7  714.27   22.71
   4   2   8  638.79   19.17
   4   2   9  397.82   11.43
   4   3   6   72.13    7.21
   4   3   7   89.47    7.58
   4   3   8  241.06   10.09
   4   4   6  380.71   15.57
   4   4   7  342.62   12.44
   4   4   8  149.65    5.38
   4   5   5    1.90    1.44
   4   5   6  132.40    7.35
   4   5   7    9.74    1.43
   4   6   4  290.50   11.81
   4   6   5  286.37    9.28
   4   7   3  114.91    5.91
   5  -8   0   35.67    2.74
   5  -8   1   31.37    3.24
   5  -8   2  338.43   11.18
   5  -8   3  288.64   10.08
   5  -8   4   56.75    4.03
   5  -7  -1  204.72    9.20
   5  -7   0  506.87   16.76
   5  -7   1  159.79   10.12
   5  -7   2  238.63   12.55
   5  -7   3  413.93   15.97
   5  -7   4  263.41   11.81
   5  -7   5  270.87   10.09
   5  -6  -5  217.71    7.88
   5  -6  -4    0.99    1.63
   5  -6  -3    5.42    2.66
   5  -6  -2   44.19    5.72
   5  -6  -2   44.87    5.02
   5  -6  -1   13.49    3.65
   5  -6  -1   11.09    3.14
   5  -6   0  198.75   12.42
   5  -6   1  128.08    8.28
   5  -6   1  112.93    9.73
   5  -6   2   14.42    3.41
   5  -6   2   14.12    3.84
   5  -6   3   70.98    7.07
   5  -6   3   70.85    7.31
   5  -6   4  158.34   10.04
   5  -6   4  163.09    8.80
   5  -6   5   10.14    2.63
   5  -6   5    5.86    1.82
   5  -6   6   48.35    5.13
   5  -5  -6  291.69   10.58
   5  -5  -5  535.70   18.00
   5  -5  -4  831.81   24.76
   5  -5  -3  270.03   14.74
   5  -5  -3  251.19   12.10
   5  -5  -2  352.06   17.31
   5  -5  -2  335.44   15.31
   5  -5  -1  843.49   26.38
   5  -5  -1  791.05   24.94
   5  -5   0  857.88   26.02
   5  -5   0  788.87   20.51
   5  -5   0  804.49   25.46
   5  -5   1  228.86   12.44
   5  -5   1  240.85   13.87
   5  -5   2  663.96   21.75
   5  -5   2  658.80   22.61
   5  -5   3  603.42   21.69
   5  -5   3  586.69   20.76
   5  -5   3  602.29   17.47
   5  -5   4  523.51   20.93
   5  -5   4  552.44   18.76
   5  -5   4  557.55   18.94
   5  -5   5  450.64   19.06
   5  -5   5  481.83   15.41
   5  -5   5  451.95   17.72
   5  -5   6  378.55   16.73
   5  -5   7  560.19   19.04
   5  -5   8  277.64   11.37
   5  -4  -7    7.91    2.23
   5  -4  -6  108.01    8.38
   5  -4  -5  149.95   10.92
   5  -4  -4   11.51    3.48
   5  -4  -4   11.74    3.05
   5  -4  -3   96.23    8.89
   5  -4  -2  916.97   26.41
   5  -4  -1  405.39   17.11
   5  -4   0   23.04    3.47
   5  -4   0   37.29    5.17
   5  -4   1  532.51   18.60
   5  -4   1  539.43   18.66
   5  -4   1  534.13   19.55
   5  -4   2  899.41   24.93
   5  -4   3   75.94    6.56
   5  -4   3   79.71    7.64
   5  -4   3   74.51    6.90
   5  -4   4   19.40    3.86
   5  -4   4   16.00    4.64
   5  -4   4   17.72    3.18
   5  -4   5   99.84    8.68
   5  -4   5   96.04    8.86
   5  -4   6  143.88   10.63
   5  -4   6  141.66   10.26
   5  -4   7   77.16    7.57
   5  -4   8   68.22    6.45
   5  -4   9   10.27    1.85
   5  -3  -8  182.46    7.95
   5  -3  -7  146.36    9.22
   5  -3  -6  360.46   16.32
   5  -3  -5  931.06   27.28
   5  -3  -4  964.90   27.23
   5  -3  -3  292.51   14.40
   5  -3  -2 1536.13   31.11
   5  -3   3 1236.78   26.56
   5  -3   3 1256.09   29.26
   5  -3   4  936.22   25.15
   5  -3   4  935.90   25.46
   5  -3   5  450.31   18.33
   5  -3   5  439.12   17.29
   5  -3   6  618.55   21.89
   5  -3   6  578.70   19.32
   5  -3   7  602.64   20.91
   5  -3   8  234.00   11.55
   5  -3   9  363.26    9.57
   5  -3   9  371.83   10.89
   5  -2  -9   76.59    4.21
   5  -2  -8   20.48    3.46
   5  -2  -7   41.30    5.28
   5  -2  -6  186.97   11.99
   5  -2  -5    8.60    2.97
   5  -2  -4  503.00   18.21
   5  -2  -3    2.99    1.84
   5  -2   4   32.42    4.98
   5  -2   5  311.89   14.92
   5  -2   5  300.27   12.88
   5  -2   6  237.27   13.19
   5  -2   7    9.32    2.75
   5  -2   8  172.18    9.33
   5  -2   9  351.08    9.29
   5  -1  -9  594.97   13.85
   5  -1  -8  332.73   13.39
   5  -1  -7  265.97   13.27
   5  -1  -6  589.79   19.78
   5  -1  -5  806.96   22.41
   5  -1  -4  195.44    9.73
   5  -1   4  761.96   21.84
   5  -1   5  777.17   22.89
   5  -1   6 1173.42   28.38
   5  -1   7  808.54   21.94
   5  -1   7  894.28   20.35
   5  -1   8  502.34   14.57
   5  -1   8  528.41   14.37
   5  -1   9  651.30   11.74
   5   0  -9    3.65    1.62
   5   0  -8   17.92    3.08
   5   0  -7  263.67   12.43
   5   0  -6  358.53   14.35
   5   0  -5    2.25    1.45
   5   0   4    4.91    2.44
   5   0   5  161.05   10.14
   5   0   5  160.82    8.89
   5   0   6   90.59    7.47
   5   0   6   91.33    7.24
   5   0   7  347.29   12.92
   5   0   7  356.10   14.18
   5   0   8    1.35    1.48
   5   0   9    2.21    1.27
   5   1  -9  478.89   12.25
   5   1  -8  346.36   12.62
   5   1  -7  638.28   17.99
   5   1   4  318.53   13.64
   5   1   5  456.49   16.37
   5   1   5  463.73   17.12
   5   1   6  325.17   12.53
   5   1   6  324.87   14.49
   5   1   7  172.58   10.17
   5   1   8  153.21    8.20
   5   1   9  206.06    6.79
   5   2   4  622.58   18.51
   5   2   6    6.12    2.71
   5   2   7   12.85    2.79
   5   2   8  296.35   10.51
   5   3   6  932.66   24.71
   5   3   7  697.44   18.00
   5   3   8  448.03   10.13
   5   4   5    6.22    2.77
   5   4   6  134.70    8.11
   5   4   7    4.67    1.33
   5   5   5   81.43    6.08
   5   5   6  135.40    5.76
   5   6   4  166.44    7.62
   5   7   3  513.43    9.22
   6  -7  -1   99.98    4.98
   6  -7   0    3.11    1.77
   6  -7   1    7.69    1.93
   6  -7   2  162.48    8.41
   6  -7   3   60.99    5.02
   6  -7   4    1.85    1.34
   6  -6  -2   31.02    3.62
   6  -6  -1  443.43   15.75
   6  -6   0  122.23    8.98
   6  -6   1  113.61    7.08
   6  -6   1  118.35    9.08
   6  -6   2  239.42   11.23
   6  -6   2  262.34   13.06
   6  -6   3  967.72   23.75
   6  -6   3  979.06   23.86
   6  -6   4  621.38   16.63
   6  -6   5  256.28    8.09
   6  -6   5  260.34    8.84
   6  -5  -5   31.96    3.49
   6  -5  -4    4.45    2.08
   6  -5  -3   -1.43    2.17
   6  -5  -3   -0.64    1.20
   6  -5  -2   85.03    7.79
   6  -5  -2   81.50    7.30
   6  -5  -1    7.07    2.44
   6  -5  -1    6.68    2.99
   6  -5   0   30.04    4.41
   6  -5   0   34.03    5.43
   6  -5   1   24.29    4.17
   6  -5   1   22.98    4.73
   6  -5   2  152.90   10.61
   6  -5   2  162.40   11.14
   6  -5   3    5.20    2.91
   6  -5   3    3.05    2.04
   6  -5   4   20.03    3.48
   6  -5   4   19.41    4.41
   6  -5   4   10.71    2.34
   6  -5   5   93.43    8.12
   6  -5   5   85.68    6.87
   6  -5   6  169.24    9.27
   6  -5   7    2.31    1.54
   6  -4  -6  414.96   12.40
   6  -4  -5 1329.44   27.15
   6  -4  -4  722.33   21.83
   6  -4  -4  726.58   19.34
   6  -4  -3  657.24   21.65
   6  -4  -2  972.61   26.58
   6  -4  -1 1501.57   32.53
   6  -4  -1 1471.79   30.48
   6  -4   0  524.68   18.45
   6  -4   0  483.62   18.60
   6  -4   1  317.21   15.87
   6  -4   2  506.31   19.16
   6  -4   3  783.01   21.95
   6  -4   3  795.13   25.72
   6  -4   3  828.95   22.85
   6  -4   4   26.41    4.51
   6  -4   4   25.59    4.89
   6  -4   5   29.65    4.64
   6  -4   5   29.29    4.63
   6  -4   6  390.95   15.79
   6  -4   7  125.16    8.21
   6  -4   8   38.00    3.63
   6  -3  -7   37.61    3.66
   6  -3  -6  236.80   11.05
   6  -3  -5  160.46    9.92
   6  -3  -4   24.07    4.17
   6  -3  -3  177.18   10.86
   6  -3  -2  310.53   14.04
   6  -3  -2  322.29   13.92
   6  -3  -1   14.97    2.81
   6  -3  -1   12.68    3.05
   6  -3   0    6.79    3.26
   6  -3   0    0.07    1.62
   6  -3   1  129.55    9.90
   6  -3   2   89.71    7.18
   6  -3   2   82.83    7.98
   6  -3   3   94.41    7.95
   6  -3   3  113.51    7.77
   6  -3   4   41.50    5.96
   6  -3   4   33.83    5.34
   6  -3   5   98.14    8.81
   6  -3   5  100.16    9.40
   6  -3   6    0.16    1.79
   6  -3   6    3.19    1.86
   6  -3   7  119.88    8.37
   6  -3   8    3.29    1.71
   6  -2  -8  213.38    6.76
   6  -2  -7   18.16    3.28
   6  -2  -6  236.70   11.50
   6  -2  -5  473.36   17.02
   6  -2  -4  168.18   10.31
   6  -2  -3  307.74   13.11
   6  -2  -3  328.79   14.26
   6  -2  -2  540.80   16.05
   6  -2  -2  522.30   18.64
   6  -2  -1 1473.21   31.98
   6  -2   0  485.43   18.46
   6  -2   1 1007.31   22.82
   6  -2   1 1025.50   26.75
   6  -2   2 2216.65   38.10
   6  -2   2 2213.02   40.25
   6  -2   3 1809.45   35.80
   6  -2   3 1765.62   35.79
   6  -2   4  713.87   23.21
   6  -2   5 1437.77   33.56
   6  -2   5 1425.36   29.73
   6  -2   6 1632.66   34.71
   6  -2   7  779.55   21.19
   6  -2   8  444.50   12.60
   6  -1  -8   64.11    4.20
   6  -1  -7   17.90    2.91
   6  -1  -6   10.60    2.75
   6  -1  -5   34.32    4.42
   6  -1  -5   30.19    4.26
   6  -1  -4   90.54    7.86
   6  -1  -3   26.19    4.76
   6  -1  -2   88.10    7.88
   6  -1  -1    6.59    2.91
   6  -1   0   32.70    4.83
   6  -1   1  526.71   17.31
   6  -1   1  554.36   18.70
   6  -1   2  204.24   11.56
   6  -1   2  195.00   11.12
   6  -1   3    7.22    2.94
   6  -1   3    4.08    2.15
   6  -1   4  283.02   14.51
   6  -1   5  439.14   18.21
   6  -1   6   29.82    4.54
   6  -1   7    5.19    1.47
   6  -1   8   86.54    4.80
   6   0  -8  390.61    9.56
   6   0  -7  367.01   11.57
   6   0   0  107.48    8.22
   6   0   1  759.04   20.79
   6   0   2  691.10   19.04
   6   0   3  263.35   13.75
   6   0   3  252.68   10.95
   6   0   4  120.22    9.42
   6   0   5  368.04   15.90
   6   0   6  471.97   16.64
   6   0   7  214.19    9.29
   6   1   1    3.18    2.11
   6   1   3  215.44   12.43
   6   1   4    0.65    2.10
   6   1   5    4.10    1.63
   6   1   5    5.41    1.91
   6   1   6   63.37    5.35
   6   1   6   70.52    5.84
   6   1   7   17.31    2.63
   6   1   8  129.27    4.49
   6   2   4  568.85   18.90
   6   2   5  957.50   21.86
   6   2   5  937.82   23.53
   6   2   6  780.18   19.24
   6   2   7  192.21    7.74
   6   3   4  281.70   11.61
   6   3   5   90.00    7.09
   6   3   6   14.63    2.73
   6   3   7   -0.78    0.93
   6   4   3  275.31   11.05
   6   4   5  594.11   16.10
   6   4   6  262.92    8.08
   6   5   4   80.69    5.73
   6   5   5    7.57    1.29
   6   6   3  220.61    7.96
   7  -6  -2   69.54    3.46
   7  -6  -1  122.38    6.19
   7  -6   0  105.25    6.42
   7  -6   1  147.15    7.92
   7  -6   2  224.01    9.29
   7  -6   3  303.58    9.52
   7  -5  -3   65.66    4.42
   7  -5  -2  178.50    8.98
   7  -5  -1  805.24   21.41
   7  -5   0  744.50   17.84
   7  -5   0  771.90   21.91
   7  -5   1  110.94    7.59
   7  -5   1  116.72    8.43
   7  -5   2  674.52   19.68
   7  -5   2  670.24   19.41
   7  -5   3  888.38   22.81
   7  -5   3  902.31   19.68
   7  -5   4  445.66   15.40
   7  -5   4  441.77   11.02
   7  -5   5  243.28    8.30
   7  -5   6  406.22    9.45
   7  -4  -5   52.64    3.53
   7  -4  -4    1.79    1.47
   7  -4  -4   -0.16    0.94
   7  -4  -3    2.18    1.79
   7  -4  -3    0.28    1.39
   7  -4  -2   14.37    3.13
   7  -4  -1   -1.29    2.06
   7  -4   0   79.78    7.96
   7  -4   1   57.54    6.48
   7  -4   2    0.74    1.70
   7  -4   2    0.64    1.54
   7  -4   3   15.08    3.01
   7  -4   3   16.12    3.94
   7  -4   3   12.97    2.83
   7  -4   4   77.44    6.13
   7  -4   4   79.16    7.40
   7  -4   5    2.57    1.25
   7  -4   5    6.92    2.39
   7  -4   6    3.95    1.77
   7  -4   7    6.26    1.39
   7  -3  -6  280.62    7.08
   7  -3  -5  808.20   16.46
   7  -3  -5  813.77   16.29
   7  -3  -4  479.99   14.21
   7  -3  -3   13.61    2.62
   7  -3  -3   11.61    2.47
   7  -3  -2  443.34   14.60
   7  -3  -2  455.71   16.29
   7  -3  -1  771.56   23.13
   7  -3   0  155.04   11.03
   7  -3   1   23.79    4.54
   7  -3   2  575.54   17.74
   7  -3   2  576.54   21.59
   7  -3   2  552.74   18.23
   7  -3   3  509.06   17.50
   7  -3   3  565.03   20.62
   7  -3   4  202.30   11.28
   7  -3   4  208.70   11.80
   7  -3   5  128.23    8.90
   7  -3   5  119.96    8.07
   7  -3   6  677.01   18.41
   7  -3   7  671.53   15.11
   7  -2  -6  122.79    5.34
   7  -2  -5   19.13    2.76
   7  -2  -4   22.13    3.28
   7  -2  -3  120.52    8.53
   7  -2  -2  446.57   17.94
   7  -2  -1  143.00   10.31
   7  -2   0   32.48    5.11
   7  -2   1  341.60   14.11
   7  -2   1  363.38   17.09
   7  -2   2  352.91   14.98
   7  -2   2  359.03   16.76
   7  -2   3   57.43    6.40
   7  -2   4    4.15    2.26
   7  -2   4    4.16    1.96
   7  -2   5  118.14    8.99
   7  -2   5  111.99    7.29
   7  -2   6   14.11    3.27
   7  -2   7    6.71    1.76
   7  -1  -5 1230.51   24.26
   7  -1  -4  443.31   16.50
   7  -1  -3  374.02   16.46
   7  -1  -2 2445.32   44.00
   7  -1  -1 1631.82   35.84
   7  -1   0  810.41   22.07
   7  -1   0  812.21   25.23
   7  -1   1  719.33   21.80
   7  -1   1  711.52   23.41
   7  -1   2 1865.19   37.15
   7  -1   2 1891.35   37.14
   7  -1   3 1088.78   28.87
   7  -1   3 1068.86   26.33
   7  -1   4  192.50   11.90
   7  -1   4  190.51   10.10
   7  -1   5  313.37   14.40
   7  -1   6  790.51   20.35
   7  -1   7  131.07    6.28
   7   0  -6   52.70    4.66
   7   0  -5   18.06    3.59
   7   0  -4    5.27    2.96
   7   0  -3   30.34    5.41
   7   0  -2   32.02    5.51
   7   0  -1  158.80   11.42
   7   0   0   29.10    4.95
   7   0   1  109.05    9.08
   7   0   1  104.15    8.57
   7   0   2    6.87    2.23
   7   0   2    4.70    2.28
   7   0   3   30.89    5.20
   7   0   3   38.03    4.53
   7   0   4    1.94    1.52
   7   0   5  210.50   11.36
   7   0   6   32.00    3.78
   7   0   7    6.60    1.10
   7   1  -7   81.63    4.70
   7   1  -1  151.30   10.75
   7   1   0   75.47    7.31
   7   1   1  236.33   12.52
   7   1   2 1348.69   32.35
   7   1   2 1339.32   26.12
   7   1   3  359.38   16.26
   7   1   4  249.94   12.81
   7   1   5 1092.48   23.51
   7   1   6 1008.90   17.76
   7   2  -1    1.13    2.44
   7   2   0  156.52    9.73
   7   2   3    9.87    3.18
   7   2   4   45.35    5.01
   7   2   4   45.52    4.41
   7   2   5   91.18    5.64
   7   2   5   89.30    5.22
   7   2   6   26.91    2.10
   7   3  -1  720.97   20.37
   7   3   3   47.38    5.16
   7   3   4  133.05    6.80
   7   3   4  123.24    6.86
   7   3   5  253.89    8.14
   7   4   2   25.10    3.57
   7   4   3    2.92    1.32
   7   4   4   95.39    5.18
   7   5   3  284.18    8.31
   7   6   0  122.94    4.51
   8  -5  -1   87.97    4.79
   8  -5   0   65.10    4.52
   8  -5   1   92.03    4.77
   8  -5   1   89.90    5.15
   8  -5   2   94.74    5.18
   8  -5   2   84.41    4.35
   8  -4  -3    9.66    1.77
   8  -4  -2  109.89    6.51
   8  -4  -1  511.77   12.69
   8  -4  -1  507.38   15.38
   8  -4   0  161.11    8.21
   8  -4   0  156.10    8.62
   8  -4   1   74.51    6.00
   8  -4   1   73.99    5.59
   8  -4   2  450.51   14.84
   8  -4   2  453.97   12.43
   8  -4   3 1042.37   21.80
   8  -4   4  266.36    9.58
   8  -4   4  249.50    6.86
   8  -4   5  228.20    5.85
   8  -3  -4    0.43    0.92
   8  -3  -3    1.43    1.16
   8  -3  -2    1.44    1.18
   8  -3  -1    4.30    1.78
   8  -3   0   18.30    3.56
   8  -3   0   19.22    3.70
   8  -3   1   36.31    4.31
   8  -3   2   30.60    3.22
   8  -3   2   26.59    4.23
   8  -3   2   30.47    3.48
   8  -3   3   18.49    2.80
   8  -3   3   22.15    3.75
   8  -3   4  116.75    6.52
   8  -3   4  124.31    7.13
   8  -3   5   80.41    4.92
   8  -3   6  144.54    5.24
   8  -2  -4  376.31    9.59
   8  -2  -3  252.58   10.41
   8  -2  -2  664.07   19.40
   8  -2  -1 1145.87   27.65
   8  -2   0  217.48   12.52
   8  -2   1  144.46    7.80
   8  -2   1  140.91    9.94
   8  -2   2  704.52   18.45
   8  -2   3  466.96   15.29
   8  -2   3  478.72   16.13
   8  -2   4   13.07    2.68
   8  -2   4   13.07    2.47
   8  -2   5  109.16    6.59
   8  -2   6  361.02    9.42
   8  -1  -5  297.42    7.99
   8  -1  -4  126.62    7.21
   8  -1  -3  166.44    9.66
   8  -1  -2   39.95    5.36
   8  -1  -1   68.81    7.15
   8  -1   0   60.71    5.34
   8  -1   0   57.59    6.52
   8  -1   1    5.13    2.11
   8  -1   1    1.44    1.95
   8  -1   2    3.10    2.15
   8  -1   2    3.95    2.29
   8  -1   3   33.22    4.55
   8  -1   4    4.07    1.91
   8  -1   4    4.57    1.28
   8  -1   5   18.72    2.98
   8  -1   6   16.13    2.03
   8   0  -5  568.19   14.19
   8   0  -4  116.34    7.84
   8   0  -3  153.24    9.94
   8   0  -2  842.90   24.26
   8   0  -1  921.47   21.61
   8   0  -1  929.42   25.54
   8   0   0  101.96    7.74
   8   0   0   91.52    7.83
   8   0   1  573.64   18.97
   8   0   1  557.52   18.41
   8   0   2 1382.78   29.95
   8   0   2 1348.85   26.37
   8   0   3  620.50   19.25
   8   0   4  218.25   10.52
   8   0   5  616.40   14.96
   8   0   6  866.16   12.28
   8   1  -6    6.42    1.47
   8   1  -5    1.25    1.63
   8   1  -4   15.78    3.35
   8   1  -3    8.50    2.98
   8   1  -2   19.34    4.02
   8   1  -1  134.53    9.34
   8   1   0  101.54    8.09
   8   1   0   85.09    7.07
   8   1   1  116.89    8.70
   8   1   1  107.94    7.25
   8   1   2  259.40   12.73
   8   1   3  140.48    8.78
   8   1   4  299.18   11.30
   8   1   5   93.23    4.85
   8   2  -6  615.44   12.85
   8   2  -5  530.77   15.14
   8   2  -4   89.66    7.11
   8   2  -3  409.91   15.50
   8   2  -2 1051.51   24.88
   8   2  -1  343.79   13.65
   8   2   0   67.81    5.43
   8   2   1  671.68   20.34
   8   2   2  641.88   18.96
   8   2   3  162.22    8.56
   8   2   4   57.17    4.03
   8   3  -6   93.34    4.61
   8   3  -5  102.32    6.12
   8   3  -4   12.54    2.85
   8   3  -3   29.34    3.86
   8   3  -2    6.13    2.00
   8   3  -1    5.41    1.57
   8   3   1   13.61    2.92
   8   3   2   29.44    3.55
   8   3   3   50.60    3.72
   8   4  -5  197.24    6.67
   8   4  -4   57.00    4.00
   8   4  -3  544.55   12.49
   8   4  -2  487.57   10.40
   8   4   1  606.09   14.18
   8   4   2  422.93    9.35
   8   5   0  182.07    5.84
   9  -3  -2  354.18    8.22
   9  -3  -1  850.43   13.39
   9  -3  -1  874.98   14.27
   9  -3   0  405.89   10.36
   9  -3   0  416.48    9.39
   9  -3   1  245.89    8.31
   9  -3   2  799.43   14.27
   9  -3   3  876.06   12.61
   9  -2  -3    1.86    0.82
   9  -2  -2    2.60    1.21
   9  -2  -1   25.08    2.80
   9  -2   0    6.33    1.59
   9  -2   1    6.86    2.18
   9  -2   2    1.39    0.78
   9  -2   2    1.16    0.99
   9  -2   3   11.03    1.44
   9  -2   3   13.54    1.77
   9  -1  -3   19.24    2.31
   9  -1  -2  269.19    9.76
   9  -1  -1  241.35    9.99
   9  -1   0    3.92    1.50
   9  -1   0    5.96    1.36
   9  -1   1   25.66    2.62
   9  -1   2  328.06    9.42
   9  -1   2  334.36    9.76
   9  -1   3  224.56    7.38
   9  -1   3  178.57    5.07
   9  -1   4   22.70    2.08
   9   0  -4   89.33    4.32
   9   0  -3    7.30    1.87
   9   0  -2   91.17    5.96
   9   0  -1   48.08    4.41
   9   0   0   37.12    3.34
   9   0   0   37.50    3.86
   9   0   1   85.55    5.22
   9   0   1   79.73    5.06
   9   0   2   30.92    3.19
   9   0   2   33.29    2.59
   9   0   3   80.44    4.71
   9   0   4    7.43    1.21
   9   1  -4  236.44    7.29
   9   1  -3  456.86   12.10
   9   1  -2 1193.45   21.02
   9   1  -1  807.87   15.07
   9   1  -1  838.90   17.27
   9   1   0  320.64   10.16
   9   1   0  332.59   10.04
   9   1   1  624.96   14.71
   9   1   2  955.28   17.28
   9   1   3  288.78    8.00
   9   2  -4   52.02    3.17
   9   2  -3   13.05    1.89
   9   2  -2   23.86    2.24
   9   2  -2   28.77    2.81
   9   2  -1    8.89    1.72
   9   2  -1   10.90    1.71
   9   2   0   33.06    3.24
   9   2   1    7.88    1.57
   9   2   2    1.95    0.73
   9   3  -2  198.70    5.89
   9   3  -1   50.30    3.29
   9   3   0    9.13    1.57
   9   3   1  259.84    6.81


TITL xuejie25Cu_173K_auto in P1
REM P1 (#1 in standard setting)
CELL 1.54184   7.716145   7.811532   9.342955 102.7415  91.1552  90.8953
ZERR    2.00   0.000542   0.000676   0.000684   0.0068   0.0058   0.0063
LATT -1
SFAC C H N Cl Fe In
UNIT 8.00 28.00 4.00 8.00 2.00 2.00
REM  CrysAlisPro recorded range (K): Min=173.0; max=173.0; aver:173.0
TEMP -100
TREF
HKLF 4
END
_computing_structure_solution     'SHELXT 2014/4 (Sheldrick, 2014)'
;
_shelx_hkl_checksum              1563
_olex2_submission_special_instructions 'No special instructions were received'
_oxdiff_exptl_absorpt_empirical_details
;
Empirical correction (ABSPACK) includes:
- Absorption correction using spherical harmonics
- Frame scaling
;
_oxdiff_exptl_absorpt_empirical_full_max 1.236
_oxdiff_exptl_absorpt_empirical_full_min 0.799
loop_
_space_group_symop_operation_xyz
'x, y, z'
'-x, -y, -z'
loop_
_atom_site_label
_atom_site_type_symbol
_atom_site_fract_x
_atom_site_fract_y
_atom_site_fract_z
_atom_site_U_iso_or_equiv
_atom_site_adp_type
_atom_site_occupancy
_atom_site_site_symmetry_order
_atom_site_calc_flag
_atom_site_refinement_flags_posn
_atom_site_refinement_flags_adp
_atom_site_refinement_flags_occupancy
_atom_site_disorder_assembly
_atom_site_disorder_group
In1 In 0.5000 0.5000 0.0000 0.01057(14) Uani 1 2 d S . P . .
Ag1 Ag 0.0000 0.0000 0.0000 0.02665(16) Uani 1 2 d S . P . .
Cl1 Cl 0.74845(13) 0.30529(14) 0.04266(12) 0.0248(2) Uani 1 1 d . . . . .
Cl2 Cl 0.43325(13) 0.55037(14) 0.27012(11) 0.0251(2) Uani 1 1 d . . . . .
Cl3 Cl 0.29806(13) 0.23446(14) -0.04840(12) 0.0250(2) Uani 1 1 d . . . . .
Cl4 Cl 0.05330(14) 0.04105(14) 0.26521(11) 0.0256(2) Uani 1 1 d . . . . .
N2 N 0.0203(5) 0.6104(6) 0.2394(5) 0.0284(9) Uani 1 1 d . . . . .
H2A H 0.1305 0.5862 0.2640 0.034 Uiso 1 1 calc R U . . .
H2B H 0.0221 0.7047 0.1970 0.034 Uiso 1 1 calc R U . . .
H2C H -0.0270 0.5158 0.1749 0.034 Uiso 1 1 calc R U . . .
C3 C -0.0844(5) 0.5063(7) 0.4581(5) 0.0268(9) Uani 1 1 d . . . . .
H3A H -0.1081 0.3927 0.3885 0.032 Uiso 1 1 calc R U . . .
H3B H -0.1800 0.5260 0.5286 0.032 Uiso 1 1 calc R U . . .
C4 C -0.0853(7) 0.6504(6) 0.3736(5) 0.0283(10) Uani 1 1 d . . . . .
H4A H -0.2064 0.6701 0.3451 0.034 Uiso 1 1 calc R U . . .
H4B H -0.0403 0.7604 0.4386 0.034 Uiso 1 1 calc R U . . .
N1 N 0.4576(5) 0.0771(6) 0.2310(5) 0.0281(9) Uani 1 1 d . . . . .
H1A H 0.4996 -0.0241 0.1762 0.034 Uiso 1 1 calc R U . . .
H1B H 0.4534 0.1598 0.1761 0.034 Uiso 1 1 calc R U . . .
H1C H 0.3490 0.0565 0.2605 0.034 Uiso 1 1 calc R U . . .
C1 C 0.5735(6) 0.1409(6) 0.3623(5) 0.0271(9) Uani 1 1 d . . . . .
H1D H 0.5297 0.2533 0.4195 0.033 Uiso 1 1 calc R U . . .
H1E H 0.6912 0.1635 0.3296 0.033 Uiso 1 1 calc R U . . .
C2 C 0.5841(5) 0.0103(6) 0.4604(5) 0.0240(9) Uani 1 1 d . . . . .
H2D H 0.6785 0.0483 0.5345 0.029 Uiso 1 1 calc R U . . .
H2E H 0.6148 -0.1056 0.4000 0.029 Uiso 1 1 calc R U . . .
loop_
_atom_site_aniso_label
_atom_site_aniso_U_11
_atom_site_aniso_U_22
_atom_site_aniso_U_33
_atom_site_aniso_U_23
_atom_site_aniso_U_13
_atom_site_aniso_U_12
In1 0.01034(19) 0.0100(2) 0.0118(2) 0.00346(13) 0.00073(12) 0.00037(12)
Ag1 0.0298(3) 0.0309(3) 0.0197(3) 0.00717(19) -0.00324(18) -0.00135(19)
Cl1 0.0252(5) 0.0246(5) 0.0257(5) 0.0078(4) 0.0014(4) 0.0063(4)
Cl2 0.0226(5) 0.0322(5) 0.0198(5) 0.0039(4) 0.0012(4) 0.0018(4)
Cl3 0.0223(5) 0.0275(5) 0.0269(5) 0.0105(4) -0.0046(4) -0.0065(4)
Cl4 0.0259(5) 0.0301(5) 0.0197(5) 0.0037(4) -0.0017(4) 0.0013(4)
N2 0.0242(19) 0.037(2) 0.026(2) 0.0103(17) -0.0002(16) -0.0002(17)
C3 0.021(2) 0.035(2) 0.027(2) 0.0113(19) 0.0005(18) -0.0020(18)
C4 0.031(2) 0.031(2) 0.024(2) 0.0096(19) 0.0013(18) 0.0052(19)
N1 0.029(2) 0.035(2) 0.0224(19) 0.0116(17) -0.0019(16) -0.0006(17)
C1 0.029(2) 0.029(2) 0.025(2) 0.0095(18) -0.0029(18) -0.0065(18)
C2 0.019(2) 0.031(2) 0.024(2) 0.0096(19) -0.0002(17) 0.0009(17)
loop_
_atom_type_symbol
_atom_type_description
_atom_type_scat_dispersion_real
_atom_type_scat_dispersion_imag
_atom_type_scat_source
C C 0.0181 0.0091 'International Tables Vol C Tables 4.2.6.8 and 6.1.1.4'
H H 0.0000 0.0000 'International Tables Vol C Tables 4.2.6.8 and 6.1.1.4'
Ag Ag 0.1306 4.2820 'International Tables Vol C Tables 4.2.6.8 and 6.1.1.4'
Cl Cl 0.3639 0.7018 'International Tables Vol C Tables 4.2.6.8 and 6.1.1.4'
In In 0.0822 5.0449 'International Tables Vol C Tables 4.2.6.8 and 6.1.1.4'
N N 0.0311 0.0180 'International Tables Vol C Tables 4.2.6.8 and 6.1.1.4'
loop_
_geom_angle_atom_site_label_1
_geom_angle_atom_site_label_2
_geom_angle_atom_site_label_3
_geom_angle
_geom_angle_site_symmetry_1
_geom_angle_site_symmetry_3
_geom_angle_publ_flag
Cl1 In1 Cl1 180.0 . 2_665 ?
Cl2 In1 Cl1 91.02(3) 2_665 . ?
Cl2 In1 Cl1 88.99(3) . . ?
Cl2 In1 Cl1 88.98(3) 2_665 2_665 ?
Cl2 In1 Cl1 91.02(3) . 2_665 ?
Cl2 In1 Cl2 180.00(5) 2_665 . ?
Cl3 In1 Cl1 89.35(3) 2_665 2_665 ?
Cl3 In1 Cl1 89.35(3) . . ?
Cl3 In1 Cl1 90.65(4) 2_665 . ?
Cl3 In1 Cl1 90.65(3) . 2_665 ?
Cl3 In1 Cl2 89.05(4) 2_665 2_665 ?
Cl3 In1 Cl2 90.95(4) 2_665 . ?
Cl3 In1 Cl2 89.05(4) . . ?
Cl3 In1 Cl2 90.95(4) . 2_665 ?
Cl3 In1 Cl3 180.0 . 2_665 ?
Cl1 Ag1 Cl1 180.00(3) 2_655 1_455 ?
Cl3 Ag1 Cl1 91.65(3) 2 2_655 ?
Cl3 Ag1 Cl1 91.65(3) . 1_455 ?
Cl3 Ag1 Cl1 88.35(3) 2 1_455 ?
Cl3 Ag1 Cl1 88.35(3) . 2_655 ?
Cl3 Ag1 Cl3 180.0 2 . ?
Cl4 Ag1 Cl1 87.80(3) . 2_655 ?
Cl4 Ag1 Cl1 92.20(3) . 1_455 ?
Cl4 Ag1 Cl1 92.20(3) 2 2_655 ?
Cl4 Ag1 Cl1 87.80(3) 2 1_455 ?
Cl4 Ag1 Cl3 84.65(3) 2 . ?
Cl4 Ag1 Cl3 95.35(3) 2 2 ?
Cl4 Ag1 Cl3 95.34(3) . . ?
Cl4 Ag1 Cl3 84.66(3) . 2 ?
Cl4 Ag1 Cl4 180.0 . 2 ?
In1 Cl1 Ag1 161.40(4) . 1_655 ?
In1 Cl3 Ag1 157.92(5) . . ?
H2A N2 H2B 109.5 . . ?
H2A N2 H2C 109.5 . . ?
H2B N2 H2C 109.5 . . ?
C4 N2 H2A 109.5 . . ?
C4 N2 H2B 109.5 . . ?
C4 N2 H2C 109.5 . . ?
C3 C3 H3A 108.6 2_566 . ?
C3 C3 H3B 108.6 2_566 . ?
H3A C3 H3B 107.6 . . ?
C4 C3 C3 114.5(5) . 2_566 ?
C4 C3 H3A 108.6 . . ?
C4 C3 H3B 108.6 . . ?
N2 C4 C3 113.3(4) . . ?
N2 C4 H4A 108.9 . . ?
N2 C4 H4B 108.9 . . ?
C3 C4 H4A 108.9 . . ?
C3 C4 H4B 108.9 . . ?
H4A C4 H4B 107.7 . . ?
H1A N1 H1B 109.5 . . ?
H1A N1 H1C 109.5 . . ?
H1B N1 H1C 109.5 . . ?
C1 N1 H1A 109.5 . . ?
C1 N1 H1B 109.5 . . ?
C1 N1 H1C 109.5 . . ?
N1 C1 H1D 109.1 . . ?
N1 C1 H1E 109.1 . . ?
N1 C1 C2 112.3(4) . . ?
H1D C1 H1E 107.9 . . ?
C2 C1 H1D 109.1 . . ?
C2 C1 H1E 109.1 . . ?
C1 C2 C2 113.8(5) . 2_656 ?
C1 C2 H2D 108.8 . . ?
C1 C2 H2E 108.8 . . ?
C2 C2 H2D 108.8 2_656 . ?
C2 C2 H2E 108.8 2_656 . ?
H2D C2 H2E 107.7 . . ?
loop_
_geom_bond_atom_site_label_1
_geom_bond_atom_site_label_2
_geom_bond_distance
_geom_bond_site_symmetry_2
_geom_bond_publ_flag
In1 Cl1 2.5447(10) . ?
In1 Cl1 2.5447(10) 2_665 ?
In1 Cl2 2.5317(10) 2_665 ?
In1 Cl2 2.5318(10) . ?
In1 Cl3 2.5282(10) . ?
In1 Cl3 2.5282(10) 2_665 ?
Ag1 Cl1 3.0612(10) 2_655 ?
Ag1 Cl1 3.0612(10) 1_455 ?
Ag1 Cl3 3.0205(10) . ?
Ag1 Cl3 3.0205(10) 2 ?
Ag1 Cl4 2.4528(10) . ?
Ag1 Cl4 2.4528(10) 2 ?
Cl1 Ag1 3.0612(10) 1_655 ?
N2 H2A 0.9100 . ?
N2 H2B 0.9100 . ?
N2 H2C 0.9100 . ?
N2 C4 1.487(6) . ?
C3 C3 1.523(9) 2_566 ?
C3 H3A 0.9900 . ?
C3 H3B 0.9900 . ?
C3 C4 1.510(6) . ?
C4 H4A 0.9900 . ?
C4 H4B 0.9900 . ?
N1 H1A 0.9100 . ?
N1 H1B 0.9100 . ?
N1 H1C 0.9100 . ?
N1 C1 1.492(6) . ?
C1 H1D 0.9900 . ?
C1 H1E 0.9900 . ?
C1 C2 1.516(6) . ?
C2 C2 1.531(8) 2_656 ?
C2 H2D 0.9900 . ?
C2 H2E 0.9900 . ?
loop_
_geom_torsion_atom_site_label_1
_geom_torsion_atom_site_label_2
_geom_torsion_atom_site_label_3
_geom_torsion_atom_site_label_4
_geom_torsion
_geom_torsion_site_symmetry_1
_geom_torsion_site_symmetry_2
_geom_torsion_site_symmetry_3
_geom_torsion_site_symmetry_4
_geom_torsion_publ_flag
C3 C3 C4 N2 73.6(7) 2_566 . . . ?
N1 C1 C2 C2 -69.1(6) . . . 2_656 ?
