#------------------------------------------------------------------------------
#$Date: 2021-12-04 01:12:32 +0200 (Sat, 04 Dec 2021) $
#$Revision: 271065 $
#$URL: file:///home/coder/svn-repositories/cod/cif/4/00/40/4004052.cif $
#------------------------------------------------------------------------------
#
# This file is available in the Crystallography Open Database (COD),
# http://www.crystallography.net/
#
# All data on this site have been placed in the public domain by the
# contributors.
#
data_4004052
loop_
_publ_author_name
'Pei, Shao-Min'
'Liu, Bin-Wen'
'Jiang, Xiao-Ming'
'Zou, Ya-Qian'
'Chen, Wen-Fa'
'Yan, Qiu-Nan'
'Guo, Guo-Cong'
_publ_section_title
;
 Superior Infrared Nonlinear Optical Performance Achieved by Synergetic
 Functional Motif and Vacancy Site Modulations
;
_journal_issue                   22
_journal_name_full               'Chemistry of Materials'
_journal_page_first              8831
_journal_page_last               8837
_journal_paper_doi               10.1021/acs.chemmater.1c03046
_journal_volume                  33
_journal_year                    2021
_chemical_formula_moiety         'Cd Cl Ga9 K4 S16'
_chemical_formula_sum            'Cd Cl Ga9 K4 S16'
_chemical_formula_weight         1444.69
_chemical_melting_point          ?
_chemical_name_common            K4CdGa9S16Cl
_space_group_crystal_system      triclinic
_space_group_IT_number           1
_space_group_name_Hall           'P 1'
_space_group_name_H-M_alt        'P 1'
_audit_creation_method           SHELXL-2013
_cell_angle_alpha                68.215(2)
_cell_angle_beta                 74.887(2)
_cell_angle_gamma                84.956(2)
_cell_formula_units_Z            1
_cell_length_a                   8.4328(2)
_cell_length_b                   9.8807(2)
_cell_length_c                   9.9005(2)
_cell_measurement_reflns_used    12300
_cell_measurement_temperature    293(2)
_cell_measurement_theta_max      1.910
_cell_measurement_theta_min      0.511
_cell_volume                     739.49(3)
_computing_cell_refinement       'CrysAlisPro 1.171.40.59a (Rigaku OD, 2019)'
_computing_data_collection       'CrysAlisPro 1.171.40.59a (Rigaku OD, 2019)'
_computing_data_reduction        'CrysAlisPro 1.171.40.59a (Rigaku OD, 2019)'
_computing_publication_material  'SHELXL-2013 (Sheldrick, 2013)'
_computing_structure_refinement  'SHELXL-2013 (Sheldrick, 2013)'
_computing_structure_solution    'SHELXL-2013 (Sheldrick, 2013)'
_diffrn_ambient_temperature      293(2)
_diffrn_detector_area_resol_mean 10.0000
_diffrn_measured_fraction_theta_full 0.999
_diffrn_measured_fraction_theta_max 1.000
_diffrn_measurement_device_type  'ROD, Synergy Custom DW system, HyPix'
_diffrn_measurement_method       CCD_Profile_fitting
_diffrn_radiation_type           MoK\a
_diffrn_radiation_wavelength     0.71073
_diffrn_reflns_av_R_equivalents  0.0705
_diffrn_reflns_av_unetI/netI     0.0612
_diffrn_reflns_Laue_measured_fraction_full 0.999
_diffrn_reflns_Laue_measured_fraction_max 1.000
_diffrn_reflns_limit_h_max       10
_diffrn_reflns_limit_h_min       -10
_diffrn_reflns_limit_k_max       11
_diffrn_reflns_limit_k_min       -11
_diffrn_reflns_limit_l_max       11
_diffrn_reflns_limit_l_min       -11
_diffrn_reflns_number            13675
_diffrn_reflns_point_group_measured_fraction_full 0.999
_diffrn_reflns_point_group_measured_fraction_max 1.000
_diffrn_reflns_theta_full        25.242
_diffrn_reflns_theta_max         25.490
_diffrn_reflns_theta_min         2.220
_exptl_absorpt_coefficient_mu    10.544
_exptl_absorpt_correction_T_max  1.00000
_exptl_absorpt_correction_T_min  0.78666
_exptl_absorpt_correction_type   multi-scan
_exptl_crystal_colour            colorless
_exptl_crystal_density_diffrn    3.244
_exptl_crystal_density_meas      ?
_exptl_crystal_description       bulk
_exptl_crystal_F_000             676
_exptl_crystal_size_max          0.127
_exptl_crystal_size_mid          0.110
_exptl_crystal_size_min          0.098
_refine_diff_density_max         0.828
_refine_diff_density_min         -1.560
_refine_diff_density_rms         0.277
_refine_ls_abs_structure_details
;
 Refined as an inversion twin.
;
_refine_ls_abs_structure_Flack   0.027(13)
_refine_ls_extinction_method     SHELXL
_refine_ls_goodness_of_fit_ref   1.017
_refine_ls_hydrogen_treatment    undef
_refine_ls_matrix_type           full
_refine_ls_number_parameters     281
_refine_ls_number_reflns         5358
_refine_ls_number_restraints     3
_refine_ls_restrained_S_all      1.016
_refine_ls_R_factor_all          0.0410
_refine_ls_R_factor_gt           0.0388
_refine_ls_shift/su_max          0.000
_refine_ls_shift/su_mean         0.000
_refine_ls_structure_factor_coef Fsqd
_refine_ls_weighting_details
;
 w=1/[\s^2^(Fo^2^)+(0.0377P)^2^]
 where P=(Fo^2^+2Fc^2^)/3
;
_refine_ls_weighting_scheme      calc
_refine_ls_wR_factor_gt          0.0817
_refine_ls_wR_factor_ref         0.0826
_reflns_Friedel_coverage         1.000
_reflns_Friedel_fraction_full    0.999
_reflns_Friedel_fraction_max     1.000
_reflns_number_gt                4996
_reflns_number_total             5358
_reflns_threshold_expression     'I > 2\s(I)'
_cod_data_source_file            cm1c03046_si_002.cif
_cod_data_source_block           K4CdGa9S16Cl
_cod_depositor_comments
;
The following automatic conversions were performed:

data item '_chemical_melting_point' value 'not measured' was changed
to '?' -- the value is undefined or not given.

data item '_exptl_crystal_density_meas' value 'not measured' was
changed to '?' -- the value is perceived as not measured.

Automatic conversion script
Id: cif_fix_values 7556 2019-12-06 15:28:31Z antanas 
;
_cod_database_code               4004052
_shelx_space_group_comment
;
The symmetry employed for this shelxl refinement is uniquely defined
by the following loop, which should always be used as a source of
symmetry information in preference to the above space-group names.
They are only intended as comments.
;
_shelxl_version_number           2013-2
_shelx_res_file
;
TITL a in P1
CELL 0.71073   8.4328   9.8807   9.9005  68.215  74.887  84.956
ZERR    1.00   0.0002   0.0002   0.0002   0.002   0.002   0.002
LATT -1
SFAC S CL K GA CD
UNIT 16 1 4 9 1
acta
L.S. 4
BOND
FMAP 2
PLAN 20
twin
omit -3 51.0
omit -1 1 10
omit 0 -4 8
WGHT    0.037700
BASF   0.02696
FVAR       0.18133
K1    3    0.863874    0.864031    0.598178    11.00000    0.03318    0.03713 =
         0.02437   -0.00486   -0.00890   -0.00292
K2    3    0.000112    0.000507   -0.000479    11.00000    0.04126    0.02401 =
         0.04067   -0.01287   -0.01775   -0.00108
K3    3    0.212180    0.568729    0.906655    11.00000    0.03820    0.04763 =
         0.03411   -0.01161   -0.00973    0.02132
K4    3    0.629305    0.643677    0.072134    11.00000    0.03563    0.03689 =
         0.03850   -0.01281    0.00146   -0.01057
CD1   5    0.715905    0.301088    0.452099    11.00000    0.01633    0.01684 =
         0.01963   -0.00885   -0.00310   -0.00114
GA1   4    0.014868    0.603284    0.357057    11.00000    0.01106    0.00987 =
         0.01240   -0.00466   -0.00215    0.00035
GA2   4    0.599324    0.204850    0.148590    11.00000    0.01195    0.01361 =
         0.01007   -0.00515   -0.00091   -0.00051
GA3   4    0.177886    0.248247    0.306695    11.00000    0.01235    0.01134 =
         0.01434   -0.00655   -0.00262    0.00189
GA4   4    0.416053    0.001400    0.562413    11.00000    0.01357    0.01082 =
         0.01102   -0.00514   -0.00375    0.00061
GA5   4    0.262048    0.346693    0.615537    11.00000    0.01089    0.01258 =
         0.01375   -0.00601   -0.00374    0.00207
GA6   4    0.296422    0.902797    0.269970    11.00000    0.01173    0.01006 =
         0.01242   -0.00511   -0.00424    0.00083
GA7   4    0.573773    0.645101    0.511472    11.00000    0.01061    0.01091 =
         0.01345   -0.00531   -0.00282    0.00184
GA8   4    0.791943    0.395182    0.770248    11.00000    0.01181    0.01182 =
         0.01110   -0.00403   -0.00359    0.00109
GA9   4    0.493591    0.105803    0.852618    11.00000    0.01230    0.01245 =
         0.01174   -0.00546   -0.00399    0.00064
S1    1    0.239175    0.729474    0.194076    11.00000    0.01303    0.01456 =
         0.01463   -0.00937    0.00182   -0.00332
S2    1    0.481609    0.477531    0.438402    11.00000    0.01296    0.01375 =
         0.01353   -0.00615   -0.00146   -0.00050
S3    1    0.041668    0.506891    0.605352    11.00000    0.01063    0.01180 =
         0.01011   -0.00328   -0.00134    0.00145
S4    1    0.540426    0.005379    0.094917    11.00000    0.01148    0.01297 =
         0.01045   -0.00540   -0.00206   -0.00115
S5    1    0.460140    0.911838    0.792808    11.00000    0.02793    0.01368 =
         0.01375   -0.00601   -0.00989   -0.00027
S6    1    0.650526    0.095616    0.384585    11.00000    0.01440    0.01373 =
         0.01096   -0.00453   -0.00381   -0.00021
S7    1    0.348315    0.805913    0.510333    11.00000    0.01308    0.01066 =
         0.01152   -0.00612   -0.00407    0.00270
S8    1    0.401048    0.368615    0.145781    11.00000    0.01602    0.01339 =
         0.01775   -0.00340   -0.00154    0.00089
S9    1    0.193691    0.156389    0.557120    11.00000    0.01352    0.01323 =
         0.01247   -0.00665   -0.00329    0.00166
S10   1    0.977064    0.422258    0.274978    11.00000    0.01450    0.01137 =
         0.01855   -0.00811   -0.00610    0.00245
S11   1    0.281108    0.258901    0.852166    11.00000    0.01796    0.02050 =
         0.01232   -0.00736   -0.00556    0.00556
S12   1    0.752775    0.195573    0.716408    11.00000    0.01282    0.01438 =
         0.01382   -0.00675   -0.00099   -0.00077
S13   1    0.797277    0.750971    0.332697    11.00000    0.01298    0.01258 =
         0.01941   -0.00195   -0.00166    0.00207
S14   1    0.837521    0.315373    0.000404    11.00000    0.01354    0.02065 =
         0.00991   -0.00338   -0.00309   -0.00435
S15   1    0.087112    0.056570    0.278532    11.00000    0.01531    0.01422 =
         0.02273   -0.01036   -0.00609    0.00237
S16   1    0.606227    0.574607    0.745059    11.00000    0.01772    0.01762 =
         0.01450   -0.00736   -0.00684    0.00735
CL1   2    0.947506    0.779096    0.883891    11.00000    0.02742    0.02959 =
         0.03014   -0.01311   -0.00968    0.00370

HKLF 4

REM  a in P1
REM R1 =  0.0388 for    4996 Fo > 4sig(Fo)  and  0.0410 for all    5358 data
REM    281 parameters refined using      3 restraints

END

WGHT      0.0361      0.0000

REM Highest difference peak  0.828,  deepest hole -1.560,  1-sigma level  0.277
Q1    1   0.1867  0.7656  0.9629  11.00000  0.05    0.83
Q2    1   0.7367  0.4182  0.4195  11.00000  0.05    0.79
Q3    1   0.6882  0.7710  0.8134  11.00000  0.05    0.75
Q4    1   0.2859  0.8097  0.2882  11.00000  0.05    0.72
Q5    1  -0.2262 -0.1092  0.1034  11.00000  0.05    0.71
Q6    1   0.0277  0.1233  0.0062  11.00000  0.05    0.71
Q7    1   0.7481  0.8134  0.1111  11.00000  0.05    0.70
Q8    1   0.4413  0.1260  0.5247  11.00000  0.05    0.69
Q9    1   0.6047  0.2102  0.6011  11.00000  0.05    0.69
Q10   1   0.5241  0.5207  0.5790  11.00000  0.05    0.69
Q11   1   0.6460 -0.0323  0.5379  11.00000  0.05    0.69
Q12   1   0.6290  0.7378  0.8040  11.00000  0.05    0.68
Q13   1   0.9318  0.2511  0.4615  11.00000  0.05    0.68
Q14   1   0.1309  0.1689  0.2159  11.00000  0.05    0.66
Q15   1   0.5504  0.7045  0.3742  11.00000  0.05    0.66
Q16   1   0.7301  0.6861  0.2477  11.00000  0.05    0.66
Q17   1   0.4888  0.0159  0.8717  11.00000  0.05    0.65
Q18   1   0.8444  0.4639  0.8652  11.00000  0.05    0.64
Q19   1   0.6316  0.0969  0.5779  11.00000  0.05    0.64
Q20   1   0.2715  0.7806  0.3211  11.00000  0.05    0.64
;
_shelx_res_checksum              19803
_shelx_hkl_file
;
   0   0  -1  316.88   16.09
   0   0   1  333.66   16.15
   0   0  -1  354.61   15.76
   0   0   1  339.69   15.75
   0   0  -2   28.36    2.70
   0   0   2   36.31    2.96
   0   0  -2   32.76    2.30
   0   0   3  106.65    7.23
   0   0  -3  106.73    7.19
   0   0  -3  107.72    6.24
   0   0   4  256.74   15.78
   0   0  -4  254.79   15.65
   0   0  -4  264.58   14.41
   0   0   4  296.14   14.79
   0   0   4  294.83   13.89
   0   0  -5   18.62    3.25
   0   0  -5   20.60    2.54
   0   0   5   23.82    2.78
   0   0   5   20.38    2.09
   0   0  -6   57.47    6.33
   0   0   6   46.33    6.44
   0   0  -6   63.05    5.14
   0   0   6   65.37    5.44
   0   0   6   59.62    4.39
   0   0  -7  195.81    9.84
   0   0   7  180.30   15.10
   0   0   7  218.15   11.48
   0   0  -7  179.40   11.85
   0   0  -8   41.19    2.77
   0   0   8   32.24    6.15
   0   0   8   42.17    4.01
   0   0  -8   34.07    4.23
   0   0  -9    2.11    0.72
   0   0  -9    3.12    0.90
   0   0  -9    3.05    2.13
   0   0   9    3.03    2.83
   0   0   9    4.08    1.73
   0   0  -9    3.18    1.84
   0   0 -10   20.25    4.25
   0   0  10   25.06    6.07
   0   0  10   30.63    3.80
   0   0 -10   13.74    3.14
   0   0  11   15.11    5.35
   0   0 -11   13.28    3.23
   0   0  11   20.80    3.45
   0  -1  11   37.91    7.65
   0  -1  10    0.48    2.70
   0  -1  10   -0.54    2.73
   0   1 -10    2.61    2.33
   0  -1  10    1.65    1.46
   0   1 -10    1.98    1.70
   0  -1   9    1.76    2.46
   0   1  -9    0.73    0.72
   0  -1   9    3.45    2.93
   0   1  -9    1.01    1.47
   0  -1   9    1.91    1.35
   0   1  -8   23.59    2.24
   0  -1   8   28.52    5.29
   0  -1   8   22.31    5.07
   0   1  -8   22.16    3.31
   0  -1   8   28.87    3.08
   0  -1   7 1403.60   64.83
   0  -1   7 1436.83   66.33
   0   1  -7 1275.54   60.18
   0   1  -6  150.72   11.84
   0  -1   6  143.76   11.89
   0  -1   6  141.65   12.30
   0  -1   6  178.13   10.80
   0   1  -6  162.54   10.11
   0  -1   6  175.64    9.24
   0   1  -5   14.75    3.06
   0  -1   5   13.01    3.13
   0   1  -5   19.04    2.38
   0  -1   5   19.83    2.61
   0  -1   5   21.19    1.95
   0  -1   4  248.65   12.74
   0   1  -4  233.62   12.42
   0  -1   4  234.98   11.58
   0  -1   3  110.12    6.15
   0   1  -3   98.06    5.85
   0   1  -2   42.55    3.68
   0  -1   2   50.64    3.17
   0   1  -2   46.94    3.00
   0   1  -1   21.14    1.94
   0   1  -1   25.99    1.57
   0   1   0  238.27   11.44
   0  -1   0  241.74   11.43
   0  -1  -1   84.29    4.40
   0   1   1   85.95    4.42
   0   1   1   84.78    4.61
   0   1   1   92.06    4.20
   0   1   1   82.24    4.96
   0   1   1   85.65    4.31
   0   1   1   95.82    4.50
   0   1   1   86.57    4.60
   0   1   1   85.41    4.46
   0   1   2    5.35    0.81
   0   1   2    4.93    0.97
   0   1   2    5.27    0.50
   0   1   2    4.87    0.79
   0  -1  -2    5.25    0.77
   0   1   3  303.45   17.16
   0  -1  -3  328.16   15.04
   0   1   3  329.80   15.14
   0   1   3  357.93   16.52
   0  -1  -3  320.25   16.23
   0   1   4   64.55    5.52
   0  -1  -4   58.65    3.17
   0  -1  -4   58.37    4.42
   0   1   4   66.42    4.23
   0   1   4   65.80    3.17
   0   1   5   85.10    7.16
   0  -1  -5   82.13    4.23
   0  -1  -5   80.03    5.83
   0   1   5   88.02    5.53
   0   1   6  253.03   16.04
   0  -1  -6  240.87   11.69
   0  -1  -6  220.48   13.78
   0   1   6  286.68   14.72
   0   1   6  264.75   13.46
   0   1   7   76.83    7.86
   0  -1  -7   77.22    4.18
   0   1   7   82.21    9.16
   0   1   7   89.28    6.12
   0  -1  -7   70.19    6.17
   0   1   8   11.69    3.45
   0  -1  -8   17.91    1.41
   0   1   8   13.20    4.16
   0   1   8   19.61    2.81
   0  -1  -8   14.89    2.76
   0   1   9    7.43    3.12
   0  -1  -9    4.49    0.73
   0  -1  -9    4.94    0.77
   0   1   9    5.65    3.23
   0  -1  -9    2.17    1.71
   0   1   9    8.58    2.18
   0   1  10  111.28   11.83
   0   1  10  121.00   13.21
   0  -1 -10   86.75    8.45
   0   1  11   25.49    5.94
   0   1  11   29.20    7.00
   0   1  11   28.59    4.14
   0  -1 -11   18.72    3.76
   0  -2  11   37.46    7.60
   0  -2  10    5.29    3.58
   0  -2  10    4.13    3.33
   0   2  -9   24.99    2.67
   0  -2   9   25.86    5.64
   0  -2   9   36.42    6.56
   0  -2   9   34.65    3.42
   0   2  -9   25.96    3.76
   0   2  -8    8.00    1.52
   0  -2   8    5.12    2.67
   0  -2   8    5.50    3.16
   0  -2   8    7.06    1.62
   0   2  -8   11.90    2.43
   0  -2   7   84.32    8.80
   0  -2   7   87.07    9.32
   0  -2   7   91.60    5.80
   0   2  -7   85.98    6.70
   0  -2   6   85.45    8.32
   0  -2   6   79.91    8.35
   0   2  -6   82.30    6.20
   0  -2   6   95.99    7.05
   0  -2   6   84.83    5.30
   0  -2   5   50.63    6.05
   0  -2   5   66.64    6.53
   0   2  -5   60.69    6.20
   0   2  -5   58.84    3.05
   0  -2   5   59.45    3.77
   0  -2   5   65.18    5.17
   0   2  -5   57.16    4.60
   0  -2   4  268.34   16.68
   0  -2   4  265.75   16.56
   0   2  -4  262.20   16.40
   0   2  -4  276.02   13.27
   0   2  -4  303.73   14.86
   0  -2   4  291.43   13.67
   0  -2   4  306.92   15.24
   0  -2   3   86.32    6.82
   0   2  -3   91.64    6.88
   0  -2   3   91.61    5.75
   0   2  -3  100.91    5.68
   0  -2   2   41.35    3.79
   0   2  -2   45.74    4.01
   0  -2   2   42.35    3.08
   0  -2   1  153.98    8.73
   0  -2   1  159.63    9.16
   0   2  -1  158.35    9.13
   0  -2   1  182.54    8.70
   0  -2   1  166.42    8.38
   0  -2   0   43.78    2.95
   0   2   0   47.34    2.56
   0  -2   0   40.31    2.37
   0   2   0   45.52    2.53
   0  -2   0   41.16    2.57
   0  -2   0   36.43    2.29
   0   2   0   37.84    2.38
   0  -2  -1   13.18    1.31
   0   2   1   14.25    1.37
   0   2   1   14.78    1.14
   0   2   1   15.04    1.21
   0   2   1   14.61    1.49
   0   2   1   18.11    1.61
   0  -2  -1   13.72    1.04
   0   2   1   14.81    1.09
   0   2   1   14.00    1.27
   0   2   2  135.95    6.88
   0   2   2  131.25    6.34
   0   2   2  123.57    7.20
   0  -2  -2  129.69    6.32
   0  -2  -2  121.67    6.59
   0   2   2  116.83    7.74
   0   2   2  130.54    6.61
   0   2   2  141.68    6.97
   0   2   2  144.57    7.31
   0   2   2  129.35    6.95
   0   2   3   42.76    2.22
   0   2   3   41.85    3.60
   0  -2  -3   36.30    2.17
   0  -2  -3   28.19    3.18
   0  -2  -3   37.38    2.66
   0   2   3   46.14    2.53
   0   2   3   45.66    3.24
   0   2   3   52.17    3.37
   0   2   4    4.78    0.48
   0  -2  -4    4.36    1.44
   0   2   4    3.63    1.32
   0  -2  -4    4.25    0.46
   0  -2  -4    3.58    0.83
   0   2   4    5.43    0.69
   0   2   4    4.95    1.19
   0  -2  -5  474.13   22.10
   0   2   5  490.98   26.05
   0  -2  -5  418.12   25.28
   0  -2  -5  461.84   23.39
   0   2   5  514.84   22.47
   0   2   5  547.52   24.86
   0   2   5  514.44   24.01
   0  -2  -5  437.17   24.11
   0  -2  -6 2550.37   88.30
   0   2   6 2436.80   88.25
   0  -2  -6 1662.45   80.81
   0  -2  -6 1868.53   82.78
   0  -2  -6 1580.54   83.38
   0   2   6 1880.28   83.51
   0   2   6 1846.43   81.11
   0   2   6 2112.25   84.61
   0   2   7  179.69   13.75
   0  -2  -7  201.28    9.28
   0   2   7  214.23   11.94
   0  -2  -7  161.83   11.73
   0  -2  -8   51.73    2.65
   0   2   8   51.61    6.60
   0  -2  -8   50.74    4.57
   0  -2  -8   41.63    4.75
   0   2   9   12.49    4.27
   0   2   9   16.10    4.05
   0  -2  -9   19.41    3.03
   0  -2  -9   15.98    3.14
   0   2   9   20.58    3.23
   0   2  10   80.00   10.83
   0   2  10   89.99   10.22
   0  -2 -10   81.52    6.82
   0  -2 -10   66.24    7.07
   0   2  11    6.97    4.37
   0   2  11    9.75    3.82
   0  -2 -11    4.10    2.27
   0  -2 -11    5.19    2.35
   0   2  11   12.89    3.14
   0  -2 -12   63.35    6.51
   0   2  12   69.59    7.11
   0  -3  10    6.80    3.55
   0  -3   9    8.02    3.70
   0  -3   9    5.28    3.16
   0   3  -9    4.27    1.33
   0  -3   9    5.74    2.31
   0   3  -8    8.44    1.71
   0  -3   8   14.69    4.04
   0  -3   8    7.68    3.14
   0   3  -8    9.48    2.27
   0  -3   8   12.93    1.77
   0  -3   7   43.60    6.17
   0   3  -7   34.98    3.36
   0  -3   7   44.39    6.34
   0  -3   7   49.47    3.36
   0   3  -7   38.73    4.03
   0  -3   6   20.78    4.11
   0  -3   6   21.28    4.27
   0   3  -6   27.25    1.66
   0  -3   6   26.61    3.52
   0  -3   6   25.20    2.15
   0   3  -6   32.79    3.28
   0  -3   5   41.14    5.15
   0   3  -5   36.20    5.01
   0  -3   5   49.18    5.62
   0   3  -5   39.79    2.55
   0   3  -5   43.42    3.68
   0  -3   5   44.78    4.21
   0  -3   5   41.94    2.72
   0  -3   4   64.47    6.11
   0   3  -4   66.84    6.25
   0  -3   4   66.06    6.31
   0  -3   4   69.73    5.03
   0   3  -4   68.33    3.95
   0  -3   4   73.20    5.25
   0   3  -4   78.78    4.92
   0  -3   4   68.62    3.72
   0  -3   3   79.44    6.42
   0   3  -3   78.91    6.61
   0  -3   3   85.43    6.82
   0  -3   3   94.42    5.77
   0   3  -3   94.23    5.36
   0  -3   3   90.91    5.67
   0  -3   2  184.56   11.14
   0   3  -2  199.20   11.85
   0  -3   2  183.75   11.64
   0  -3   2  220.34   10.90
   0  -3   2  211.37   10.63
   0   3  -2  224.43   10.34
   0  -3   1   98.21    5.88
   0  -3   1   95.80    6.59
   0  -3   1   94.06    5.97
   0  -3   1   80.29    5.20
   0  -3   0  280.75   13.64
   0   3   0  283.62   12.79
   0  -3   0  253.89   12.47
   0   3   0  268.83   12.66
   0  -3   0  281.48   13.01
   0   3   0  244.65   12.56
   0  -3   0  235.49   12.33
   0   3   1   89.00    5.30
   0   3   1  106.70    5.90
   0  -3  -1   89.43    5.65
   0   3   1  100.99    4.84
   0   3   1  101.15    5.26
   0   3   1   94.59    5.57
   0  -3  -1   84.36    5.71
   0   3   1   98.94    5.30
   0   3   1   99.02    5.45
   0   3   1  118.98    6.30
   0   3   1  103.24    4.88
   0  -3  -1   89.68    4.70
   0  -3  -1   77.99    5.08
   0   3   2  174.77    9.21
   0   3   2  164.04    8.99
   0   3   2  177.29    8.59
   0   3   2  166.32    9.86
   0   3   2  162.93    8.70
   0  -3  -2  161.76   10.06
   0  -3  -2  162.68    8.77
   0   3   2  189.71    9.55
   0  -3  -2  177.73    8.75
   0   3   2  184.19    8.87
   0   3   2  169.77    9.14
   0   3   3   29.52    2.39
   0   3   3   28.01    1.75
   0   3   3   30.62    2.77
   0  -3  -3   17.00    1.51
   0   3   3   27.86    2.01
   0  -3  -3   17.48    1.77
   0   3   3   28.26    2.06
   0   3   3   24.02    3.08
   0  -3  -3   15.16    1.85
   0   3   3   28.59    2.44
   0   3   3   32.55    2.50
   0   3   3   28.24    2.61
   0   3   4   73.36    4.58
   0  -3  -4   71.71    3.62
   0  -3  -4   63.99    5.29
   0   3   4   61.75    5.25
   0   3   4   60.76    3.54
   0  -3  -4   69.35    4.29
   0   3   4   58.15    5.91
   0   3   4   69.21    4.01
   0   3   4   62.58    4.11
   0   3   4   66.94    4.84
   0   3   4   70.13    4.93
   0  -3  -4   62.46    4.63
   0   3   5   92.12    6.18
   0   3   5   81.81    4.34
   0  -3  -5   84.66    4.35
   0   3   5   85.48    7.03
   0  -3  -5   74.58    6.59
   0  -3  -5   87.43    5.38
   0   3   5   94.26    4.98
   0   3   5   97.40    6.39
   0  -3  -5   81.31    6.27
   0  -3  -6   47.09    2.60
   0   3   6   42.34    5.19
   0  -3  -6   42.67    5.12
   0   3   6   53.17    3.21
   0  -3  -6   45.37    3.75
   0   3   6   57.53    4.61
   0   3   6   62.77    5.05
   0  -3  -6   54.33    4.95
   0  -3  -7   13.62    2.67
   0   3   7   12.92    3.75
   0   3   7   14.60    3.28
   0  -3  -7   11.53    0.78
   0  -3  -7    9.11    2.86
   0   3   7   14.98    1.34
   0  -3  -7   11.50    1.91
   0   3   7   16.09    2.58
   0  -3  -8    2.28    1.63
   0   3   8   -0.47    2.53
   0   3   8    1.00    2.04
   0  -3  -8    1.33    1.20
   0  -3  -8    0.99    1.15
   0   3   8    1.64    1.36
   0   3   9  142.47   12.69
   0  -3  -9  157.24    9.85
   0   3   9  176.98   11.09
   0  -3  -9  156.47   11.53
   0  -3  -9  127.14   10.28
   0  -3 -10   10.37    3.07
   0   3  10    7.86    3.66
   0  -3 -10   12.54    2.62
   0   3  10   13.17    2.94
   0  -3 -10   10.99    2.81
   0  -3 -11   15.67    3.95
   0   3  11   15.46    5.60
   0   3  11   11.51    4.31
   0  -3 -11   12.64    2.91
   0  -3 -11    6.62    2.58
   0   3  11   18.56    3.54
   0  -3 -12   11.60    3.04
   0   3  12   11.29    3.26
   0  -4   9   29.18    5.84
   0  -4   9   44.27    5.21
   0   4  -9   35.11    3.62
   0  -4   9   31.19    6.03
   0  -4   8  513.05   26.33
   0  -4   8  476.13   21.80
   0  -4   8  463.87   25.92
   0  -4   7  165.99   12.96
   0  -4   7  157.23   13.12
   0   4  -7  145.55    9.41
   0  -4   7  187.82   11.20
   0  -4   6    5.14    2.29
   0   4  -6    7.41    1.62
   0  -4   6    6.83    2.56
   0   4  -6    6.97    0.94
   0  -4   6    7.62    2.01
   0   4  -6    9.79    1.80
   0  -4   6    9.32    2.16
   0  -4   5   13.80    3.07
   0  -4   5   12.29    2.95
   0  -4   5   18.87    2.54
   0   4  -5    9.96    1.26
   0  -4   5   14.29    2.37
   0   4  -5   10.61    1.72
   0  -4   4   19.26    3.02
   0  -4   4   19.26    3.34
   0   4  -4   21.18    3.55
   0  -4   4   24.61    2.75
   0   4  -4   20.44    1.85
   0  -4   4   23.26    2.68
   0   4  -4   21.01    2.14
   0  -4   3   35.00    3.72
   0   4  -3   37.06    4.25
   0  -4   3   38.05    4.24
   0  -4   3   44.77    3.61
   0  -4   3   40.79    3.33
   0   4  -3   42.03    2.91
   0  -4   2   94.50    6.14
   0  -4   2   95.79    6.98
   0   4  -2   93.96    7.11
   0  -4   2  119.42    6.64
   0  -4   2  111.55    5.97
   0  -4   1  152.98    9.81
   0  -4   1  157.24    8.96
   0   4  -1  163.62    9.25
   0   4  -1  168.65    8.52
   0  -4   1  148.53    7.79
   0  -4   0   80.72    5.39
   0  -4   0   78.47    4.19
   0   4   0   65.26    4.29
   0   4   0   65.26    4.19
   0  -4   0   75.69    4.78
   0  -4   0   68.45    3.97
   0   4   0   59.31    4.13
   0   4   1   77.83    5.17
   0  -4  -1   66.04    4.83
   0   4   1   69.99    4.04
   0   4   1   73.45    3.85
   0   4   1   72.15    4.36
   0  -4  -1   68.29    4.96
   0   4   1   59.38    4.30
   0   4   1   70.46    3.68
   0  -4  -1   64.71    4.15
   0   4   1   66.76    4.44
   0   4   2  570.42   26.42
   0   4   2  444.26   26.25
   0   4   2  537.21   25.49
   0   4   2  524.52   26.54
   0   4   2  518.16   25.71
   0  -4  -2  519.23   27.16
   0  -4  -2  523.39   25.22
   0   4   2  598.47   25.51
   0   4   2  547.90   26.16
   0   4   2  630.11   26.90
   0   4   3   15.79    1.97
   0   4   3   14.39    1.87
   0   4   3   15.71    1.51
   0   4   3   16.42    1.71
   0   4   3   16.26    2.58
   0  -4  -3   16.78    1.75
   0   4   3   17.16    1.84
   0  -4  -3   15.45    1.72
   0   4   3   19.37    2.34
   0   4   3   14.09    1.90
   0  -4  -3   16.63    2.22
   0   4   4  259.02   12.21
   0   4   4  224.79   10.84
   0   4   4  208.34   12.50
   0   4   4  214.42   11.32
   0   4   4  192.03   13.36
   0  -4  -4  193.37   11.22
   0   4   4  229.14   11.33
   0   4   4  260.35   12.30
   0   4   4  234.96   12.35
   0   4   4  266.09   12.78
   0  -4  -4  192.95   11.65
   0  -4  -4  180.21   12.09
   0   4   5  169.73    8.92
   0   4   5  138.32    7.43
   0   4   5  145.94    9.99
   0   4   5  143.04   10.92
   0   4   5  141.96    8.20
   0   4   5  157.68    8.14
   0  -4  -5  142.54    8.33
   0   4   5  155.21    9.31
   0  -4  -5  138.52    8.93
   0   4   5  170.07    9.46
   0   4   5  159.38    9.38
   0  -4  -5  139.48    9.46
   0   4   6    4.27    1.42
   0  -4  -6    1.65    1.27
   0   4   6    3.57    1.16
   0   4   6    3.24    1.72
   0   4   6    2.78    0.54
   0   4   6    2.40    2.06
   0  -4  -6    1.47    0.89
   0   4   6    2.43    0.79
   0  -4  -6    1.63    1.08
   0   4   6    2.95    1.33
   0   4   7   32.91    5.89
   0   4   7   37.65    5.04
   0   4   7   40.32    2.82
   0  -4  -7   31.40    3.27
   0   4   7   42.66    4.32
   0  -4  -7   27.68    3.64
   0  -4  -7   31.32    4.22
   0   4   8   18.71    5.15
   0   4   8   23.25    4.38
   0   4   8   24.67    2.09
   0  -4  -8   23.82    2.87
   0  -4  -8   22.51    3.88
   0   4   8   25.33    3.58
   0   4   9   97.98   11.87
   0   4   9  110.11   10.62
   0  -4  -9  120.59    8.05
   0  -4  -9  120.72    9.93
   0   4   9  124.73    9.30
   0  -4 -10   14.05    3.57
   0   4  10    4.73    3.46
   0   4  10   13.42    4.15
   0  -4 -10   11.62    2.47
   0   4  10   12.35    3.20
   0   4  11   39.59    8.27
   0   4  11   47.56    7.48
   0  -4 -11   50.95    5.22
   0   4  11   60.37    6.38
   0  -4 -11   38.31    5.38
   0  -4 -11   48.45    6.62
   0  -4 -12   57.73    5.78
   0   4  12   51.17    6.48
   0  -5   9   21.63    3.87
   0  -5   8   38.54    5.74
   0  -5   8   43.98    5.07
   0   5  -8   36.30    3.88
   0  -5   8   38.13    6.32
   0  -5   7   61.69    6.90
   0  -5   7   60.65    7.39
   0   5  -7   44.66    4.47
   0  -5   7   72.16    6.09
   0  -5   6   11.76    3.07
   0  -5   6   14.08    3.50
   0   5  -6    9.64    1.99
   0   5  -6   11.81    1.41
   0  -5   6   15.75    2.64
   0  -5   6   15.13    2.71
   0  -5   5  113.44    9.29
   0   5  -5  122.67    8.20
   0  -5   5  117.63   10.05
   0   5  -5  141.34    7.45
   0  -5   5  143.37    9.02
   0  -5   5  139.90    8.97
   0  -5   4   17.39    2.82
   0   5  -4   15.46    2.27
   0  -5   4   19.21    3.41
   0   5  -4   20.78    3.62
   0   5  -4   17.68    1.93
   0  -5   4   21.65    2.72
   0  -5   4   21.87    2.60
   0  -5   3   14.74    2.25
   0   5  -3   17.82    3.20
   0  -5   3   15.31    2.77
   0   5  -3   17.25    1.92
   0  -5   3   18.07    2.45
   0  -5   3   22.05    2.28
   0  -5   2   76.98    4.95
   0  -5   2   75.28    6.80
   0  -5   2   80.36    6.24
   0   5  -2   87.00    6.68
   0  -5   2  103.77    6.30
   0  -5   2  106.77    5.39
   0  -5   1  178.40   11.19
   0   5  -1  173.67   10.28
   0  -5   1  167.36    9.89
   0  -5   1  196.80   10.29
   0  -5   0   37.76    3.70
   0  -5   0   34.06    2.57
   0   5   0   33.44    2.74
   0   5   0   31.08    2.84
   0   5   0   27.81    2.51
   0  -5   0   36.63    3.25
   0  -5   0   33.11    2.41
   0   5   1   81.29    5.79
   0   5   1   73.25    4.15
   0   5   1   72.64    4.69
   0   5   1   62.56    4.53
   0  -5  -1   60.43    5.15
   0   5   1   73.69    4.88
   0   5   2  195.36   11.20
   0   5   2  207.56   10.05
   0   5   2  223.41   11.85
   0   5   2  220.02   10.84
   0   5   2  190.84   11.30
   0  -5  -2  187.51   12.11
   0   5   2  208.32   10.95
   0   5   2  231.12   10.50
   0  -5  -2  172.65    9.89
   0   5   2  267.60   12.74
   0   5   2  211.94   11.33
   0   5   3   15.60    2.18
   0   5   3   15.28    2.57
   0   5   3   15.97    1.90
   0   5   3   17.23    1.76
   0  -5  -3   13.42    2.67
   0   5   3   15.99    2.50
   0   5   3   13.79    1.74
   0   5   3   19.78    1.99
   0  -5  -3   16.85    1.75
   0  -5  -3   17.31    2.51
   0   5   3   17.98    2.27
   0   5   3   19.89    2.51
   0   5   4  275.23   13.78
   0   5   4  208.99   14.93
   0   5   4  251.93   12.46
   0   5   4  226.57   13.54
   0  -5  -4  241.31   12.93
   0   5   4  227.19   14.77
   0   5   4  248.54   12.94
   0   5   4  255.56   12.99
   0   5   4  272.45   13.53
   0   5   4  302.55   14.63
   0   5   4  267.19   14.01
   0  -5  -4  213.39   13.84
   0  -5  -4  233.62   13.01
   0   5   5 1876.40   78.41
   0   5   5 1993.41   82.78
   0   5   5 1878.88   79.68
   0   5   5 1518.83   76.54
   0  -5  -5 1739.14   77.52
   0   5   5 1639.61   77.31
   0   5   5 1575.16   77.20
   0   5   5 1646.97   78.61
   0  -5  -5 1483.36   77.82
   0   5   5 1740.29   78.91
   0   5   5 1832.51   78.54
   0  -5  -5 1561.37   79.05
   0   5   6  178.35    9.74
   0   5   6  133.90   12.03
   0   5   6  140.61   10.58
   0   5   6  148.49    7.87
   0  -5  -6  146.75    8.84
   0   5   6  146.36   11.86
   0   5   6  161.90    8.71
   0   5   6  168.13   10.34
   0  -5  -6  138.55   10.10
   0   5   6  168.27   10.14
   0  -5  -6  133.66    9.38
   0   5   6  176.65   10.31
   0   5   7   -0.81    2.67
   0  -5  -7    0.88    1.34
   0   5   7    0.26    1.39
   0   5   7    0.11    0.39
   0  -5  -7    1.75    1.26
   0   5   7   -0.17    0.71
   0  -5  -7    1.20    1.08
   0   5   8   10.29    3.93
   0  -5  -8   12.88    3.00
   0   5   8   10.91    3.13
   0  -5  -8   17.14    2.46
   0   5   8   15.95    1.89
   0  -5  -8   12.07    2.55
   0   5   8   15.74    3.12
   0   5   9   41.92    7.68
   0   5   9   45.44    6.47
   0   5   9   54.24    3.87
   0  -5  -9   63.39    6.70
   0   5   9   52.27    5.87
   0  -5  -9   52.44    5.58
   0  -5 -10    3.15    2.22
   0   5  10    3.55    4.24
   0   5  10    4.06    2.80
   0  -5 -10    4.26    2.01
   0   5  10    3.93    2.30
   0  -5 -10    3.44    2.08
   0   5  11   24.14    6.62
   0   5  11   27.95    6.00
   0  -5 -11   31.06    4.08
   0   5  11   36.38    5.21
   0  -5 -11   30.80    5.49
   0  -5 -12   31.28    4.28
   0   5  12   33.24    5.45
   0  -5 -13    0.43    2.03
   0  -6   8   28.68    4.43
   0   6  -8   23.65    3.32
   0  -6   8   23.80    4.89
   0  -6   7   23.74    3.79
   0  -6   7   17.79    4.28
   0   6  -7   19.30    2.94
   0  -6   6   75.83    7.03
   0   6  -6   78.90    6.28
   0  -6   6   84.21    8.37
   0  -6   6  100.80    7.52
   0   6  -6   80.66    5.09
   0  -6   5   12.03    2.56
   0  -6   5   10.74    2.93
   0   6  -5   16.35    2.49
   0  -6   5   17.13    2.89
   0   6  -5   19.03    2.09
   0  -6   5   19.49    2.84
   0  -6   4    7.17    1.83
   0  -6   4    7.62    2.35
   0   6  -4    6.26    1.67
   0   6  -4    6.81    2.58
   0  -6   4    7.42    1.92
   0   6  -4    7.89    1.44
   0  -6   4    7.90    1.71
   0  -6   3   67.19    6.72
   0  -6   3   63.78    4.52
   0  -6   3   65.03    6.02
   0   6  -3   68.49    6.42
   0   6  -3   69.57    5.46
   0  -6   3   86.43    6.07
   0   6  -3   72.13    4.96
   0  -6   3   88.53    5.15
   0  -6   2 2211.96  114.07
   0   6  -2 2348.04  110.95
   0  -6   2 2810.16  112.15
   0   6  -2 2376.93  111.46
   0   6  -2 2761.79  113.23
   0  -6   2 2134.98  111.65
   0  -6   1  259.41   15.87
   0  -6   1  291.09   14.93
   0   6  -1  273.57   14.69
   0  -6   1  257.99   14.11
   0  -6   0   18.00    2.73
   0  -6   0   11.71    1.49
   0   6   0   10.82    1.76
   0   6   0   12.55    1.73
   0   6   0   14.18    1.67
   0  -6   0   14.67    2.26
   0   6   1   71.23    5.89
   0   6   1   70.49    4.12
   0   6   1   67.04    4.75
   0   6   1   57.24    4.42
   0  -6  -1   64.59    5.47
   0   6   1   67.68    4.92
   0   6   2  215.88   12.40
   0   6   2  204.44   11.06
   0   6   2  206.04   10.19
   0   6   2  209.99   11.26
   0   6   2  172.48   11.19
   0   6   2  211.89   11.43
   0  -6  -2  190.08   12.64
   0   6   2  213.73   10.51
   0   6   2  207.61   11.77
   0   6   3    7.99    2.05
   0   6   3    9.92    1.96
   0   6   3   11.86    2.22
   0   6   3   10.17    1.50
   0   6   3    9.62    1.47
   0   6   3    9.20    1.56
   0  -6  -3   13.85    2.82
   0   6   3   11.04    1.72
   0   6   3   10.04    2.08
   0  -6  -3   14.20    1.49
   0   6   3    9.80    1.84
   0   6   3   12.82    1.65
   0   6   4   34.10    3.59
   0   6   4   28.38    4.00
   0   6   4   34.24    2.84
   0   6   4   32.70    3.25
   0   6   4   33.18    4.08
   0   6   4   33.91    3.13
   0   6   4   35.95    3.13
   0   6   4   42.64    4.16
   0  -6  -4   30.42    2.84
   0  -6  -4   29.18    3.79
   0   6   4   36.95    3.32
   0   6   4   33.75    3.65
   0   6   5  288.54   20.05
   0   6   5  390.45   18.53
   0   6   5  318.87   18.36
   0   6   5  346.37   16.82
   0  -6  -5  319.31   17.25
   0   6   5  355.51   17.51
   0   6   5  342.33   20.12
   0   6   5  339.52   17.28
   0  -6  -5  285.15   17.30
   0   6   5  357.46   18.85
   0   6   5  402.45   18.51
   0  -6  -5  261.42   18.31
   0   6   5  437.04   19.62
   0   6   6   66.38    7.84
   0   6   6   76.95    4.79
   0   6   6   75.29    6.71
   0  -6  -6   80.09    5.52
   0   6   6   78.54    7.88
   0   6   6   75.32    5.31
   0   6   6   74.26    5.28
   0   6   6   84.09    6.38
   0   6   6   98.13    6.95
   0  -6  -6   63.96    6.32
   0   6   6   82.85    6.73
   0  -6  -6   65.43    5.60
   0  -6  -7    3.61    1.65
   0   6   7    3.64    3.16
   0   6   7    4.03    1.98
   0   6   7    3.35    0.80
   0  -6  -7    5.10    1.44
   0   6   7    4.70    1.32
   0   6   7    5.17    2.04
   0  -6  -7    4.69    1.62
   0   6   8  114.31   12.01
   0   6   8  122.00   10.19
   0   6   8  120.04    6.17
   0   6   8  132.54    7.36
   0  -6  -8  117.65    7.70
   0  -6  -8   98.16    8.91
   0  -6  -8   87.73    7.94
   0  -6  -9    9.64    2.72
   0   6   9   11.66    4.36
   0   6   9    9.29    3.28
   0  -6  -9    9.48    2.23
   0   6   9   13.93    1.91
   0  -6  -9    8.73    2.33
   0   6   9   16.74    3.47
   0   6  10  112.27   12.83
   0   6  10   92.54    9.98
   0  -6 -10  106.45    7.55
   0  -6 -10   93.15    9.12
   0   6  10  129.59    9.91
   0  -6 -10   73.48    7.56
   0   6  11   70.27   10.72
   0   6  11   63.01    8.67
   0  -6 -11   69.73    6.01
   0   6  11   87.38    8.25
   0  -6 -11   47.97    6.12
   0  -6 -11   61.32    7.50
   0  -6 -12   24.18    3.82
   0  -6 -13    3.39    2.31
   0  -7   8   61.85    6.77
   0   7  -7   11.09    2.49
   0  -7   7   11.44    3.70
   0  -7   7   15.61    3.36
   0  -7   6   55.25    6.69
   0   7  -6   43.39    4.73
   0  -7   5    9.41    2.85
   0   7  -5    6.99    2.04
   0  -7   5   13.26    2.95
   0   7  -5    9.69    1.73
   0  -7   4    0.30    1.76
   0  -7   4    1.20    0.94
   0  -7   4    1.11    1.65
   0   7  -4    0.93    1.13
   0  -7   4    2.69    1.57
   0   7  -4    1.72    1.07
   0  -7   3   20.94    3.90
   0   7  -3   27.63    2.91
   0  -7   3   31.94    3.71
   0  -7   3   23.54    3.43
   0   7  -3   28.82    4.09
   0   7  -3   26.11    3.23
   0  -7   2   75.73    7.17
   0  -7   2   88.72    6.44
   0   7  -2   75.45    5.45
   0  -7   2   71.29    5.74
   0   7  -2   69.34    5.72
   0   7  -2   78.21    6.35
   0  -7   1   76.01    6.94
   0   7  -1   83.79    5.77
   0  -7   1   91.95    6.53
   0  -7   1   75.83    5.43
   0   7  -1   74.62    5.82
   0  -7   0   45.96    3.14
   0  -7   0   46.09    4.83
   0   7   0   34.24    3.50
   0   7   0   36.58    3.23
   0   7   0   36.39    3.57
   0  -7   0   46.90    4.38
   0   7   0   32.87    3.00
   0   7   1  149.36    8.75
   0   7   1  140.97    7.47
   0   7   1  134.05    8.12
   0  -7  -1  131.95    9.36
   0   7   1  142.60    8.70
   0   7   1  143.11    8.74
   0   7   2    2.75    1.70
   0   7   2    2.46    0.83
   0   7   2    2.23    0.67
   0   7   2    2.33    1.07
   0   7   2    1.87    0.97
   0   7   2    3.38    1.21
   0  -7  -2    1.03    1.51
   0   7   2    2.65    0.63
   0   7   2    2.22    1.15
   0   7   3   49.65    3.15
   0   7   3   48.15    4.47
   0   7   3   46.10    3.37
   0   7   3   51.58    4.07
   0  -7  -3   43.43    5.33
   0   7   3   49.29    4.14
   0   7   3   48.35    4.22
   0   7   3   41.73    4.21
   0   7   3   55.88    4.84
   0   7   3   59.90    5.29
   0   7   3   56.60    3.84
   0   7   4  118.35    9.17
   0   7   4  130.79    7.67
   0   7   4  131.19    7.74
   0   7   4  135.16    8.11
   0   7   4  128.40    7.83
   0   7   4  115.87    8.77
   0  -7  -4  104.07    9.56
   0   7   4  154.80    8.24
   0   7   4  137.06    8.96
   0   7   4  162.66    9.65
   0  -7  -4   96.67    6.92
   0  -7  -5   18.83    2.85
   0   7   5   22.17    4.31
   0   7   5   23.53    3.05
   0   7   5   24.70    2.47
   0   7   5   24.35    2.79
   0   7   5   21.78    3.75
   0   7   5   27.37    2.90
   0   7   5   34.65    4.06
   0   7   5   30.54    3.29
   0   7   5   28.86    3.67
   0  -7  -5   19.91    3.49
   0  -7  -5   22.06    2.54
   0   7   6   14.12    3.82
   0  -7  -6   14.11    3.02
   0   7   6   18.66    2.05
   0   7   6   15.45    2.87
   0   7   6   16.95    2.29
   0   7   6   20.42    2.56
   0   7   6   16.45    3.65
   0  -7  -6   15.80    2.40
   0   7   6   21.71    3.04
   0  -7  -6   14.00    2.23
   0   7   6   16.45    2.98
   0   7   7   19.23    4.74
   0  -7  -7    8.38    2.52
   0   7   7   11.89    2.83
   0   7   7   14.40    1.69
   0  -7  -7   13.89    2.27
   0   7   7   16.93    2.39
   0   7   7   14.75    2.22
   0  -7  -7    8.67    2.05
   0   7   7   19.73    3.44
   0   7   8  125.77   12.51
   0   7   8  129.88   10.43
   0   7   8  135.21    7.02
   0   7   8  150.08    8.32
   0  -7  -8  117.77    8.12
   0   7   8  156.35   10.64
   0  -7  -8   94.91    8.38
   0  -7  -8   91.08    9.12
   0   7   9   24.14    6.16
   0  -7  -9   17.94    3.82
   0   7   9   25.64    4.66
   0  -7  -9   22.65    3.08
   0   7   9   29.35    3.00
   0  -7  -9   18.02    3.24
   0   7  10   62.97   10.05
   0   7  10   77.07    8.85
   0   7  10   89.22    5.69
   0  -7 -10   77.05    6.25
   0  -7 -10   64.03    7.45
   0   7  10  102.80    8.82
   0  -7 -10   58.57    6.48
   0   7  11  871.30   46.99
   0   7  11  800.86   41.67
   0  -7 -11  744.36   35.80
   0  -7 -11  649.74   38.45
   0  -7 -11  537.20   36.08
   0   7  11  863.57   40.00
   0  -7 -12    4.14    2.08
   0   7  12    2.95    3.23
   0  -8   6   28.60    4.95
   0   8  -6   26.61    3.80
   0  -8   5   18.71    4.17
   0  -8   5   20.92    3.95
   0   8  -5   19.29    3.11
   0   8  -5   19.46    2.55
   0  -8   5   26.62    4.02
   0  -8   4    2.90    2.31
   0  -8   4    1.68    1.65
   0   8  -4    3.30    1.59
   0  -8   4    4.21    2.15
   0   8  -4    8.82    1.94
   0  -8   3   -0.29    2.07
   0  -8   3    0.69    1.37
   0   8  -3    1.50    1.37
   0  -8   3    1.30    1.58
   0   8  -3    2.06    1.39
   0  -8   2    1.33    1.76
   0  -8   2    1.77    1.31
   0   8  -2    3.03    1.38
   0  -8   2    6.84    2.23
   0   8  -2    4.23    1.47
   0  -8   1    8.89    2.62
   0  -8   1   12.17    2.61
   0   8  -1   15.10    2.36
   0   8  -1   12.97    2.33
   0  -8   1    8.37    1.76
   0  -8   0   75.07    7.11
   0   8   0   87.03    5.52
   0   8   0   84.40    6.29
   0   8   0   73.80    5.31
   0  -8   0   91.77    7.14
   0   8   0   86.76    6.23
   0   8   1    4.62    0.94
   0   8   1    6.70    1.72
   0   8   1    4.52    1.21
   0  -8  -1    1.82    1.62
   0   8   1    6.03    1.61
   0   8   2    7.66    1.70
   0   8   2    7.21    1.61
   0  -8  -2    7.38    2.47
   0   8   2    8.42    1.99
   0   8   3  148.97    8.77
   0   8   3  141.83    7.28
   0   8   3  154.13    9.08
   0   8   3  144.37    7.22
   0  -8  -3  132.37   10.75
   0   8   3  122.66    8.79
   0   8   3  151.74    9.34
   0   8   3  161.64    8.33
   0   8   3  159.90   10.05
   0   8   4 1209.93   60.40
   0   8   4 1297.11   57.76
   0   8   4 1248.13   59.12
   0   8   4 1206.30   58.21
   0   8   4 1314.37   59.75
   0   8   4 1149.53   60.13
   0   8   4 1271.58   59.32
   0   8   4 1385.57   61.02
   0   8   4 1424.69   59.25
   0   8   5  174.44   12.65
   0   8   5  176.83   10.64
   0   8   5  185.19   10.34
   0   8   5  171.13   11.97
   0   8   5  187.07   10.80
   0   8   5  188.25   11.05
   0   8   5  207.75   11.24
   0   8   5  195.17   12.26
   0   8   6   61.37    7.18
   0   8   6   57.63    5.26
   0   8   6   66.05    4.57
   0   8   6   60.52    5.02
   0   8   6   70.17    6.39
   0   8   6   66.28    5.53
   0  -8  -6   45.16    4.31
   0  -8  -6   35.81    5.27
   0  -8  -7    8.36    2.64
   0   8   7   15.98    4.54
   0   8   7   12.96    1.89
   0   8   7   14.85    3.15
   0   8   7   15.16    2.34
   0  -8  -7   10.93    2.16
   0  -8  -7    7.66    1.92
   0   8   7   11.62    3.03
   0   8   8  147.23   13.51
   0   8   8  148.09    8.06
   0   8   8  159.87   11.30
   0  -8  -8  133.56    9.03
   0   8   8  164.65    9.42
   0  -8  -8  110.12    9.08
   0  -8  -8  108.43   10.25
   0   8   8  176.09   11.90
   0   8   9    4.66    4.07
   0  -8  -9    6.87    2.62
   0   8   9   12.05    3.60
   0  -8  -9   10.92    2.36
   0   8   9   16.25    3.74
   0   8   9   11.73    2.16
   0  -8  -9    9.22    2.36
   0   8  10   45.71    8.62
   0   8  10   52.15    6.93
   0  -8 -10   58.33    5.22
   0   8  10   62.31    4.87
   0  -8 -10   50.28    6.68
   0  -8 -10   42.92    5.34
   0   8  11   35.86    8.41
   0  -8 -11   29.05    5.32
   0   8  11   33.11    6.15
   0  -8 -11   35.14    4.13
   0  -8 -11   30.24    4.49
   0  -8 -12    8.49    2.53
   0   8  12    3.75    3.62
   0  -9   4   23.02    3.76
   0   9  -4   20.39    2.90
   0   9  -4   16.33    3.01
   0  -9   3   74.60    7.92
   0  -9   3   88.06    7.30
   0   9  -3   82.56    6.16
   0  -9   3   59.11    5.72
   0   9  -3   72.87    6.33
   0  -9   2   43.18    4.23
   0  -9   2   47.77    6.07
   0   9  -2   41.88    4.61
   0  -9   2   53.61    5.51
   0   9  -2   52.57    4.71
   0  -9   1   11.61    1.90
   0  -9   1   10.18    2.94
   0  -9   1   14.90    3.19
   0   9  -1   14.08    2.42
   0  -9   0   36.14    4.96
   0   9   0   34.47    3.98
   0   9   0   35.85    3.88
   0  -9   0   40.39    4.82
   0   9   1   19.67    2.82
   0  -9  -1   10.35    2.85
   0   9   1   22.71    2.98
   0   9   1   14.84    2.08
   0   9   2   42.28    4.13
   0   9   2   33.16    3.38
   0  -9  -2   40.84    5.26
   0   9   2   40.50    4.17
   0   9   3   23.43    2.09
   0   9   3   21.18    2.81
   0  -9  -3   18.72    3.86
   0   9   3   16.36    2.61
   0   9   3   24.18    3.50
   0  -9  -4   74.60    6.89
   0   9   4   81.77    6.35
   0   9   4   83.39    6.06
   0   9   4   72.59    4.18
   0   9   4   78.03    6.33
   0  -9  -4   71.97    7.92
   0   9   4   91.73    6.63
   0   9   4   97.72    7.49
   0  -9  -5   15.11    3.06
   0   9   5   13.92    3.23
   0   9   5   14.78    2.08
   0   9   5   16.17    2.35
   0   9   5   17.09    2.77
   0   9   5   16.86    3.13
   0   9   5   13.93    3.02
   0   9   5   17.00    2.56
   0   9   6    3.25    1.37
   0   9   6    2.48    1.59
   0  -9  -6    2.06    1.58
   0   9   6    1.53    2.50
   0   9   6    1.62    1.39
   0   9   6    4.16    2.15
   0   9   6    3.72    1.68
   0   9   7   80.70    9.40
   0   9   7   84.19    7.34
   0   9   7  100.06    6.56
   0   9   7  100.35    7.30
   0   9   7  108.11    8.98
   0   9   8    2.20    3.26
   0  -9  -8    0.32    1.84
   0   9   8    1.80    1.16
   0   9   8    1.91    2.02
   0  -9  -8    1.36    1.31
   0  -9  -8    0.86    1.16
   0   9   8    1.15    2.13
   0   9   8    1.13    1.49
   0  -9  -9    0.68    2.12
   0   9   9    5.03    4.11
   0   9   9    4.60    2.58
   0  -9  -9    1.44    1.52
   0  -9  -9    0.79    1.22
   0   9   9    3.42    1.71
   0   9   9    4.96    2.82
   0  -9 -10    3.81    2.62
   0   9  10    5.67    4.71
   0  -9 -10    4.78    2.08
   0   9  10    6.39    3.14
   0  -9 -10    4.71    2.10
   0   9  10    3.95    1.70
   0   9  11    2.51    4.40
   0  -9 -11   -0.72    2.06
   0  10  -3   60.75    5.42
   0 -10   2   13.10    3.47
   0  10  -2    7.69    2.29
   0 -10   2   13.75    3.22
   0  10  -2    8.83    2.40
   0 -10   1    9.88    3.20
   0 -10   1    7.24    2.76
   0  10  -1   12.51    2.50
   0  10   0  100.09    7.95
   0  10   0  113.90    8.19
   0 -10   0  121.93    9.33
   0  10   1    8.80    2.14
   0 -10  -1    5.35    2.69
   0  10   1    7.58    2.19
   0  10   2   18.71    2.88
   0 -10  -2   15.12    3.79
   0  10   2   16.34    2.87
   0  10   3   69.30    5.87
   0 -10  -3   64.55    7.29
   0  10   3   72.58    6.49
   0 -10  -4    2.69    1.89
   0  10   4    6.01    1.76
   0 -10  -4    4.55    3.07
   0  10   4    4.52    2.46
   0  10   4    5.77    2.02
   0  10   5   13.75    2.33
   0 -10  -5    6.04    2.24
   0  10   5   14.54    2.79
   0  10   5   13.42    3.14
   0  10   6   20.53    4.21
   0 -10  -6   19.01    3.49
   0  10   6   25.28    3.15
   0  10   6   29.77    3.74
   0  10   6   27.30    4.54
   0  10   7   82.27    8.84
   0  10   7   75.80    5.95
   0  10   7   87.39    7.03
   0  10   7   82.82    8.13
   0  10   8   14.10    5.06
   0  10   8   18.35    3.11
   0  10   8   14.67    3.86
   0  10   9   47.76    8.09
   0  10   9   56.49    5.29
   0 -10  -9   37.93    6.29
   0  10   9   61.94    7.23
   0  10  10   67.02   10.11
   0  10  10   72.70    6.11
   0 -10 -10   69.97    5.99
   0 -10 -10   54.88    7.74
   0 -10 -11   31.77    4.15
   0  11  -3   36.92    4.27
   0  11  -2    0.92    1.60
   0  11  -1    9.38    2.48
   0  11   0   37.92    4.64
   0  11   0   41.87    4.75
   0  11   1   24.04    3.65
   0 -11  -1   18.13    4.14
   0  11   1   23.25    3.51
   0  11   2   44.89    4.86
   0 -11  -2   43.21    5.91
   0  11   2   47.06    5.07
   0  11   3  388.02   21.44
   0  11   3  399.35   21.90
   0 -11  -3  396.27   23.91
   0 -11  -4   98.46    8.81
   0  11   4   93.33    7.33
   0 -11  -4   89.76    9.34
   0  11   4   97.51    7.84
   0  11   4  104.85    8.54
   0  11   5   -0.16    1.45
   0 -11  -5    1.55    1.81
   0  11   5   -0.20    1.70
   0  11   5    1.57    2.29
   0  11   6   19.40    2.94
   0 -11  -6   21.22    3.90
   0  11   6   15.20    3.80
   0  11   6   18.28    3.35
   0  11   7   22.24    3.11
   0  11   7   21.46    3.63
   0  11   7   22.37    4.39
   0  11   8    1.00    1.75
   0  11   8    0.65    2.61
   0  11   9   28.68    4.05
   0  12   3   69.08    6.31
   0  12   4   15.70    2.98
   0  12   5    7.44    2.28
   0  12   5    4.65    2.81
   0  12   6   75.11    6.49
   0  12   6   86.96    8.50
   0  12   7   -0.51    1.58
   0  12   7   -0.32    2.58
  -1  12   7   15.46    4.09
  -1  12   6   34.11    4.01
  -1  12   6   30.23    5.15
  -1  12   5   37.58    4.33
  -1  12   5   38.21    5.39
  -1  12   4    0.76    1.55
   1 -12  -4   -0.42    3.39
  -1  12   3   43.29    5.05
   1 -12  -3   46.80    7.22
  -1  11   8    3.76    2.01
  -1  11   8    3.54    2.75
  -1  11   7   79.94    6.36
  -1  11   7   96.56    7.55
  -1  11   7   96.96    8.99
   1 -11  -6   27.28    4.30
  -1  11   6   28.34    3.51
  -1  11   6   27.54    3.87
  -1  11   6   30.32    4.81
  -1  11   5   20.36    3.01
   1 -11  -5   18.55    3.77
  -1  11   5   17.12    3.22
  -1  11   5   15.76    3.57
   1 -11  -4   82.43    8.01
  -1  11   4   79.55    6.66
   1 -11  -4   81.58    9.46
  -1  11   4   89.47    7.39
  -1  11   4   92.89    7.95
   1 -11  -3   40.62    5.39
  -1  11   3   39.28    4.46
  -1  11   3   37.91    4.65
   1 -11  -3   38.72    6.49
  -1  11   3   38.60    4.77
   1 -11  -2    6.28    2.53
  -1  11   2    8.58    2.35
   1 -11  -2    6.37    3.53
  -1  11   2    8.59    2.43
   1 -11  -1  123.84   10.63
  -1  11   1  135.87    9.48
   1 -11  -1  123.21   11.14
  -1  11   1  124.86    9.23
   1 -11   0  763.33   40.37
  -1  11   0  682.29   37.55
  -1  11   0  767.85   37.81
   1 -11   0  810.61   40.67
  -1  11  -1   42.56    4.72
  -1  11  -2    6.45    2.18
  -1  11  -3   15.47    2.95
  -1  10  10    3.77    3.94
  -1  10  10    8.52    2.33
  -1  10   9    2.86    3.78
   1 -10  -9    2.33    2.78
  -1  10   9    1.41    1.68
  -1  10   8   57.97    8.32
  -1  10   8   62.57    5.76
  -1  10   8   75.31    7.66
  -1  10   7  416.76   26.77
  -1  10   7  425.28   22.67
  -1  10   7  475.85   24.10
  -1  10   7  492.79   26.18
  -1  10   6   73.95    7.79
   1 -10  -6   62.79    6.51
  -1  10   6   78.36    5.83
  -1  10   6   80.26    6.55
  -1  10   6   84.45    7.69
   1 -10  -5   14.62    3.15
  -1  10   5   16.11    2.56
   1 -10  -5   16.08    4.85
  -1  10   5   22.51    3.31
  -1  10   5   18.08    3.49
   1 -10  -4  113.66    9.36
  -1  10   4  115.22    8.05
   1 -10  -4   99.72   10.83
  -1  10   4  121.53    8.67
  -1  10   4  129.77    9.39
   1 -10  -3   24.08    4.02
  -1  10   3   30.12    3.57
   1 -10  -3   26.25    5.18
  -1  10   3   32.55    4.13
   1 -10  -2    4.65    2.28
  -1  10   2    5.51    1.94
   1 -10  -2    5.04    2.99
  -1  10   2    7.61    2.33
  -1  10   2    6.45    2.09
   1 -10  -1   24.25    4.31
  -1  10   1   30.09    3.77
   1 -10  -1   22.73    4.67
  -1  10   1   22.24    3.27
   1 -10   0   59.18    6.69
  -1  10   0   52.08    5.31
  -1  10   0   62.56    5.60
   1 -10   0   62.26    6.97
   1 -10   1    1.50    2.15
  -1  10  -1    2.10    1.57
   1 -10   1    4.56    2.74
  -1  10  -1    3.60    1.77
   1 -10   2    8.62    3.04
  -1  10  -2    6.12    1.97
   1 -10   3   90.28    8.59
  -1  10  -3   93.44    7.01
  -1  10  -4    3.31    1.76
   1  -9 -10    8.35    3.45
  -1   9  10   12.83  102.28
   1  -9 -10   10.59    2.44
  -1   9  10   15.66    2.62
   1  -9  -9    5.20    2.84
  -1   9   9   12.45    4.76
   1  -9  -9    8.14    2.06
  -1   9   9   14.26    2.63
  -1   9   9   18.60    3.95
   1  -9  -8    8.02    3.23
  -1   9   8    5.24    3.64
  -1   9   8    6.86    2.08
  -1   9   8   12.32    3.42
  -1   9   7   72.42    8.90
  -1   9   7   90.90    5.95
  -1   9   7   94.07    6.87
  -1   9   7  101.89    8.53
   1  -9  -7   67.13    8.09
   1  -9  -6   50.20    5.35
  -1   9   6   47.39    6.50
  -1   9   6   54.72    4.45
  -1   9   6   61.09    5.33
  -1   9   6   66.98    6.38
  -1   9   5    3.61    2.39
   1  -9  -5    2.03    1.53
  -1   9   5    2.66    1.32
   1  -9  -5    2.03    3.07
  -1   9   5    1.81    1.45
  -1   9   5    1.29    1.66
   1  -9  -4  160.10   11.56
  -1   9   4  164.49   10.85
  -1   9   4  163.54   10.35
   1  -9  -4  160.74   13.67
  -1   9   4  203.59   11.47
  -1   9   4  194.37   11.94
   1  -9  -3    6.56    2.12
  -1   9   3    8.46    1.56
  -1   9   3    4.90    1.57
   1  -9  -3    9.08    3.51
  -1   9   3    5.63    1.88
   1  -9  -2   20.36    3.40
  -1   9   2   16.16    2.57
   1  -9  -2   17.29    4.11
  -1   9   2   11.78    2.28
  -1   9   2   14.54    2.62
  -1   9   2   11.44    2.32
   1  -9  -1   99.92    8.51
  -1   9   1  104.39    7.29
  -1   9   1   81.68    6.50
   1  -9  -1  113.12    9.35
  -1   9   1  100.74    7.34
  -1   9   1  101.13    7.09
   1  -9   0   70.98    7.03
  -1   9   0   65.42    5.75
  -1   9   0   72.25    5.91
   1  -9   0   73.21    7.24
  -1   9  -1   14.75    2.67
  -1   9  -1   19.86    2.92
   1  -9   1   12.95    3.56
   1  -9   2   53.61    5.91
  -1   9  -2   41.21    4.27
  -1   9  -3   10.69    2.54
   1  -9   3   13.58    3.22
  -1   9  -3   13.03    2.41
  -1   9  -4    2.54    1.72
   1  -9   4    3.51    2.41
  -1   9  -4    4.75    1.66
   1  -9   5   69.51    7.20
  -1   8  11   28.51    5.74
  -1   8  10    1.72    3.51
   1  -8 -10    0.70    2.26
  -1   8  10    2.52    2.72
   1  -8 -10    0.74    1.55
  -1   8  10    0.92    1.29
  -1   8   9   18.46    5.73
   1  -8  -9   16.08    3.94
  -1   8   9   16.32    3.96
  -1   8   9   22.66    2.89
   1  -8  -9   16.89    2.73
  -1   8   9   22.94    4.29
  -1   8   8   50.24    7.59
  -1   8   8   53.17    6.08
  -1   8   8   52.13    4.60
   1  -8  -8   46.46    4.21
   1  -8  -8   39.08    5.82
  -1   8   8   56.76    6.21
  -1   8   7   32.78    5.81
  -1   8   7   28.94    2.73
  -1   8   7   24.09    3.78
  -1   8   7   29.02    3.35
  -1   8   7   31.19    3.16
   1  -8  -7   26.17    4.53
  -1   8   7   31.79    4.42
   1  -8  -6   11.42    3.15
  -1   8   6   10.49    3.57
  -1   8   6   12.76    1.86
  -1   8   6   12.57    2.42
  -1   8   6   11.70    2.00
  -1   8   6   13.38    2.47
  -1   8   6   11.73    2.73
  -1   8   6   12.02    2.20
  -1   8   5   34.03    4.84
  -1   8   5   34.80    3.26
  -1   8   5   41.64    3.52
  -1   8   5   37.48    3.56
  -1   8   5   42.71    4.00
  -1   8   5   37.75    4.46
  -1   8   5   43.14    3.89
   1  -8  -4   24.31    3.40
  -1   8   4   21.67    3.51
  -1   8   4   23.57    2.76
   1  -8  -4   31.44    5.48
  -1   8   4   22.06    3.55
  -1   8   4   27.57    3.23
  -1   8   4   25.55    2.85
  -1   8   4   25.11    3.47
  -1   8   4   26.22    2.76
   1  -8  -3   79.23    7.14
  -1   8   3   92.72    6.55
  -1   8   3   95.71    6.51
   1  -8  -3   83.98    8.70
  -1   8   3   77.51    6.77
  -1   8   3  110.38    7.20
  -1   8   3   90.10    6.48
  -1   8   3  101.87    7.28
  -1   8   3  110.85    6.03
   1  -8  -2   44.70    4.94
  -1   8   2   49.83    3.07
  -1   8   2   42.07    4.05
  -1   8   2   48.06    4.20
   1  -8  -2   39.00    5.62
  -1   8   2   40.45    4.21
  -1   8   2   53.91    4.69
  -1   8   2   49.30    2.87
   1  -8  -1  154.74   10.92
  -1   8   1  147.53    9.45
   1  -8  -1  148.07   11.20
  -1   8   1  134.41    9.15
  -1   8   1  169.39    9.92
  -1   8   1  168.03    9.63
   1  -8   0   44.23    5.17
   1  -8   0   52.54    5.59
  -1   8   0   37.70    3.72
  -1   8   0   47.25    4.31
  -1   8   0   45.46    4.28
   1  -8   1   24.75    2.03
  -1   8  -1   16.38    2.57
   1  -8   1   26.09    3.90
  -1   8  -1   15.03    2.29
  -1   8  -1   15.81    2.46
   1  -8   2   23.60    2.70
  -1   8  -2   28.52    3.24
   1  -8   2   28.59    4.11
  -1   8  -3   25.54    3.28
   1  -8   3   27.02    3.97
  -1   8  -3   25.01    2.87
   1  -8   4    5.83    2.17
  -1   8  -4    5.12    1.86
   1  -8   4    6.79    2.56
  -1   8  -4    8.65    1.91
   1  -8   5   17.41    4.31
  -1   8  -5   16.38    2.94
   1  -8   5   20.98    3.67
   1  -8   5   24.08    4.08
  -1   8  -5   18.17    2.48
  -1   8  -6   10.10    2.60
   1  -8   6   18.51    3.76
   1  -8   7    1.65    2.29
  -1   7  11    3.03    3.38
   1  -7 -11    5.00    1.92
  -1   7  10   32.79    7.34
  -1   7  10   44.49    6.70
   1  -7 -10   40.78    4.20
  -1   7  10   46.84    5.97
  -1   7  10   50.26    4.09
   1  -7 -10   40.56    6.13
  -1   7   9   37.54    7.60
  -1   7   9   57.01    7.17
   1  -7  -9   50.49    4.47
  -1   7   9   60.64    4.61
   1  -7  -9   46.25    6.32
  -1   7   8  831.63   44.45
  -1   7   8  842.93   40.74
  -1   7   8  806.94   36.83
  -1   7   8  924.08   40.31
  -1   7   7  141.82   13.21
  -1   7   7  147.86   11.16
  -1   7   7  165.68    8.60
   1  -7  -7  150.11    9.29
  -1   7   7  167.49    9.69
   1  -7  -7  140.75   11.40
  -1   7   7  183.75   11.75
  -1   7   6    6.50    3.28
   1  -7  -6    7.74    2.55
  -1   7   6   11.86    1.55
  -1   7   6    8.35    2.22
  -1   7   6   11.87    2.03
  -1   7   6    9.47    1.68
   1  -7  -6    7.92    1.59
  -1   7   6   10.50    2.49
  -1   7   6    9.85    2.14
  -1   7   5    1.39    1.95
   1  -7  -5    0.63    0.98
   1  -7  -5    0.51    1.47
  -1   7   5    1.15    0.80
  -1   7   5    0.54    1.12
  -1   7   5    0.68    0.98
  -1   7   5    1.76    1.77
  -1   7   5   -0.13    0.89
  -1   7   5    0.54    1.21
  -1   7   5    1.01    0.94
  -1   7   4   30.56    4.17
   1  -7  -4   21.40    3.13
  -1   7   4   29.83    2.72
  -1   7   4   34.48    3.01
   1  -7  -4   28.30    5.03
  -1   7   4   32.54    3.06
  -1   7   4   35.50    3.47
  -1   7   4   27.11    3.97
  -1   7   4   40.75    3.40
  -1   7   4   41.45    4.13
  -1   7   3   36.77    3.93
  -1   7   3   38.48    4.14
   1  -7  -3   33.89    3.86
  -1   7   3   36.47    3.33
   1  -7  -3   35.76    5.09
  -1   7   3   38.18    3.62
  -1   7   3   37.86    3.36
  -1   7   3   32.03    3.95
  -1   7   3   44.72    3.22
  -1   7   3   36.56    3.79
  -1   7   3   44.78    4.74
  -1   7   2   24.77    2.45
   1  -7  -2   23.03    3.28
  -1   7   2   27.16    2.80
   1  -7  -2   20.88    3.95
  -1   7   2   19.70    2.80
  -1   7   2   24.00    2.66
  -1   7   2   27.54    2.10
  -1   7   2   31.44    4.04
  -1   7   2   28.38    3.09
   1  -7  -1   10.42    2.30
  -1   7   1   10.62    1.84
   1  -7  -1    9.43    2.48
  -1   7   1    9.35    1.88
  -1   7   1    8.79    1.72
  -1   7   1   10.80    1.85
   1  -7   0   33.70    4.36
  -1   7   0   45.22    3.93
  -1   7   0   39.70    3.62
   1  -7   0   39.74    4.65
  -1   7   0   45.18    3.58
   1  -7   1   46.74    4.81
  -1   7  -1   38.33    3.52
  -1   7  -1   44.67    3.84
   1  -7   1   36.39    2.91
   1  -7   2   98.25    7.42
  -1   7  -2   93.03    6.26
   1  -7   2   78.78    5.92
   1  -7   3   26.90    3.74
  -1   7  -3   26.57    2.81
   1  -7   3   19.31    2.97
   1  -7   4   34.71    2.90
   1  -7   4   38.18    2.66
   1  -7   4   32.93    4.25
  -1   7  -4   41.94    3.55
   1  -7   4   43.83    4.93
  -1   7  -5   78.09    6.75
   1  -7   5   85.63    7.94
  -1   7  -5   99.32    6.22
   1  -7   6   13.00    3.34
  -1   7  -6   14.20    2.68
   1  -7   6   20.00    3.68
  -1   7  -7   15.75    2.97
   1  -7   7   17.82    4.11
   1  -7   8    5.06    3.09
   1  -6 -12   65.22    6.01
   1  -6 -11    2.61    2.72
  -1   6  11    5.18    4.36
  -1   6  11    3.16    3.04
   1  -6 -11    3.28    1.82
  -1   6  11    3.67    2.54
  -1   6  10   28.36    6.84
  -1   6  10   28.42    5.72
   1  -6 -10   33.94    3.84
  -1   6  10   39.09    5.40
   1  -6 -10   31.86    5.31
  -1   6   9   45.78    7.85
  -1   6   9   45.44    6.38
   1  -6  -9   40.84    3.99
  -1   6   9   58.35    6.08
   1  -6  -9   30.75    4.30
   1  -6  -9   30.90    5.12
  -1   6   9   52.12    3.83
  -1   6   8   61.52    8.81
  -1   6   8   85.07    8.28
   1  -6  -8   74.57    5.52
  -1   6   8   99.81    5.78
   1  -6  -8   73.92    7.39
   1  -6  -8   59.12    5.97
  -1   6   7   64.74    8.44
  -1   6   7   74.11    7.26
  -1   6   7   81.60    4.36
   1  -6  -7   68.25    5.19
  -1   6   7   92.00    5.69
   1  -6  -7   67.02    6.99
  -1   6   7   95.22    7.28
   1  -6  -7   58.61    5.67
   1  -6  -6    5.95    2.11
  -1   6   6    6.33    2.94
  -1   6   6    8.85    1.22
  -1   6   6    9.46    2.37
  -1   6   6    6.78    1.36
   1  -6  -6    8.62    1.58
  -1   6   6   11.88    2.31
   1  -6  -6    6.99    1.61
  -1   6   6    7.85    1.59
  -1   6   6    9.61    2.18
  -1   6   5  122.42    7.66
  -1   6   5   82.86    8.62
  -1   6   5   93.60    7.19
  -1   6   5  106.38    6.09
   1  -6  -5   99.28    6.36
  -1   6   5  106.81    6.40
  -1   6   5   97.27    8.77
  -1   6   5  107.19    6.82
  -1   6   5  106.52    7.58
  -1   6   5  123.43    7.51
  -1   6   5  117.29    8.43
   1  -6  -5   84.53    7.91
   1  -6  -4   10.16    1.87
   1  -6  -4   10.56    2.38
  -1   6   4    6.20    2.45
  -1   6   4    9.62    1.95
  -1   6   4   10.43    2.31
  -1   6   4   11.24    1.51
  -1   6   4    8.10    1.65
  -1   6   4    8.53    1.43
  -1   6   4    9.53    2.53
  -1   6   4   11.46    1.82
   1  -6  -4    9.31    2.99
  -1   6   4   10.20    1.98
  -1   6   4   11.09    1.74
   1  -6  -3   57.00    5.06
  -1   6   3   72.54    5.52
  -1   6   3   63.71    5.64
  -1   6   3   72.23    4.64
  -1   6   3   58.56    3.86
   1  -6  -3   59.26    6.62
  -1   6   3   62.85    5.72
  -1   6   3   71.66    4.99
  -1   6   3   62.88    4.47
  -1   6   3   69.67    5.23
  -1   6   3   77.15    4.65
  -1   6   3   75.83    6.12
  -1   6   2  186.79   10.84
  -1   6   2  199.52   11.80
   1  -6  -2  183.35   11.52
  -1   6   2  182.27   10.55
  -1   6   2  190.78   10.85
   1  -6  -2  167.42   12.52
  -1   6   2  188.31   10.56
  -1   6   2  168.88   11.21
  -1   6   2  227.90   10.08
  -1   6   2  231.59   12.83
  -1   6   2  200.57   11.08
  -1   6   1    2.41    0.65
  -1   6   1    4.27    1.59
   1  -6  -1    2.04    1.17
   1  -6  -1    1.97    1.46
  -1   6   1    0.83    0.92
  -1   6   1    3.05    1.04
  -1   6   1    2.87    0.50
  -1   6   0   21.22    2.58
  -1   6   0   27.91    2.75
   1  -6   0   29.31    3.56
  -1   6   0   25.75    2.45
   1  -6   1   64.34    4.33
  -1   6  -1   61.74    4.72
  -1   6  -1   68.35    4.90
  -1   6  -2   70.75    5.56
   1  -6   2   66.41    5.22
  -1   6  -2   70.92    5.05
   1  -6   2   86.83    6.34
   1  -6   3    4.00    1.17
   1  -6   3    4.97    0.96
  -1   6  -3    4.46    1.89
   1  -6   3    3.18    1.56
   1  -6   3    5.51    1.88
  -1   6  -3    7.20    1.39
   1  -6   4  211.03   10.26
   1  -6   4  158.45   10.90
   1  -6   4  160.96   12.10
  -1   6  -4  179.36   12.64
  -1   6  -4  184.66   10.41
   1  -6   4  203.27   12.32
   1  -6   4  217.63   11.64
  -1   6  -4  199.59    9.92
   1  -6   5  646.90   38.57
   1  -6   5  638.11   39.43
   1  -6   5  850.35   39.74
  -1   6  -5  798.32   36.80
   1  -6   5  789.53   38.62
  -1   6  -5  842.99   36.85
   1  -6   6   23.54    3.93
   1  -6   6   20.99    4.16
  -1   6  -6   25.64    2.35
   1  -6   6   22.93    3.91
   1  -6   7    2.04    2.08
  -1   6  -7    1.13    1.35
   1  -6   7    3.97    2.34
  -1   6  -8   -0.33    1.38
   1  -6   8    1.90    2.50
   1  -6   8    1.01    1.98
  -1   6  -9   32.84    4.06
   1  -5 -12   29.69    4.02
   1  -5 -11    2.96    2.60
  -1   5  11    0.65    2.89
  -1   5  11    0.47    2.87
   1  -5 -11    1.85    1.77
  -1   5  11    0.87    2.11
  -1   5  10   12.46    4.89
   1  -5 -10   15.09    3.73
  -1   5  10   10.58    3.85
   1  -5 -10   15.64    2.71
   1  -5 -10   12.18    2.89
  -1   5  10   14.99    3.40
  -1   5   9  149.44   14.63
  -1   5   9  158.49   12.98
   1  -5  -9  163.09    9.47
  -1   5   9  180.32   11.48
   1  -5  -9  138.04   11.48
  -1   5   8   20.39    5.40
  -1   5   8   22.17    4.40
   1  -5  -8   32.80    3.30
   1  -5  -8   25.67    3.59
  -1   5   8   32.12    2.77
  -1   5   8   36.47    4.33
   1  -5  -8   25.78    4.25
   1  -5  -7   16.91    3.25
  -1   5   7   14.96    4.40
   1  -5  -7   18.50    3.54
  -1   5   7   14.37    3.18
  -1   5   7   17.33    1.11
   1  -5  -7   24.94    2.63
  -1   5   7   21.08    2.19
   1  -5  -7   18.86    2.82
  -1   5   6  338.57   15.16
  -1   5   6  236.86   17.83
  -1   5   6  245.07   15.79
   1  -5  -6  252.49   15.66
  -1   5   6  253.40   12.63
  -1   5   6  280.70   13.81
   1  -5  -6  258.96   13.71
  -1   5   6  300.24   15.52
   1  -5  -6  230.51   15.44
  -1   5   6  309.90   15.51
   1  -5  -6  225.82   14.35
  -1   5   5   73.50    7.86
  -1   5   5   91.02    6.15
  -1   5   5   85.66    4.79
  -1   5   5   74.28    6.39
   1  -5  -5   89.07    5.39
  -1   5   5   81.02    5.19
  -1   5   5   86.01    5.51
  -1   5   5   74.61    7.62
   1  -5  -5   76.70    5.82
   1  -5  -5   73.85    6.65
  -1   5   5  105.89    6.54
  -1   5   5   92.40    6.85
  -1   5   5   90.27    6.48
  -1   5   4   39.06    4.91
   1  -5  -4   37.51    3.56
  -1   5   4   49.16    4.00
  -1   5   4   38.65    3.74
  -1   5   4   45.02    3.05
  -1   5   4   43.25    3.18
  -1   5   4   39.40    4.84
   1  -5  -4   40.51    5.43
  -1   5   4   47.39    3.60
   1  -5  -4   39.98    3.14
  -1   5   4   50.93    3.85
  -1   5   4   45.41    4.46
  -1   5   4   46.72    4.02
   1  -5  -3  339.22   19.48
  -1   5   3  399.77   19.88
  -1   5   3  356.71   20.71
  -1   5   3  395.81   18.78
  -1   5   3  337.84   18.84
  -1   5   3  370.61   20.86
  -1   5   3  373.36   18.80
  -1   5   3  419.77   19.43
   1  -5  -3  373.13   22.15
  -1   5   3  402.16   19.71
  -1   5   3  418.72   20.76
  -1   5   3  457.70   19.35
  -1   5   2 3903.62  186.60
   1  -5  -2 3810.13  186.38
  -1   5   2 4114.13  186.90
  -1   5   2 4142.59  185.41
  -1   5   2 4094.95  185.79
   1  -5  -2 3840.87  189.76
  -1   5   2 3548.34  186.65
  -1   5   2 4397.53  185.12
  -1   5   2 4625.48  187.92
  -1   5   2 4162.00  185.98
  -1   5   1  246.60   12.64
  -1   5   1  261.82   14.31
   1  -5  -1  239.94   13.93
  -1   5   1  201.81   13.26
   1  -5  -1  235.18   14.62
  -1   5   1  282.55   12.21
  -1   5   1  309.56   15.39
  -1   5   1  245.69   13.02
  -1   5   0    2.72    0.94
   1  -5   0    5.06    1.56
  -1   5   0    3.90    0.99
  -1   5   0    2.71    0.77
  -1   5  -1   73.94    4.62
   1  -5   1   64.36    5.18
  -1   5  -1   70.06    4.68
  -1   5  -1   73.36    4.62
  -1   5  -1   65.05    3.88
   1  -5   2  127.69    6.39
  -1   5  -2  114.02    7.74
   1  -5   2   99.34    7.43
   1  -5   2  128.03    8.21
  -1   5  -2  116.84    7.03
  -1   5  -2  127.99    6.27
   1  -5   3   41.72    3.91
   1  -5   3   42.59    4.46
  -1   5  -3   40.79    4.51
  -1   5  -3   44.56    3.41
   1  -5   3   49.05    4.46
   1  -5   3   50.55    4.08
  -1   5  -3   48.15    3.19
   1  -5   4   61.97    5.91
  -1   5  -4   71.14    6.74
   1  -5   4   64.28    6.43
  -1   5  -4   77.74    4.88
   1  -5   4   78.33    6.18
   1  -5   4   86.78    6.18
  -1   5  -4   86.78    5.06
   1  -5   5   66.12    6.52
  -1   5  -5   73.84    7.32
   1  -5   5   71.13    7.20
  -1   5  -5   77.73    4.78
   1  -5   5   81.17    6.52
  -1   5  -5   77.26    5.24
   1  -5   5   84.65    6.61
   1  -5   6   19.30    3.79
   1  -5   6   20.58    4.16
   1  -5   6   28.75    3.90
  -1   5  -6   28.91    2.25
  -1   5  -6   29.68    3.05
   1  -5   6   25.74    3.75
   1  -5   7   19.97    4.12
   1  -5   7   11.11    3.54
   1  -5   7   15.60    3.16
  -1   5  -7   15.69    2.37
   1  -5   8   23.24    4.80
  -1   5  -8   22.68    3.13
   1  -5   8   23.63    4.90
   1  -5   8   34.27    4.54
   1  -5   9   15.36    4.48
  -1   5  -9   10.75    2.38
   1  -5   9   18.30    3.73
   1  -4 -12    4.00    2.18
  -1   4  12    6.61    2.90
  -1   4  11    1.46    2.97
   1  -4 -11    4.33    1.88
  -1   4  11   -1.93    2.56
  -1   4  10   43.67    8.23
  -1   4  10   50.53    7.46
   1  -4 -10   45.66    4.61
  -1   4  10   54.16    5.93
  -1   4   9  747.12   46.05
  -1   4   9  773.35   43.65
   1  -4  -9  866.31   38.95
  -1   4   9  729.33   40.26
  -1   4   8  122.82   12.86
  -1   4   8  133.65   11.59
   1  -4  -8  134.60    8.46
  -1   4   8  156.05   10.01
  -1   4   7   19.98    4.82
   1  -4  -7   17.90    3.72
  -1   4   7   24.33    4.11
   1  -4  -7   22.15    2.59
   1  -4  -7   18.22    2.83
  -1   4   7   29.02    3.55
  -1   4   7   28.10    2.31
  -1   4   6  296.82   15.76
  -1   4   6  245.47   18.22
  -1   4   6  329.97   14.92
  -1   4   6  260.98   16.48
   1  -4  -6  230.82   15.84
  -1   4   6  283.91   13.73
   1  -4  -6  256.16   13.92
  -1   4   6  232.88   17.38
   1  -4  -6  221.00   14.67
  -1   4   6  328.53   15.92
  -1   4   5   82.94    8.26
  -1   4   5  113.54    6.30
   1  -4  -5   66.28    6.36
  -1   4   5   80.52    6.78
  -1   4   5   91.41    4.58
   1  -4  -5   75.87    5.19
  -1   4   5   80.35    7.88
  -1   4   5   94.32    5.41
   1  -4  -5   62.06    5.57
  -1   4   5   97.29    6.81
  -1   4   5   98.44    6.51
  -1   4   5  110.84    6.69
  -1   4   4   32.97    2.97
  -1   4   4   21.97    3.76
  -1   4   4   26.06    3.06
   1  -4  -4   26.04    3.09
  -1   4   4   32.26    2.11
  -1   4   4   32.95    2.60
  -1   4   4   27.75    2.28
  -1   4   4   29.33    4.20
   1  -4  -4   24.78    2.21
   1  -4  -4   24.16    2.58
  -1   4   4   33.44    3.53
  -1   4   4   35.95    3.22
  -1   4   4   37.43    3.16
  -1   4   3   17.13    2.81
   1  -4  -3   11.30    1.62
  -1   4   3   18.56    2.03
  -1   4   3   13.15    1.80
  -1   4   3   16.64    1.46
   1  -4  -3   11.82    1.73
  -1   4   3   12.94    2.52
  -1   4   3   15.52    1.53
  -1   4   3   16.22    1.73
   1  -4  -3   12.11    1.36
   1  -4  -3   10.07    2.61
  -1   4   3   15.36    1.91
  -1   4   3   18.19    1.87
  -1   4   3   19.98    2.51
  -1   4   2  115.29    7.81
  -1   4   2  123.53    7.32
   1  -4  -2  113.73    7.12
  -1   4   2  112.00    6.30
  -1   4   2  123.37    6.60
  -1   4   2  126.71    6.95
  -1   4   2  107.63    7.79
   1  -4  -2  106.34    8.43
  -1   4   2  128.14    7.08
  -1   4   2  136.76    8.08
  -1   4   2  137.42    6.78
   1  -4  -1   69.98    5.81
  -1   4   1  105.50    5.96
   1  -4  -1   87.26    6.17
  -1   4   1  108.52    6.64
  -1   4   1   88.68    6.26
   1  -4  -1   80.57    6.67
  -1   4   1  120.97    5.38
  -1   4   1  132.88    7.64
  -1   4   1  105.28    5.84
   1  -4   0   25.81    2.05
  -1   4   0   26.86    1.75
  -1   4   0   24.12    2.44
   1  -4   0   31.52    3.08
  -1   4   0   26.60    2.29
  -1   4   0   27.09    2.04
  -1   4   0   25.71    2.01
   1  -4   1  602.88   26.01
  -1   4  -1  569.85   26.83
   1  -4   1  511.04   26.63
  -1   4  -1  523.29   26.83
  -1   4  -1  584.68   26.72
   1  -4   1  637.83   27.90
  -1   4  -1  558.60   25.90
  -1   4  -1  531.87   25.91
   1  -4   2    3.49    0.72
  -1   4  -2    1.53    1.08
   1  -4   2    3.12    1.11
  -1   4  -2    2.84    0.98
   1  -4   2    3.63    1.14
  -1   4  -2    3.09    0.78
   1  -4   2    3.50    1.02
  -1   4  -2    3.51    0.68
   1  -4   3  104.55    7.63
  -1   4  -3   95.56    7.32
   1  -4   3  111.15    7.11
  -1   4  -3   96.32    5.87
  -1   4  -3  100.94    5.94
   1  -4   4  129.79   10.04
  -1   4  -4  128.46    9.89
   1  -4   4  151.04    9.22
  -1   4  -4  142.95    7.66
   1  -4   4  161.86    9.47
  -1   4  -4  145.91    8.23
   1  -4   5   27.98    4.30
  -1   4  -5   28.49    4.41
   1  -4   5   34.48    3.73
  -1   4  -5   28.27    2.21
  -1   4  -5   26.90    2.87
   1  -4   5   37.29    3.94
   1  -4   6    8.41    2.78
   1  -4   6   11.56    3.29
   1  -4   6   13.07    2.61
   1  -4   6   14.01    2.68
  -1   4  -6   11.96    2.01
  -1   4  -6   11.20    1.19
   1  -4   7   14.52    3.75
   1  -4   7   11.58    3.64
   1  -4   7   13.71    2.80
  -1   4  -7   14.45    2.35
   1  -4   8   80.59    9.27
   1  -4   8   87.54    9.51
   1  -4   8  105.16    7.99
  -1   4  -8   79.01    6.53
   1  -4   9   13.60    4.24
   1  -4   9   13.91    4.33
  -1   4  -9   15.80    2.51
   1  -4   9   24.02    3.98
   1  -3 -12    8.36    2.80
  -1   3  12    8.21    3.15
  -1   3  11   19.74    6.00
  -1   3  11   25.90    6.01
   1  -3 -11   17.00    3.25
  -1   3  11   28.64    4.37
  -1   3  10   15.82    4.59
   1  -3 -10   22.61    3.19
  -1   3  10   19.11    3.60
   1  -3 -10   10.43    2.70
  -1   3   9   66.22    8.24
   1  -3  -9   75.01    5.73
   1  -3  -9   55.24    5.83
  -1   3   9   69.14    6.29
  -1   3   8   80.54    9.96
  -1   3   8   82.01    8.88
   1  -3  -8   95.01    6.39
   1  -3  -8   70.65    6.62
  -1   3   8   99.14    7.26
  -1   3   7   34.51    6.07
  -1   3   7   43.75    5.59
   1  -3  -7   36.59    3.44
  -1   3   7   45.76    4.35
  -1   3   6  333.50   23.21
  -1   3   6  347.30   21.65
   1  -3  -6  322.05   21.19
   1  -3  -6  372.06   18.94
  -1   3   6  323.35   22.58
  -1   3   6  416.07   20.26
  -1   3   6  454.97   20.93
  -1   3   6  396.91   18.37
  -1   3   5   44.53    5.96
  -1   3   5   56.04    4.67
  -1   3   5   48.08    5.08
   1  -3  -5   45.90    4.91
  -1   3   5   52.40    3.41
  -1   3   5   49.82    6.01
   1  -3  -5   53.66    3.67
  -1   3   5   66.97    4.84
  -1   3   4   47.18    3.39
  -1   3   4   30.76    4.55
  -1   3   4   38.57    2.26
  -1   3   4   40.30    4.02
   1  -3  -4   44.86    4.21
  -1   3   4   30.77    4.44
   1  -3  -4   50.02    3.05
  -1   3   4   41.76    2.91
  -1   3   4   46.78    3.68
   1  -3  -4   51.64    3.76
  -1   3   4   40.22    3.76
  -1   3   3  133.07    9.68
  -1   3   3  151.77    8.05
   1  -3  -3  132.19    8.36
  -1   3   3  127.39    8.37
  -1   3   3  147.74    7.12
  -1   3   3  143.47    7.34
  -1   3   3  152.32    7.67
  -1   3   3  137.17    9.73
   1  -3  -3  138.17    7.34
   1  -3  -3  137.95    7.53
  -1   3   3  168.62    8.32
   1  -3  -3  138.94    7.94
  -1   3   3  157.04    8.92
   1  -3  -2  187.43   11.61
  -1   3   2  211.66   10.61
  -1   3   2  190.38   11.56
   1  -3  -2  193.81   10.44
   1  -3  -2  183.35   10.26
  -1   3   2  184.62   10.31
  -1   3   2  200.53    9.87
  -1   3   2  220.32   10.32
  -1   3   2  188.22   11.58
  -1   3   2  211.48   11.21
  -1   3   2  240.41   10.50
  -1   3   1   39.17    2.96
   1  -3  -1   30.92    2.71
  -1   3   1   40.23    3.00
   1  -3  -1   32.54    2.96
  -1   3   1   38.69    2.63
  -1   3   1   34.67    3.16
   1  -3  -1   31.51    2.43
   1  -3  -1   30.04    3.22
  -1   3   1   39.62    3.40
  -1   3   1   40.07    2.33
  -1   3   0  111.17    5.84
   1  -3   0  121.98    6.19
   1  -3   0  130.73    7.20
   1  -3   1   74.28    3.69
   1  -3   1   61.93    3.99
  -1   3  -1   57.73    4.02
   1  -3   1   73.11    4.59
  -1   3  -1   64.26    3.84
  -1   3  -1   57.95    3.21
  -1   3  -1   57.27    3.63
  -1   3  -2    3.14    1.10
   1  -3   2    2.91    1.04
   1  -3   2    4.06    1.05
   1  -3   2    3.18    0.99
  -1   3  -2    3.39    0.67
  -1   3  -2    3.33    0.68
  -1   3  -3  411.02   22.83
   1  -3   3  409.57   22.86
   1  -3   3  453.09   22.13
  -1   3  -3  442.02   20.84
  -1   3  -3  443.94   21.40
   1  -3   3  480.52   22.40
  -1   3  -4 2104.14   79.68
   1  -3   4 1934.55   79.79
  -1   3  -4 1558.31   74.73
   1  -3   4 1719.41   76.65
   1  -3   4 1622.47   76.77
  -1   3  -4 1547.04   75.77
   1  -3   5  216.90   15.34
  -1   3  -5  230.10   15.52
   1  -3   5  261.51   14.24
  -1   3  -5  255.17   12.05
  -1   3  -5  252.66   13.64
   1  -3   5  263.55   14.71
   1  -3   6   20.92    3.98
   1  -3   6   24.49    3.18
   1  -3   6   24.11    3.44
  -1   3  -6   22.09    2.83
   1  -3   7   16.13    4.20
   1  -3   7   14.84    3.85
   1  -3   7   22.35    3.27
   1  -3   8   96.80   10.25
   1  -3   8   95.20    9.94
   1  -3   8  109.42    8.21
  -1   3  -8   86.15    7.19
   1  -3   9   13.65    4.55
   1  -3   9   12.78    4.09
   1  -3   9   15.61    3.35
  -1   3  -9   10.74    2.60
   1  -3  10   47.44    7.73
   1  -3  10   48.24    8.05
  -1   3 -10   56.45    5.65
   1  -3  11   15.38    5.36
   1  -2 -12    1.52    2.09
  -1   2  12   -0.27    1.97
  -1   2  11    8.83    4.17
   1  -2 -11    7.68    2.56
  -1   2  11    9.75    2.91
  -1   2  10    5.23    3.66
   1  -2 -10    7.64    2.85
  -1   2  10    8.34    3.52
   1  -2 -10    7.91    2.31
  -1   2  10   16.19    3.22
   1  -2 -10    4.94    2.17
  -1   2   9   71.04    9.62
  -1   2   9   69.12    8.58
   1  -2  -9   70.89    5.86
  -1   2   9   92.38    6.96
   1  -2  -9   76.46    7.61
   1  -2  -9   62.82    6.29
  -1   2   8   -1.10    2.06
   1  -2  -8    6.21    2.29
   1  -2  -8    4.93    1.81
  -1   2   8    3.68    1.61
  -1   2   7   12.02    3.27
   1  -2  -7    9.46    2.37
   1  -2  -7    7.53    1.90
   1  -2  -6   27.84    4.22
  -1   2   6   30.42    4.43
  -1   2   6   28.29    5.12
  -1   2   6   42.15    4.02
   1  -2  -6   37.35    4.09
   1  -2  -6   26.97    3.27
  -1   2   5  142.84   11.13
   1  -2  -5  118.87    9.19
  -1   2   5  134.85    9.66
   1  -2  -5  119.07    6.70
  -1   2   5  125.48   10.36
   1  -2  -5  137.86    8.84
   1  -2  -5  128.28    8.19
  -1   2   4  117.58    7.13
  -1   2   4   91.98    8.37
   1  -2  -4   93.62    7.40
  -1   2   4  103.66    7.71
   1  -2  -4   99.37    5.68
   1  -2  -4  100.72    5.93
  -1   2   4  100.64    8.57
  -1   2   4  123.04    5.84
   1  -2  -4  112.44    7.38
  -1   2   4  134.73    7.17
  -1   2   3  206.55   11.68
  -1   2   3  192.04   10.20
   1  -2  -3  191.54   10.24
   1  -2  -3  169.54    8.26
  -1   2   3  147.97    8.17
   1  -2  -3  151.59    8.22
   1  -2  -3  159.03    9.53
  -1   2   3  144.68    9.11
  -1   2   3  173.25    9.15
  -1   2   2  348.86   16.45
  -1   2   2  315.14   17.93
  -1   2   2  332.57   17.01
   1  -2  -2  318.53   16.93
   1  -2  -2  342.16   16.23
  -1   2   2  367.03   16.30
   1  -2  -2  336.39   15.90
  -1   2   2  310.73   17.95
  -1   2   2  347.51   15.90
   1  -2  -2  292.16   16.92
  -1   2   2  398.84   16.78
  -1   2   2  353.11   17.28
   1  -2  -1   27.75    1.99
   1  -2  -1   28.02    2.56
  -1   2   1   29.96    2.56
  -1   2   1   25.05    1.94
  -1   2   1   24.61    1.76
   1  -2  -1   28.42    1.90
  -1   2   1   25.86    1.84
  -1   2   1   22.67    2.39
  -1   2   1   25.48    1.59
   1  -2  -1   30.69    2.57
  -1   2   1   24.39    2.27
   1  -2   0  229.83   11.08
  -1   2   0  238.16   10.94
  -1   2   0  197.40   11.18
   1  -2   0  222.67   10.78
   1  -2   1  117.84    5.71
   1  -2   1  102.86    5.99
  -1   2  -1  104.77    6.01
  -1   2  -1  105.92    5.60
   1  -2   1  110.33    5.60
  -1   2  -1   99.38    5.93
   1  -2   1  124.82    6.42
   1  -2   2   45.04    3.96
  -1   2  -2   56.77    4.29
  -1   2  -2   62.03    3.24
  -1   2  -2   55.43    3.69
   1  -2   2   54.48    3.98
  -1   2  -3   48.16    4.38
   1  -2   3   46.75    4.36
  -1   2  -3   47.74    2.76
   1  -2   3   52.96    3.77
   1  -2   3   54.35    4.04
  -1   2  -3   42.83    3.40
   1  -2   4  100.07    7.76
  -1   2  -4   92.29    7.48
  -1   2  -4   98.74    5.08
   1  -2   4  109.82    6.67
   1  -2   4  114.43    7.14
  -1   2  -4  100.18    6.38
  -1   2  -5   35.88    4.53
   1  -2   5   35.21    4.55
   1  -2   5   32.03    2.47
   1  -2   5   40.78    4.01
  -1   2  -5   33.66    3.29
   1  -2   6   38.24    5.13
   1  -2   6   41.56    4.46
   1  -2   6   36.87    2.95
  -1   2  -6   39.93    3.88
   1  -2   7  190.89   14.21
  -1   2  -7  184.18   11.69
   1  -2   7  193.11   10.37
   1  -2   8    9.92    3.38
   1  -2   8    8.94    3.72
  -1   2  -8   14.18    2.64
   1  -2   8   11.21    1.85
   1  -2   9   14.32    4.39
   1  -2   9   22.42    5.21
   1  -2   9   28.55    4.07
  -1   2  -9   16.69    3.23
   1  -2   9   22.40    2.65
   1  -2  10   26.22    6.10
  -1   2 -10   18.99    2.46
   1  -2  10   24.25    5.65
   1  -2  10   24.44    4.20
  -1   2 -10   24.86    4.02
   1  -2  11   -0.57    3.28
  -1   2 -11    0.70    1.88
  -1   1  11   23.24    6.35
  -1   1  11   27.51    4.20
  -1   1  10  575.22   32.79
  -1   1  10  626.70   35.49
  -1   1  10  529.01   27.00
  -1   1   9  159.91   14.13
  -1   1   9  152.85   14.99
  -1   1   9  203.06   11.50
   1  -1  -9  135.15   10.75
   1  -1  -9  185.58   12.83
  -1   1   8    1.89    2.12
  -1   1   8    1.38    2.33
   1  -1  -8    2.22    1.55
  -1   1   8    1.09    1.20
   1  -1  -8    1.50    1.26
  -1   1   7    7.56    2.82
  -1   1   7    8.55    3.34
   1  -1  -7    3.18    1.60
   1  -1  -7    3.94    1.52
  -1   1   7   12.43    2.04
  -1   1   6   18.25    3.58
  -1   1   6   20.69    4.45
   1  -1  -6   20.50    3.07
  -1   1   6   21.34    2.88
   1  -1  -6   14.87    2.38
  -1   1   5   42.87    4.98
   1  -1  -5   40.64    2.48
   1  -1  -5   41.46    3.77
   1  -1  -5   42.42    4.10
  -1   1   4   85.66    6.74
   1  -1  -4   75.37    4.13
   1  -1  -4   81.37    5.69
   1  -1  -4   78.32    5.31
  -1   1   3  182.77   12.42
  -1   1   3  190.10   11.77
   1  -1  -3  198.01    9.80
   1  -1  -3  205.33   10.75
   1  -1  -3  209.97   11.17
  -1   1   2  154.84    9.74
   1  -1  -2  153.52    9.79
  -1   1   2  154.18    9.07
  -1   1   2  138.97    9.48
   1  -1  -2  159.11    7.83
   1  -1  -2  164.23    8.80
  -1   1   1   15.38    1.08
  -1   1   1   16.05    1.81
  -1   1   1   16.02    1.47
  -1   1   1   15.65    1.81
   1  -1  -1   12.06    1.71
  -1   1   1   16.97    1.17
   1  -1  -1   10.77    1.28
  -1   1   0  356.15   16.55
   1  -1   0  348.86   16.80
   1  -1   0  353.96   16.14
  -1   1   0  315.35   16.57
  -1   1   0  354.96   16.14
   1  -1   1   14.27    1.35
   1  -1   1   15.75    1.05
  -1   1  -1   12.95    1.25
  -1   1  -1   11.90    1.37
   1  -1   2  181.64    9.97
   1  -1   2  199.32    8.53
   1  -1   2  186.97    9.75
  -1   1  -2  170.25    9.36
  -1   1  -2  158.16    8.48
  -1   1  -2  181.94    8.48
   1  -1   3  318.87   17.60
  -1   1  -3  351.52   17.82
   1  -1   3  334.50   15.75
   1  -1   3  338.57   17.02
  -1   1  -3  314.68   16.51
  -1   1  -4   28.47    3.55
   1  -1   4   30.85    3.73
   1  -1   4   33.69    3.25
   1  -1   4   27.02    2.18
  -1   1  -4   24.43    2.61
  -1   1  -5   34.66    4.47
   1  -1   5   37.31    4.71
   1  -1   5   43.63    4.15
   1  -1   5   44.89    3.16
  -1   1  -5   29.94    3.29
   1  -1   6   16.90    3.41
  -1   1  -6   14.08    3.37
  -1   1  -6   12.46    2.22
   1  -1   6   24.43    3.23
   1  -1   6   17.02    1.96
   1  -1   7  133.07   11.27
  -1   1  -7  144.74    9.41
   1  -1   7  136.11    8.29
   1  -1   8    0.37    1.77
  -1   1  -8    0.77    1.43
   1  -1   8    0.50    0.95
  -1   1  -9   48.60    3.73
   1  -1   9   44.47    6.86
   1  -1   9   48.93    7.72
  -1   1  -9   47.52    5.26
   1  -1   9   53.77    4.69
   1  -1  10   81.42    9.94
   1  -1  10   68.16   10.12
  -1   1 -10   68.26    7.00
   1  -1  10   82.72    6.33
   1  -1  11   42.77    8.15
  -1   1 -11   38.52    5.20
  -1   0  10   46.90    8.31
   1   0 -10   58.77    7.08
  -1   0  10   67.84    5.95
   1   0  -9   69.69    3.95
  -1   0   9   69.69    9.52
   1   0  -9   77.32    7.70
  -1   0   8   21.19    4.79
   1   0  -8   23.24    1.71
   1   0  -8   22.58    1.70
   1   0  -8   21.19    3.79
  -1   0   8   24.03    5.34
  -1   0   8   29.04    3.24
   1   0  -8   19.53    3.12
   1   0  -7   68.30    3.68
  -1   0   7   43.19    6.49
  -1   0   7   45.38    7.12
   1   0  -7   71.89    6.51
   1   0  -7   62.78    5.51
  -1   0   7   65.50    5.11
   1   0  -6    1.00    0.47
  -1   0   6    2.04    1.53
   1   0  -6    0.37    1.11
  -1   0   6    0.35    1.53
  -1   0   6    2.86    1.32
   1   0  -6    0.89    0.29
   1   0  -6    0.84    1.00
  -1   0   5   60.82    6.78
   1   0  -5   53.76    5.88
   1   0  -5   63.60    3.41
  -1   0   5   63.11    6.35
   1   0  -5   59.29    3.23
   1   0  -5   55.85    4.65
  -1   0   5   76.44    5.36
   1   0  -4  189.64   12.24
  -1   0   4  183.63   12.26
   1   0  -4  195.98    9.18
  -1   0   4  183.14   12.78
   1   0  -4  193.53   10.61
   1   0  -4  182.34    9.12
  -1   0   4  231.95   11.09
   1   0  -3  212.80   13.04
  -1   0   3  210.78   13.06
   1   0  -3  230.94   10.65
   1   0  -3  230.69   11.80
   1   0  -2   30.56    1.72
  -1   0   2   32.05    1.73
   1   0  -2   27.28    2.87
  -1   0   2   26.92    2.83
   1   0  -2   29.00    3.26
   1   0  -2   34.68    2.58
   1   0  -1  103.77    5.02
   1   0  -1  108.50    6.13
  -1   0   1  104.28    5.03
  -1   0   1   97.30    5.96
   1   0  -1  113.40    6.50
   1   0  -1  112.41    5.59
   1   0   0  154.48    7.77
  -1   0   0  144.19    7.55
  -1   0   0  146.50    7.69
   1   0   0  147.93    7.56
  -1   0   0  154.91    7.18
   1   0   0  150.94    7.63
   1   0   0  158.32    7.31
  -1   0  -1   39.45    2.14
   1   0   1   35.71    2.11
   1   0   1   36.73    2.25
   1   0   1   40.05    2.84
  -1   0  -1   41.76    2.84
  -1   0  -2  385.53   18.87
   1   0   2  394.76   18.30
  -1   0  -2  381.17   18.19
   1   0   3 3088.83  142.07
  -1   0  -3 3208.21  142.02
  -1   0  -3 3103.16  142.86
  -1   0  -4  136.60    9.04
  -1   0  -4  128.39    7.90
   1   0   4  142.66    8.41
   1   0   4  126.53    7.29
  -1   0  -5   10.62    2.70
  -1   0  -5   11.40    1.87
   1   0   5   15.00    1.82
   1   0   5   17.39    2.51
  -1   0  -6    5.65    2.25
  -1   0  -6    7.93    1.07
   1   0   6    4.59    1.21
   1   0   6    5.34    1.58
  -1   0  -6    7.00    1.67
  -1   0  -7  116.12    6.22
  -1   0  -7  104.53    7.84
   1   0   7  101.48    7.10
  -1   0  -8   21.87    2.11
   1   0   8   22.43    2.88
  -1   0  -8   20.88    3.22
  -1   0  -9   26.28    2.40
   1   0   9   22.66    5.66
  -1   0  -9   26.75    3.92
   1   0   9   35.23    3.78
   1   0  10   21.22    5.29
   1   0  10   20.67    5.86
   1   0  10   26.90    3.57
  -1   0 -10   22.88    3.82
   1   0  11    3.15    3.21
  -1   0 -11    0.67    2.11
   1   0  11   -0.61    3.22
   1   0  11    2.58    1.93
  -1   0 -11    0.52    1.83
  -1  -1  10   15.88    4.70
   1   1 -10   18.34    4.19
  -1  -1  10   17.57    5.13
  -1  -1  10   20.23    3.23
   1   1  -9   13.01    1.55
  -1  -1   9   10.95    3.98
   1   1  -9   14.05    3.51
  -1  -1   9   12.20    4.32
  -1  -1   9   17.16    2.78
   1   1  -8  129.46    7.32
  -1  -1   8  142.13   13.01
  -1  -1   8  152.16    8.89
   1   1  -7   38.62    2.81
  -1  -1   7   36.54    5.88
  -1  -1   7   41.02    3.64
   1   1  -7   36.68    3.96
  -1  -1   6   25.17    4.62
   1   1  -6   22.81    1.93
   1   1  -6   21.44    1.28
   1   1  -6   21.62    2.81
  -1  -1   6   31.29    3.51
   1   1  -5  134.58   10.21
   1   1  -5  127.30    6.93
  -1  -1   5  112.47   10.13
   1   1  -5  133.10    8.19
  -1  -1   5  151.66    8.76
   1   1  -4 4453.88  233.09
   1   1  -4 5249.34  234.44
  -1  -1   4 4941.44  234.57
   1   1  -3  335.14   18.42
   1   1  -3  337.40   15.89
  -1  -1   3  281.68   18.14
  -1  -1   3  350.30   16.91
   1   1  -3  347.40   16.72
   1   1  -2   71.84    3.85
   1   1  -2   73.65    5.44
  -1  -1   2   55.97    4.99
   1   1  -2   70.61    5.47
  -1  -1   2   74.82    4.37
   1   1  -1  209.65   10.59
   1   1  -1  226.93   11.84
  -1  -1   1  243.86   10.67
   1   1  -1  221.46   11.82
  -1  -1   1  209.58   11.58
  -1  -1   0   69.88    3.61
   1   1   0   62.07    3.96
  -1  -1   0   70.86    3.74
   1   1   0   71.39    4.00
  -1  -1  -1   30.41    1.85
  -1  -1  -1   32.77    1.85
   1   1   1   28.76    1.80
  -1  -1  -1   31.13    1.97
   1   1   1   29.04    1.92
   1   1   1   33.94    2.50
   1   1   2   61.77    3.21
  -1  -1  -2   66.76    3.54
   1   1   2   59.69    3.44
  -1  -1  -2   52.27    3.56
   1   1   2   55.03    3.90
  -1  -1  -2   55.01    3.86
   1   1   3  452.86   20.83
   1   1   3  460.56   22.89
  -1  -1  -3  472.37   20.84
  -1  -1  -3  411.06   21.32
  -1  -1  -3  419.88   21.92
   1   1   3  491.86   22.40
   1   1   3  432.31   21.61
  -1  -1  -4  179.44    8.24
   1   1   4  169.81   10.66
   1   1   4  157.24    9.06
  -1  -1  -4  157.29    8.76
  -1  -1  -4  153.45    9.43
   1   1   5   11.50    2.51
  -1  -1  -5   14.22    1.26
   1   1   5   14.03    0.88
   1   1   5   14.23    1.89
  -1  -1  -5   11.78    1.94
  -1  -1  -6  132.38    6.88
   1   1   6  138.86   10.49
   1   1   6  151.07    9.46
   1   1   6  141.41    8.32
  -1  -1  -7   73.45    4.22
   1   1   7   73.53    7.69
   1   1   7   82.11    5.88
  -1  -1  -8   88.23    5.03
   1   1   8   87.12    8.99
   1   1   8   99.72    7.00
  -1  -1  -8   75.13    6.83
  -1  -1  -9  126.18    6.55
   1   1   9  104.84   10.87
  -1  -1  -9  114.99    9.51
   1   1   9  119.31    8.62
  -1  -1  -9  105.94    8.90
   1   1  10   27.29    5.64
  -1  -1 -10   25.60    4.34
   1   1  10   21.76    5.86
   1   1  10   32.80    4.17
  -1  -1 -10   24.34    4.03
   1   1  11    1.88    2.92
  -1  -1 -11    0.32    1.92
  -1  -1 -11    0.22    1.98
  -1  -1 -11   -0.26    1.89
   1   1  11    1.55    2.08
  -1  -2  10   49.27    8.05
  -1  -2   9   23.92    5.19
  -1  -2   9   17.66    4.90
  -1  -2   9   25.54    3.09
  -1  -2   8  157.61   13.52
   1   2  -8  149.15    8.76
  -1  -2   8  145.47   13.49
  -1  -2   8  181.29    9.77
   1   2  -7   21.74    2.25
  -1  -2   7   26.61    4.90
  -1  -2   7   24.97    5.00
  -1  -2   7   30.34    2.88
   1   2  -6    6.16    1.19
  -1  -2   6    8.99    2.96
  -1  -2   6    7.84    2.88
  -1  -2   6    6.93    1.86
   1   2  -5   27.97    4.47
  -1  -2   5   26.17    4.16
   1   2  -5   28.63    2.41
  -1  -2   5   24.68    4.29
  -1  -2   5   32.27    3.33
   1   2  -5   29.10    2.98
   1   2  -4  102.55    8.23
   1   2  -4   99.98    5.61
  -1  -2   4   85.06    7.67
  -1  -2   4   80.12    7.53
  -1  -2   4  102.27    6.47
  -1  -2   3  123.76    9.05
   1   2  -3  122.93    9.06
   1   2  -3  133.73    7.18
  -1  -2   3  126.93    8.99
  -1  -2   3  150.87    7.82
   1   2  -2  114.73    7.89
  -1  -2   2  115.35    7.77
   1   2  -2  116.62    6.35
  -1  -2   2   98.93    7.31
   1   2  -1  463.87   22.43
   1   2  -1  516.08   23.84
  -1  -2   1  431.36   23.34
  -1  -2   1  448.77   22.97
   1   2  -1  503.41   23.47
  -1  -2   1  505.61   22.33
  -1  -2   0    1.74    0.56
  -1  -2   0    2.06    0.49
   1   2   0    3.51    0.79
  -1  -2   0    2.39    0.64
   1   2   0    3.22    0.65
  -1  -2   0    1.96    0.46
  -1  -2  -1  105.96    6.05
   1   2   1  113.54    5.88
   1   2   1  109.41    5.84
  -1  -2  -1  108.34    6.02
   1   2   1  111.24    6.02
  -1  -2  -1  115.81    6.31
   1   2   1  112.68    6.38
  -1  -2  -2  360.67   17.59
   1   2   2  376.13   17.33
   1   2   2  372.64   17.69
  -1  -2  -2  350.51   17.49
   1   2   2  338.62   18.01
   1   2   2  391.53   18.25
   1   2   2  423.16   17.58
  -1  -2  -2  332.60   17.85
  -1  -2  -3   26.50    1.70
   1   2   3   21.42    1.61
   1   2   3   20.92    1.92
   1   2   3   24.32    2.44
  -1  -2  -3   21.62    2.09
  -1  -2  -3   26.43    2.14
  -1  -2  -4   82.27    4.46
   1   2   4   90.97    4.54
   1   2   4   87.35    6.62
  -1  -2  -4   88.09    5.51
   1   2   4  101.66    6.24
   1   2   5   14.65    2.67
   1   2   5   13.17    1.15
  -1  -2  -5   11.14    1.07
  -1  -2  -5   10.24    1.54
   1   2   5   13.98    2.22
  -1  -2  -5    7.25    1.58
   1   2   5   13.07    1.86
  -1  -2  -5   10.00    1.72
  -1  -2  -6  294.90   16.53
   1   2   6  315.14   18.49
  -1  -2  -6  278.95   14.36
  -1  -2  -6  276.07   15.63
   1   2   6  330.25   14.25
   1   2   6  357.04   17.62
   1   2   6  337.49   16.56
  -1  -2  -6  239.98   16.10
  -1  -2  -7   21.53    3.10
  -1  -2  -7   18.95    1.57
   1   2   7   15.57    3.50
   1   2   7   16.59    1.16
  -1  -2  -7   21.78    2.64
   1   2   7   15.81    2.51
  -1  -2  -7   16.24    2.64
  -1  -2  -8  200.87    9.74
   1   2   8  190.61   14.83
  -1  -2  -8  198.41   11.75
   1   2   8  218.08   12.47
  -1  -2  -8  201.45   12.89
   1   2   9 1880.93   82.35
  -1  -2  -9 1574.42   73.10
  -1  -2  -9 1830.61   76.64
   1   2   9 1768.01   77.15
  -1  -2  -9 1410.17   76.72
  -1  -2  -9 1465.38   77.12
   1   2  10    1.74    3.07
  -1  -2 -10   10.65    2.91
   1   2  10    6.15    3.40
  -1  -2 -10   10.27    2.53
   1   2  10   12.95    2.90
  -1  -2 -10    7.78    2.54
  -1  -2 -11   24.60    4.60
   1   2  11   25.48    6.62
   1   2  11   28.84    6.18
  -1  -2 -11   26.57    4.08
  -1  -2 -11   21.92    4.10
   1   2  11   41.17    4.98
  -1  -2 -12    6.09    2.79
   1   2  12    7.31    2.90
  -1  -3  10    9.58    4.22
  -1  -3   9   26.76    5.47
  -1  -3   9   24.34    5.43
  -1  -3   8   89.94    9.97
   1   3  -8   83.25    5.84
  -1  -3   8   79.69    9.18
  -1  -3   8   98.02    6.11
   1   3  -7   17.90    2.18
  -1  -3   7   18.13    4.30
  -1  -3   7   15.93    4.06
  -1  -3   7   19.02    2.14
   1   3  -6    4.50    1.22
  -1  -3   6    0.32    1.78
  -1  -3   6    1.23    1.89
  -1  -3   6    3.36    1.44
  -1  -3   5   15.84    3.47
   1   3  -5   25.51    2.45
  -1  -3   5   19.20    3.65
  -1  -3   5   25.45    3.03
  -1  -3   4   22.76    3.59
   1   3  -4   22.24    3.83
   1   3  -4   24.42    2.31
  -1  -3   4   18.42    3.23
  -1  -3   4   22.80    2.56
   1   3  -3   29.67    3.78
  -1  -3   3   18.92    3.05
   1   3  -3   26.47    2.34
  -1  -3   3   22.18    3.04
  -1  -3   3   27.23    2.47
  -1  -3   2  143.98    9.66
   1   3  -2  167.39    8.53
   1   3  -2  164.74   10.19
  -1  -3   2  140.30    9.08
  -1  -3   2  161.76    8.33
   1   3  -1   71.16    4.73
  -1  -3   1   61.06    4.19
  -1  -3   1   62.52    4.83
  -1  -3   1   69.54    3.90
  -1  -3   1   67.91    3.82
  -1  -3   0    3.50    0.58
   1   3   0    1.91    0.63
  -1  -3   0    3.43    0.90
  -1  -3   0    3.67    0.74
  -1  -3   0    2.85    0.77
   1   3   0    2.42    0.82
  -1  -3   0    4.33    0.57
   1   3   1  485.71   22.02
  -1  -3  -1  488.60   22.91
   1   3   1  480.41   22.53
   1   3   1  500.14   22.37
   1   3   1  483.40   22.56
  -1  -3  -1  451.98   22.11
   1   3   1  434.80   21.75
  -1  -3  -1  530.17   22.47
  -1  -3  -1  445.00   22.64
  -1  -3  -2 2727.38  144.18
   1   3   2 3064.44  143.75
  -1  -3  -2 2939.06  143.72
   1   3   2 3464.01  145.47
   1   3   2 3146.88  144.06
   1   3   2 3457.81  144.18
  -1  -3  -2 2828.51  144.20
   1   3   2 4329.29  145.46
  -1  -3  -2 2956.76  144.12
   1   3   2 4072.22  145.04
   1   3   3  619.61   26.92
  -1  -3  -3  550.77   26.06
   1   3   3  572.57   26.16
   1   3   3  573.23   26.59
   1   3   3  562.55   27.28
  -1  -3  -3  487.35   26.62
  -1  -3  -3  482.46   26.72
   1   3   3  638.07   26.89
   1   3   3  625.25   27.45
  -1  -3  -3  524.57   26.85
   1   3   4   37.14    2.79
   1   3   4   34.99    2.84
   1   3   4   32.30    3.54
   1   3   4   31.10    2.10
  -1  -3  -4   26.24    2.02
   1   3   4   30.96    2.57
  -1  -3  -4   28.63    2.56
   1   3   4   31.32    3.10
  -1  -3  -4   21.98    2.44
  -1  -3  -4   23.84    2.63
  -1  -3  -4   28.51    2.80
  -1  -3  -5   37.05    2.39
   1   3   5   32.80    2.33
   1   3   5   29.29    3.87
  -1  -3  -5   35.63    3.03
   1   3   5   39.09    3.76
  -1  -3  -5   37.52    3.47
  -1  -3  -5   33.40    3.08
  -1  -3  -6  233.37   11.91
   1   3   6  244.89   11.94
   1   3   6  242.60   15.52
   1   3   6  258.23   12.13
  -1  -3  -6  226.47   13.07
   1   3   6  272.57   14.24
  -1  -3  -6  224.02   13.84
  -1  -3  -7    6.78    1.81
  -1  -3  -7    8.73    1.06
   1   3   7    8.09    2.62
   1   3   7   10.23    1.11
  -1  -3  -7    6.01    1.57
   1   3   7    8.90    2.04
   1   3   8  114.31   10.74
  -1  -3  -8  134.00    6.56
   1   3   8  119.67    6.40
  -1  -3  -8  129.63    8.38
  -1  -3  -8  124.83    9.32
   1   3   8  136.75    9.24
  -1  -3  -8  106.20    8.71
  -1  -3  -9   64.50    3.61
   1   3   9   71.54    8.11
  -1  -3  -9   66.02    5.55
  -1  -3  -9   57.35    6.19
   1   3   9   69.45    6.27
  -1  -3 -10    4.73    2.32
   1   3  10    1.73    2.51
  -1  -3 -10    7.11    2.25
   1   3  10    5.42    2.13
  -1  -3 -10    2.02    1.59
   1   3  11    3.88    3.74
  -1  -3 -11    1.89    2.25
   1   3  11    1.43    2.42
  -1  -3 -11    0.81    2.04
   1   3  11    2.06    2.14
  -1  -3 -11    1.91    1.84
  -1  -3 -12   26.01    4.19
   1   3  12   26.11    4.54
   1   3  13    4.80    2.71
  -1  -4   9   17.22    4.51
  -1  -4   9   22.18    3.75
  -1  -4   8   10.76    3.75
   1   4  -8    9.44    1.89
  -1  -4   8   13.77    4.01
  -1  -4   8   12.92    2.88
  -1  -4   7   40.30    5.83
   1   4  -7   32.20    3.35
  -1  -4   7   33.24    5.54
  -1  -4   7   50.15    4.78
  -1  -4   7   42.29    3.06
  -1  -4   6   38.25    5.52
   1   4  -6   43.36    3.78
  -1  -4   6   40.91    5.77
   1   4  -6   43.33    2.94
  -1  -4   6   48.93    3.21
  -1  -4   6   53.92    4.97
  -1  -4   5  123.01   10.45
   1   4  -5  135.85    8.00
  -1  -4   5  134.20   10.32
  -1  -4   5  123.10    8.43
  -1  -4   4  146.57   10.15
  -1  -4   4  139.38   10.58
   1   4  -4  147.45   11.09
   1   4  -4  139.71    8.52
  -1  -4   4  153.56    8.91
  -1  -4   4  155.26    8.95
  -1  -4   3    1.46    1.21
   1   4  -3    0.73    0.73
  -1  -4   3    0.19    1.05
   1   4  -3   -0.42    1.54
  -1  -4   3    0.72    0.69
  -1  -4   3    0.85    0.64
  -1  -4   2   92.10    6.37
   1   4  -2  107.58    7.71
   1   4  -2  103.11    6.36
  -1  -4   2   98.60    7.32
  -1  -4   2  110.37    6.20
  -1  -4   2  112.86    5.98
  -1  -4   1   13.98    2.24
  -1  -4   1   12.72    1.35
  -1  -4   1   12.30    1.92
  -1  -4   1   12.45    1.43
  -1  -4   1   12.50    1.15
   1   4   0  122.65    6.76
  -1  -4   0  133.96    8.13
  -1  -4   0  128.75    7.56
   1   4   0  120.71    7.72
  -1  -4   0  136.61    6.93
  -1  -4   0  146.38    6.97
  -1  -4   0  121.38    7.24
  -1  -4  -1   42.25    3.40
   1   4   1   38.20    2.36
   1   4   1   36.98    2.81
   1   4   1   34.49    2.80
   1   4   1   35.72    2.87
  -1  -4  -1   36.34    2.73
   1   4   1   33.75    2.28
  -1  -4  -1   30.87    2.81
  -1  -4  -1   37.22    2.40
  -1  -4  -2  171.93    9.81
   1   4   2  184.80    9.30
  -1  -4  -2  181.84    9.26
   1   4   2  190.08    9.59
   1   4   2  178.15    9.57
   1   4   2  183.40    9.64
   1   4   2  166.10    9.93
   1   4   2  212.89   10.03
  -1  -4  -2  144.97    9.43
  -1  -4  -2  164.45    9.06
  -1  -4  -3   22.93    2.34
   1   4   3   24.94    2.47
   1   4   3   22.02    1.99
  -1  -4  -3   22.96    1.95
  -1  -4  -3   22.42    2.26
   1   4   3   21.56    2.20
   1   4   3   24.83    2.87
   1   4   3   25.73    2.53
   1   4   3   23.80    2.65
   1   4   3   27.75    2.57
  -1  -4  -3   20.37    2.33
  -1  -4  -3   19.26    2.07
   1   4   4    6.75    1.40
   1   4   4    6.57    1.00
   1   4   4    6.14    1.67
  -1  -4  -4   12.40    1.26
   1   4   4    7.35    2.00
   1   4   4    7.42    1.25
  -1  -4  -4   11.18    1.52
   1   4   4    7.75    1.52
  -1  -4  -4    9.82    1.60
   1   4   4    9.79    1.54
  -1  -4  -4    8.02    1.42
   1   4   4    7.74    1.60
   1   4   5  418.12   19.00
  -1  -4  -5  391.64   17.69
   1   4   5  354.88   20.34
   1   4   5  356.54   17.57
   1   4   5  351.10   18.40
  -1  -4  -5  379.34   18.65
   1   4   5  423.19   19.22
   1   4   5  424.89   19.96
  -1  -4  -5  330.84   18.95
  -1  -4  -5  357.84   19.22
  -1  -4  -5  288.74   18.40
   1   4   6   14.50    2.00
  -1  -4  -6   11.17    2.17
   1   4   6   10.18    2.48
   1   4   6   11.20    1.23
  -1  -4  -6   10.93    1.22
  -1  -4  -6   10.60    1.78
  -1  -4  -6    8.73    1.83
   1   4   6   11.52    2.23
   1   4   7   30.13    4.62
   1   4   7   31.36    2.21
  -1  -4  -7   26.34    2.08
  -1  -4  -7   25.49    2.96
   1   4   7   34.71    2.53
   1   4   7   37.08    4.04
  -1  -4  -7   21.63    3.19
  -1  -4  -7   28.01    3.71
  -1  -4  -8   24.98    1.97
   1   4   8   31.44    5.02
  -1  -4  -8   27.98    3.23
   1   4   8   31.30    2.37
  -1  -4  -8   22.45    3.57
   1   4   8   33.98    4.12
  -1  -4  -9    9.67    2.71
  -1  -4  -9   10.90    1.17
   1   4   9   10.65    3.50
   1   4   9   17.47    1.57
  -1  -4  -9    9.96    2.32
   1   4   9   19.11    3.32
   1   4  10   45.34    8.36
   1   4  10   39.94    6.72
  -1  -4 -10   37.62    4.39
  -1  -4 -10   41.52    5.49
   1   4  10   54.19    5.79
  -1  -4 -11    6.67    2.86
   1   4  11    7.82    4.48
   1   4  11    4.23    3.10
  -1  -4 -11    5.44    2.14
   1   4  11    8.29    2.93
  -1  -4 -11    1.94    2.03
  -1  -4 -12    2.86    2.52
  -1  -4 -12    3.00    2.22
  -1  -5   9    0.45    1.76
  -1  -5   8    8.73    3.07
  -1  -5   8    6.15    2.23
   1   5  -8    6.43    1.85
  -1  -5   8    5.58    3.07
  -1  -5   7   24.64    4.48
   1   5  -7   24.43    3.01
  -1  -5   7   33.70    5.51
  -1  -5   7   28.82    3.85
  -1  -5   6   11.17    3.03
  -1  -5   6   11.27    3.27
   1   5  -6    9.94    2.00
  -1  -5   6   14.40    2.59
   1   5  -6    9.49    1.39
  -1  -5   6   12.64    1.11
  -1  -5   6   13.72    2.56
  -1  -5   5   70.47    6.80
   1   5  -5   79.16    5.80
  -1  -5   5   73.22    7.53
  -1  -5   5   90.25    6.35
  -1  -5   5   86.91    6.34
  -1  -5   5   80.10    4.30
  -1  -5   4   33.23    3.90
   1   5  -4   29.79    4.70
  -1  -5   4   28.71    4.26
   1   5  -4   24.83    2.92
  -1  -5   4   41.75    3.63
  -1  -5   4   40.25    3.52
  -1  -5   3   24.28    2.88
  -1  -5   3   19.32    3.32
   1   5  -3   27.06    4.05
   1   5  -3   30.40    2.96
  -1  -5   3   28.27    2.79
  -1  -5   3   26.71    2.12
  -1  -5   3   27.43    2.57
  -1  -5   2  234.47   14.81
  -1  -5   2  240.41   12.88
  -1  -5   2  228.91   14.28
   1   5  -2  258.35   13.53
   1   5  -2  247.32   14.90
  -1  -5   2  274.30   13.30
  -1  -5   2  249.55   12.60
  -1  -5   2  261.79   12.59
  -1  -5   1   17.20    2.68
  -1  -5   1   19.51    1.44
  -1  -5   1   16.66    2.32
   1   5  -1   17.45    2.73
  -1  -5   1   19.53    2.00
  -1  -5   1   17.61    1.37
  -1  -5   1   15.33    1.72
  -1  -5   0   79.20    5.46
  -1  -5   0   82.55    6.19
  -1  -5   0   79.79    5.10
  -1  -5   0   78.36    5.12
   1   5   1  192.02    9.28
  -1  -5  -1  196.89   11.18
   1   5   1  199.08   10.39
   1   5   1  210.48   10.45
   1   5   1  178.62    9.44
  -1  -5  -1  183.82   10.23
   1   5   1  205.31   10.57
  -1  -5  -1  179.63   10.21
  -1  -5  -1  186.68    9.07
  -1  -5  -2   63.51    4.88
   1   5   2   66.52    4.24
   1   5   2   65.83    4.31
   1   5   2   67.78    4.57
  -1  -5  -2   55.91    4.59
   1   5   2   57.83    4.05
  -1  -5  -2   59.73    3.71
   1   5   2   58.82    4.20
  -1  -5  -2   54.90    4.32
   1   5   2   57.44    4.70
   1   5   3   15.49    2.19
  -1  -5  -3   13.84    2.00
   1   5   3   14.38    1.71
  -1  -5  -3   15.25    1.72
   1   5   3   14.75    1.87
   1   5   3   15.51    2.23
  -1  -5  -3   13.56    1.83
   1   5   3   17.79    2.19
   1   5   3   16.11    2.03
   1   5   3   13.34    2.11
  -1  -5  -3   13.47    1.61
  -1  -5  -3   12.60    1.85
   1   5   4   83.86    5.61
  -1  -5  -4   63.85    5.09
  -1  -5  -4   76.71    4.62
   1   5   4   79.73    4.76
   1   5   4   74.06    6.17
  -1  -5  -4   74.65    5.12
   1   5   4   74.63    5.13
  -1  -5  -4   56.44    5.16
  -1  -5  -4   62.42    5.02
   1   5   4   78.75    5.60
   1   5   4   77.96    5.87
  -1  -5  -4   65.81    4.95
   1   5   4   94.09    5.93
   1   5   5  249.19   12.81
  -1  -5  -5  238.66   11.52
   1   5   5  215.64   13.59
   1   5   5  222.76   11.50
   1   5   5  210.42   14.20
   1   5   5  215.97   12.10
  -1  -5  -5  218.43   12.20
   1   5   5  271.94   13.13
   1   5   5  248.28   13.32
   1   5   5  228.16   13.38
  -1  -5  -5  200.60   12.37
  -1  -5  -5  187.51   12.60
   1   5   6   34.77    3.38
   1   5   6   34.20    3.49
   1   5   6   25.83    2.26
   1   5   6   24.83    3.79
  -1  -5  -6   32.80    2.43
   1   5   6   28.31    2.91
  -1  -5  -6   31.94    3.11
   1   5   6   25.13    4.41
   1   5   6   32.44    3.83
   1   5   6   35.15    3.95
  -1  -5  -6   26.90    3.18
  -1  -5  -6   22.46    3.18
   1   5   7  118.22    6.64
  -1  -5  -7  130.43    6.69
   1   5   7  128.33   10.12
  -1  -5  -7  126.36    8.02
   1   5   7  124.56    7.15
   1   5   7  124.73   10.87
  -1  -5  -7  102.10    8.18
  -1  -5  -7  112.13    8.76
   1   5   8  164.95    8.79
   1   5   8  177.83   13.35
  -1  -5  -8  171.37    8.75
   1   5   8  195.35    9.61
  -1  -5  -8  180.09   10.71
  -1  -5  -8  168.35   11.84
   1   5   8  190.45   12.24
   1   5   9   68.71    8.32
  -1  -5  -9   77.06    4.43
  -1  -5  -9   86.00    6.52
   1   5   9   85.74    5.10
  -1  -5  -9   83.66    7.73
  -1  -5  -9   68.11    6.84
   1   5   9   90.39    7.69
  -1  -5 -10   21.31    4.12
   1   5  10   33.10    7.20
   1   5  10   20.70    4.85
  -1  -5 -10   20.35    3.29
   1   5  10   30.66    4.57
  -1  -5 -10   16.52    3.37
   1   5  11   -0.65    3.44
  -1  -5 -11    1.33    2.33
   1   5  11    0.46    2.50
  -1  -5 -11   -0.19    1.78
   1   5  11    1.76    2.18
  -1  -5 -12   16.91    4.38
   1   5  12   26.33    5.97
  -1  -5 -12   16.47    3.37
   1   5  12   31.94    5.20
  -1  -6   8    3.91    2.09
   1   6  -8    4.16    1.79
  -1  -6   7   17.31    3.15
   1   6  -7   10.71    2.33
  -1  -6   7   12.17    3.67
  -1  -6   6   39.06    4.92
  -1  -6   6   46.15    6.09
   1   6  -6   42.40    4.26
   1   6  -6   43.53    3.38
  -1  -6   6   57.25    5.15
  -1  -6   5  103.67    8.17
   1   6  -5  110.96    7.81
  -1  -6   5  102.65    9.45
   1   6  -5  114.10    6.93
  -1  -6   5  137.10    8.55
  -1  -6   5  131.20    8.27
  -1  -6   4   14.20    2.32
   1   6  -4    8.92    1.92
  -1  -6   4   13.60    3.11
  -1  -6   4   13.62    2.26
  -1  -6   4   11.62    1.92
  -1  -6   3   21.53    3.79
  -1  -6   3   28.11    2.79
   1   6  -3   35.43    4.70
   1   6  -3   34.31    3.42
  -1  -6   3   26.17    3.76
  -1  -6   3   31.68    3.25
  -1  -6   3   30.93    2.76
  -1  -6   3   28.46    2.02
  -1  -6   2   49.19    3.03
  -1  -6   2   42.97    5.03
  -1  -6   2   43.02    4.50
   1   6  -2   45.56    5.00
   1   6  -2   46.98    4.11
  -1  -6   2   52.61    4.06
  -1  -6   2   48.40    3.15
  -1  -6   2   44.29    3.10
  -1  -6   1   34.95    4.16
   1   6  -1   35.77    3.92
  -1  -6   1   31.53    3.42
  -1  -6   1   40.50    3.28
  -1  -6   1   32.79    2.70
  -1  -6   0  148.86    8.66
  -1  -6   0  143.25    9.71
   1   6   0  166.68    9.39
  -1  -6   0  138.86    8.43
  -1  -6   0  138.72    8.11
  -1  -6  -1 1601.21   68.78
   1   6   1 1515.32   67.00
   1   6   1 1520.08   67.10
   1   6   1 1334.01   65.55
   1   6   1 1459.67   67.21
  -1  -6  -1 1444.34   66.91
  -1  -6  -1 1393.88   66.51
   1   6   2  248.92   12.20
  -1  -6  -2  269.79   14.42
   1   6   2  259.13   12.92
   1   6   2  263.68   13.35
   1   6   2  260.52   13.55
   1   6   2  210.00   12.48
  -1  -6  -2  248.13   13.91
  -1  -6  -2  241.57   12.00
  -1  -6  -2  237.36   13.20
   1   6   2  251.64   13.97
  -1  -6  -3    1.56    0.97
   1   6   3    1.35    0.99
   1   6   3    0.57    1.06
   1   6   3    0.45    0.78
   1   6   3    0.16    0.69
   1   6   3    0.22    0.80
   1   6   3    0.11    0.80
   1   6   3    0.21    0.70
  -1  -6  -3    0.33    0.67
   1   6   3    0.90    1.03
  -1  -6  -3    0.26    0.42
   1   6   4   26.53    3.15
  -1  -6  -4   29.50    3.18
   1   6   4   24.27    2.48
   1   6   4   26.06    2.79
  -1  -6  -4   31.42    3.02
   1   6   4   23.81    3.31
   1   6   4   32.20    3.41
   1   6   4   26.89    3.00
   1   6   4   27.33    3.44
  -1  -6  -4   27.73    2.61
  -1  -6  -4   26.26    2.93
   1   6   5  135.43    8.44
  -1  -6  -5  142.37    7.37
   1   6   5  127.66    7.36
   1   6   5  112.38    8.57
  -1  -6  -5  137.82    8.15
   1   6   5  117.05    7.68
   1   6   5  114.96    9.27
  -1  -6  -5  109.54    7.87
   1   6   5  118.73    8.75
  -1  -6  -5  110.88    8.47
   1   6   5  141.36    8.72
  -1  -6  -5  118.71    7.78
   1   6   5  133.81    8.57
  -1  -6  -6    4.51    1.60
   1   6   6    6.24    1.84
   1   6   6    7.24    2.19
  -1  -6  -6    4.38    1.05
   1   6   6    7.10    1.22
   1   6   6    7.16    1.56
   1   6   6    6.94    2.79
  -1  -6  -6    5.26    1.46
   1   6   6    6.12    2.03
   1   6   6    8.21    2.15
  -1  -6  -6    4.41    1.38
   1   6   7   67.91    6.86
   1   6   7   63.26    4.30
  -1  -6  -7   71.24    4.38
   1   6   7   65.97    5.17
   1   6   7   70.30    7.73
  -1  -6  -7   67.42    5.32
   1   6   7   75.65    5.02
  -1  -6  -7   57.59    5.80
  -1  -6  -7   55.45    5.41
   1   6   7   81.57    6.87
   1   6   8   88.94    5.44
  -1  -6  -8  100.03    5.50
   1   6   8  102.41    9.33
   1   6   8   95.84    6.17
  -1  -6  -8  104.06    7.07
  -1  -6  -8   85.13    7.70
  -1  -6  -8   79.60    7.15
  -1  -6  -9    6.27    2.21
   1   6   9    5.69    1.00
   1   6   9    7.56    3.04
  -1  -6  -9    8.24    2.19
  -1  -6  -9    6.10    2.23
   1   6   9    5.47    2.46
   1   6   9    4.86    1.37
  -1  -6 -10    6.43    2.54
   1   6  10    5.92    3.99
   1   6  10    4.86    2.73
  -1  -6 -10    7.62    2.37
   1   6  10    5.13    2.54
  -1  -6 -10    2.53    1.75
   1   6  10    3.79    1.16
   1   6  11   99.25   12.84
   1   6  11   94.88   10.57
  -1  -6 -11  102.84    7.96
   1   6  11  121.62   10.13
  -1  -6 -11   80.45    8.30
  -1  -6 -11  104.62    9.64
  -1  -6 -12    1.43    2.35
   1   6  12    1.48    2.93
  -1  -6 -12    1.90    1.98
   1   6  12    5.70    3.23
  -1  -7   7   12.33    2.88
  -1  -7   7    3.87    2.64
   1   7  -7    8.33    2.27
  -1  -7   6  605.20   36.09
   1   7  -6  605.22   33.26
  -1  -7   5  102.36    9.89
   1   7  -5  122.86    7.34
  -1  -7   5   94.81    9.18
   1   7  -5  111.31    8.08
  -1  -7   4   10.27    3.04
  -1  -7   4   10.17    1.75
  -1  -7   4   10.35    2.88
   1   7  -4   11.43    2.23
   1   7  -4   14.74    2.06
  -1  -7   4   13.39    2.53
  -1  -7   3   58.67    3.47
  -1  -7   3   50.27    6.02
   1   7  -3   50.60    4.81
  -1  -7   3   44.23    5.15
   1   7  -3   48.30    5.90
  -1  -7   3   68.56    5.25
  -1  -7   3   68.15    4.13
  -1  -7   2   29.76    4.17
  -1  -7   2   24.99    3.31
   1   7  -2   23.21    2.98
   1   7  -2   26.18    3.94
  -1  -7   2   30.44    3.17
  -1  -7   2   25.26    1.97
  -1  -7   1    1.96    1.56
  -1  -7   1    2.22    1.28
   1   7  -1    3.60    1.78
  -1  -7   1    4.15    1.43
  -1  -7   1    1.86    0.77
  -1  -7   0   53.13    5.39
  -1  -7   0   60.32    4.49
   1   7   0   60.96    4.97
  -1  -7   0   51.34    4.39
  -1  -7   0   50.22    3.85
  -1  -7  -1  177.01   11.35
   1   7   1  208.19   10.44
   1   7   1  194.65   10.46
   1   7   1  164.85    8.95
  -1  -7  -1  165.60   10.24
  -1  -7  -1  151.36    9.47
   1   7   2  136.72    7.59
   1   7   2  135.62    7.02
  -1  -7  -2  141.86    9.56
   1   7   2  152.15    8.69
   1   7   2  150.57    8.20
   1   7   2  137.15    8.66
  -1  -7  -2  131.74    9.00
   1   7   2  123.79    7.61
  -1  -7  -2  127.21    8.20
   1   7   3    1.42    1.14
  -1  -7  -3    4.87    1.60
   1   7   3    2.39    1.04
   1   7   3    2.03    0.99
   1   7   3    1.47    1.13
   1   7   3    1.05    0.89
  -1  -7  -3    3.26    1.59
   1   7   3    1.25    0.80
  -1  -7  -3    3.06    1.15
  -1  -7  -3    2.91    0.72
   1   7   3    1.51    1.27
  -1  -7  -4  166.97   10.96
   1   7   4  180.04   10.04
   1   7   4  179.81   10.40
   1   7   4  182.81   10.97
   1   7   4  236.99   11.92
   1   7   4  202.03   10.88
   1   7   4  189.18   11.62
  -1  -7  -4  140.78   10.02
  -1  -7  -4  156.16    9.50
  -1  -7  -5   13.26    2.66
  -1  -7  -5   13.34    2.45
   1   7   5   18.39    2.84
   1   7   5   18.24    2.16
   1   7   5   17.13    3.16
   1   7   5   18.31    2.49
  -1  -7  -5   15.72    2.33
   1   7   5   17.70    2.65
  -1  -7  -5   11.07    1.90
   1   7   5   15.86    2.83
   1   7   6   90.24    7.34
   1   7   6   92.10    5.77
   1   7   6   82.11    6.07
  -1  -7  -6   77.05    6.06
   1   7   6   84.77    7.82
   1   7   6  109.36    7.44
   1   7   6  103.37    7.20
   1   7   6   96.03    7.62
  -1  -7  -6   69.23    5.94
  -1  -7  -6   58.11    6.40
   1   7   7  155.90   11.48
   1   7   7  161.18    8.83
   1   7   7  167.43    9.60
  -1  -7  -7  169.36   10.02
  -1  -7  -7  145.61   10.08
   1   7   7  173.74   11.68
  -1  -7  -8    5.26    2.23
   1   7   8    8.93    1.44
   1   7   8   11.62    3.23
  -1  -7  -8    8.07    2.05
  -1  -7  -8    4.70    1.78
   1   7   8   11.43    1.99
   1   7   8   12.59    3.10
  -1  -7  -9    3.93    2.12
   1   7   9    4.20    3.21
   1   7   9    3.54    1.01
   1   7   9    4.53    2.86
  -1  -7  -9    6.78    2.11
   1   7   9    4.70    1.51
  -1  -7  -9    4.02    1.84
   1   7  10   33.54    7.44
   1   7  10   36.81    6.26
  -1  -7 -10   40.33    4.48
   1   7  10   44.47    3.73
  -1  -7 -10   29.30    4.48
  -1  -7 -10   28.36    4.78
   1   7  11  108.81   13.54
   1   7  11  122.32   11.86
  -1  -7 -11  119.94    8.59
  -1  -7 -11   89.70    9.37
  -1  -7 -11   92.11    8.83
  -1  -7 -12   20.65    4.53
  -1  -7 -12   18.26    3.48
   1   7  12   26.25    5.91
   1   8  -6    8.45    2.38
  -1  -8   6   10.87    3.44
  -1  -8   5   57.93    7.25
   1   8  -5   58.22    4.75
  -1  -8   5   75.20    6.27
  -1  -8   5   58.26    6.52
   1   8  -5   54.18    5.46
  -1  -8   4   40.64    5.73
  -1  -8   4   46.24    4.65
   1   8  -4   33.59    3.50
   1   8  -4   30.39    3.83
  -1  -8   4   32.33    4.57
  -1  -8   3   40.08    5.72
   1   8  -3   61.31    4.80
  -1  -8   3   61.81    5.17
  -1  -8   3   46.78    5.16
   1   8  -3   54.22    5.08
  -1  -8   2    4.25    2.12
  -1  -8   2    5.28    1.81
  -1  -8   2    4.27    1.76
   1   8  -2    4.65    1.61
  -1  -8   1   33.15    3.62
  -1  -8   1   35.73    4.75
   1   8  -1   38.05    4.37
  -1  -8   1   37.63    3.88
  -1  -8   0   67.43    6.39
   1   8   0   71.67    5.49
   1   8   0   64.98    5.32
  -1  -8   0   65.47    5.29
  -1  -8   0   53.48    4.15
  -1  -8  -1   13.19    2.80
   1   8   1   15.66    2.42
   1   8   1   15.13    2.36
  -1  -8  -1   11.47    2.34
   1   8   1   12.56    1.52
  -1  -8  -1    9.28    1.63
  -1  -8  -2   10.74    2.58
   1   8   2   19.44    2.38
   1   8   2   19.38    2.60
  -1  -8  -2   12.71    2.61
   1   8   2   14.57    1.79
   1   8   2   23.62    3.58
  -1  -8  -2   10.82    1.85
  -1  -8  -3   22.90    3.40
   1   8   3   27.20    2.18
   1   8   3   22.87    2.83
   1   8   3   28.79    2.66
   1   8   3   26.45    2.97
  -1  -8  -3   18.16    3.26
   1   8   3   23.06    2.56
  -1  -8  -3   22.51    2.77
   1   8   3   34.37    3.94
   1   8   3   25.31    3.50
  -1  -8  -4  127.12    9.76
   1   8   4  150.44   10.21
   1   8   4  159.31    8.59
   1   8   4  150.14    9.04
   1   8   4  150.07    9.30
   1   8   4  189.18   10.63
   1   8   4  171.79    9.50
   1   8   4  172.16   10.81
  -1  -8  -4  116.76    7.87
   1   8   5    3.12    2.13
   1   8   5    5.45    1.91
   1   8   5    3.04    1.21
   1   8   5    4.23    1.70
   1   8   5    5.96    2.15
   1   8   5    4.60    1.73
  -1  -8  -5    1.70    0.91
   1   8   5    5.43    2.14
   1   8   6  111.10   10.35
   1   8   6  123.47    7.69
   1   8   6  116.30    8.85
   1   8   6  129.99    8.25
  -1  -8  -6  121.02    8.14
   1   8   6  117.87    9.37
   1   8   6  139.23    9.12
  -1  -8  -6  105.71    7.70
   1   8   6  127.20    9.67
   1   8   7 1599.53   81.37
   1   8   7 1724.14   78.29
   1   8   7 1649.83   75.13
  -1  -8  -7 1622.94   76.31
   1   8   7 1808.99   76.28
   1   8   7 1900.43   79.36
  -1  -8  -7 1406.00   77.76
  -1  -8  -7 1370.89   75.90
   1   8   8   71.80    9.32
   1   8   8   87.27    7.97
   1   8   8   73.58    5.01
  -1  -8  -8   75.23    6.10
   1   8   8   83.35    5.95
  -1  -8  -8   59.24    5.91
  -1  -8  -8   53.48    6.38
   1   8   8   86.75    7.89
   1   8   9   35.77    7.12
   1   8   9   38.60    5.80
   1   8   9   41.27    3.98
  -1  -8  -9   36.31    4.13
  -1  -8  -9   29.22    4.09
  -1  -8  -9   28.58    4.60
   1   8   9   41.02    5.62
  -1  -8 -10   12.61    3.38
   1   8  10   11.05    5.20
   1   8  10   11.20    3.87
  -1  -8 -10   17.09    3.01
   1   8  10   16.15    2.52
  -1  -8 -10   14.41    3.06
   1   8  11   90.83   12.34
   1   8  11   87.13    9.93
  -1  -8 -11   89.35    7.20
  -1  -8 -11   76.77    8.39
   1   8  11   98.26    9.42
  -1  -8 -11   72.37    7.64
   1   8  12    3.22    3.60
  -1  -8 -12    5.26    2.33
  -1  -9   4   43.61    5.37
   1   9  -4   54.59    5.41
   1   9  -4   52.72    4.71
  -1  -9   3    3.39    2.71
  -1  -9   3    2.00    1.78
   1   9  -3    3.59    1.81
  -1  -9   3    3.88    1.89
   1   9  -3    4.23    1.66
  -1  -9   2    2.61    2.30
   1   9  -2    1.28    1.64
  -1  -9   2    1.54    1.65
  -1  -9   2    0.84    1.47
   1   9  -2    1.05    1.45
  -1  -9   1   71.02    7.26
  -1  -9   1   72.06    5.68
  -1  -9   1   72.13    6.05
   1   9  -1   72.57    5.89
   1   9  -1   70.42    6.12
  -1  -9   0  722.82   37.96
  -1  -9   0  677.28   35.89
   1   9   0  784.00   36.54
  -1  -9  -1  189.40   12.94
  -1  -9  -1  176.35   11.64
   1   9   1  194.86   11.70
  -1  -9  -2   18.00    3.34
  -1  -9  -2   12.94    2.83
   1   9   2   20.28    2.81
   1   9   3   15.64    1.69
  -1  -9  -3   13.91    2.85
   1   9   3   19.87    2.69
  -1  -9  -3   12.52    2.93
   1   9   3   12.93    1.94
  -1  -9  -4  103.93    8.79
   1   9   4  119.66    8.40
   1   9   4  113.39    7.87
   1   9   4  115.84    7.65
   1   9   4  129.99    7.19
   1   9   4  112.34    7.62
   1   9   4  135.20    9.56
   1   9   4  120.14    7.71
   1   9   5   10.98    3.10
   1   9   5   16.11    2.49
   1   9   5   15.68    2.58
   1   9   5   16.90    2.71
   1   9   5   13.06    2.67
   1   9   5   14.36    2.62
  -1  -9  -5   14.17    1.88
   1   9   5   18.46    3.51
   1   9   6   22.18    4.61
   1   9   6   25.98    3.54
   1   9   6   23.29    2.88
   1   9   6   24.87    3.95
   1   9   6   22.36    3.07
   1   9   6   29.78    3.77
   1   9   6   22.34    3.94
  -1  -9  -6   20.34    2.61
   1   9   7   77.63    8.83
   1   9   7   73.39    5.43
   1   9   7   74.49    6.72
   1   9   7   85.18    6.21
   1   9   7   84.86    7.79
  -1  -9  -8   12.40    3.24
   1   9   8   11.46    4.45
   1   9   8   14.54    3.59
   1   9   8   14.20    2.13
  -1  -9  -8   13.36    2.73
   1   9   8   12.92    3.42
  -1  -9  -8    9.93    2.33
   1   9   8   15.55    2.60
   1   9   9    9.12    4.24
  -1  -9  -9    8.61    2.94
   1   9   9   12.17    3.54
  -1  -9  -9   12.00    2.65
  -1  -9  -9   10.84    2.57
   1   9   9   14.72    2.68
   1   9   9    8.86    3.30
  -1  -9 -10   19.36    4.22
   1   9  10   21.72    6.60
   1   9  10   25.85    5.06
  -1  -9 -10   27.63    3.90
   1   9  10   24.95    3.31
  -1  -9 -10   21.72    3.79
   1   9  10   23.46    4.79
  -1  -9 -11    0.99    2.02
   1   9  11   -1.26    4.69
   1   9  11    1.19    3.01
  -1  -9 -11    0.99    1.93
  -1  -9 -11    1.27    1.71
  -1  -9 -12   31.87    4.41
   1  10  -3    1.30    1.42
  -1 -10   2   19.62    4.23
   1  10  -2   22.22    3.28
   1  10  -2   22.87    3.56
  -1 -10   1   30.99    4.87
   1  10  -1   27.57    3.63
   1  10  -1   30.55    4.02
  -1 -10   0   76.83    7.74
   1  10   0   83.77    6.86
  -1 -10   0   69.16    6.33
   1  10   0   82.55    6.60
  -1 -10  -1    8.26    2.78
   1  10   1   13.09    2.58
  -1 -10  -1   12.28    2.88
   1  10   1   10.41    2.41
  -1 -10  -2   27.38    4.28
   1  10   2   30.09    3.78
  -1 -10  -2   27.37    4.00
   1  10   2   26.37    3.50
  -1 -10  -3  108.43    8.81
   1  10   3  105.88    7.54
  -1 -10  -3   88.91    8.08
   1  10   4    2.67    1.53
  -1 -10  -4    1.47    1.82
   1  10   4    2.16    1.62
   1  10   5    9.30    2.17
   1  10   5    9.02    2.35
   1  10   5    8.33    3.03
   1  10   6    3.12    1.53
   1  10   6    4.49    2.68
  -1 -10  -6    4.27    1.20
   1  10   6    3.23    1.71
   1  10   6    2.46    2.14
   1  10   7    6.73    1.89
   1  10   7    5.28    3.25
   1  10   7    7.62    2.89
  -1 -10  -7    3.41    1.36
   1  10   7    9.92    2.43
   1  10   8   18.12    4.92
   1  10   8   21.03    2.79
   1  10   8   23.14    3.41
   1  10   8   28.52    4.98
  -1 -10  -8   15.42    2.68
  -1 -10  -9    1.30    2.29
   1  10   9    2.44    3.81
  -1 -10  -9    1.46    1.78
   1  10   9    4.15    1.93
  -1 -10  -9    2.70    1.65
   1  10   9    5.36    3.26
  -1 -10 -10    0.69    2.16
   1  10  10    7.71    4.51
  -1 -10 -10    2.48    1.88
   1  10  10    8.10    2.44
  -1 -10 -10    1.32    1.55
  -1 -10 -11    9.16    3.55
   1  10  11   10.47    5.34
  -1 -10 -11   11.05    2.81
  -1 -10 -11    7.05    2.52
  -1 -10 -12   55.30    5.82
   1  11  -3    6.44    2.13
   1  11  -2    1.84    1.75
   1  11  -1   23.95    3.57
   1  11   0   15.28    2.98
   1  11   1    3.13    1.88
  -1 -11  -1    0.30    2.19
   1  11   1    1.74    1.86
  -1 -11  -2   21.22    4.24
   1  11   2   27.95    3.88
   1  11   2   22.26    3.54
  -1 -11  -3   52.11    6.12
   1  11   3   52.99    5.41
   1  11   3   49.90    5.09
  -1 -11  -4   33.87    4.85
   1  11   4   28.44    3.72
   1  11   5   46.94    4.74
   1  11   5   45.45    5.01
   1  11   6  104.73    8.02
   1  11   6  119.90    8.84
   1  11   6  127.76   10.30
   1  11   7   37.13    4.14
   1  11   7   39.70    4.65
   1  11   7   39.73    5.66
   1  11   8   13.15    2.58
   1  11   8   17.11    3.30
   1  11   8   18.97    4.36
   1  11   9    0.61    2.09
  -1 -11  -9    1.61    1.55
   1  11  10   46.21    4.82
  -1 -11 -10   17.88    3.37
  -1 -11 -11    0.46    1.81
   1  12   4    1.75    1.72
   1  12   5   27.51    3.84
   1  12   6   61.34    5.77
   1  12   7    1.08    1.59
   1  12   7    2.92    2.61
  -2  12   6   11.07    3.53
  -2  12   5   19.43    3.27
   2 -12  -5   13.03    5.28
  -2  12   5   18.43    3.98
  -2  12   4    9.27    2.51
   2 -12  -4    8.35    4.79
   2 -12  -3    6.96    4.52
   2 -12  -2   12.22    4.69
   2 -12  -1    8.79    4.21
  -2  11   7   43.00    5.03
  -2  11   7   50.43    6.35
  -2  11   6   15.75    2.62
   2 -11  -6   11.65    2.93
  -2  11   6   13.07    2.90
  -2  11   6   14.49    3.67
   2 -11  -5    6.39    2.48
  -2  11   5    5.69    1.93
   2 -11  -5    4.07    3.98
  -2  11   5    7.89    2.44
  -2  11   5    7.06    2.82
   2 -11  -4   32.26    4.85
  -2  11   4   30.29    3.85
  -2  11   4   44.02    4.75
   2 -11  -4   24.13    6.39
  -2  11   4   48.70    5.44
   2 -11  -3    7.24    2.72
  -2  11   3    4.09    1.89
   2 -11  -3    6.18    3.93
  -2  11   3    6.70    2.42
   2 -11  -2   19.24    4.00
  -2  11   2   12.89    2.69
   2 -11  -2   19.31    5.14
  -2  11   2   11.40    2.77
   2 -11  -1   30.60    5.17
  -2  11   1   35.66    4.37
  -2  11   1   41.93    4.72
   2 -11  -1   40.16    6.81
   2 -11   0   13.43    3.59
   2 -11   0   11.35    4.23
  -2  11   0   10.36    2.62
   2 -11   1   11.20    4.08
  -2  11  -1    8.69    2.45
  -2  11  -2  107.01    8.26
   2 -11   2  126.41   11.23
  -2  11  -3  239.02   14.29
  -2  10  10   30.59    4.04
  -2  10   9   12.88    5.03
  -2  10   9   10.29    2.60
  -2  10   8   56.29    8.31
  -2  10   8   67.67    5.98
  -2  10   8   78.94    7.88
  -2  10   7   28.08    5.62
  -2  10   7   40.32    4.43
  -2  10   7   40.26    5.46
  -2  10   6   15.06    2.39
  -2  10   6   12.52    3.48
   2 -10  -6   14.58    3.05
  -2  10   6   16.49    2.90
  -2  10   6   16.03    3.63
   2 -10  -5  107.23    8.91
  -2  10   5  114.43    7.94
  -2  10   5  127.35    8.83
   2 -10  -5  109.28   12.33
  -2  10   5  140.13    9.90
   2 -10  -4 1008.03   53.86
  -2  10   4 1064.74   52.25
  -2  10   4 1146.93   53.21
   2 -10  -4 1001.13   57.75
  -2  10   4 1208.61   54.16
   2 -10  -3   95.99    8.24
  -2  10   3   96.14    7.17
   2 -10  -3   85.32   10.14
  -2  10   3   99.57    7.82
   2 -10  -2    9.71    2.82
  -2  10   2    9.23    2.23
   2 -10  -2   10.31    4.08
  -2  10   2   13.40    2.64
  -2  10   2   12.66    2.68
   2 -10  -1   43.24    5.73
  -2  10   1   57.41    5.23
   2 -10  -1   45.29    6.70
  -2  10   1   48.73    4.90
   2 -10   0   67.75    7.11
  -2  10   0   50.77    5.37
   2 -10   0   80.79    8.44
  -2  10   0   67.09    5.79
   2 -10   1    9.53    3.10
  -2  10  -1   10.45    2.51
   2 -10   1    6.68    3.56
  -2  10  -1    8.23    2.23
   2 -10   2   10.84    3.28
   2 -10   2   11.40    3.89
  -2  10  -2   14.63    2.67
  -2  10  -3   28.60    3.60
   2 -10   3   29.57    5.34
   2 -10   4   13.51    3.91
  -2  10  -4   15.30    2.64
  -2   9  10   31.80    7.40
  -2   9  10   43.17    4.43
  -2   9   9   23.13    6.14
   2  -9  -9   19.54    4.79
  -2   9   9   27.70    3.50
  -2   9   9   33.40    5.36
  -2   9   8   97.08   11.33
  -2   9   8  129.38    8.57
   2  -9  -8   97.07   10.45
  -2   9   7   25.89    5.46
  -2   9   7   34.64    3.95
  -2   9   7   33.56    4.79
  -2   9   6    6.93    1.62
  -2   9   6    5.07    3.16
  -2   9   6    8.33    2.22
  -2   9   6    4.71    2.33
   2  -9  -5    7.50    2.29
  -2   9   5   13.01    3.33
  -2   9   5   15.14    2.29
  -2   9   5   16.98    2.76
   2  -9  -5   14.65    5.21
  -2   9   5   16.88    3.27
   2  -9  -4   95.34    8.05
  -2   9   4  111.84    8.24
  -2   9   4  105.53    7.17
  -2   9   4  105.11    7.64
  -2   9   4  103.97    6.93
   2  -9  -4   93.66   10.46
  -2   9   4  112.70    8.34
  -2   9   3   44.95    3.91
   2  -9  -3   33.61    4.44
  -2   9   3   36.21    3.82
  -2   9   3   42.87    4.31
   2  -9  -3   35.41    6.45
  -2   9   3   44.20    4.57
   2  -9  -2   -0.23    1.39
  -2   9   2    0.30    1.13
   2  -9  -2   -0.37    2.67
  -2   9   2   -0.16    1.24
  -2   9   2   -0.31    1.30
   2  -9  -1  218.02   14.27
  -2   9   1  189.10   12.43
  -2   9   1  215.88   12.88
   2  -9  -1  217.47   15.62
  -2   9   1  234.66   12.65
   2  -9   0    3.56    2.02
   2  -9   0    2.22    2.48
  -2   9   0    1.73    1.43
   2  -9   1   40.69    5.44
  -2   9  -1   40.54    4.25
   2  -9   1   53.19    6.34
   2  -9   2   52.31    6.44
  -2   9  -2   57.51    5.03
   2  -9   2   54.63    6.57
   2  -9   3    8.81    3.14
  -2   9  -3    5.76    2.05
   2  -9   3    9.31    3.28
  -2   9  -3    9.48    2.14
  -2   9  -4    3.60    1.79
   2  -9   4    9.68    3.35
  -2   9  -4    5.48    1.82
   2  -9   5   33.63    5.31
   2  -9   6   26.12    4.94
  -2   8  10   38.94    7.98
   2  -8  -9    0.72    2.41
  -2   8   9   -0.52    3.63
  -2   8   9    2.40    2.49
   2  -8  -9    2.60    1.40
  -2   8   9    3.45    2.43
  -2   8   9    2.98    1.61
  -2   8   8   99.17   11.52
  -2   8   8  105.80    9.22
  -2   8   8  118.58    7.88
  -2   8   8  130.62    9.95
   2  -8  -8  110.08   10.47
  -2   8   7    4.58    2.07
  -2   8   7    7.43    1.34
  -2   8   7    4.00    3.14
   2  -8  -7    4.72    2.56
  -2   8   7    7.78    2.68
  -2   8   7    7.85    2.02
  -2   8   6    1.39    0.89
  -2   8   6    0.72    1.28
   2  -8  -6    2.89    2.25
  -2   8   6    2.04    2.70
  -2   8   6    2.21    1.39
  -2   8   6    1.07    1.56
   2  -8  -5   83.90    7.16
  -2   8   5   90.64    8.58
  -2   8   5   89.80    5.96
  -2   8   5  102.67    6.47
   2  -8  -5  108.95   11.34
  -2   8   5  102.03    7.17
  -2   8   5  100.28    6.34
  -2   8   5  119.71    7.37
  -2   8   5  110.72    8.12
   2  -8  -4   62.23    6.01
  -2   8   4   75.37    6.89
  -2   8   4   77.78    5.52
  -2   8   4   75.65    5.32
  -2   8   4   78.35    6.00
   2  -8  -4   68.71    8.76
  -2   8   4   81.36    6.53
  -2   8   4   87.46    5.69
  -2   8   3    3.39    1.65
   2  -8  -3    1.88    1.30
  -2   8   3    5.00    1.47
   2  -8  -3    4.43    3.20
  -2   8   3    3.52    1.24
  -2   8   3    3.03    1.34
  -2   8   3    5.21    1.77
  -2   8   3    5.28    1.20
  -2   8   2   76.14    5.53
   2  -8  -2   96.78    7.58
   2  -8  -2   89.56    9.01
  -2   8   2   84.62   21.57
  -2   8   2   87.34    6.51
  -2   8   2   97.87    5.31
   2  -8  -1   31.97    4.12
   2  -8  -1   29.47    4.84
  -2   8   1   26.27    3.29
  -2   8   1   28.76    1.78
  -2   8   1   24.55    1.99
  -2   8   1   28.83    3.11
   2  -8   0    4.97    2.14
  -2   8   0   12.68    2.20
   2  -8   0    5.37    2.63
  -2   8   0   10.78    1.81
   2  -8   1  119.64    9.71
   2  -8   1  142.28   10.55
  -2   8  -1  115.42    7.99
   2  -8   2  640.57   35.18
  -2   8  -2  631.37   32.30
   2  -8   2  628.69   31.01
   2  -8   3   53.59    6.52
   2  -8   3   51.46    4.69
   2  -8   3   71.37    6.97
  -2   8  -3   67.97    5.17
   2  -8   4    4.53    2.75
   2  -8   4    8.67    2.23
   2  -8   4    9.15    3.04
  -2   8  -4    8.12    1.85
   2  -8   5    8.38    3.45
   2  -8   5    9.46    3.18
  -2   8  -5    9.34    1.87
   2  -8   6   49.40    6.32
  -2   7  11   24.30    5.56
  -2   7  10    0.58    3.28
   2  -7 -10    0.74    2.14
  -2   7  10    2.24    2.67
   2  -7 -10    1.23    1.39
  -2   7  10    0.60    2.18
   2  -7  -9   15.76    4.00
  -2   7   9   22.14    6.03
  -2   7   9   27.17    5.02
   2  -7  -9   14.50    2.31
  -2   7   9   29.07    3.14
   2  -7  -8    5.34    2.50
  -2   7   8    5.18    3.50
  -2   7   8    2.23    2.36
   2  -7  -8    3.85    1.32
  -2   7   8    3.02    1.40
  -2   7   8    4.55    2.34
  -2   7   7   86.21    9.82
  -2   7   7   93.36    7.97
  -2   7   7   99.62    5.44
  -2   7   7  103.98    6.77
   2  -7  -7   82.53    5.82
  -2   7   7  107.05    8.25
   2  -7  -7   76.73    8.26
   2  -7  -6   19.97    4.01
  -2   7   6   28.64    5.24
  -2   7   6   26.86    3.63
  -2   7   6   25.11    2.34
  -2   7   6   26.30    2.52
  -2   7   6   29.12    3.17
  -2   7   6   30.37    3.88
  -2   7   5  167.27   13.44
  -2   7   5  199.43   10.55
  -2   7   5  176.32   11.11
  -2   7   5  199.77   10.48
   2  -7  -5  186.62   16.01
  -2   7   5  204.43   11.49
   2  -7  -5  158.64   13.20
  -2   7   5  209.11   12.42
  -2   7   5  227.72   11.92
   2  -7  -4   66.77    5.92
  -2   7   4   70.91    7.05
  -2   7   4   79.47    4.94
  -2   7   4   79.92    5.41
  -2   7   4   86.95    5.38
   2  -7  -4   66.18    8.39
  -2   7   4   88.00    6.10
  -2   7   4   84.73    6.44
  -2   7   4  103.29    6.14
   2  -7  -3   12.64    2.31
  -2   7   3    8.17    2.23
   2  -7  -3   13.03    3.70
  -2   7   3   11.31    1.69
  -2   7   3    8.18    2.37
  -2   7   3   11.66    2.06
  -2   7   3   11.05    1.64
  -2   7   3   10.72    1.96
  -2   7   2   92.54    6.45
   2  -7  -2   91.59    7.24
  -2   7   2   75.33    6.84
   2  -7  -2   92.43    8.96
  -2   7   2   92.79    6.15
  -2   7   2   99.75    6.68
   2  -7  -1   29.92    3.79
  -2   7   1   31.04    2.57
  -2   7   1   30.58    3.22
   2  -7  -1   27.13    4.42
  -2   7   1   22.95    3.30
  -2   7   1   35.10    2.30
  -2   7   1   35.13    3.24
   2  -7   0   11.69    2.65
   2  -7   0   14.94    3.40
  -2   7   0   15.83    2.57
  -2   7   0   18.14    2.49
  -2   7   0   20.22    2.25
  -2   7   0   24.95    1.44
  -2   7   0   19.02    1.55
   2  -7   1   18.94    3.26
   2  -7   1   18.68    1.42
  -2   7  -1   17.98    2.46
   2  -7   1   23.75    3.85
  -2   7  -1   17.48    2.56
  -2   7  -1   21.63    2.05
   2  -7   2   44.20    5.31
  -2   7  -2   40.06    3.78
   2  -7   2   44.61    3.64
   2  -7   3   13.84    1.66
   2  -7   3   19.63    1.70
   2  -7   3   14.74    3.43
  -2   7  -3   17.78    2.32
   2  -7   3   16.95    2.64
   2  -7   4   48.96    4.17
   2  -7   4   43.75    6.11
   2  -7   4   47.76    5.14
  -2   7  -4   57.79    4.40
   2  -7   5   85.51    7.92
  -2   7  -5   92.02    6.18
   2  -7   6    1.67    2.00
   2  -7   6   -0.27    2.06
   2  -7   7    3.18    2.57
   2  -7   7    8.69    3.13
  -2   6  11   85.03   10.03
  -2   6  10    9.41    4.53
  -2   6  10    4.76    3.11
   2  -6 -10    7.77    1.98
  -2   6  10    5.58    2.70
  -2   6   9    5.88    3.97
  -2   6   9    1.40    2.14
   2  -6  -9    0.91    1.21
  -2   6   9    2.75    2.14
  -2   6   8    1.91    2.92
  -2   6   8    1.82    1.91
   2  -6  -8    5.09    1.42
  -2   6   8    3.66    1.38
  -2   6   7   61.14    8.29
   2  -6  -7   56.05    6.45
  -2   6   7   62.38    6.78
  -2   6   7   74.14    3.94
  -2   6   7   86.22    5.57
   2  -6  -7   69.44    4.93
  -2   6   7   93.25    7.15
  -2   6   6   33.39    5.58
  -2   6   6   34.22    2.44
   2  -6  -6   22.18    3.61
  -2   6   6   32.18    4.32
   2  -6  -6   28.38    2.67
  -2   6   6   39.33    3.39
  -2   6   6   45.12    4.55
  -2   6   5    6.39    2.86
  -2   6   5    8.41    1.91
   2  -6  -5    9.34    2.13
  -2   6   5    8.44    2.05
  -2   6   5    8.74    1.28
  -2   6   5    7.91    1.27
   2  -6  -5    8.93    3.84
  -2   6   5   11.08    2.25
  -2   6   5   10.37    1.96
  -2   6   5    9.57    1.72
  -2   6   4   47.68    5.69
  -2   6   4   61.61    4.97
   2  -6  -4   40.84    4.26
  -2   6   4   63.88    4.14
  -2   6   4   57.96    4.41
  -2   6   4   51.19    5.93
  -2   6   4   62.34    3.99
  -2   6   4   60.89    4.62
   2  -6  -4   46.89    6.79
  -2   6   4   70.73    5.36
  -2   6   4   67.63    4.79
  -2   6   3    7.74    2.06
   2  -6  -3    4.93    1.45
  -2   6   3    8.33    1.81
  -2   6   3    6.98    2.20
  -2   6   3    7.11    0.94
   2  -6  -3    6.03    2.83
  -2   6   3    5.96    1.14
  -2   6   3    4.92    1.99
  -2   6   3    7.04    1.58
  -2   6   3    9.02    1.55
  -2   6   3    7.63    1.51
  -2   6   2  120.92    8.10
   2  -6  -2  115.92    8.14
  -2   6   2  123.22    8.39
  -2   6   2  106.12    8.31
  -2   6   2  122.64    7.68
   2  -6  -2  118.69   10.04
  -2   6   2  122.17    7.14
  -2   6   2  132.66    7.83
  -2   6   2  135.05    7.16
  -2   6   2  133.83    9.22
  -2   6   1   14.58    1.86
   2  -6  -1   18.78    2.53
   2  -6  -1   16.01    2.49
  -2   6   1   12.69    2.28
   2  -6  -1   18.06    3.36
  -2   6   1   16.71    1.58
  -2   6   1   14.88    1.95
  -2   6   1   19.12    3.16
   2  -6   0   41.73    4.41
   2  -6   0   39.48    3.41
  -2   6   0   41.79    3.61
  -2   6   0   38.38    3.84
   2  -6   0   47.98    5.18
  -2   6   0   50.08    3.43
  -2   6   0   38.15    3.23
   2  -6   1  260.23   15.54
   2  -6   1  253.28   13.19
   2  -6   1  250.55   12.85
  -2   6  -1  230.27   14.10
  -2   6  -1  273.15   14.02
  -2   6  -1  266.76   12.89
  -2   6  -1  275.22   13.14
   2  -6   2   37.99    2.88
   2  -6   2   34.82    4.50
   2  -6   2   31.90    3.23
   2  -6   2   40.18    4.49
  -2   6  -2   37.58    3.32
  -2   6  -2   33.94    3.50
  -2   6  -2   40.27    2.62
   2  -6   3   33.32    4.64
   2  -6   3   41.85    3.09
   2  -6   3   33.14    3.83
  -2   6  -3   34.40    3.22
   2  -6   3   43.93    4.74
  -2   6  -3   37.17    2.73
   2  -6   4    0.53    0.93
   2  -6   4    1.43    1.64
   2  -6   4    0.43    1.56
  -2   6  -4    0.09    0.83
  -2   6  -4    0.67    0.77
   2  -6   5   77.59    5.31
   2  -6   5   56.11    6.08
   2  -6   5   60.87    6.65
   2  -6   5   83.51    7.21
  -2   6  -5   73.98    4.96
   2  -6   5   84.31    6.83
  -2   6  -5   80.98    5.20
   2  -6   6    0.97    2.02
   2  -6   6    1.45    2.08
   2  -6   6    1.66    2.11
  -2   6  -6    2.12    0.93
   2  -6   7   39.98    6.08
   2  -6   7   53.33    6.06
   2  -6   8   44.99    6.77
   2  -6   8   63.35    6.81
  -2   5  11   77.59    9.48
   2  -5 -11   57.96    5.50
  -2   5  11   89.62    8.27
  -2   5  10    3.54    3.61
  -2   5  10    1.26    2.56
   2  -5 -10    4.28    1.79
  -2   5  10    3.16    2.28
  -2   5   9   23.00    6.03
  -2   5   9   21.89    4.87
   2  -5  -9   29.15    3.16
  -2   5   9   28.00    4.15
  -2   5   8    0.48    2.51
  -2   5   8    1.62    2.08
   2  -5  -8    2.09    1.20
  -2   5   8    3.84    1.92
  -2   5   7   37.12    6.38
  -2   5   7   44.56    5.62
   2  -5  -7   43.71    3.56
  -2   5   7   51.80    3.83
  -2   5   6  177.57    9.52
  -2   5   6  122.48   11.82
  -2   5   6  149.93    7.19
  -2   5   6  135.50   10.38
   2  -5  -6  110.90    9.74
   2  -5  -6  133.37    7.92
  -2   5   6  160.21    8.58
  -2   5   5   59.82    7.19
  -2   5   5   90.05    5.76
  -2   5   5   75.89    4.24
   2  -5  -5   57.58    5.70
  -2   5   5   62.43    5.89
   2  -5  -5   68.39    4.44
  -2   5   5   62.69    7.16
  -2   5   5   78.08    5.11
  -2   5   5   86.83    5.94
  -2   5   4   42.20    3.63
  -2   5   4   29.89    4.50
   2  -5  -4   35.82    3.58
  -2   5   4   33.71    2.58
  -2   5   4   28.99    3.30
  -2   5   4   36.29    3.12
  -2   5   4   25.53    4.20
  -2   5   4   32.30    2.50
   2  -5  -4   40.80    6.00
  -2   5   4   41.86    3.56
  -2   5   4   44.66    4.51
   2  -5  -3  118.13    9.84
  -2   5   3  133.51    9.72
   2  -5  -3  112.59    8.04
  -2   5   3  148.76    8.64
  -2   5   3  130.84    7.79
   2  -5  -3  118.83    7.78
   2  -5  -3  133.66   11.03
  -2   5   3  131.41    9.80
  -2   5   3  148.25    7.54
  -2   5   3  160.87    8.42
  -2   5   3  168.82    9.99
  -2   5   3  185.99    8.69
   2  -5  -2   83.83    6.52
  -2   5   2   70.92    3.94
  -2   5   2   73.43    5.85
   2  -5  -2   76.28    5.43
  -2   5   2   76.30    5.56
  -2   5   2   72.16    4.56
  -2   5   2   65.93    5.95
  -2   5   2   73.24    5.04
   2  -5  -2   81.65    7.48
  -2   5   2   88.18    4.97
  -2   5   2   81.50    6.32
  -2   5   1  115.19    6.91
  -2   5   1  119.07    7.63
   2  -5  -1  110.93    7.33
   2  -5  -1   95.05    7.20
  -2   5   1   95.43    7.21
   2  -5  -1  108.86    8.65
  -2   5   0  369.73   17.74
   2  -5   0  364.23   19.31
   2  -5   0  349.03   18.40
   2  -5   0  399.98   20.60
  -2   5   0  324.08   18.70
  -2   5   0  387.87   18.37
   2  -5   1 1501.67   73.80
   2  -5   1 1589.68   72.18
   2  -5   1 1415.93   71.59
  -2   5  -1 1544.53   72.75
   2  -5   1 1713.20   74.52
  -2   5  -1 1755.20   72.45
  -2   5  -1 1457.97   71.86
  -2   5  -1 1635.46   71.33
   2  -5   2  155.57    7.91
   2  -5   2  123.12    9.39
   2  -5   2  122.18    8.18
   2  -5   2  163.41    9.80
  -2   5  -2  146.47    8.04
  -2   5  -2  130.38    8.36
  -2   5  -2  139.33    7.73
  -2   5  -2  136.85    6.77
   2  -5   3    4.98    1.17
   2  -5   3    4.21    1.46
   2  -5   3    3.56    1.68
  -2   5  -3    2.45    0.89
  -2   5  -3    3.04    0.93
   2  -5   4    2.95    1.13
   2  -5   4    2.43    1.64
   2  -5   4    2.95    1.76
  -2   5  -4    3.07    0.96
   2  -5   4    3.82    1.69
  -2   5  -4    2.96    1.01
   2  -5   5   80.70    7.00
  -2   5  -5   89.34    5.21
   2  -5   5   88.82    7.22
  -2   5  -5   91.03    5.80
   2  -5   6   51.90    5.44
   2  -5   6   57.07    5.81
  -2   5  -6   47.12    4.16
   2  -5   7   11.93    3.63
   2  -5   7   12.39    3.65
   2  -5   7   19.59    3.58
  -2   5  -7   16.85    2.61
   2  -5   8   10.50    3.85
   2  -5   8    4.64    2.89
   2  -5   8    9.70    2.95
   2  -5   9    1.69    2.71
  -2   4  11    7.67    4.11
   2  -4 -11    8.30    2.39
  -2   4  11   10.30    3.22
  -2   4  10   74.90   10.73
  -2   4  10   77.17    9.69
   2  -4 -10   94.97    6.80
  -2   4  10  105.83    8.55
   2  -4 -10   97.13    9.68
  -2   4   9   37.10    7.19
  -2   4   9   38.06    6.26
   2  -4  -9   52.25    4.37
   2  -4  -9   46.41    6.24
  -2   4   9   50.27    5.46
  -2   4   8   36.49    6.65
  -2   4   8   37.11    5.64
   2  -4  -8   39.86    3.56
  -2   4   8   44.27    4.87
   2  -4  -8   45.25    5.71
  -2   4   7  100.48   10.72
  -2   4   7  116.17    9.85
   2  -4  -7  116.80    6.87
   2  -4  -7  104.85    9.06
  -2   4   6 2981.46  128.95
  -2   4   6 3758.02  137.38
  -2   4   6 3215.47  132.83
   2  -4  -6 3669.47  133.03
   2  -4  -6 2628.19  127.90
  -2   4   6 2575.28  127.92
   2  -4  -6 2414.45  130.83
  -2   4   5  305.40   14.52
  -2   4   5  225.57   17.08
  -2   4   5  274.38   12.60
  -2   4   5  223.67   15.37
   2  -4  -5  230.53   15.39
   2  -4  -5  238.01   13.53
   2  -4  -5  269.77   13.29
  -2   4   5  253.36   17.29
  -2   4   5  288.25   13.87
   2  -4  -5  244.26   15.56
  -2   4   5  281.86   15.63
  -2   4   5  325.80   15.35
   2  -4  -4    2.17    1.40
  -2   4   4    3.25    1.34
  -2   4   4    2.60    1.87
  -2   4   4    2.87    1.02
   2  -4  -4    1.78    1.16
  -2   4   4    3.92    1.53
  -2   4   4    2.72    1.87
   2  -4  -4    1.54    0.56
   2  -4  -4    2.34    0.79
  -2   4   4    3.36    0.88
  -2   4   4    4.17    1.22
   2  -4  -3  104.30    7.26
  -2   4   3  153.64    7.99
  -2   4   3  134.66    9.63
   2  -4  -3  124.47    9.65
  -2   4   3  125.20    7.80
   2  -4  -3  114.09    7.76
  -2   4   3  139.54    6.74
   2  -4  -3  115.12    7.24
  -2   4   3  123.83    9.38
  -2   4   3  141.88    7.57
   2  -4  -3  111.92    8.61
  -2   4   3  176.23    8.26
  -2   4   3  154.56    9.18
   2  -4  -2   24.48    2.42
  -2   4   2   25.04    3.13
  -2   4   2   26.63    2.55
   2  -4  -2   24.56    3.42
   2  -4  -2   20.67    2.09
  -2   4   2   22.46    1.99
  -2   4   2   25.68    2.34
   2  -4  -2   24.62    3.81
  -2   4   2   20.18    3.00
  -2   4   2   25.22    1.85
  -2   4   2   27.15    2.31
   2  -4  -2   25.15    3.20
  -2   4   2   25.06    3.07
   2  -4  -1   52.72    4.04
  -2   4   1   54.09    4.19
  -2   4   1   60.74    4.34
   2  -4  -1   50.95    4.51
   2  -4  -1   46.63    2.90
  -2   4   1   59.20    3.83
  -2   4   1   47.38    4.34
   2  -4  -1   49.83    3.59
   2  -4  -1   49.71    5.04
  -2   4   1   66.18    5.22
  -2   4   0   29.12    2.39
   2  -4   0   26.78    2.69
   2  -4   0   25.15    2.69
   2  -4   0   23.94    1.58
   2  -4   0   21.37    1.62
   2  -4   0   24.48    2.19
   2  -4   0   26.22    3.27
  -2   4   0   26.02    2.80
   2  -4   1  130.07    7.01
   2  -4   1  111.45    7.75
   2  -4   1  108.68    6.59
   2  -4   1  119.70    6.70
  -2   4  -1  109.33    7.20
  -2   4  -1  125.98    6.84
   2  -4   1  124.95    8.10
  -2   4  -1  112.60    7.14
   2  -4   2   67.81    4.32
   2  -4   2   52.73    4.52
   2  -4   2   68.21    5.35
  -2   4  -2   58.48    4.54
  -2   4  -2   61.32    4.11
  -2   4  -2   54.53    4.24
  -2   4  -2   65.05    3.29
   2  -4   3   56.83    3.91
   2  -4   3   48.36    4.62
  -2   4  -3   50.29    3.50
   2  -4   3   54.27    4.74
   2  -4   3   56.76    4.82
  -2   4  -3   43.82    3.72
   2  -4   4  193.39   11.21
  -2   4  -4  172.79    9.10
   2  -4   4  196.21   11.53
  -2   4  -4  169.44    9.83
   2  -4   5   37.70    4.83
   2  -4   5   50.33    4.82
  -2   4  -5   40.08    2.93
   2  -4   5   55.79    5.29
  -2   4  -5   36.70    3.59
   2  -4   6   72.03    7.67
   2  -4   6   95.85    7.41
   2  -4   6  103.38    8.09
  -2   4  -6   81.81    6.18
   2  -4   7   47.59    6.73
   2  -4   7   67.99    6.26
  -2   4  -7   62.96    5.34
   2  -4   8   10.65    3.76
   2  -4   8   12.93    3.85
   2  -4   8   13.24    3.15
  -2   4  -8   15.20    2.75
   2  -4   9    2.19    3.07
   2  -4   9    2.18    2.59
   2  -4   9    0.51    1.99
  -2   4  -9   -0.19    1.65
   2  -4  10    1.90    3.27
   2  -3 -11   32.95    4.17
  -2   3  11   43.32    5.41
  -2   3  10  145.39   13.63
   2  -3 -10  142.78    9.73
  -2   3  10  183.17   11.79
   2  -3 -10  146.82   12.66
  -2   3   9   29.75    5.74
   2  -3  -9   29.14    3.42
   2  -3  -9   32.64    5.27
  -2   3   9   38.63    4.55
   2  -3  -8    7.19    2.69
  -2   3   8    4.77    3.22
  -2   3   8    5.68    2.83
   2  -3  -8    7.65    1.70
  -2   3   8    6.68    2.13
  -2   3   7   35.25    6.16
  -2   3   7   38.52    5.48
   2  -3  -7   44.22    3.59
   2  -3  -7   43.68    5.36
  -2   3   6   87.44    9.52
  -2   3   6  106.48    8.90
   2  -3  -6   90.92    8.30
   2  -3  -6  105.98    6.13
   2  -3  -6   97.93    5.86
   2  -3  -6  111.77    8.54
  -2   3   5  206.48    9.32
  -2   3   5  129.50   11.56
   2  -3  -5  134.26   10.38
  -2   3   5  142.44   10.59
   2  -3  -5  138.48    8.21
  -2   3   5  132.48   11.36
   2  -3  -5  152.50    8.17
   2  -3  -5  144.60   10.28
  -2   3   5  209.99   10.39
  -2   3   4  103.83    5.76
  -2   3   4   83.55    7.84
  -2   3   4   75.16    6.52
  -2   3   4   92.05    4.44
   2  -3  -4   75.26    6.57
   2  -3  -4   84.27    4.85
   2  -3  -4   80.88    5.21
  -2   3   4   76.73    7.52
  -2   3   4   95.43    5.39
   2  -3  -4   82.56    6.64
  -2   3   4  108.12    6.55
   2  -3  -3  594.88   32.29
  -2   3   3  568.63   31.78
  -2   3   3  692.75   29.51
   2  -3  -3  556.36   30.19
  -2   3   3  551.02   30.12
   2  -3  -3  589.90   28.30
  -2   3   3  573.20   31.74
   2  -3  -3  627.67   29.17
  -2   3   3  674.87   29.22
  -2   3   3  776.48   30.26
   2  -3  -3  542.37   30.42
  -2   3   2   26.68    2.31
  -2   3   2   25.40    3.15
   2  -3  -2   18.27    1.89
   2  -3  -2   21.22    3.15
  -2   3   2   24.19    2.30
   2  -3  -2   17.45    2.19
  -2   3   2   25.39    2.11
  -2   3   2   26.23    3.30
  -2   3   2   28.26    1.59
   2  -3  -2   21.52    2.77
  -2   3   1  180.11    9.40
   2  -3  -1  197.51   11.24
   2  -3  -1  193.19    9.98
  -2   3   1  193.48   10.84
  -2   3   1  192.93   10.07
  -2   3   1  165.59   10.75
   2  -3  -1  199.20    9.82
  -2   3   1  191.01    9.76
   2  -3  -1  188.70    9.68
  -2   3   0  253.52   12.80
   2  -3   0  273.52   12.04
   2  -3   0  269.56   13.31
  -2   3   0  221.31   13.06
   2  -3   0  260.93   12.46
   2  -3   1   34.03    2.81
  -2   3  -1   38.18    2.72
   2  -3   1   32.61    2.69
  -2   3  -1   33.77    3.05
   2  -3   1   32.45    2.50
  -2   3  -1   33.98    2.54
  -2   3  -1   34.09    3.20
   2  -3   2   44.67    3.10
   2  -3   2   35.38    3.30
  -2   3  -2   34.32    2.56
   2  -3   2   38.39    2.62
  -2   3  -2   29.60    2.89
   2  -3   2   44.09    3.73
  -2   3  -2   25.31    2.89
   2  -3   3   69.50    4.41
   2  -3   3   59.56    5.09
  -2   3  -3   54.74    3.60
   2  -3   3   66.49    5.00
  -2   3  -3   47.23    4.19
   2  -3   3   71.07    5.39
   2  -3   4  166.12   11.00
   2  -3   4  191.96   10.47
  -2   3  -4  158.26    8.39
   2  -3   4  210.10   11.32
  -2   3  -4  137.13    9.29
   2  -3   5   33.63    4.62
   2  -3   5   41.09    4.17
   2  -3   5   42.62    4.67
  -2   3  -5   42.76    3.87
   2  -3   6  245.46   13.65
   2  -3   6  248.75   14.75
  -2   3  -6  212.04   12.74
   2  -3   7 1509.36   74.78
   2  -3   7 1542.33   70.97
  -2   3  -7 1418.23   69.88
   2  -3   8   14.19    3.75
   2  -3   8   15.16    3.08
  -2   3  -8   22.48    3.25
   2  -3   9   11.15    4.21
   2  -3   9   15.03    4.58
   2  -3   9   15.19    3.41
  -2   3  -9   11.26    2.87
   2  -3  10    8.24    3.62
   2  -3  10    7.13    3.80
  -2   3 -10    9.38    2.59
   2  -3  11   64.58    9.93
   2  -2 -12   21.17    3.76
   2  -2 -11   14.05    2.88
  -2   2  11   16.23    3.48
  -2   2  10   99.92   12.12
  -2   2  10   89.65   10.50
   2  -2 -10   95.14    7.37
  -2   2  10  111.94    8.47
   2  -2 -10   94.29    9.50
  -2   2   9    7.46    3.32
   2  -2  -9   11.89    3.34
  -2   2   9    8.91    3.91
  -2   2   9    8.43    2.42
  -2   2   8    2.21    2.26
   2  -2  -8    9.45    2.77
  -2   2   7   58.00    7.01
   2  -2  -7   63.37    3.96
   2  -2  -7   73.35    6.77
  -2   2   6   62.23    6.97
   2  -2  -6   71.35    7.29
   2  -2  -6   77.50    4.56
  -2   2   5    1.83    1.67
   2  -2  -5    0.45    1.62
   2  -2  -5    4.21    1.50
  -2   2   5    1.24    1.90
   2  -2  -5    2.31    0.69
  -2   2   5    4.53    1.41
  -2   2   4  117.16   10.39
  -2   2   4  116.47    9.42
   2  -2  -4  147.26   10.04
   2  -2  -4  153.21    7.83
  -2   2   4  169.23    9.24
   2  -2  -4  172.09    9.98
  -2   2   3   35.15    2.59
  -2   2   3   31.42    4.11
  -2   2   3   33.54    1.95
   2  -2  -3   33.12    3.55
  -2   2   3   26.23    3.23
   2  -2  -3   37.10    2.18
   2  -2  -3   37.60    2.57
   2  -2  -3   34.50    4.57
   2  -2  -3   43.73    3.81
  -2   2   3   37.45    3.13
  -2   2   2   23.15    1.78
  -2   2   2   19.58    2.80
  -2   2   2   21.98    2.31
   2  -2  -2   15.59    2.17
  -2   2   2   18.65    2.71
   2  -2  -2   17.09    2.94
   2  -2  -2   18.31    1.65
   2  -2  -2   15.98    2.13
  -2   2   2   23.34    1.85
   2  -2  -1  400.28   19.53
  -2   2   1  430.96   19.70
   2  -2  -1  445.90   21.61
  -2   2   1  419.26   21.14
  -2   2   1  392.57   19.92
   2  -2  -1  410.98   20.21
  -2   2   1  388.31   21.05
   2  -2  -1  412.44   21.69
  -2   2   1  430.93   19.81
   2  -2  -1  445.97   21.10
   2  -2   0 3342.44  154.02
   2  -2   0 4556.00  155.85
  -2   2   0 4699.84  155.48
   2  -2   0 3014.91  153.66
  -2   2   0 3388.92  154.92
   2  -2   0 3679.32  156.68
   2  -2   0 2976.68  153.57
  -2   2  -1  481.53   23.07
   2  -2   1  524.88   23.37
  -2   2  -1  453.60   23.31
   2  -2   1  478.47   22.59
  -2   2  -1  483.72   22.65
  -2   2  -1  467.16   24.10
   2  -2   2   31.24    2.59
   2  -2   2   31.27    3.05
  -2   2  -2   28.84    2.62
   2  -2   2   27.56    2.09
  -2   2  -2   35.73    2.30
   2  -2   2   31.90    3.34
  -2   2  -2   31.72    3.05
   2  -2   3   45.00    4.24
   2  -2   3   41.74    2.75
  -2   2  -3   42.53    3.72
   2  -2   3   48.41    4.33
  -2   2  -3   45.75    2.75
   2  -2   4  208.52   12.74
   2  -2   4  213.07    9.87
  -2   2  -4  182.81   11.27
  -2   2  -4  188.22    9.66
   2  -2   5   33.80    4.35
   2  -2   5   35.94    3.56
   2  -2   5   35.77    4.13
  -2   2  -5   22.20    2.91
   2  -2   6  113.96    9.95
   2  -2   6  136.46    8.79
  -2   2  -6  115.28    8.27
   2  -2   6  139.78    9.78
   2  -2   7   82.22    8.37
   2  -2   7   96.72    7.11
  -2   2  -7   73.03    6.36
   2  -2   8   11.85    3.68
   2  -2   8   13.41    2.83
  -2   2  -8   12.21    2.59
   2  -2   9    5.40    2.87
   2  -2   9    8.40    2.52
  -2   2  -9    5.14    2.24
   2  -2  10   42.79    7.92
   2  -2  10   39.88    6.96
   2  -2  10   53.84    5.99
  -2   2 -10   51.29    5.69
   2  -2  11    1.74    3.35
  -2   2 -11    5.91    2.71
  -2   1  11   19.13    3.60
  -2   1  10    5.19    3.25
   2  -1 -10    4.75    2.62
  -2   1  10    4.54    3.48
  -2   1  10    5.83    2.24
  -2   1   9   48.39    7.18
  -2   1   9   37.71    7.06
  -2   1   9   59.19    5.44
   2  -1  -9   42.31    5.90
  -2   1   8   28.23    5.30
  -2   1   8   23.66    5.57
   2  -1  -8   35.34    4.92
  -2   1   7  186.09   14.97
  -2   1   7  187.90   13.77
   2  -1  -7  165.29    8.64
   2  -1  -7  190.39   12.35
  -2   1   6  117.18   11.10
  -2   1   6  129.68   10.55
   2  -1  -6  125.06    6.70
   2  -1  -6  144.50    9.70
   2  -1  -5    6.42    1.77
  -2   1   5    6.07    2.01
   2  -1  -5    6.52    2.44
   2  -1  -5    6.98    0.96
  -2   1   5    4.12    2.28
   2  -1  -4  130.30   10.46
  -2   1   4  113.07    8.98
   2  -1  -4  135.85    9.48
   2  -1  -4  133.01    6.84
  -2   1   4  110.80    9.55
   2  -1  -4  149.66    8.79
  -2   1   3  112.18    8.25
   2  -1  -3  110.04    8.24
  -2   1   3  126.46    5.96
   2  -1  -3  127.25    9.56
  -2   1   3  105.59    8.74
  -2   1   3  126.89    7.56
   2  -1  -3  119.59    6.49
   2  -1  -3  129.45    7.92
  -2   1   3  143.67    7.65
   2  -1  -2   51.63    5.28
  -2   1   2   71.11    5.63
   2  -1  -2   56.21    4.78
  -2   1   2   67.26    4.88
  -2   1   2   72.30    3.36
   2  -1  -2   56.77    5.44
  -2   1   2   70.04    4.50
   2  -1  -2   54.54    4.33
   2  -1  -2   54.03    3.58
  -2   1   1    4.47    0.91
  -2   1   1    6.82    1.45
  -2   1   1    5.50    0.58
   2  -1  -1    4.95    0.96
  -2   1   1    4.00    0.92
   2  -1  -1    4.64    1.06
  -2   1   1    5.02    0.61
   2  -1  -1    5.68    1.44
  -2   1   0  294.24   15.23
   2  -1   0  302.31   14.05
   2  -1   0  296.00   14.78
  -2   1   0  298.68   14.75
  -2   1   0  305.23   14.26
   2  -1   0  289.22   15.44
  -2   1   0  298.72   13.87
  -2   1   0  322.31   15.14
  -2   1  -1  203.65   10.77
   2  -1   1  209.04   10.92
  -2   1  -1  196.22   10.71
   2  -1   1  210.53   11.01
   2  -1   1  218.97   10.21
   2  -1   2   57.73    3.82
  -2   1  -2   51.87    3.62
   2  -1   2   56.51    3.88
  -2   1  -2   48.57    4.21
   2  -1   2   54.22    3.11
   2  -1   2   58.24    4.67
   2  -1   3  463.77   24.56
   2  -1   3  495.68   23.46
   2  -1   3  510.30   22.25
  -2   1  -3  413.37   23.77
  -2   1  -3  442.09   22.64
   2  -1   3  540.99   24.95
   2  -1   4    6.31    1.81
   2  -1   4    7.06    0.75
   2  -1   4    6.25    1.68
  -2   1  -4    7.25    1.00
  -2   1  -4    7.12    1.51
   2  -1   5   25.85    3.83
   2  -1   5   27.55    1.59
  -2   1  -5   19.76    1.90
   2  -1   5   31.91    3.76
  -2   1  -5   19.81    2.73
   2  -1   6   90.99    8.46
  -2   1  -6   84.54    6.82
   2  -1   7   24.64    4.46
  -2   1  -7   24.06    2.36
  -2   1  -7   20.12    3.04
  -2   1  -8   30.41    2.80
   2  -1   8   26.40    5.00
  -2   1  -8   29.34    3.87
   2  -1   9   43.97    6.62
   2  -1   9   49.76    5.27
  -2   1  -9   32.16    4.42
   2  -1  10    0.92    2.49
   2  -1  10    0.95    1.98
  -2   1 -10    0.24    1.71
   2  -1  11    7.23    4.33
  -2   1 -11    8.06    2.96
   2   0 -10    1.72    2.26
  -2   0  10    2.75    3.18
  -2   0  10    0.19    1.50
  -2   0   9   44.27    7.06
  -2   0   9   41.55    7.41
  -2   0   9   59.88    5.30
   2   0  -9   36.79    5.54
   2   0  -8   14.34    0.99
   2   0  -8   14.88    1.00
  -2   0   8   21.19    4.72
  -2   0   8   23.76    5.29
   2   0  -8   15.78    3.42
  -2   0   7   35.97    6.25
  -2   0   7   37.88    5.78
   2   0  -7   44.75    2.53
   2   0  -7   45.18    2.72
   2   0  -7   50.15    5.43
  -2   0   6   54.65    7.07
  -2   0   6   54.59    6.51
   2   0  -6   58.13    3.18
   2   0  -6   55.94    3.38
   2   0  -6   64.86    5.86
  -2   0   5   15.62    3.37
   2   0  -5   24.01    1.59
  -2   0   5   16.10    3.69
   2   0  -5   22.85    1.79
   2   0  -5   24.04    3.12
  -2   0   5   25.62    2.99
  -2   0   4  183.95   14.52
  -2   0   4  209.85   14.35
   2   0  -4  243.49   11.28
  -2   0   4  189.56   14.48
  -2   0   4  269.48   13.43
   2   0  -4  268.77   13.74
   2   0  -3   35.60    4.41
  -2   0   3   22.90    3.18
   2   0  -3   30.31    1.80
  -2   0   3   25.69    1.76
  -2   0   3   20.30    3.31
   2   0  -3   35.17    3.09
   2   0  -2   44.99    4.49
  -2   0   2   45.08    2.47
   2   0  -2   39.89    2.41
  -2   0   2   43.20    3.94
  -2   0   2   33.22    3.85
   2   0  -2   43.29    3.31
   2   0  -1  496.12   23.27
  -2   0   1  421.14   22.15
   2   0  -1  443.72   20.94
  -2   0   1  468.46   20.93
  -2   0   1  439.96   22.45
   2   0  -1  434.20   22.84
  -2   0   1  448.03   21.47
   2   0  -1  460.75   21.69
   2   0   0   53.26    3.93
  -2   0   0   46.88    3.64
  -2   0   0   48.82    3.52
  -2   0   0   52.08    2.93
   2   0   0   49.18    3.66
   2   0   0   50.85    2.77
  -2   0   0   53.97    2.81
  -2   0   0   45.74    3.03
   2   0   0   55.47    3.19
  -2   0  -1   20.90    2.00
   2   0   1   23.12    2.12
  -2   0  -1   21.64    1.61
   2   0   1   22.63    1.66
   2   0   1   21.92    1.56
   2   0   1   24.16    2.01
  -2   0  -1   20.99    1.55
   2   0   2   74.16    4.43
  -2   0  -2   67.39    5.22
  -2   0  -3  248.61   12.00
   2   0   3  258.79   12.58
  -2   0  -3  224.39   13.25
  -2   0  -3  236.50   12.38
  -2   0  -4   36.95    2.57
  -2   0  -4   33.49    3.48
   2   0   4   35.05    3.78
  -2   0  -4   32.91    2.71
  -2   0  -5  205.06   10.08
   2   0   5  201.56    9.18
   2   0   5  219.32   12.51
  -2   0  -5  168.45   10.03
  -2   0  -5  167.32   11.26
  -2   0  -6  256.57   11.96
   2   0   6  202.51   12.62
   2   0   6  240.00   14.41
  -2   0  -6  208.06   13.34
   2   0   7  153.54   12.30
  -2   0  -7  158.85    8.59
   2   0   7  168.54    9.74
  -2   0  -7  140.23   10.18
  -2   0  -8   18.41    2.05
   2   0   8   18.34    4.04
   2   0   8   22.70    2.96
  -2   0  -8   15.78    2.97
  -2   0  -9   10.59    1.58
   2   0   9   12.28    3.79
   2   0   9    9.38    2.20
  -2   0  -9    6.81    2.31
   2   0  10   21.89    5.15
  -2   0 -10   11.15    2.99
   2   0  11    6.02    3.60
   2   0  11    5.59    4.00
  -2   0 -11    5.13    2.55
  -2  -1  10    2.12    3.24
  -2  -1  10    0.72    1.62
  -2  -1   9   28.97    6.17
  -2  -1   9   32.33    3.80
   2   1  -9   30.32    4.86
   2   1  -8   72.63    7.21
  -2  -1   8   63.61    8.64
   2   1  -8   65.36    3.99
  -2  -1   7  111.14   11.10
   2   1  -7  121.91    6.45
   2   1  -7  114.28    5.93
   2   1  -6    2.10    0.66
   2   1  -6    2.06    1.48
  -2  -1   6    2.78    2.23
   2   1  -6    2.37    0.60
   2   1  -5   63.83    6.75
   2   1  -5   55.56    3.63
  -2  -1   5   56.13    6.56
   2   1  -4   56.63    5.80
   2   1  -4   51.16    3.26
  -2  -1   4   46.04    5.49
  -2  -1   4   58.23    4.50
   2   1  -3   91.66    7.50
   2   1  -3   90.02    5.07
   2   1  -3   97.87    8.02
  -2  -1   3   76.41    7.11
   2   1  -2  355.85   18.67
  -2  -1   2  322.38   17.89
   2   1  -2  327.62   15.73
  -2  -1   2  301.39   17.51
   2   1  -2  354.39   18.33
  -2  -1   2  357.05   15.77
  -2  -1   1 3047.22  165.38
   2   1  -1 3460.95  161.81
  -2  -1   1 3442.91  162.89
  -2  -1   1 3536.10  161.50
   2   1  -1 3175.13  161.37
  -2  -1   1 3648.13  162.96
   2   1   0  571.50   26.80
  -2  -1   0  558.53   25.42
  -2  -1   0  538.18   26.60
   2   1   0  525.04   26.51
  -2  -1   0  570.52   25.62
   2   1   0  537.34   25.61
  -2  -1   0  534.90   25.88
   2   1   0  547.30   26.23
   2   1   0  563.47   25.41
   2   1   1   35.57    2.68
   2   1   1   29.98    1.86
   2   1   1   30.70    2.07
  -2  -1  -1   28.12    2.00
  -2  -1  -1   30.12    2.09
   2   1   1   31.18    2.12
  -2  -1  -1   28.62    1.96
   2   1   2  114.03    6.56
   2   1   2  110.39    5.97
   2   1   2  111.76    6.04
  -2  -1  -2  117.50    6.18
  -2  -1  -2  112.89    7.37
   2   1   2  122.01    7.58
   2   1   3  102.26    6.23
  -2  -1  -3  134.55    6.43
  -2  -1  -3  130.61    6.79
  -2  -1  -3  120.44    7.72
   2   1   3  110.04    7.77
  -2  -1  -3  127.23    7.14
  -2  -1  -4  120.05    5.95
  -2  -1  -4  110.44    6.46
  -2  -1  -4   96.34    7.14
  -2  -1  -4   94.56    6.33
  -2  -1  -5   74.53    4.13
   2   1   5   62.16    6.14
   2   1   5   72.31    5.09
  -2  -1  -5   59.82    4.46
  -2  -1  -5   54.61    5.09
   2   1   6   66.20    6.97
  -2  -1  -6   72.11    5.11
   2   1   6   76.11    5.75
  -2  -1  -6   64.87    5.89
  -2  -1  -7   24.50    2.12
   2   1   7   18.22    2.69
  -2  -1  -7   20.15    3.06
  -2  -1  -8   18.65    1.90
   2   1   8   17.28    2.74
  -2  -1  -8   12.15    2.69
  -2  -1  -9  156.16    8.14
   2   1   9  164.79   10.37
  -2  -1 -10    7.49    2.65
  -2  -1 -10   11.78    2.76
  -2  -1 -10    8.49    2.69
   2   1  10   15.09    3.02
  -2  -1 -11   20.54    4.35
  -2  -1 -11   25.15    4.04
   2   1  11   19.75    3.53
  -2  -1 -11   15.28    3.78
  -2  -2  10    9.09    4.55
  -2  -2   9   14.74    4.33
  -2  -2   9   11.71    4.19
   2   2  -9   13.72    3.65
  -2  -2   9   10.30    2.20
   2   2  -8  960.36   49.35
  -2  -2   8 1204.76   57.84
  -2  -2   8 1348.61   59.07
   2   2  -8 1030.91   53.96
  -2  -2   8 1202.39   51.27
  -2  -2   7  146.99   13.17
   2   2  -7  162.06    7.97
  -2  -2   7  157.40   13.17
   2   2  -7  170.85    8.91
   2   2  -6   20.51    2.01
  -2  -2   6   14.51    3.61
  -2  -2   6   16.73    3.99
  -2  -2   5  131.67   10.78
   2   2  -5  130.70    7.58
  -2  -2   5  140.46   11.07
   2   2  -4    1.83    0.72
   2   2  -4    3.44    2.13
  -2  -2   4    2.13    1.76
  -2  -2   4    0.72    1.39
  -2  -2   4    3.06    1.10
   2   2  -3   43.36    3.09
   2   2  -3   47.78    5.17
   2   2  -3   44.47    5.23
  -2  -2   3   40.99    4.63
  -2  -2   3   52.53    3.86
   2   2  -2   50.18    4.94
  -2  -2   2   55.74    3.46
   2   2  -2   49.36    3.38
  -2  -2   2   50.08    4.62
   2   2  -2   52.66    5.15
  -2  -2   2   59.42    3.85
  -2  -2   1  236.54   12.97
   2   2  -1  264.83   13.66
   2   2  -1  245.42   11.89
   2   2  -1  262.10   13.69
  -2  -2   1  247.99   11.87
  -2  -2   0  221.93   11.62
  -2  -2   0  218.37   11.18
   2   2   0  217.82   11.85
  -2  -2   0  214.60   10.74
   2   2   0  222.59   11.99
  -2  -2   0  233.16   11.00
  -2  -2  -1    5.23    0.94
  -2  -2  -1    5.15    0.78
   2   2   1    2.71    0.64
   2   2   1    3.24    0.84
  -2  -2  -1    7.05    0.90
   2   2   1    2.91    0.63
   2   2   1    2.81    0.87
   2   2   1    2.58    0.44
  -2  -2  -1    5.94    0.49
  -2  -2  -1    7.30    0.97
   2   2   2  296.69   13.69
   2   2   2  288.17   14.10
   2   2   2  288.93   13.59
   2   2   2  291.91   13.24
  -2  -2  -2  289.01   13.82
   2   2   2  304.81   15.30
  -2  -2  -2  247.51   12.98
   2   2   3  100.01    5.28
  -2  -2  -3   91.11    5.13
   2   2   3   93.22    5.52
  -2  -2  -3   90.90    5.54
  -2  -2  -3   97.13    5.21
   2   2   3   99.01    6.74
  -2  -2  -3   83.48    5.85
  -2  -2  -4   68.65    4.42
   2   2   4   75.38    4.10
  -2  -2  -4   63.94    3.93
  -2  -2  -4   62.36    4.40
  -2  -2  -4   53.89    4.48
   2   2   4   68.68    5.01
   2   2   4   80.25    5.84
   2   2   5  238.06   11.89
  -2  -2  -5  256.17   11.88
   2   2   5  231.68   14.76
   2   2   5  235.86   13.33
   2   2   5  257.71   14.32
  -2  -2  -5  216.98   12.68
  -2  -2  -5  217.76   13.48
   2   2   6   18.15    3.40
  -2  -2  -6   20.66    1.74
   2   2   6   16.38    2.43
  -2  -2  -6   14.58    2.06
   2   2   6   18.71    2.92
  -2  -2  -6   14.28    2.41
  -2  -2  -7   23.89    3.13
  -2  -2  -7   24.48    2.10
   2   2   7   25.51    4.33
  -2  -2  -7   21.36    2.83
   2   2   7   31.48    3.53
  -2  -2  -7   24.32    3.35
  -2  -2  -8   33.00    4.14
   2   2   8   31.73    5.36
  -2  -2  -8   34.56    2.70
  -2  -2  -8   33.07    3.76
   2   2   8   37.54    1.96
   2   2   8   39.88    4.37
  -2  -2  -8   28.16    3.98
  -2  -2  -9  249.88   15.50
  -2  -2  -9  253.45   12.40
   2   2   9  258.45   18.39
  -2  -2  -9  239.35   14.42
   2   2   9  269.50   15.32
  -2  -2 -10    9.22    2.69
  -2  -2 -10   12.54    1.59
   2   2  10   13.98    4.41
  -2  -2 -10   11.83    2.80
   2   2  10   10.55    2.83
  -2  -2 -10    9.04    2.84
   2   2  11   76.32    9.71
  -2  -2 -11   76.65    7.05
  -2  -2 -11   80.97    8.08
   2   2  11   87.18    7.63
  -2  -2 -11   67.27    7.37
  -2  -2 -12  348.05   20.88
   2   2  12  342.57   20.74
  -2  -3  10   -0.47    3.05
  -2  -3   9   24.87    5.51
   2   3  -8   25.55    2.67
  -2  -3   8   26.01    5.25
  -2  -3   8   29.99    5.61
  -2  -3   8   26.43    3.01
   2   3  -7   89.86    5.70
  -2  -3   7   74.41    8.57
  -2  -3   7   84.92    9.04
   2   3  -6   67.57    4.74
  -2  -3   6   73.61    7.86
  -2  -3   6   73.99    7.77
   2   3  -5  107.59    6.69
  -2  -3   5  100.91    9.25
  -2  -3   5  101.02    9.17
   2   3  -4   13.48    1.73
  -2  -3   4   14.71    3.05
   2   3  -4   15.72    3.59
  -2  -3   4   15.23    2.96
  -2  -3   4   17.22    2.30
   2   3  -3   84.27    5.20
  -2  -3   3   71.51    6.70
  -2  -3   3   67.28    6.26
  -2  -3   3   88.54    5.66
  -2  -3   2  138.89   10.15
   2   3  -2  165.96    8.89
   2   3  -2  196.54   11.57
  -2  -3   2  146.60    9.88
   2   3  -2  174.29   10.96
  -2  -3   2  174.80    9.05
   2   3  -1   83.52    5.72
  -2  -3   1   53.36    4.54
  -2  -3   1   61.81    4.86
  -2  -3   1   68.26    5.32
  -2  -3   1   70.14    4.36
   2   3  -1   71.61    4.43
   2   3  -1   84.13    6.03
  -2  -3   0  109.28    6.26
   2   3   0  129.43    6.91
  -2  -3   0  107.35    6.44
  -2  -3   0   98.78    6.69
  -2  -3   0  108.49    6.02
   2   3   0  122.89    7.22
  -2  -3   0   93.55    5.40
   2   3   1   29.55    2.46
  -2  -3  -1   35.42    2.54
   2   3   1   29.00    2.58
   2   3   1   29.51    2.65
  -2  -3  -1   40.10    2.91
   2   3   1   28.29    2.82
  -2  -3  -1   35.72    2.67
  -2  -3  -1   37.05    3.34
  -2  -3  -2  347.75   19.17
   2   3   2  401.05   19.42
   2   3   2  397.07   19.35
   2   3   2  396.00   19.08
  -2  -3  -2  379.03   19.37
   2   3   2  356.23   19.19
   2   3   2  411.43   20.58
  -2  -3  -2  404.07   20.31
   2   3   2  459.04   18.78
   2   3   3   68.88    4.41
  -2  -3  -3   73.43    4.15
   2   3   3   61.63    3.98
   2   3   3   65.00    4.36
  -2  -3  -3   67.09    4.38
  -2  -3  -3   54.18    3.84
  -2  -3  -3   63.33    4.93
  -2  -3  -3   60.25    4.71
   2   3   3   73.81    3.98
   2   3   3   65.25    5.20
  -2  -3  -4  320.88   14.84
   2   3   4  295.69   14.70
   2   3   4  287.58   15.19
  -2  -3  -4  273.72   15.64
  -2  -3  -4  284.78   16.18
  -2  -3  -4  314.09   15.27
   2   3   4  324.33   16.88
   2   3   5 3777.60  183.10
  -2  -3  -5 4170.96  183.15
   2   3   5 4129.48  184.10
  -2  -3  -5 4049.92  184.63
  -2  -3  -5 3899.24  184.10
   2   3   6  148.51    8.05
   2   3   6  146.63   11.07
  -2  -3  -6  162.65    8.08
  -2  -3  -6  150.60    9.07
   2   3   6  168.49   10.69
   2   3   6  149.66    9.82
  -2  -3  -6  153.17    9.36
  -2  -3  -6  132.16    8.85
   2   3   7   45.75    5.82
  -2  -3  -7   45.65    3.07
  -2  -3  -7   41.60    3.94
   2   3   7   54.74    4.97
  -2  -3  -7   44.03    4.38
  -2  -3  -7   34.56    3.73
   2   3   8   21.52    4.45
  -2  -3  -8   28.87    2.26
   2   3   8   22.52    1.84
  -2  -3  -8   26.06    3.25
  -2  -3  -8   25.42    3.51
   2   3   8   26.67    3.59
  -2  -3  -8   21.78    3.37
   2   3   9  181.97   15.11
  -2  -3  -9  206.68   10.27
  -2  -3  -9  205.02   12.37
   2   3   9  197.45    9.57
   2   3   9  220.19   13.46
  -2  -3  -9  165.72   12.61
  -2  -3  -9  202.75   13.19
   2   3  10   19.64    4.84
  -2  -3 -10   20.00    1.91
  -2  -3 -10   18.28    3.16
  -2  -3 -10   20.22    3.74
   2   3  10   23.91    3.90
  -2  -3 -10   13.39    3.13
  -2  -3 -11   21.95    4.20
   2   3  11   20.03    5.25
  -2  -3 -11   25.61    3.82
   2   3  11   19.78    3.92
  -2  -3 -11   15.28    3.56
  -2  -3 -12   35.11    4.99
  -2  -3 -12   38.54    5.89
   2   3  12   53.77    6.22
   2   3  13    2.68    2.65
  -2  -4   9   11.76    4.14
   2   4  -8   16.94    2.33
  -2  -4   8   15.49    4.26
  -2  -4   8   13.86    3.89
   2   4  -7   24.25    2.72
  -2  -4   7   17.82    4.51
  -2  -4   7   24.82    4.70
   2   4  -6   67.30    4.89
  -2  -4   6   62.44    7.34
  -2  -4   6   57.97    6.88
   2   4  -5   15.62    2.08
  -2  -4   5   11.67    3.20
  -2  -4   5    9.85    2.76
  -2  -4   5   12.29    2.18
  -2  -4   4   10.07    2.62
   2   4  -4    8.49    1.56
  -2  -4   4   12.63    2.74
  -2  -4   4   16.39    2.19
  -2  -4   3  102.05    8.62
   2   4  -3  125.57    7.31
   2   4  -3  138.43   10.01
  -2  -4   3   96.64    7.92
  -2  -4   3  133.29    7.40
   2   4  -2 1980.71   94.16
   2   4  -2 3566.20  101.16
  -2  -4   2 2004.15   96.27
   2   4  -2 3401.82  100.92
  -2  -4   2 1906.83   93.85
  -2  -4   1  292.84   16.00
  -2  -4   1  304.63   16.95
   2   4  -1  345.07   17.18
  -2  -4   1  319.11   15.12
   2   4  -1  317.45   15.98
   2   4  -1  369.98   18.11
  -2  -4   1  286.73   16.86
  -2  -4   0    3.84    0.94
  -2  -4   0    4.95    1.25
   2   4   0    4.10    1.24
  -2  -4   0    5.23    1.05
  -2  -4   0    4.25    1.24
   2   4   0    3.73    1.45
  -2  -4   0    4.93    0.59
   2   4   1   25.15    2.35
  -2  -4  -1   28.40    2.78
   2   4   1   25.24    2.74
   2   4   1   22.21    2.25
  -2  -4  -1   30.22    2.44
   2   4   1   23.01    2.61
   2   4   1   25.83    2.50
  -2  -4  -1   27.29    2.80
  -2  -4  -1   31.30    2.93
   2   4   2  185.11   10.04
  -2  -4  -2  166.86    9.76
   2   4   2  170.93    9.89
   2   4   2  175.76    9.45
   2   4   2  179.52    9.52
  -2  -4  -2  174.45    9.76
   2   4   2  179.46    8.80
   2   4   2  166.40    9.61
  -2  -4  -2  176.28   10.14
  -2  -4  -2  154.43   10.00
   2   4   2  204.64    9.49
   2   4   3    1.79    0.81
  -2  -4  -3    4.55    1.06
  -2  -4  -3    3.52    0.86
   2   4   3    2.57    0.79
  -2  -4  -3    6.46    1.02
   2   4   3    3.45    0.84
   2   4   3    3.13    0.98
   2   4   3    1.94    1.09
  -2  -4  -3    5.15    1.25
  -2  -4  -4   47.23    3.06
   2   4   4   37.99    2.88
   2   4   4   38.10    3.24
  -2  -4  -4   34.62    3.55
  -2  -4  -4   32.38    2.98
   2   4   4   46.64    4.32
   2   4   4   45.32    3.18
  -2  -4  -4   32.06    3.39
   2   4   4   34.61    3.74
  -2  -4  -5  179.19    8.95
   2   4   5  177.19    8.95
   2   4   5  158.00    9.46
  -2  -4  -5  163.32    9.68
   2   4   5  201.48   11.25
  -2  -4  -5  160.35    9.67
  -2  -4  -5  146.46    9.75
  -2  -4  -5  152.57   10.13
   2   4   6   26.70    2.35
  -2  -4  -6   32.74    2.49
   2   4   6   24.65    3.96
   2   4   6   26.99    2.87
  -2  -4  -6   32.25    3.24
  -2  -4  -6   25.88    3.11
   2   4   6   26.47    3.64
  -2  -4  -6   25.62    2.97
  -2  -4  -6   27.53    3.38
  -2  -4  -7   19.50    1.91
   2   4   7   18.69    1.87
   2   4   7   20.89    3.87
  -2  -4  -7   18.60    2.61
  -2  -4  -7   17.43    2.55
  -2  -4  -7   19.82    2.91
   2   4   7   18.18    3.00
  -2  -4  -7   16.41    2.76
  -2  -4  -8  136.39    6.97
   2   4   8  110.68    6.72
   2   4   8  115.53   10.61
  -2  -4  -8  127.88    8.39
   2   4   8  123.69    9.33
  -2  -4  -8  118.39    8.84
  -2  -4  -9    8.73    2.41
  -2  -4  -9    9.33    1.32
   2   4   9    9.97    3.43
  -2  -4  -9    8.76    2.09
   2   4   9   10.05    1.28
   2   4   9    8.51    2.45
  -2  -4 -10   68.94    4.29
   2   4  10   78.21    9.30
  -2  -4 -10   67.02    6.06
   2   4  10   84.80    7.55
  -2  -4 -10   59.42    6.62
   2   4  11   80.61   10.12
  -2  -4 -11   86.52    7.33
   2   4  11  108.38    8.97
  -2  -4 -11   83.93    8.26
  -2  -4 -11   71.66    7.74
  -2  -4 -12    7.25    3.13
   2   4  12   11.64    4.60
  -2  -4 -12    8.04    2.73
   2   4  12   16.98    3.90
   2   4  13    8.04    3.27
  -2  -5   8   34.79    4.41
  -2  -5   7    6.31    2.62
  -2  -5   7    8.48    2.30
   2   5  -7    9.55    1.90
  -2  -5   7    7.44    3.02
  -2  -5   6   38.94    5.12
  -2  -5   6   32.52    5.32
   2   5  -6   40.00    3.79
  -2  -5   6   42.24    4.28
  -2  -5   5    7.46    2.29
   2   5  -5    6.98    1.64
  -2  -5   5    9.80    2.97
  -2  -5   5    7.15    1.76
  -2  -5   5    9.24    1.99
  -2  -5   4   39.73    4.44
  -2  -5   4   35.07    4.81
   2   5  -4   33.34    3.43
  -2  -5   4   43.62    3.69
  -2  -5   4   40.49    3.65
  -2  -5   3   21.28    3.01
   2   5  -3   28.39    4.46
  -2  -5   3   17.32    3.21
   2   5  -3   31.78    3.01
  -2  -5   3   23.14    2.43
  -2  -5   3   23.90    2.52
  -2  -5   2  168.71   11.49
  -2  -5   2  164.21   10.11
  -2  -5   2  154.17   11.14
   2   5  -2  180.44   10.26
  -2  -5   2  188.13    9.63
  -2  -5   2  188.42    9.68
   2   5  -1   57.01    4.62
  -2  -5   1   48.63    3.70
  -2  -5   1   51.40    4.92
   2   5  -1   63.16    5.58
  -2  -5   1   48.32    4.65
   2   5  -1   50.99    4.09
  -2  -5   1   56.17    3.52
  -2  -5   1   54.99    3.46
  -2  -5   0   70.74    4.20
   2   5   0   68.93    4.78
  -2  -5   0   67.37    5.40
  -2  -5   0   66.83    5.23
   2   5   0   72.09    5.66
  -2  -5   0   63.96    3.78
  -2  -5   0   60.39    4.75
  -2  -5  -1  331.82   17.45
   2   5   1  332.49   16.34
   2   5   1  323.15   17.63
   2   5   1  323.88   17.22
   2   5   1  315.01   16.57
  -2  -5  -1  352.33   16.70
   2   5   1  320.27   16.88
  -2  -5  -1  337.68   16.76
  -2  -5  -1  304.51   16.97
   2   5   2    0.39    0.76
   2   5   2    0.37    0.64
  -2  -5  -2    0.12    0.76
   2   5   2    0.62    0.76
   2   5   2   -0.11    0.81
   2   5   2    1.15    0.67
   2   5   2   -0.10    0.74
   2   5   2    0.25    0.30
  -2  -5  -2   -0.12    0.72
  -2  -5  -2    0.19    0.50
   2   5   3   54.24    4.43
  -2  -5  -3   52.05    4.32
   2   5   3   54.67    3.97
  -2  -5  -3   50.44    3.78
   2   5   3   51.15    3.98
   2   5   3   53.55    4.16
  -2  -5  -3   54.35    4.25
   2   5   3   66.78    4.26
  -2  -5  -3   47.40    4.31
   2   5   3   55.23    4.74
  -2  -5  -4   47.86    4.24
  -2  -5  -4   58.05    4.00
   2   5   4   61.56    4.16
   2   5   4   58.93    4.45
   2   5   4   51.05    4.86
   2   5   4   69.91    4.53
   2   5   4   62.37    5.25
   2   5   4   51.68    4.94
  -2  -5  -4   48.77    4.24
  -2  -5  -4   53.31    4.50
  -2  -5  -5   55.53    3.76
   2   5   5   47.56    3.60
   2   5   5   55.51    4.27
  -2  -5  -5   45.45    4.05
   2   5   5   56.45    5.19
   2   5   5   61.07    5.32
   2   5   5   62.08    4.34
  -2  -5  -5   44.49    4.27
  -2  -5  -5   41.39    3.99
  -2  -5  -6    9.94    1.93
   2   5   6    8.99    2.54
  -2  -5  -6    8.82    1.36
   2   5   6   10.62    1.46
   2   5   6   10.00    1.91
  -2  -5  -6    9.65    1.87
  -2  -5  -6    8.70    1.85
  -2  -5  -6    7.65    1.80
   2   5   6   10.49    2.30
  -2  -5  -7   24.43    2.24
   2   5   7   28.65    2.43
   2   5   7   27.75    4.47
  -2  -5  -7   24.38    3.01
  -2  -5  -7   21.02    3.11
  -2  -5  -7   19.24    3.11
  -2  -5  -8    0.82    1.13
   2   5   8    4.91    2.56
   2   5   8    5.80    1.12
  -2  -5  -8    1.42    0.83
  -2  -5  -8    2.18    1.53
   2   5   8    5.10    2.11
  -2  -5  -8    2.29    1.52
   2   5   9   20.59    4.54
   2   5   9   20.22    2.04
  -2  -5  -9   22.51    2.12
   2   5   9   24.32    2.29
  -2  -5  -9   27.40    3.46
   2   5   9   27.60    4.20
  -2  -5  -9   18.01    3.30
  -2  -5  -9   23.08    3.79
   2   5  10  114.17   11.63
  -2  -5 -10  116.86    6.45
  -2  -5 -10  124.37    8.71
  -2  -5 -10  121.09    9.85
   2   5  10  143.23   10.50
   2   5  11  552.53   31.06
  -2  -5 -11  415.00   23.97
  -2  -5 -11  355.58   25.06
   2   5  11  568.75   27.58
  -2  -5 -12   26.19    4.97
   2   5  12   25.46    6.32
  -2  -5 -12   31.22    4.43
   2   5  12   32.96    5.43
  -2  -6   7    9.17    2.46
   2   6  -7    8.37    1.96
  -2  -6   7    5.62    3.26
  -2  -6   6   69.78    6.82
  -2  -6   6   88.58    6.49
  -2  -6   6   71.53    8.09
   2   6  -6   67.70    5.71
  -2  -6   5    8.94    2.49
   2   6  -5   11.83    2.19
  -2  -6   5   12.22    3.30
  -2  -6   5   11.15    2.21
  -2  -6   4    3.72    1.65
  -2  -6   4    6.02    2.44
   2   6  -4    4.51    1.49
  -2  -6   4    3.37    2.13
  -2  -6   4    6.87    1.68
  -2  -6   4    4.89    1.41
  -2  -6   3   63.50    5.06
  -2  -6   3   58.90    6.31
   2   6  -3   60.87    5.08
  -2  -6   3   55.82    5.99
  -2  -6   3   75.20    5.05
  -2  -6   3   72.60    4.79
  -2  -6   2   52.25    5.50
  -2  -6   2   54.68    4.04
  -2  -6   2   48.18    5.08
   2   6  -2   50.59    4.46
   2   6  -2   57.22    6.04
  -2  -6   2   60.06    4.11
  -2  -6   2   57.26    4.25
  -2  -6   2   57.33    3.81
  -2  -6   1    2.00    0.84
  -2  -6   1    1.89    1.40
   2   6  -1    2.63    1.11
  -2  -6   1    1.15    1.11
   2   6  -1    2.66    1.97
  -2  -6   1    1.33    0.75
  -2  -6   1    1.70    0.92
  -2  -6   1    2.12    0.61
   2   6   0  127.07    6.78
  -2  -6   0  106.25    7.86
  -2  -6   0   99.35    7.27
   2   6   0  133.72    8.45
  -2  -6   0  100.06    5.99
  -2  -6   0  123.68    6.64
  -2  -6   0  101.54    6.87
  -2  -6   0  100.30    5.56
   2   6   1  112.65    6.15
  -2  -6  -1  104.29    7.40
   2   6   1   95.55    6.44
   2   6   1  110.27    7.25
   2   6   1   97.85    6.69
  -2  -6  -1   91.26    5.46
  -2  -6  -1  100.32    5.87
  -2  -6  -1  100.00    6.74
   2   6   2   71.58    5.87
   2   6   2   68.05    4.56
  -2  -6  -2   81.71    5.97
   2   6   2   72.09    5.09
   2   6   2   70.85    5.27
   2   6   2   71.17    5.32
   2   6   2   65.59    3.77
  -2  -6  -2   76.95    4.80
  -2  -6  -2   72.00    5.46
  -2  -6  -3  115.71    7.67
   2   6   3  111.02    7.73
   2   6   3  113.36    7.19
   2   6   3  107.45    6.61
  -2  -6  -3  115.42    6.89
   2   6   3  115.09    7.05
   2   6   3  104.60    6.42
   2   6   3  107.09    7.17
  -2  -6  -3  111.22    6.85
  -2  -6  -3  108.78    7.45
   2   6   3  104.75    7.54
   2   6   3  130.52    7.49
  -2  -6  -4  227.25   14.38
   2   6   4  286.62   14.22
  -2  -6  -4  260.20   13.83
   2   6   4  288.87   15.12
  -2  -6  -4  251.28   14.43
   2   6   4  280.64   14.60
   2   6   4  282.11   15.80
   2   6   4  348.62   15.07
   2   6   4  290.70   15.57
  -2  -6  -4  215.75   14.35
  -2  -6  -4  238.48   14.07
  -2  -6  -5  105.49    6.42
   2   6   5  104.35    6.51
  -2  -6  -5  102.82    7.13
   2   6   5  102.68    6.98
   2   6   5  102.26    8.01
   2   6   5  120.35    8.31
  -2  -6  -5   89.67    7.03
   2   6   5  133.70    7.46
   2   6   5  115.20    8.38
  -2  -6  -5   92.06    7.12
  -2  -6  -5   91.36    6.91
  -2  -6  -6   11.18    2.14
   2   6   6   17.79    3.42
  -2  -6  -6   13.18    1.76
   2   6   6   14.68    1.88
   2   6   6   15.82    3.33
   2   6   6   14.69    2.28
  -2  -6  -6   13.64    2.19
   2   6   6   18.63    3.16
   2   6   6   14.70    2.91
  -2  -6  -6   10.99    2.13
   2   6   6   21.43    2.60
  -2  -6  -7    3.34    1.66
   2   6   7    3.56    1.04
   2   6   7    3.12    2.11
  -2  -6  -7    2.42    0.89
   2   6   7    2.99    2.55
  -2  -6  -7    3.30    1.47
  -2  -6  -7    2.18    1.31
   2   6   7    3.22    1.77
   2   6   8   36.08    2.82
   2   6   8   37.77    5.39
  -2  -6  -8   23.20    2.35
  -2  -6  -8   24.56    3.27
  -2  -6  -8   20.86    3.40
  -2  -6  -8   20.74    3.36
  -2  -6  -9    1.66    1.52
   2   6   9    0.37    2.06
   2   6   9    0.61    0.82
  -2  -6  -9    1.69    0.84
  -2  -6  -9    1.57    1.58
   2   6   9    0.81    2.05
  -2  -6  -9    0.23    1.26
   2   6   9    1.09    0.93
   2   6  10   40.20    6.67
   2   6  10   52.34    3.89
  -2  -6 -10   52.36    5.17
   2   6  10   58.64    6.63
  -2  -6 -10   35.59    5.20
  -2  -6 -10   40.95    5.29
  -2  -6 -11   13.28    3.58
   2   6  11   14.09    4.66
  -2  -6 -11   17.51    3.28
   2   6  11   18.05    4.15
  -2  -6 -11   11.69    3.22
  -2  -6 -12   11.74    3.43
   2   6  12   13.23    4.60
  -2  -6 -12   11.83    3.10
   2   6  12   11.58    3.86
   2   7  -7   11.17    2.50
  -2  -7   6   12.04    2.65
  -2  -7   6    6.21    2.75
   2   7  -6   10.36    2.26
  -2  -7   5    9.99    3.36
  -2  -7   5   15.79    2.76
   2   7  -5   11.75    2.31
  -2  -7   5   13.47    3.41
  -2  -7   4   38.88    3.70
  -2  -7   4   37.26    5.29
   2   7  -4   40.06    4.12
  -2  -7   4   34.94    4.98
  -2  -7   4   44.02    4.09
  -2  -7   3  673.51   30.96
  -2  -7   3  731.49   35.34
  -2  -7   3  555.38   33.22
   2   7  -3  527.97   31.79
  -2  -7   3  698.47   31.84
  -2  -7   3  680.83   31.04
  -2  -7   3  648.71   30.81
  -2  -7   2  196.12    9.51
  -2  -7   2  162.14   12.20
   2   7  -2  166.04   10.90
  -2  -7   2  165.79   11.73
   2   7  -2  186.25   12.88
  -2  -7   2  200.70   10.52
  -2  -7   2  182.75   10.16
  -2  -7   2  185.41    9.56
  -2  -7   1    0.86    1.48
   2   7  -1    0.55    0.99
  -2  -7   1    0.52    1.17
   2   7  -1    1.54    1.80
  -2  -7   1    0.86    0.82
  -2  -7   1    0.51    0.71
  -2  -7   1    1.35    0.90
  -2  -7   1    0.89    0.44
  -2  -7   0   37.54    4.46
  -2  -7   0   33.93    3.77
   2   7   0   40.16    4.47
  -2  -7   0   36.70    3.05
  -2  -7   0   41.98    2.36
  -2  -7   0   39.93    3.61
  -2  -7   0   36.82    2.12
  -2  -7  -1   56.54    5.28
   2   7   1   46.97    3.28
   2   7   1   44.61    4.51
   2   7   1   39.26    3.95
  -2  -7  -1   48.39    3.49
  -2  -7  -1   47.80    4.15
  -2  -7  -1   52.68    2.92
  -2  -7  -2   42.72    4.54
   2   7   2   49.86    3.39
   2   7   2   44.76    3.95
   2   7   2   54.37    4.38
   2   7   2   42.36    2.62
  -2  -7  -2   38.60    3.91
  -2  -7  -2   41.33    2.98
   2   7   3   90.78    5.66
   2   7   3   96.99    6.41
  -2  -7  -3   98.16    7.20
   2   7   3   90.37    6.27
   2   7   3   78.80    5.17
  -2  -7  -3   90.95    6.62
  -2  -7  -3   91.94    5.64
  -2  -7  -4  114.79    8.38
   2   7   4  127.00    7.88
   2   7   4  118.95    7.71
  -2  -7  -4  128.66    7.66
   2   7   4  116.93    7.66
  -2  -7  -4  107.13    8.01
   2   7   4  120.22    8.46
  -2  -7  -4  121.81    7.46
  -2  -7  -5   48.15    4.63
   2   7   5   52.35    4.21
  -2  -7  -5   50.25    3.99
   2   7   5   40.33    4.65
  -2  -7  -5   50.66    4.55
   2   7   5   61.07    4.94
   2   7   5   47.96    5.23
  -2  -7  -5   45.62    4.15
   2   7   5   49.78    4.98
   2   7   6    3.91    1.53
  -2  -7  -6    2.21    1.28
   2   7   6    2.43    1.78
   2   7   6    3.12    1.22
  -2  -7  -6    4.03    1.14
   2   7   6    2.51    2.03
  -2  -7  -6    4.38    1.79
   2   7   6    2.92    1.53
   2   7   6    3.23    1.87
  -2  -7  -6    3.03    1.28
  -2  -7  -7  236.38   12.22
   2   7   7  230.14   12.25
   2   7   7  236.85   15.47
   2   7   7  248.70   15.88
  -2  -7  -7  217.72   13.22
   2   7   7  260.91   15.47
   2   7   7  276.45   13.91
  -2  -7  -7  174.94   13.17
  -2  -7  -7  196.22   13.26
  -2  -7  -8    1.07    1.34
   2   7   8    1.27    1.78
  -2  -7  -8    1.41    0.93
   2   7   8    2.90    1.08
  -2  -7  -8    1.95    1.58
   2   7   8    0.53    1.88
  -2  -7  -8    0.78    1.26
  -2  -7  -9   63.49    4.35
   2   7   9   61.80    4.41
   2   7   9   56.95    7.40
   2   7   9   66.07    4.95
  -2  -7  -9   64.24    5.68
  -2  -7  -9   53.26    5.92
  -2  -7  -9   56.11    5.89
   2   7  10   67.18    8.40
   2   7  10   72.78    5.10
  -2  -7 -10   61.41    5.85
  -2  -7 -10   57.93    6.47
   2   7  10   64.48    7.30
  -2  -7 -10   50.80    6.01
  -2  -7 -11   13.47    3.54
   2   7  11   15.60    4.81
  -2  -7 -11   18.23    3.32
   2   7  11   15.13    4.10
  -2  -7 -11    9.35    2.99
  -2  -7 -12   10.31    3.36
  -2  -7 -12    8.41    2.69
   2   7  12   14.99    4.83
  -2  -8   6    0.95    2.09
   2   8  -5    8.46    2.25
  -2  -8   5    7.19    3.10
  -2  -8   4   23.79    4.55
  -2  -8   4   30.76    3.65
  -2  -8   4   27.00    4.33
   2   8  -4   22.38    3.32
  -2  -8   3   21.68    4.20
  -2  -8   3   34.19    3.54
  -2  -8   3   25.03    4.03
   2   8  -3   29.40    3.66
  -2  -8   2   89.28    7.47
  -2  -8   2   87.96    8.05
   2   8  -2   75.59    6.48
  -2  -8   2   99.59    6.30
  -2  -8   1   12.91    2.94
   2   8  -1    7.77    2.00
  -2  -8   1    7.66    2.10
   2   8  -1    7.71    2.72
  -2  -8   1    8.18    1.70
  -2  -8   1    8.21    1.53
  -2  -8   0  122.01    8.15
  -2  -8   0  116.15    9.08
  -2  -8   0  106.42    6.90
  -2  -8   0  108.44    7.22
  -2  -8  -1    1.30    1.66
   2   8   1    3.00    1.34
   2   8   1    3.54    1.84
  -2  -8  -1    3.14    1.17
  -2  -8  -1    2.24    1.20
   2   8   2   13.66    1.48
  -2  -8  -2   11.48    2.72
   2   8   2   12.97    2.20
   2   8   2   13.82    2.41
   2   8   2   10.77    1.05
  -2  -8  -2   10.46    1.99
  -2  -8  -2    8.05    0.84
   2   8   2   18.34    3.07
   2   8   3  158.37    8.36
  -2  -8  -3  148.61   10.23
   2   8   3  149.90    9.30
   2   8   3  161.71    9.28
   2   8   3  137.41    7.75
  -2  -8  -3  138.54    9.26
  -2  -8  -3  138.25    7.85
   2   8   4   27.08    3.03
  -2  -8  -4   22.02    3.40
   2   8   4   26.80    2.66
   2   8   4   24.58    2.95
   2   8   4   27.28    2.69
   2   8   4   33.50    3.66
   2   8   4   24.84    3.28
  -2  -8  -4   20.75    2.31
  -2  -8  -5   17.53    2.83
   2   8   5   17.77    2.48
   2   8   5   14.59    2.56
   2   8   5   16.56    2.92
   2   8   5   16.34    3.20
   2   8   5   22.71    3.13
  -2  -8  -5   14.13    2.08
   2   8   6   69.69    6.74
   2   8   6   72.81    5.34
  -2  -8  -6   58.36    5.47
   2   8   6   74.35    6.67
   2   8   6   74.45    7.09
   2   8   6   89.53    6.44
  -2  -8  -6   52.69    5.01
   2   8   6   85.84    7.00
   2   8   7  223.51   14.48
   2   8   7  224.37   11.75
  -2  -8  -7  205.34   12.56
   2   8   7  238.93   14.81
  -2  -8  -7  166.34   12.73
  -2  -8  -7  176.58   12.06
   2   8   7  236.88   14.78
  -2  -8  -8   10.27    2.78
   2   8   8   11.92    3.45
   2   8   8   16.80    2.17
  -2  -8  -8   12.63    2.60
   2   8   8   15.23    3.61
  -2  -8  -8   10.22    2.37
   2   8   9   99.15    6.38
   2   8   9   94.14    9.53
   2   8   9  121.06    7.47
  -2  -8  -9   97.73    7.71
   2   8   9  108.39    9.66
  -2  -8  -9   87.93    7.88
  -2  -8  -9   83.83    7.97
   2   8  10  532.66   30.59
   2   8  10  537.13   25.32
  -2  -8 -10  515.19   26.36
  -2  -8 -10  431.31   26.73
  -2  -8 -10  436.97   27.23
   2   8  11   83.17   11.80
   2   8  11   84.26    9.74
  -2  -8 -11   76.48    6.75
  -2  -8 -11   57.47    6.97
   2   8  11   91.18    9.14
  -2  -8 -11   63.24    7.09
  -2  -8 -12    2.26    2.35
  -2  -8 -12    2.39    2.07
   2   8  12    0.97    3.12
   2   9  -4   31.84    3.58
   2   9  -4   24.61    3.65
  -2  -9   4   24.92    4.22
  -2  -9   3   28.36    4.43
  -2  -9   3   26.56    4.82
   2   9  -3   36.87    4.26
  -2  -9   2    9.77    2.90
   2   9  -2    8.44    2.21
  -2  -9   2    7.20    2.48
  -2  -9   1   29.60    3.77
  -2  -9   1   33.58    4.80
   2   9  -1   25.71    3.53
  -2  -9   1   29.93    3.16
  -2  -9   0   65.42    6.55
  -2  -9   0   57.44    4.47
  -2  -9   0   53.76    4.33
  -2  -9  -1   14.43    3.16
   2   9   1   16.14    2.66
  -2  -9  -1   12.59    1.99
  -2  -9  -1   10.17    1.89
   2   9   2   88.49    6.74
  -2  -9  -2   96.18    7.99
  -2  -9  -2   85.16    6.29
   2   9   3 1518.68   68.75
   2   9   3 1747.28   68.97
   2   9   3 1503.70   67.45
  -2  -9  -3 1578.35   70.50
   2   9   4  209.24   12.26
   2   9   4  212.49   11.82
  -2  -9  -4  202.16   13.41
  -2  -9  -4  186.55   10.67
   2   9   5   39.01    3.81
  -2  -9  -5   29.59    4.03
   2   9   5   34.28    3.49
   2   9   5   27.43    3.75
  -2  -9  -5   25.21    2.78
   2   9   6   51.47    4.51
   2   9   6   49.50    5.45
  -2  -9  -6   38.78    4.69
   2   9   6   46.17    5.21
   2   9   6   48.77    5.85
  -2  -9  -6   41.09    3.97
   2   9   7  133.12   10.47
   2   9   7  136.57    8.62
  -2  -9  -7  144.50    9.47
   2   9   7  133.83   10.92
  -2  -9  -7  122.95    8.81
  -2  -9  -8   12.63    3.06
   2   9   8   12.53    3.29
   2   9   8   16.63    2.35
  -2  -9  -8   19.39    3.22
   2   9   8   18.34    2.92
   2   9   8   12.53    3.57
  -2  -9  -8   12.17    2.59
  -2  -9  -9   18.44    3.81
   2   9   9   24.61    4.77
   2   9   9   22.15    2.67
   2   9   9   28.56    3.42
  -2  -9  -9   19.92    3.39
   2   9   9   28.13    5.06
  -2  -9  -9   19.24    3.44
   2   9  10   80.04   11.05
   2   9  10   87.10    9.37
  -2  -9 -10   75.79    6.89
   2   9  10  103.34    6.90
   2   9  10   98.59    9.42
  -2  -9 -10   66.50    7.42
  -2  -9 -10   57.47    6.67
   2   9  11   -0.64    3.93
  -2  -9 -11    1.21    1.99
   2   9  11    1.28    2.81
  -2  -9 -11    0.43    1.97
  -2  -9 -11    0.54    1.85
  -2  -9 -12    1.32    2.21
   2   9  12    0.93    3.37
  -2  -9 -12   -0.22    1.89
   2  10  -3   82.55    6.61
   2  10  -2    0.17    1.34
   2  10  -1   14.35    2.76
  -2 -10   1   19.14    4.05
  -2 -10   0   18.88    3.82
   2  10   1    5.75    2.01
  -2 -10  -1    8.16    2.77
   2  10   2    4.89    1.83
  -2 -10  -2    4.39    2.30
   2  10   3   48.51    4.76
  -2 -10  -3   42.71    5.30
   2  10   4   34.26    3.98
  -2 -10  -4   35.94    4.79
   2  10   5   38.17    4.12
  -2 -10  -5   34.99    4.56
  -2 -10  -5   31.31    2.85
   2  10   6   66.74    5.55
   2  10   6   67.14    7.24
  -2 -10  -6   60.67    6.23
  -2 -10  -6   55.37    4.64
   2  10   7    1.19    1.41
   2  10   7   -0.36    2.87
   2  10   7    0.90    2.32
  -2 -10  -7    0.15    1.08
   2  10   8   50.64    7.71
   2  10   8   43.17    4.14
   2  10   8   52.58    5.06
   2  10   8   45.75    6.27
  -2 -10  -8   28.41    3.96
   2  10   9   55.08    8.57
   2  10   9   60.64    4.74
   2  10   9   60.52    5.38
  -2 -10  -9   48.53    5.29
  -2 -10  -9   36.51    5.50
   2  10   9   66.01    7.50
  -2 -10  -9   36.79    4.76
  -2 -10 -10    4.38    2.57
   2  10  10    6.70    4.37
  -2 -10 -10    4.82    2.35
   2  10  10    9.94    2.58
  -2 -10 -10    3.24    1.85
  -2 -10 -11    4.38    2.83
   2  10  11   14.96    6.01
  -2 -10 -11   10.07    2.78
   2  10  11   14.64    2.91
  -2 -10 -11    9.73    2.93
   2  11  -2   25.02    3.66
   2  11  -1   45.08    4.90
   2  11   1   11.31    2.69
  -2 -11  -1    7.75    2.87
   2  11   2    0.97    1.51
  -2 -11  -2    5.12    2.50
   2  11   3    8.10    2.28
  -2 -11  -3    4.91    2.41
   2  11   4    7.05    2.27
  -2 -11  -4    4.05    2.16
   2  11   5    8.00    2.28
  -2 -11  -5    7.25    2.62
   2  11   6    4.25    2.06
  -2 -11  -6    2.27    1.95
   2  11   6    8.94    2.43
   2  11   7   11.89    2.59
   2  11   7   12.37    2.79
  -2 -11  -7   11.44    2.16
   2  11   8   51.46    4.88
   2  11   8   63.32    5.83
   2  11   8   63.52    7.41
  -2 -11  -8   43.04    4.57
   2  11   9  475.13   20.60
  -2 -11  -9  261.35   18.15
   2  11  10   37.45    4.62
  -2 -11 -10   29.93    4.26
  -2 -11 -11   11.04    3.74
  -2 -11 -11    7.95    2.61
   2  12   4    6.31    2.28
   2  12   5    2.80    1.93
   2  12   6   29.31    3.96
   2  12   7    3.79    1.96
   2  12   8    5.38    2.19
  -3  12   5    1.07    1.63
   3 -12  -5    2.97    4.71
  -3  12   4   16.26    3.11
   3 -12  -4   16.75    5.85
   3 -12  -3    2.12    4.21
   3 -12  -2    7.58    4.21
   3 -12  -1    4.37    4.04
   3 -12   0   24.19    6.07
  -3  11   6   21.19    4.21
   3 -11  -5    2.61    1.98
  -3  11   5    4.44    1.98
   3 -11  -5    3.47    4.59
  -3  11   5    6.30    2.65
   3 -11  -4   52.94    6.02
  -3  11   4   49.72    4.94
   3 -11  -4   41.81    7.93
  -3  11   4   56.45    5.92
   3 -11  -3    5.00    2.52
  -3  11   3    7.55    2.17
   3 -11  -3    4.54    4.08
   3 -11  -2    3.01    2.14
  -3  11   2    2.64    1.78
   3 -11  -2    0.48    3.39
  -3  11   2    6.05    2.34
   3 -11  -1   87.59    8.27
  -3  11   1   73.02    6.70
   3 -11  -1   95.81   10.70
  -3  11   1   77.18    6.82
   3 -11   0   17.57    4.96
  -3  11   0   13.25    2.98
   3 -11   1    8.35    3.99
   3 -11   2    8.50    4.15
   3 -11   3   18.12    4.96
  -3  10   9    7.57    4.66
  -3  10   8   36.42    6.73
  -3  10   8   41.12    4.65
  -3  10   7   34.82    6.20
  -3  10   7   47.05    4.87
  -3  10   7   44.61    5.97
  -3  10   6   15.88    2.93
  -3  10   6   17.24    3.74
   3 -10  -5   49.38    5.57
  -3  10   5   63.81    5.23
   3 -10  -5   52.33    9.22
  -3  10   5   65.66    5.85
  -3  10   5   76.25    6.94
   3 -10  -4    5.43    2.16
  -3  10   4    9.70    2.20
   3 -10  -4    4.66    4.61
  -3  10   4   10.64    2.46
  -3  10   4    8.55    2.62
   3 -10  -3   45.79    5.51
  -3  10   3   44.46    4.59
   3 -10  -3   44.73    7.66
  -3  10   3   53.61    5.32
   3 -10  -2  125.96   10.31
  -3  10   2  129.97    9.23
   3 -10  -2  142.80   13.55
  -3  10   2  139.77    9.61
  -3  10   2  150.33    9.68
   3 -10  -1  429.31   26.14
   3 -10  -1  464.15   29.30
  -3  10   1  506.48   25.25
   3 -10   0   81.04    8.04
  -3  10   0   81.48    6.77
   3 -10   0   90.79    9.72
   3 -10   1    2.06    2.16
   3 -10   1    4.24    3.34
  -3  10  -1    5.23    2.01
   3 -10   2    3.15    2.39
   3 -10   2    4.87    3.33
  -3  10  -2    5.25    1.85
  -3  10  -3   65.41    5.73
   3 -10   3   72.19    8.51
   3 -10   4    8.12    3.62
  -3  10  -4   13.13    2.52
  -3   9   9   28.57   61.80
  -3   9   9   32.53    4.02
  -3   9   8  615.15   40.75
  -3   9   8  752.81   36.53
  -3   9   8  829.10   39.47
   3  -9  -8  663.07   40.88
  -3   9   7   92.66   10.08
  -3   9   7  101.59    7.68
  -3   9   7  107.97    8.96
  -3   9   6   14.15    4.10
  -3   9   6   20.97    2.52
  -3   9   6   23.38    3.26
  -3   9   6   19.72    3.75
  -3   9   5   74.12    7.57
   3  -9  -5   64.95    6.22
  -3   9   5   77.62    5.65
   3  -9  -5   59.36    9.28
  -3   9   5   87.44    6.58
  -3   9   5   93.05    7.41
  -3   9   4   20.06    3.59
   3  -9  -4   22.31    3.45
  -3   9   4   19.52    2.69
   3  -9  -4   18.81    5.68
  -3   9   4   24.33    3.29
  -3   9   4   26.54    3.68
  -3   9   3   15.21    2.73
   3  -9  -3   19.17    3.36
  -3   9   3   16.62    2.61
   3  -9  -3   21.43    5.38
  -3   9   3   22.70    3.12
  -3   9   3   18.84    3.14
   3  -9  -2   10.73    2.78
   3  -9  -2    7.60    4.22
  -3   9   2   12.72    2.44
   3  -9  -1   53.59    5.90
   3  -9  -1   58.43    7.77
  -3   9   1   57.75    5.27
  -3   9   1   60.69    5.08
   3  -9   0   48.58    5.83
  -3   9   0   56.59    5.16
   3  -9   0   59.16    7.58
   3  -9   1    2.70    2.01
   3  -9   1    8.54    3.61
  -3   9  -1    3.81    1.72
   3  -9   2   82.17    8.21
  -3   9  -2   87.24    6.69
   3  -9   2  100.06    9.57
   3  -9   3   18.02    4.11
   3  -9   3   28.89    5.34
  -3   9  -3   18.02    2.80
   3  -9   4   40.77    6.07
  -3   9  -4   30.20    3.59
   3  -9   5   19.27    4.65
  -3   8   9   43.65    8.01
  -3   8   8   67.30    9.39
  -3   8   8   79.43    6.32
  -3   8   8   88.34    7.94
  -3   8   7  115.19    9.11
  -3   8   7  118.95    7.90
  -3   8   6    6.15    1.41
  -3   8   6    6.94    3.17
  -3   8   6    7.60    1.93
  -3   8   6    8.05    2.42
  -3   8   5  191.23   14.56
  -3   8   5  212.70   11.80
   3  -8  -5  201.13   17.64
  -3   8   5  227.64   12.89
  -3   8   5  234.35   13.79
   3  -8  -4    2.05    1.53
  -3   8   4    1.21    1.82
  -3   8   4    1.15    0.98
   3  -8  -4    3.28    3.42
  -3   8   4    0.91    1.36
  -3   8   4    1.60    1.49
  -3   8   4    1.81    1.32
   3  -8  -3   50.44    5.00
  -3   8   3   39.75    4.71
  -3   8   3   52.02    4.72
   3  -8  -3   59.05    7.86
  -3   8   3   46.32    3.78
  -3   8   3   47.58    4.69
  -3   8   3   55.01    4.12
  -3   8   2  115.02    7.98
   3  -8  -2  110.57    8.84
   3  -8  -2  116.04   11.52
  -3   8   2  130.54    7.81
  -3   8   2  122.53    8.28
  -3   8   2  144.80    7.56
  -3   8   1   30.10    2.80
   3  -8  -1   29.01    3.99
  -3   8   1   30.46    3.48
   3  -8  -1   31.92    5.53
  -3   8   1   34.93    3.41
  -3   8   1   26.04    3.24
   3  -8   0   12.44    2.16
   3  -8   0   13.58    2.85
  -3   8   0    8.15    1.43
  -3   8   0   10.41    1.81
  -3   8   0    9.00    2.05
   3  -8   1   70.96    4.68
   3  -8   1   72.84    7.12
  -3   8  -1   73.55    5.84
  -3   8  -1   80.96    5.12
   3  -8   2   32.95    4.82
   3  -8   2   43.55    5.88
  -3   8  -2   31.34    3.47
   3  -8   2   31.07    2.21
   3  -8   3   11.41    3.24
   3  -8   3    7.41    1.74
  -3   8  -3   13.13    2.27
   3  -8   3   13.61    3.73
   3  -8   4  108.20   10.48
  -3   8  -4  126.72    8.30
   3  -8   5  833.22   39.24
  -3   8  -5  716.22   34.56
   3  -8   6   19.58    4.38
  -3   7  11   -0.41    2.92
  -3   7  10    2.19    2.56
  -3   7   9   35.61    5.53
  -3   7   9   29.06    6.70
  -3   7   8   29.90    6.50
  -3   7   8   37.46    5.24
   3  -7  -8   38.46    3.06
  -3   7   8   41.77    5.30
   3  -7  -7    3.25    2.06
  -3   7   7    0.23    1.67
  -3   7   7    1.27    2.92
  -3   7   7    1.38    1.18
  -3   7   7    2.05    1.78
   3  -7  -6   42.18    4.71
  -3   7   6   35.24    4.22
  -3   7   6   39.90    3.04
  -3   7   6   35.89    6.00
  -3   7   6   36.52    3.75
  -3   7   6   39.03    4.66
  -3   7   5   11.41    3.47
  -3   7   5   14.31    1.82
   3  -7  -5   15.73    2.57
  -3   7   5   12.05    2.12
  -3   7   5   15.64    1.64
  -3   7   5   14.01    2.27
   3  -7  -5   22.44    5.47
  -3   7   5   14.51    2.74
   3  -7  -4   13.83    2.38
  -3   7   4   21.16    2.17
  -3   7   4   18.92    3.67
  -3   7   4   23.84    2.91
  -3   7   4   23.40    2.10
   3  -7  -4   15.03    4.77
  -3   7   4   28.34    3.05
   3  -7  -3  164.54   10.96
  -3   7   3  161.30   11.61
  -3   7   3  180.36   10.68
  -3   7   3  178.57    9.57
   3  -7  -3  162.43   14.28
  -3   7   3  205.58   10.51
   3  -7  -2  961.31   50.79
  -3   7   2  974.91   49.45
   3  -7  -2 1051.36   50.03
  -3   7   2 1005.39   48.15
   3  -7  -2 1085.38   54.36
  -3   7   2  952.17   49.01
  -3   7   2 1028.59   49.21
  -3   7   2 1174.77   48.51
   3  -7  -1  114.52    8.92
  -3   7   1  128.36    8.19
   3  -7  -1  130.40    9.35
  -3   7   1  130.81    8.58
   3  -7  -1  133.02   11.40
  -3   7   1  144.10    8.42
  -3   7   1  153.20    7.68
   3  -7   0   10.30    2.23
   3  -7   0   10.48    2.41
  -3   7   0    9.73    1.53
   3  -7   0    9.43    3.25
  -3   7   0   11.00    1.69
  -3   7   0    8.28    1.72
  -3   7   0    8.50    1.84
   3  -7   1   35.39    4.52
   3  -7   1   37.20    3.64
   3  -7   1   46.31    5.86
  -3   7  -1   44.63    4.01
  -3   7  -1   39.24    3.30
  -3   7  -1   45.66    3.34
   3  -7   2   65.14    4.39
   3  -7   2   45.55    5.42
   3  -7   2   46.12    3.74
  -3   7  -2   50.93    4.38
   3  -7   2   66.94    6.76
  -3   7  -2   55.99    3.74
  -3   7  -2   49.76    3.22
   3  -7   3   22.40    2.50
   3  -7   3   14.88    3.49
   3  -7   3   19.47    2.76
  -3   7  -3   14.03    2.25
   3  -7   3   19.85    3.85
   3  -7   4   52.16    6.56
   3  -7   4   52.26    5.32
  -3   7  -4   60.38    4.68
   3  -7   5   39.85    5.95
   3  -7   5   45.51    5.32
  -3   7  -5   50.65    4.16
   3  -7   6    9.76    3.00
   3  -7   6    7.94    3.25
   3  -7   7   15.82    3.96
  -3   6  10   17.17    4.48
  -3   6   9   89.00   11.44
  -3   6   9   91.80    9.45
   3  -6  -9   97.03    6.16
   3  -6  -9   87.02    9.24
  -3   6   9  115.82    9.17
  -3   6   8   45.63    7.72
  -3   6   8   55.11    6.49
   3  -6  -8   51.84    3.76
   3  -6  -8   44.75    6.35
  -3   6   7    0.43    2.64
   3  -6  -7    1.81    1.89
  -3   6   7    1.53    1.89
   3  -6  -7    1.39    0.85
  -3   6   6   89.56    7.88
   3  -6  -6   92.98    8.14
  -3   6   6  117.33    6.00
  -3   6   6   89.45    9.98
  -3   6   6  121.94    7.40
   3  -6  -6   97.96    9.08
  -3   6   5   42.34    3.97
  -3   6   5   32.83    5.31
  -3   6   5   33.90    3.85
  -3   6   5   38.54    2.83
   3  -6  -5   27.66    3.74
   3  -6  -5   28.78    6.37
  -3   6   5   33.92    3.40
   3  -6  -5   32.27    4.86
  -3   6   4   48.73    4.21
  -3   6   4   41.35    5.35
   3  -6  -4   28.18    3.33
  -3   6   4   44.51    3.73
   3  -6  -4   29.05    3.49
  -3   6   4   48.14    2.89
  -3   6   4   45.29    3.88
   3  -6  -4   30.21    5.98
  -3   6   4   59.58    4.49
   3  -6  -4   34.13    5.02
   3  -6  -3    1.03    0.92
  -3   6   3    0.84    1.08
  -3   6   3    1.31    1.57
   3  -6  -3    1.32    2.03
   3  -6  -3    1.35    0.86
  -3   6   3    1.34    0.76
   3  -6  -3    1.49    2.72
  -3   6   3    0.97    0.65
  -3   6   3    0.65    0.82
  -3   6   3    1.28    1.04
  -3   6   2   75.43    6.35
   3  -6  -2   84.83    6.20
  -3   6   2   90.58    6.56
   3  -6  -2   78.58    7.27
   3  -6  -2   73.81    4.31
  -3   6   2   89.03    5.12
  -3   6   2   77.11    6.83
   3  -6  -2   86.70    8.74
  -3   6   2   91.23    5.98
  -3   6   2  102.27    5.70
  -3   6   1   89.88    6.08
   3  -6  -1   78.52    6.27
   3  -6  -1   78.29    6.72
   3  -6  -1   86.62    8.37
  -3   6   1   78.56    6.54
  -3   6   0   29.91    2.83
   3  -6   0   29.72    3.58
   3  -6   0   28.48    3.49
   3  -6   0   35.56    4.96
  -3   6   0   26.67    3.51
  -3   6   0   33.61    3.21
   3  -6   1  262.93   11.41
   3  -6   1  236.33   12.94
   3  -6   1  234.78   14.13
   3  -6   1  205.78   11.45
   3  -6   1  284.37   16.03
  -3   6  -1  219.65   12.60
  -3   6  -1  234.22   11.85
  -3   6  -1  195.76   12.65
   3  -6   2    8.61    1.81
   3  -6   2    8.65    2.40
   3  -6   2    9.42    1.66
  -3   6  -2    9.21    1.69
   3  -6   2    8.64    2.66
  -3   6  -2    9.65    1.15
  -3   6  -2    7.94    1.56
   3  -6   3    3.16    1.39
   3  -6   3    1.94    1.80
   3  -6   3    1.47    1.15
   3  -6   3    2.82    2.06
  -3   6  -3    0.94    0.89
  -3   6  -3    0.68    0.76
   3  -6   4  136.07    8.05
   3  -6   4  110.38    8.81
   3  -6   4  142.56   10.36
  -3   6  -4  121.36    7.66
  -3   6  -4  129.94    7.71
   3  -6   5   17.02    2.53
   3  -6   5   14.55    3.13
   3  -6   5   19.16    3.67
  -3   6  -5   19.52    2.39
   3  -6   6   17.38    3.90
   3  -6   6   29.85    4.68
   3  -6   7   35.97    5.79
   3  -6   7   54.11    6.35
   3  -6   8    2.59    2.59
   3  -6   9    8.10    3.91
  -3   5  10    5.79    3.24
   3  -5 -10    3.78    2.77
  -3   5  10    5.98    3.76
  -3   5  10    8.17    2.92
   3  -5  -9    7.20    2.95
  -3   5   9    2.18    3.17
  -3   5   9    5.59    3.15
   3  -5  -9    8.99    1.82
  -3   5   9    9.75    3.01
   3  -5  -8   17.47    4.02
  -3   5   8   22.15    5.69
   3  -5  -8   13.08    1.90
  -3   5   8   22.56    4.38
  -3   5   7    8.33    3.80
   3  -5  -7    6.88    2.59
  -3   5   7   10.62    3.13
   3  -5  -7    6.06    1.18
  -3   5   6   83.92    9.58
  -3   5   6   89.00    8.10
  -3   5   6  105.21    5.21
  -3   5   6  103.06    5.24
   3  -5  -6   85.88    8.11
   3  -5  -6  106.62    5.81
   3  -5  -6   95.28    8.70
   3  -5  -5    5.40    2.00
  -3   5   5    4.60    1.88
  -3   5   5    3.32    2.65
   3  -5  -5    6.50    2.33
  -3   5   5    4.75    1.47
   3  -5  -5    5.37    1.30
  -3   5   5    5.06    1.35
   3  -5  -4   25.84    4.80
  -3   5   4   43.70    3.62
  -3   5   4   28.88    4.60
  -3   5   4   33.96    3.53
   3  -5  -4   22.84    3.24
   3  -5  -4   25.49    2.76
   3  -5  -4   23.53    3.83
  -3   5   4   47.33    3.96
  -3   5   4   41.83    3.39
   3  -5  -3  210.58   14.96
   3  -5  -3  186.78   12.01
  -3   5   3  213.87   14.36
  -3   5   3  251.67   12.79
   3  -5  -3  194.72   12.34
  -3   5   3  220.41   12.13
  -3   5   3  258.68   12.62
  -3   5   3  246.21   11.06
   3  -5  -3  214.62   12.15
  -3   5   3  206.43   14.22
   3  -5  -3  213.09   14.35
  -3   5   3  277.57   12.93
  -3   5   2   29.20    2.39
   3  -5  -2   29.11    2.94
  -3   5   2   26.54    3.59
  -3   5   2   32.99    3.28
   3  -5  -2   33.65    4.37
  -3   5   2   28.99    2.87
  -3   5   2   25.93    3.71
   3  -5  -2   36.96    5.23
  -3   5   2   31.83    2.27
   3  -5  -2   29.46    2.63
  -3   5   1   34.65    3.59
   3  -5  -1   36.74    3.49
   3  -5  -1   34.42    4.17
   3  -5  -1   34.15    2.48
  -3   5   1   29.37    3.64
   3  -5  -1   38.94    5.16
   3  -5  -1   36.58    3.15
   3  -5   0    6.29    1.88
  -3   5   0    9.72    1.66
   3  -5   0    5.76    1.53
   3  -5   0    6.81    0.91
   3  -5   0    5.85    0.90
  -3   5   0    9.69    2.01
   3  -5   0    6.19    2.18
   3  -5   0    5.40    1.21
  -3   5   0    8.42    1.47
   3  -5   1  163.02    9.24
   3  -5   1  144.61    9.52
   3  -5   1  134.39    7.89
   3  -5   1  141.21    8.23
  -3   5  -1  126.04    8.88
   3  -5   1  174.09   10.97
  -3   5  -1  151.72    8.47
  -3   5  -1  136.48    9.23
   3  -5   2   83.63    5.57
   3  -5   2   66.89    6.17
   3  -5   2   63.91    5.16
  -3   5  -2   64.35    5.44
   3  -5   2   84.38    6.91
  -3   5  -2   86.22    5.26
  -3   5  -2   67.12    5.42
   3  -5   3  118.41    7.18
   3  -5   3   92.70    7.37
   3  -5   3  130.86    9.03
  -3   5  -3  106.72    7.10
  -3   5  -3  114.61    6.74
  -3   5  -3  106.41    5.26
   3  -5   4  143.33    8.51
   3  -5   4  145.85   10.31
  -3   5  -4  130.19    7.73
  -3   5  -4  148.45    8.55
   3  -5   5  115.21    7.20
   3  -5   5   91.70    8.20
   3  -5   5  120.89    8.88
  -3   5  -5   88.07    6.67
   3  -5   6   10.93    2.21
   3  -5   6    7.88    2.74
   3  -5   6   13.51    3.00
   3  -5   6   11.96    2.98
  -3   5  -6    8.29    1.93
   3  -5   7   10.54    3.26
   3  -5   7   14.26    3.45
  -3   5  -7   14.80    2.48
   3  -5   8   12.28    3.86
   3  -5   8   16.75    3.77
   3  -5   9    7.22    3.59
  -3   4  10   35.66    7.73
  -3   4  10   42.77    7.15
   3  -4 -10   42.77    4.11
   3  -4 -10   41.60    6.47
  -3   4   9   57.40    9.14
  -3   4   9   64.05    8.15
   3  -4  -9   70.64    5.24
   3  -4  -9   73.90    8.16
  -3   4   9   86.23    7.45
   3  -4  -8    2.50    2.15
  -3   4   8    0.49    3.10
  -3   4   8    1.03    2.32
   3  -4  -8    1.87    1.19
  -3   4   7   85.59    9.77
  -3   4   7   84.11    8.18
   3  -4  -7   71.60    5.12
   3  -4  -7   83.40    5.10
   3  -4  -7   75.20    7.65
  -3   4   6   52.15    4.10
  -3   4   6   32.96    5.89
  -3   4   6   41.62    5.27
   3  -4  -6   41.77    5.30
   3  -4  -6   44.50    3.04
   3  -4  -6   36.88    3.32
   3  -4  -6   39.65    5.04
  -3   4   5  141.85   12.21
  -3   4   5  164.63    7.61
   3  -4  -5  132.56   10.49
  -3   4   5  142.85   10.43
   3  -4  -5  147.13    8.75
   3  -4  -5  147.32    7.77
   3  -4  -5  132.65   10.55
   3  -4  -4  198.94   15.14
  -3   4   4  255.17   12.12
  -3   4   4  194.95   14.50
  -3   4   4  231.19   10.80
   3  -4  -4  189.10   12.92
  -3   4   4  210.00   12.91
   3  -4  -4  199.66   11.57
  -3   4   4  202.30   14.43
   3  -4  -4  205.01   16.12
  -3   4   4  266.15   12.97
   3  -4  -4  191.26   13.27
  -3   4   3 2045.08   86.64
  -3   4   3 2345.90   91.00
   3  -4  -3 2053.58   91.28
  -3   4   3 2057.94   87.11
   3  -4  -3 2025.94   87.83
  -3   4   3 2260.39   90.90
   3  -4  -3 1433.43   85.82
  -3   4   3 1729.98   86.15
   3  -4  -3 1539.51   88.18
  -3   4   3 2197.40   87.02
   3  -4  -2  328.48   18.79
  -3   4   2  373.49   21.08
  -3   4   2  368.68   19.03
  -3   4   2  410.11   19.41
   3  -4  -2  379.00   21.70
   3  -4  -2  352.63   19.35
  -3   4   2  356.97   20.93
  -3   4   2  411.99   17.86
  -3   4   2  410.82   19.26
   3  -4  -1    3.08    1.63
  -3   4   1    5.64    1.58
   3  -4  -1    4.39    1.08
  -3   4   1    4.88    1.28
   3  -4  -1    2.35    0.91
  -3   4   1    4.50    1.51
  -3   4   1    5.65    1.13
   3  -4  -1    2.91    0.93
   3  -4   0   22.19    2.93
  -3   4   0   22.46    2.59
   3  -4   0   21.27    2.44
   3  -4   0   18.83    1.81
  -3   4   0   18.74    2.58
   3  -4   0   21.96    2.19
  -3   4  -1   84.80    5.44
   3  -4   1   77.49    5.76
   3  -4   1   71.18    5.72
  -3   4  -1   78.28    5.87
   3  -4   1   87.10    6.90
   3  -4   1   69.05    4.90
  -3   4  -1   88.24    5.24
  -3   4  -1   78.11    6.32
   3  -4   2  120.11    7.36
   3  -4   2  101.13    7.16
   3  -4   2  109.70    6.59
   3  -4   2  123.75    8.47
  -3   4  -2  104.30    7.31
  -3   4  -2  121.50    6.77
  -3   4  -2  111.07    7.81
   3  -4   3   21.51    2.55
   3  -4   3   13.76    2.40
   3  -4   3   16.50    1.87
  -3   4  -3   18.06    2.47
   3  -4   3   22.55    3.24
  -3   4  -3   22.73    2.16
  -3   4  -3   17.95    2.50
   3  -4   4    4.04    1.43
   3  -4   4    4.61    1.83
   3  -4   4    4.93    1.87
  -3   4  -4    5.23    1.50
   3  -4   5   10.60    2.07
   3  -4   5    7.37    2.37
   3  -4   5   12.92    2.70
   3  -4   5   11.86    2.95
  -3   4  -5   14.27    2.27
   3  -4   6   51.43    6.32
   3  -4   6   68.47    6.25
   3  -4   6   69.73    6.81
  -3   4  -6   56.08    5.05
   3  -4   7   94.94    9.52
   3  -4   7  124.47    9.32
  -3   4  -7  105.73    7.85
   3  -4   8    6.68    3.05
   3  -4   8    6.13    2.67
  -3   4  -8    5.05    1.96
   3  -4   9   10.52    3.79
   3  -4   9   15.02    3.71
  -3   4  -9   15.98    3.03
   3  -4  10   26.63    6.11
  -3   3  10  769.98   43.82
   3  -3 -10  771.80   37.65
  -3   3  10  794.95   40.06
   3  -3 -10  720.76   42.00
  -3   3   9  114.15   11.47
   3  -3  -9  130.72    8.18
   3  -3  -9  132.01   11.41
   3  -3  -8   22.44    4.31
  -3   3   8   26.47    5.83
  -3   3   8   27.50    5.17
   3  -3  -8   18.36    2.09
   3  -3  -8   23.94    2.62
  -3   3   7  117.27   11.60
  -3   3   7  129.13   10.63
   3  -3  -7  107.37    6.62
   3  -3  -7  112.80    6.82
   3  -3  -7  121.73    9.77
   3  -3  -6    1.94    1.60
  -3   3   6    2.31    2.42
  -3   3   6    1.58    1.00
  -3   3   6    0.81    1.71
   3  -3  -6    2.33    0.88
   3  -3  -6    2.32    0.92
  -3   3   5   77.02    4.76
  -3   3   5   52.77    6.90
  -3   3   5   58.05    6.00
   3  -3  -5   66.72    6.48
   3  -3  -5   63.61    3.79
   3  -3  -5   59.05    4.27
   3  -3  -5   60.58    6.00
   3  -3  -4   50.08    6.49
  -3   3   4   51.53    6.17
  -3   3   4   65.58    4.13
  -3   3   4   61.01    3.16
   3  -3  -4   49.64    5.22
  -3   3   4   53.28    5.18
   3  -3  -4   52.53    3.83
   3  -3  -4   50.61    3.02
   3  -3  -4   56.03    7.04
  -3   3   4   54.38    4.94
   3  -3  -4   39.36    4.65
  -3   3   4   69.43    5.03
  -3   3   3   94.86    8.54
  -3   3   3  120.41    6.60
   3  -3  -3  114.10    9.52
  -3   3   3  120.70    5.99
  -3   3   3  109.07    7.58
   3  -3  -3  106.07    7.90
   3  -3  -3  105.67    6.50
  -3   3   3   96.36    8.39
   3  -3  -3  100.41    9.53
  -3   3   3  122.29    8.10
  -3   3   3  132.58    7.42
   3  -3  -3   98.12    7.74
  -3   3   2   97.10    7.54
  -3   3   2  106.89    5.75
   3  -3  -2   84.12    5.29
   3  -3  -2   97.48    7.90
  -3   3   2   92.50    6.10
   3  -3  -2   89.28    6.47
  -3   3   2   92.24    7.39
   3  -3  -2   91.06    5.63
   3  -3  -2  100.44    8.56
  -3   3   2  103.37    6.99
   3  -3  -2  104.30    7.34
  -3   3   1   23.85    2.20
  -3   3   1   24.50    2.30
  -3   3   1   25.21    3.07
   3  -3  -1   18.93    1.91
   3  -3  -1   18.88    3.11
   3  -3  -1   20.82    2.29
  -3   3   1   22.75    2.92
   3  -3  -1   22.73    2.14
   3  -3  -1   20.86    3.36
  -3   3   1   26.03    2.29
  -3   3   1   25.74    2.96
  -3   3   0  326.26   16.97
   3  -3   0  340.48   17.67
   3  -3   0  325.86   16.17
   3  -3   0  314.20   15.94
   3  -3   0  308.05   15.86
  -3   3   0  278.84   16.80
  -3   3  -1   12.99    1.85
   3  -3   1   15.95    2.04
   3  -3   1   19.22    2.44
  -3   3  -1   10.94    1.89
   3  -3   1   16.54    1.69
  -3   3  -1   12.89    1.59
  -3   3  -2   99.09    6.93
   3  -3   2  112.97    6.29
  -3   3  -2   97.87    7.58
   3  -3   3  202.41   10.32
   3  -3   3  158.80   10.62
   3  -3   3  186.66    9.20
  -3   3  -3  158.71    9.91
  -3   3  -3  142.92   10.29
   3  -3   4    3.56    1.66
   3  -3   4    6.96    1.62
   3  -3   4    4.22    0.87
   3  -3   4    5.34    2.00
  -3   3  -4    5.30    0.83
  -3   3  -4    4.84    1.47
   3  -3   5   11.09    2.66
   3  -3   5   16.67    2.86
   3  -3   5   10.29    2.63
  -3   3  -5    7.68    1.84
   3  -3   6   19.12    3.83
   3  -3   6   28.20    3.78
   3  -3   6   29.63    4.39
  -3   3  -6   20.70    3.01
   3  -3   7  153.23   12.93
   3  -3   7  193.54   12.01
  -3   3  -7  162.91   10.89
   3  -3   8    1.50    2.11
   3  -3   8    0.47    1.77
  -3   3  -8    4.51    1.87
   3  -3   9   82.14    9.68
   3  -3   9  108.87    8.98
  -3   3  -9  102.80    8.17
   3  -3  10  265.84   21.84
  -3   3 -10  327.65   18.94
   3  -3  11   20.82    6.19
  -3   2  11   40.95    5.42
  -3   2  10   29.60    6.88
  -3   2  10   27.20    5.87
   3  -2 -10   34.42    4.01
   3  -2 -10   32.03    5.59
  -3   2  10   37.74    4.87
  -3   2   9  116.85   12.62
  -3   2   9  102.00   10.85
   3  -2  -9  113.06    7.64
   3  -2  -9  115.72   10.48
  -3   2   8   42.40    6.30
   3  -2  -8   37.95    3.01
  -3   2   7  150.19   12.04
   3  -2  -7  134.39    7.77
   3  -2  -7  159.76   11.43
   3  -2  -6    9.36    2.49
  -3   2   6   12.38    3.29
   3  -2  -6    9.83    1.40
  -3   2   5  101.30   10.13
  -3   2   5  105.13    9.10
   3  -2  -5  119.10    9.65
  -3   2   5  105.91    9.98
   3  -2  -5  126.25    6.87
   3  -2  -5  140.05    9.43
  -3   2   4  204.52   15.96
  -3   2   4  219.38   14.95
   3  -2  -4  259.79   15.64
  -3   2   4  261.31   12.02
   3  -2  -4  252.89   12.94
  -3   2   4  238.54   16.24
  -3   2   4  249.77   14.32
   3  -2  -4  255.82   14.98
  -3   2   4  309.50   14.72
  -3   2   3   98.69    5.22
  -3   2   3   81.28    7.46
   3  -2  -3   89.14    7.11
  -3   2   3   91.72    4.71
  -3   2   3   80.44    6.52
   3  -2  -3   85.87    4.38
   3  -2  -3   81.25    8.07
   3  -2  -3   87.41    5.28
   3  -2  -3   78.83    6.35
  -3   2   3  102.98    6.23
  -3   2   3   87.81    6.30
  -3   2   2   33.72    4.24
  -3   2   2   40.68    2.75
  -3   2   2   43.60    2.70
   3  -2  -2   51.41    4.37
  -3   2   2   32.38    3.46
   3  -2  -2   43.81    5.15
   3  -2  -2   44.59    3.10
  -3   2   2   41.29    3.80
   3  -2  -2   45.55    4.02
  -3   2   1  106.59    6.86
   3  -2  -1  102.95    5.75
  -3   2   1  118.16    7.94
   3  -2  -1  112.61    8.24
  -3   2   1  115.29    6.03
   3  -2  -1  117.54    7.15
  -3   2   1  119.65    6.10
   3  -2  -1  114.60    8.49
  -3   2   1  111.80    7.10
   3  -2  -1  129.43    7.79
  -3   2   0  162.35   10.33
   3  -2   0  180.73    9.16
   3  -2   0  192.88   11.15
   3  -2   0  174.04    9.81
   3  -2   0  181.94    9.38
   3  -2   0  195.09   11.45
  -3   2   0  187.39   10.56
  -3   2  -1   73.26    5.14
   3  -2   1   76.42    5.46
   3  -2   1   84.46    5.91
   3  -2   1   72.10    4.41
  -3   2  -1   64.84    5.05
   3  -2   2  392.81   18.96
  -3   2  -2  331.02   18.45
   3  -2   2  401.52   19.47
   3  -2   2  363.89   17.64
  -3   2  -2  357.89   19.89
   3  -2   3 3846.35  166.55
   3  -2   3 3901.12  167.44
  -3   2  -3 3387.66  166.28
   3  -2   3 3718.92  165.20
  -3   2  -3 3365.34  167.55
   3  -2   4  145.08    8.47
   3  -2   4  115.01    9.11
   3  -2   4  133.38    7.04
  -3   2  -4  124.76    8.84
  -3   2  -4  127.61    7.31
   3  -2   5    3.11    1.85
   3  -2   5    6.10    0.89
   3  -2   5    8.01    2.41
  -3   2  -5    3.45    0.85
  -3   2  -5    1.56    1.02
   3  -2   6    8.44    2.59
   3  -2   6    9.07    2.55
  -3   2  -6    8.41    2.07
   3  -2   7  190.89   14.30
  -3   2  -7  192.55   12.27
   3  -2   8   36.37    5.84
   3  -2   8   47.27    5.11
  -3   2  -8   34.26    4.33
   3  -2   9   18.09    4.63
   3  -2   9   24.21    3.97
  -3   2  -9   20.17    3.55
   3  -2  10   43.92    7.20
   3  -2  10   56.88    6.21
  -3   2 -10   36.88    5.05
  -3   2 -11    5.78    2.69
  -3   1  11   22.94    3.95
  -3   1  10   27.30    6.45
  -3   1  10   35.76    4.61
  -3   1   9    6.48    3.17
  -3   1   9    5.25    3.39
   3  -1  -9   11.69    3.43
  -3   1   8   41.02    6.46
  -3   1   8   40.18    7.15
   3  -1  -7   11.47    2.73
  -3   1   7    2.15    2.58
  -3   1   7    5.20    2.86
   3  -1  -7   10.25    1.35
  -3   1   6   12.35    3.18
  -3   1   6    6.07    2.98
   3  -1  -6    9.98    2.47
   3  -1  -6    5.72    1.08
  -3   1   5  141.35   11.23
   3  -1  -5  169.55   12.14
   3  -1  -5  164.06    8.50
  -3   1   5  125.54   11.56
   3  -1  -5  176.90   11.08
  -3   1   4 2361.41   96.70
  -3   1   4 1840.87   91.21
   3  -1  -4 2003.98   91.22
  -3   1   4 2389.72   99.07
   3  -1  -4 2109.48   94.81
   3  -1  -4 1890.14   92.02
  -3   1   3  248.59   13.69
  -3   1   3  221.48   15.34
   3  -1  -3  276.08   16.80
  -3   1   3  225.84   14.47
   3  -1  -3  249.13   12.04
   3  -1  -3  278.56   15.57
  -3   1   3  252.20   12.07
  -3   1   3  215.64   15.09
   3  -1  -3  259.42   12.73
  -3   1   3  286.60   13.89
   3  -1  -3  265.86   14.34
  -3   1   2   37.81    4.35
   3  -1  -2   40.70    4.87
   3  -1  -2   42.92    4.22
   3  -1  -2   36.46    2.47
  -3   1   2   45.37    2.59
  -3   1   2   36.83    3.73
  -3   1   2   39.22    4.21
   3  -1  -2   36.59    4.56
   3  -1  -2   38.33    3.54
  -3   1   2   39.60    3.40
  -3   1   1   52.63    4.90
  -3   1   1   63.49    3.12
   3  -1  -1   51.90    4.49
  -3   1   1   57.90    4.50
  -3   1   1   59.59    3.50
  -3   1   1   52.83    4.73
   3  -1  -1   50.65    5.13
  -3   1   1   60.23    4.28
   3  -1  -1   53.05    4.22
  -3   1   0  148.53    8.27
   3  -1   0  128.03    6.67
  -3   1   0  143.44    8.73
  -3   1   0  155.71    7.44
   3  -1   0  126.29    8.04
   3  -1   0  131.22    8.86
  -3   1   0  155.13    6.91
  -3   1   0  148.05    8.07
  -3   1  -1   51.54    4.06
   3  -1   1   59.99    4.44
  -3   1  -1   46.67    3.20
   3  -1   1   57.99    4.39
  -3   1  -1   46.49    3.00
   3  -1   2  142.77    8.46
  -3   1  -2  139.44    7.56
   3  -1   2  150.13    8.59
  -3   1  -2  126.61    9.25
   3  -1   3  169.50    9.60
   3  -1   3  173.65    9.72
   3  -1   3  161.94    8.39
  -3   1  -3  140.31   10.24
   3  -1   3  176.35   11.17
  -3   1  -4  102.60    5.88
   3  -1   4  104.96    6.81
   3  -1   4   90.38    5.25
  -3   1  -4   92.64    7.23
   3  -1   4  115.19    8.30
  -3   1  -4   97.89    6.08
   3  -1   5   15.79    2.97
  -3   1  -5   13.88    1.75
   3  -1   5   18.66    1.48
   3  -1   5   21.89    2.69
  -3   1  -5   11.79    1.67
   3  -1   5   20.55    3.33
  -3   1  -5   11.06    2.31
   3  -1   6  224.23   16.05
  -3   1  -6  268.86   13.25
   3  -1   6  271.47   14.62
   3  -1   6  251.13   12.02
  -3   1  -6  239.10   12.74
   3  -1   6  293.15   16.67
  -3   1  -6  212.98   14.45
   3  -1   7    5.50    2.42
  -3   1  -7    8.02    1.52
  -3   1  -7    7.01    2.05
   3  -1   8   78.55    8.54
  -3   1  -8   67.27    6.42
   3  -1   9  103.38   10.80
  -3   1  -9   98.96    8.34
   3  -1  10   11.64    4.31
  -3   1 -10    9.55    2.74
  -3   1 -11    0.81    2.28
  -3   0  10   33.53    4.53
  -3   0   9   11.51    3.99
  -3   0   9    3.59    3.24
   3   0  -9    9.07    3.13
  -3   0   8   56.24    7.65
  -3   0   8   51.71    7.97
   3   0  -8   73.24    7.29
  -3   0   7   19.66    4.80
   3   0  -7   25.76    1.56
  -3   0   7   29.17    5.17
   3   0  -7   26.83    2.19
   3   0  -7   24.77    3.94
  -3   0   6   26.46    5.12
  -3   0   6   27.35    4.51
   3   0  -6   23.32    1.61
   3   0  -6   21.20    1.97
   3   0  -6   26.20    3.77
  -3   0   5    7.42    2.83
   3   0  -5   11.01    2.41
   3   0  -5   11.78    1.08
  -3   0   5    7.07    2.52
  -3   0   5    9.16    3.13
   3   0  -5   11.75    1.43
   3   0  -4  180.77   13.38
  -3   0   4  140.56   11.81
  -3   0   4  173.72    8.44
  -3   0   4  145.22   11.22
   3   0  -4  172.01    8.41
  -3   0   4  127.27   11.27
  -3   0   4  197.06   10.65
   3   0  -4  178.92   10.79
   3   0  -3  193.52   13.84
  -3   0   3  175.95   12.26
  -3   0   3  210.79    9.93
   3   0  -3  203.67    9.91
  -3   0   3  167.10   12.52
   3   0  -3  213.39   11.69
   3   0  -2   19.57    3.35
   3   0  -2   20.03    1.65
  -3   0   2   16.37    2.55
  -3   0   2   23.49    1.74
  -3   0   2   18.45    2.84
   3   0  -2   18.11    3.19
   3   0  -2   21.00    2.40
   3   0  -1  628.74   29.00
  -3   0   1  504.62   27.34
   3   0  -1  566.24   25.93
  -3   0   1  555.31   25.86
   3   0  -1  561.85   25.67
  -3   0   1  482.98   27.38
   3   0  -1  578.40   28.54
   3   0  -1  593.34   26.83
  -3   0   1  533.01   26.38
  -3   0   0   49.18    4.23
   3   0   0   57.09    4.74
  -3   0   0   45.79    3.92
   3   0   0   52.80    3.27
  -3   0   0   50.91    3.17
  -3   0   0   51.44    2.98
  -3   0   0   45.24    3.76
   3   0   0   50.17    2.95
   3   0   0   48.72    4.24
   3   0   0   61.88    3.76
  -3   0   0   45.60    3.29
  -3   0  -1    5.98    1.38
   3   0   1   10.35    1.73
  -3   0  -1    7.07    0.99
   3   0   1   14.46    1.80
  -3   0  -1    6.76    0.92
  -3   0  -1    9.20    1.34
   3   0   1   11.75    1.10
  -3   0  -1    7.83    1.12
  -3   0  -2  186.81   10.53
  -3   0  -2  198.00    9.63
   3   0   2  174.35    9.58
   3   0   2  188.84   10.31
  -3   0  -2  180.59    9.87
  -3   0  -2  193.48    9.64
  -3   0  -2  187.74   11.82
  -3   0  -3   73.55    5.01
  -3   0  -3   80.03    5.00
   3   0   3   88.42    5.51
  -3   0  -3   82.67    6.62
  -3   0  -4   -0.07    0.53
   3   0   4    0.83    0.76
   3   0   4    1.61    1.23
  -3   0  -4   -0.10    0.66
  -3   0  -4   -0.18    0.75
  -3   0  -5   82.84    5.05
   3   0   5   80.66    7.36
   3   0   5   90.59    5.97
  -3   0  -5   68.45    6.29
   3   0   5   93.41    7.44
  -3   0  -5   68.59    5.20
   3   0   6    5.89    2.40
  -3   0  -6    1.51    0.81
   3   0   6    5.39    1.60
   3   0   6    7.02    2.33
   3   0   6    6.61    0.75
  -3   0  -6    1.15    0.78
  -3   0  -6    0.78    1.14
   3   0   7    5.11    2.50
  -3   0  -7    7.34    1.40
   3   0   7    4.33    0.58
   3   0   7    4.21    1.61
  -3   0  -7    4.39    1.15
  -3   0  -7    5.34    1.86
  -3   0  -8  211.72   11.34
   3   0   8  191.45   15.29
  -3   0  -8  182.76   13.07
   3   0   9  612.89   33.11
   3   0   9  612.93   28.35
   3   0  10   64.44    8.66
  -3   0 -10   52.83    5.98
   3   0  11   24.96    5.73
  -3   0 -11   19.34    3.87
  -3   0 -11   15.34    3.56
  -3  -1   9   10.90    4.31
   3   1  -9   10.49    3.32
  -3  -1   8   86.08   10.35
   3   1  -8  108.29    9.28
   3   1  -7    6.83    1.01
  -3  -1   7    4.46    3.13
   3   1  -7    7.33    2.52
   3   1  -7    4.73    0.94
   3   1  -6   28.57    2.22
  -3  -1   6   29.72    4.89
  -3  -1   6   28.24    5.17
   3   1  -6   32.27    4.27
  -3  -1   5   70.17    7.72
  -3  -1   5   61.38    7.06
   3   1  -5   81.04    4.53
  -3  -1   5   61.60    7.33
   3   1  -5   84.44    6.71
   3   1  -4   53.06    6.64
  -3  -1   4   46.11    5.62
   3   1  -4   52.00    5.91
  -3  -1   4   40.94    5.15
   3   1  -4   48.23    3.15
  -3  -1   4   36.28    5.11
  -3  -1   4   50.62    4.36
   3   1  -4   49.41    4.58
   3   1  -3   10.96    3.14
  -3  -1   3    5.82    2.12
   3   1  -3   10.94    1.22
  -3  -1   3    7.15    2.10
  -3  -1   3    7.68    1.11
   3   1  -3   11.31    2.72
  -3  -1   3    3.79    1.84
  -3  -1   3    9.81    1.67
   3   1  -3   11.51    1.85
  -3  -1   2   61.63    5.98
   3   1  -2   82.62    7.13
   3   1  -2   88.70    6.87
  -3  -1   2   77.57    4.40
   3   1  -2   78.73    4.43
  -3  -1   2   60.02    5.70
  -3  -1   2   63.34    5.83
   3   1  -2   83.00    5.29
  -3  -1   1  129.69    8.87
   3   1  -1  144.40    9.46
  -3  -1   1  149.89    7.32
  -3  -1   1  120.38    8.47
   3   1  -1  149.81    9.22
   3   1  -1  135.01    7.22
  -3  -1   1  115.95    8.15
   3   1  -1  130.86    8.92
   3   1  -1  146.51    7.69
  -3  -1   0  185.33    9.03
  -3  -1   0  183.54   10.56
   3   1   0  183.85   10.98
  -3  -1   0  200.45    8.81
   3   1   0  169.16   10.40
   3   1   0  176.00    9.26
  -3  -1   0  196.72    9.32
  -3  -1   0  174.91    9.76
   3   1   0  171.72   10.26
   3   1   0  153.73    9.06
   3   1   0  184.06    9.20
   3   1   1  241.12   12.15
   3   1   1  216.21   10.21
   3   1   1  204.54   11.69
  -3  -1  -1  226.31   10.76
  -3  -1  -1  215.73   10.87
   3   1   1  202.61   10.67
   3   1   1  207.38   11.23
  -3  -1  -1  230.64   10.82
  -3  -1  -1  199.47   10.15
   3   1   2  182.50    9.58
  -3  -1  -2  156.35    9.24
   3   1   2  162.05    8.42
  -3  -1  -2  164.06    8.33
  -3  -1  -2  145.25    8.27
   3   1   2  171.45    8.78
  -3  -1  -2  157.40    8.48
   3   1   2  148.91    8.36
  -3  -1  -2  160.09   10.54
   3   1   3  347.52   17.59
   3   1   3  336.63   16.64
   3   1   3  349.74   16.99
  -3  -1  -3  324.12   16.79
  -3  -1  -3  322.69   18.77
   3   1   3  379.52   19.54
  -3  -1  -4   22.26    2.03
   3   1   4   24.72    2.17
  -3  -1  -4   21.63    2.29
   3   1   4   26.11    2.48
  -3  -1  -4   16.33    2.75
  -3  -1  -4   21.63    2.53
  -3  -1  -5   59.63    3.95
  -3  -1  -5   58.80    4.49
   3   1   5   58.18    4.47
  -3  -1  -5   57.25    5.42
  -3  -1  -5   55.69    4.51
  -3  -1  -6   44.25    3.18
  -3  -1  -6   42.27    3.83
  -3  -1  -6   38.56    4.42
  -3  -1  -6   34.57    3.42
  -3  -1  -7   24.50    2.33
  -3  -1  -7   21.00    2.86
  -3  -1  -7   23.39    2.62
  -3  -1  -7   19.02    3.21
  -3  -1  -8   53.01    3.76
   3   1   8   46.36    2.45
  -3  -1  -8   45.55    5.19
  -3  -1  -9    7.42    1.48
  -3  -1  -9    5.84    2.16
  -3  -1 -10   18.88    2.22
  -3  -1 -10   13.51    2.96
  -3  -1 -10   14.73    3.22
  -3  -1 -11    6.32    2.78
   3   1  11    9.68    4.05
  -3  -1 -11    5.87    2.69
  -3  -1 -11    3.34    2.45
  -3  -2   9   23.80    5.56
  -3  -2   9   31.86    3.86
  -3  -2   8   20.76    4.80
   3   2  -8   20.26    4.04
  -3  -2   8   11.11    3.82
   3   2  -7   43.62    5.32
  -3  -2   7   29.29    5.66
  -3  -2   7   26.36    5.09
   3   2  -7   37.60    2.91
   3   2  -6   73.57    6.76
  -3  -2   6   58.83    7.38
   3   2  -6   72.04    4.62
   3   2  -5  988.18   52.68
   3   2  -5  982.41   50.25
   3   2  -4  385.75   22.64
  -3  -2   4  299.11   20.36
   3   2  -4  358.04   17.56
  -3  -2   4  288.55   20.32
  -3  -2   4  431.69   19.41
   3   2  -3   11.77    3.15
  -3  -2   3   10.82    2.53
  -3  -2   3   11.26    1.45
   3   2  -3   12.96    3.05
   3   2  -3   11.22    1.46
  -3  -2   3    8.10    2.43
  -3  -2   3    9.26    1.68
   3   2  -2   93.04    7.69
  -3  -2   2   86.55    6.99
  -3  -2   2   77.19    6.43
   3   2  -2   92.03    7.51
  -3  -2   2   97.75    5.33
   3   2  -2   82.88    5.20
   3   2  -1   42.76    4.42
  -3  -2   1   41.10    3.98
  -3  -2   1   38.28    3.10
   3   2  -1   43.43    3.10
   3   2  -1   43.88    4.38
  -3  -2   1   40.82    2.90
   3   2  -1   39.07    2.91
  -3  -2   1   35.82    3.50
  -3  -2   0  182.44   10.34
   3   2   0  192.94   10.96
  -3  -2   0  175.96    9.13
  -3  -2   0  186.51    9.29
   3   2   0  167.69   10.45
   3   2   0  173.67    9.20
  -3  -2   0  163.22    9.21
   3   2   0  169.47    9.77
   3   2   0  170.65    9.29
   3   2   0  185.74    8.86
  -3  -2  -1   87.53    5.62
   3   2   1   79.61    5.64
  -3  -2  -1   83.55    4.58
   3   2   1   75.70    5.65
   3   2   1   76.87    4.64
  -3  -2  -1   82.76    4.46
   3   2   1   70.54    4.75
  -3  -2  -1   88.01    5.06
   3   2   1   77.29    4.83
  -3  -2  -1   83.68    4.90
   3   2   2  102.37    6.38
   3   2   2   88.21    5.25
   3   2   2   94.05    5.50
  -3  -2  -2  100.46    5.51
   3   2   2   86.53    5.53
   3   2   2   97.54    5.38
  -3  -2  -2   94.08    5.10
  -3  -2  -2   96.92    5.69
   3   2   3  105.35    5.81
   3   2   3   99.49    6.58
   3   2   3   96.03    5.86
  -3  -2  -3  118.24    6.42
   3   2   3   96.46    5.80
   3   2   3  106.76    7.92
   3   2   4   32.20    2.72
  -3  -2  -4   39.16    2.82
  -3  -2  -4   37.86    3.17
   3   2   4   35.47    2.92
   3   2   4   36.83    4.28
  -3  -2  -4   36.85    3.57
   3   2   5  366.71   17.34
  -3  -2  -5  349.28   17.14
  -3  -2  -5  361.90   18.03
  -3  -2  -5  311.29   19.18
   3   2   5  406.78   20.61
  -3  -2  -5  310.72   18.12
  -3  -2  -6   22.50    2.11
   3   2   6   19.28    3.81
  -3  -2  -6   23.59    2.78
  -3  -2  -6   21.77    3.29
   3   2   6   25.89    3.88
  -3  -2  -6   20.43    2.62
  -3  -2  -7   57.78    3.83
   3   2   7   54.93    6.69
  -3  -2  -7   47.90    4.36
  -3  -2  -7   45.76    5.15
   3   2   8   87.42    9.27
  -3  -2  -8   99.21    5.75
  -3  -2  -8   81.08    6.31
  -3  -2  -8   92.61    7.89
  -3  -2  -9    3.49    1.77
   3   2   9    3.65    2.80
  -3  -2  -9    4.61    1.15
  -3  -2  -9    6.74    2.18
  -3  -2  -9    4.44    1.87
  -3  -2 -10   34.12    4.73
   3   2  10   36.72    6.51
  -3  -2 -10   36.44    3.08
  -3  -2 -10   36.75    4.48
  -3  -2 -10   31.86    4.69
  -3  -2 -11   10.51    3.04
   3   2  11   12.78    4.38
  -3  -2 -11    8.59    2.70
  -3  -2 -11    6.75    2.70
  -3  -2 -12   56.21    6.86
  -3  -3   9   58.42    8.24
  -3  -3   8    1.21    2.41
   3   3  -8    7.26    2.88
  -3  -3   8    2.51    2.63
   3   3  -7   30.23    4.59
  -3  -3   7   20.54    4.54
   3   3  -7   22.61    2.49
  -3  -3   7   17.49    4.55
  -3  -3   6   49.46    6.45
   3   3  -6   42.97    3.60
  -3  -3   6   51.06    6.52
  -3  -3   5   41.86    5.73
  -3  -3   5   35.31    5.34
   3   3  -5   54.59    3.88
  -3  -3   5   41.62    5.79
  -3  -3   4  102.45    8.79
   3   3  -4  108.33    6.64
  -3  -3   4   98.91    8.93
  -3  -3   4   84.60    8.48
  -3  -3   3   19.62    3.27
   3   3  -3   22.10    4.16
  -3  -3   3   19.41    3.36
   3   3  -3   24.52    4.24
   3   3  -3   15.38    1.95
  -3  -3   3   17.86    3.10
  -3  -3   3   25.13    2.67
  -3  -3   2  125.91    9.32
   3   3  -2  172.11   11.08
  -3  -3   2  110.67    8.80
  -3  -3   2  159.24    8.20
  -3  -3   2  128.98    9.63
   3   3  -2  154.64    8.27
   3   3  -2  163.71   10.95
   3   3  -1    5.03    1.84
  -3  -3   1    2.49    1.20
  -3  -3   1    2.78    1.00
  -3  -3   1    2.63    1.06
   3   3  -1    4.49    1.02
  -3  -3   1    1.14    1.00
   3   3  -1    4.27    1.85
  -3  -3   1    2.73    0.81
  -3  -3   0   28.04    2.92
   3   3   0   26.82    3.26
  -3  -3   0   26.97    2.54
  -3  -3   0   28.80    3.27
   3   3   0   25.77    2.48
  -3  -3   0   26.40    2.05
   3   3   0   31.01    3.41
  -3  -3   0   31.10    2.50
   3   3   0   27.60    2.46
  -3  -3  -1  242.64   12.72
   3   3   1  237.54   13.02
  -3  -3  -1  233.19   12.10
   3   3   1  238.03   12.32
  -3  -3  -1  250.14   12.13
   3   3   1  218.40   13.06
  -3  -3  -1  233.43   10.92
   3   3   1  235.66   11.42
   3   3   1  227.59   12.26
   3   3   2  138.74    8.24
  -3  -3  -2  121.39    7.34
   3   3   2  131.88    8.37
   3   3   2  141.45    7.68
  -3  -3  -2  146.43    7.63
   3   3   2  133.47    7.52
  -3  -3  -2  132.52    7.82
   3   3   2  135.56    6.87
  -3  -3  -2  139.92    9.34
   3   3   3   98.49    6.54
   3   3   3  121.09    6.29
   3   3   3  106.22    6.04
   3   3   3  108.04    5.63
  -3  -3  -3  110.64    6.46
  -3  -3  -3  113.85    7.92
  -3  -3  -3   97.96    6.95
   3   3   3  115.82    8.15
  -3  -3  -3   85.45    5.16
   3   3   4   95.09    5.19
   3   3   4   82.91    4.92
  -3  -3  -4   69.50    4.63
   3   3   4   74.60    5.10
  -3  -3  -4   70.15    5.13
  -3  -3  -4   65.81    6.00
   3   3   4   86.10    6.89
  -3  -3  -4   69.49    4.46
  -3  -3  -4   64.29    5.46
   3   3   5  446.63   21.65
  -3  -3  -5  457.63   21.60
  -3  -3  -5  474.18   22.60
   3   3   5  422.12   22.14
   3   3   5  497.55   24.96
  -3  -3  -5  392.68   22.68
  -3  -3  -5  449.82   21.90
   3   3   6   13.79    1.79
  -3  -3  -6   19.12    1.89
   3   3   6   17.07    3.24
  -3  -3  -6   16.05    2.52
  -3  -3  -6   18.88    2.32
   3   3   7  196.29   11.15
   3   3   7  227.34   15.59
  -3  -3  -7  233.62   11.24
  -3  -3  -7  224.66   12.54
  -3  -3  -7  188.72   12.17
   3   3   8 1004.42   55.11
  -3  -3  -8 1137.59   49.08
  -3  -3  -8 1115.31   51.00
  -3  -3  -8 1052.13   51.10
   3   3   8  931.45   51.56
  -3  -3  -8  917.21   51.77
   3   3   9   98.99   10.15
  -3  -3  -9  101.16    5.97
  -3  -3  -9   97.05    7.47
  -3  -3  -9   89.45    7.65
   3   3   9   98.00    8.17
  -3  -3  -9   91.21    8.23
  -3  -3 -10   10.12    2.77
   3   3  10    9.45    3.87
  -3  -3 -10   11.61    1.71
  -3  -3 -10   13.07    2.88
   3   3  10    9.43    2.81
  -3  -3 -10   11.58    3.09
  -3  -3 -11    6.08    2.23
   3   3  11    2.03    2.85
  -3  -3 -11    4.16    2.37
  -3  -3 -11    2.83    2.03
  -3  -3 -12   36.53    5.03
  -3  -3 -12   33.32    5.40
  -3  -4   9   12.50    4.04
   3   4  -8    1.89    2.34
  -3  -4   8    4.87    3.20
   3   4  -7   30.36    3.10
  -3  -4   7   21.55    4.85
  -3  -4   7   31.42    5.25
  -3  -4   6   69.44    8.01
   3   4  -6   73.27    5.33
  -3  -4   6   76.95    7.91
   3   4  -5   61.51    4.58
  -3  -4   5   51.71    6.48
  -3  -4   5   52.46    6.23
   3   4  -4   16.52    2.09
  -3  -4   4    7.93    2.70
  -3  -4   4   12.58    2.84
  -3  -4   4   16.58    2.41
   3   4  -3   42.17    3.72
  -3  -4   3   39.70    5.03
   3   4  -3   46.29    5.77
  -3  -4   3   43.88    4.87
  -3  -4   2  103.15    7.67
  -3  -4   2  103.02    7.68
   3   4  -2  138.51    9.49
   3   4  -2  119.97    7.03
   3   4  -2  138.51    9.88
  -3  -4   2   99.68    8.24
  -3  -4   2   81.29    7.17
  -3  -4   2  128.46    7.06
  -3  -4   1   58.42    4.84
  -3  -4   1   57.95    4.86
   3   4  -1   72.39    6.02
  -3  -4   1   47.40    4.15
  -3  -4   1   67.92    4.44
  -3  -4   1   53.73    5.27
   3   4  -1   67.68    6.05
   3   4  -1   65.80    4.53
  -3  -4   0  190.54   10.72
   3   4   0  210.47   11.60
  -3  -4   0  189.75   10.82
  -3  -4   0  188.45   11.53
   3   4   0  189.41   10.54
  -3  -4   0  175.28    9.06
   3   4   0  191.64   10.46
   3   4   0  207.60   12.05
  -3  -4   0  218.50   10.48
  -3  -4  -1 3988.68  185.70
   3   4   1 4107.16  186.29
  -3  -4  -1 3842.71  185.74
   3   4   1 4119.30  186.21
  -3  -4  -1 4261.82  185.50
   3   4   1 3795.89  185.62
  -3  -4  -2  348.87   18.53
   3   4   2  354.98   19.26
   3   4   2  360.85   18.90
   3   4   2  370.37   18.77
  -3  -4  -2  371.40   18.34
   3   4   2  344.46   18.34
  -3  -4  -2  367.63   18.77
  -3  -4  -2  383.76   20.20
   3   4   2  402.34   17.59
   3   4   3   23.41    2.55
  -3  -4  -3   17.20    2.05
   3   4   3   20.98    2.29
   3   4   3   20.39    2.13
  -3  -4  -3   19.03    2.33
   3   4   3   20.89    1.60
  -3  -4  -3   18.71    2.81
   3   4   3   23.10    1.68
   3   4   4   60.96    4.21
   3   4   4   49.79    3.71
  -3  -4  -4   51.86    3.74
   3   4   4   48.25    3.99
  -3  -4  -4   60.82    4.37
  -3  -4  -4   54.83    5.00
   3   4   4   57.07    5.39
  -3  -4  -4   48.35    4.52
  -3  -4  -4   40.36    3.27
   3   4   5  300.48   14.34
  -3  -4  -5  289.42   13.69
   3   4   5  245.20   13.51
   3   4   5  248.12   14.08
  -3  -4  -5  252.29   15.37
   3   4   5  285.44   16.35
  -3  -4  -5  236.90   14.65
  -3  -4  -5  255.66   13.71
   3   4   6   28.60    2.88
  -3  -4  -6   26.39    2.42
   3   4   6   20.51    2.25
   3   4   6   19.94    2.60
  -3  -4  -6   21.95    3.33
  -3  -4  -6   21.79    2.64
   3   4   6   24.83    3.87
  -3  -4  -6   22.75    3.03
   3   4   7   14.56    3.52
   3   4   7   14.35    1.85
  -3  -4  -7   19.99    2.10
  -3  -4  -7   17.48    2.52
   3   4   7   16.85    3.09
  -3  -4  -7   17.89    3.02
   3   4   8  173.50   14.08
   3   4   8  173.86    9.92
  -3  -4  -8  197.29   10.03
  -3  -4  -8  188.49   11.42
   3   4   8  183.07   12.42
  -3  -4  -8  172.84   11.39
  -3  -4  -9   14.97    2.88
   3   4   9   13.51    4.01
  -3  -4  -9   18.80    2.07
  -3  -4  -9   13.91    2.70
   3   4   9   14.11    3.15
  -3  -4 -10    3.57    2.01
   3   4  10    4.88    3.12
  -3  -4 -10    4.27    1.19
  -3  -4 -10    3.48    1.81
   3   4  10    5.34    2.63
   3   4  11   24.85    5.72
  -3  -4 -11   25.75    3.92
   3   4  11   33.78    5.02
  -3  -4 -11   17.59    3.74
  -3  -4 -11   21.99    4.08
  -3  -4 -12    4.89    2.65
  -3  -4 -12    4.89    2.47
  -3  -5   8   10.06    2.57
  -3  -5   7   16.62    3.82
  -3  -5   7   15.77    2.87
   3   5  -7   12.81    2.32
  -3  -5   7   18.49    4.37
  -3  -5   6  505.66   29.35
   3   5  -6  495.59   24.89
  -3  -5   6  467.08   27.78
  -3  -5   5   86.26    9.01
   3   5  -5  110.66    7.17
  -3  -5   5  109.38    8.88
   3   5  -4   17.32    2.41
  -3  -5   4   18.28    3.68
  -3  -5   4   17.51    3.31
  -3  -5   4   21.88    2.72
  -3  -5   3   47.98    5.56
   3   5  -3   48.81    4.22
  -3  -5   3   48.93    4.93
  -3  -5   3   53.68    5.45
  -3  -5   3   58.99    4.46
   3   5  -2   26.09    4.05
  -3  -5   2   26.17    3.14
  -3  -5   2   25.71    3.46
  -3  -5   2   21.39    3.41
   3   5  -2   21.32    2.61
   3   5  -2   26.56    4.35
  -3  -5   2   27.64    2.23
  -3  -5   2   29.26    2.74
   3   5  -1    1.44    1.65
  -3  -5   1    0.93    0.93
  -3  -5   1    0.32    0.95
  -3  -5   1    0.48    0.47
  -3  -5   1    0.64    0.82
  -3  -5   1    0.10    0.80
  -3  -5   1    0.94    1.16
   3   5  -1    1.35    1.72
   3   5  -1    0.77    0.94
  -3  -5   0   28.52    2.95
  -3  -5   0   34.82    3.89
  -3  -5   0   33.21    3.57
   3   5   0   39.76    3.94
  -3  -5   0   38.65    3.28
   3   5   0   33.39    3.22
   3   5   0   41.86    4.47
   3   5   0   38.21    3.47
   3   5   1  123.48    8.41
  -3  -5  -1  134.49    7.60
   3   5   1  124.87    7.91
  -3  -5  -1  119.58    7.98
   3   5   1  125.88    8.33
  -3  -5  -1  119.01    7.39
  -3  -5  -1  123.02    8.55
   3   5   2  116.92    7.33
   3   5   2  112.78    7.84
  -3  -5  -2  126.09    7.32
   3   5   2  113.23    7.40
  -3  -5  -2  108.37    7.47
   3   5   2  115.82    7.71
  -3  -5  -2  122.60    8.30
  -3  -5  -2  107.28    7.87
   3   5   2  139.57    7.10
   3   5   3   53.11    4.25
  -3  -5  -3   56.38    4.45
   3   5   3   53.23    4.59
   3   5   3   49.88    4.29
   3   5   3   47.62    3.96
  -3  -5  -3   58.15    4.55
   3   5   3   55.26    3.60
   3   5   3   48.44    4.19
   3   5   3   50.23    2.91
  -3  -5  -3   58.42    5.04
  -3  -5  -3   55.71    4.94
   3   5   3   65.08    3.82
  -3  -5  -4  257.35   14.19
   3   5   4  272.88   14.44
  -3  -5  -4  285.92   13.85
   3   5   4  242.00   13.66
  -3  -5  -4  257.96   14.38
   3   5   4  235.46   14.13
  -3  -5  -4  251.95   15.02
   3   5   4  262.16   15.82
   3   5   4  290.13   13.44
   3   5   5   22.66    2.60
  -3  -5  -5   18.19    2.04
   3   5   5   15.59    1.98
   3   5   5   15.11    2.20
  -3  -5  -5   14.78    2.60
   3   5   5   20.79    3.30
  -3  -5  -5   15.32    1.98
   3   5   6   99.67    6.35
  -3  -5  -6   76.38    5.16
   3   5   6   79.74    5.28
   3   5   6   81.17    5.88
  -3  -5  -6   62.39    5.36
   3   5   6  107.24    8.13
  -3  -5  -6   65.81    6.27
  -3  -5  -7  191.15   10.28
   3   5   7  198.31   10.52
   3   5   7  212.42   14.60
  -3  -5  -7  191.20   11.51
  -3  -5  -7  175.42   11.25
  -3  -5  -7  166.41   12.04
   3   5   8   10.86    3.20
  -3  -5  -8   10.08    1.67
   3   5   8   11.94    1.75
  -3  -5  -8   14.28    2.69
   3   5   8   17.20    3.42
  -3  -5  -8   14.09    2.92
  -3  -5  -8   18.16    2.89
  -3  -5  -9    9.45    2.35
   3   5   9    7.14    3.01
   3   5   9    5.75    1.33
  -3  -5  -9    5.05    1.25
  -3  -5  -9    5.14    2.06
   3   5   9    8.49    2.75
  -3  -5  -9    5.21    2.16
  -3  -5 -10   15.55    3.27
   3   5  10   21.05    5.06
  -3  -5 -10   15.17    1.99
   3   5  10   22.64    2.21
  -3  -5 -10   20.26    3.45
   3   5  10   21.68    4.06
  -3  -5 -10   10.81    2.92
   3   5  11  132.69   12.98
  -3  -5 -11  121.75    9.33
   3   5  11  150.27   11.32
  -3  -5 -12   15.81    3.91
   3   5  12   26.00    6.13
  -3  -5 -12   30.70    4.47
   3   5  12   27.62    5.01
   3   6  -7    9.27    2.21
  -3  -6   6   64.57    5.36
  -3  -6   6   51.38    6.86
   3   6  -6   54.23    4.96
  -3  -6   5   29.91    4.21
  -3  -6   5   31.74    4.83
  -3  -6   5   29.81    4.99
   3   6  -5   35.23    3.72
  -3  -6   5   35.62    3.65
  -3  -6   4   44.00    4.81
  -3  -6   4   47.17    5.74
  -3  -6   4   45.53    5.74
   3   6  -4   47.00    4.36
  -3  -6   4   56.00    4.27
  -3  -6   4   49.87    4.40
  -3  -6   3  100.65    7.28
  -3  -6   3   92.42    8.21
   3   6  -3   98.17    6.97
  -3  -6   3   88.25    8.20
  -3  -6   3  108.72    6.39
  -3  -6   3  108.74    6.74
  -3  -6   2    6.17    1.61
  -3  -6   2    5.00    1.92
   3   6  -2    9.78    1.89
  -3  -6   2    5.08    1.94
  -3  -6   2    8.75    1.33
  -3  -6   2    7.83    1.44
  -3  -6   1   11.80    1.86
  -3  -6   1   12.07    2.43
   3   6  -1   20.96    3.17
   3   6  -1   20.25    2.48
   3   6  -1   21.96    3.86
  -3  -6   1    8.82    2.24
  -3  -6   1   14.04    1.40
  -3  -6   1    8.64    1.65
  -3  -6   1   12.20    1.59
   3   6   0   26.82    2.94
   3   6   0   25.89    3.80
  -3  -6   0   25.47    2.55
  -3  -6   0   22.58    3.13
   3   6   0   28.39    3.33
  -3  -6   0   25.64    3.46
   3   6   1   19.59    3.09
  -3  -6  -1   21.44    2.95
   3   6   1   22.95    2.80
  -3  -6  -1   21.11    2.80
  -3  -6  -1   19.29    2.75
   3   6   2    8.58    1.68
  -3  -6  -2    5.74    1.67
   3   6   2    7.55    1.94
  -3  -6  -2    3.68    1.24
   3   6   2    8.88    1.68
   3   6   2    4.17    1.60
   3   6   2    8.66    1.78
  -3  -6  -2    3.68    1.28
   3   6   2   11.51    1.81
  -3  -6  -2    3.42    1.33
   3   6   3   54.49    4.33
   3   6   3   53.92    4.80
  -3  -6  -3   47.28    4.53
   3   6   3   54.42    4.76
   3   6   3   54.09    4.37
  -3  -6  -3   51.43    4.12
   3   6   3   50.68    4.41
   3   6   3   64.56    4.20
  -3  -6  -3   48.97    4.51
  -3  -6  -3   49.68    4.79
  -3  -6  -4    5.04    1.40
   3   6   4   11.85    2.11
   3   6   4   10.33    1.89
  -3  -6  -4    7.80    1.50
   3   6   4   11.72    1.83
   3   6   4   11.90    1.94
   3   6   4   13.17    2.17
   3   6   4   17.76    2.01
   3   6   4   13.27    2.61
  -3  -6  -4    5.66    1.73
  -3  -6  -4    4.96    1.58
   3   6   5   10.66    2.09
   3   6   5    7.96    1.54
  -3  -6  -5   12.80    1.82
   3   6   5    8.92    2.32
  -3  -6  -5   13.34    2.38
   3   6   5   11.39    2.70
  -3  -6  -5   11.77    1.93
   3   6   5    9.87    1.64
  -3  -6  -6  179.97    9.57
   3   6   6  174.16    9.64
  -3  -6  -6  174.30   10.50
   3   6   6  212.98   12.77
  -3  -6  -6  127.55    9.48
  -3  -6  -6  163.33   10.85
  -3  -6  -7 1049.52   47.82
   3   6   7 1088.34   48.06
  -3  -6  -7 1094.16   49.35
  -3  -6  -7  846.45   48.54
   3   6   7 1149.94   51.74
  -3  -6  -7  903.12   49.70
   3   6   8  116.61    7.50
   3   6   8  135.44   11.58
  -3  -6  -8  119.49    8.63
  -3  -6  -8  109.18    8.56
  -3  -6  -8  113.77    9.22
   3   6   9   23.16    4.97
   3   6   9   21.75    2.44
  -3  -6  -9   22.26    2.41
  -3  -6  -9   25.80    3.51
   3   6   9   33.06    4.86
  -3  -6  -9   20.91    3.46
  -3  -6  -9   18.43    3.48
  -3  -6 -10    0.49    1.50
   3   6  10    0.43    2.49
  -3  -6 -10    0.35    0.80
   3   6  10    0.74    0.88
  -3  -6 -10    1.00    1.74
   3   6  10    0.80    0.98
   3   6  10    0.61    2.00
  -3  -6 -10   -0.80    1.68
   3   6  11  120.53   12.21
  -3  -6 -11  120.35    8.91
   3   6  11  134.14   10.83
  -3  -6 -11   92.51    8.93
  -3  -6 -11   83.57    8.63
  -3  -6 -12    5.00    2.68
   3   6  12    8.00    4.17
  -3  -6 -12    4.47    2.46
   3   6  12    8.95    3.56
  -3  -7   6   20.11    4.33
   3   7  -6   14.55    2.67
  -3  -7   5   16.19    3.91
   3   7  -5   17.94    2.86
  -3  -7   5   15.94    3.85
  -3  -7   4   43.86    4.38
  -3  -7   4   46.14    5.80
  -3  -7   4   55.30    4.36
  -3  -7   4   38.60    5.40
   3   7  -4   44.24    4.50
  -3  -7   3   25.07    2.93
  -3  -7   3   21.95    3.93
   3   7  -3   23.50    3.15
  -3  -7   3   18.87    3.68
  -3  -7   3   24.60    2.61
  -3  -7   2   49.99    3.90
  -3  -7   2   42.67    5.10
  -3  -7   2   41.47    5.13
   3   7  -2   40.64    4.18
  -3  -7   2   51.01    3.61
  -3  -7   2   46.86    4.23
  -3  -7   2   46.06    3.56
  -3  -7   1   58.05    3.89
  -3  -7   1   49.82    5.36
  -3  -7   1   40.23    4.96
   3   7  -1   48.73    4.55
  -3  -7   1   49.91    3.30
  -3  -7   1   55.56    4.73
  -3  -7   1   50.83    3.58
   3   7   0  151.53    9.49
   3   7   0  194.92   12.08
  -3  -7   0  144.61   10.21
  -3  -7   0  142.65   10.03
   3   7   0  207.37   10.40
  -3  -7   0  154.97    9.27
  -3  -7   0  138.77    9.38
  -3  -7   0  130.99    7.75
   3   7   1   94.64    7.17
  -3  -7  -1   64.89    6.18
   3   7   1   89.99    5.91
  -3  -7  -1   75.69    5.55
  -3  -7  -1   72.19    5.98
   3   7   2    2.12    1.43
   3   7   2    3.73    1.34
   3   7   2    5.34    1.61
   3   7   2    3.19    1.35
  -3  -7  -2    2.27    1.30
  -3  -7  -2    1.92    1.24
  -3  -7  -2    2.29    1.05
   3   7   3   11.03    2.00
   3   7   3   11.45    2.27
   3   7   3    8.51    1.80
  -3  -7  -3   12.65    2.34
  -3  -7  -3   13.52    2.07
  -3  -7  -3   12.00    2.28
   3   7   3   12.04    1.95
   3   7   4   35.05    3.32
  -3  -7  -4   19.22    3.02
   3   7   4   30.72    3.57
   3   7   4   37.49    3.52
   3   7   4   31.89    2.63
  -3  -7  -4   18.58    2.77
   3   7   4   37.44    3.34
  -3  -7  -5   26.56    3.39
   3   7   5   28.99    3.08
   3   7   5   25.58    3.32
  -3  -7  -5   30.16    3.55
   3   7   5   24.91    3.89
   3   7   5   31.86    3.14
  -3  -7  -5   29.94    3.49
   3   7   6   33.43    3.27
  -3  -7  -6   30.92    3.78
   3   7   6   29.25    4.11
   3   7   6   32.47    4.55
  -3  -7  -6   29.37    3.51
   3   7   6   40.25    3.57
  -3  -7  -6   34.11    3.87
   3   7   7   29.47    2.97
   3   7   7   34.56    5.03
  -3  -7  -7   30.64    3.72
  -3  -7  -7   21.87    3.18
  -3  -7  -7   20.90    3.30
   3   7   8   34.78    3.29
   3   7   8   34.92    5.54
  -3  -7  -8   36.44    4.17
   3   7   8   35.02    5.06
  -3  -7  -8   31.42    4.17
  -3  -7  -8   26.79    3.74
  -3  -7  -9    0.21    1.25
   3   7   9   -0.39    2.54
   3   7   9    0.66    1.00
  -3  -7  -9    0.93    1.48
  -3  -7  -9   -0.24    1.31
   3   7  10  102.71    6.49
   3   7  10  110.49   11.01
  -3  -7 -10  110.33    8.26
  -3  -7 -10   83.26    7.95
   3   7  10  110.97    9.79
  -3  -7 -10   83.77    8.15
  -3  -7 -11    2.46    2.07
   3   7  11    2.35    3.16
  -3  -7 -11    3.66    2.30
   3   7  11    5.82    2.96
  -3  -7 -11    3.96    2.38
  -3  -7 -12    2.15    2.20
  -3  -7 -12   -0.23    2.03
   3   7  12    2.60    3.65
  -3  -8   5    1.25    2.15
   3   8  -5    0.36    1.45
  -3  -8   4   11.35    3.34
  -3  -8   4   10.67    3.05
   3   8  -4    5.08    1.98
  -3  -8   3    5.25    2.46
   3   8  -3    2.90    1.56
  -3  -8   3    4.50    2.35
  -3  -8   2   36.07    4.69
  -3  -8   2   35.60    4.84
   3   8  -2   32.00    3.82
  -3  -8   2   32.32    2.88
  -3  -8   1   31.29    4.15
  -3  -8   1   36.07    4.72
   3   8  -1   31.86    3.70
  -3  -8   1   30.83    2.39
  -3  -8   1   24.78    2.49
  -3  -8   1   34.95    3.10
  -3  -8   1   32.38    3.47
  -3  -8   1   34.45    2.41
   3   8   0   66.77    5.58
   3   8   0   82.45    7.30
  -3  -8   0   58.63    5.76
  -3  -8   0   62.36    6.21
  -3  -8   0   75.08    4.55
  -3  -8   0   64.33    5.40
  -3  -8   0   60.97    3.76
   3   8   1   58.55    5.87
  -3  -8  -1   66.21    6.15
   3   8   1   54.27    4.41
  -3  -8  -1   62.34    4.07
  -3  -8  -1   56.67    5.12
   3   8   2   22.38    2.97
   3   8   2   25.94    3.60
  -3  -8  -2   22.16    3.40
   3   8   2   28.03    2.88
  -3  -8  -2   18.77    2.18
   3   8   2   30.05    3.56
  -3  -8  -2   17.72    2.84
   3   8   3  227.73   13.49
   3   8   3  226.53   13.23
   3   8   3  219.65   12.43
  -3  -8  -3  208.80   13.80
  -3  -8  -3  218.58   12.28
  -3  -8  -4    1.53    1.47
   3   8   4    3.09    1.39
   3   8   4    2.57    1.27
   3   8   4    3.04    1.47
   3   8   4    3.14    1.73
   3   8   4    2.21    0.67
  -3  -8  -4    3.21    1.15
   3   8   5   36.25    3.92
  -3  -8  -5   34.34    4.03
   3   8   5   30.60    3.34
   3   8   5   30.78    3.45
   3   8   5   31.84    3.22
   3   8   5   33.93    4.41
  -3  -8  -5   29.67    3.36
   3   8   5   46.32    4.09
   3   8   6  119.44    8.28
  -3  -8  -6  132.45    9.18
   3   8   6  138.98    9.40
   3   8   6  150.62    8.80
   3   8   6  143.21   10.46
  -3  -8  -6  118.95    8.67
   3   8   7    4.51    1.65
  -3  -8  -7    1.72    1.30
   3   8   7    3.78    1.44
   3   8   7    4.99    2.52
  -3  -8  -7    4.19    1.78
  -3  -8  -7    1.86    1.44
  -3  -8  -8    8.00    2.29
   3   8   8    8.48    3.11
   3   8   8   12.71    2.08
  -3  -8  -8    7.26    2.33
  -3  -8  -8    8.57    2.33
   3   8   9   25.38    5.27
   3   8   9   23.55    2.77
  -3  -8  -9   22.25    3.51
   3   8   9   25.38    4.90
  -3  -8  -9   18.25    3.36
  -3  -8  -9   20.80    3.51
   3   8  10   60.51    4.76
   3   8  10   55.08    7.84
  -3  -8 -10   66.94    6.23
   3   8  10   71.42    5.45
  -3  -8 -10   55.45    6.14
  -3  -8 -10   52.00    5.97
  -3  -8 -11   21.19    3.98
   3   8  11   24.75    5.74
  -3  -8 -11   31.37    4.30
   3   8  11   30.57    5.40
  -3  -8 -11   17.93    3.80
  -3  -8 -12   26.29    4.62
  -3  -8 -12   39.84    5.01
   3   8  12   41.15    7.46
  -3  -9   4   34.42    5.32
  -3  -9   3    0.53    1.87
   3   9  -3   -0.57    1.50
  -3  -9   3    1.19    2.13
  -3  -9   2   11.05    2.92
   3   9  -2    8.11    2.33
  -3  -9   2   13.81    3.39
   3   9  -1   61.37    5.65
  -3  -9   1   66.91    6.33
  -3  -9   1   60.52    6.59
   3   9   0   63.32    5.70
  -3  -9   0   60.96    6.56
  -3  -9   0   66.00    5.30
  -3  -9  -1    7.00    2.29
   3   9   2   37.26    4.01
  -3  -9  -2   34.31    4.53
  -3  -9  -2   29.07    2.11
   3   9   3  156.50   10.10
   3   9   3  168.82   10.47
  -3  -9  -3  146.06   10.73
  -3  -9  -3  137.80    8.24
   3   9   4   34.83    3.88
   3   9   4   28.52    3.69
  -3  -9  -4   34.79    4.38
   3   9   4   41.72    4.15
  -3  -9  -4   30.14    2.94
   3   9   5  114.31    8.03
   3   9   5  115.51    8.15
  -3  -9  -5  114.27    8.75
  -3  -9  -5   99.66    7.19
   3   9   6  570.68   31.07
  -3  -9  -6  604.83   32.45
   3   9   6  661.57   31.93
   3   9   6  614.05   31.12
   3   9   6  634.47   33.30
  -3  -9  -6  588.13   31.17
   3   9   7  123.29    8.27
  -3  -9  -7  134.23    9.29
  -3  -9  -7  118.68    8.67
   3   9   8    8.60    3.32
   3   9   8   12.37    2.17
  -3  -9  -8   13.99    2.99
  -3  -9  -8   12.08    2.62
  -3  -9  -9   11.04    2.85
   3   9   9   11.43    3.98
   3   9   9   13.36    2.28
  -3  -9  -9   15.41    3.20
  -3  -9  -9   11.86    2.81
  -3  -9 -10   15.37    3.37
   3   9  10    9.65    3.92
  -3  -9 -10   19.73    3.59
   3   9  10   13.54    2.67
   3   9  10   11.38    3.91
  -3  -9 -10   13.62    3.11
  -3  -9 -11    1.38    1.97
   3   9  11    2.22    3.06
  -3  -9 -11    1.37    2.26
  -3  -9 -11    1.39    2.14
   3   9  12   28.56    6.37
  -3  -9 -12   20.05    4.11
   3  10  -1  634.62   33.32
  -3 -10   1  671.51   35.85
   3  10   0  140.51   10.22
  -3 -10   0  168.45   12.05
  -3 -10  -1    3.21    2.23
   3  10   2   43.52    4.75
  -3 -10  -2   54.40    5.91
   3  10   3   60.74    5.60
  -3 -10  -3   58.58    6.23
   3  10   4    4.87    1.95
  -3 -10  -4    7.10    2.46
  -3 -10  -4    4.46    1.04
   3  10   5   12.98    2.56
  -3 -10  -5   12.08    2.92
  -3 -10  -5   10.78    1.74
   3  10   6  101.02    7.28
  -3 -10  -6   89.85    7.83
  -3 -10  -6   82.26    6.23
   3  10   7   14.55    3.71
   3  10   7   14.89    2.65
  -3 -10  -7   13.93    2.49
   3  10   8    8.27    3.42
   3  10   8    8.71    2.14
  -3 -10  -8    7.01    2.12
   3  10   9   44.87    6.54
   3  10   9   51.55    4.59
  -3 -10  -9   43.56    5.17
  -3 -10  -9   37.48    4.78
  -3 -10 -10   -1.40    1.84
   3  10  10   -0.39    2.77
  -3 -10 -10    0.90    2.08
   3  10  10    0.54    1.61
  -3 -10 -10   -0.24    1.56
  -3 -10 -11   37.03    5.54
  -3 -10 -11   34.15    5.12
  -3 -10 -12   34.86    5.44
  -3 -11  -1   40.57    5.68
   3  11   2   42.53    4.91
  -3 -11  -2   46.22    5.81
   3  11   3   -0.20    1.49
  -3 -11  -3    0.81    1.78
   3  11   4   33.70    4.13
  -3 -11  -4   17.29    3.78
   3  11   5   66.20    5.93
  -3 -11  -5   47.35    5.99
   3  11   6   10.02    2.52
  -3 -11  -6    7.51    2.66
   3  11   7    6.11    2.14
  -3 -11  -7    6.20    1.81
   3  11   8   13.36    2.66
  -3 -11  -8    6.63    2.04
   3  11   9  101.65    7.29
   3  11   9  114.82    8.33
  -3 -11 -10    6.67    2.48
   3  11  10    6.97    2.53
  -3 -11 -11   31.75    4.78
   3  12   6   74.64    6.73
   3  12   7    8.60    2.59
   3  12   8    1.65    1.87
   4 -11  -5    1.82    1.86
   4 -11  -5    3.23    4.96
  -4  11   5    1.28    2.19
   4 -11  -4   36.23    4.85
  -4  11   4   36.62    4.21
   4 -11  -4   42.35    8.85
  -4  11   4   34.51    4.83
   4 -11  -3    8.45    2.83
   4 -11  -3   10.23    5.24
  -4  11   3   14.23   23.47
   4 -11  -2   11.61    3.25
   4 -11  -2   14.26    5.57
  -4  11   2   10.44    2.61
   4 -11  -1   95.94    9.03
   4 -11  -1  121.44   12.94
   4 -11   0    0.97    3.78
   4 -11   1    0.47    3.70
  -4  10   8   30.73    6.34
   4 -10  -6    5.93    5.63
  -4  10   6    5.51    2.16
  -4  10   6    8.77    2.93
   4 -10  -5   67.30    6.53
  -4  10   5   75.12    5.91
   4 -10  -5   83.32   11.63
  -4  10   5   83.28    6.89
  -4  10   5   84.65    7.46
   4 -10  -4    5.91    2.17
  -4  10   4    3.23    1.77
   4 -10  -4    7.61    5.00
  -4  10   4    5.99    2.08
  -4  10   4    6.49    2.64
   4 -10  -3   -0.23    1.62
   4 -10  -3   -1.64    3.83
  -4  10   3    3.93    2.08
   4 -10  -2    8.60    2.69
   4 -10  -2    9.86    5.47
  -4  10   2   11.57    2.69
  -4  10   2   17.27    3.00
   4 -10  -1   21.20    3.98
   4 -10  -1   18.39    5.86
  -4  10   1   17.80    3.08
   4 -10   0   42.04    5.68
   4 -10   0   47.24    7.57
  -4  10   0   47.40    4.91
   4 -10   1   27.17    4.76
   4 -10   1   38.31    6.88
  -4  10  -1   39.30    4.39
   4 -10   2   33.81    5.45
   4 -10   2   39.18    7.03
  -4  10  -2   48.91    4.81
   4 -10   3   25.14    5.70
  -4  10  -3   21.57    3.36
  -4   9   8    5.45    4.13
  -4   9   7   47.82    7.46
  -4   9   7   58.07    6.44
  -4   9   7   51.79    5.24
  -4   9   6   49.21    7.11
   4  -9  -6   55.48    9.83
  -4   9   6   74.38    6.22
  -4   9   6   72.87    6.87
  -4   9   5  428.29   26.59
  -4   9   5  456.85   23.64
   4  -9  -5  385.34   30.53
  -4   9   5  502.48   25.10
  -4   9   5  532.21   26.29
  -4   9   4  133.00   10.38
   4  -9  -4  111.57    9.09
   4  -9  -4  121.57   13.82
  -4   9   4  161.66    9.87
  -4   9   4  158.20   10.27
  -4   9   3   16.63    3.10
   4  -9  -3   15.32    2.99
   4  -9  -3   14.04    5.00
  -4   9   3   18.54    2.99
  -4   9   3   17.63    3.06
   4  -9  -2    6.57    2.33
   4  -9  -2    9.27    4.75
  -4   9   2    7.80    2.11
   4  -9  -1   51.18    5.76
   4  -9  -1   50.13    7.96
  -4   9   1   58.35    5.44
  -4   9   1   69.63    5.39
   4  -9   0   27.51    4.27
   4  -9   0   35.78    6.42
  -4   9   0   25.79    3.51
   4  -9   1    4.20    2.15
   4  -9   1    7.39    3.65
  -4   9  -1    4.14    1.77
   4  -9   2    7.98    2.88
   4  -9   2    7.12    3.94
  -4   9  -2    8.81    2.22
   4  -9   3   19.30    4.21
   4  -9   3   26.98    5.58
  -4   9  -3   28.67    3.51
   4  -9   4   25.57    5.47
   4  -8  -8    0.42    2.48
  -4   8   8   -0.47    3.10
  -4   8   8    1.38    2.36
  -4   8   7   36.16    6.66
  -4   8   7   57.23    6.11
   4  -8  -7   42.94    6.85
  -4   8   6   40.10    6.55
   4  -8  -6   42.96    8.74
  -4   8   6   63.18    6.14
  -4   8   6   50.64    4.87
  -4   8   5   36.59    5.78
  -4   8   5   43.92    3.76
   4  -8  -5   34.34    7.40
  -4   8   5   48.15    5.30
  -4   8   5   46.31    4.57
   4  -8  -4   71.46    6.29
  -4   8   4   86.85    7.98
   4  -8  -4   80.47   10.53
  -4   8   4  100.79    6.98
  -4   8   3    1.07    1.72
   4  -8  -3    0.87    1.25
   4  -8  -3   -0.60    2.26
   4  -8  -3    0.49    3.44
  -4   8   3    1.27    1.30
  -4   8   2  117.68    8.32
   4  -8  -2  103.11    9.33
   4  -8  -2  105.30    8.27
   4  -8  -2  115.50   11.95
  -4   8   2  133.89    8.37
  -4   8   1   17.40    2.54
   4  -8  -1   19.99    3.25
   4  -8  -1   15.99    3.43
  -4   8   1   16.73    2.69
  -4   8   1   21.71    2.81
   4  -8   0   28.80    4.05
   4  -8   0   31.27    4.07
   4  -8   0   38.52    6.31
  -4   8   0   31.01    3.59
  -4   8   0   33.27    3.20
  -4   8   0   22.89    3.33
   4  -8   1   58.38    6.16
  -4   8  -1   58.33    5.23
   4  -8   2    0.26    1.58
   4  -8   2    0.72    2.87
  -4   8  -2    0.59    1.32
   4  -8   3    2.28    2.19
   4  -8   3    1.40    2.94
  -4   8  -3    0.58    1.24
   4  -8   4   16.93    4.12
   4  -8   4   16.30    4.22
   4  -8   5   22.00    4.86
   4  -8   5   42.66    6.27
  -4   7   9   67.53    7.58
  -4   7   9   54.86    8.78
  -4   7   8    0.27    2.31
  -4   7   8    0.48    3.10
   4  -7  -8    2.30    2.80
  -4   7   8    2.13    2.27
  -4   7   7   17.17    3.41
   4  -7  -7   27.86    5.16
  -4   7   7   15.08    4.48
   4  -7  -6   95.45    7.89
  -4   7   6   92.24    7.33
  -4   7   6   96.85    9.95
   4  -7  -6   96.88    9.60
  -4   7   5   43.07    6.18
  -4   7   5   45.68    4.30
   4  -7  -5   37.78    4.37
   4  -7  -5   45.53    8.18
  -4   7   5   56.81    4.75
  -4   7   4   21.34    2.48
   4  -7  -4   22.13    2.81
  -4   7   4   19.08    4.13
   4  -7  -4   19.78    2.69
   4  -7  -4   27.22    6.40
  -4   7   4   24.04    3.03
   4  -7  -3   88.02    8.83
  -4   7   3   81.20    7.53
   4  -7  -3   80.99    6.45
   4  -7  -3   78.11    5.42
  -4   7   3  102.48    5.35
   4  -7  -3   88.44   10.32
  -4   7   3   96.37    6.83
  -4   7   3  111.57    6.85
  -4   7   2   45.40    4.83
   4  -7  -2   41.48    4.39
   4  -7  -2   49.16    6.03
  -4   7   2   50.50    3.57
   4  -7  -2   50.78    7.39
  -4   7   2   43.92    4.35
  -4   7   2   57.80    4.23
   4  -7  -1   20.72    3.67
  -4   7   1   14.77    2.53
   4  -7  -1   14.96    2.68
   4  -7  -1   17.08    4.73
  -4   7   0  235.39   13.32
   4  -7   0  247.41   14.70
   4  -7   0  256.39   14.97
   4  -7   0  286.31   18.23
  -4   7   0  242.72   13.74
  -4   7   0  217.14   14.55
   4  -7   1 1461.90   71.88
   4  -7   1 1588.57   71.40
  -4   7  -1 1328.40   70.63
  -4   7  -1 1506.20   70.42
   4  -7   2  124.68    6.52
   4  -7   2  116.16    7.95
   4  -7   2  102.95    8.82
   4  -7   2  102.67    6.67
   4  -7   2  129.75   10.67
  -4   7  -2  108.66    7.53
  -4   7  -2   96.31    7.27
  -4   7  -2  120.36    6.47
   4  -7   3    8.02    2.06
   4  -7   3    7.41    2.64
   4  -7   3    5.72    1.68
   4  -7   3   11.22    3.48
  -4   7  -3    4.64    1.52
   4  -7   4    6.76    2.85
   4  -7   4   12.06    3.75
   4  -7   4    8.98    2.43
   4  -7   5   93.07    9.44
   4  -7   5  102.20    8.54
   4  -7   6   30.25    5.47
  -4   6  10    5.00    3.06
  -4   6   9   10.34    3.47
  -4   6   9    5.47    3.70
   4  -6  -9   11.05    3.72
  -4   6   9    7.23    2.99
  -4   6   8   11.20    3.45
  -4   6   8   17.77    5.29
   4  -6  -8    7.39    3.00
  -4   6   7   93.24    8.24
  -4   6   7   81.61    9.78
   4  -6  -7   91.54    9.00
  -4   6   6  583.85   28.88
   4  -6  -6  707.47   33.76
  -4   6   6  694.47   32.81
  -4   6   6  591.61   35.48
   4  -6  -6  660.91   35.10
  -4   6   5  101.33    8.08
  -4   6   5  129.39    6.79
   4  -6  -5  108.58    8.67
  -4   6   5  109.15   10.48
  -4   6   5  137.26    8.33
   4  -6  -5  114.07   10.23
  -4   6   4   19.82    2.64
   4  -6  -4   13.75    2.68
   4  -6  -4   16.67    3.78
  -4   6   4   21.74    2.82
  -4   6   4   19.03    4.04
  -4   6   4   17.72    2.58
   4  -6  -3  106.13    9.94
  -4   6   3  105.46    9.08
   4  -6  -3   91.31    6.97
  -4   6   3  111.30    6.96
  -4   6   3  119.50    7.84
   4  -6  -3   99.06    7.17
  -4   6   3  118.43    5.77
   4  -6  -3  109.42   11.38
  -4   6   3  119.45    7.66
   4  -6  -2   23.92    2.97
  -4   6   2   28.55    3.91
  -4   6   2   29.00    3.41
   4  -6  -2   26.18    4.63
   4  -6  -2   27.43    2.65
   4  -6  -2   22.99    5.12
  -4   6   2   30.91    2.29
  -4   6   2   35.80    3.48
   4  -6  -1   17.61    2.59
   4  -6  -1   19.88    3.70
  -4   6   1   11.53    2.41
   4  -6  -1   17.68    1.78
   4  -6  -1   22.31    4.72
  -4   6   0   28.92    3.12
   4  -6   0   20.89    3.45
   4  -6   0   19.79    2.91
   4  -6   0   21.46    1.91
   4  -6   0   20.24    1.90
   4  -6   0   27.76    4.83
  -4   6   0   26.01    2.87
   4  -6   1   80.61    6.40
   4  -6   1   77.95    4.53
   4  -6   1   74.81    6.29
   4  -6   1   65.40    4.62
   4  -6   1   89.18    8.27
  -4   6  -1   69.52    5.32
  -4   6  -1   54.98    5.83
   4  -6   2   59.31    5.18
   4  -6   2   48.36    5.29
   4  -6   2   44.45    4.07
   4  -6   2   62.76    6.69
  -4   6  -2   55.18    4.48
  -4   6  -2   50.20    4.92
   4  -6   3   18.70    2.82
   4  -6   3   18.19    3.40
   4  -6   3   13.59    2.51
   4  -6   3   21.72    4.10
  -4   6  -3   15.33    2.24
  -4   6  -3   16.23    1.45
  -4   6  -3   11.68    2.24
   4  -6   4  239.33   12.83
   4  -6   4  177.58   12.76
   4  -6   4  260.42   15.59
  -4   6  -4  201.98   12.35
   4  -6   5    6.29    2.37
  -4   6  -5    5.07    1.58
   4  -6   6   38.93    5.64
   4  -6   6   30.12    4.84
   4  -6   7   72.24    7.82
   4  -6   7   44.13    6.50
   4  -6   8   -1.11    2.65
  -4   5  10   46.09    7.15
  -4   5   9   14.74    5.28
   4  -5  -9   13.44    3.93
  -4   5   9   12.86    4.04
   4  -5  -8   13.60    3.70
  -4   5   8   14.61    3.77
  -4   5   7    7.61    3.63
   4  -5  -7   16.35    3.94
  -4   5   7   11.91    3.22
   4  -5  -7   19.00    1.53
  -4   5   6   67.78    7.08
  -4   5   6   87.48    4.54
  -4   5   6   64.16    8.59
   4  -5  -6   73.29    7.74
  -4   5   5   93.50    6.07
  -4   5   5   65.25    7.95
  -4   5   5   69.19    6.52
  -4   5   5   83.47    4.67
   4  -5  -5   78.24    7.25
   4  -5  -5   73.52    9.93
   4  -5  -5   75.88    7.64
  -4   5   4   12.31    1.44
  -4   5   4   11.24    2.17
   4  -5  -4    6.30    2.14
   4  -5  -4    7.85    2.70
  -4   5   4   10.32    1.90
  -4   5   4    7.59    2.76
   4  -5  -3  248.71   14.77
  -4   5   3  238.30   16.47
  -4   5   3  270.59   14.27
  -4   5   3  245.07   14.24
   4  -5  -3  273.32   18.00
  -4   5   3  306.72   14.87
  -4   5   2   20.99    3.52
   4  -5  -2   24.42    2.68
  -4   5   2   26.30    2.95
   4  -5  -2   26.86    4.49
   4  -5  -2   24.84    2.94
  -4   5   2   26.17    1.72
  -4   5   2   31.91    3.08
  -4   5   1    2.97    1.54
   4  -5  -1    5.03    1.36
   4  -5   0  129.50    8.42
   4  -5   0  134.23    9.66
  -4   5   0  129.48    8.75
   4  -5   0  128.18    7.51
   4  -5   0  141.86   11.18
  -4   5   0  144.12    8.35
  -4   5  -1   86.76    6.20
   4  -5   1   89.73    5.51
   4  -5   1   94.25    7.14
   4  -5   1   73.12    6.24
   4  -5   1  101.81    8.62
  -4   5  -1   75.93    7.14
  -4   5  -1   86.74    5.98
   4  -5   2   12.41    2.41
   4  -5   2   12.23    2.49
   4  -5   2    8.97    1.91
   4  -5   2   12.33    1.79
   4  -5   2   14.69    3.35
  -4   5  -2    7.18    2.15
   4  -5   3   70.09    5.42
   4  -5   3   57.34    5.23
   4  -5   3   60.85    4.44
   4  -5   3   76.04    6.89
   4  -5   4   22.58    2.96
   4  -5   4   17.65    3.13
   4  -5   4   22.34    3.77
  -4   5  -4   17.30    1.47
  -4   5  -4   12.47    2.43
   4  -5   5   11.53    2.37
   4  -5   5   10.42    2.79
   4  -5   5    9.67    2.93
  -4   5  -5   12.51    2.45
   4  -5   6  135.47    8.75
   4  -5   6   99.69    9.43
   4  -5   6  142.11   10.63
  -4   5  -6  107.39    8.16
   4  -5   7  364.14   23.11
  -4   5  -7  337.11   20.19
   4  -5   8   50.22    6.33
   4  -5   8   38.76    6.16
   4  -5   9    7.47    3.41
   4  -4  -9    0.36    2.64
  -4   4   9    1.65    2.99
  -4   4   9   -0.39    2.25
  -4   4   8   29.26    6.30
   4  -4  -8   24.22    4.61
  -4   4   8   30.39    5.29
   4  -4  -8   29.54    2.64
  -4   4   7   41.15    6.98
  -4   4   7   52.21    6.35
   4  -4  -7   50.87    3.37
   4  -4  -7   57.46    6.44
  -4   4   6   21.52    4.89
  -4   4   6   38.51    3.49
  -4   4   6   22.55    4.24
   4  -4  -6   32.49    2.09
   4  -4  -6   31.20    4.65
   4  -4  -5    6.51    2.34
  -4   4   5    7.89    1.64
  -4   4   5    6.63    2.99
  -4   4   5    5.31    0.83
  -4   4   5    2.40    1.83
   4  -4  -5    7.32    2.62
   4  -4  -4    5.80    2.27
  -4   4   4   17.10    2.06
  -4   4   4   11.97    3.27
  -4   4   4   14.71    1.45
  -4   4   4   11.87    2.42
   4  -4  -4    5.94    2.27
   4  -4  -4   10.74    4.17
  -4   4   3   77.83    7.85
  -4   4   3   97.96    5.95
   4  -4  -3   92.45    9.07
  -4   4   3   77.61    6.41
  -4   4   3   99.11    5.43
   4  -4  -3   86.87    7.14
   4  -4  -3   89.96    5.98
   4  -4  -3   96.53    9.83
   4  -4  -3   90.04    7.82
  -4   4   3  101.87    7.64
  -4   4   2  239.00   14.83
  -4   4   2  269.26   12.74
   4  -4  -2  243.09   15.76
  -4   4   2  249.40   13.09
   4  -4  -2  254.22   13.60
  -4   4   2  234.41   14.61
   4  -4  -2  241.74   16.76
  -4   4   2  272.05   14.59
  -4   4   1   60.14    5.40
   4  -4  -1   49.34    3.85
   4  -4  -1   55.86    5.90
   4  -4  -1   55.22    4.38
   4  -4  -1   52.99    4.08
  -4   4   1   49.47    5.05
   4  -4  -1   54.13    6.42
  -4   4   1   66.45    5.63
  -4   4   0  169.59   11.34
   4  -4   0  209.59   12.76
   4  -4   0  191.15   10.74
   4  -4   0  210.22   10.67
   4  -4   0  188.41   10.49
  -4   4   0  166.83   11.47
  -4   4   0  212.24   12.68
  -4   4  -1  115.10    7.95
   4  -4   1  139.58    9.16
   4  -4   1  118.08    7.92
   4  -4   1  141.84    7.63
  -4   4  -1  103.98    8.02
   4  -4   1  127.24    7.43
   4  -4   2    3.59    1.54
   4  -4   2    6.85    1.74
  -4   4  -2    6.43    1.68
   4  -4   2    6.00    1.24
  -4   4  -2    4.57    1.77
   4  -4   3   38.13    3.82
   4  -4   3   25.10    3.48
   4  -4   3   33.93    2.93
  -4   4  -3   30.88    4.04
   4  -4   4   39.56    3.96
   4  -4   4   31.73    4.13
   4  -4   4   29.37    2.68
   4  -4   4   38.95    4.68
   4  -4   5   27.65    3.46
   4  -4   5   19.89    3.69
   4  -4   5   22.03    2.34
   4  -4   5   27.38    4.11
  -4   4  -5   31.92    3.84
  -4   4  -5   29.84    1.94
   4  -4   6   10.76    2.35
   4  -4   6    7.67    2.72
   4  -4   6   11.81    3.00
  -4   4  -6    9.36    2.23
   4  -4   7   25.01    4.75
   4  -4   7   35.57    5.00
  -4   4  -7   26.45    3.75
   4  -4   8    4.52    2.66
   4  -4   8    9.28    3.14
  -4   4  -8    6.90    2.11
   4  -4   9   21.19    4.97
  -4   3   9   52.02    7.34
   4  -3  -9   49.49    6.86
  -4   3   8   32.06    6.54
  -4   3   8   26.32    5.02
   4  -3  -8   30.53    2.94
   4  -3  -8   29.43    5.01
  -4   3   7  906.49   40.49
  -4   3   7  809.87   36.90
   4  -3  -7  622.17   29.97
   4  -3  -7  562.40   30.31
   4  -3  -7  658.38   35.00
  -4   3   6  193.91   16.32
  -4   3   6  201.16   14.91
   4  -3  -6  224.98   11.30
   4  -3  -6  215.67   12.11
   4  -3  -6  211.73   14.89
  -4   3   5    9.81    3.52
   4  -3  -5    7.53    2.41
  -4   3   5   14.51    1.90
  -4   3   5   10.61    2.80
  -4   3   5   14.20    1.11
   4  -3  -5    9.85    1.65
   4  -3  -5   11.00    1.06
   4  -3  -4    4.68    1.89
  -4   3   4    7.91    1.96
  -4   3   4   11.65    1.56
  -4   3   4    3.99    2.42
  -4   3   4    9.82    1.05
  -4   3   4    8.73    2.16
   4  -3  -4    6.84    2.29
   4  -3  -4    3.67    2.99
   4  -3  -4    3.68    1.13
  -4   3   3   56.92    3.72
  -4   3   3   49.54    5.84
   4  -3  -3   52.05    6.48
  -4   3   3   42.28    4.45
  -4   3   3   55.59    3.38
   4  -3  -3   50.92    5.25
   4  -3  -3   42.24    6.38
   4  -3  -3   48.40    3.80
  -4   3   3   50.60    4.90
   4  -3  -3   47.07    4.96
  -4   3   2  132.42   10.27
  -4   3   2  150.26    7.97
  -4   3   2  145.87    9.16
   4  -3  -2  145.11   11.19
  -4   3   2  160.59    7.94
   4  -3  -2  139.01    9.46
   4  -3  -2  133.90    8.20
   4  -3  -2  132.67   11.46
   4  -3  -2  144.36   10.05
  -4   3   2  156.08    9.78
  -4   3   1   19.51    2.35
   4  -3  -1   13.15    3.05
  -4   3   1   16.86    2.83
   4  -3  -1   12.60    1.45
  -4   3   1   20.97    1.92
   4  -3  -1   14.47    2.30
   4  -3  -1   15.39    3.22
  -4   3   1   17.72    2.61
  -4   3   0   21.17    2.95
   4  -3   0   26.28    3.55
   4  -3   0   20.00    1.99
   4  -3   0   19.31    2.31
   4  -3   0   19.03    2.06
  -4   3   0   16.02    2.57
   4  -3   0   20.58    3.53
  -4   3   0   22.47    3.00
  -4   3  -1   65.57    5.01
   4  -3   1   51.64    4.91
   4  -3   1   48.68    3.97
   4  -3   1   54.68    4.14
  -4   3  -1   48.80    4.51
   4  -3   1   58.57    5.62
   4  -3   1   47.18    3.68
   4  -3   2  107.38    7.16
  -4   3  -2   94.88    6.57
   4  -3   2  104.61    7.71
  -4   3  -2   83.79    6.39
   4  -3   2   84.82    5.56
  -4   3  -2   87.92    7.72
  -4   3  -3  142.44    9.30
   4  -3   3  154.91    8.50
  -4   3  -3  138.92   10.55
   4  -3   4    2.18    1.31
   4  -3   4    3.73    1.50
   4  -3   4    3.78    1.01
  -4   3  -4    3.47    1.60
   4  -3   5   67.99    5.50
   4  -3   5   58.24    6.30
   4  -3   5   61.81    4.13
  -4   3  -5   57.00    5.68
  -4   3  -5   63.57    4.15
   4  -3   6  120.70   10.59
   4  -3   6  135.74    7.44
  -4   3  -6  122.03    9.49
  -4   3  -6  134.76    7.12
   4  -3   7    6.43    3.02
   4  -3   7    7.88    2.59
  -4   3  -7    5.84    2.03
   4  -3   8   28.58    5.36
   4  -3   8   33.63    4.73
  -4   3  -8   22.30    3.66
   4  -3   9   19.49    4.80
   4  -3   9   21.41    4.18
  -4   3  -9   10.60    2.81
   4  -3  10   36.24    6.62
  -4   3 -10   49.79    5.63
  -4   2   9   33.16    6.90
  -4   2   9   29.78    5.75
   4  -2  -9   37.86    3.75
   4  -2  -9   38.86    6.08
  -4   2   8   47.35    6.84
  -4   2   8   49.97    8.04
   4  -2  -8   61.04    7.06
  -4   2   7   24.44    4.58
   4  -2  -7   28.37    2.68
   4  -2  -7   27.54    4.50
  -4   2   6   88.22    8.54
   4  -2  -6   99.06    6.01
   4  -2  -6   86.84    8.10
  -4   2   5   11.92    3.58
   4  -2  -5   12.26    2.81
  -4   2   5   17.91    1.24
  -4   2   5   13.40    3.19
   4  -2  -5   13.49    1.88
  -4   2   4  138.43    6.88
  -4   2   4  107.37    9.95
  -4   2   4   99.89    8.51
   4  -2  -4  112.83    9.39
  -4   2   4  120.21    6.10
   4  -2  -4  109.24    6.85
  -4   2   4  100.15    9.27
   4  -2  -4  110.81    8.56
  -4   2   4  113.69    8.06
  -4   2   3    2.73    1.24
   4  -2  -3    5.06    1.58
  -4   2   3    4.02    0.87
  -4   2   3    2.40    1.95
  -4   2   3    1.80    1.35
   4  -2  -3    4.51    1.96
  -4   2   3    3.45    0.76
  -4   2   3    1.90    1.67
   4  -2  -3    7.14    3.06
   4  -2  -3    4.63    1.08
  -4   2   2  100.52    8.72
  -4   2   2  123.59    6.20
   4  -2  -2  115.89    8.34
  -4   2   2  125.54    6.43
  -4   2   2  108.78    7.81
  -4   2   2  102.92    8.39
   4  -2  -2  109.97    9.75
  -4   2   2  113.26    7.81
   4  -2  -2  112.23    6.73
   4  -2  -2  106.02    7.83
  -4   2   1  284.40   16.36
  -4   2   1  294.05   17.52
   4  -2  -1  330.11   18.56
   4  -2  -1  317.89   16.88
  -4   2   1  325.49   15.23
  -4   2   1  273.89   16.96
   4  -2  -1  295.90   18.51
  -4   2   1  307.53   16.57
   4  -2  -1  333.31   17.31
   4  -2   0   50.06    3.16
   4  -2   0   59.99    5.59
  -4   2   0   47.48    4.69
   4  -2   0   51.89    4.32
  -4   2   0   56.00    3.66
  -4   2   0   53.97    3.02
   4  -2   0   48.73    5.27
   4  -2   0   53.28    3.76
  -4   2   0   53.01    4.42
  -4   2  -1   28.68    3.27
   4  -2   1   28.98    3.53
   4  -2   1   29.63    2.49
   4  -2   1   29.37    2.99
  -4   2  -1   29.36    2.50
  -4   2  -1   26.47    2.15
   4  -2   1   30.68    3.77
   4  -2   1   29.15    2.49
  -4   2  -1   35.12    3.51
   4  -2   2   92.83    6.49
  -4   2  -2   77.10    5.88
  -4   2  -2   77.82    5.04
   4  -2   2   85.58    6.54
   4  -2   2   76.82    4.87
  -4   2  -2   66.95    6.78
   4  -2   3  263.80   13.43
  -4   2  -3  206.79   11.75
   4  -2   3  261.92   13.90
   4  -2   3  218.19   11.47
  -4   2  -3  198.35   13.99
   4  -2   4   58.10    4.81
  -4   2  -4   50.42    3.87
   4  -2   4   47.08    3.43
   4  -2   4   55.82    5.16
  -4   2  -4   52.05    4.40
  -4   2  -4   46.61    5.26
   4  -2   5  273.82   14.81
   4  -2   5  223.75   15.79
   4  -2   5  294.73   15.61
   4  -2   5  249.14   12.72
  -4   2  -5  227.91   15.25
  -4   2  -5  246.07   13.36
   4  -2   5  303.67   17.53
   4  -2   6 1015.89   46.90
   4  -2   6  872.44   50.05
   4  -2   6  940.99   44.15
  -4   2  -6  906.32   47.46
  -4   2  -6  985.62   44.75
   4  -2   7   64.07    7.39
   4  -2   7   65.44    3.86
  -4   2  -7   63.32    4.17
  -4   2  -7   53.18    5.82
   4  -2   8    7.29    3.06
  -4   2  -8    7.21    2.33
   4  -2   9    9.98    3.72
  -4   2  -9    7.28    2.31
   4  -2  10   40.91    7.19
   4  -2  10   49.54    6.15
  -4   2 -10   52.52    5.99
  -4   2 -11    6.65    2.65
  -4   1   9   20.90    5.05
  -4   1   9   19.59    5.52
  -4   1   8  102.28   10.66
  -4   1   8   94.67   11.16
  -4   1   7   26.57    5.59
  -4   1   7   32.09    5.40
   4  -1  -7   44.88    3.32
   4  -1  -7   46.20    5.72
  -4   1   6    1.88    1.92
  -4   1   6    4.29    2.69
   4  -1  -6    6.38    2.44
   4  -1  -6    5.40    1.21
  -4   1   5   99.69    4.96
  -4   1   5   77.58    7.92
   4  -1  -5   86.72    5.71
   4  -1  -5   96.56    7.90
  -4   1   4   74.74    7.12
   4  -1  -4   97.83    8.49
  -4   1   4   86.15    4.68
  -4   1   4   65.29    7.36
   4  -1  -4   85.22    5.36
   4  -1  -4   93.02    7.18
  -4   1   3   54.47    4.53
  -4   1   3   46.79    5.77
   4  -1  -3   67.54    7.21
  -4   1   3   43.82    4.91
   4  -1  -3   58.27    5.85
   4  -1  -3   56.78    3.42
  -4   1   3   52.96    3.34
  -4   1   3   47.99    5.47
   4  -1  -3   55.21    6.66
   4  -1  -3   55.11    4.98
  -4   1   2  325.76   14.16
   4  -1  -2  328.86   18.96
  -4   1   2  291.81   17.81
   4  -1  -2  291.72   14.56
   4  -1  -2  331.00   17.64
  -4   1   2  318.47   14.61
  -4   1   2  274.61   16.48
  -4   1   2  284.11   17.16
   4  -1  -2  311.20   18.90
   4  -1  -2  276.97   13.89
   4  -1  -2  295.11   16.20
  -4   1   2  291.69   15.78
  -4   1   1 5528.34  201.70
  -4   1   1 4676.97  199.76
  -4   1   1 4279.03  197.08
   4  -1  -1 6547.68  201.24
   4  -1  -1 3980.63  196.23
  -4   1   1 4966.96  200.39
   4  -1  -1 6214.43  203.55
   4  -1  -1 4503.76  198.96
  -4   1   1 3827.35  198.10
  -4   1   0  340.56   19.18
   4  -1   0  343.66   18.61
  -4   1   0  375.04   17.39
  -4   1   0  299.28   18.35
   4  -1   0  357.37   19.96
  -4   1   0  376.66   16.77
  -4   1   0  341.90   18.02
  -4   1  -1   14.60    2.37
   4  -1   1   13.51    2.03
   4  -1   1   14.22    2.45
  -4   1  -1   13.38    1.54
  -4   1  -1   11.21    1.86
  -4   1  -1   13.09    1.39
   4  -1   1   14.78    2.47
  -4   1  -1   16.23    2.07
  -4   1  -2   27.66    3.12
   4  -1   2   24.64    3.15
  -4   1  -2   29.26    2.47
  -4   1  -2   26.68    2.30
   4  -1   2   26.56    3.14
  -4   1  -2   24.38    2.69
  -4   1  -2   25.93    3.88
   4  -1   3  177.34   10.81
   4  -1   3  192.19   11.06
  -4   1  -3  160.14   11.91
   4  -1   4  165.50    9.58
  -4   1  -4  138.63    8.21
   4  -1   4  157.18    9.63
   4  -1   4  145.88    7.86
  -4   1  -4  122.26   10.09
   4  -1   5   46.11    4.38
  -4   1  -5   48.02    3.71
   4  -1   5   50.11    4.68
  -4   1  -5   37.45    4.74
   4  -1   5   44.44    3.08
   4  -1   5   51.20    5.92
  -4   1  -5   40.86    3.77
  -4   1  -6  137.68    8.14
   4  -1   6  115.60   10.47
   4  -1   6  154.70    9.75
   4  -1   6  138.73    7.26
  -4   1  -6  118.98    9.76
  -4   1  -6  134.31    8.17
   4  -1   6  150.80   11.43
   4  -1   7   33.02    5.34
   4  -1   7   40.32    4.50
   4  -1   7   37.40    2.56
  -4   1  -7   33.83    4.43
  -4   1  -7   38.59    3.29
   4  -1   8    8.38    3.26
   4  -1   8    5.93    2.22
  -4   1  -8    4.60    2.05
   4  -1   9   33.48    6.15
   4  -1   9   47.18    5.36
  -4   1  -9   29.94    4.65
   4  -1  10    9.59    3.87
  -4   1 -10    4.54    2.29
  -4   1 -11   32.83    4.98
  -4   0   9   29.99    6.25
   4   0  -9   24.59    5.00
  -4   0   8  468.24   29.97
  -4   0   8  489.63   31.26
   4   0  -8  509.69   28.66
  -4   0   7   81.43    9.93
   4   0  -7  106.86    5.19
  -4   0   7   89.65    9.74
   4   0  -7  109.88    6.34
   4   0  -7  119.42    9.61
  -4   0   6   31.96    5.14
   4   0  -6   32.60    2.15
  -4   0   6   24.09    4.98
   4   0  -6   32.82    2.77
   4   0  -6   36.34    4.67
  -4   0   5  104.56    9.73
   4   0  -5  123.89    6.38
  -4   0   5  108.86   10.43
   4   0  -5  128.92    9.31
  -4   0   4   41.74    5.71
  -4   0   4   41.16    5.18
   4   0  -4   39.98    2.86
  -4   0   4   50.77    3.06
  -4   0   4   41.29    5.52
   4   0  -4   40.91    4.52
   4   0  -3   28.58    4.97
  -4   0   3   19.54    1.84
   4   0  -3   30.42    4.28
   4   0  -3   25.16    1.98
  -4   0   3   14.06    2.81
  -4   0   3   17.40    3.31
   4   0  -3   31.22    3.43
  -4   0   2   64.00    4.48
   4   0  -2   67.45    6.74
  -4   0   2   47.60    4.99
   4   0  -2   65.53    5.97
   4   0  -2   56.11    3.66
  -4   0   2   64.19    3.78
   4   0  -2   51.97    3.42
  -4   0   2   48.81    5.14
   4   0  -2   54.48    6.14
   4   0  -2   59.91    4.73
  -4   0   1   80.78    6.38
   4   0  -1   87.73    7.44
   4   0  -1   86.75    6.75
   4   0  -1   86.51    5.02
  -4   0   1   87.85    4.94
  -4   0   1   74.81    6.13
   4   0  -1   81.82    7.16
   4   0  -1   77.70    4.55
   4   0  -1   86.13    5.67
  -4   0   1   88.69    5.46
  -4   0   0  232.16   13.77
   4   0   0  267.12   14.81
  -4   0   0  233.77   13.47
   4   0   0  224.98   13.31
   4   0   0  227.85   12.02
  -4   0   0  252.91   12.02
  -4   0   0  257.99   11.70
  -4   0   0  210.50   12.80
   4   0   0  219.01   11.47
   4   0   0  214.29   13.74
   4   0   0  272.49   12.87
  -4   0   0  231.78   12.26
   4   0   1   15.24    0.99
   4   0   1   18.71    2.79
  -4   0  -1   19.54    2.65
   4   0   1   18.54    2.43
   4   0   1   13.24    1.61
  -4   0  -1   20.31    1.85
  -4   0  -1   12.82    1.88
   4   0   1   15.56    2.40
  -4   0  -1   20.24    1.71
   4   0   1   15.95    1.51
  -4   0  -1   14.80    1.70
  -4   0  -2  658.75   33.30
  -4   0  -2  721.20   32.04
  -4   0  -2  612.90   32.31
   4   0   2  714.55   33.22
  -4   0  -2  685.90   31.89
  -4   0  -2  648.94   35.29
  -4   0  -3    5.59    1.14
  -4   0  -3    3.70    1.08
   4   0   3    5.39    1.45
  -4   0  -3    3.81    1.72
   4   0   4   99.57    6.73
  -4   0  -4   79.02    5.35
   4   0   4  103.40    6.65
  -4   0  -4   81.12    5.68
  -4   0  -4   80.47    7.38
   4   0   4  100.96    8.32
   4   0   5  234.56   12.87
  -4   0  -5  207.51   11.30
   4   0   5  245.64   12.83
  -4   0  -5  206.85   11.87
  -4   0  -5  189.12   13.45
   4   0   5  235.82   15.02
  -4   0  -5  190.96   11.96
   4   0   6    8.77    2.83
  -4   0  -6    6.96    1.40
   4   0   6    8.77    1.97
  -4   0  -6    8.27    1.90
   4   0   6    8.79    2.69
  -4   0  -6    5.50    1.51
  -4   0  -6    7.41    2.20
   4   0   7    8.51    3.01
  -4   0  -7    8.89    1.63
  -4   0  -7    9.02    2.07
   4   0   7   11.68    2.44
   4   0   7   11.72    1.21
  -4   0  -7    7.57    1.72
  -4   0  -7    8.05    2.48
   4   0   8   39.13    6.09
   4   0   8   47.16    4.89
  -4   0  -8   36.86    4.18
  -4   0  -8   36.61    3.50
  -4   0  -8   36.92    4.83
   4   0   9  115.61   11.57
  -4   0  -9  120.95    9.05
  -4   0  -9  101.23    9.36
   4   0  10    7.63    3.46
  -4   0 -10   12.40    3.17
   4   0  10   17.21    3.51
  -4   0 -10   14.06    3.33
   4   0  11  104.77   12.19
  -4   0 -11  115.08    9.92
  -4  -1   9   13.23    4.55
  -4  -1   8   39.57    6.60
  -4  -1   8   42.85    7.14
   4   1  -8   50.16    6.26
  -4  -1   7   55.66    7.45
   4   1  -7   67.76    3.95
  -4  -1   7   52.06    7.66
   4   1  -7   72.56    7.16
  -4  -1   6   39.31    5.84
   4   1  -6   44.88    3.03
  -4  -1   6   36.80    6.17
   4   1  -6   46.84    5.32
  -4  -1   5  166.08   13.47
   4   1  -5  201.61   10.06
  -4  -1   5  157.60   13.64
   4   1  -5  226.77   13.10
  -4  -1   4   26.13    4.47
  -4  -1   4   33.77    2.53
  -4  -1   4   25.58    4.12
   4   1  -4   29.89    2.42
  -4  -1   4   23.72    4.20
   4   1  -4   33.47    3.79
   4   1  -3   14.65    3.74
   4   1  -3   10.71    1.96
  -4  -1   3    5.92    2.24
   4   1  -3   13.31    1.47
  -4  -1   3    9.84    1.33
  -4  -1   3    6.28    2.11
  -4  -1   3    6.53    2.25
  -4  -1   2   53.40    5.59
   4   1  -2   50.89    6.05
  -4  -1   2   47.38    4.92
  -4  -1   2   53.17    3.55
   4   1  -2   51.08    3.52
  -4  -1   2   51.66    4.97
   4   1  -2   51.16    4.27
  -4  -1   1   82.31    6.86
   4   1  -1   97.39    7.76
  -4  -1   1   80.55    4.74
  -4  -1   1   78.65    6.58
  -4  -1   1   95.99    5.29
   4   1  -1   87.60    5.21
   4   1  -1   85.22    5.08
  -4  -1   1   73.60    6.07
   4   1  -1   85.30    7.07
   4   1  -1   94.55    5.73
  -4  -1   0    8.74    1.14
  -4  -1   0    9.76    0.80
   4   1   0   17.34    2.92
   4   1   0   11.29    1.42
  -4  -1   0    6.84    1.68
  -4  -1   0    7.35    1.19
   4   1   0   13.60    2.30
   4   1   0   10.28    1.28
  -4  -1   0    7.86    1.54
   4   1   0   13.96    1.52
   4   1   1   75.70    5.74
   4   1   1   61.50    3.32
  -4  -1  -1   64.84    4.04
  -4  -1  -1   65.94    4.08
  -4  -1  -1   51.16    4.10
   4   1   1   61.91    4.90
   4   1   1   63.14    3.96
  -4  -1  -1   55.15    3.58
  -4  -1  -2   20.46    2.71
   4   1   2   26.00    1.73
   4   1   2   37.19    3.58
  -4  -1  -2   17.77    1.91
  -4  -1  -2   18.29    2.02
   4   1   2   26.18    2.21
   4   1   2   27.53    2.71
  -4  -1  -2   19.15    2.03
  -4  -1  -2   14.13    2.98
  -4  -1  -2   19.55    1.78
   4   1   3    0.28    0.92
   4   1   3    1.15    0.68
   4   1   3    1.25    0.71
  -4  -1  -3    1.52    0.83
  -4  -1  -3    2.36    0.83
   4   1   3    0.95    0.79
  -4  -1  -3    2.15    1.50
   4   1   4  409.18   20.68
  -4  -1  -4  417.15   20.54
   4   1   4  456.93   21.46
  -4  -1  -4  416.64   20.94
  -4  -1  -4  394.97   23.44
  -4  -1  -5 1481.65   68.71
   4   1   5 1674.64   69.96
  -4  -1  -5 1542.48   69.66
  -4  -1  -5 1457.60   70.26
  -4  -1  -6  352.10   17.08
   4   1   6  354.54   18.19
  -4  -1  -6  344.29   17.93
  -4  -1  -6  288.78   19.32
   4   1   6  353.83   20.81
  -4  -1  -6  310.07   17.83
  -4  -1  -7    7.76    1.46
  -4  -1  -7    5.34    1.76
   4   1   7    9.80    2.11
  -4  -1  -7    5.74    1.63
  -4  -1  -7    5.57    2.12
   4   1   8   16.51    4.07
  -4  -1  -8   21.14    3.21
   4   1   8   19.82    3.14
  -4  -1  -8   14.28    2.41
  -4  -1  -8   18.19    3.39
   4   1   9  160.20   13.86
  -4  -1  -9  150.78   10.56
  -4  -1  -9  135.48   11.33
   4   1  10   11.76    4.06
   4   1  10   19.78    3.48
  -4  -1 -10    8.76    2.78
   4   1  11   26.73    6.09
   4   1  11   40.74    5.22
  -4  -1 -11   35.30    5.27
  -4  -2   8   28.22    5.89
   4   2  -8   41.44    5.69
   4   2  -7   18.68    1.97
   4   2  -7   21.61    3.95
  -4  -2   7   14.74    4.04
   4   2  -6   30.11    2.57
  -4  -2   6   24.50    4.78
   4   2  -6   28.35    4.23
   4   2  -5   33.02    2.78
   4   2  -5   40.94    4.56
  -4  -2   4   93.50    8.72
   4   2  -4   96.26    5.87
  -4  -2   4   86.98    8.25
   4   2  -4  111.41    7.66
  -4  -2   3   64.42    6.66
   4   2  -3   70.69    7.72
   4   2  -3   70.29    4.64
  -4  -2   3   76.56    4.74
  -4  -2   3   59.72    6.26
   4   2  -3   73.18    5.70
  -4  -2   3   75.43    5.56
  -4  -2   2  138.20   10.81
   4   2  -2  246.88   14.63
   4   2  -2  224.24   13.78
  -4  -2   2  154.88    8.86
   4   2  -2  168.85    9.00
  -4  -2   2  132.66   10.16
   4   2  -2  171.54    9.77
  -4  -2   1  157.88   11.02
   4   2  -1  195.24   12.37
  -4  -2   1  162.33    9.28
   4   2  -1  201.86   12.07
  -4  -2   1  183.13    9.44
   4   2  -1  172.41    9.40
   4   2  -1  171.17    9.43
  -4  -2   1  161.42   10.12
   4   2  -1  188.01    9.68
  -4  -2   0   14.95    2.46
  -4  -2   0   10.21    2.09
  -4  -2   0   14.90    1.47
   4   2   0   14.50    2.76
  -4  -2   0   17.22    1.81
   4   2   0   13.79    1.68
   4   2   0   13.59    2.49
  -4  -2   0   13.48    1.72
   4   2   0   11.24    2.04
   4   2   0   12.87    1.62
   4   2   0   16.85    1.61
  -4  -2  -1   82.87    6.20
   4   2   1   84.53    6.50
  -4  -2  -1   83.98    4.56
   4   2   1   78.64    4.77
  -4  -2  -1   89.60    5.33
  -4  -2  -1   78.52    4.92
   4   2   1   75.62    5.52
   4   2   1   76.44    5.07
   4   2   1   73.93    6.14
  -4  -2  -1   92.06    5.23
   4   2   2   75.71    5.57
   4   2   2   67.17    3.89
   4   2   2   73.86    5.45
  -4  -2  -2   50.52    3.70
   4   2   2   69.71    4.50
   4   2   2   61.48    4.25
  -4  -2  -2   54.38    4.11
  -4  -2  -2   53.81    3.95
   4   2   3  101.28    7.19
   4   2   3  106.15    5.93
   4   2   3  101.19    6.30
   4   2   3  107.60    6.48
   4   2   3   90.23    6.25
   4   2   4    5.67    1.54
   4   2   4    6.98    1.27
  -4  -2  -4    8.12    1.26
   4   2   4    5.00    1.21
  -4  -2  -4    8.48    1.51
   4   2   4    5.95    1.28
   4   2   4    7.26    2.29
   4   2   5   52.29    3.92
  -4  -2  -5   48.44    3.66
   4   2   5   54.23    4.19
  -4  -2  -5   48.40    4.16
  -4  -2  -5   38.45    4.96
   4   2   5   62.73    6.33
  -4  -2  -5   49.85    4.64
   4   2   6   45.53    3.90
  -4  -2  -6   51.57    3.87
   4   2   6   53.89    4.50
  -4  -2  -6   56.55    4.66
  -4  -2  -6   53.68    5.77
   4   2   6   63.34    6.56
  -4  -2  -6   52.10    4.80
   4   2   7    3.79    2.33
  -4  -2  -7    6.27    1.30
  -4  -2  -7    5.24    1.70
   4   2   7    6.05    1.69
  -4  -2  -7    4.75    1.61
  -4  -2  -7    4.07    1.80
  -4  -2  -8  256.64   13.55
  -4  -2  -8  261.73   15.02
   4   2   8  283.15   15.25
  -4  -2  -8  222.18   15.92
   4   2   9    8.28    2.36
  -4  -2  -9    5.74    2.29
  -4  -2 -10    6.95    2.46
   4   2  10   13.00    3.11
  -4  -2 -10   10.05    2.93
  -4  -2 -11   21.76    4.05
  -4  -2 -11   28.88    4.28
   4   2  11   18.60    3.73
  -4  -2 -11   18.57    3.94
  -4  -2 -12    3.04    2.38
  -4  -3   8   72.49    8.83
   4   3  -8   79.89    8.36
   4   3  -7    3.05    2.36
  -4  -3   7    1.91    2.40
  -4  -3   7    0.39    2.40
   4   3  -6    5.81    2.25
  -4  -3   6   12.80    3.55
   4   3  -6    7.06    1.47
  -4  -3   6   10.77    3.43
   4   3  -5   27.60    3.85
  -4  -3   5   21.82    4.23
  -4  -3   5   17.45    3.91
   4   3  -5   23.21    2.47
   4   3  -4   65.08    5.59
  -4  -3   4   62.79    6.69
  -4  -3   4   45.74    5.93
   4   3  -4   62.08    4.37
  -4  -3   4   49.97    6.06
   4   3  -3   10.37    2.02
   4   3  -3   12.91    3.70
  -4  -3   3   12.70    2.94
  -4  -3   3   15.74    1.92
  -4  -3   3   11.24    2.83
   4   3  -3    9.30    1.54
  -4  -3   3    7.65    2.25
  -4  -3   3   13.23    2.12
   4   3  -2  119.80    6.78
  -4  -3   2   83.94    7.35
  -4  -3   2   82.24    6.30
   4   3  -2  115.41    9.33
  -4  -3   2   76.04    6.62
  -4  -3   2   79.82    7.42
   4   3  -2  109.76    8.93
  -4  -3   2  101.36    5.99
   4   3  -2   92.39    5.95
   4   3  -1   89.30    5.58
  -4  -3   1   90.96    6.98
  -4  -3   1   92.16    5.89
   4   3  -1   94.91    7.86
   4   3  -1   84.60    7.41
  -4  -3   1  102.07    5.75
   4   3  -1   78.81    5.44
   4   3  -1   74.53    5.48
  -4  -3   1   79.41    5.81
   4   3   0   32.34    3.98
  -4  -3   0   31.06    2.70
  -4  -3   0   30.29    3.51
   4   3   0   31.94    3.88
  -4  -3   0   33.84    2.80
   4   3   0   29.61    2.72
   4   3   0   29.08    2.81
  -4  -3   0   26.27    2.38
   4   3   0   33.31    2.42
  -4  -3  -1  276.18   15.72
   4   3   1  312.53   16.54
  -4  -3  -1  277.41   14.41
   4   3   1  285.95   14.79
   4   3   1  277.05   16.18
  -4  -3  -1  293.79   14.76
  -4  -3  -1  252.10   13.82
   4   3   1  289.75   14.85
   4   3   1  261.32   14.74
   4   3   1  327.02   13.55
  -4  -3  -2    9.77    1.85
  -4  -3  -2   11.69    1.41
   4   3   2   11.79    2.14
   4   3   2    9.74    1.42
  -4  -3  -2   12.38    1.65
   4   3   2    9.54    2.05
  -4  -3  -2   10.07    1.10
  -4  -3  -2   11.30    1.70
   4   3   2    9.86    1.40
   4   3   2    9.12    1.52
  -4  -3  -2   14.06    2.82
   4   3   3   56.80    4.74
   4   3   3   53.03    3.73
   4   3   3   51.25    3.89
   4   3   3   54.40    3.68
   4   3   3   46.32    3.88
  -4  -3  -3   48.88    3.98
  -4  -3  -3   56.28    5.76
   4   3   4  229.55   13.20
   4   3   4  249.13   12.20
   4   3   4  220.02   12.19
  -4  -3  -4  247.92   12.22
   4   3   4  241.45   12.08
   4   3   4  205.19   12.31
  -4  -3  -4  245.72   12.72
  -4  -3  -4  224.76   14.70
  -4  -3  -4  221.24   11.21
  -4  -3  -4  216.53   13.43
   4   3   4  233.35   15.08
   4   3   5   48.70    3.65
   4   3   5   40.63    3.45
  -4  -3  -5   44.05    3.40
   4   3   5   43.82    3.52
  -4  -3  -5   41.16    3.84
   4   3   5   43.43    5.31
  -4  -3  -5   40.84    4.28
  -4  -3  -5   40.02    3.11
  -4  -3  -6   14.64    1.96
   4   3   6   19.13    2.19
  -4  -3  -6   16.60    1.95
   4   3   6   19.21    2.36
  -4  -3  -6   16.10    2.38
   4   3   6   18.50    3.63
  -4  -3  -6   14.58    2.55
  -4  -3  -7   20.86    2.60
   4   3   7   22.02    2.43
  -4  -3  -7   17.52    2.13
  -4  -3  -7   20.37    2.88
   4   3   8  150.96   12.99
  -4  -3  -8  159.76    8.86
  -4  -3  -8  160.28   10.04
  -4  -3  -8  132.78   11.00
   4   3   9   33.63    6.10
  -4  -3  -9   41.61    3.42
  -4  -3  -9   40.59    4.42
  -4  -3  -9   30.87    4.76
   4   3  10   35.14    6.41
  -4  -3 -10   36.15    4.57
  -4  -3 -10   37.18    4.65
  -4  -3 -10   29.40    4.79
   4   3  11   60.68    8.79
  -4  -3 -11   68.43    6.49
  -4  -3 -11   56.83    6.38
  -4  -3 -11   59.93    7.05
  -4  -3 -12   70.37    7.53
  -4  -4   8   43.23    6.84
   4   4  -7    7.67    2.72
  -4  -4   7    8.98    3.47
  -4  -4   7    7.51    3.30
   4   4  -6   37.82    4.88
  -4  -4   6   26.18    4.89
  -4  -4   6   23.67    4.90
   4   4  -6   33.85    3.25
   4   4  -5    0.66    1.48
  -4  -4   5   -0.59    2.08
   4   4  -5    1.75    1.25
  -4  -4   5    1.94    2.23
  -4  -4   4   47.16    5.59
  -4  -4   4   49.68    6.03
   4   4  -4   51.20    4.11
  -4  -4   4   34.97    5.00
   4   4  -3  160.50   11.77
  -4  -4   3  126.62    9.45
  -4  -4   3  107.21    8.34
  -4  -4   3  109.42    9.53
   4   4  -3  131.87    7.83
  -4  -4   3   98.33    8.49
  -4  -4   3  140.75    8.36
  -4  -4   2  105.64    8.51
  -4  -4   2  117.78    8.14
   4   4  -2  140.25   10.47
  -4  -4   2  106.18    7.92
  -4  -4   2  135.03    7.56
  -4  -4   2  105.43    8.93
   4   4  -2  130.04    7.71
  -4  -4   1   18.05    2.79
  -4  -4   1   17.64    2.43
   4   4  -1   22.90    3.77
  -4  -4   1   19.83    3.29
   4   4  -1   16.34    2.22
  -4  -4   1   18.27    2.15
   4   4  -1   18.34    3.45
  -4  -4   1   20.37    2.30
   4   4  -1   15.75    2.11
  -4  -4   0   54.87    5.35
  -4  -4   0   54.72    4.85
   4   4   0   71.97    6.10
  -4  -4   0   53.03    4.29
   4   4   0   61.68    4.53
  -4  -4   0   44.56    3.16
   4   4   0   80.81    6.46
  -4  -4   0   58.23    4.28
   4   4   0   65.05    4.47
  -4  -4  -1  203.05   12.21
   4   4   1  217.26   12.85
  -4  -4  -1  211.50   11.59
   4   4   1  212.18   13.00
  -4  -4  -1  222.10   11.53
   4   4   1  210.08   11.77
   4   4   2  118.02    8.34
   4   4   2  122.84    8.11
  -4  -4  -2  118.26    7.13
   4   4   2  114.25    7.23
  -4  -4  -2  124.10    7.92
  -4  -4  -2  125.61    7.20
   4   4   2  114.95    6.21
   4   4   2  107.09    7.20
  -4  -4  -2  124.00    9.37
   4   4   3  199.94   11.38
  -4  -4  -3  177.73   10.18
   4   4   3  190.04   11.53
   4   4   3  192.81   10.51
   4   4   3  181.57   10.35
  -4  -4  -3  206.06   11.03
   4   4   3  191.64    9.56
   4   4   3  163.19   10.48
  -4  -4  -3  186.93   12.60
   4   4   4 1740.06   73.62
   4   4   4 1705.13   72.65
  -4  -4  -4 1775.47   72.55
   4   4   4 1410.84   72.12
   4   4   4 1631.40   71.69
  -4  -4  -4 1700.19   73.10
  -4  -4  -4 1585.64   75.35
  -4  -4  -4 1616.20   74.51
  -4  -4  -4 1370.55   70.96
   4   4   5  184.09    9.68
   4   4   5  157.86   10.08
   4   4   5  151.36    9.18
  -4  -4  -5  176.83    9.36
   4   4   5  157.20    8.91
  -4  -4  -5  171.90    9.93
  -4  -4  -5  160.59   11.36
  -4  -4  -5  156.76   10.53
   4   4   5  163.75   11.94
  -4  -4  -5  147.11    8.59
   4   4   6   33.16    3.18
   4   4   6   26.40    2.78
  -4  -4  -6   31.09    2.91
  -4  -4  -6   31.30    3.46
  -4  -4  -6   24.30    3.93
  -4  -4  -6   28.11    2.83
   4   4   6   35.41    4.93
  -4  -4  -6   30.27    3.73
   4   4   7    7.61    1.50
  -4  -4  -7   10.42    1.68
  -4  -4  -7    9.80    2.12
  -4  -4  -7   11.64    1.97
  -4  -4  -7    9.16    2.51
   4   4   8   47.98    4.26
   4   4   8   51.86    7.22
  -4  -4  -8   70.73    4.67
  -4  -4  -8   67.93    5.43
   4   4   9   10.11    3.39
  -4  -4  -9   13.69    2.01
  -4  -4  -9   13.49    2.67
   4   4  10   37.16    6.77
  -4  -4 -10   45.51    4.92
  -4  -4 -10   32.10    4.43
   4   4  11   19.83    5.52
  -4  -4 -11   23.01    3.88
  -4  -4 -11   23.01    3.95
  -4  -4 -11   18.92    4.08
  -4  -4 -12    8.62    2.90
  -4  -4 -12    6.80    2.70
   4   5  -7   24.74    4.59
  -4  -5   7   29.74    5.18
  -4  -5   6   10.81    3.28
  -4  -5   6   12.41    3.64
   4   5  -6   17.98    2.59
  -4  -5   5    8.52    2.90
   4   5  -5   11.46    2.06
  -4  -5   5    8.94    3.11
  -4  -5   4   36.58    4.83
  -4  -5   4   38.13    4.70
   4   5  -4   37.28    3.74
  -4  -5   4   37.76    5.34
  -4  -5   4   36.23    4.91
  -4  -5   3 1447.04   74.32
  -4  -5   3 1523.46   74.68
   4   5  -3 1538.55   72.77
  -4  -5   3 1755.58   77.00
  -4  -5   3 1740.28   73.23
  -4  -5   2  209.36   13.44
  -4  -5   2  220.73   13.57
   4   5  -2  285.28   16.25
   4   5  -2  235.16   12.88
  -4  -5   2  224.46   14.74
  -4  -5   2  192.89   12.59
  -4  -5   2  254.05   12.73
   4   5  -1    9.97    2.99
  -4  -5   1    8.95    2.12
  -4  -5   1   10.00    2.06
  -4  -5   1    7.75    1.32
   4   5  -1    9.65    1.81
  -4  -5   1    6.52    2.24
  -4  -5   0   78.39    5.86
  -4  -5   0   71.82    5.69
   4   5   0   81.82    6.77
  -4  -5   0   74.30    6.62
   4   5   0   79.77    7.05
  -4  -5   0   83.14    5.51
   4   5   0   68.16    5.39
   4   5   0   67.53    5.45
  -4  -5  -1   49.34    4.25
   4   5   1   48.71    4.81
  -4  -5  -1   47.83    4.18
   4   5   1   43.01    4.74
  -4  -5  -1   51.70    4.01
   4   5   1   37.83    3.82
  -4  -5  -1   41.75    5.04
   4   5   2   49.92    4.56
  -4  -5  -2   39.14    3.80
   4   5   2   41.95    4.05
   4   5   2   48.52    4.77
  -4  -5  -2   45.12    3.80
   4   5   2   48.02    3.97
   4   5   2   43.10    3.97
  -4  -5  -2   43.98    5.05
   4   5   2   55.27    3.06
   4   5   3   30.92    3.43
   4   5   3   29.62    3.57
  -4  -5  -3   27.58    2.93
   4   5   3   28.75    3.08
   4   5   3   27.33    2.87
   4   5   3   26.13    1.86
  -4  -5  -3   32.37    3.31
  -4  -5  -3   27.47    3.89
  -4  -5  -3   29.00    3.66
   4   5   3   33.05    1.86
   4   5   4  212.47   12.60
   4   5   4  240.25   12.53
  -4  -5  -4  230.76   12.00
   4   5   4  203.01   11.88
  -4  -5  -4  221.95   12.63
   4   5   4  210.54   10.88
  -4  -5  -4  223.31   14.08
   4   5   5  106.94    6.81
   4   5   5   98.58    7.01
  -4  -5  -5  103.19    6.35
   4   5   5   94.06    6.29
   4   5   5   95.69    5.69
  -4  -5  -5  105.52    7.04
  -4  -5  -5   90.03    7.79
   4   5   5  104.19    8.78
  -4  -5  -5   78.73    5.53
   4   5   6   18.47    2.54
  -4  -5  -6   23.74    2.51
   4   5   6   16.28    2.18
  -4  -5  -6   20.71    2.83
  -4  -5  -6   16.39    3.08
  -4  -5  -6   14.68    1.96
   4   5   6   14.75    3.49
  -4  -5  -7   39.65    3.48
   4   5   7   39.86    3.59
  -4  -5  -7   34.19    4.67
  -4  -5  -7   35.70    3.58
  -4  -5  -8   13.21    1.97
   4   5   8   16.93    4.29
   4   5   8   13.43    2.02
  -4  -5  -8   12.25    2.36
  -4  -5  -8   13.40    2.98
   4   5   9   67.23    5.01
   4   5   9   72.22    8.74
  -4  -5  -9   71.87    6.27
  -4  -5  -9   67.27    6.05
  -4  -5  -9   59.24    6.65
   4   5  10  119.91   12.01
  -4  -5 -10  118.72    8.88
  -4  -5 -10  104.17    8.62
  -4  -5 -10  105.31    9.48
  -4  -5 -11    5.09    2.36
  -4  -5 -11    7.76    2.66
   4   5  11    5.03    3.32
  -4  -5 -12    1.73    2.06
  -4  -5 -12    2.95    2.53
  -4  -5 -13   25.36    4.70
  -4  -6   6    3.85    2.46
   4   6  -6    1.99    1.60
  -4  -6   6    0.37    2.06
  -4  -6   5   -0.47    1.93
  -4  -6   5    0.55    1.87
  -4  -6   5    0.24    1.17
   4   6  -5    1.06    1.22
  -4  -6   5    0.33    2.02
  -4  -6   4   30.71    4.20
  -4  -6   4   41.97    5.17
   4   6  -4   37.77    3.92
  -4  -6   4   24.95    4.60
  -4  -6   4   37.17    3.35
  -4  -6   3   28.30    3.75
  -4  -6   3   28.33    4.09
   4   6  -3   28.40    3.34
  -4  -6   3   31.52    4.69
  -4  -6   3   31.66    2.70
  -4  -6   3   22.42    3.47
  -4  -6   3   26.65    3.13
   4   6  -2  160.29   11.10
  -4  -6   2  133.34    8.91
  -4  -6   2  127.43    9.34
  -4  -6   2  125.70   10.05
   4   6  -2  132.27    8.58
  -4  -6   2  103.25    7.77
  -4  -6   2  135.31    7.04
  -4  -6   2  135.75    8.14
  -4  -6   1   60.87    5.11
  -4  -6   1   66.14    5.81
  -4  -6   1   65.49    6.34
   4   6  -1   61.40    6.32
  -4  -6   1   67.14    3.42
  -4  -6   1   55.66    3.63
   4   6  -1   57.00    5.03
   4   6   0  136.57    9.34
  -4  -6   0  161.04    9.42
  -4  -6   0  156.75   10.06
   4   6   0  171.27   10.97
  -4  -6   0  147.36   10.63
   4   6   1    5.32    2.17
  -4  -6  -1    6.70    1.55
   4   6   1    6.40    2.12
  -4  -6  -1    7.74    1.89
  -4  -6  -1    5.35    1.90
   4   6   2   70.69    6.17
   4   6   2   66.62    5.29
   4   6   2   71.72    5.80
  -4  -6  -2   64.67    5.44
   4   6   2   66.14    5.81
  -4  -6  -2   68.74    6.31
  -4  -6  -2   54.76    5.64
   4   6   3  159.60   10.03
   4   6   3  173.58   11.17
   4   6   3  171.16   10.59
  -4  -6  -3  159.69   10.33
   4   6   3  164.99   10.59
  -4  -6  -3  163.04   11.36
  -4  -6  -3  134.95   10.69
   4   6   4    0.96    0.59
   4   6   4    0.14    1.11
  -4  -6  -4    0.80    0.92
   4   6   4   -0.14    0.97
   4   6   4    1.68    1.02
   4   6   4    0.69    1.11
   4   6   4    0.64    0.95
   4   6   4    0.70    0.42
  -4  -6  -4    0.45    1.06
  -4  -6  -4    1.02    1.28
   4   6   5   32.41    3.65
   4   6   5   38.79    3.86
   4   6   5   29.36    3.17
  -4  -6  -5   31.22    3.69
   4   6   5   33.06    2.52
  -4  -6  -5   25.11    3.84
   4   6   5   29.67    4.53
   4   6   6   25.86    2.84
  -4  -6  -6   19.55    3.39
  -4  -6  -6   19.23    2.43
  -4  -6  -7  180.94   12.79
  -4  -6  -7  164.19   10.86
  -4  -6  -8    3.92    1.46
   4   6   8    2.98    1.17
  -4  -6  -8    1.62    1.60
  -4  -6  -8    3.00    1.83
   4   6   9  128.64    8.11
   4   6   9  146.62   12.86
  -4  -6  -9  141.79    9.69
  -4  -6  -9  124.26    9.12
  -4  -6  -9  120.04   10.14
   4   6  10  987.89   47.08
   4   6  10 1121.87   55.24
  -4  -6 -10 1056.42   49.41
  -4  -6 -10  942.55   49.12
  -4  -6 -10  914.28   50.38
   4   6  11   31.20    6.38
  -4  -6 -11   25.60    4.12
  -4  -6 -11   19.36    4.07
  -4  -6 -11   23.92    4.07
  -4  -6 -12   16.17    3.76
  -4  -6 -12   20.91    4.06
  -4  -6 -13    0.32    2.30
   4   7  -6    2.04    1.49
   4   7  -5    2.88    1.56
  -4  -7   5    0.68    2.07
  -4  -7   5    0.29   22.82
   4   7  -4    3.70    1.74
  -4  -7   4    2.83    2.29
  -4  -7   4    3.76    2.23
   4   7  -3   14.42    2.59
  -4  -7   3   11.34    3.20
  -4  -7   3   10.21    2.32
  -4  -7   3   11.95    3.03
  -4  -7   2    9.07    2.09
  -4  -7   2   13.28    2.92
  -4  -7   2    8.56    2.80
   4   7  -2   12.18    2.38
  -4  -7   2   12.01    1.45
  -4  -7   2   11.27    1.87
   4   7  -1   54.15    5.05
  -4  -7   1   60.04    4.77
  -4  -7   1   57.08    6.16
  -4  -7   1   54.89    5.61
  -4  -7   1   62.10    4.37
   4   7   0   17.62    2.71
  -4  -7   0   12.95    2.86
   4   7   0   23.49    3.56
  -4  -7   0   13.01    2.71
  -4  -7   0   14.01    2.13
  -4  -7   0   14.04    2.86
  -4  -7   0   11.79    2.52
  -4  -7  -1    3.47    1.63
   4   7   1    1.19    1.62
  -4  -7  -1    3.98    1.69
  -4  -7  -1    4.56    1.78
   4   7   2  177.35   11.74
   4   7   2  199.53   12.82
   4   7   2  197.56   12.13
  -4  -7  -2  182.26   12.10
  -4  -7  -2  199.30   12.56
   4   7   3 1279.24   59.48
   4   7   3 1185.66   57.98
   4   7   3 1175.22   58.02
  -4  -7  -3 1074.08   58.18
  -4  -7  -3 1096.49   58.61
   4   7   4  270.64   15.58
   4   7   4  267.15   15.72
  -4  -7  -4  257.85   15.87
   4   7   4  266.32   16.32
  -4  -7  -4  268.04   16.45
   4   7   5    9.73    2.10
  -4  -7  -5    6.05    1.76
   4   7   5    7.90    1.74
   4   7   5   10.47    2.41
   4   7   5    9.58    1.93
   4   7   5   10.03    1.18
   4   7   5   13.01    1.66
  -4  -7  -5    9.01    2.20
   4   7   6    3.11    1.30
   4   7   6    3.53    2.14
   4   7   6    2.53    2.09
  -4  -7  -6    3.02    1.55
   4   7   7  153.73    9.04
  -4  -7  -7  144.76    9.81
  -4  -7  -7  122.55    8.82
  -4  -7  -7  125.62   10.02
  -4  -7  -8    7.28    1.90
   4   7   8   10.37    1.96
  -4  -7  -8    8.27    2.43
  -4  -7  -8    5.60    2.08
   4   7   9   32.72    3.32
   4   7   9   36.18    6.34
  -4  -7  -9   32.23    4.17
  -4  -7  -9   23.48    3.44
  -4  -7  -9   28.67    4.38
   4   7  10   35.06    6.52
   4   7  10   35.58    3.49
  -4  -7 -10   29.43    4.19
  -4  -7 -10   23.85    3.86
  -4  -7 -10   25.71    4.44
  -4  -7 -11   13.84    3.14
   4   7  11   16.13    5.00
  -4  -7 -11   14.96    3.30
  -4  -7 -11   20.63    4.08
  -4  -7 -12    0.28    1.80
  -4  -7 -13   20.47    4.36
   4   8  -4   47.36    4.87
  -4  -8   4   40.31    5.69
  -4  -8   4   33.45    5.52
   4   8  -3   32.34    4.02
  -4  -8   3   31.80    4.87
  -4  -8   3   28.53    4.74
  -4  -8   2    2.71    2.08
   4   8  -2    1.07    1.42
  -4  -8   2    2.51    2.02
  -4  -8   1   11.01    2.93
   4   8  -1   12.36    2.54
  -4  -8   1   14.42    3.04
  -4  -8   1   12.66    1.97
  -4  -8   1   11.60    2.58
   4   8   0    2.57    1.46
  -4  -8   0    1.98    1.80
  -4  -8   0    0.82    1.19
  -4  -8   0    1.76    0.82
  -4  -8  -1   42.68    4.94
  -4  -8  -1   50.03    4.58
   4   8   2   12.08    2.39
   4   8   2   16.14    2.47
   4   8   2    9.75    2.31
  -4  -8  -2   12.11    2.65
  -4  -8  -2   11.02    2.11
   4   8   3   58.64    5.65
   4   8   3   54.09    5.03
   4   8   3   52.87    4.87
  -4  -8  -3   50.98    5.24
  -4  -8  -3   47.53    4.70
   4   8   3   70.23    4.81
   4   8   4   29.93    4.00
   4   8   4   31.75    3.58
   4   8   4   25.08    3.29
  -4  -8  -4   28.69    3.75
  -4  -8  -4   27.12    3.45
   4   8   4   39.03    3.33
   4   8   5   21.17    3.06
  -4  -8  -5   16.36    2.84
   4   8   5   17.34    2.69
   4   8   5   18.98    1.48
  -4  -8  -5   18.96    2.99
   4   8   5   23.19    2.48
   4   8   6  211.40   13.07
  -4  -8  -6  206.14   13.86
   4   8   7    1.54    1.22
  -4  -8  -7    0.78    1.65
  -4  -8  -7    1.70    1.46
  -4  -8  -8    0.54    1.13
   4   8   8    3.47    1.44
  -4  -8  -8    1.23    1.65
  -4  -8  -8   -0.23    1.27
  -4  -8  -9    8.18    2.21
   4   8   9    9.89    3.59
   4   8   9    8.67    1.96
  -4  -8  -9   11.44    2.91
  -4  -8  -9   10.09    2.68
  -4  -8 -10    1.07    1.41
   4   8  10    0.45    2.95
   4   8  10    1.58    1.32
  -4  -8 -10    1.31    1.89
  -4  -8 -10    0.55    1.64
  -4  -8 -11    6.10    2.34
   4   8  11   13.05    4.56
  -4  -8 -11    7.59    2.72
  -4  -8 -11    5.29    2.49
  -4  -8 -12    4.85    2.40
  -4  -8 -13    4.07    2.55
  -4  -9   4   36.26    5.62
  -4  -9   3   20.43    4.17
   4   9  -2   19.38    3.31
  -4  -9   2   13.47    3.38
  -4  -9   2   10.92    3.16
   4   9  -1   87.31    7.29
  -4  -9   1   92.69    8.23
  -4  -9   1   91.35    8.24
   4   9   0    0.38    1.42
  -4  -9   0   -0.25    1.67
  -4  -9  -1    0.71    1.81
  -4  -9  -1    1.09    0.98
   4   9   2   73.23    6.49
  -4  -9  -2   84.51    7.38
  -4  -9  -2   84.63    5.72
   4   9   3   20.97    3.17
  -4  -9  -3   21.75    3.57
  -4  -9  -3   17.74    2.50
   4   9   4    4.45    1.80
  -4  -9  -4    2.56    1.73
  -4  -9  -4    3.07    1.28
   4   9   5   34.13    3.98
  -4  -9  -5   41.57    4.65
  -4  -9  -5   40.42    4.12
   4   9   6   71.07    5.99
  -4  -9  -6   78.05    6.76
  -4  -9  -6   76.71    6.30
   4   9   7   55.37    4.93
  -4  -9  -7   59.69    5.73
  -4  -9  -7   47.02    5.16
   4   9   8   50.92    4.68
  -4  -9  -8   51.68    5.49
  -4  -9  -8   43.15    5.13
   4   9   9   76.73    5.93
   4   9   9   87.29    9.44
  -4  -9  -9   76.26    6.97
  -4  -9  -9   64.58    6.39
  -4  -9  -9   66.16    6.79
   4   9  10   53.46    4.93
   4   9  10   65.09    8.64
  -4  -9 -10   74.34    6.74
  -4  -9 -10   53.32    5.89
  -4  -9 -10   57.93    6.44
   4   9  11    1.42    3.31
  -4  -9 -11    1.47    1.72
  -4  -9 -11    1.12    1.84
  -4  -9 -12    0.27    1.91
  -4 -10   2    5.98    2.71
  -4 -10   1   36.26    5.30
   4  10   0   23.85    3.79
  -4 -10   0   31.89    4.77
  -4 -10  -1   26.91    4.44
   4  10   2  353.06   21.34
  -4 -10  -2  455.52   23.40
   4  10   3  106.45    8.31
  -4 -10  -3  111.95    9.05
   4  10   4    7.28    2.29
  -4 -10  -4    7.63    2.57
  -4 -10  -4    8.99    1.69
   4  10   5   22.10    3.29
  -4 -10  -5   25.17    3.98
  -4 -10  -5   29.28    3.17
   4  10   6   16.60    2.97
  -4 -10  -6   25.61    3.91
  -4 -10  -6   21.41    3.01
   4  10   7    0.51    1.40
  -4 -10  -7    2.71    1.48
   4  10   8   28.41    3.59
  -4 -10  -8   22.69    3.55
   4  10   9   29.82    5.87
   4  10   9   29.92    3.69
  -4 -10  -9   29.68    4.35
  -4 -10  -9   27.46    4.07
   4  10  10    4.28    3.40
   4  10  10    4.20    1.92
  -4 -10 -10    6.48    2.64
  -4 -10 -10    3.69    2.14
   4  10  11    1.82    3.56
   4  10  11    4.93    2.13
  -4 -10 -11    2.19    2.21
  -4 -11  -2   41.72    5.54
   4  11   3   47.01    5.22
  -4 -11  -3   46.50    5.70
   4  11   4   14.39    3.07
  -4 -11  -4   18.28    3.78
   4  11   5   35.94    4.39
  -4 -11  -5   23.38    4.09
   4  11   6    1.14    1.61
  -4 -11  -6    1.23    2.02
   4  11   7   28.59    3.76
   4  11   8   88.57    6.93
  -4 -11  -8   74.96    6.57
   4  11   9   13.15    2.76
  -4 -11  -9    8.96    2.65
  -4 -11 -10    2.61    2.00
  -4 -11 -11   23.38    4.26
   5 -11  -4    6.15    2.44
  -5  11   3    8.58    2.47
   5 -11  -3    9.48    2.75
   5 -11  -2    2.28    1.95
   5 -11  -1   27.20    4.55
  -5  10   5   88.92    8.02
   5 -10  -4    0.20    1.56
   5 -10  -4   -0.65    4.39
  -5  10   4   -0.44    1.74
   5 -10  -3    3.41    1.96
   5 -10  -3    0.61    4.61
  -5  10   3    1.81    2.01
   5 -10  -2   66.35    6.55
   5 -10  -2   69.74   10.48
   5 -10  -1   30.42    4.47
   5 -10  -1   29.62    7.10
   5 -10   0    2.37    2.09
   5 -10   0    1.03    3.67
   5 -10   1   42.93    5.84
   5 -10   1   47.00    8.15
  -5   9   7    3.84    3.74
  -5   9   6   12.08    4.15
  -5   9   6   14.21    3.58
  -5   9   5    3.49    3.15
   5  -9  -5    5.99    5.20
  -5   9   5    6.39    2.69
   5  -9  -4   69.62    6.35
  -5   9   4   80.62    7.95
   5  -9  -4   73.28   11.36
  -5   9   4   94.21    7.33
  -5   9   4  100.99    7.82
   5  -9  -3   16.03    2.95
   5  -9  -3   11.67    5.86
  -5   9   3   27.83    3.77
  -5   9   3   23.78    3.63
   5  -9  -2   61.35    5.94
   5  -9  -2   74.42   10.28
  -5   9   2   62.40    5.73
   5  -9  -1   22.75    3.78
   5  -9  -1   20.40    6.15
  -5   9   1   29.37    3.87
  -5   9   1   31.84    3.67
   5  -9   0    3.59    2.18
   5  -9   0    3.39    4.02
  -5   9   0    5.16    1.98
   5  -9   1    3.06    2.15
   5  -9   1    2.80    3.70
  -5   9  -1    1.83    1.65
   5  -9   2    0.55    1.77
   5  -9   2    0.45    3.58
   5  -9   3    0.30    1.92
   5  -9   3    1.32    3.80
  -5   8   7   15.97    4.87
  -5   8   6    9.15    3.93
   5  -8  -6    9.50    5.23
  -5   8   5   18.06    4.43
   5  -8  -5   19.14    6.51
  -5   8   4   49.65    6.33
   5  -8  -4   46.64    8.87
  -5   8   3   17.56    3.68
   5  -8  -3   12.11    2.38
   5  -8  -3   21.63    6.45
  -5   8   2    2.89    1.96
   5  -8  -2    1.58    1.41
   5  -8  -2    3.12    4.13
  -5   8   1   63.12    5.53
   5  -8  -1   54.44    5.51
   5  -8  -1   47.14    6.26
   5  -8  -1   57.59    8.54
  -5   8   1   69.64    5.78
   5  -8   0   23.30    3.65
   5  -8   0   29.34    6.12
  -5   8   0   18.97    3.02
   5  -8   1   65.55    6.54
   5  -8   1   83.98    9.65
   5  -8   2    4.03    2.35
   5  -8   2    3.28    3.31
   5  -8   3   11.80    3.39
   5  -8   3   19.81    5.14
   5  -8   4   79.82    8.49
   5  -8   4  112.08   10.80
  -5   7   8   65.42    9.33
   5  -7  -7    2.01    2.87
  -5   7   7    2.71    3.36
  -5   7   6   39.08    6.68
   5  -7  -6   45.42    6.73
  -5   7   5   11.23    3.90
  -5   7   4   32.01    5.23
   5  -7  -4   38.03    7.75
   5  -7  -4   27.08    3.53
   5  -7  -3   75.28    5.78
  -5   7   3   80.26    7.73
   5  -7  -3   92.75   11.00
   5  -7  -3   78.87    5.73
  -5   7   2   24.82    3.83
   5  -7  -2   19.31    2.79
   5  -7  -2   22.71    5.95
   5  -7  -2   22.47    2.40
  -5   7   1    8.44    2.35
   5  -7  -1    9.56    3.22
   5  -7  -1    9.28    2.09
   5  -7  -1    6.26    1.14
   5  -7  -1    9.25    4.16
  -5   7   0   48.01    4.46
   5  -7   0   37.38    4.28
   5  -7   0   50.50    5.75
   5  -7   0   37.59    2.52
   5  -7   0   30.98    2.39
   5  -7   0   49.78    7.29
  -5   7   0   43.18    5.46
   5  -7   1   22.62    3.49
   5  -7   1   30.45    4.42
   5  -7   1   25.28    2.18
   5  -7   1   24.10    2.24
   5  -7   1   24.74    5.28
  -5   7  -1   21.57    3.78
   5  -7   2   28.08    3.97
   5  -7   2   24.53    3.78
   5  -7   2   22.33    2.61
   5  -7   2   36.33    6.01
  -5   7  -2   23.24    3.71
   5  -7   3  162.85   12.41
   5  -7   3  170.07   10.69
   5  -7   4  336.75   21.63
   5  -7   4  339.77   19.89
   5  -7   5   52.81    6.92
   5  -7   5   77.42    8.50
   5  -7   6    8.22    3.35
  -5   6   9   18.70    4.48
  -5   6   8    4.53    2.72
   5  -6  -8    3.82    2.89
  -5   6   8    6.09    3.64
  -5   6   7   31.89    4.83
  -5   6   7   32.74    6.52
   5  -6  -7   40.58    6.21
  -5   6   6   34.20    4.44
  -5   6   6   27.50    5.66
   5  -6  -6   39.88    6.05
   5  -6  -5   24.27    4.56
  -5   6   5   15.98    4.37
  -5   6   5   14.13    2.86
   5  -6  -5   18.07    3.57
  -5   6   4  153.74   12.93
  -5   6   4  164.91   10.78
  -5   6   4  184.37   10.63
  -5   6   4  192.62    9.70
   5  -6  -4  153.03   11.21
  -5   6   3 1305.66   68.40
  -5   6   3 1486.10   66.12
   5  -6  -3 1361.35   66.24
  -5   6   2  227.09   15.38
   5  -6  -2  210.00   13.31
   5  -6  -2  224.77   13.73
   5  -6  -1    6.28    2.95
  -5   6   1    5.10    2.06
   5  -6  -1    5.41    1.56
   5  -6  -1    7.28    3.69
   5  -6  -1    6.10    1.57
  -5   6   0   42.24    4.55
   5  -6   0   42.43    4.29
   5  -6   0   44.45    5.68
   5  -6   0   44.19    3.61
   5  -6   1   87.38    7.63
   5  -6   1   94.29    7.00
  -5   6  -1   83.46    6.52
   5  -6   1   93.65    5.67
   5  -6   1   69.08    5.65
   5  -6   1  112.80   10.14
  -5   6  -1   74.20    7.63
   5  -6   2   79.03    5.21
   5  -6   2   80.14    6.87
   5  -6   2   60.74    6.01
   5  -6   2   55.73    5.17
   5  -6   2   98.00    9.04
  -5   6  -2   68.51    6.73
   5  -6   3   10.13    2.59
   5  -6   3    9.74    2.76
   5  -6   3    9.57    2.29
   5  -6   3   12.11    3.59
  -5   6  -3   10.71    2.48
   5  -6   4   60.85    5.62
   5  -6   4   46.41    5.76
   5  -6   4   49.42    5.40
   5  -6   4   65.27    7.41
  -5   6  -4   48.35    5.16
   5  -6   5   46.29    6.23
   5  -6   5   31.58    4.61
   5  -6   6    6.67    3.19
   5  -6   6    6.41    2.58
   5  -6   7   37.23    5.65
  -5   5   9   55.57    7.40
  -5   5   8   27.73    5.08
   5  -5  -8   24.78    5.03
  -5   5   8   32.64    6.67
  -5   5   7  106.59    9.76
  -5   5   7  117.78   12.25
   5  -5  -7  136.02   11.17
   5  -5  -6    6.03    2.73
  -5   5   6   10.07    3.78
  -5   5   6    8.98    2.95
   5  -5  -5   18.95    3.96
  -5   5   5   10.55    3.64
  -5   5   5   12.38    2.82
   5  -5  -5   20.09    6.10
  -5   5   4   34.69    5.58
  -5   5   4   41.30    3.64
  -5   5   4   34.88    4.15
  -5   5   4   43.32    3.11
   5  -5  -4   27.28    4.20
   5  -5  -4   40.21    7.31
   5  -5  -4   36.27    5.23
  -5   5   3   62.86    5.32
  -5   5   3   53.98    6.49
  -5   5   3   63.62    4.81
   5  -5  -3   59.73    8.43
  -5   5   3   64.58    4.37
   5  -5  -3   62.92    5.88
  -5   5   2  118.05    9.44
   5  -5  -2   98.65    6.76
   5  -5  -2  116.89   11.64
  -5   5   2  137.70    7.26
   5  -5  -2  122.60    8.32
   5  -5  -1    0.14    1.14
   5  -5  -1    0.57    2.04
  -5   5   1    0.43    1.52
   5  -5  -1    0.31    0.80
   5  -5   0  430.54   21.70
  -5   5   0  400.90   22.91
   5  -5   0  421.55   21.81
   5  -5   0  482.60   24.88
   5  -5   1    4.19    1.36
  -5   5  -1    1.99    1.42
   5  -5   1    4.76    2.23
   5  -5   1    2.47    1.26
  -5   5  -1    2.34    2.02
   5  -5   2   56.02    5.64
   5  -5   2   51.44    4.22
   5  -5   2   44.64    4.68
  -5   5  -2   38.72    5.29
   5  -5   3   80.17    6.63
   5  -5   3   64.30    6.19
   5  -5   3   57.64    5.70
   5  -5   3   77.11    7.66
  -5   5  -3   65.46    6.59
   5  -5   4    7.31    2.25
   5  -5   4    4.16    2.01
   5  -5   4    7.23    2.88
  -5   5  -4    5.85    2.06
   5  -5   5   10.17    2.81
  -5   5  -5    9.94    2.44
   5  -5   6   34.30    5.15
  -5   5  -6   34.57    4.43
   5  -5   7   60.79    7.35
  -5   5  -7   47.45    5.35
   5  -5   8   13.38    3.91
   5  -5   9   78.48    9.11
  -5   4   9   27.65    5.62
  -5   4   8   20.15    4.59
   5  -4  -8   16.81    4.13
  -5   4   8   18.78    5.25
  -5   4   7   95.69    9.13
  -5   4   7   85.08   10.37
   5  -4  -7  106.51    9.63
   5  -4  -6    5.97    2.59
  -5   4   6    4.21    3.02
  -5   4   6    7.56    2.85
   5  -4  -5    7.63    2.62
  -5   4   5    9.58    1.75
  -5   4   5    7.60    3.35
  -5   4   5    8.86    2.52
   5  -4  -5   12.20    4.78
  -5   4   4   42.13    6.18
  -5   4   4   55.32    4.03
  -5   4   4   49.01    5.18
   5  -4  -4   47.33    5.69
  -5   4   4   55.88    3.60
   5  -4  -4   53.72    8.15
   5  -4  -4   47.22    5.81
  -5   4   3   90.14    8.96
  -5   4   3  111.80    6.58
  -5   4   3   97.62    7.70
  -5   4   3  116.89    6.38
   5  -4  -3  103.89    8.46
   5  -4  -3  101.88   11.04
   5  -4  -3  105.64    9.05
  -5   4   2    2.54    1.98
  -5   4   2    1.95    1.04
  -5   4   2    1.20    0.81
  -5   4   2    1.63    1.30
   5  -4  -2    1.65    1.72
   5  -4  -2    0.40    2.62
  -5   4   1   30.89    4.26
   5  -4  -1   32.98    2.75
   5  -4  -1   37.14    5.32
  -5   4   1   30.82    2.85
   5  -4  -1   42.60    4.07
   5  -4  -1   38.70    5.84
  -5   4   1   30.46    3.91
   5  -4   0   42.94    3.60
   5  -4   0   45.80    5.58
  -5   4   0   45.94    4.86
  -5   4   0   45.18    3.66
   5  -4   0   45.30    4.10
   5  -4   0   54.95    6.66
  -5   4   0   50.35    5.18
  -5   4  -1   25.26    3.33
   5  -4   1   18.23    2.40
   5  -4   1   16.89    3.45
   5  -4   1   21.21    2.71
   5  -4   1   21.94    4.05
   5  -4   2  215.98   12.68
   5  -4   2  203.34   11.05
   5  -4   2  179.08   11.19
  -5   4  -2  169.33   11.28
  -5   4  -2  152.40   12.64
   5  -4   3 1124.94   48.38
  -5   4  -3  814.10   48.36
   5  -4   4  139.10   11.03
  -5   4  -4  151.97   11.39
   5  -4   5    0.80    1.60
   5  -4   5    2.79    1.13
  -5   4  -5    1.42    1.37
   5  -4   6   13.93    3.50
   5  -4   6   18.16    3.92
  -5   4  -6   15.74    3.20
   5  -4   7   96.51    9.59
  -5   4  -7   84.18    7.84
   5  -4   8   15.95    4.37
  -5   4  -8   13.73    3.04
   5  -4   9   16.49    4.34
  -5   3   8   11.29    3.72
   5  -3  -8   11.35    3.58
  -5   3   8    8.07    4.03
  -5   3   7   12.58    3.77
   5  -3  -7   17.82    3.86
  -5   3   7   11.09    4.25
  -5   3   6  118.58   11.80
  -5   3   6  116.11   10.13
   5  -3  -6  124.58    6.10
   5  -3  -6  118.48   10.08
  -5   3   5   21.57    3.86
  -5   3   5   29.84    2.10
  -5   3   5   27.80    2.71
  -5   3   5   18.88    4.60
   5  -3  -5   24.65    4.15
  -5   3   4  169.87    8.94
  -5   3   4  156.58   12.84
  -5   3   4  154.20   11.02
  -5   3   4  156.09    8.39
   5  -3  -4  157.95   11.38
  -5   3   3   58.73    6.88
  -5   3   3   68.78    4.29
  -5   3   3   65.88    5.97
   5  -3  -3   61.92    6.49
  -5   3   3   69.96    4.30
   5  -3  -3   74.38    8.91
   5  -3  -3   58.78    6.13
   5  -3  -2    7.48    2.27
  -5   3   2    7.50    2.04
  -5   3   2    9.52    2.71
  -5   3   2    9.75    1.31
  -5   3   2   12.12    1.54
  -5   3   2   10.39    2.25
   5  -3  -2    7.64    2.26
   5  -3  -2   10.11    3.78
   5  -3  -1   30.81    2.35
  -5   3   1   37.83    4.58
   5  -3  -1   38.77    5.36
   5  -3  -1   43.81    4.37
  -5   3   1   42.62    3.18
  -5   3   1   34.71    4.24
   5  -3  -1   42.88    5.81
  -5   3   1   42.14    4.22
  -5   3   0   31.59    4.03
   5  -3   0   32.67    2.65
   5  -3   0   31.35    4.50
  -5   3   0   39.31    3.14
   5  -3   0   38.45    3.87
  -5   3   0   38.37    2.36
   5  -3   0   41.37    5.46
   5  -3   0   34.19    3.14
  -5   3   0   33.76    3.85
  -5   3  -1   54.95    5.21
   5  -3   1   50.09    5.52
   5  -3   1   42.12    3.65
   5  -3   1   46.83    4.41
  -5   3  -1   63.88    4.24
  -5   3  -1   59.83    3.62
   5  -3   1   45.11    5.71
   5  -3   1   44.45    3.82
  -5   3  -1   77.98    6.01
  -5   3  -2    1.86    1.22
   5  -3   2    3.97    1.97
   5  -3   2    3.76    1.30
   5  -3   2    2.18    1.20
   5  -3   2    5.88    2.46
   5  -3   2    2.30    0.96
  -5   3  -2    1.78    1.72
   5  -3   3   85.90    6.81
   5  -3   3   90.06    7.56
   5  -3   3   76.80    5.20
   5  -3   4   52.40    5.09
   5  -3   4   59.18    5.93
   5  -3   4   44.84    3.63
  -5   3  -4   42.00    5.42
   5  -3   5   40.64    5.55
   5  -3   5   69.86    6.62
   5  -3   5   59.31    4.14
  -5   3  -5   51.16    5.82
   5  -3   6  154.18   12.51
   5  -3   6  177.36    9.16
  -5   3  -6  136.20   11.18
   5  -3   7    0.35    1.83
  -5   3  -7    1.00    1.64
   5  -3   8    4.31    2.75
  -5   3  -8    0.99    1.43
   5  -3   9   46.09    7.37
  -5   3  -9   40.65    5.36
   5  -3  10    4.71    3.44
  -5   3 -10    5.76    2.34
   5  -2  -8    0.34    2.49
  -5   2   8    3.50    3.29
  -5   2   8    2.75    2.70
   5  -2  -7   18.60    4.14
  -5   2   7   16.55    4.09
   5  -2  -7   22.00    2.22
  -5   2   6   62.87    7.20
   5  -2  -6   72.15    4.32
   5  -2  -6   65.37    7.07
   5  -2  -5   11.82    2.86
  -5   2   5   22.28    2.15
  -5   2   5   15.91    4.11
  -5   2   5   19.74    1.55
  -5   2   5   15.71    3.43
   5  -2  -5   12.52    1.30
  -5   2   4   31.43    2.49
  -5   2   4   19.42    4.32
  -5   2   4   19.48    3.58
  -5   2   4   27.57    2.17
   5  -2  -4   32.73    6.12
   5  -2  -4   27.51    3.86
  -5   2   3   58.13    6.87
  -5   2   3   78.71    4.25
  -5   2   3   62.22    6.11
   5  -2  -3   66.61    6.84
  -5   2   3   77.91    4.42
   5  -2  -3   51.72    7.52
   5  -2  -3   63.30    4.79
  -5   2   3   69.65    5.74
   5  -2  -3   57.75    5.85
  -5   2   2   26.27    4.12
  -5   2   2   26.44    3.50
  -5   2   2   27.19    1.86
   5  -2  -2   23.97    3.78
  -5   2   2   28.27    2.36
  -5   2   2   23.18    3.78
   5  -2  -2   30.52    5.23
   5  -2  -2   23.45    2.54
  -5   2   2   21.71    2.98
   5  -2  -2   24.94    3.52
  -5   2   1   95.69    8.53
  -5   2   1  108.57    7.98
   5  -2  -1  132.12   10.19
   5  -2  -1  125.35    8.64
  -5   2   1  126.11    6.79
  -5   2   1  102.01    8.20
   5  -2  -1  118.66   10.16
  -5   2   1  111.00    7.85
  -5   2   0    1.84    1.04
   5  -2   0    4.63    0.58
  -5   2   0    3.01    1.72
   5  -2   0    4.13    2.08
  -5   2   0    2.62    0.94
   5  -2   0    3.42    1.47
  -5   2   0    2.83    0.58
  -5   2   0    2.32    1.28
   5  -2   0    5.92    2.54
   5  -2   0    4.22    1.09
  -5   2  -1   79.44    6.45
   5  -2   1   71.29    6.63
   5  -2   1   60.67    4.23
   5  -2   1   70.86    5.71
  -5   2  -1   79.28    5.00
  -5   2  -1   67.46    5.71
  -5   2  -1   78.02    4.43
   5  -2   1   80.65    7.18
   5  -2   1   72.03    4.90
  -5   2  -1   79.45    6.01
  -5   2  -2  356.42   20.62
   5  -2   2  413.63   21.49
   5  -2   2  398.24   20.45
  -5   2  -2  425.22   19.45
  -5   2  -2  334.41   19.95
  -5   2  -2  389.26   18.95
   5  -2   2  416.32   22.04
   5  -2   2  376.44   19.14
  -5   2  -2  348.60   22.72
   5  -2   3   16.20    2.90
  -5   2  -3   15.99    2.04
   5  -2   3   14.64    2.93
   5  -2   3   15.46    1.88
  -5   2  -3   13.09    3.08
   5  -2   4   11.00    2.41
   5  -2   4   10.91    1.57
   5  -2   4   14.30    2.83
  -5   2  -4   10.47    2.80
   5  -2   5   11.32    2.65
   5  -2   5    6.77    1.27
  -5   2  -5    5.58    2.07
   5  -2   6   88.02    8.83
   5  -2   6   94.00    5.81
  -5   2  -6   89.07    8.30
  -5   2  -6  102.16    6.70
   5  -2   7   21.11    4.52
   5  -2   7   36.71    4.72
  -5   2  -7   25.94    4.18
   5  -2   8   27.17    5.27
   5  -2   8   32.53    4.74
  -5   2  -8   29.91    4.59
   5  -2   9   71.54    8.76
  -5   2  -9   65.61    7.05
   5  -2  10   50.20    7.98
  -5   2 -10   51.26    6.16
  -5   1   8   15.32    4.28
   5  -1  -8   17.01    4.07
  -5   1   8   10.34    4.30
  -5   1   7    0.37    2.42
   5  -1  -7    5.50    2.64
  -5   1   7   -0.45    2.71
  -5   1   6   74.79    8.06
  -5   1   6   65.19    8.46
   5  -1  -6   86.85    7.93
  -5   1   5  153.01    7.58
   5  -1  -5  142.87   10.69
  -5   1   4   58.08    6.36
  -5   1   4   66.46    4.02
   5  -1  -4   63.62    3.80
   5  -1  -4   63.42    4.63
   5  -1  -4   60.76    5.96
   5  -1  -3    4.67    1.66
  -5   1   3    3.66    1.38
  -5   1   3    3.55    2.28
  -5   1   3    3.65    0.74
  -5   1   3    4.71    0.98
  -5   1   3    3.33    1.90
   5  -1  -3    2.83    0.61
   5  -1  -3    5.21    3.22
  -5   1   3    2.96    1.96
  -5   1   2   45.56    5.52
  -5   1   2   42.32    4.82
  -5   1   2   53.40    2.73
   5  -1  -2   62.03    7.04
   5  -1  -2   49.67    5.57
  -5   1   2   49.27    3.45
  -5   1   2   39.32    4.85
   5  -1  -2   48.22    2.77
   5  -1  -2   55.71    6.86
  -5   1   2   43.92    4.14
   5  -1  -2   55.29    4.90
  -5   1   1   87.24    7.15
  -5   1   1   82.29    7.58
   5  -1  -1  109.39    7.94
  -5   1   1   99.40    5.75
   5  -1  -1   93.76    4.84
  -5   1   1   78.64    6.93
   5  -1  -1  106.10    9.10
  -5   1   1   89.05    6.44
   5  -1  -1  122.40    7.57
  -5   1   0  156.52   10.89
   5  -1   0  161.69   10.47
  -5   1   0  180.35    9.06
  -5   1   0  169.42    8.26
  -5   1   0  130.00    9.70
   5  -1   0  164.91   11.67
  -5   1   0  153.58    9.52
  -5   1  -1  257.14   15.43
   5  -1   1  259.54   14.95
   5  -1   1  290.03   16.31
   5  -1   1  245.95   12.33
  -5   1  -1  294.56   13.72
  -5   1  -1  230.26   14.35
   5  -1   1  286.90   16.32
  -5   1  -1  291.46   13.21
  -5   1  -1  267.25   14.22
  -5   1  -2 1542.27   78.15
   5  -1   2 1690.68   79.16
   5  -1   2 1622.77   77.85
  -5   1  -2 1702.69   76.61
  -5   1  -2 1592.93   77.61
   5  -1   2 1743.51   79.01
  -5   1  -2 1698.84   76.18
  -5   1  -2 1732.90   77.62
  -5   1  -2 1500.56   80.72
   5  -1   3  189.28   11.49
  -5   1  -3  180.60    9.77
  -5   1  -3  154.43   10.08
   5  -1   3  183.72   11.47
  -5   1  -3  174.57    9.69
  -5   1  -3  163.55   12.76
   5  -1   4   18.72    2.93
  -5   1  -4   11.77    2.14
   5  -1   4   21.75    3.19
  -5   1  -4   15.63    2.12
  -5   1  -4   14.83    3.18
   5  -1   5    0.91    1.40
  -5   1  -5    0.77    1.12
   5  -1   5    0.58    1.35
  -5   1  -5    0.28    1.24
   5  -1   5    1.20    0.75
   5  -1   6   54.52    6.75
  -5   1  -6   72.26    5.46
   5  -1   6   57.24    5.70
   5  -1   6   49.24    3.75
  -5   1  -6   51.76    6.17
  -5   1  -6   71.52    5.25
   5  -1   7   52.56    6.86
   5  -1   7   57.44    3.86
   5  -1   7   63.89    6.19
  -5   1  -7   55.98    6.36
  -5   1  -7   60.29    4.83
   5  -1   8   32.50    5.81
   5  -1   8   40.35    5.00
  -5   1  -8   36.42    5.16
   5  -1   9   15.84    4.43
  -5   1  -9   21.78    3.68
   5  -1   9   18.63    3.69
  -5   1  -9   13.29    3.36
   5  -1  10    9.73    4.00
  -5   1 -10    8.34    2.88
   5  -1  10    8.19    2.99
  -5   1 -10    9.59    3.05
  -5   0   8   16.32    4.46
   5   0  -8   20.80    4.42
  -5   0   8   13.04    4.40
  -5   0   7    9.83    3.53
   5   0  -7   15.89    3.71
  -5   0   7   15.20    4.60
   5   0  -6   66.06    3.82
  -5   0   6   60.24    7.36
  -5   0   6   50.27    7.44
   5   0  -6   63.56    6.77
  -5   0   5 1612.28   77.89
   5   0  -5 1543.29   71.32
  -5   0   5 1678.13   79.07
   5   0  -5 1550.41   72.21
   5   0  -5 1546.69   75.57
  -5   0   4  235.32   17.12
   5   0  -4  285.31   14.13
  -5   0   4  304.80   14.18
  -5   0   4  245.34   18.22
   5   0  -4  281.85   16.79
   5   0  -3   11.49    2.42
  -5   0   3   18.50    1.85
   5   0  -3   12.55    1.57
  -5   0   3   16.08    3.18
  -5   0   3   16.32    3.30
   5   0  -3   14.31    1.56
  -5   0   2   81.09    5.68
   5   0  -2   85.80    8.53
  -5   0   2   75.22    6.79
   5   0  -2   79.03    5.01
   5   0  -2   87.71    7.63
  -5   0   2   89.53    5.05
  -5   0   2   74.01    6.71
   5   0  -2   72.03    7.73
   5   0  -2   70.27    4.47
   5   0  -2   78.17    5.95
   5   0  -1   11.94    3.30
   5   0  -1    9.24    1.77
  -5   0   1    7.30    1.44
   5   0  -1   10.38    1.49
  -5   0   1    8.91    2.23
  -5   0   1    8.58    1.29
   5   0  -1    9.55    2.47
   5   0  -1   10.56    2.90
   5   0  -1    9.31    1.13
  -5   0   1    8.09    2.02
  -5   0   0  171.45   11.55
  -5   0   0  176.68   11.24
   5   0   0  185.67   11.40
   5   0   0  184.27    9.70
  -5   0   0  190.23    9.57
  -5   0   0  151.46   10.32
   5   0   0  163.90    8.91
   5   0   0  173.78   11.97
  -5   0   0  166.94    9.71
  -5   0  -1   39.50    4.34
   5   0   1   38.29    4.07
   5   0   1   39.08    4.52
   5   0   1   33.96    3.02
  -5   0  -1   41.37    3.10
   5   0   1   34.82    2.66
  -5   0  -1   30.23    3.32
   5   0   1   37.72    4.29
  -5   0  -1   38.19    2.84
  -5   0  -1   35.16    3.01
  -5   0  -2   95.25    7.32
   5   0   2   89.80    6.98
  -5   0  -2  105.25    6.12
  -5   0  -2   87.24    6.33
   5   0   2  108.00    7.58
  -5   0  -2  102.15    5.98
  -5   0  -2   94.17    6.21
  -5   0  -3  190.92   10.11
   5   0   3  191.93   11.42
  -5   0  -3  172.36   10.32
  -5   0  -3  179.64   10.01
  -5   0  -3  170.41   13.10
   5   0   4   24.80    3.38
  -5   0  -4   19.39    2.43
   5   0   4   19.12    2.90
  -5   0  -4   17.65    2.26
  -5   0  -4   22.14    3.92
   5   0   5  121.89    8.59
  -5   0  -5  115.74    7.22
   5   0   5  124.28    8.54
  -5   0  -5  119.54    7.69
  -5   0  -5  104.33    9.60
  -5   0  -6   22.57    2.91
  -5   0  -6   21.01    3.04
  -5   0  -6   16.75    3.50
   5   0   7   57.21    7.44
   5   0   7   68.73    6.12
  -5   0  -7   58.58    5.38
  -5   0  -7   56.25    6.57
   5   0   7   71.06    4.30
  -5   0  -7   58.57    5.24
   5   0   8   87.15    9.90
   5   0   8  120.91    8.90
  -5   0  -8  118.92    8.34
  -5   0  -8   95.24    9.05
  -5   0  -8  106.02    7.40
   5   0   9    1.32    2.63
  -5   0  -9    4.16    1.96
   5   0   9    3.54    2.36
  -5   0  -9   -0.29    1.55
   5   0  10    6.79    3.61
  -5   0 -10    4.62    2.37
   5   0  10    7.27    2.81
  -5   0 -10    3.63    2.26
  -5   0 -11   12.52    3.42
   5   1  -8    8.36    3.20
  -5  -1   8    7.95    3.79
  -5  -1   7    2.33    2.38
   5   1  -7    7.98    2.94
  -5  -1   7    4.78    3.29
  -5  -1   6   34.78    5.80
   5   1  -6   44.69    3.15
  -5  -1   6   38.96    6.36
   5   1  -6   48.07    5.64
   5   1  -5   23.39    2.23
  -5  -1   5   22.40    4.26
  -5  -1   5   20.25    4.46
   5   1  -5   25.55    3.85
  -5  -1   4  167.08   13.56
  -5  -1   4  150.08   12.54
   5   1  -4  192.18    9.97
  -5  -1   4  201.51    9.98
  -5  -1   4  153.34   12.50
   5   1  -4  199.89   12.35
  -5  -1   3   47.71    6.00
  -5  -1   3   43.04    5.30
   5   1  -3   49.15    3.62
  -5  -1   3   52.25    3.61
  -5  -1   3   42.40    5.13
   5   1  -3   51.13    4.83
  -5  -1   2  325.83   20.80
  -5  -1   2  345.94   17.55
   5   1  -2  425.30   23.38
  -5  -1   2  322.51   20.41
  -5  -1   2  405.60   18.07
   5   1  -2  369.70   18.04
   5   1  -2  344.99   17.75
  -5  -1   2  329.30   19.84
   5   1  -2  382.88   19.21
   5   1  -1    3.25    2.22
   5   1  -1    1.38    0.90
  -5  -1   1    3.74    1.88
  -5  -1   1    3.42    0.57
  -5  -1   1    2.35    0.86
   5   1  -1    1.61    0.81
  -5  -1   1    2.50    1.47
   5   1  -1    1.70    1.80
   5   1  -1    1.15    0.68
  -5  -1   1    2.50    1.36
  -5  -1   0   79.29    5.22
   5   1   0  111.98    8.52
  -5  -1   0   82.16    6.98
   5   1   0   98.29    5.83
  -5  -1   0   87.24    5.53
  -5  -1   0   72.26    5.92
   5   1   0  103.26    7.81
   5   1   0   90.10    5.39
   5   1   0  108.25    6.11
   5   1   1  169.92   10.73
   5   1   1  157.10    8.45
  -5  -1  -1  151.04    8.15
  -5  -1  -1  157.34    8.23
  -5  -1  -1  129.14    8.41
   5   1   1  135.47    7.87
   5   1   1  153.19    9.82
  -5  -1  -1  130.26    7.60
  -5  -1  -2   11.89    2.32
   5   1   2   16.17    2.82
   5   1   2   13.73    1.21
  -5  -1  -2   15.48    1.80
  -5  -1  -2   12.74    1.81
   5   1   2   13.79    1.68
   5   1   2   13.40    2.38
  -5  -1  -2   12.97    1.68
  -5  -1  -2    8.99    1.25
   5   1   3   80.37    6.25
   5   1   3   73.03    4.95
  -5  -1  -3   65.86    4.61
  -5  -1  -3   57.64    4.60
   5   1   3   80.08    5.74
  -5  -1  -3   66.54    4.78
  -5  -1  -3   53.64    6.57
   5   1   4   35.82    3.25
  -5  -1  -4   32.31    3.19
   5   1   4   42.07    3.99
  -5  -1  -4   31.74    4.88
  -5  -1  -5  279.38   14.98
  -5  -1  -5  285.39   15.51
  -5  -1  -5  249.23   17.90
   5   1   6   22.09    3.06
  -5  -1  -6   20.54    2.78
  -5  -1  -6   20.51    3.83
  -5  -1  -6   21.79    3.13
   5   1   7  314.97   17.06
  -5  -1  -7  316.96   16.69
  -5  -1  -7  262.99   18.32
  -5  -1  -7  274.11   16.48
   5   1   8 1395.61   69.94
   5   1   8 1399.95   65.10
  -5  -1  -8 1415.99   64.79
   5   1   9   39.03    6.73
   5   1   9   46.48    5.12
  -5  -1  -9   43.13    4.86
  -5  -1  -9   39.68    5.62
   5   1  10   17.95    5.08
   5   1  10   34.26    4.63
  -5  -1 -10   29.30    4.33
  -5  -1 -10   19.36    4.22
   5   1  11    6.90    3.73
  -5  -1 -11    6.14    2.79
   5   1  11    4.48    2.46
  -5  -1 -11    5.79    2.49
   5   2  -8    3.21    2.55
  -5  -2   8    3.16    2.90
   5   2  -7    4.86    2.48
  -5  -2   7    4.62    3.24
   5   2  -6   21.38    2.19
   5   2  -6   19.48    3.74
  -5  -2   6   13.17    3.94
   5   2  -5   55.45    4.04
  -5  -2   5   47.89    6.70
   5   2  -5   65.07    6.13
   5   2  -4   11.43    2.54
  -5  -2   4    6.88    2.95
  -5  -2   4   10.61    1.65
   5   2  -4   13.52    1.77
  -5  -2   4   10.04    3.03
  -5  -2   4    8.16    2.78
  -5  -2   3   35.25    4.94
  -5  -2   3   30.31    4.62
   5   2  -3   38.00    3.19
  -5  -2   3   43.87    3.33
  -5  -2   3   32.48    4.47
   5   2  -3   39.83    4.06
  -5  -2   2   32.33    4.53
  -5  -2   2   33.24    3.05
   5   2  -2   47.13    6.23
  -5  -2   2   28.67    4.26
  -5  -2   2   33.55    2.97
   5   2  -2   38.79    3.19
   5   2  -2   37.24    3.18
  -5  -2   2   28.28    3.78
   5   2  -2   50.53    4.11
   5   2  -1    7.15    2.80
   5   2  -1    4.88    1.28
  -5  -2   1    9.31    2.35
  -5  -2   1    9.62    1.27
  -5  -2   1   10.08    1.52
  -5  -2   1    9.59    2.44
   5   2  -1    8.22    2.54
   5   2  -1    6.92    1.34
   5   2  -1    6.12    2.21
   5   2  -1    4.48    1.12
  -5  -2   1    7.93    1.88
  -5  -2   0  290.88   18.27
  -5  -2   0  331.51   15.61
   5   2   0  353.94   19.82
  -5  -2   0  313.60   18.68
  -5  -2   0  358.82   16.75
   5   2   0  340.60   18.95
   5   2   0  328.60   16.67
  -5  -2   0  291.10   16.68
   5   2   0  335.22   18.49
   5   2   0  293.92   16.28
   5   2   0  353.31   16.36
  -5  -2  -1 1445.26   80.63
   5   2   1 2739.27   84.36
   5   2   1 2344.43   82.70
   5   2   1 1683.40   79.16
  -5  -2  -1 1676.52   78.95
  -5  -2  -1 1379.35   78.77
   5   2   1 2214.98   81.84
   5   2   1 1636.26   79.02
   5   2   2  510.37   25.02
   5   2   2  451.98   21.93
   5   2   2  455.74   24.39
  -5  -2  -2  505.18   22.80
  -5  -2  -2  519.05   23.15
  -5  -2  -2  449.41   22.47
   5   2   2  477.02   23.66
   5   2   2  421.65   22.56
  -5  -2  -2  454.90   21.13
   5   2   3   15.98    1.65
   5   2   3   14.90    2.68
   5   2   3   13.36    1.90
   5   2   3   11.62    2.43
  -5  -2  -3   20.63    2.15
  -5  -2  -3   17.53    1.94
   5   2   3   13.34    2.07
   5   2   3   12.35    1.84
  -5  -2  -3   17.93    2.19
  -5  -2  -3   15.22    1.26
   5   2   4   27.37    3.50
   5   2   4   23.21    2.17
   5   2   4   21.91    2.52
   5   2   4   20.60    2.49
   5   2   4   26.52    2.91
  -5  -2  -4   26.58    2.87
   5   2   5  260.43   14.48
   5   2   5  228.85   13.03
  -5  -2  -5  230.03   12.72
   5   2   5  263.11   13.73
  -5  -2  -5  247.59   13.51
  -5  -2  -5  216.85   15.83
   5   2   6   35.71    3.31
   5   2   6   34.10    3.59
  -5  -2  -6   28.95    3.40
  -5  -2  -6   25.49    4.35
  -5  -2  -6   27.87    3.78
   5   2   7   30.08    3.53
  -5  -2  -7   26.22    3.37
  -5  -2  -7   26.71    4.40
  -5  -2  -8   61.31    5.76
  -5  -2  -8   57.28    6.84
   5   2   9   22.55    3.50
  -5  -2  -9   28.77    3.82
  -5  -2  -9   23.00    4.30
  -5  -2 -10   -0.44    1.70
   5   2  10    1.80    1.97
  -5  -2 -10    0.32    1.60
  -5  -2 -11   82.12    7.71
   5   2  11   83.37    7.63
  -5  -2 -11   68.32    7.87
  -5  -2 -12    6.39    2.75
   5   3  -7   17.70    3.82
  -5  -3   7   13.69    4.32
  -5  -3   6   48.99    6.90
   5   3  -6   54.74    4.23
  -5  -3   6   49.05    7.27
   5   3  -6   59.00    6.34
  -5  -3   5   45.18    6.32
   5   3  -5   45.31    3.75
  -5  -3   5   39.04    5.86
   5   3  -5   49.20    5.36
   5   3  -4   14.82    2.73
  -5  -3   4   13.14    3.36
   5   3  -4   11.05    1.82
  -5  -3   4    8.43    2.71
  -5  -3   3   26.94    4.24
  -5  -3   3   25.24    3.15
  -5  -3   3   30.27    2.87
   5   3  -3   29.36    2.84
  -5  -3   3   22.73    3.67
   5   3  -3   28.04    3.39
  -5  -3   2   24.90    3.96
  -5  -3   2   33.53    3.22
  -5  -3   2   38.73    3.21
   5   3  -2   28.15    2.92
   5   3  -2   32.06    3.17
  -5  -3   2   32.14    3.72
   5   3  -2   33.83    3.38
  -5  -3   1   57.82    5.65
  -5  -3   1   65.71    4.40
   5   3  -1   57.62    6.53
  -5  -3   1   69.87    4.53
   5   3  -1   48.76    4.13
   5   3  -1   45.70    4.13
  -5  -3   1   55.38    4.57
   5   3  -1   58.40    4.29
  -5  -3   0   15.57    2.83
  -5  -3   0   15.86    1.79
   5   3   0   20.01    3.53
  -5  -3   0   15.60    2.02
   5   3   0   17.91    2.15
   5   3   0   16.87    3.18
  -5  -3   0   13.14    1.85
   5   3   0   17.72    2.73
   5   3   0   15.75    2.08
   5   3   0   19.35    1.89
  -5  -3  -1  117.15    8.83
  -5  -3  -1  117.00    7.07
   5   3   1  151.26   10.08
  -5  -3  -1  136.31    7.86
   5   3   1  135.29    9.45
   5   3   1  120.40    7.75
  -5  -3  -1  110.96    7.03
   5   3   1  125.20    8.29
   5   3   1  114.79    7.63
   5   3   1  157.26    6.61
  -5  -3  -2   63.11    5.68
   5   3   2   77.21    6.33
   5   3   2   71.74    4.56
   5   3   2   72.57    6.14
  -5  -3  -2   74.99    4.95
  -5  -3  -2   61.91    4.09
  -5  -3  -2   68.22    5.02
   5   3   2   65.38    4.98
   5   3   2   66.78    4.92
  -5  -3  -2   50.49    6.44
   5   3   3   21.56    3.13
   5   3   3   17.04    1.91
   5   3   3   16.93    2.17
   5   3   3   13.59    2.67
  -5  -3  -3   22.07    2.34
   5   3   3   15.92    2.11
   5   3   3   17.83    2.27
  -5  -3  -3   19.53    2.43
  -5  -3  -3   18.60    3.77
   5   3   4  466.25   22.79
   5   3   4  486.00   20.88
   5   3   4  443.35   21.20
   5   3   4  468.33   21.27
   5   3   4  394.00   21.08
  -5  -3  -4  429.29   21.38
  -5  -3  -4  419.64   24.57
  -5  -3  -4  384.76   19.16
  -5  -3  -5    2.84    0.70
   5   3   5    1.58    1.42
   5   3   5    1.66    0.84
  -5  -3  -5    4.06    1.13
   5   3   5    2.47    1.11
   5   3   5    1.36    1.03
  -5  -3  -5    3.66    1.48
   5   3   5    1.74    1.00
  -5  -3  -5    2.91    1.56
  -5  -3  -6    5.59    1.21
   5   3   6   11.88    1.86
  -5  -3  -6    6.27    1.78
   5   3   6   11.20    1.97
   5   3   6   10.59    1.87
  -5  -3  -7   30.38    3.17
   5   3   7   33.85    3.36
   5   3   7   34.99    3.65
  -5  -3  -7   33.81    3.90
  -5  -3  -8    7.67    1.87
  -5  -3  -8   11.54    2.48
   5   3   8    9.47    2.22
  -5  -3  -8    5.87    2.48
  -5  -3  -9   17.49    2.79
   5   3   9   13.95    4.20
  -5  -3  -9   14.73    2.97
   5   3   9   15.88    2.91
  -5  -3  -9   13.44    3.41
  -5  -3 -10   30.82    4.28
   5   3  10   43.38    7.20
   5   3  10   53.75    5.39
  -5  -3 -10   41.27    4.90
  -5  -3 -10   33.76    5.27
  -5  -3 -11    2.67    1.90
   5   3  11    6.32    3.70
   5   3  11    6.89    2.58
  -5  -3 -11   -0.33    1.69
  -5  -3 -12   24.06    4.25
   5   4  -7    4.40    2.37
  -5  -4   7    7.38    3.20
  -5  -4   6   39.64    6.27
   5   4  -6   37.56    3.57
  -5  -4   6   34.17    5.71
   5   4  -6   49.04    5.75
  -5  -4   5   19.38    4.32
   5   4  -5   19.43    2.50
  -5  -4   5   13.65    3.61
   5   4  -5   22.90    3.62
  -5  -4   4   13.96    3.37
  -5  -4   4   14.79    2.87
  -5  -4   4   15.14    3.64
   5   4  -4   16.13    2.29
  -5  -4   4   12.86    3.05
   5   4  -4   21.31    3.22
  -5  -4   3   87.76    8.43
  -5  -4   3  104.92    7.73
  -5  -4   3   95.61    9.05
   5   4  -3  116.03    7.13
  -5  -4   3   91.48    7.78
   5   4  -2    1.81    1.15
  -5  -4   2    1.56    1.69
  -5  -4   2    0.28    0.98
   5   4  -2    1.03    0.94
  -5  -4   2    0.27    1.69
  -5  -4   2    0.73    1.16
   5   4  -1    8.51    3.04
  -5  -4   1   15.12    2.81
  -5  -4   1   12.93    2.05
   5   4  -1    9.52    1.72
  -5  -4   1   11.15    2.82
  -5  -4   1   12.73    1.90
   5   4  -1    6.93    1.67
   5   4  -1   10.01    1.66
  -5  -4   0  181.99   11.48
  -5  -4   0  195.63   10.20
   5   4   0  195.63   12.78
  -5  -4   0  163.24   11.80
  -5  -4   0  195.57   10.23
   5   4   0  159.94    9.99
   5   4   0  172.44   10.25
  -5  -4   0  151.19    8.97
   5   4   0  191.46    9.43
  -5  -4  -1   50.79    5.02
  -5  -4  -1   52.65    4.10
   5   4   1   58.93    5.94
   5   4   1   55.47    5.71
  -5  -4  -1   59.16    4.47
   5   4   1   50.56    4.32
  -5  -4  -1   54.86    3.32
   5   4   1   52.40    4.41
   5   4   1   64.67    3.28
  -5  -4  -2    0.34    1.15
   5   4   2    0.58    1.30
  -5  -4  -2    1.11    0.71
   5   4   2    0.75    0.81
   5   4   2    0.60    1.25
  -5  -4  -2    1.15    0.88
   5   4   2    0.52    0.84
   5   4   2    0.94    0.86
  -5  -4  -2    0.59    1.66
   5   4   3   71.46    6.05
   5   4   3   68.56    6.11
   5   4   3   69.27    4.86
  -5  -4  -3   70.54    4.96
   5   4   3   67.66    5.04
  -5  -4  -3   73.67    5.42
   5   4   3   61.30    4.44
   5   4   3   56.75    4.90
  -5  -4  -3   66.30    7.06
   5   4   4  135.18    9.38
   5   4   4  136.62    8.15
   5   4   4  128.05    8.27
   5   4   4  144.57    8.00
   5   4   4  117.79    8.27
  -5  -4  -4  148.14    8.90
  -5  -4  -4  155.95   11.48
   5   4   5   97.09    7.27
   5   4   5   98.57    6.27
   5   4   5   88.25    6.27
   5   4   5   98.35    6.06
  -5  -4  -5   99.28    6.86
  -5  -4  -5   88.30    8.44
  -5  -4  -5   82.19    4.85
   5   4   6   68.24    4.95
   5   4   6   52.74    4.53
   5   4   6   63.51    4.71
  -5  -4  -6   56.81    5.15
  -5  -4  -6   53.85    6.37
  -5  -4  -6   58.51    4.12
   5   4   7  175.87   10.42
   5   4   7  180.20   10.57
  -5  -4  -7  197.49   11.49
  -5  -4  -7  157.38   12.77
  -5  -4  -7  166.92    9.95
   5   4   8  109.69    7.54
   5   4   8  125.94    8.26
  -5  -4  -8  125.33    8.77
  -5  -4  -8  111.95    7.74
  -5  -4  -9    5.61    1.84
  -5  -4  -9    5.00    2.07
   5   4   9    3.71    1.83
   5   4   9    2.27    2.85
  -5  -4 -10   -0.20    1.45
   5   4  10    0.98    2.67
   5   4  10    0.60    1.58
  -5  -4 -11   13.12    2.99
   5   4  11   22.85    5.77
   5   4  11   22.38    3.81
  -5  -4 -11   12.08    3.47
  -5  -4 -12    2.94    2.28
   5   4  12    1.24    2.18
  -5  -5   6   35.75    5.49
  -5  -5   6   31.90    4.89
   5   5  -6   36.39    5.05
   5   5  -5    3.93    1.98
  -5  -5   5    4.90    2.59
  -5  -5   5    3.10    2.17
   5   5  -5    3.05    1.35
  -5  -5   5    4.93    2.62
   5   5  -4   13.84    2.81
  -5  -5   4    7.31    2.63
  -5  -5   4    8.62    2.52
   5   5  -4   11.73    2.13
  -5  -5   4    9.77    3.30
   5   5  -3   39.03    4.14
  -5  -5   3   23.93    4.04
  -5  -5   3   37.07    4.27
  -5  -5   3   29.52    3.82
  -5  -5   3   25.86    4.60
   5   5  -3   35.55    3.59
   5   5  -2   52.33    4.50
  -5  -5   2   51.34    5.38
  -5  -5   2   43.73    5.72
  -5  -5   2   46.22    4.61
  -5  -5   2   43.22    4.06
   5   5  -2   49.57    4.32
   5   5  -1   56.88    4.35
  -5  -5   1   50.44    5.24
  -5  -5   1   45.41    5.74
  -5  -5   1   64.45    5.08
   5   5  -1   68.78    7.12
  -5  -5   1   46.65    3.63
   5   5  -1   56.02    4.63
  -5  -5   0  975.86   46.79
   5   5   0  967.86   44.44
  -5  -5   0 1076.14   46.05
   5   5   0 1169.77   50.18
  -5  -5   0  972.18   48.45
   5   5   0  812.75   45.19
  -5  -5   0  938.18   43.15
   5   5   1  146.12    9.75
  -5  -5  -1  170.00   10.71
  -5  -5  -1  176.64   10.05
   5   5   1  169.54   11.70
   5   5   1  172.43    8.50
  -5  -5  -2    9.18    2.11
  -5  -5  -2   10.65    1.83
   5   5   2    9.42    2.50
   5   5   2    9.90    2.01
  -5  -5  -2   13.13    3.16
   5   5   3   24.70    3.53
  -5  -5  -3   26.63    2.76
   5   5   3   20.96    3.42
   5   5   3   24.82    2.90
   5   5   3   24.13    2.78
  -5  -5  -3   30.96    3.36
   5   5   3   22.31    1.98
  -5  -5  -3   28.59    4.34
   5   5   4   31.34    3.87
   5   5   4   25.93    3.07
   5   5   4   24.87    2.98
  -5  -5  -4   46.61    4.19
   5   5   4   28.92    2.49
  -5  -5  -4   41.10    5.17
   5   5   5   45.87    4.76
   5   5   5   49.17    4.28
   5   5   5   41.93    4.02
   5   5   5   46.90    3.60
  -5  -5  -5   51.86    4.70
  -5  -5  -5   48.92    5.85
   5   5   6   54.29    4.49
   5   5   6   46.06    4.14
   5   5   6   49.00    3.83
  -5  -5  -6   51.21    4.79
  -5  -5  -6   47.99    5.77
  -5  -5  -6   39.41    3.20
   5   5   7   36.26    3.72
   5   5   7   40.15    3.73
  -5  -5  -7   51.09    4.78
  -5  -5  -7   40.87    5.38
  -5  -5  -7   39.87    3.50
   5   5   8   22.90    2.89
   5   5   8   26.30    3.14
  -5  -5  -8   25.29    3.53
  -5  -5  -8   22.17    4.18
  -5  -5  -8   24.98    3.06
  -5  -5  -9    8.35    2.08
   5   5   9    0.91    2.22
   5   5   9    4.21    1.56
   5   5   9    5.08    1.91
  -5  -5  -9    5.22    2.37
   5   5  10  123.57   12.46
   5   5  10  127.01    8.60
  -5  -5 -10   95.00    7.99
  -5  -5 -10   92.42    9.30
  -5  -5 -11    3.96    2.05
  -5  -5 -11    3.35    2.30
   5   5  11    4.86    2.38
   5   5  11    1.07    3.00
  -5  -5 -12   13.83    3.42
   5   5  12   15.08    3.42
  -5  -5 -13   29.92    5.05
   5   6  -5    8.93    2.75
  -5  -6   5   12.40    3.17
  -5  -6   5   12.88    3.18
   5   6  -5    9.89    2.25
  -5  -6   5    9.03    3.32
   5   6  -4   46.00    5.17
  -5  -6   4   43.99    5.23
  -5  -6   4   46.17    5.42
  -5  -6   4   39.65    6.01
   5   6  -4   41.26    4.25
  -5  -6   3    1.92    1.78
  -5  -6   3    2.74    1.87
  -5  -6   3    2.65    1.00
   5   6  -3    3.14    1.49
  -5  -6   3    1.89    2.17
  -5  -6   2   26.48    3.74
  -5  -6   2   24.81    4.51
  -5  -6   2   31.84    4.05
  -5  -6   2   29.67    2.26
   5   6  -2   32.87    3.56
  -5  -6   1   31.92    3.77
  -5  -6   1   27.70    4.35
   5   6  -1   30.20    5.13
  -5  -6   1   32.61    3.73
  -5  -6   1   25.25    1.53
  -5  -6   1   23.92    1.57
   5   6  -1   23.81    3.07
   5   6   0   37.97    3.88
  -5  -6   0   39.02    4.11
  -5  -6   0   30.56    4.50
  -5  -6   0   40.02    4.15
   5   6   0   49.23    5.73
   5   6   1  153.40    9.95
  -5  -6  -1  162.06   10.37
  -5  -6  -1  181.12   10.45
   5   6   1  158.47   11.33
  -5  -6  -1  163.83   12.28
  -5  -6  -2   13.54    2.23
   5   6   2    7.30    2.35
   5   6   2    6.82    1.95
  -5  -6  -2   10.82    2.80
   5   6   2   11.43    1.16
   5   6   3   50.30    4.43
   5   6   3   49.43    5.02
  -5  -6  -3   44.61    4.22
   5   6   3   54.75    4.86
  -5  -6  -3   46.38    5.65
   5   6   4   32.20    3.95
  -5  -6  -4   28.16    3.20
   5   6   4   38.16    3.80
   5   6   4   30.60    3.30
  -5  -6  -4   30.21    3.64
   5   6   4   29.08    2.12
  -5  -6  -4   26.20    4.16
   5   6   5   41.20    4.00
  -5  -6  -5   47.94    4.70
   5   6   5   43.75    3.22
  -5  -6  -5   46.54    5.47
   5   6   6  195.55   12.00
   5   6   6  210.55   11.22
  -5  -6  -6  232.24   13.17
  -5  -6  -6  207.44   14.29
  -5  -6  -7    5.42    1.30
   5   6   7    8.27    1.90
  -5  -6  -7    8.10    2.28
   5   6   7    7.54    1.59
  -5  -6  -7    8.74    2.67
  -5  -6  -8    6.49    1.58
   5   6   8    9.29    1.96
   5   6   8    9.97    1.99
  -5  -6  -8    4.98    2.20
   5   6   9   51.44    4.60
   5   6   9   53.14    4.81
  -5  -6  -9   44.49    4.58
  -5  -6  -9   53.06    6.33
   5   6  10  136.23    8.90
   5   6  10  157.68   14.48
  -5  -6 -10  152.93   10.64
  -5  -6 -10  135.50    9.74
  -5  -6 -10  130.97   11.24
  -5  -6 -11    6.41    2.26
   5   6  11    5.31    3.73
  -5  -6 -11    5.28    2.49
  -5  -6 -11    5.29    2.64
  -5  -6 -12   48.39    5.82
  -5  -6 -13  237.32   16.31
   5   7  -5   21.99    3.29
  -5  -7   5   31.75    4.93
  -5  -7   4   27.82    5.19
   5   7  -4   24.23    3.51
  -5  -7   4   31.55    4.59
   5   7  -3   -0.17    1.33
  -5  -7   3    1.30    2.27
  -5  -7   3   -0.19    1.56
  -5  -7   3    0.23    1.63
   5   7  -2   42.89    4.42
  -5  -7   2   43.44    4.57
  -5  -7   2   38.17    5.49
  -5  -7   2   38.11    4.74
   5   7  -1   81.30    6.31
  -5  -7   1   73.42    6.05
  -5  -7   1   81.79    6.75
  -5  -7   1   59.31    6.95
  -5  -7   1   72.18    5.36
  -5  -7   0   16.41    3.58
   5   7   0   20.91    2.97
  -5  -7   0   20.36    2.87
  -5  -7   0   18.41    3.14
  -5  -7   0   23.08    4.06
   5   7   1   21.76    3.07
  -5  -7  -1   20.64    3.10
   5   7   1   25.05    3.96
  -5  -7  -1   23.00    3.88
   5   7   2    4.04    1.08
   5   7   2    4.11    2.30
  -5  -7  -2    4.77    1.66
  -5  -7  -2    3.50    1.93
   5   7   3  190.99   12.42
   5   7   3  199.75   13.06
  -5  -7  -3  178.09   12.42
  -5  -7  -3  179.06   13.59
   5   7   4   18.00    2.63
   5   7   4   18.74    3.09
  -5  -7  -4   14.37    2.55
  -5  -7  -4   19.61    3.52
   5   7   5  161.42   10.14
  -5  -7  -5  175.41   10.97
   5   7   5  158.38    8.28
   5   7   5  170.90    9.10
  -5  -7  -5  158.16   11.62
   5   7   6 1388.32   68.18
  -5  -7  -6 1608.86   69.71
   5   7   6 1413.39   66.65
   5   7   6 1590.22   69.39
  -5  -7  -6 1330.36   70.30
   5   7   7  110.98    7.89
  -5  -7  -7  129.85    9.00
   5   7   7  113.11    7.08
  -5  -7  -7  123.15    9.94
   5   7   8   39.18    3.92
   5   7   8   38.97    3.53
  -5  -7  -8   33.83    4.81
  -5  -7  -8   25.27    3.15
   5   7   9    4.33    1.63
  -5  -7  -9    3.30    1.33
  -5  -7  -9    3.50    2.13
   5   7  10   77.64    6.09
   5   7  10   91.08   10.62
  -5  -7 -10   88.86    7.49
  -5  -7 -10   67.84    6.21
  -5  -7 -10   74.85    7.92
  -5  -7 -11   10.21    2.62
   5   7  11   11.04    4.69
   5   7  11   10.81    2.22
  -5  -7 -11   16.41    3.50
  -5  -7 -11   10.09    3.17
  -5  -7 -12   17.34    3.61
   5   8  -4    7.11    2.20
   5   8  -3    6.08    2.13
  -5  -8   3    8.83    3.10
  -5  -8   3   12.80    3.19
   5   8  -2   73.31    6.37
  -5  -8   2   73.25    7.06
  -5  -8   2   72.84    7.77
   5   8  -1  503.69   25.26
  -5  -8   1  424.09   26.65
  -5  -8   1  471.94   25.71
  -5  -8   1  474.44   24.06
  -5  -8   1  451.09   26.15
   5   8   0  188.50   12.14
  -5  -8   0  199.84   12.87
  -5  -8   0  194.74   13.09
   5   8   1    2.59    1.56
  -5  -8  -1    3.63    1.93
  -5  -8  -1    4.29    2.01
  -5  -8  -2   13.69    2.73
  -5  -8  -2   17.65    3.17
   5   8   3   55.64    5.20
  -5  -8  -3   55.13    5.49
  -5  -8  -3   59.83    5.86
   5   8   4    2.10    1.54
   5   8   4    0.18    1.59
  -5  -8  -4    0.53    1.44
  -5  -8  -4    0.88    1.20
   5   8   5    2.53    1.51
  -5  -8  -5    3.37    1.68
  -5  -8  -5    2.07    1.52
   5   8   6   47.12    4.58
  -5  -8  -6   53.53    5.35
  -5  -8  -6   42.36    5.21
   5   8   7   47.83    4.64
  -5  -8  -7   47.03    5.60
   5   8   8   20.92    2.97
   5   8   8   23.51    2.63
  -5  -8  -8   14.62    3.36
   5   8   9   73.65    6.12
  -5  -8  -9   92.91    7.63
  -5  -8  -9   75.68    6.30
  -5  -8  -9   73.07    7.59
  -5  -8 -10    2.75    1.53
   5   8  10    8.23    4.19
   5   8  10    2.57    1.51
  -5  -8 -10    6.27    2.69
  -5  -8 -10    5.40    2.63
  -5  -8 -11   19.12    3.39
  -5  -8 -11   21.92    4.42
  -5  -9   3   16.69    4.10
  -5  -9   2    6.45    2.94
  -5  -9   2    7.08    2.79
   5   9  -1   46.64    5.18
  -5  -9   1   46.33    6.13
  -5  -9   1   56.71    6.16
   5   9   0   22.51    3.55
  -5  -9   0   19.72    3.76
   5   9   1   42.66    4.80
  -5  -9  -1   53.29    5.61
  -5  -9  -1   44.50    4.72
  -5  -9  -2  151.23   10.57
  -5  -9  -2  139.46    9.72
   5   9   3    0.18    1.32
  -5  -9  -3    1.28    1.52
  -5  -9  -3    2.17    1.37
   5   9   4    5.32    1.92
  -5  -9  -4    3.26    1.75
  -5  -9  -4    4.22    1.73
   5   9   5    1.91    1.49
  -5  -9  -5    2.98    1.77
  -5  -9  -5    4.73    1.92
   5   9   6    7.67    2.07
  -5  -9  -6    4.18    1.76
   5   9   7    7.24    2.08
  -5  -9  -7    6.09    2.23
   5   9   8    6.86    2.08
  -5  -9  -8    3.16    2.10
  -5  -9  -8    1.25    1.72
   5   9   9   18.21    2.98
  -5  -9  -9    9.47    2.97
  -5  -9  -9    9.42    2.90
   5   9  10   22.90    6.13
   5   9  10   28.11    3.68
  -5  -9 -10   38.07    4.96
  -5  -9 -10   27.75    4.57
   5   9  11   67.46    9.68
  -5  -9 -11   54.53    6.76
  -5 -10   2   17.77    4.13
  -5 -10   0    8.95    2.98
   5  10   1   31.30    4.30
  -5 -10  -1   36.77   36.76
  -5 -10  -2   40.20    5.14
   5  10   3   39.90    4.70
  -5 -10  -3   54.88    5.83
   5  10   4   30.96    4.09
  -5 -10  -4   31.85    4.41
  -5 -10  -4   33.17    3.79
   5  10   5  115.65    8.27
  -5 -10  -5   95.77    8.21
  -5 -10  -5   95.46    7.46
   5  10   6   40.78    4.56
  -5 -10  -6   43.46    5.23
  -5 -10  -6   40.74    4.61
   5  10   7    6.18    2.14
  -5 -10  -7    7.58    2.25
   5  10   8    4.12    1.90
  -5 -10  -8    2.53    1.68
   5  10   9   28.22    3.72
  -5 -10  -9   16.01    3.38
   5  10  10   -0.47    3.52
   5  10  10   -0.52    1.60
  -5 -10 -10    0.27    1.58
   5  10  11    6.98    4.44
  -5 -11  -2    9.79    3.05
  -5 -11  -3    6.80    2.97
  -5 -11  -4   14.58    3.45
  -5 -11  -5   32.08    4.59
   5  11   6    6.59    2.27
  -5 -11  -6   10.52    2.95
   5  11   7    1.56    1.84
   5  11   8   87.63    7.11
  -5 -11  -8   73.39    6.80
   5  11   9   -0.57    1.79
  -5 -11  -9    0.46    1.66
   5  11  10   18.60    3.35
  -5 -11 -10   18.64    3.65
  -6  10   4   41.52    5.47
   6 -10  -3    2.86    1.81
  -6  10   3    9.09    2.82
   6 -10  -2  130.67    9.73
   6 -10  -1    5.88    2.53
   6 -10   0   21.68    3.91
   6 -10   1   32.32    4.97
  -6   9   6   40.29    6.64
  -6   9   5   20.05    4.68
   6  -9  -3   17.78    2.99
   6  -9  -3   23.31    7.26
   6  -9  -2   22.65    3.44
   6  -9  -2   32.31    7.77
   6  -9  -1    9.43    2.52
   6  -9  -1    7.55    5.36
   6  -9   0   59.22    6.06
   6  -9   0   66.21    9.78
   6  -9   1  342.05   21.18
   6  -9   1  442.95   27.71
   6  -9   2   38.52    5.17
   6  -9   3    0.29    1.93
  -6   8   6   37.24    6.59
  -6   8   5   21.95    4.99
   6  -8  -5   23.18    7.70
  -6   8   4    4.71    2.68
   6  -8  -4    1.99    5.01
   6  -8  -3   17.81    2.65
  -6   8   3   14.33    3.79
   6  -8  -3   25.35    7.09
  -6   8   2    7.29    2.71
   6  -8  -2    3.46    1.64
   6  -8  -2    4.11    4.87
  -6   8   1    7.30    2.41
   6  -8  -1    4.52    1.81
   6  -8  -1    2.73    4.19
   6  -8   0    1.76    1.55
   6  -8   0    0.51    3.57
   6  -8   1   20.64    3.59
   6  -8   1   24.96    6.29
   6  -8   2    9.04    2.85
   6  -8   2   14.16    4.89
   6  -8   3   25.87    4.44
   6  -8   3   34.43    6.78
   6  -8   4   78.29    8.01
  -6   7   6    1.70    2.99
   6  -7  -6    5.71    5.57
  -6   7   5   38.08    6.25
  -6   7   4   12.76    3.69
  -6   7   3   50.46    6.25
  -6   7   2    8.28    2.95
   6  -7  -2    2.95    1.30
   6  -7  -2    6.66    5.11
  -6   7   1   16.75    3.38
   6  -7  -1   11.39    2.22
   6  -7  -1   16.24    5.50
  -6   7   0  145.81   10.35
   6  -7   0  144.87    9.84
   6  -7   1   10.01    2.46
   6  -7   1    5.16    1.49
   6  -7   1    9.95    4.54
  -6   7  -1    7.46    2.88
   6  -7   2    3.64    1.86
   6  -7   2    5.19    3.38
  -6   7  -2    2.51    1.92
   6  -7   3    0.48    1.64
   6  -7   3    0.85    3.49
   6  -7   4   17.92    3.89
   6  -7   4   29.75    6.04
   6  -7   5   10.70    3.24
  -6   6   7   44.73    5.74
  -6   6   7   31.03    6.61
   6  -6  -7   47.20    7.10
   6  -6  -6   28.67    5.53
  -6   6   6   30.92    6.02
  -6   6   6   27.94    4.35
   6  -6  -5    2.21    2.59
  -6   6   5    3.52    3.06
   6  -6  -5    1.30    4.46
  -6   6   5    4.46    2.22
  -6   6   4   26.05    4.99
  -6   6   4   30.70    3.81
   6  -6  -4   31.69    7.45
   6  -6  -4   19.98    3.73
  -6   6   3   13.97    3.56
   6  -6  -3   10.00    4.90
   6  -6  -3   12.93    2.83
   6  -6  -2   81.87    6.56
  -6   6   2   79.14    7.56
   6  -6  -2   68.38    5.05
   6  -6  -1  169.07   10.30
  -6   6   1  166.01   11.72
   6  -6  -1  153.88    9.51
   6  -6   0  515.45   25.60
  -6   6   0  555.70   27.59
   6  -6   0  469.86   25.48
   6  -6   1  146.13    8.87
  -6   6  -1  156.93   10.29
   6  -6   1  134.32    9.31
  -6   6  -1  133.85   11.78
   6  -6   2   25.59    3.64
   6  -6   2   28.92    3.21
   6  -6   2   23.26    3.27
   6  -6   2   34.14    6.01
  -6   6  -2   25.30    4.40
   6  -6   3    8.25    2.47
   6  -6   3    7.37    2.26
   6  -6   3   10.29    3.95
  -6   6  -3    9.63    2.92
   6  -6   4   46.86    5.64
   6  -6   4   42.43    5.05
   6  -6   4   60.81    7.54
  -6   6  -4   53.26    5.95
   6  -6   5   24.01    4.37
   6  -6   5   27.46    4.38
   6  -6   6    8.75    3.04
   6  -6   6   12.26    4.06
  -6   5   8   29.81    5.32
  -6   5   7  584.46   33.31
  -6   5   7  613.56   36.74
   6  -5  -7  604.59   34.54
  -6   5   6  149.36   11.43
  -6   5   6  148.28   13.75
   6  -5  -6  159.72   13.00
   6  -5  -5   25.16    4.94
  -6   5   5   28.48    4.29
  -6   5   5   21.09    5.09
   6  -5  -5   22.88    6.81
  -6   5   4   76.15    8.42
  -6   5   4   84.23    7.10
   6  -5  -4   74.62   10.73
   6  -5  -4   78.74    8.28
  -6   5   3   21.33    3.24
  -6   5   3   23.76    4.58
   6  -5  -3   28.35    6.64
  -6   5   3   27.49    2.68
   6  -5  -3   25.06    4.13
  -6   5   2   78.87    7.88
   6  -5  -2   94.02   10.81
   6  -5  -2   90.87    7.42
  -6   5   1   11.00    2.88
   6  -5  -1    8.20    1.42
   6  -5  -1   11.08    4.05
   6  -5  -1    8.08    2.29
  -6   5   0   40.18    4.85
   6  -5   0   38.24    3.49
   6  -5   0   44.41    4.37
  -6   5   0   39.19    2.77
   6  -5   0   47.35    7.09
  -6   5  -1  110.48    8.41
   6  -5   1  102.07    7.23
   6  -5   1  108.24    7.43
   6  -5   1  127.98   11.30
  -6   5  -1  103.21   10.05
   6  -5   2    9.31    2.07
   6  -5   2    6.23    1.90
  -6   5  -2    3.67    2.31
   6  -5   3  109.54    8.83
  -6   5  -3  116.34   10.32
   6  -5   4   15.37    3.18
   6  -5   4   17.73    3.33
  -6   5  -4   14.57    3.38
   6  -5   5   23.98    4.19
  -6   5  -5   21.24    3.93
   6  -5   6   21.98    4.22
  -6   5  -6   16.98    3.56
   6  -5   7    6.42    3.47
   6  -5   7    3.82    2.63
   6  -5   8    1.53    2.57
  -6   4   8   35.03    5.80
  -6   4   7   24.00    4.64
   6  -4  -7   18.63    4.38
  -6   4   7   23.52    5.63
  -6   4   6  110.63    9.62
  -6   4   6  103.89   11.23
   6  -4  -6  115.17   10.18
   6  -4  -5   13.69    3.56
  -6   4   5   16.39    4.51
  -6   4   5   16.27    3.47
   6  -4  -5   18.23    6.32
  -6   4   4  221.69   14.26
  -6   4   4  200.39   15.78
   6  -4  -4  210.87   18.49
   6  -4  -4  237.06   15.67
   6  -4  -3    0.57    2.00
  -6   4   3    1.61    2.21
   6  -4  -3    3.52    4.17
  -6   4   3    1.43    1.59
  -6   4   3    0.75    0.91
   6  -4  -3    1.53    2.06
  -6   4   2   47.15    6.04
   6  -4  -2   69.23    8.92
   6  -4  -2   60.22    6.08
  -6   4   2   55.76    4.14
  -6   4   1   67.97    6.81
   6  -4  -1   62.01    4.03
   6  -4  -1   76.65    6.44
  -6   4   0   45.75    5.31
   6  -4   0   41.66    3.33
  -6   4   0   51.69    2.96
   6  -4   0   56.27    7.40
   6  -4   0   37.08    4.32
  -6   4  -1   20.39    3.38
   6  -4   1   21.21    2.42
   6  -4   1   24.98    3.24
  -6   4  -1   22.46    2.13
   6  -4   1   30.53    5.28
   6  -4   2   68.97    5.35
   6  -4   2   50.31    4.52
  -6   4  -2   44.94    5.01
   6  -4   2   63.46    7.27
  -6   4  -2   42.18    6.26
   6  -4   3  100.09    7.12
   6  -4   3   79.19    6.81
   6  -4   3  111.13    9.59
  -6   4  -3   80.43    8.53
   6  -4   4   25.20    4.54
  -6   4  -4   21.07    4.12
   6  -4   5  169.03   12.80
  -6   4  -5  172.44   12.80
   6  -4   6  819.08   42.84
  -6   4  -6  767.04   41.23
   6  -4   7   32.10    5.58
  -6   4  -7   39.93    5.33
   6  -4   8   12.29    3.88
  -6   4  -8    8.54    2.66
   6  -4   9    6.13    3.54
  -6   3   8   15.49    4.49
  -6   3   7   33.73    5.56
  -6   3   7   39.48    7.32
   6  -3  -7   47.31    6.42
  -6   3   6    0.91    2.13
   6  -3  -6    6.15    2.77
  -6   3   6    1.80    3.29
  -6   3   5    5.51    2.60
   6  -3  -5    5.88    2.49
  -6   3   5    2.85    2.87
  -6   3   4   29.33    5.38
  -6   3   4   22.06    4.03
   6  -3  -4   39.74    7.22
   6  -3  -4   29.71    4.50
  -6   3   3   28.49    4.99
  -6   3   3   41.50    2.76
  -6   3   3   35.86    4.61
  -6   3   3   42.13    3.17
   6  -3  -3   26.12    6.09
   6  -3  -3   29.30    4.55
  -6   3   2  166.39   13.49
  -6   3   2  190.17   12.56
   6  -3  -2  218.40   13.68
  -6   3   2  205.69   10.76
   6  -3  -2  204.56   16.29
  -6   3   1 1022.50   52.93
   6  -3  -1 1297.54   53.15
  -6   3   1 1035.29   49.51
   6  -3  -1 1244.95   57.60
  -6   3   1  909.48   51.10
  -6   3   0  215.11   14.57
   6  -3   0  202.00   11.09
   6  -3   0  246.20   14.04
   6  -3   0  273.30   17.48
  -6   3   0  249.17   11.09
  -6   3   0  239.64   14.01
  -6   3  -1   22.20    3.55
   6  -3   1   16.51    1.87
   6  -3   1   17.82    2.93
  -6   3  -1   22.94    2.00
   6  -3   1   23.45    4.58
  -6   3  -1   27.42    3.56
  -6   3  -2   21.66    3.39
   6  -3   2   20.02    3.05
   6  -3   2   19.60    2.44
  -6   3  -2   22.50    2.31
   6  -3   2   26.81    4.56
  -6   3  -2   22.85    4.51
  -6   3  -2   24.78    3.60
   6  -3   3  111.23    8.03
  -6   3  -3  108.39    6.95
  -6   3  -3   89.68    9.47
   6  -3   4   68.78    6.85
  -6   3  -4   42.64    6.14
   6  -3   5   19.27    3.91
  -6   3  -5   10.92    3.03
   6  -3   6   63.30    7.56
  -6   3  -6   63.12    7.13
   6  -3   7   31.50    5.47
   6  -3   7   36.49    5.45
  -6   3  -7   30.21    4.82
   6  -3   8    6.06    3.17
  -6   3  -8    6.95    2.71
   6  -3   9   62.81    8.45
  -6   3  -9   66.64    7.15
  -6   3 -10    0.58    1.94
   6  -2  -8   60.09    7.47
  -6   2   7   20.91    4.65
   6  -2  -7   28.60    4.95
  -6   2   6    7.45    3.26
   6  -2  -6    5.80    2.59
  -6   2   5   37.69    5.48
  -6   2   5   44.01    6.73
   6  -2  -5   52.63    5.95
  -6   2   4   20.88    4.66
  -6   2   4   24.48    4.20
  -6   2   4   30.08    2.45
   6  -2  -4   21.10    5.91
   6  -2  -4   20.52    3.55
  -6   2   3   29.91    4.41
  -6   2   3   29.17    5.01
  -6   2   3   39.12    2.33
  -6   2   3   40.73    3.04
   6  -2  -3   22.53    5.64
   6  -2  -3   25.86    4.01
  -6   2   2   11.49    2.26
  -6   2   2    9.37    3.08
  -6   2   2   15.66    1.85
  -6   2   2   12.86    2.82
   6  -2  -2   15.67    4.48
   6  -2  -2   20.40    3.44
  -6   2   1   83.82    7.05
  -6   2   1   67.12    7.25
   6  -2  -1   93.76    7.68
  -6   2   1   91.29    5.58
   6  -2  -1   86.00    9.13
  -6   2   1   79.92    6.49
  -6   2   0   71.56    7.00
   6  -2   0   79.54    6.66
  -6   2   0   80.57    5.28
  -6   2   0   76.85    4.25
   6  -2   0   93.29    8.76
  -6   2   0   69.24    5.90
  -6   2  -1   45.46    5.07
   6  -2   1   36.83    2.53
   6  -2   1   41.80    4.49
   6  -2   1   49.92    6.04
  -6   2  -1   48.65    3.13
  -6   2  -1   37.06    4.03
  -6   2  -2  227.48   15.19
   6  -2   2  267.11   15.09
   6  -2   2  256.61   13.26
  -6   2  -2  257.19   13.20
   6  -2   2  321.66   17.78
  -6   2  -2  200.34   16.91
  -6   2  -2  273.38   15.23
   6  -2   3    6.54    2.02
  -6   2  -3    2.27    1.16
   6  -2   3    3.31    1.90
  -6   2  -3    2.84    2.06
  -6   2  -4    0.71    1.08
   6  -2   4    0.25    1.67
  -6   2  -4    0.34    1.52
  -6   2  -5  104.08    7.31
  -6   2  -5   91.28    9.28
   6  -2   6    7.68    3.16
  -6   2  -6   10.55    2.31
   6  -2   6   11.44    3.20
   6  -2   6    9.22    1.58
  -6   2  -6    9.22    2.12
  -6   2  -6    9.48    2.94
   6  -2   7   11.67    3.58
  -6   2  -7   12.48    2.64
   6  -2   7   13.46    3.42
  -6   2  -7   10.65    3.03
   6  -2   8   45.01    7.02
  -6   2  -8   53.81    5.52
  -6   2  -8   42.24    6.00
   6  -2   9    0.45    2.69
  -6   2  -9    1.82    2.02
   6  -2   9    5.55    2.87
  -6   2  -9    0.61    1.77
   6  -2  10   19.28    5.49
  -6   2 -10   19.45    4.15
   6  -1  -8   14.87    3.97
  -6   1   7   14.28    3.97
   6  -1  -7   15.44    3.97
  -6   1   7   19.18    5.04
  -6   1   6   10.97    3.61
   6  -1  -6   14.13    3.59
  -6   1   6   10.58    4.09
  -6   1   5   62.93    7.29
   6  -1  -5   82.16    7.41
   6  -1  -4    2.27    1.78
  -6   1   4    2.52    2.19
  -6   1   4    3.84    1.03
   6  -1  -4    4.50    0.83
  -6   1   3   48.19    5.72
  -6   1   3   44.44    6.10
  -6   1   3   58.43    2.91
  -6   1   3   56.79    3.77
   6  -1  -3   40.79    2.74
   6  -1  -3   37.91    6.72
   6  -1  -3   46.53    5.08
  -6   1   2  184.28   14.27
  -6   1   2  207.47   13.79
  -6   1   2  237.51   11.24
   6  -1  -2  199.21    9.92
   6  -1  -2  222.00   16.25
   6  -1  -2  247.16   13.56
  -6   1   2  204.07   12.19
  -6   1   1   18.00    3.45
  -6   1   1   17.83    3.13
   6  -1  -1   25.97    4.06
  -6   1   1   21.92    2.23
   6  -1  -1   22.74    4.75
  -6   1   1   16.25    3.05
   6  -1  -1   23.18    3.33
  -6   1   1   17.45    2.52
  -6   1   0    6.79    1.61
  -6   1   0   10.31    2.72
  -6   1   0   10.20    1.60
   6  -1   0   11.34    2.62
   6  -1   0    9.23    2.95
  -6   1   0    8.81    2.14
  -6   1  -1   28.40    4.06
   6  -1   1   28.98    3.78
  -6   1  -1   34.27    3.03
  -6   1  -1   26.62    3.46
   6  -1   1   31.72    4.68
  -6   1  -1   33.98    2.56
  -6   1  -1   26.87    3.08
  -6   1  -2   93.65    7.82
   6  -1   2   98.91    7.62
   6  -1   2  110.31    8.79
  -6   1  -2  111.88    6.25
  -6   1  -2  104.20    7.10
   6  -1   3  120.41    8.65
  -6   1  -3  113.08    8.87
   6  -1   3  127.52    9.53
  -6   1  -3  126.86    7.38
  -6   1  -3  103.06   10.49
   6  -1   4   71.42    6.54
  -6   1  -4   64.81    4.96
  -6   1  -4   54.28    7.01
   6  -1   5  172.57   11.25
  -6   1  -5  147.63    9.27
   6  -1   5  135.82    8.33
  -6   1  -5  144.49   12.10
  -6   1  -6  139.15    9.01
   6  -1   6  128.81    7.72
  -6   1  -6  113.94   10.66
  -6   1  -6  131.51    9.13
   6  -1   7    2.73    2.32
  -6   1  -7    4.58    1.93
   6  -1   7    3.01    2.14
   6  -1   7    1.80    0.94
  -6   1  -7    2.09    1.45
  -6   1  -7    3.26    2.15
   6  -1   8    4.22    2.92
  -6   1  -8    8.52    2.44
   6  -1   8    6.38    2.73
  -6   1  -8    5.90    2.58
   6  -1   9   11.51    4.06
  -6   1  -9    6.62    2.75
  -6   1  -9    6.76    2.99
   6  -1  10    2.99    2.89
  -6   1 -10    3.21    2.35
  -6   0   7    1.95    2.63
   6   0  -7    1.90    2.13
  -6   0   7   -0.47    2.72
  -6   0   6   13.95    3.95
   6   0  -6   17.84    3.72
  -6   0   6   13.01    4.14
   6   0  -5   24.77    2.24
  -6   0   5   18.98    4.09
  -6   0   5   19.63    4.56
   6   0  -5   22.15    3.94
  -6   0   4   71.68    8.29
  -6   0   4   72.72    7.61
   6   0  -4   81.69    5.08
   6   0  -4   76.61    4.89
   6   0  -4   82.67    7.16
  -6   0   3   65.43    7.57
  -6   0   3   71.11    7.32
  -6   0   3   89.31    5.19
   6   0  -3   77.23    5.07
   6   0  -3   68.74    4.51
   6   0  -3   79.00    6.56
  -6   0   2 1052.46   46.07
   6   0  -2  817.69   41.40
  -6   0   2 1033.13   41.66
  -6   0   2  831.47   43.81
   6   0  -2  784.10   40.58
   6   0  -2  828.77   43.16
  -6   0   1  219.47   13.93
   6   0  -1  200.21   11.44
  -6   0   1  250.35   11.57
  -6   0   1  199.49   12.85
   6   0  -1  190.22   10.53
   6   0  -1  222.02   15.32
   6   0  -1  236.82   12.87
  -6   0   1  209.37   11.76
  -6   0   0   13.37    2.96
   6   0   0   15.93    2.06
  -6   0   0   16.45    1.97
   6   0   0   14.01    2.96
   6   0   0   17.09    3.68
   6   0   0   14.01    1.54
  -6   0   0   13.53    2.39
  -6   0   0   15.55    2.03
  -6   0  -1   16.72    3.06
   6   0   1   20.21    3.31
   6   0   1   13.41    1.97
  -6   0  -1   19.93    2.20
  -6   0  -1   18.80    1.95
  -6   0  -1   12.22    2.27
   6   0   1   14.69    3.21
  -6   0  -1   15.58    2.04
  -6   0  -2   20.90    3.37
   6   0   2   18.17    1.40
   6   0   2   22.38    3.46
   6   0   2   21.41    2.55
  -6   0  -2   32.94    2.84
  -6   0  -2   22.82    2.84
   6   0   2   22.00    3.58
  -6   0  -2   32.32    2.69
  -6   0  -2   27.44    2.67
   6   0   3  154.75   10.89
  -6   0  -3  171.07   11.43
  -6   0  -3  147.55    9.86
   6   0   3  181.65   11.68
  -6   0  -3  186.93    9.83
  -6   0  -3  171.92   10.04
  -6   0  -3  156.08   13.25
  -6   0  -4   33.94    3.55
   6   0   4   40.69    4.64
  -6   0  -4   37.52    3.49
  -6   0  -4   33.33    5.40
  -6   0  -5   15.88    2.44
   6   0   5   14.70    2.97
  -6   0  -5   16.15    3.69
   6   0   6   32.53    4.24
  -6   0  -6   31.79    3.59
  -6   0  -6   31.29    5.03
  -6   0  -6   29.31    3.87
   6   0   7   38.33    4.63
  -6   0  -7   29.02    3.72
  -6   0  -7   28.95    4.90
   6   0   8  122.80   12.52
  -6   0  -8  127.53    9.52
  -6   0  -8  129.12   11.35
   6   0   9    0.94    2.08
  -6   0  -9    4.70    2.42
   6   0   9    3.15    2.36
  -6   0  -9    1.68    1.82
   6   0  10    5.54    3.48
  -6   0 -10   10.14    3.00
   6   0  10    8.46    3.03
  -6   0 -10    6.66    2.90
   6   1  -7   21.26    4.53
  -6  -1   7   15.55    4.83
  -6  -1   6   58.52    7.44
  -6  -1   6   60.78    8.06
   6   1  -6   62.58    6.84
   6   1  -5   17.54    2.00
  -6  -1   5   11.41    3.51
   6   1  -5   20.65    3.76
  -6  -1   5   13.00    3.82
  -6  -1   4   57.43    7.25
  -6  -1   4   62.28    7.07
   6   1  -4   70.33    4.69
   6   1  -4   65.18    4.66
   6   1  -4   68.28    6.34
  -6  -1   3   23.45    4.43
  -6  -1   3   26.74    2.47
  -6  -1   3   25.88    4.39
   6   1  -3   25.75    2.61
  -6  -1   3   32.09    2.75
   6   1  -3   22.88    2.43
   6   1  -3   21.98    3.34
  -6  -1   2    9.37    3.19
  -6  -1   2   12.53    1.23
  -6  -1   2   11.93    1.81
   6   1  -2   13.26    1.89
  -6  -1   2   11.64    3.06
   6   1  -2   12.83    3.79
   6   1  -2   12.77    1.67
  -6  -1   2    8.51    2.36
   6   1  -2   14.28    2.43
  -6  -1   1  179.16   12.64
  -6  -1   1  177.18   12.86
   6   1  -1  175.21   10.30
  -6  -1   1  220.19   10.62
  -6  -1   1  174.86   11.47
   6   1  -1  175.37   13.25
   6   1  -1  172.05    9.79
   6   1  -1  202.28   11.02
  -6  -1   0    8.49    1.37
   6   1   0    8.42    1.55
  -6  -1   0    7.99    2.30
  -6  -1   0   12.03    1.77
   6   1   0    7.88    2.66
   6   1   0    8.06    1.37
  -6  -1   0    8.37    1.88
   6   1   0   10.41    1.83
   6   1   1  151.75   10.33
   6   1   1  137.82    8.57
  -6  -1  -1  160.33    8.58
  -6  -1  -1  162.16    8.46
  -6  -1  -1  132.06    8.87
   6   1   1  134.99    8.01
   6   1   1  144.82   10.50
  -6  -1  -1  135.62    7.83
   6   1   2   33.05    4.10
   6   1   2   29.79    1.88
   6   1   2   29.16    3.00
  -6  -1  -2   28.19    2.74
  -6  -1  -2   24.05    2.87
   6   1   2   27.43    2.63
   6   1   2   37.16    4.32
  -6  -1  -2   28.77    2.82
  -6  -1  -2   24.65    2.31
   6   1   3   63.61    3.77
   6   1   3   65.20    5.98
  -6  -1  -3   62.81    6.04
  -6  -1  -3   54.89    4.61
   6   1   3   70.31    5.94
  -6  -1  -3   65.95    4.77
  -6  -1  -3   55.03    7.09
  -6  -1  -3   57.69    4.18
   6   1   4  200.03   11.59
  -6  -1  -4  186.30   11.36
   6   1   4  222.00   12.79
  -6  -1  -4  215.74   11.70
  -6  -1  -4  187.25   14.92
   6   1   5   41.41    4.49
  -6  -1  -5   41.83    3.95
  -6  -1  -5   35.82    5.61
  -6  -1  -6    8.59    2.04
  -6  -1  -6    6.20    2.64
   6   1   7   45.08    4.87
  -6  -1  -7   37.25    4.18
  -6  -1  -7   33.07    5.37
   6   1   8  161.61   14.81
  -6  -1  -8  179.35   11.84
  -6  -1  -8  166.49   13.70
   6   1   9    6.60    3.57
  -6  -1  -9    5.42    2.37
   6   1   9    8.93    2.82
  -6  -1  -9    2.44    2.14
   6   1  10   82.78   10.79
   6   1  10   94.34    8.45
  -6  -1 -10  102.88    8.24
  -6  -1 -10   81.86    8.85
   6   2  -7   24.90    4.79
  -6  -2   7   19.60    5.10
  -6  -2   6   38.00    6.17
  -6  -2   6   38.66    6.46
  -6  -2   5   -0.70    2.30
   6   2  -5    0.67    0.95
   6   2  -5    1.74    1.98
  -6  -2   5    0.36    2.17
  -6  -2   4   41.62    6.05
   6   2  -4   57.13    4.24
   6   2  -4   56.10    4.34
   6   2  -4   58.36    5.76
  -6  -2   3   87.90    9.03
  -6  -2   3  102.65    6.66
  -6  -2   3   93.15    9.09
   6   2  -3  112.97    6.85
  -6  -2   3  113.36    6.79
   6   2  -3  108.83    6.81
  -6  -2   3   84.28    7.99
   6   2  -3  120.38    8.24
  -6  -2   2   39.25    5.44
  -6  -2   2   53.92    3.69
  -6  -2   2   47.26    5.79
  -6  -2   2   54.97    4.09
   6   2  -2   57.73    4.31
   6   2  -2   48.54    3.99
  -6  -2   2   47.21    4.98
   6   2  -2   49.50    4.60
  -6  -2   1   21.83    1.78
  -6  -2   1   17.91    3.56
  -6  -2   1   21.46    2.47
   6   2  -1   20.96    2.50
  -6  -2   1   18.51    3.48
  -6  -2   1   16.84    2.72
   6   2  -1   24.27    4.23
   6   2  -1   22.68    2.44
   6   2  -1   24.97    2.72
   6   2   0    7.40    1.39
  -6  -2   0    3.76    1.96
   6   2   0    5.19    2.25
   6   2   0    5.82    1.31
  -6  -2   0    3.47    1.27
  -6  -2   0    3.82    1.24
  -6  -2   0    2.17    1.63
   6   2   0    4.74    1.39
  -6  -2  -1  153.74   11.32
  -6  -2  -1  141.87    9.46
   6   2   1  170.36    9.54
   6   2   1  194.33   11.73
   6   2   1  176.91    9.94
  -6  -2  -1  176.37    9.66
  -6  -2  -2   64.56    6.18
   6   2   2   64.97    4.00
   6   2   2   67.84    5.09
  -6  -2  -2   77.46    5.20
  -6  -2  -2   61.01    4.69
   6   2   2   65.56    4.75
   6   2   2   70.29    5.98
   6   2   3  263.89   13.15
  -6  -2  -3  251.29   13.79
   6   2   3  246.35   13.93
   6   2   3  291.71   15.42
  -6  -2  -3  307.95   14.60
  -6  -2  -3  256.38   12.56
   6   2   4 2143.89   94.52
   6   2   4 1952.29   95.52
   6   2   4 1911.25   95.30
  -6  -2  -4 2192.24   95.77
  -6  -2  -4 1985.45   94.08
   6   2   5  189.90    9.99
   6   2   5  157.07   10.46
   6   2   5  194.83   11.54
  -6  -2  -5  194.42   11.18
  -6  -2  -5  165.58   13.80
   6   2   6   14.00    2.20
  -6  -2  -6   13.12    2.48
   6   2   6   13.30    2.51
  -6  -2  -6   12.09    3.44
  -6  -2  -7    9.45    2.29
   6   2   7    8.36    2.23
  -6  -2  -7    6.85    2.61
   6   2   8  169.52   11.16
  -6  -2  -8  163.17   10.69
  -6  -2  -8  140.33   12.37
   6   2   9   31.63    6.27
   6   2   9   39.51    4.77
  -6  -2  -9   35.14    4.35
  -6  -2  -9   26.34    4.92
   6   2  10   17.53    5.01
  -6  -2 -10   15.42    3.21
   6   2  10   16.99    3.49
  -6  -2 -10   14.12    3.71
   6   2  11   32.21    4.86
  -6  -2 -11   19.04    4.51
  -6  -2 -12    3.59    2.36
   6   3  -7   16.63    4.08
   6   3  -6    9.77    3.03
  -6  -3   6    8.62    3.43
   6   3  -5   12.92    2.02
   6   3  -5   16.92    3.51
  -6  -3   5   12.61    3.73
   6   3  -4   96.93    6.44
  -6  -3   4   96.09    7.08
   6   3  -4  110.15    8.20
  -6  -3   3  521.48   32.82
  -6  -3   3  578.09   30.15
   6   3  -3  687.89   30.36
  -6  -3   3  508.79   31.47
   6   3  -3  748.74   32.13
  -6  -3   2  183.83   14.37
  -6  -3   2  237.48   12.36
   6   3  -2  237.50   12.69
   6   3  -2  216.53   12.60
  -6  -3   2  200.51   13.23
   6   3  -2  281.55   13.86
  -6  -3   1   33.39    4.64
  -6  -3   1   45.18    3.31
   6   3  -1   34.94    3.46
  -6  -3   1   35.92    3.72
   6   3  -1   33.68    3.41
   6   3  -1   48.31    3.83
  -6  -3   0   26.25    3.85
  -6  -3   0   29.49    2.35
   6   3   0   29.11    3.01
  -6  -3   0   21.24    2.51
   6   3   0   23.62    3.78
   6   3   0   22.38    2.63
   6   3   0   29.74    2.54
  -6  -3  -1   53.36    5.56
  -6  -3  -1   57.00    3.44
  -6  -3  -1   50.28    3.84
   6   3   1   52.88    5.16
   6   3   1   42.40    3.97
   6   3   1   53.62    4.42
  -6  -3  -2   37.27    4.60
   6   3   2   45.47    3.32
   6   3   2   43.98    3.90
  -6  -3  -2   33.64    3.02
  -6  -3  -2   41.73    3.83
   6   3   2   43.23    4.29
   6   3   2   41.03    3.70
   6   3   3   16.83    1.94
  -6  -3  -3   20.94    3.30
  -6  -3  -3   19.67    2.65
  -6  -3  -3   18.44    2.04
   6   3   3   22.20    2.89
   6   3   3   13.53    2.12
  -6  -3  -3   19.39    4.08
   6   3   4  102.93    6.11
   6   3   4   95.74    6.69
   6   3   4   87.47    6.51
   6   3   4  101.28    6.89
  -6  -3  -4   97.55    6.82
  -6  -3  -4   89.63    9.26
   6   3   5  129.39    7.52
   6   3   5  115.72    7.91
   6   3   5  135.01    8.46
  -6  -3  -5  133.72    8.41
  -6  -3  -5  115.90    6.34
  -6  -3  -6   11.60    1.57
   6   3   6   13.61    2.01
   6   3   6   14.30    2.42
  -6  -3  -6   14.54    2.56
   6   3   6   12.30    2.19
  -6  -3  -7  220.08   12.09
   6   3   7  198.67   12.51
   6   3   7  239.91   13.49
  -6  -3  -7  237.74   13.64
  -6  -3  -8    7.15    1.71
  -6  -3  -8    7.62    2.28
   6   3   8   10.32    2.45
  -6  -3  -8    8.41    2.93
  -6  -3  -9   61.02    5.55
   6   3   9   71.71    9.48
   6   3   9   84.82    6.81
  -6  -3  -9   67.94    6.44
  -6  -3  -9   53.23    7.28
  -6  -3 -10   66.60    6.18
   6   3  10   82.25    7.08
  -6  -3 -10   75.23    6.96
  -6  -3 -10   57.13    7.47
  -6  -3 -11    0.68    1.65
  -6  -3 -11    2.18    2.28
   6   3  11    2.21    2.28
  -6  -3 -11   -0.36    2.03
  -6  -3 -12    1.03    2.08
  -6  -4   6    5.70    3.05
   6   4  -5    8.51    1.76
  -6  -4   5    9.33    3.42
   6   4  -5    8.20    2.68
  -6  -4   5   14.03    3.65
   6   4  -4   14.68    2.22
  -6  -4   4    9.13    3.32
   6   4  -4   17.17    3.09
  -6  -4   4   10.38    3.15
  -6  -4   4   14.25    2.73
  -6  -4   3   70.90    7.84
  -6  -4   3   61.87    7.06
  -6  -4   3   82.24    6.13
   6   4  -3   84.69    5.89
  -6  -4   3   66.37    6.30
   6   4  -3   88.13    6.64
  -6  -4   2   51.84    6.38
  -6  -4   2   50.83    6.01
  -6  -4   2   58.78    4.78
   6   4  -2   69.07    5.05
  -6  -4   2   43.63    4.55
   6   4  -2   69.91    5.23
  -6  -4   1   42.70    5.53
  -6  -4   1   37.10    4.84
  -6  -4   1   49.60    3.95
   6   4  -1   42.37    3.94
  -6  -4   1   37.17    3.55
   6   4  -1   54.03    4.12
  -6  -4   0  207.96   13.56
  -6  -4   0  198.69   14.07
  -6  -4   0  225.44   11.48
   6   4   0  191.52   11.81
  -6  -4   0  181.88   10.84
   6   4   0  247.58   11.22
  -6  -4  -1    1.46    1.57
  -6  -4  -1    0.58    0.71
   6   4   1    1.16    1.11
   6   4   1    0.14    1.24
   6   4   1    0.37    0.94
  -6  -4  -1    0.66    0.66
  -6  -4  -2    0.81    1.37
  -6  -4  -2    1.86    0.84
   6   4   2    4.87    1.38
   6   4   2    6.09    1.51
   6   4   2    4.99    1.56
   6   4   2    6.06    1.61
  -6  -4  -2    1.75    0.72
  -6  -4  -2    2.16    2.26
   6   4   3   19.74    2.39
  -6  -4  -3   22.97    2.93
   6   4   3   15.63    2.38
  -6  -4  -3   27.19    4.78
   6   4   4   24.75    2.71
   6   4   4   24.53    3.00
  -6  -4  -4   25.79    3.22
   6   4   4   26.22    2.89
  -6  -4  -4   23.29    4.45
   6   4   5    2.19    1.04
   6   4   5    2.45    1.29
  -6  -4  -5    2.44    1.45
   6   4   5    2.14    1.19
  -6  -4  -5    1.04    1.61
   6   4   6   40.67    3.63
   6   4   6   30.70    3.44
   6   4   6   35.00    3.56
  -6  -4  -6   31.55    3.71
  -6  -4  -6   30.33    5.10
  -6  -4  -6   26.68    2.28
  -6  -4  -7    2.57    0.95
   6   4   7   11.27    2.06
  -6  -4  -7    3.94    1.94
   6   4   7    8.91    2.03
  -6  -4  -7    2.73    2.10
   6   4   8   27.09    3.41
   6   4   8   34.54    4.01
  -6  -4  -8   40.15    4.58
  -6  -4  -8   38.07    3.51
   6   4   9  157.06   10.46
  -6  -4  -9  163.09   11.00
  -6  -4  -9  148.26    9.75
   6   4  10  423.66   27.43
   6   4  10  438.41   21.83
  -6  -4 -10  386.76   21.72
   6   4  11   40.38    7.64
   6   4  11   38.52    4.91
  -6  -4 -11   48.30    5.66
  -6  -4 -11   37.11    4.68
  -6  -4 -11   40.90    6.31
  -6  -4 -12    6.94    2.50
  -6  -4 -13    6.99    2.98
  -6  -5   6   -0.33    2.40
   6   5  -5   12.13    2.26
  -6  -5   5   12.61    3.60
  -6  -5   4   29.03    5.28
   6   5  -4   25.14    3.12
  -6  -5   4   30.89    4.82
  -6  -5   3   24.05    4.68
   6   5  -3   25.42    3.14
  -6  -5   3   23.41    4.00
  -6  -5   3   26.53    3.56
   6   5  -3   32.35    3.82
  -6  -5   2    8.80    2.94
   6   5  -2   13.41    2.33
  -6  -5   2    7.54    2.78
  -6  -5   2   12.56    2.41
   6   5  -2   15.63    2.51
  -6  -5   1   53.76    5.87
  -6  -5   1   71.88    5.30
  -6  -5   1   61.27    6.82
   6   5  -1   55.04    4.87
  -6  -5   1   53.43    3.97
   6   5  -1   72.83    4.93
  -6  -5   0   52.99    5.56
  -6  -5   0   59.02    6.39
  -6  -5   0   58.31    4.63
   6   5   0   49.19    4.58
  -6  -5   0   50.80    3.23
   6   5   0   63.43    4.06
   6   5   1   74.04    5.96
  -6  -5  -1   75.55    6.78
  -6  -5  -1   89.02    5.90
   6   5   1   82.96    4.20
   6   5   2   80.61    6.09
  -6  -5  -2   81.51    5.55
  -6  -5  -2   81.32    6.88
  -6  -5  -2   71.58    8.18
   6   5   3  172.80   10.41
   6   5   3  177.46    9.63
  -6  -5  -3  161.25   13.28
   6   5   4  120.14    7.70
   6   5   4  116.21    7.90
  -6  -5  -4  116.27    8.23
   6   5   4  113.66    7.10
  -6  -5  -4  122.43   10.71
   6   5   5   13.88    2.26
   6   5   5   13.36    2.28
  -6  -5  -5   15.05    2.73
   6   5   5   15.81    2.13
  -6  -5  -5   18.71    3.90
   6   5   6    1.18    1.30
  -6  -5  -6    0.52    1.37
   6   5   6    1.55    1.14
  -6  -5  -6   -0.33    1.66
   6   5   7   34.41    3.54
   6   5   7   41.07    3.63
  -6  -5  -7   21.36    3.28
  -6  -5  -7   15.22    1.90
  -6  -5  -7   17.84    4.07
  -6  -5  -8    3.50    1.22
   6   5   8    1.67    1.35
  -6  -5  -8    1.96    1.75
   6   5   8    2.43    1.48
  -6  -5  -8    3.79    2.22
   6   5   9   13.69    2.49
  -6  -5  -9   22.11    3.67
   6   5   9   15.48    2.84
  -6  -5  -9   12.63    3.59
  -6  -5  -9   19.47    2.73
  -6  -5 -10    8.76    2.21
   6   5  10   13.67    4.62
   6   5  10   10.20    2.20
  -6  -5 -10    7.38    2.60
   6   5  10   12.09    2.72
  -6  -5 -10    6.03    2.67
   6   5  11   40.24    7.46
   6   5  11   35.08    4.59
  -6  -5 -11   31.06    4.21
  -6  -5 -11   27.93    5.22
  -6  -5 -12    7.28    2.49
   6   5  12    3.82    2.36
   6   6  -4  222.51   13.90
  -6  -6   4  286.74   16.85
   6   6  -3   67.80    5.68
  -6  -6   3   57.16    7.40
  -6  -6   3   74.72    7.00
  -6  -6   3   69.27    6.29
   6   6  -2    0.77    1.17
  -6  -6   2    2.27    2.13
  -6  -6   2    1.84    1.88
  -6  -6   2    2.49    1.67
   6   6  -1   10.88    2.22
  -6  -6   1   17.35    3.83
  -6  -6   1   15.96    3.20
  -6  -6   1   19.79    2.93
   6   6   0    7.13    1.84
  -6  -6   0    7.20    2.76
  -6  -6   0    7.97    2.32
  -6  -6   0   10.10    2.19
   6   6   1   56.19    5.06
  -6  -6  -1   58.17    5.69
  -6  -6  -1   65.94    5.18
  -6  -6  -1   60.07    7.31
   6   6   2   15.79    2.59
  -6  -6  -2   24.28    2.87
  -6  -6  -2   19.43    4.08
  -6  -6  -3   26.73    2.95
   6   6   3   22.72    3.17
  -6  -6  -3   23.61    4.48
   6   6   4   34.38    3.80
   6   6   4   35.05    3.85
   6   6   4   38.80    2.74
  -6  -6  -4   45.39    6.00
   6   6   5    4.40    1.58
   6   6   5    5.51    1.21
  -6  -6  -5    5.95    2.02
  -6  -6  -5    4.54    2.50
   6   6   6  175.00   11.22
  -6  -6  -6  183.01   11.88
   6   6   6  194.15   10.41
  -6  -6  -6  171.78   13.58
  -6  -6  -7    2.94    0.84
   6   6   7    4.58    1.68
  -6  -6  -7    5.07    2.14
   6   6   7    4.05    1.47
  -6  -6  -7    4.58    2.39
   6   6   8   17.89    2.78
   6   6   8   16.56    2.64
  -6  -6  -8   21.27    3.39
  -6  -6  -8   15.79    3.76
  -6  -6  -8   16.76    2.12
   6   6   9   67.56    5.82
   6   6   9   76.66    6.08
  -6  -6  -9   71.73    8.04
  -6  -6  -9   65.53    5.41
  -6  -6 -10    4.53    1.77
   6   6  10    3.16    3.39
   6   6  10    5.05    1.72
  -6  -6 -10    1.84    2.12
   6   6  10    2.86    1.83
  -6  -6 -10    5.57    2.73
  -6  -6 -11    8.84    2.45
   6   6  11   18.31    5.58
   6   6  11   14.96    3.13
  -6  -6 -11    5.77    2.85
   6   6  12   22.14    3.92
   6   7  -4    8.28    2.24
   6   7  -3   64.28    5.77
  -6  -7   3   71.91    8.16
   6   7  -2    3.41    1.73
  -6  -7   2    5.65    2.65
  -6  -7   2    6.25    2.16
  -6  -7   2    6.88    2.30
   6   7  -1   35.27    4.12
  -6  -7   1   36.84    4.47
  -6  -7   1   36.84    5.43
  -6  -7   1   41.91    4.60
   6   7   0   16.90    2.79
  -6  -7   0   10.47    2.53
  -6  -7   0   14.03    2.70
   6   7   1   31.08    3.72
  -6  -7  -1   32.38    3.82
  -6  -7  -1   31.96    3.99
  -6  -7  -1   38.44    5.50
   6   7   2  145.56    9.99
  -6  -7  -2  164.81   10.19
  -6  -7  -2  158.35   12.39
  -6  -7  -3   45.89    4.39
  -6  -7  -3   42.65    5.81
   6   7   4    8.41    2.12
  -6  -7  -4    7.56    1.95
  -6  -7  -4    4.62    2.58
   6   7   5   70.32    5.65
  -6  -7  -5   54.27    5.55
  -6  -7  -5   56.34    6.68
   6   7   6  187.10   11.71
  -6  -7  -6  196.24   12.51
  -6  -7  -6  191.30   14.02
   6   7   7   22.21    3.10
  -6  -7  -7   17.80    3.52
   6   7   7   22.87    2.59
  -6  -7  -7   18.35    3.98
   6   7   8   99.88    7.22
   6   7   8   91.87    6.37
  -6  -7  -8  110.25    8.25
  -6  -7  -8  101.10    9.39
  -6  -7  -8   79.01    5.68
   6   7   9  389.70   21.69
   6   7   9  432.79   21.53
  -6  -7  -9  408.05   24.94
  -6  -7  -9  361.19   20.66
   6   7  10  104.22    7.86
   6   7  10  116.02   12.72
   6   7  10  120.83    8.18
  -6  -7 -10   99.62    9.86
   6   7  11   17.38    3.17
   6   7  11   14.88    2.82
   6   7  12    2.77    2.16
   6   8  -2    1.49    1.57
  -6  -8   2    8.12    3.12
  -6  -8   2    7.02    2.44
   6   8  -1   43.04    4.66
  -6  -8   1   39.37    5.90
  -6  -8   1   40.25    4.91
   6   8   0   13.18    2.74
  -6  -8   0   13.11    2.62
  -6  -8   0   14.83    3.00
  -6  -8   0   13.90    3.65
  -6  -8  -1   76.20    6.29
  -6  -8  -1   69.32    7.20
   6   8   2  926.99   48.87
  -6  -8  -2 1064.90   49.49
  -6  -8  -2 1062.62   51.67
  -6  -8  -3  190.55   12.03
  -6  -8  -3  193.24   13.78
   6   8   4    2.61    1.61
  -6  -8  -4    2.90    1.61
  -6  -8  -4    1.97    1.77
   6   8   5   26.38    3.44
  -6  -8  -5   21.56    4.06
   6   8   6   60.81    5.59
  -6  -8  -6   74.64    6.61
  -6  -8  -6   58.09    6.74
   6   8   7   18.01    2.98
  -6  -8  -7   25.80    3.94
  -6  -8  -7   21.34    4.15
   6   8   8   10.34    2.47
  -6  -8  -8    7.17    2.60
  -6  -8  -8    5.60    2.60
   6   8   9   42.24    4.61
  -6  -8  -9   38.64    5.69
   6   8  10    4.10    1.93
  -6  -8 -10    4.27    2.57
   6   8  11    2.05    1.71
  -6  -9   1    4.32    2.37
   6   9   0    0.99    1.67
  -6  -9   0    0.23    1.80
   6   9   1   10.39    2.62
  -6  -9  -1    9.75    2.84
   6   9   2   19.20    3.25
  -6  -9  -2   18.87    3.36
  -6  -9  -2   19.46    3.53
  -6  -9  -3   90.92    7.58
  -6  -9  -3   89.66    8.01
   6   9   4   37.85    4.58
  -6  -9  -4   50.25    5.13
  -6  -9  -4   52.69    5.75
   6   9   5   85.16    7.11
  -6  -9  -5   98.13    7.58
  -6  -9  -5   91.10    8.13
   6   9   6    3.14    1.65
  -6  -9  -6    6.37    2.33
   6   9   7   44.67    4.65
  -6  -9  -7   28.82    4.74
   6   9   8   59.32    5.48
  -6  -9  -8   37.30    5.52
   6   9   9    7.21    2.21
  -6  -9  -9    3.87    2.18
   6   9  10    5.06    2.08
  -6  -9 -10    0.63    1.93
   6   9  11   16.25    3.15
  -6 -10   0    2.00    2.07
  -6 -10  -1    1.20    2.01
  -6 -10  -2   14.34    3.28
  -6 -10  -3    4.34    2.34
   6  10   4    1.42    1.71
  -6 -10  -4    1.09    1.86
   6  10   5   12.19    2.71
  -6 -10  -5    6.85    2.50
  -6 -10  -5    4.66    2.00
   6  10   6   19.79    3.36
  -6 -10  -6   22.67    3.81
   6  10   7   63.69    6.00
  -6 -10  -7   65.16    6.66
   6  10   8  373.50   19.22
  -6 -10  -8  280.49   19.31
   6  10   9   57.18    5.51
  -6 -10  -9   44.34    5.85
   6  10  10    6.66    4.20
   6  10  10    5.61    2.22
  -6 -10 -10    6.21    2.67
  -6 -11  -4    1.93    2.14
  -6 -11  -5    4.24    2.27
  -6 -11 -10    4.42    2.30
   7  -9   2   10.41    2.97
   7  -9   3   81.55    7.91
  -7   8   5   17.58    4.89
  -7   8   4   55.49    7.24
  -7   8   3  251.80   17.08
  -7   8   2   51.86    6.30
   7  -8  -1    8.37    2.15
   7  -8  -1    9.25    5.55
   7  -8   0   10.36    2.36
   7  -8   1   20.87    3.47
   7  -8   2   28.39    4.29
   7  -8   3    6.65    2.63
   7  -8   4   14.19    3.59
  -7   7   5    8.77    3.77
  -7   7   4    1.07    2.65
   7  -7  -4    3.46    5.58
  -7   7   3   16.79    4.19
  -7   7   2   18.75    4.07
  -7   7   1   20.32    4.09
   7  -7  -1   17.49    2.48
  -7   7   0  107.81    9.23
   7  -7   0  136.97    8.53
  -7   7  -1    0.22    1.64
   7  -7   1    0.34    1.43
   7  -7   1    1.55    3.69
  -7   7  -1    3.03    2.32
   7  -7   2    2.34    1.78
   7  -7   2    2.50    3.91
   7  -7   3   61.70    6.43
   7  -7   3   95.29   10.65
   7  -7   4   10.29    2.94
   7  -7   5    7.42    2.82
  -7   6   5   19.66    4.82
   7  -6  -5    8.55    5.78
  -7   6   4   74.42    8.63
   7  -6  -4   72.33   11.39
  -7   6   3   13.07    3.87
   7  -6  -3   19.17    6.97
  -7   6   2    4.27    2.71
   7  -6  -2    2.95    3.88
  -7   6   1    5.58    2.60
   7  -6  -1    3.84    1.20
   7  -6  -1    6.53    4.64
  -7   6   0   31.95    4.61
   7  -6   0   30.18    3.16
  -7   6  -1   63.49    6.44
   7  -6   1   63.30    5.25
  -7   6  -1   53.67    7.55
   7  -6   2   33.43    3.91
  -7   6  -2   36.10    6.00
   7  -6   3   27.24    4.19
   7  -6   3   33.88    4.22
  -7   6  -3   28.83    5.20
   7  -6   4   43.27    5.24
   7  -6   4   42.22    5.28
  -7   6  -4   42.37    5.83
   7  -6   5    7.26    2.71
   7  -6   6    0.30    2.15
  -7   5   7    0.32    2.48
  -7   5   6   37.38    5.60
   7  -5  -6   40.97    6.50
  -7   5   5   37.57    6.54
  -7   5   5   38.99    5.38
   7  -5  -5   39.48    8.92
   7  -5  -5   38.57    6.29
  -7   5   4  330.39   22.31
  -7   5   4  354.00   20.37
   7  -5  -4  296.41   25.44
  -7   5   3  157.19   12.87
   7  -5  -3  151.16   15.66
  -7   5   2   30.93    5.03
   7  -5  -2   30.13    7.22
  -7   5   1   20.13    3.96
   7  -5  -1   24.46    6.19
   7  -5  -1   23.97    3.80
  -7   5   0   47.30    5.72
   7  -5   0   39.12    3.32
   7  -5   0   41.53    4.71
  -7   5  -1   70.20    6.68
   7  -5   1   55.16    4.56
   7  -5   1   59.73    5.52
   7  -5   1   73.91    9.03
  -7   5  -1   56.22    7.80
  -7   5  -2    2.09    1.93
   7  -5   2    3.55    1.54
   7  -5   2    4.10    1.80
  -7   5  -2    4.86    1.42
   7  -5   2    6.81    3.83
  -7   5  -2    2.40    2.25
   7  -5   3   10.29    2.40
   7  -5   3   11.53    2.46
   7  -5   3   14.00    4.54
  -7   5  -3   11.19    3.66
   7  -5   4   27.81    4.55
   7  -5   4   30.38    4.23
  -7   5  -4   30.14    5.21
   7  -5   5   22.36    4.45
   7  -5   5   22.21    3.95
  -7   5  -5   26.86    4.74
   7  -5   6   61.89    7.37
  -7   5  -6   66.70    7.31
   7  -5   7    1.77    2.44
  -7   4   7   10.28    3.62
  -7   4   6   39.50    5.81
  -7   4   6   34.79    6.76
   7  -4  -6   47.89    6.79
  -7   4   5   35.77    5.27
  -7   4   5   33.57    6.06
   7  -4  -5   34.25    5.75
   7  -4  -4    6.56    3.04
  -7   4   4    7.35    3.36
   7  -4  -4   11.59    5.56
  -7   4   4    8.29    2.74
  -7   4   3  112.55   10.61
  -7   4   3  125.27    9.50
   7  -4  -3  103.94   12.70
  -7   4   2    0.32    2.14
   7  -4  -2    1.57    3.53
  -7   4   1  118.64   10.26
   7  -4  -1  138.66   13.36
  -7   4   0   17.22    3.70
   7  -4   0   21.04    1.81
   7  -4   0   23.62    5.87
   7  -4   0   25.94    3.82
  -7   4  -1   39.82    5.23
   7  -4   1   45.04    3.52
   7  -4   1   44.02    4.83
  -7   4  -1   49.10    3.36
   7  -4   2   90.76    6.34
  -7   4  -2   86.39    7.89
   7  -4   2  105.97    7.77
  -7   4  -2   95.89    6.00
   7  -4   2  114.41   10.87
  -7   4  -2   81.76    9.54
   7  -4   3   29.93    3.57
  -7   4  -3   34.65    3.33
   7  -4   3   40.40    6.23
  -7   4  -3   23.34    4.95
   7  -4   4    2.28    1.65
  -7   4  -4    4.46    1.69
   7  -4   4    2.90    3.06
  -7   4  -4    3.00    2.36
   7  -4   5   22.24    4.46
  -7   4  -5   31.69    3.69
  -7   4  -5   24.68    4.87
   7  -4   6   46.42    6.51
  -7   4  -6   44.65    6.31
   7  -4   7    2.64    2.60
   7  -4   7    4.74    3.32
  -7   4  -7    3.87    2.31
   7  -4   8   58.70    8.11
  -7   4  -8   83.95    8.25
   7  -4   9  142.33   14.23
  -7   3   7    0.36    2.42
   7  -3  -7    0.70    2.31
  -7   3   6   17.07    4.16
   7  -3  -6   29.44    5.15
  -7   3   6   23.07    5.51
  -7   3   5   71.61    7.59
   7  -3  -5   78.53    7.95
  -7   3   4   34.99    5.96
  -7   3   4   40.09    5.46
   7  -3  -4   34.79    7.57
   7  -3  -4   44.57    5.89
   7  -3  -3   10.00    3.09
  -7   3   3    4.25    2.87
   7  -3  -3   10.61    4.66
  -7   3   3    6.38    2.50
  -7   3   2   18.26    4.06
   7  -3  -2   15.23    4.92
  -7   3   2   14.74    3.18
  -7   3   1   47.90    6.10
   7  -3  -1   62.24    8.53
  -7   3   0   15.52    3.47
   7  -3   0   28.87    5.65
  -7   3  -1  211.43   14.30
   7  -3   1  194.98   10.50
  -7   3  -1  239.08   11.08
  -7   3  -2 1277.69   65.62
   7  -3   2 1273.48   62.36
   7  -3   2 1624.02   69.86
  -7   3  -2 1465.88   62.59
  -7   3  -2 1118.96   68.25
   7  -3   3  131.08    8.79
  -7   3  -3  156.01    8.79
  -7   3  -3  125.35   12.26
  -7   3  -4    3.59    1.52
   7  -3   4    4.60    2.73
  -7   3  -4    3.52    2.46
  -7   3  -5    9.31    2.17
   7  -3   5   12.15    3.55
  -7   3  -5    5.28    3.02
   7  -3   6   87.65    9.84
  -7   3  -6  120.39    8.31
  -7   3  -6   99.37   10.01
   7  -3   7   40.91    6.53
  -7   3  -7   49.22    5.23
   7  -3   7   65.02    7.50
  -7   3  -7   45.65    6.48
   7  -3   8    2.55    2.61
  -7   3  -8   10.66    2.99
  -7   3  -8    5.07    2.57
   7  -3   9   16.96    4.76
  -7   3  -9   31.74    5.20
   7  -2  -7   24.64    4.93
  -7   2   6   62.08    7.88
   7  -2  -6   77.91    8.02
  -7   2   5  402.85   24.31
  -7   2   5  350.85   25.07
   7  -2  -5  427.51   24.01
  -7   2   4  126.43   12.11
  -7   2   4  127.21   11.01
   7  -2  -4  155.16   14.87
   7  -2  -4  164.47   11.60
  -7   2   3   36.11    5.00
  -7   2   3   28.52    5.31
   7  -2  -3   27.47    6.63
   7  -2  -3   36.24    5.06
  -7   2   2   60.80    7.24
  -7   2   2   66.70    6.75
   7  -2  -2   61.70    8.71
   7  -2  -2   69.57    6.79
  -7   2   1    9.51    3.01
   7  -2  -1    9.89    3.93
  -7   2   0   35.40    5.10
  -7   2   0   37.65    4.19
  -7   2  -1   16.91    3.40
  -7   2  -1   20.45    1.92
   7  -2   1   23.90    4.95
  -7   2  -1   17.26    2.77
  -7   2  -2   60.33    6.44
   7  -2   2   66.75    4.05
   7  -2   2   86.23    8.35
  -7   2  -2   71.43    4.69
  -7   2  -2   47.92    7.40
  -7   2  -2   61.37    5.62
  -7   2  -3  129.89   10.39
   7  -2   3  169.86   12.30
  -7   2  -3  144.14    8.53
  -7   2  -3  118.13   12.10
  -7   2  -3  158.25   10.38
  -7   2  -4    1.97    1.25
   7  -2   4    1.20    2.06
  -7   2  -4    0.81    2.13
  -7   2  -5  222.82   12.73
   7  -2   5  251.30   15.77
  -7   2  -6    8.93    2.35
   7  -2   6   11.71    3.29
  -7   2  -6    6.29    2.87
   7  -2   7   40.99    6.56
  -7   2  -7   45.54    4.81
   7  -2   7   55.26    6.59
  -7   2  -7   36.53    5.88
   7  -2   8   46.23    7.59
  -7   2  -8   69.01    6.35
  -7   2  -8   49.59    6.98
   7  -2   9    3.78    3.12
  -7   2  -9    6.51    2.70
  -7   2  -9    2.46   71.34
   7  -1  -7    6.42    3.07
  -7   1   6   12.06    3.84
   7  -1  -6   16.81    3.92
  -7   1   6    9.10    4.13
  -7   1   5   37.59    5.79
   7  -1  -5   50.57    5.96
  -7   1   4   51.95    6.73
   7  -1  -4   70.76    6.75
  -7   1   3   32.49    4.95
   7  -1  -3   22.97    5.97
   7  -1  -3   32.18    4.49
  -7   1   2  126.59   11.52
  -7   1   2  127.30   10.93
  -7   1   2  166.03    8.95
   7  -1  -2  154.92   13.87
   7  -1  -2  176.83   11.34
  -7   1   1    0.87    0.99
  -7   1   1    0.30    1.87
   7  -1  -1    1.60    2.81
  -7   1   1    1.76    1.65
  -7   1   0    5.46    1.52
  -7   1   0    4.75    2.19
   7  -1   0    3.58    2.81
  -7   1  -1   60.42    6.76
  -7   1  -1   81.60    4.83
   7  -1   1   71.99    7.98
  -7   1  -1   68.32    5.60
  -7   1  -2   40.11    5.03
   7  -1   2   48.89    6.00
  -7   1  -2   41.07    3.31
  -7   1  -2   36.71    3.85
  -7   1  -3   12.96    2.37
  -7   1  -3   12.96    2.96
  -7   1  -3   13.09    2.01
   7  -1   3   17.51    3.67
  -7   1  -3    6.38    3.04
  -7   1  -4   24.01    2.85
  -7   1  -4   16.86    4.30
  -7   1  -5    9.36    2.01
  -7   1  -5    8.49    3.29
   7  -1   6   25.12    4.42
  -7   1  -6   25.66    3.34
  -7   1  -6   18.65    4.32
  -7   1  -7  159.28   10.79
  -7   1  -7  146.52   13.02
   7  -1   8  298.18   22.96
  -7   1  -8  331.70   18.99
  -7   1  -8  258.80   20.49
   7  -1   9   42.34    7.33
  -7   1  -9   58.70    6.05
  -7   1  -9   48.89    6.93
   7   0  -7   16.22    4.16
  -7   0   6   18.25    4.49
   7   0  -6   20.66    4.06
  -7   0   6   24.35    5.42
  -7   0   5   18.90    4.52
  -7   0   5   17.17    4.58
   7   0  -5   28.12    4.32
   7   0  -4   13.00    1.90
  -7   0   4   10.64    3.48
   7   0  -4   17.85    3.49
  -7   0   4    8.77    3.47
  -7   0   3   25.87    4.60
  -7   0   3   23.30    4.78
   7   0  -3   25.46    2.66
   7   0  -3   22.31    2.13
   7   0  -3   28.83    3.92
  -7   0   2   54.25    6.49
   7   0  -2   67.76    4.90
   7   0  -2   60.60    3.94
   7   0  -2   70.94    8.62
   7   0  -2   78.53    6.35
  -7   0   1  125.94    7.93
  -7   0   1  135.37   10.32
   7   0  -1  120.59    7.73
   7   0  -1  117.34    6.71
   7   0  -1  123.10   11.30
   7   0  -1  143.09    9.15
  -7   0   0   67.92    7.11
   7   0   0   69.30    5.17
   7   0   0   69.06    4.28
   7   0   0   77.47    8.19
  -7   0   0   58.45    4.81
  -7   0  -1   97.48    8.94
   7   0   1  112.75    7.43
  -7   0  -1  119.65    6.76
  -7   0  -1  100.96    7.08
  -7   0  -2  118.06    9.62
   7   0   2  150.77   10.98
  -7   0  -2  141.11    7.69
  -7   0  -2  106.26    7.50
   7   0   3   17.37    1.52
  -7   0  -3   26.97    4.00
  -7   0  -3   25.33    2.69
   7   0   3   15.80    3.56
  -7   0  -3   25.70    5.28
  -7   0  -3   20.55    2.54
  -7   0  -4    8.03    1.93
  -7   0  -4    9.60    1.91
   7   0   4   11.05    2.95
  -7   0  -4    5.44    2.84
  -7   0  -5   20.39    2.91
  -7   0  -5   18.86    4.58
  -7   0  -6   19.07    3.00
   7   0   6   18.74    3.60
  -7   0  -6   14.95    4.05
  -7   0  -7   14.46    2.84
   7   0   7   14.67    3.47
  -7   0  -7   13.92    3.81
   7   0   8   28.68    4.53
  -7   0  -8   24.31    3.68
  -7   0  -8   15.29    4.10
   7   0   9   18.76    5.02
  -7   0  -9   21.25    3.78
   7   0   9   21.71    4.23
  -7   0  -9   14.20    3.90
   7   0  10   18.65    5.34
  -7   0 -10   16.59    4.37
   7   1  -7   16.13    4.09
  -7  -1   6  298.51   20.36
   7   1  -6  222.18   16.24
  -7  -1   5   83.45    8.96
  -7  -1   5   79.53    9.21
   7   1  -5   81.91    7.75
   7   1  -4   10.74    2.75
  -7  -1   4    9.64    3.49
   7   1  -4   11.89    1.93
  -7  -1   4   11.44    3.54
   7   1  -3   10.14    2.41
  -7  -1   3    7.81    3.39
   7   1  -3    7.86    1.62
  -7  -1   3   11.27    3.37
   7   1  -3    6.54    1.41
  -7  -1   2   32.26    5.13
  -7  -1   2   37.02    5.28
   7   1  -2   33.89    3.27
   7   1  -2   29.58    2.75
   7   1  -2   31.70    3.83
  -7  -1   1  104.40    9.30
  -7  -1   1  107.61    9.14
   7   1  -1  102.25    6.84
  -7  -1   1  106.09    7.83
   7   1  -1   89.05    6.03
   7   1  -1  112.94   10.24
   7   1  -1  116.29    7.66
   7   1   0    2.82    2.65
   7   1   0    2.84    1.03
  -7  -1   0    4.77    1.58
   7   1   0    3.62    1.33
  -7  -1  -1    2.64    0.92
   7   1   1    4.76    1.44
   7   1   1    7.18    2.66
   7   1   1    4.01    1.11
  -7  -1  -1    4.17    1.60
   7   1   2   44.41    4.31
  -7  -1  -2   69.50    4.67
  -7  -1  -2   56.64    4.71
   7   1   2   41.46    3.79
   7   1   2   53.63    5.94
  -7  -1  -2   57.43    3.90
   7   1   3   41.12    2.69
  -7  -1  -3   38.21    5.01
   7   1   3   43.72    4.15
  -7  -1  -3   39.14    3.86
   7   1   3   48.32    5.42
  -7  -1  -3   49.06    3.97
  -7  -1  -3   37.05    3.16
  -7  -1  -3   43.42    6.81
   7   1   4  194.18    9.69
   7   1   4  220.45   13.13
  -7  -1  -4  193.96   11.04
  -7  -1  -4  152.54   14.18
  -7  -1  -4  162.05   10.22
  -7  -1  -5    5.38    1.85
   7   1   5    6.51    2.19
  -7  -1  -5    8.29    3.25
  -7  -1  -6   24.42    3.21
   7   1   6   19.43    3.51
  -7  -1  -6   15.14    4.00
   7   1   7  115.76    8.97
  -7  -1  -7  101.14    7.68
  -7  -1  -7   87.30    9.69
  -7  -1  -8    3.86    2.12
   7   1   8    3.48    2.21
  -7  -1  -8    3.89    2.51
   7   1   9   13.66    4.46
  -7  -1  -9   25.09    3.91
   7   1   9   22.77    4.11
  -7  -1  -9   14.88    4.02
   7   1  10   17.18    5.15
  -7  -1 -10   12.37    3.19
   7   1  10   18.61    4.03
  -7  -1 -10   12.00    3.78
  -7  -2   5   63.80    7.96
  -7  -2   5   65.74    8.26
   7   2  -5   69.66    7.04
   7   2  -4    3.32    1.30
  -7  -2   4    4.69    2.82
   7   2  -4    4.22    2.19
  -7  -2   4    2.17    2.22
  -7  -2   3   42.65    6.39
  -7  -2   3   53.87    6.83
   7   2  -3   64.46    4.80
   7   2  -3   57.90    4.53
   7   2  -3   64.02    5.74
   7   2  -2   13.77    2.54
  -7  -2   2    7.09    2.87
   7   2  -2    9.27    1.82
  -7  -2   2   10.29    3.12
   7   2  -2    9.80    1.73
  -7  -2   2    8.12    2.30
  -7  -2   1   51.85    6.32
  -7  -2   1   57.65    6.50
   7   2  -1   54.95    4.61
  -7  -2   1   52.68    4.99
   7   2  -1   51.75    4.21
   7   2  -1   54.27    6.80
   7   2  -1   64.08    4.88
  -7  -2   0  147.51   11.77
  -7  -2   0  153.05    9.98
   7   2   0  164.87    9.47
   7   2   0  182.68   12.84
   7   2   0  177.58   10.09
  -7  -2  -1   53.61    5.93
  -7  -2  -1   47.43    4.32
   7   2   1   52.26    4.16
   7   2   1   55.84    6.24
   7   2   1   55.91    4.63
  -7  -2  -2    3.66    2.00
   7   2   2    6.27    1.59
   7   2   2    3.92    2.15
   7   2   2    3.21    1.22
  -7  -2  -2    4.00    1.29
  -7  -2  -2    4.87    1.43
   7   2   3   63.00    3.74
   7   2   3   55.93    4.96
  -7  -2  -3   67.06    5.03
  -7  -2  -3   53.69    4.43
   7   2   3   54.85    4.53
   7   2   3   66.72    6.17
  -7  -2  -3   53.46    3.25
   7   2   4  182.46    9.32
  -7  -2  -4  172.92   10.09
   7   2   4  214.00   12.20
  -7  -2  -4  197.64   10.77
  -7  -2  -4  150.91    8.73
   7   2   5   58.30    4.10
   7   2   5   58.33    4.99
   7   2   5   54.90    5.48
  -7  -2  -5   55.64    4.97
  -7  -2  -5   42.26    6.66
   7   2   6  150.45    8.71
   7   2   6  127.73    9.28
   7   2   6  166.67   10.78
  -7  -2  -6  170.79   10.18
  -7  -2  -6  129.10   12.59
   7   2   7  596.46   31.88
  -7  -2  -7  538.93   34.45
   7   2   8  111.72    8.84
  -7  -2  -8  109.42    8.37
  -7  -2  -8   99.30   10.29
   7   2   9   43.30    5.34
  -7  -2  -9   38.47    4.74
  -7  -2  -9   32.99    5.78
   7   2  10    9.26    4.27
  -7  -2 -10    7.43    2.78
   7   2  10    6.61    2.85
  -7  -2 -10    8.31    3.39
  -7  -2 -12    6.00    2.52
  -7  -3   5    1.12    2.68
   7   3  -4    5.71    1.69
  -7  -3   4    5.90    2.97
   7   3  -3   33.50    3.47
   7   3  -3   36.83    4.24
  -7  -3   2   14.38    3.59
   7   3  -2   23.44    2.89
  -7  -3   2   17.88    4.16
  -7  -3   2   19.89    3.08
   7   3  -2   26.84    3.29
  -7  -3   1   88.52    8.44
  -7  -3   1   91.34    8.73
   7   3  -1   93.84    6.65
  -7  -3   1   85.10    6.50
   7   3  -1   88.60    6.28
   7   3  -1  102.69    6.52
  -7  -3   0 1247.35   69.47
  -7  -3   0 1518.98   65.20
   7   3   0 1354.53   67.22
  -7  -3   0 1149.30   66.41
   7   3   0 1276.61   66.62
   7   3   0 1876.95   72.25
   7   3   0 1693.57   66.57
  -7  -3  -1  203.35   13.83
  -7  -3  -1  204.49   11.32
   7   3   1  196.04   11.58
   7   3   1  207.02   13.48
   7   3   1  214.49   12.15
  -7  -3  -2    5.08    2.23
   7   3   2    3.23    1.39
   7   3   2    3.27    1.95
   7   3   2    3.26    1.39
  -7  -3  -2    4.32    1.22
   7   3   3   17.32    1.97
  -7  -3  -3   19.38    3.44
  -7  -3  -3   21.29    2.82
  -7  -3  -3   16.67    2.13
   7   3   3   16.93    3.08
  -7  -3  -3   20.33    4.71
   7   3   4   69.31    4.94
   7   3   4   79.47    6.47
  -7  -3  -4   86.12    6.25
  -7  -3  -4   74.87    8.96
   7   3   5   85.52    5.63
   7   3   5   74.87    6.24
   7   3   5   93.84    7.01
  -7  -3  -5   86.36    6.51
  -7  -3  -5   66.46    8.61
  -7  -3  -6    6.93    1.11
   7   3   6   11.82    1.91
  -7  -3  -6    9.20    2.16
   7   3   6    8.45    2.28
   7   3   6    8.89    2.13
  -7  -3  -7   51.37    4.03
   7   3   7   54.97    5.04
  -7  -3  -7   57.55    5.52
  -7  -3  -8   28.34    3.05
   7   3   8   25.34    3.78
  -7  -3  -8   29.39    4.01
  -7  -3  -8   18.94    4.58
  -7  -3  -9    2.55    1.48
  -7  -3  -9    1.76    1.98
   7   3   9    3.17    2.23
  -7  -3  -9    4.39    2.50
  -7  -3 -10   25.53    3.63
   7   3  10   32.18    4.60
  -7  -3 -10   29.98    4.40
  -7  -3 -10   19.76    4.88
  -7  -3 -11    7.76    2.29
   7   3  11   10.65    3.08
  -7  -4   5   24.59    4.85
  -7  -4   4   40.28    5.92
   7   4  -4   44.17    4.17
  -7  -4   3    0.93    1.99
  -7  -4   3    0.36    2.02
   7   4  -3    0.69    1.10
  -7  -4   2    7.50    2.87
   7   4  -2   15.90    2.44
  -7  -4   2    6.74    3.07
  -7  -4   1   24.61    4.20
  -7  -4   1   26.04    2.87
   7   4  -1   25.77    3.16
  -7  -4   0   33.04    4.70
  -7  -4   0   35.21    2.91
  -7  -4   0   30.38    2.93
   7   4   0   31.29    3.54
  -7  -4  -1  176.53   13.01
  -7  -4  -1  207.54   10.38
   7   4   1  188.98   11.71
  -7  -4  -1  192.88   10.44
   7   4   1  210.33   12.61
  -7  -4  -2   25.59    4.04
   7   4   2   24.09    3.13
  -7  -4  -2   26.84    2.34
   7   4   2   23.19    3.43
  -7  -4  -2   23.78    5.01
   7   4   3  209.49   11.80
   7   4   3  200.21   12.75
  -7  -4  -3  204.71   16.58
   7   4   4   14.17    2.06
   7   4   4   16.92    2.65
  -7  -4  -4   16.56    2.80
   7   4   4   19.39    2.98
  -7  -4  -4   13.43    3.98
   7   4   5   80.32    5.50
   7   4   5   75.63    6.01
   7   4   5   79.53    6.13
  -7  -4  -5   66.41    5.99
  -7  -4  -5   60.18    8.05
   7   4   6  131.34    7.84
   7   4   6  113.01    8.15
   7   4   6  131.41    8.58
  -7  -4  -6  105.66    8.29
  -7  -4  -6   99.70   10.64
  -7  -4  -7    1.99    0.81
   7   4   7    2.62    1.47
  -7  -4  -7    2.80    1.87
   7   4   7    2.79    1.75
  -7  -4  -7    1.17    1.90
  -7  -4  -8    4.48    1.24
   7   4   8    3.64    1.64
  -7  -4  -8    2.66    2.04
   7   4   8    7.59    2.31
  -7  -4  -8    3.54    2.60
   7   4   9   37.18    4.54
  -7  -4  -9   32.24    4.42
  -7  -4  -9   24.89    3.04
   7   4  10  113.54   12.55
   7   4  10  118.73    8.77
  -7  -4 -10   90.48    8.12
  -7  -4 -10   80.94    6.80
   7   4  11    6.97    2.65
  -7  -5   5   18.68    4.27
  -7  -5   4   43.08    6.04
   7   5  -4   43.44    4.29
  -7  -5   3   -0.59    2.18
  -7  -5   3   -1.10    2.73
   7   5  -3    0.60    1.23
  -7  -5   2   -0.55    1.94
  -7  -5   2    0.35    2.29
   7   5  -2    0.91    1.26
  -7  -5   1    2.90    2.26
  -7  -5   1    2.64    2.50
   7   5  -1    4.76    1.72
  -7  -5   0   28.92    4.45
  -7  -5   0   36.33    3.33
   7   5   0   32.98    3.74
  -7  -5  -1    7.07    2.40
  -7  -5  -1    7.32    1.54
   7   5   1    6.34    1.79
  -7  -5  -1    6.64    0.96
   7   5   2    3.44    1.52
  -7  -5  -2    4.69    2.14
  -7  -5  -2    5.71    1.31
  -7  -5  -2    7.43    3.23
   7   5   3   14.14    2.28
   7   5   3   17.47    2.54
   7   5   4   16.35    2.45
   7   5   4   12.62    2.44
  -7  -5  -4   24.52    3.35
   7   5   4   14.99    2.41
  -7  -5  -4   20.62    4.48
   7   5   5  213.34   12.15
   7   5   5  203.37   12.68
  -7  -5  -5  228.26   13.36
   7   5   5  209.52   12.20
  -7  -5  -5  202.05   16.07
   7   5   6  559.27   29.22
   7   5   6  639.46   29.14
  -7  -5  -6  578.19   29.76
   7   5   7  152.00   10.34
   7   5   7  175.70   10.55
  -7  -5  -7  172.74   11.16
  -7  -5  -7  146.33   13.17
  -7  -5  -8    3.55    1.09
   7   5   8    3.96    1.73
  -7  -5  -8    8.02    2.50
   7   5   8    4.63    1.96
  -7  -5  -8    3.49    2.25
  -7  -5  -9    3.11    1.37
   7   5   9    1.72    1.49
  -7  -5  -9    3.98    2.15
   7   5   9    7.17    2.40
  -7  -5  -9    1.19    2.16
   7   5  10   86.24    7.35
  -7  -5 -10   88.34    7.71
  -7  -5 -10   67.44    8.49
   7   5  11   14.03    3.32
   7   6  -4   20.23    3.12
  -7  -6   4   21.91    4.29
   7   6  -3   33.43    3.87
  -7  -6   3   29.81    4.85
   7   6  -2   53.17    4.88
  -7  -6   2   43.21    5.51
  -7  -6   2   41.58    6.33
   7   6  -1   51.24    4.80
  -7  -6   1   45.42    5.44
  -7  -6   1   37.31    5.92
   7   6   0   65.55    5.65
  -7  -6   0   60.34    6.32
  -7  -6   0   69.03    5.39
   7   6   1    6.30    1.91
  -7  -6  -1   10.53    2.73
  -7  -6  -1   11.17    2.10
  -7  -6  -1    7.34    3.16
   7   6   2    2.83    1.43
  -7  -6  -2    4.10    2.05
  -7  -6  -2    3.05    1.29
  -7  -6  -2    2.78    2.50
  -7  -6  -3    7.00    2.85
   7   6   4   10.31    2.31
   7   6   4   11.25    2.29
  -7  -6  -4   10.39    3.53
   7   6   5    4.64    1.73
  -7  -6  -5   10.31    2.45
  -7  -6  -5    4.61    2.66
   7   6   6   21.11    3.22
  -7  -6  -6   22.70    3.56
   7   6   6   24.04    2.85
  -7  -6  -6   17.71    4.31
   7   6   7   50.37    5.02
   7   6   7   54.42    4.68
  -7  -6  -7   52.99    5.51
  -7  -6  -7   41.43    6.33
   7   6   8    3.51    1.72
  -7  -6  -8    5.79    2.45
   7   6   8    4.44    1.72
  -7  -6  -8    4.19    2.57
   7   6   9  133.28    9.50
   7   6   9  151.19    9.76
  -7  -6  -9  142.23   10.37
  -7  -6  -9  120.79   11.69
   7   6  10    2.13    1.58
  -7  -6 -10    1.20    2.13
   7   6  10    1.92    1.93
  -7  -6 -10    2.76    2.28
   7   6  11    2.12    1.95
   7   6  12   16.56    3.59
   7   7  -3   19.06    3.09
   7   7  -2    3.02    1.81
  -7  -7   2    6.89    2.52
  -7  -7   1   28.21    5.13
   7   7  -1   30.33    3.86
  -7  -7   1   28.44    4.20
   7   7   0   20.14    3.22
  -7  -7   0   31.45    4.28
   7   7   1   12.28    2.55
  -7  -7  -1    8.07    2.51
  -7  -7  -1   10.67    2.32
  -7  -7  -1   11.17    3.73
   7   7   2  123.79    8.72
  -7  -7  -2  123.78    8.28
  -7  -7  -2  108.61   10.84
  -7  -7  -3   10.00    2.06
  -7  -7  -3   10.71    3.62
   7   7   4    5.90    2.08
  -7  -7  -4   10.29    3.40
   7   7   5   86.92    7.06
  -7  -7  -5   99.34    9.78
   7   7   6    4.36    1.78
  -7  -7  -6    4.42    2.16
  -7  -7  -6    6.04    2.74
   7   7   7   14.24    2.82
  -7  -7  -7    9.32    2.85
  -7  -7  -7   10.84    3.25
   7   7   8   17.87    3.07
  -7  -7  -8   20.77    3.75
  -7  -7  -8   20.00    4.61
   7   7   9   32.68    4.20
  -7  -7  -9   46.07    5.43
  -7  -7  -9   32.62    5.69
   7   7  10   47.43    4.95
  -7  -7 -10   46.37    6.72
   7   7  11   24.05    3.55
   7   8   0    0.57    1.52
  -7  -8   0    1.02    1.72
  -7  -8   0    0.36    2.16
   7   8   1   27.30    3.91
  -7  -8  -1   25.24    3.61
  -7  -8  -1   25.41    4.89
   7   8   2   82.05    6.97
  -7  -8  -2   90.41    7.00
  -7  -8  -2   83.46    8.90
  -7  -8  -3   31.85    3.81
  -7  -8  -3   34.60    5.53
   7   8   4   57.81    5.62
  -7  -8  -4   58.74    5.34
  -7  -8  -4   57.58    7.12
   7   8   5  366.92   20.74
  -7  -8  -5  395.37   23.71
   7   8   6   78.94    6.69
  -7  -8  -6   75.12    8.17
   7   8   7   21.92    3.46
  -7  -8  -7   31.08    4.40
  -7  -8  -7   24.03    4.55
   7   8   8    8.95    2.34
  -7  -8  -8   11.09    3.18
  -7  -8  -8    7.05    2.87
   7   8   9    7.43    2.24
  -7  -8  -9   11.96    3.69
   7   8  10    3.06    1.94
  -7  -8 -10    3.64    2.45
   7   8  11   20.80    3.49
  -7  -9  -2   17.52    3.24
  -7  -9  -3   10.19    2.59
  -7  -9  -3    9.55    3.09
   7   9   4    5.64    2.14
  -7  -9  -4    4.22    1.99
  -7  -9  -4    3.64    2.22
   7   9   5   18.71    3.30
  -7  -9  -5   18.26    3.91
   7   9   6   34.05    4.28
  -7  -9  -6   29.87    5.00
   7   9   7   12.07    2.87
  -7  -9  -7   16.16    3.84
   7   9   8   17.26    3.24
  -7  -9  -8   16.62    3.95
   7   9   9    4.50    2.25
  -7  -9  -9    1.70    1.97
  -7 -10  -3   17.38    3.36
  -7 -10  -4   59.68    5.99
  -7 -10  -5   10.19    2.83
  -7 -10  -6    0.57    1.73
  -7 -10  -7   15.84    3.61
  -7 -10  -8   68.83    7.65
  -7 -10  -9    4.70    2.72
  -8   8   3   22.79    4.97
  -8   7   3    3.55    2.91
  -8   7   2   18.28    4.37
  -8   7   1   -0.30    2.30
  -8   7   0   13.27    3.42
  -8   7   0   10.48    4.42
  -8   6   3    0.36    2.56
  -8   6   2    4.40    2.97
   8  -6  -2    4.58    5.20
  -8   6   1   52.35    6.65
   8  -6  -1   60.90   10.46
  -8   6   0   22.81    4.34
   8  -6   0   30.29    7.30
  -8   6  -1   10.77    3.16
   8  -6   1   14.78    5.71
  -8   6  -1    3.76    3.12
   8  -6   2   24.71    6.46
  -8   6  -2   11.79    3.98
  -8   6  -3   16.29    4.41
   8  -6   5   45.40    5.56
  -8   5   4   18.19    4.78
  -8   5   3   82.26    9.16
   8  -5  -3  100.81   13.32
  -8   5   2   26.06    5.10
   8  -5  -2   31.64    7.74
  -8   5   1   26.85    4.99
   8  -5  -1   58.52    9.41
  -8   5   0   45.55    5.93
   8  -5   0   42.47    8.16
  -8   5  -1   28.03    4.61
   8  -5   1   34.73    7.09
  -8   5  -1   22.56    5.60
  -8   5  -2    4.83    2.50
   8  -5   2    2.61    1.27
   8  -5   2    4.41    4.07
  -8   5  -2    0.46    2.35
   8  -5   3    2.58    1.54
   8  -5   3    4.69    3.95
  -8   5  -3   -0.44    2.37
   8  -5   4    1.87    1.71
   8  -5   4   -0.46    3.55
  -8   5  -4    3.29    2.64
   8  -5   5    1.63    2.24
   8  -5   5    0.46    1.81
  -8   5  -5   -0.38    2.31
   8  -5   6   13.92    3.53
  -8   5  -6   17.71    3.27
  -8   5  -7    8.67    2.79
  -8   4   6   20.24    4.53
   8  -4  -5   16.64   45.46
  -8   4   5   18.70    4.16
  -8   4   4   26.94    5.69
   8  -4  -4   27.47    7.79
  -8   4   4   27.81    4.83
  -8   4   3   52.85    7.29
   8  -4  -3   57.44    9.86
  -8   4   2   11.57    3.72
   8  -4  -2   11.09    5.52
  -8   4   1    1.32    2.44
   8  -4  -1    2.77    4.12
  -8   4   0   56.21    6.80
   8  -4   0   64.81    9.30
  -8   4  -1   27.06    4.61
   8  -4   1   40.08    7.31
   8  -4   2   92.82    5.84
  -8   4  -2   87.04    8.33
  -8   4  -2   76.07    9.83
   8  -4   3    2.25    1.31
   8  -4   3    1.74    3.55
  -8   4  -3    5.50    3.15
   8  -4   4    7.74    2.15
  -8   4  -4   13.19    2.43
   8  -4   4   13.85    4.62
  -8   4  -4    9.59    3.65
   8  -4   5   60.57    6.27
  -8   4  -5   74.09    5.99
  -8   4  -5   61.09    8.17
   8  -4   6    1.50    2.74
  -8   4  -6    2.53    2.16
  -8   4  -6    4.97    2.74
   8  -4   7    4.82    3.30
  -8   4  -7    8.96    2.68
  -8   4  -7    5.49    2.68
   8  -4   8    8.45    3.58
   8  -3  -6    1.48    2.88
  -8   3   5   31.58    5.49
   8  -3  -5   44.96    6.45
   8  -3  -4   12.73    3.86
  -8   3   4    7.41    3.31
   8  -3  -4   16.54    6.70
  -8   3   4   12.98    3.66
  -8   3   3   50.52    7.05
  -8   3   3   47.12    6.04
   8  -3  -3   42.82    8.65
  -8   3   2   83.01    9.00
   8  -3  -2   94.58   11.66
  -8   3   1   35.68    5.60
   8  -3  -1   29.70    6.86
  -8   3   0    1.88    2.20
   8  -3   0    2.37    3.58
  -8   3  -1   39.38    5.50
   8  -3   1   56.24    8.02
  -8   3  -2   26.93    4.50
   8  -3   2   29.60    2.26
   8  -3   2   42.07    6.78
  -8   3  -2   27.61    6.06
   8  -3   3   25.33    2.81
   8  -3   3   37.95    6.35
  -8   3  -3   34.28    3.26
  -8   3  -3   33.49    6.18
   8  -3   4  130.81    9.12
  -8   3  -4  157.73    9.27
  -8   3  -4  129.43   12.97
  -8   3  -5  465.13   23.07
   8  -3   5  454.43   27.30
  -8   3  -6  100.46    7.55
   8  -3   6  122.31   10.89
   8  -3   7   25.32    5.65
  -8   3  -7   36.48    4.43
  -8   3  -7   23.56    5.01
   8  -3   8    4.51    3.17
  -8   3  -8    8.76    2.83
  -8   3  -8    3.44    2.63
   8  -2  -6   10.93    3.81
  -8   2   5    8.12    3.20
   8  -2  -5   10.93    3.71
  -8   2   4    4.26    2.84
   8  -2  -4    5.14    2.92
  -8   2   4    3.69    2.99
  -8   2   3   73.22    8.90
  -8   2   3   96.22    8.89
   8  -2  -3   86.55   11.47
   8  -2  -3   96.75    8.78
  -8   2   2  839.60   47.76
   8  -2  -2 1038.38   53.03
  -8   2   1  187.47   14.22
   8  -2  -1  185.05   16.35
  -8   2   0   12.01    3.40
   8  -2   0    6.28    4.15
  -8   2  -1   29.76    4.91
   8  -2   1   43.91    6.88
  -8   2  -2   44.65    5.80
   8  -2   2   53.71    7.36
  -8   2  -2   50.36    3.75
  -8   2  -2   34.55    6.82
   8  -2   3  101.43    6.20
  -8   2  -3  100.38    9.10
  -8   2  -3  119.67    7.19
  -8   2  -3  103.37   11.43
  -8   2  -4    2.81    1.55
   8  -2   4    1.07    2.60
  -8   2  -4    3.26    2.45
   8  -2   5   49.16    6.74
  -8   2  -5   47.03    4.41
  -8   2  -5   32.55    6.20
   8  -2   6   66.90    7.72
  -8   2  -6   61.98    5.58
  -8   2  -6   56.52    7.95
  -8   2  -7   -0.76    2.00
   8  -2   7    0.35    2.72
  -8   2  -7    0.41    2.16
   8  -2   8   31.32    6.24
  -8   2  -8   32.24    4.49
  -8   2  -8   27.80    5.36
   8  -2   9    5.49    3.37
   8  -1  -6   73.36    8.11
   8  -1  -5    1.16    2.26
  -8   1   5    1.11    2.61
   8  -1  -4   23.33    4.20
  -8   1   4    8.96    3.41
   8  -1  -3   23.05    4.20
   8  -1  -3   22.87    6.23
  -8   1   3   21.65    4.44
  -8   1   2   14.98    4.09
   8  -1  -2   11.40    5.06
  -8   1   2   17.81    3.87
  -8   1   1  156.06   12.70
   8  -1  -1  171.95   14.89
  -8   1   0    5.50    1.60
  -8   1   0    4.44    2.64
   8  -1   0    4.70    3.60
  -8   1  -1  217.12   15.24
   8  -1   1  248.06   17.27
  -8   1  -1  211.14   12.84
  -8   1  -2   12.85    2.38
  -8   1  -2   15.28    3.55
  -8   1  -2   17.34    2.14
   8  -1   2   22.07    4.92
   8  -1   3   42.43    2.41
   8  -1   3   41.34    2.63
  -8   1  -3   29.75    4.92
   8  -1   3   42.70    6.20
  -8   1  -3   43.45    3.75
  -8   1  -3   33.87    6.42
  -8   1  -3   32.82    3.84
  -8   1  -4   65.39    5.18
  -8   1  -4   48.99    7.78
  -8   1  -4   64.30    5.82
  -8   1  -5   17.11    2.79
   8  -1   5   16.85    3.90
  -8   1  -5   10.22    3.75
  -8   1  -6    2.63    1.68
   8  -1   6    6.87    3.10
  -8   1  -6    2.26    2.69
   8  -1   7   30.06    5.14
  -8   1  -7   27.63    3.82
  -8   1  -7   23.38    5.24
   8  -1   8   69.96    9.26
  -8   1  -8   75.65    6.74
  -8   1  -9    4.56    2.55
   8  -1   9    4.57    3.42
  -8   0   4    6.50    3.13
   8   0  -4    6.16    2.56
  -8   0   4    4.84    2.84
  -8   0   3   14.92    4.09
   8   0  -3   16.98    3.57
  -8   0   3   12.79    3.90
  -8   0   2   54.09    6.66
   8   0  -2   48.80    8.07
   8   0  -2   58.62    5.89
  -8   0   1    8.71    1.81
   8   0  -1    9.94    4.13
  -8   0   0    0.24    0.78
  -8   0   0   -0.32    1.98
   8   0   0    1.59    2.96
  -8   0  -1   29.92    4.80
   8   0   1   32.19    5.72
  -8   0  -1   23.29    2.76
  -8   0  -2   27.20    4.46
  -8   0  -2   29.48    2.95
   8   0   2   21.49    4.90
  -8   0  -2   25.03    2.87
  -8   0  -3  169.98   12.79
   8   0   3  223.90   14.56
  -8   0  -3  204.63   10.60
  -8   0  -3  151.11   10.08
  -8   0  -3  162.01   15.18
   8   0   4  533.60   23.86
  -8   0  -4  507.70   25.53
  -8   0  -4  427.28   30.53
  -8   0  -4  421.38   25.15
   8   0   5  210.31   14.39
  -8   0  -5  203.64   11.95
  -8   0  -5  186.60   16.11
  -8   0  -5  188.43   11.96
  -8   0  -6    0.17    1.50
   8   0   6    0.29    2.12
  -8   0  -6    0.92    2.41
  -8   0  -7    9.20    2.51
   8   0   7   11.83    3.52
  -8   0  -7    8.33    3.45
  -8   0  -8   83.45    7.15
  -8   0  -8   58.75    8.49
   8   0   9   17.41    5.20
  -8   0  -9   18.38    3.57
   8   0   9   30.14    5.25
  -8   0  -9   13.19    4.00
   8   1  -4   34.12    3.37
  -8  -1   4   26.47    5.46
  -8  -1   4   36.79    6.16
   8   1  -3   51.22    4.19
  -8  -1   3   31.77    5.73
  -8  -1   3   34.76    5.95
   8   1  -2   62.64    4.89
  -8  -1   2   42.49    6.39
  -8  -1   2   43.66    6.21
   8   1  -2   61.87    5.78
  -8  -1   1   15.07    3.77
   8   1  -1   17.46    4.87
   8   1  -1   16.35    1.97
   8   1  -1   15.67    2.48
   8   1   0    6.18    3.33
   8   1   0   10.61    1.69
   8   1   0   10.05    2.12
  -8  -1  -1    9.25    1.53
   8   1   1   13.77    2.32
   8   1   1   10.54    3.63
   8   1   1   12.62    1.83
   8   1   2   19.40    2.90
   8   1   2   20.31    4.49
  -8  -1  -2   27.12    2.49
  -8  -1  -3    1.12    1.81
  -8  -1  -3    1.13    0.74
   8   1   3    1.88    1.37
  -8  -1  -3    1.26    1.12
   8   1   3    1.16    2.15
  -8  -1  -3    0.99    2.85
   8   1   4   39.81    2.71
  -8  -1  -4   40.50    3.89
  -8  -1  -4   31.26    6.21
  -8  -1  -4   28.26    2.97
   8   1   5   37.87    2.99
   8   1   5   41.63    5.39
  -8  -1  -5   42.09    4.24
  -8  -1  -5   35.40    6.35
  -8  -1  -5   29.32    3.29
   8   1   6   33.76    4.82
  -8  -1  -6   31.72    3.86
  -8  -1  -6   25.57    5.59
   8   1   7  209.32   13.72
  -8  -1  -7  184.33   11.91
  -8  -1  -8    0.20    1.83
   8   1   8   -0.29    2.15
  -8  -1  -8    0.44    2.20
  -8  -1  -9    3.77    2.08
   8   1   9   13.29    3.75
  -8  -1  -9    7.39    3.30
  -8  -2   4   11.87    3.81
   8   2  -4    6.33    1.71
  -8  -2   3   12.97    3.91
   8   2  -3   23.03    2.84
  -8  -2   3   19.47    4.43
  -8  -2   2   30.89    5.13
   8   2  -2   23.88    3.04
  -8  -2   2   28.09    4.98
  -8  -2   1   28.10    4.86
  -8  -2   1   26.67    4.96
   8   2  -1   35.78    6.01
   8   2  -1   26.43    2.93
   8   2  -1   29.31    3.37
  -8  -2   0   89.50    9.00
   8   2   0   96.69    6.54
   8   2   0  112.58   10.13
   8   2   0  113.19    7.50
  -8  -2  -1   12.30    3.15
   8   2   1    5.59    2.88
   8   2   1    5.40    1.48
  -8  -2  -1    9.12    1.94
   8   2   1    8.36    2.04
   8   2   2   17.53    2.74
   8   2   2   13.53    3.52
  -8  -2  -2   17.06    2.51
   8   2   2   13.71    2.16
   8   2   3  129.91    9.18
  -8  -2  -3  148.70    9.14
   8   2   3  147.68   11.08
   8   2   4   18.99    1.92
   8   2   4   21.65    3.90
  -8  -2  -4   24.68    3.00
  -8  -2  -4   21.05    1.73
  -8  -2  -5    5.79    1.14
   8   2   5    9.49    1.51
   8   2   5   11.61    2.33
  -8  -2  -5   11.71    2.35
   8   2   5   13.74    3.18
  -8  -2  -5    5.19    3.26
  -8  -2  -6   10.93    1.84
   8   2   6   13.25    1.97
  -8  -2  -6   15.53    2.92
   8   2   6   18.05    3.53
  -8  -2  -6   14.89    4.32
   8   2   7   54.65    6.09
  -8  -2  -7   55.12    5.45
  -8  -2  -7   45.13    7.16
   8   2   8   84.91    7.94
  -8  -2  -8   77.19    6.95
  -8  -2  -8   71.87    9.03
  -8  -2  -9   24.67    3.98
   8   2   9   20.81    4.08
  -8  -2  -9   11.01    3.90
   8   2  10   40.11    5.79
  -8  -3   4   47.80    6.78
  -8  -3   3   15.82    3.93
   8   3  -3   25.33    3.08
  -8  -3   3   15.93    4.32
  -8  -3   2    0.33    2.32
   8   3  -2    0.58    1.31
  -8  -3   2   -0.72    2.14
  -8  -3   1   23.50    4.46
   8   3  -1   30.11    3.43
  -8  -3   1   17.78    4.05
  -8  -3   0   47.59    6.13
  -8  -3   0   47.16    4.36
   8   3   0   52.99    6.51
   8   3   0   54.60    4.83
  -8  -3  -1   38.58    5.48
   8   3   1   52.18    4.68
  -8  -3  -1   42.91    4.00
   8   3   1   55.40    6.30
  -8  -3  -2   70.69    7.34
   8   3   2   74.85    6.06
  -8  -3  -2   76.85    5.38
   8   3   2   69.64    7.12
  -8  -3  -2   70.28    9.28
  -8  -3  -3  579.69   31.19
   8   3   3  504.33   28.49
  -8  -3  -3  534.85   27.58
   8   3   3  565.05   30.27
  -8  -3  -3  527.76   34.41
   8   3   4   77.84    5.23
   8   3   4   85.38    7.53
  -8  -3  -4   75.80    9.67
   8   3   5   39.29    3.44
   8   3   5   43.45    4.55
   8   3   5   44.65    5.06
  -8  -3  -5   46.66    4.59
  -8  -3  -5   33.18    6.36
   8   3   6   12.61    1.93
   8   3   6   10.00    2.21
  -8  -3  -6    9.72    2.53
   8   3   6   10.73    2.78
  -8  -3  -6    7.16    0.90
  -8  -3  -7   28.64    2.48
   8   3   7   18.29    3.18
   8   3   7   27.62    4.27
  -8  -3  -8   15.01    2.10
  -8  -3  -8   21.48    3.56
   8   3   8   17.87    3.75
  -8  -3  -8   11.03    3.88
  -8  -3  -9   30.01    4.44
   8   3   9   24.37    4.33
  -8  -3  -9   18.22    4.83
   8   3  10    1.88    2.39
   8   4  -3  100.10    7.10
  -8  -4   3   80.87    8.87
   8   4  -2   26.44    3.34
  -8  -4   2   19.66    4.30
   8   4  -1   28.61    3.60
  -8  -4   1   26.46    4.74
   8   4   0   10.62    2.32
  -8  -4   0    8.77    2.93
   8   4   1   73.50    5.98
  -8  -4  -1   62.51    7.03
  -8  -4  -2    6.60    2.54
   8   4   2    5.16    1.80
   8   4   2    5.18    2.42
  -8  -4  -2    7.04    1.36
  -8  -4  -2    5.84    3.14
  -8  -4  -3   12.35    3.27
   8   4   3   15.46    2.67
   8   4   3   14.47    3.12
  -8  -4  -3   16.54    2.04
  -8  -4  -3   16.27    4.70
   8   4   4   99.03    6.64
  -8  -4  -4  129.65    8.37
   8   4   4  102.24    8.20
  -8  -4  -4  110.32   11.53
   8   4   5    7.80    1.68
   8   4   5   10.23    2.30
  -8  -4  -5   11.78    2.59
   8   4   5    8.88    2.60
  -8  -4  -5    7.42    3.41
   8   4   6   33.08    3.41
   8   4   6   34.81    4.10
   8   4   6   36.80    4.45
  -8  -4  -6   37.45    4.43
  -8  -4  -6   33.67    6.20
   8   4   7   16.50    2.95
  -8  -4  -7   13.76    2.97
   8   4   7   18.87    3.37
  -8  -4  -7   15.70    4.33
   8   4   8   39.03    4.49
   8   4   8   43.27    5.21
  -8  -4  -8   44.60    5.09
  -8  -4  -8   34.32    6.23
   8   4   9   97.81    8.16
  -8  -4  -9   87.74    7.87
   8   4  10    1.24    2.12
   8   4  11    3.75    2.69
   8   5  -3   92.39    7.06
  -8  -5   3   89.93    9.03
   8   5  -2   18.73    3.05
  -8  -5   2   17.00    3.99
   8   5  -1   71.95    6.06
  -8  -5   1   66.95    7.44
  -8  -5   1   76.38    8.61
   8   5   0   13.20    2.60
  -8  -5   0    9.00    2.92
   8   5   1   38.44    4.14
  -8  -5  -1   22.42    4.17
   8   5   2   85.94    6.68
  -8  -5  -2   73.23    7.46
  -8  -5  -2   65.00    8.98
   8   5   3    9.14    2.27
  -8  -5  -3    4.19    3.01
   8   5   4   10.33    2.03
  -8  -5  -4   11.89    3.93
   8   5   5   24.12    2.89
   8   5   5   23.13    3.40
  -8  -5  -5   21.85    3.48
  -8  -5  -5   12.70    4.09
   8   5   6  133.69    9.54
  -8  -5  -6  142.03   10.01
   8   5   6  149.43    9.63
  -8  -5  -6  117.37   12.29
   8   5   7    1.14    1.45
  -8  -5  -7    2.49    1.98
   8   5   7    1.43    1.69
  -8  -5  -7    0.44    2.12
   8   5   8  136.15   10.02
   8   5   8  160.47   10.59
  -8  -5  -8  165.25   10.97
  -8  -5  -8  128.42   12.81
   8   5   9  568.00   31.79
  -8  -5  -9  648.53   33.05
  -8  -5  -9  567.54   35.99
   8   5  10   64.46    6.53
   8   5  11   19.91    3.96
   8   6  -3    5.71    2.09
  -8  -6   3    5.75    2.95
   8   6  -2    7.06    2.28
  -8  -6   2   12.90    3.46
   8   6  -1    8.76    2.36
  -8  -6   1    8.58    2.88
   8   6   0   15.87    2.89
  -8  -6   0   17.51    3.66
   8   6   1  108.32    8.15
  -8  -6  -1  108.75    9.25
  -8  -6  -1  103.40   11.39
  -8  -6  -2  361.47   22.10
  -8  -6  -2  326.24   24.51
   8   6   3  209.04   12.79
  -8  -6  -3  186.19   16.06
  -8  -6  -4    6.64    3.30
   8   6   5    5.98    2.11
  -8  -6  -5    6.40    2.23
  -8  -6  -5    6.15    3.03
   8   6   6   57.26    5.57
  -8  -6  -6   64.33    6.25
  -8  -6  -6   59.77    8.16
   8   6   7   14.64    2.85
  -8  -6  -7   10.29    2.93
  -8  -6  -7   11.41    3.88
   8   6   8    4.13    1.98
  -8  -6  -8    3.91    2.46
  -8  -6  -8    2.13    2.54
   8   6   9   17.66    3.13
  -8  -6  -9   17.25    3.53
  -8  -6  -9   14.68    4.26
   8   6  10   37.20    4.56
  -8  -7   1    0.51    1.97
   8   7   0    8.43    2.47
  -8  -7   0   13.95    3.32
  -8  -7   0   11.80    4.25
   8   7   1    0.58    1.43
  -8  -7  -1    1.01    2.12
  -8  -7  -1   -0.44    2.33
   8   7   2   29.92    3.92
  -8  -7  -2   25.58    5.56
   8   7   3   42.69    4.74
  -8  -7  -3   29.01    5.83
  -8  -7  -4   25.50    5.45
   8   7   5  153.79   10.47
  -8  -7  -5  136.66   13.02
   8   7   6    1.41    1.53
  -8  -7  -6    2.19    2.11
  -8  -7  -6    3.29    2.58
   8   7   7    7.80    2.28
  -8  -7  -7    2.76    2.27
  -8  -7  -7    5.71    3.09
   8   7   8    6.85    2.37
  -8  -7  -8    7.28    2.81
  -8  -7  -8    7.82    3.38
   8   7   9   13.10    3.04
  -8  -7  -9   18.36    4.51
  -8  -8  -1   33.92    6.15
  -8  -8  -2   22.58    5.07
  -8  -8  -3    5.58    2.86
  -8  -8  -4   21.04    4.82
   8   8   5   27.75    3.96
  -8  -8  -5   36.19    6.19
   8   8   6   76.90    6.78
  -8  -8  -6   66.45    8.29
  -8  -8  -7   27.18    4.45
  -8  -8  -7   30.83    5.68
  -8  -8  -8   35.64    6.09
  -8  -8  -9   42.63    6.73
  -8  -9  -4    9.46    3.26
  -8  -9  -5    3.86    2.42
  -8  -9  -6    5.73    2.90
  -8  -9  -7    8.73    3.17
  -8  -9  -8    6.35    2.98
  -8 -10  -7   68.80    7.96
  -8 -10  -8    4.53    2.59
  -9   6   1  135.72   11.75
  -9   6   0    9.24    3.25
  -9   6  -1   22.78    4.66
  -9   6  -1   18.52    5.38
  -9   6  -2   25.22    5.79
  -9   5   1   20.36    4.89
  -9   5   0   25.44    5.01
  -9   5  -1   67.67   43.25
  -9   5  -1   53.62    8.66
  -9   5  -2  229.51   15.40
  -9   5  -2  182.98   17.15
  -9   5  -3   56.25    8.34
  -9   5  -4    9.34    3.79
  -9   5  -5    4.80    3.31
  -9   4   2   11.19    3.98
   9  -4  -2   17.55    6.97
  -9   4   1    1.09    2.61
   9  -4  -1    5.59    5.08
  -9   4   0    2.04    2.38
   9  -4   0    2.33    4.16
  -9   4  -1   -0.32    2.15
   9  -4   1    2.68    4.52
  -9   4  -2   16.49    3.87
   9  -4   2   17.27    5.82
  -9   4  -2   13.01    4.62
   9  -4   3   25.17    6.44
  -9   4  -3   12.95    4.54
  -9   4  -4   27.06    5.90
  -9   4  -5   89.25   10.50
   9  -4   6    2.84    2.74
  -9   4  -6    2.61    2.52
  -9   3   4   34.23    5.82
   9  -3  -3   17.03    7.16
  -9   3   2   43.90    6.79
   9  -3  -2   61.72   10.29
  -9   3   1    7.75    3.29
   9  -3  -1    6.42    4.57
  -9   3   0   20.57    4.57
   9  -3   0   17.59    6.18
  -9   3  -1  100.09    9.62
   9  -3   1  111.15   12.25
  -9   3  -2   11.71    3.60
   9  -3   2   20.51    5.68
  -9   3  -2   10.04    4.25
   9  -3   3   10.24    4.35
  -9   3  -3    7.46    3.83
   9  -3   4   10.31    4.50
  -9   3  -4    5.64    3.39
   9  -3   5   13.17    4.83
  -9   3  -5    7.39    3.61
  -9   3  -6   33.01    6.31
  -9   3  -7   18.85    3.48
   9  -3   7    9.53    4.37
   9  -2  -3    8.70    5.80
  -9   2   2    8.14    3.46
   9  -2  -2    8.69    5.09
  -9   2   1   32.10    5.69
   9  -2  -1   38.86    7.68
  -9   2   0   86.54    9.16
   9  -2   0   91.38   11.45
  -9   2  -1  328.27   21.77
   9  -2   1  377.84   25.03
  -9   2  -2   93.61    9.23
   9  -2   2  111.33   11.63
  -9   2  -2   81.39   10.98
  -9   2  -3   32.44    5.23
   9  -2   3   44.96    7.28
  -9   2  -3   30.00    6.50
   9  -2   4   13.35    4.81
  -9   2  -4    8.95    3.94
  -9   2  -5   31.44    3.77
   9  -2   5   26.19    5.70
  -9   2  -5   31.56    6.45
  -9   2  -6   30.10    3.91
   9  -2   6   30.69    6.13
  -9   2  -6   32.07    6.49
  -9   2  -7   11.58    2.81
  -9   2  -7    6.42    3.43
  -9   2  -8   15.42    3.47
   9  -2   8   13.47    4.79
  -9   1   3   45.21    6.52
   9  -1  -3   35.26    8.20
  -9   1   2   20.95    4.81
   9  -1  -2   23.16    6.68
  -9   1   1   72.15    8.38
   9  -1  -1   74.27   10.18
  -9   1   0    2.47    2.67
   9  -1   0    7.81    4.59
  -9   1  -1    7.29    2.95
   9  -1   1    4.50    3.90
  -9   1  -2  120.59   10.73
   9  -1   2  149.48   13.05
  -9   1  -2  110.86   12.98
  -9   1  -3    3.49    2.45
   9  -1   3    9.24    3.95
  -9   1  -3    3.86    3.29
   9  -1   4   77.85    8.97
  -9   1  -4   74.45    5.61
  -9   1  -5   24.27    3.26
   9  -1   5   19.81    4.91
  -9   1  -5   19.26    5.16
  -9   1  -6   37.54    4.22
   9  -1   6   32.96    6.01
  -9   1  -6   27.98    6.16
   9  -1   7   52.63    7.14
  -9   1  -7   41.38    4.72
  -9   1  -8   16.11    3.50
  -9   0   3   88.13    9.33
   9   0  -2   12.30    5.50
   9   0  -1   30.86    6.70
  -9   0   0   43.88    6.32
   9   0   0   50.22    7.97
  -9   0  -1   15.31    3.87
   9   0   1   19.17    5.12
  -9   0  -2    7.05    3.07
   9   0   2    8.56    3.99
  -9   0  -2    8.54    4.17
  -9   0  -3   20.66    4.34
  -9   0  -3   18.36    2.56
  -9   0  -3   12.22    4.69
  -9   0  -4   91.12    6.64
  -9   0  -4   70.27   10.08
  -9   0  -5   13.29    2.58
   9   0   5   12.73    4.13
  -9   0  -5    8.42    3.87
   9   0   6  204.01   14.66
  -9   0  -6  185.58   11.67
   9   0   7  667.31   34.51
  -9   0  -7  612.76   31.19
   9   0   8   68.92    8.05
  -9   0  -8   58.27    6.07
   9   1  -3   20.50    2.86
  -9  -1   2   36.31    5.83
  -9  -1   2   31.16    5.64
   9   1  -2   25.89    3.36
  -9  -1   1   95.80    9.80
   9   1  -1  109.40   11.38
   9   1  -1   96.80    7.14
  -9  -1   0  319.55   23.32
   9   1   0  399.37   21.04
   9   1   1  167.80   10.77
   9   1   1  172.89   14.29
   9   1   2   18.40    2.96
   9   1   2   19.51    4.86
  -9  -1  -3   17.77    4.08
  -9  -1  -3   18.77    2.68
   9   1   3   18.30    4.71
  -9  -1  -3   11.64    4.19
   9   1   4   71.66    7.86
  -9  -1  -4   60.09    5.25
  -9  -1  -4   48.88    8.37
  -9  -1  -5   30.85    3.79
  -9  -1  -5   23.88    5.81
  -9  -1  -6    0.18    1.67
   9   1   6    0.31    2.51
  -9  -1  -6    1.05    2.43
   9   1   7   33.48    5.43
  -9  -1  -7   30.36    4.20
  -9  -1  -7   26.99    6.00
   9   1   8   38.77    6.10
  -9  -1  -8   44.12    5.18
  -9  -1  -9    4.42    2.56
   9   2  -3    3.02    1.56
  -9  -2   2   15.71    4.06
   9   2  -2   10.21    2.26
  -9  -2   1    2.15    2.36
   9   2  -1    4.61    1.72
  -9  -2   0   21.19    4.56
   9   2   0   24.53    3.39
  -9  -2  -1   31.66    5.38
   9   2   1   47.00    4.62
   9   2   1   49.09    6.92
  -9  -2  -2   36.16    5.53
   9   2   2   39.46    4.25
   9   2   2   32.97    5.77
  -9  -2  -2   24.83    6.18
   9   2   3  153.64   10.36
  -9  -2  -3  157.03    9.84
   9   2   3  157.55   12.53
   9   2   4   13.92    2.70
  -9  -2  -4    8.70    2.28
   9   2   4    8.50    3.30
  -9  -2  -5    6.29    2.15
   9   2   5    6.52    3.18
  -9  -2  -6   28.67    3.77
   9   2   6   24.34    4.54
  -9  -2  -6   18.30    5.10
  -9  -2  -7   12.44    2.98
   9   2   7   10.01    3.58
  -9  -2  -7    9.70    4.27
  -9  -2  -8    4.52    2.45
   9   2   8    4.95    2.71
  -9  -2  -8    0.49    2.29
  -9  -2  -9   17.44    3.73
   9   2   9   25.22    4.75
   9   3  -3    0.15    1.49
   9   3  -2   11.98    2.54
  -9  -3   2   11.66    3.89
   9   3  -1   51.50    4.95
  -9  -3   1   46.72    6.66
   9   3   0   31.36    3.78
  -9  -3   0   24.07    4.70
   9   3   1   11.04    2.49
  -9  -3  -1    8.91    3.16
   9   3   2   22.14    3.37
  -9  -3  -2   17.34    3.91
  -9  -3  -2   17.86    5.15
  -9  -3  -3   30.98    5.06
   9   3   3   39.87    4.37
   9   3   3   27.46    4.91
  -9  -3  -3   33.25    6.70
   9   3   4   69.15    6.44
  -9  -3  -4   93.45    6.85
   9   3   4   87.30    8.12
  -9  -3  -4   70.67    9.88
  -9  -3  -5   35.53    4.26
   9   3   5   36.26    5.26
  -9  -3  -5   20.97    5.78
   9   3   6   52.12    5.42
   9   3   6   62.03    6.66
  -9  -3  -6   58.39    5.62
   9   3   7   80.44    7.61
  -9  -3  -7   70.23    6.51
  -9  -3  -8   21.84    3.74
   9   3   8   17.04    3.86
  -9  -3  -8   22.18    5.34
  -9  -3  -9    1.17    2.13
   9   3   9    0.28    2.36
   9   3  10    4.49    2.98
   9   4  -2   30.05    3.81
   9   4  -1  204.66   12.95
  -9  -4   1  239.43   16.31
   9   4   0   41.07    4.57
  -9  -4   0   40.09    5.90
   9   4   1   12.96    2.57
  -9  -4  -1   11.83    3.43
   9   4   2    5.32    1.98
  -9  -4  -2    7.74    2.96
  -9  -4  -2    5.47    3.52
   9   4   3    4.89    1.94
  -9  -4  -3    6.80    2.89
  -9  -4  -3    6.97    3.69
   9   4   4   23.33    3.58
  -9  -4  -4   28.97    6.20
  -9  -4  -5   12.79    2.88
  -9  -4  -5   13.51    4.59
   9   4   6    1.60    1.59
  -9  -4  -6    2.00    1.95
   9   4   6    1.65    2.11
  -9  -4  -6    2.57    2.60
   9   4   7    9.92    2.63
   9   4   7   20.00    3.82
  -9  -4  -7   26.32    3.89
  -9  -4  -7   16.23    4.67
   9   4   8    9.46    2.53
  -9  -4  -8   12.69    2.99
   9   4   8   10.94    3.17
  -9  -4  -8   15.64    4.82
   9   4   9   98.30    8.78
   9   4  10    3.32    2.77
   9   5  -2    9.67    2.50
   9   5  -1    3.31    1.84
  -9  -5   1   -0.97    2.22
   9   5   0   91.70    7.29
  -9  -5   0   84.49    8.66
   9   5   1    8.38    2.31
  -9  -5  -1   11.89    3.34
  -9  -5  -1   10.33    4.33
   9   5   2   39.59    4.39
  -9  -5  -2   27.86    4.88
  -9  -5  -2   27.15    6.29
   9   5   3   28.84    3.86
  -9  -5  -3   16.77    5.05
   9   5   4   33.20    4.18
  -9  -5  -4   34.86    6.84
  -9  -5  -5  113.76    8.61
  -9  -5  -5   99.83   11.55
   9   5   6   18.66    3.27
  -9  -5  -6   19.75    3.57
  -9  -5  -6   22.72    5.51
   9   5   7    9.80    2.63
  -9  -5  -7    7.52    2.70
  -9  -5  -7    6.93    3.82
  -9  -5  -8   47.18    5.52
  -9  -6   1    4.87    2.81
  -9  -6   0    3.86    2.57
   9   6   1    3.81    2.01
  -9  -6  -1    0.30    2.20
  -9  -6  -1    0.52    2.65
  -9  -6  -2   43.94    5.97
  -9  -6  -2   34.49    6.98
   9   6   3    4.13    2.06
  -9  -6  -3    6.06    3.82
   9   6   4   92.78    7.75
  -9  -6  -4  100.68   11.19
  -9  -6  -5  517.62   32.71
   9   6   6   83.02    7.31
  -9  -6  -6  100.35    7.99
  -9  -6  -6   82.21   10.45
  -9  -6  -7    1.38    2.27
  -9  -6  -7    2.36    2.65
  -9  -7   0   21.00    4.20
  -9  -7   0   18.77    5.26
  -9  -7  -1   17.53    3.98
  -9  -7  -1   11.93    4.35
  -9  -7  -2   16.12    4.80
  -9  -7  -3    3.36    3.09
  -9  -7  -4    0.48    2.76
  -9  -7  -5   11.38    4.08
  -9  -7  -6   79.03    9.87
  -9  -7  -7   12.70    4.16
  -9  -8  -2    5.45    3.32
  -9  -8  -3    2.25    2.97
  -9  -8  -4    0.45    2.53
  -9  -8  -5   11.64    4.01
  -9  -8  -6    2.20    2.31
  -9  -8  -7    1.30    2.44
  -9  -9  -5   32.01    6.04
  -9  -9  -6   16.95    4.56
  10  -2  -1    3.05    4.92
  10  -2   0    9.87    5.17
  10  -2   1   27.92    7.19
  10  -2   2   64.13    9.66
 -10   2  -3   26.95    5.13
  10  -2   3   28.00    6.87
  10  -2   4   16.77    5.43
  10  -1  -2   48.10    9.30
  10  -1  -1   16.52    6.33
  10  -1   0   15.18    6.03
  10  -1   1   16.56    5.99
 -10   1  -2   39.24    6.08
  10  -1   2   40.55    7.54
 -10   1  -2   29.66    7.05
 -10   1  -3    2.82    2.42
  10  -1   3    3.26    3.87
 -10   1  -3    3.66    3.53
  10  -1   4    4.94    3.83
 -10   1  -4    2.37    3.33
  10  -1   5   31.74    6.38
  10   0  -2   65.90   10.32
  10   0  -1    7.98    4.67
  10   0   0   49.93    8.55
  10   0   1   27.68    6.68
 -10   0  -2   28.98    5.27
  10   0   2   40.76    7.25
 -10   0  -2   29.02    6.72
 -10   0  -3   49.42    6.88
 -10   0  -3   40.57    8.15
  10   0   4   53.29    7.65
 -10   0  -4   27.56    6.68
  10   0   5   -0.80    3.08
  10   0   6   34.25    6.41
 -10   0  -7   40.52    4.81
 -10   0  -8    9.71    3.03
  10   1   1   11.11    4.44
  10   1   2  119.66   12.01
 -10  -1  -3  524.35   31.48
 -10  -1  -3  446.54   34.42
  10   1   4   87.48    9.63
 -10  -1  -4   65.32    9.94
  10   1   5    5.56    3.86
 -10  -1  -5    4.69    3.29
 -10  -1  -6    6.40    2.44
  10   1   6    9.93    3.98
  10   1   7   61.19    7.84
 -10  -1  -7   58.78    5.88
 -10  -1  -8   33.85    4.73
  10   2  -2   31.17    3.82
  10   2  -1   25.89    3.57
  10   2   0    9.17    2.41
  10   2   1   27.52    3.78
  10   2   2    1.34    1.64
 -10  -2  -2    1.76    2.32
 -10  -2  -2    3.12    3.72
  10   2   3   16.94    3.03
  10   2   3   18.63    4.87
  10   2   4  122.86   11.29
 -10  -2  -5   10.58    2.74
  10   2   5    9.62    3.88
  10   2   6  112.51   10.60
 -10  -2  -6  112.98    8.49
 -10  -2  -7   10.98    2.80
  10   2   7   14.99    4.19
  10   2   8   35.75    5.97
 -10  -2  -8   36.80    4.87
  10   3  -2   19.12    3.16
  10   3  -1   50.45    5.19
  10   3   0    7.66    2.44
  10   3   1    1.73    1.48
  10   3   2   10.85    2.66
 -10  -3  -2   11.14    3.56
 -10  -3  -2   12.92    4.91
  10   3   3   12.88    2.86
 -10  -3  -3    8.67    3.26
 -10  -3  -3    6.66    4.01
  10   3   4    2.47    1.78
 -10  -3  -4    1.19    3.00
  10   3   5    6.93    2.35
 -10  -3  -5    4.60    2.17
 -10  -3  -5    2.91    2.83
 -10  -3  -6    7.72    2.48
 -10  -3  -7   54.80    5.71
 -10  -3  -8  106.31    8.66
  10   4   0   42.83    4.83
  10   4   1   40.13    4.70
  10   4   2   25.48    3.84
  10   4   3   76.78    6.91
 -10  -4  -3   71.46   10.47
 -10  -4  -4   20.97    5.80
 -10  -4  -5    1.15    1.78
 -10  -4  -6    6.82    2.43
 -10  -4  -7    1.76    2.26
 -10  -5  -6    4.29    2.15
 -10  -5  -7   11.45    3.19
  11   0   2   23.87    6.72
  11   0   3   91.66   11.34
  11   0   4    5.20    4.36
  11   1   5   60.33    8.68
   0   0   0    0.00    0.00
;
_shelx_hkl_checksum              72671
loop_
_space_group_symop_operation_xyz
'x, y, z'
loop_
_atom_site_label
_atom_site_type_symbol
_atom_site_fract_x
_atom_site_fract_y
_atom_site_fract_z
_atom_site_U_iso_or_equiv
_atom_site_adp_type
_atom_site_occupancy
_atom_site_site_symmetry_order
_atom_site_calc_flag
_atom_site_refinement_flags_posn
_atom_site_refinement_flags_adp
_atom_site_refinement_flags_occupancy
_atom_site_disorder_assembly
_atom_site_disorder_group
K1 K 0.8639(4) 0.8640(3) 0.5982(3) 0.0328(7) Uani 1 1 d . . . . .
K2 K 0.0001(4) 0.0005(3) -0.0005(3) 0.0334(7) Uani 1 1 d . . . . .
K3 K 0.2122(4) 0.5687(3) 0.9067(4) 0.0421(8) Uani 1 1 d . . . . .
K4 K 0.6293(4) 0.6437(3) 0.0721(4) 0.0387(8) Uani 1 1 d . . . . .
Cd1 Cd 0.71591(11) 0.30109(9) 0.45210(10) 0.0171(2) Uani 1 1 d . . . . .
Ga1 Ga 0.01487(16) 0.60328(14) 0.35706(14) 0.0111(3) Uani 1 1 d . . . . .
Ga2 Ga 0.59932(17) 0.20485(14) 0.14859(15) 0.0119(3) Uani 1 1 d . . . . .
Ga3 Ga 0.17789(17) 0.24825(15) 0.30669(16) 0.0124(3) Uani 1 1 d . . . . .
Ga4 Ga 0.41605(16) 0.00140(14) 0.56241(15) 0.0113(3) Uani 1 1 d . . . . .
Ga5 Ga 0.26205(15) 0.34669(13) 0.61554(15) 0.0120(3) Uani 1 1 d . . . . .
Ga6 Ga 0.29642(16) 0.90280(13) 0.26997(13) 0.0109(3) Uani 1 1 d . . . . .
Ga7 Ga 0.57377(15) 0.64510(13) 0.51147(15) 0.0115(3) Uani 1 1 d . . . . .
Ga8 Ga 0.79194(16) 0.39518(12) 0.77025(13) 0.0115(3) Uani 1 1 d . . . . .
Ga9 Ga 0.49359(16) 0.10580(14) 0.85262(15) 0.0117(3) Uani 1 1 d . . . . .
S1 S 0.2392(4) 0.7295(3) 0.1941(3) 0.0137(6) Uani 1 1 d . . . . .
S2 S 0.4816(3) 0.4775(3) 0.4384(3) 0.0134(6) Uani 1 1 d . . . . .
S3 S 0.0417(4) 0.5069(3) 0.6054(3) 0.0114(6) Uani 1 1 d . . . . .
S4 S 0.5404(3) 0.0054(3) 0.0949(3) 0.0113(6) Uani 1 1 d . . . . .
S5 S 0.4601(4) 0.9118(3) 0.7928(3) 0.0172(7) Uani 1 1 d . . . . .
S6 S 0.6505(4) 0.0956(3) 0.3846(3) 0.0129(6) Uani 1 1 d . . . . .
S7 S 0.3483(4) 0.8059(3) 0.5103(3) 0.0111(6) Uani 1 1 d . . . . .
S8 S 0.4010(4) 0.3686(3) 0.1458(3) 0.0170(6) Uani 1 1 d . . . . .
S9 S 0.1937(4) 0.1564(3) 0.5571(3) 0.0126(6) Uani 1 1 d . . . . .
S10 S 0.9771(3) 0.4223(3) 0.2750(3) 0.0138(6) Uani 1 1 d . . . . .
S11 S 0.2811(4) 0.2589(3) 0.8522(3) 0.0165(6) Uani 1 1 d . . . . .
S12 S 0.7528(4) 0.1956(3) 0.7164(3) 0.0136(6) Uani 1 1 d . . . . .
S13 S 0.7973(4) 0.7510(3) 0.3327(3) 0.0167(6) Uani 1 1 d . . . . .
S14 S 0.8375(4) 0.3154(3) 0.0004(3) 0.0150(6) Uani 1 1 d . . . . .
S15 S 0.0871(4) 0.0566(3) 0.2785(3) 0.0162(6) Uani 1 1 d . . . . .
S16 S 0.6062(4) 0.5746(3) 0.7451(3) 0.0161(6) Uani 1 1 d . . . . .
Cl1 Cl 0.9475(4) 0.7791(3) 0.8839(4) 0.0281(6) Uani 1 1 d . . . . .
loop_
_atom_site_aniso_label
_atom_site_aniso_U_11
_atom_site_aniso_U_22
_atom_site_aniso_U_33
_atom_site_aniso_U_23
_atom_site_aniso_U_13
_atom_site_aniso_U_12
K1 0.0332(17) 0.0371(16) 0.0244(15) -0.0049(12) -0.0089(13) -0.0029(13)
K2 0.0413(18) 0.0240(14) 0.0407(17) -0.0129(12) -0.0178(14) -0.0011(12)
K3 0.0382(19) 0.0476(18) 0.0341(17) -0.0116(14) -0.0097(15) 0.0213(15)
K4 0.0356(18) 0.0369(17) 0.0385(18) -0.0128(14) 0.0015(15) -0.0106(14)
Cd1 0.0163(5) 0.0168(4) 0.0196(5) -0.0088(4) -0.0031(4) -0.0011(4)
Ga1 0.0111(6) 0.0099(6) 0.0124(6) -0.0047(5) -0.0021(5) 0.0003(5)
Ga2 0.0120(7) 0.0136(6) 0.0101(6) -0.0051(5) -0.0009(5) -0.0005(5)
Ga3 0.0124(7) 0.0113(6) 0.0143(6) -0.0066(5) -0.0026(6) 0.0019(5)
Ga4 0.0136(7) 0.0108(5) 0.0110(6) -0.0051(5) -0.0037(5) 0.0006(5)
Ga5 0.0109(7) 0.0126(6) 0.0138(7) -0.0060(5) -0.0037(5) 0.0021(5)
Ga6 0.0117(7) 0.0101(6) 0.0124(7) -0.0051(5) -0.0042(5) 0.0008(5)
Ga7 0.0106(7) 0.0109(6) 0.0135(6) -0.0053(5) -0.0028(5) 0.0018(5)
Ga8 0.0118(7) 0.0118(6) 0.0111(6) -0.0040(5) -0.0036(5) 0.0011(5)
Ga9 0.0123(6) 0.0124(6) 0.0117(6) -0.0055(5) -0.0040(5) 0.0006(5)
S1 0.0130(15) 0.0146(13) 0.0146(14) -0.0094(11) 0.0018(11) -0.0033(11)
S2 0.0130(15) 0.0138(13) 0.0135(14) -0.0062(11) -0.0015(11) -0.0005(11)
S3 0.0106(14) 0.0118(13) 0.0101(14) -0.0033(10) -0.0013(11) 0.0014(11)
S4 0.0115(14) 0.0130(13) 0.0104(13) -0.0054(11) -0.0021(11) -0.0011(11)
S5 0.0279(17) 0.0137(14) 0.0137(14) -0.0060(11) -0.0099(12) -0.0003(12)
S6 0.0144(15) 0.0137(13) 0.0110(13) -0.0045(10) -0.0038(11) -0.0002(11)
S7 0.0131(15) 0.0107(12) 0.0115(13) -0.0061(10) -0.0041(11) 0.0027(11)
S8 0.0160(16) 0.0134(13) 0.0177(15) -0.0034(11) -0.0015(12) 0.0009(11)
S9 0.0135(14) 0.0132(13) 0.0125(14) -0.0066(11) -0.0033(11) 0.0017(11)
S10 0.0145(15) 0.0114(12) 0.0186(15) -0.0081(11) -0.0061(12) 0.0025(11)
S11 0.0180(16) 0.0205(14) 0.0123(14) -0.0074(11) -0.0056(12) 0.0056(12)
S12 0.0128(14) 0.0144(13) 0.0138(14) -0.0068(11) -0.0010(11) -0.0008(11)
S13 0.0130(15) 0.0126(13) 0.0194(16) -0.0019(11) -0.0017(12) 0.0021(11)
S14 0.0135(15) 0.0206(14) 0.0099(13) -0.0034(11) -0.0031(11) -0.0043(12)
S15 0.0153(14) 0.0142(13) 0.0227(16) -0.0104(12) -0.0061(12) 0.0024(11)
S16 0.0177(16) 0.0176(14) 0.0145(14) -0.0074(11) -0.0068(12) 0.0073(12)
Cl1 0.0274(16) 0.0296(15) 0.0301(16) -0.0131(12) -0.0097(13) 0.0037(12)
loop_
_atom_type_symbol
_atom_type_description
_atom_type_scat_dispersion_real
_atom_type_scat_dispersion_imag
_atom_type_scat_source
S S 0.1246 0.1234 'International Tables Vol C Tables 4.2.6.8 and 6.1.1.4'
Cl Cl 0.1484 0.1585 'International Tables Vol C Tables 4.2.6.8 and 6.1.1.4'
K K 0.2009 0.2494 'International Tables Vol C Tables 4.2.6.8 and 6.1.1.4'
Ga Ga 0.2307 1.6083 'International Tables Vol C Tables 4.2.6.8 and 6.1.1.4'
Cd Cd -0.8075 1.2024 'International Tables Vol C Tables 4.2.6.8 and 6.1.1.4'
loop_
_geom_angle_atom_site_label_1
_geom_angle_atom_site_label_2
_geom_angle_atom_site_label_3
_geom_angle
_geom_angle_site_symmetry_1
_geom_angle_site_symmetry_3
_geom_angle_publ_flag
Cl1 K1 S15 126.08(13) . 1_665 ?
Cl1 K1 S6 143.21(13) . 1_565 ?
S15 K1 S6 67.42(9) 1_665 1_565 ?
Cl1 K1 S16 88.98(11) . . ?
S15 K1 S16 138.49(12) 1_665 . ?
S6 K1 S16 98.90(10) 1_565 . ?
Cl1 K1 S13 146.26(12) . . ?
S15 K1 S13 71.28(9) 1_665 . ?
S6 K1 S13 67.33(9) 1_565 . ?
S16 K1 S13 67.35(8) . . ?
Cl1 K1 S5 86.23(11) . . ?
S15 K1 S5 131.81(12) 1_665 . ?
S6 K1 S5 66.40(9) 1_565 . ?
S16 K1 S5 62.84(8) . . ?
S13 K1 S5 102.40(10) . . ?
Cl1 K1 S3 83.11(10) . 1_655 ?
S15 K1 S3 97.08(10) 1_665 1_655 ?
S6 K1 S3 132.26(11) 1_565 1_655 ?
S16 K1 S3 62.34(8) . 1_655 ?
S13 K1 S3 64.93(8) . 1_655 ?
S5 K1 S3 124.18(10) . 1_655 ?
Cl1 K1 Ga7 124.19(11) . . ?
S15 K1 Ga7 105.26(9) 1_665 . ?
S6 K1 Ga7 72.18(8) 1_565 . ?
S16 K1 Ga7 35.34(6) . . ?
S13 K1 Ga7 35.31(6) . . ?
S5 K1 Ga7 72.75(7) . . ?
S3 K1 Ga7 69.12(7) 1_655 . ?
Cl1 K1 Ga4 120.16(11) . 1_565 ?
S15 K1 Ga4 102.38(9) 1_665 1_565 ?
S6 K1 Ga4 35.05(6) 1_565 1_565 ?
S16 K1 Ga4 70.86(7) . 1_565 ?
S13 K1 Ga4 75.78(8) . 1_565 ?
S5 K1 Ga4 34.17(6) . 1_565 ?
S3 K1 Ga4 127.18(9) 1_655 1_565 ?
Ga7 K1 Ga4 58.51(5) . 1_565 ?
Cl1 K1 Cd1 111.40(10) . 1_565 ?
S15 K1 Cd1 67.35(7) 1_665 1_565 ?
S6 K1 Cd1 36.53(6) 1_565 1_565 ?
S16 K1 Cd1 124.58(9) . 1_565 ?
S13 K1 Cd1 101.97(9) . 1_565 ?
S5 K1 Cd1 67.65(7) . 1_565 ?
S3 K1 Cd1 162.92(9) 1_655 1_565 ?
Ga7 K1 Cd1 107.09(7) . 1_565 ?
Ga4 K1 Cd1 54.13(4) 1_565 1_565 ?
Cl1 K1 K4 42.03(8) . 1_556 ?
S15 K1 K4 167.24(11) 1_665 1_556 ?
S6 K1 K4 118.68(10) 1_565 1_556 ?
S16 K1 K4 53.73(7) . 1_556 ?
S13 K1 K4 121.08(9) . 1_556 ?
S5 K1 K4 52.31(7) . 1_556 ?
S3 K1 K4 86.54(8) 1_655 1_556 ?
Ga7 K1 K4 87.47(7) . 1_556 ?
Ga4 K1 K4 84.84(7) 1_565 1_556 ?
Cd1 K1 K4 110.20(7) 1_565 1_556 ?
Cl1 K1 K3 34.29(8) . 1_655 ?
S15 K1 K3 109.09(10) 1_665 1_655 ?
S6 K1 K3 173.63(10) 1_565 1_655 ?
S16 K1 K3 87.20(9) . 1_655 ?
S13 K1 K3 117.18(9) . 1_655 ?
S5 K1 K3 115.43(9) . 1_655 ?
S3 K1 K3 52.49(7) 1_655 1_655 ?
Ga7 K1 K3 114.15(8) . 1_655 ?
Ga4 K1 K3 148.36(8) 1_565 1_655 ?
Cd1 K1 K3 137.59(8) 1_565 1_655 ?
K4 K1 K3 63.64(7) 1_556 1_655 ?
Cl1 K2 S15 145.13(13) 1_444 . ?
Cl1 K2 S11 128.33(13) 1_444 1_554 ?
S15 K2 S11 72.97(9) . 1_554 ?
Cl1 K2 S14 136.44(13) 1_444 1_455 ?
S15 K2 S14 73.40(9) . 1_455 ?
S11 K2 S14 68.97(9) 1_554 1_455 ?
Cl1 K2 S13 82.53(10) 1_444 1_445 ?
S15 K2 S13 70.15(9) . 1_445 ?
S11 K2 S13 142.73(12) 1_554 1_445 ?
S14 K2 S13 104.70(10) 1_455 1_445 ?
Cl1 K2 S1 83.12(10) 1_444 1_545 ?
S15 K2 S1 65.68(9) . 1_545 ?
S11 K2 S1 96.40(10) 1_554 1_545 ?
S14 K2 S1 139.03(12) 1_455 1_545 ?
S13 K2 S1 63.55(8) 1_445 1_545 ?
Cl1 K2 S4 81.94(10) 1_444 1_455 ?
S15 K2 S4 103.01(10) . 1_455 ?
S11 K2 S4 133.00(11) 1_554 1_455 ?
S14 K2 S4 65.27(8) 1_455 1_455 ?
S13 K2 S4 62.50(8) 1_445 1_455 ?
S1 K2 S4 125.32(10) 1_545 1_455 ?
Cl1 K2 S12 76.16(10) 1_444 1_454 ?
S15 K2 S12 135.48(10) . 1_454 ?
S11 K2 S12 92.95(10) 1_554 1_454 ?
S14 K2 S12 62.18(8) 1_455 1_454 ?
S13 K2 S12 117.19(10) 1_445 1_454 ?
S1 K2 S12 158.79(11) 1_545 1_454 ?
S4 K2 S12 56.45(7) 1_455 1_454 ?
Cl1 K2 Ga6 117.49(11) 1_444 1_545 ?
S15 K2 Ga6 34.52(6) . 1_545 ?
S11 K2 Ga6 73.47(8) 1_554 1_545 ?
S14 K2 Ga6 105.54(9) 1_455 1_545 ?
S13 K2 Ga6 73.28(8) 1_445 1_545 ?
S1 K2 Ga6 34.46(6) 1_545 1_545 ?
S4 K2 Ga6 128.87(10) 1_455 1_545 ?
S12 K2 Ga6 164.80(9) 1_454 1_545 ?
Cl1 K2 Ga2 116.55(11) 1_444 1_455 ?
S15 K2 Ga2 77.24(8) . 1_455 ?
S11 K2 Ga2 102.48(9) 1_554 1_455 ?
S14 K2 Ga2 34.03(6) 1_455 1_455 ?
S13 K2 Ga2 74.51(8) 1_445 1_455 ?
S1 K2 Ga2 130.89(10) 1_545 1_455 ?
S4 K2 Ga2 34.99(5) 1_455 1_455 ?
S12 K2 Ga2 64.65(7) 1_454 1_455 ?
Ga6 K2 Ga2 110.90(7) 1_545 1_455 ?
Cl1 K2 K4 37.69(8) 1_444 1_445 ?
S15 K2 K4 122.66(10) . 1_445 ?
S11 K2 K4 164.22(11) 1_554 1_445 ?
S14 K2 K4 115.36(9) 1_455 1_445 ?
S13 K2 K4 52.60(7) 1_445 1_445 ?
S1 K2 K4 89.27(8) 1_545 1_445 ?
S4 K2 K4 50.37(6) 1_455 1_445 ?
S12 K2 K4 77.15(8) 1_454 1_445 ?
Ga6 K2 K4 117.57(8) 1_545 1_445 ?
Ga2 K2 K4 84.54(7) 1_455 1_445 ?
Cl1 K2 K3 34.68(8) 1_444 1_544 ?
S15 K2 K3 117.42(9) . 1_544 ?
S11 K2 K3 110.92(10) 1_554 1_544 ?
S14 K2 K3 168.98(11) 1_455 1_544 ?
S13 K2 K3 82.10(8) 1_445 1_544 ?
S1 K2 K3 51.74(7) 1_545 1_544 ?
S4 K2 K3 111.89(8) 1_455 1_544 ?
S12 K2 K3 107.09(8) 1_454 1_544 ?
Ga6 K2 K3 84.60(7) 1_545 1_544 ?
Ga2 K2 K3 146.13(8) 1_455 1_544 ?
K4 K2 K3 61.71(6) 1_445 1_544 ?
Cl1 K3 S8 139.61(13) 1_455 1_556 ?
Cl1 K3 S11 134.76(14) 1_455 . ?
S8 K3 S11 73.10(10) 1_556 . ?
Cl1 K3 S16 135.75(14) 1_455 . ?
S8 K3 S16 70.70(10) 1_556 . ?
S11 K3 S16 74.82(10) . . ?
Cl1 K3 S10 81.80(11) 1_455 1_456 ?
S8 K3 S10 64.03(9) 1_556 1_456 ?
S11 K3 S10 96.29(11) . 1_456 ?
S16 K3 S10 134.43(12) . 1_456 ?
Cl1 K3 S7 79.56(11) 1_455 . ?
S8 K3 S7 133.19(13) 1_556 . ?
S11 K3 S7 96.42(10) . . ?
S16 K3 S7 62.56(9) . . ?
S10 K3 S7 161.35(12) 1_456 . ?
Cl1 K3 S5 80.95(11) 1_455 . ?
S8 K3 S5 96.25(11) 1_556 . ?
S11 K3 S5 135.23(12) . . ?
S16 K3 S5 60.81(9) . . ?
S10 K3 S5 118.33(11) 1_456 . ?
S7 K3 S5 59.07(8) . . ?
Cl1 K3 S1 78.11(10) 1_455 1_556 ?
S8 K3 S1 66.58(9) 1_556 1_556 ?
S11 K3 S1 138.98(12) . 1_556 ?
S16 K3 S1 98.06(11) . 1_556 ?
S10 K3 S1 59.65(8) 1_456 1_556 ?
S7 K3 S1 116.34(11) . 1_556 ?
S5 K3 S1 58.95(8) . 1_556 ?
Cl1 K3 Ga3 116.67(11) 1_455 1_556 ?
S8 K3 Ga3 33.48(6) 1_556 1_556 ?
S11 K3 Ga3 71.90(8) . 1_556 ?
S16 K3 Ga3 102.68(9) . 1_556 ?
S10 K3 Ga3 34.88(6) 1_456 1_556 ?
S7 K3 Ga3 163.75(11) . 1_556 ?
S5 K3 Ga3 121.50(10) . 1_556 ?
S1 K3 Ga3 70.49(7) 1_556 1_556 ?
Cl1 K3 K4 118.21(12) 1_455 1_556 ?
S8 K3 K4 46.01(8) 1_556 1_556 ?
S11 K3 K4 106.95(10) . 1_556 ?
S16 K3 K4 52.73(7) . 1_556 ?
S10 K3 K4 90.11(9) 1_456 1_556 ?
S7 K3 K4 99.17(9) . 1_556 ?
S5 K3 K4 50.24(7) . 1_556 ?
S1 K3 K4 46.89(7) 1_556 1_556 ?
Ga3 K3 K4 74.45(7) 1_556 1_556 ?
Cl1 K3 K2 35.00(8) 1_455 1_566 ?
S8 K3 K2 112.71(10) 1_556 1_566 ?
S11 K3 K2 168.69(12) . 1_566 ?
S16 K3 K2 115.99(10) . 1_566 ?
S10 K3 K2 78.56(8) 1_456 1_566 ?
S7 K3 K2 86.45(8) . 1_566 ?
S5 K3 K2 55.23(7) . 1_566 ?
S1 K3 K2 46.20(7) 1_556 1_566 ?
Ga3 K3 K2 107.23(8) 1_556 1_566 ?
K4 K3 K2 83.28(7) 1_556 1_566 ?
Cl1 K3 K1 34.11(8) 1_455 1_455 ?
S8 K3 K1 172.48(11) 1_556 1_455 ?
S11 K3 K1 109.36(10) . 1_455 ?
S16 K3 K1 116.71(10) . 1_455 ?
S10 K3 K1 108.47(10) 1_456 1_455 ?
S7 K3 K1 54.16(7) . 1_455 ?
S5 K3 K1 86.88(8) . 1_455 ?
S1 K3 K1 109.74(9) 1_556 1_455 ?
Ga3 K3 K1 139.72(9) 1_556 1_455 ?
K4 K3 K1 136.62(9) 1_556 1_455 ?
K2 K3 K1 63.63(6) 1_566 1_455 ?
Cl1 K4 S8 140.97(13) 1_554 . ?
Cl1 K4 S2 133.90(14) 1_554 . ?
S8 K4 S2 68.42(9) . . ?
Cl1 K4 S1 141.29(13) 1_554 . ?
S8 K4 S1 71.96(10) . . ?
S2 K4 S1 66.80(9) . . ?
Cl1 K4 S5 85.16(11) 1_554 1_554 ?
S8 K4 S5 99.85(11) . 1_554 ?
S2 K4 S5 131.98(12) . 1_554 ?
S1 K4 S5 65.34(9) . 1_554 ?
Cl1 K4 S16 83.99(11) 1_554 1_554 ?
S8 K4 S16 66.07(9) . 1_554 ?
S2 K4 S16 134.41(11) . 1_554 ?
S1 K4 S16 100.87(11) . 1_554 ?
S5 K4 S16 60.43(8) 1_554 1_554 ?
Cl1 K4 S4 83.24(10) 1_554 1_565 ?
S8 K4 S4 133.08(12) . 1_565 ?
S2 K4 S4 92.40(9) . 1_565 ?
S1 K4 S4 61.12(8) . 1_565 ?
S5 K4 S4 61.09(8) 1_554 1_565 ?
S16 K4 S4 120.85(11) 1_554 1_565 ?
Cl1 K4 S13 76.89(10) 1_554 . ?
S8 K4 S13 129.11(12) . . ?
S2 K4 S13 61.64(8) . . ?
S1 K4 S13 96.09(9) . . ?
S5 K4 S13 120.14(10) 1_554 . ?
S16 K4 S13 160.62(12) 1_554 . ?
S4 K4 S13 60.37(7) 1_565 . ?
Cl1 K4 S14 81.28(10) 1_554 . ?
S8 K4 S14 62.56(8) . . ?
S2 K4 S14 96.34(10) . . ?
S1 K4 S14 134.51(11) . . ?
S5 K4 S14 119.98(11) 1_554 . ?
S16 K4 S14 60.13(8) 1_554 . ?
S4 K4 S14 164.28(12) 1_565 . ?
S13 K4 S14 112.96(11) . . ?
Cl1 K4 Cd1 107.94(11) 1_554 . ?
S8 K4 Cd1 70.67(8) . . ?
S2 K4 Cd1 36.70(6) . . ?
S1 K4 Cd1 102.42(9) . . ?
S5 K4 Cd1 166.87(11) 1_554 . ?
S16 K4 Cd1 120.50(9) 1_554 . ?
S4 K4 Cd1 118.40(9) 1_565 . ?
S13 K4 Cd1 63.91(7) . . ?
S14 K4 Cd1 64.52(7) . . ?
Cl1 K4 K1 41.25(8) 1_554 1_554 ?
S8 K4 K1 115.04(10) . 1_554 ?
S2 K4 K1 175.12(12) . 1_554 ?
S1 K4 K1 117.17(10) . 1_554 ?
S5 K4 K1 51.85(8) 1_554 1_554 ?
S16 K4 K1 48.99(7) 1_554 1_554 ?
S4 K4 K1 87.45(8) 1_565 1_554 ?
S13 K4 K1 114.28(9) . 1_554 ?
S14 K4 K1 82.73(8) . 1_554 ?
Cd1 K4 K1 140.00(9) . 1_554 ?
Cl1 K4 K3 125.91(12) 1_554 1_554 ?
S8 K4 K3 45.00(8) . 1_554 ?
S2 K4 K3 99.91(10) . 1_554 ?
S1 K4 K3 55.97(8) . 1_554 ?
S5 K4 K3 54.84(8) 1_554 1_554 ?
S16 K4 K3 46.53(7) 1_554 1_554 ?
S4 K4 K3 102.55(9) 1_565 1_554 ?
S13 K4 K3 151.88(11) . 1_554 ?
S14 K4 K3 88.82(9) . 1_554 ?
Cd1 K4 K3 115.07(8) . 1_554 ?
K1 K4 K3 84.88(8) 1_554 1_554 ?
S10 Cd1 S6 108.94(10) . . ?
S10 Cd1 S2 111.13(10) . . ?
S6 Cd1 S2 109.08(10) . . ?
S10 Cd1 S12 109.62(10) . . ?
S6 Cd1 S12 107.99(10) . . ?
S2 Cd1 S12 110.01(10) . . ?
S10 Cd1 K1 100.70(8) . 1_545 ?
S6 Cd1 K1 50.76(8) . 1_545 ?
S2 Cd1 K1 147.26(8) . 1_545 ?
S12 Cd1 K1 63.96(8) . 1_545 ?
S10 Cd1 K4 68.12(8) . . ?
S6 Cd1 K4 97.24(8) . . ?
S2 Cd1 K4 51.97(8) . . ?
S12 Cd1 K4 153.48(8) . . ?
K1 Cd1 K4 142.26(6) 1_545 . ?
S13 Ga1 S1 107.88(11) 1_455 . ?
S13 Ga1 S10 106.34(11) 1_455 1_455 ?
S1 Ga1 S10 106.01(10) . 1_455 ?
S13 Ga1 S3 112.13(11) 1_455 . ?
S1 Ga1 S3 112.64(11) . . ?
S10 Ga1 S3 111.44(11) 1_455 . ?
S8 Ga2 S14 109.85(12) . . ?
S8 Ga2 S6 111.89(12) . . ?
S14 Ga2 S6 104.40(12) . . ?
S8 Ga2 S4 114.85(12) . . ?
S14 Ga2 S4 112.29(12) . . ?
S6 Ga2 S4 102.90(11) . . ?
S8 Ga2 K2 159.58(10) . 1_655 ?
S14 Ga2 K2 55.09(9) . 1_655 ?
S6 Ga2 K2 86.76(9) . 1_655 ?
S4 Ga2 K2 66.25(9) . 1_655 ?
S8 Ga3 S15 119.77(12) . . ?
S8 Ga3 S10 102.92(11) . 1_455 ?
S15 Ga3 S10 106.68(12) . 1_455 ?
S8 Ga3 S9 114.16(12) . . ?
S15 Ga3 S9 103.13(11) . . ?
S10 Ga3 S9 109.87(11) 1_455 . ?
S8 Ga3 K3 51.83(10) . 1_554 ?
S15 Ga3 K3 103.87(10) . 1_554 ?
S10 Ga3 K3 60.05(9) 1_455 1_554 ?
S9 Ga3 K3 152.94(9) . 1_554 ?
S5 Ga4 S6 111.40(13) 1_545 . ?
S5 Ga4 S9 110.14(12) 1_545 . ?
S6 Ga4 S9 115.48(11) . . ?
S5 Ga4 S7 107.36(11) 1_545 1_545 ?
S6 Ga4 S7 104.48(11) . 1_545 ?
S9 Ga4 S7 107.46(11) . 1_545 ?
S5 Ga4 K1 62.51(10) 1_545 1_545 ?
S6 Ga4 K1 55.39(9) . 1_545 ?
S9 Ga4 K1 157.24(9) . 1_545 ?
S7 Ga4 K1 95.27(9) 1_545 1_545 ?
S11 Ga5 S2 117.08(12) . . ?
S11 Ga5 S9 108.39(12) . . ?
S2 Ga5 S9 111.31(11) . . ?
S11 Ga5 S3 106.56(12) . . ?
S2 Ga5 S3 105.79(11) . . ?
S9 Ga5 S3 107.16(12) . . ?
S15 Ga6 S1 110.55(12) 1_565 . ?
S15 Ga6 S4 115.23(11) 1_565 1_565 ?
S1 Ga6 S4 102.63(10) . 1_565 ?
S15 Ga6 S7 107.63(11) 1_565 . ?
S1 Ga6 S7 112.45(11) . . ?
S4 Ga6 S7 108.40(11) 1_565 . ?
S15 Ga6 K2 56.36(9) 1_565 1_565 ?
S1 Ga6 K2 61.86(9) . 1_565 ?
S4 Ga6 K2 99.42(9) 1_565 1_565 ?
S7 Ga6 K2 152.10(10) . 1_565 ?
S16 Ga7 S13 113.91(13) . . ?
S16 Ga7 S2 118.83(12) . . ?
S13 Ga7 S2 106.40(11) . . ?
S16 Ga7 S7 103.97(11) . . ?
S13 Ga7 S7 112.04(11) . . ?
S2 Ga7 S7 100.98(11) . . ?
S16 Ga7 K1 60.65(9) . . ?
S13 Ga7 K1 61.25(9) . . ?
S2 Ga7 K1 160.88(9) . . ?
S7 Ga7 K1 97.44(9) . . ?
S14 Ga8 S16 110.72(12) 1_556 . ?
S14 Ga8 S12 108.00(11) 1_556 . ?
S16 Ga8 S12 119.71(12) . . ?
S14 Ga8 S3 105.20(11) 1_556 1_655 ?
S16 Ga8 S3 105.33(12) . 1_655 ?
S12 Ga8 S3 106.86(11) . 1_655 ?
S11 Ga9 S5 115.43(12) . 1_545 ?
S11 Ga9 S12 119.61(12) . . ?
S5 Ga9 S12 105.38(12) 1_545 . ?
S11 Ga9 S4 109.74(11) . 1_556 ?
S5 Ga9 S4 105.18(11) 1_545 1_556 ?
S12 Ga9 S4 99.52(11) . 1_556 ?
Ga6 S1 Ga1 109.26(12) . . ?
Ga6 S1 K4 96.30(11) . . ?
Ga1 S1 K4 134.76(12) . . ?
Ga6 S1 K2 83.68(10) . 1_565 ?
Ga1 S1 K2 91.91(11) . 1_565 ?
K4 S1 K2 128.44(11) . 1_565 ?
Ga6 S1 K3 155.17(13) . 1_554 ?
Ga1 S1 K3 91.46(10) . 1_554 ?
K4 S1 K3 77.14(9) . 1_554 ?
K2 S1 K3 82.06(9) 1_565 1_554 ?
Ga5 S2 Ga7 111.60(12) . . ?
Ga5 S2 Cd1 104.82(11) . . ?
Ga7 S2 Cd1 100.67(11) . . ?
Ga5 S2 K4 143.27(13) . . ?
Ga7 S2 K4 97.03(11) . . ?
Cd1 S2 K4 91.33(10) . . ?
Ga5 S3 Ga1 108.16(12) . . ?
Ga5 S3 Ga8 113.00(12) . 1_455 ?
Ga1 S3 Ga8 110.06(12) . 1_455 ?
Ga5 S3 K1 150.52(13) . 1_455 ?
Ga1 S3 K1 80.72(9) . 1_455 ?
Ga8 S3 K1 88.65(9) 1_455 1_455 ?
Ga6 S4 Ga2 105.79(11) 1_545 . ?
Ga6 S4 Ga9 109.57(11) 1_545 1_554 ?
Ga2 S4 Ga9 105.37(11) . 1_554 ?
Ga6 S4 K4 86.56(9) 1_545 1_545 ?
Ga2 S4 K4 152.36(13) . 1_545 ?
Ga9 S4 K4 93.04(10) 1_554 1_545 ?
Ga6 S4 K2 146.73(12) 1_545 1_655 ?
Ga2 S4 K2 78.75(9) . 1_655 ?
Ga9 S4 K2 100.49(10) 1_554 1_655 ?
K4 S4 K2 77.74(9) 1_545 1_655 ?
Ga4 S5 Ga9 106.66(13) 1_565 1_565 ?
Ga4 S5 K1 83.32(11) 1_565 . ?
Ga9 S5 K1 101.63(11) 1_565 . ?
Ga4 S5 K4 150.79(13) 1_565 1_556 ?
Ga9 S5 K4 97.52(11) 1_565 1_556 ?
K1 S5 K4 75.85(10) . 1_556 ?
Ga4 S5 K3 93.19(10) 1_565 . ?
Ga9 S5 K3 145.24(13) 1_565 . ?
K1 S5 K3 108.93(10) . . ?
K4 S5 K3 74.92(9) 1_556 . ?
Ga4 S6 Ga2 111.09(13) . . ?
Ga4 S6 Cd1 102.14(11) . . ?
Ga2 S6 Cd1 105.34(11) . . ?
Ga4 S6 K1 89.56(10) . 1_545 ?
Ga2 S6 K1 148.33(13) . 1_545 ?
Cd1 S6 K1 92.72(10) . 1_545 ?
Ga4 S7 Ga6 106.87(11) 1_565 . ?
Ga4 S7 Ga7 108.78(12) 1_565 . ?
Ga6 S7 Ga7 110.27(11) . . ?
Ga4 S7 K3 94.55(10) 1_565 . ?
Ga6 S7 K3 148.19(13) . . ?
Ga7 S7 K3 83.59(10) . . ?
Ga3 S8 Ga2 106.19(12) . . ?
Ga3 S8 K3 94.69(12) . 1_554 ?
Ga2 S8 K3 135.59(13) . 1_554 ?
Ga3 S8 K4 141.51(13) . . ?
Ga2 S8 K4 97.34(12) . . ?
K3 S8 K4 88.98(11) 1_554 . ?
Ga4 S9 Ga5 106.66(12) . . ?
Ga4 S9 Ga3 104.88(11) . . ?
Ga5 S9 Ga3 108.37(12) . . ?
Ga1 S10 Ga3 112.10(12) 1_655 1_655 ?
Ga1 S10 Cd1 103.25(11) 1_655 . ?
Ga3 S10 Cd1 106.48(11) 1_655 . ?
Ga1 S10 K3 99.04(11) 1_655 1_654 ?
Ga3 S10 K3 85.07(10) 1_655 1_654 ?
Cd1 S10 K3 148.41(12) . 1_654 ?
Ga5 S11 Ga9 104.32(12) . . ?
Ga5 S11 K3 95.98(12) . . ?
Ga9 S11 K3 134.58(13) . . ?
Ga5 S11 K2 100.45(12) . 1_556 ?
Ga9 S11 K2 94.75(11) . 1_556 ?
K3 S11 K2 121.17(12) . 1_556 ?
Ga8 S12 Ga9 106.87(12) . . ?
Ga8 S12 Cd1 104.41(11) . . ?
Ga9 S12 Cd1 101.77(11) . . ?
Ga8 S12 K2 84.11(10) . 1_656 ?
Ga9 S12 K2 100.69(11) . 1_656 ?
Cd1 S12 K2 152.35(12) . 1_656 ?
Ga7 S13 Ga1 110.42(12) . 1_655 ?
Ga7 S13 K1 83.43(10) . . ?
Ga1 S13 K1 89.16(11) 1_655 . ?
Ga7 S13 K2 154.50(14) . 1_665 ?
Ga1 S13 K2 94.04(11) 1_655 1_665 ?
K1 S13 K2 104.69(9) . 1_665 ?
Ga7 S13 K4 87.00(10) . . ?
Ga1 S13 K4 101.56(11) 1_655 . ?
K1 S13 K4 167.63(12) . . ?
K2 S13 K4 80.93(9) 1_665 . ?
Ga8 S14 Ga2 103.03(12) 1_554 . ?
Ga8 S14 K2 97.36(11) 1_554 1_655 ?
Ga2 S14 K2 90.88(11) . 1_655 ?
Ga8 S14 K4 91.22(11) 1_554 . ?
Ga2 S14 K4 82.81(10) . . ?
K2 S14 K4 170.33(11) 1_655 . ?
Ga6 S15 Ga3 107.05(13) 1_545 . ?
Ga6 S15 K1 97.82(11) 1_545 1_445 ?
Ga3 S15 K1 106.90(12) . 1_445 ?
Ga6 S15 K2 89.12(10) 1_545 . ?
Ga3 S15 K2 134.54(13) . . ?
K1 S15 K2 112.68(11) 1_445 . ?
Ga7 S16 Ga8 107.09(12) . . ?
Ga7 S16 K3 95.31(12) . . ?
Ga8 S16 K3 130.70(13) . . ?
Ga7 S16 K1 84.01(10) . . ?
Ga8 S16 K1 99.16(12) . . ?
K3 S16 K1 126.97(11) . . ?
Ga7 S16 K4 152.74(12) . 1_556 ?
Ga8 S16 K4 95.43(11) . 1_556 ?
K3 S16 K4 80.74(10) . 1_556 ?
K1 S16 K4 77.29(9) . 1_556 ?
K1 Cl1 K3 111.60(13) . 1_655 ?
K1 Cl1 K2 120.43(14) . 1_666 ?
K3 Cl1 K2 110.32(14) 1_655 1_666 ?
K1 Cl1 K4 96.72(13) . 1_556 ?
K3 Cl1 K4 111.87(14) 1_655 1_556 ?
K2 Cl1 K4 104.75(12) 1_666 1_556 ?
loop_
_geom_bond_atom_site_label_1
_geom_bond_atom_site_label_2
_geom_bond_distance
_geom_bond_site_symmetry_2
_geom_bond_publ_flag
K1 Cl1 2.894(4) . ?
K1 S15 3.199(4) 1_665 ?
K1 S6 3.258(4) 1_565 ?
K1 S16 3.372(4) . ?
K1 S13 3.396(4) . ?
K1 S5 3.535(4) . ?
K1 S3 3.694(4) 1_655 ?
K2 Cl1 2.931(4) 1_444 ?
K2 S15 3.277(4) . ?
K2 S11 3.280(4) 1_554 ?
K2 S14 3.290(4) 1_455 ?
K2 S13 3.413(4) 1_445 ?
K2 S1 3.492(4) 1_545 ?
K2 S4 3.743(4) 1_455 ?
K2 S12 3.775(4) 1_454 ?
K3 Cl1 2.907(4) 1_455 ?
K3 S8 3.161(4) 1_556 ?
K3 S11 3.279(4) . ?
K3 S16 3.286(4) . ?
K3 S10 3.484(4) 1_456 ?
K3 S7 3.675(4) . ?
K3 S5 3.784(4) . ?
K3 S1 3.798(4) 1_556 ?
K4 Cl1 2.939(4) 1_554 ?
K4 S8 3.216(4) . ?
K4 S2 3.314(4) . ?
K4 S1 3.346(4) . ?
K4 S5 3.558(4) 1_554 ?
K4 S16 3.603(4) 1_554 ?
K4 S4 3.664(4) 1_565 ?
K4 S13 3.740(4) . ?
K4 S14 3.764(4) . ?
Cd1 S10 2.500(3) . ?
Cd1 S6 2.504(3) . ?
Cd1 S2 2.514(3) . ?
Cd1 S12 2.525(3) . ?
Ga1 S13 2.248(3) 1_455 ?
Ga1 S1 2.251(3) . ?
Ga1 S10 2.297(3) 1_455 ?
Ga1 S3 2.348(3) . ?
Ga2 S8 2.220(3) . ?
Ga2 S14 2.245(3) . ?
Ga2 S6 2.320(3) . ?
Ga2 S4 2.345(3) . ?
Ga3 S8 2.218(3) . ?
Ga3 S15 2.238(3) . ?
Ga3 S10 2.299(3) 1_455 ?
Ga3 S9 2.339(3) . ?
Ga4 S5 2.238(3) 1_545 ?
Ga4 S6 2.273(3) . ?
Ga4 S9 2.313(3) . ?
Ga4 S7 2.326(3) 1_545 ?
Ga5 S11 2.220(3) . ?
Ga5 S2 2.285(3) . ?
Ga5 S9 2.318(3) . ?
Ga5 S3 2.331(3) . ?
Ga6 S15 2.231(3) 1_565 ?
Ga6 S1 2.241(3) . ?
Ga6 S4 2.338(3) 1_565 ?
Ga6 S7 2.356(3) . ?
Ga7 S16 2.238(3) . ?
Ga7 S13 2.239(3) . ?
Ga7 S2 2.297(3) . ?
Ga7 S7 2.368(3) . ?
Ga8 S14 2.243(3) 1_556 ?
Ga8 S16 2.246(3) . ?
Ga8 S12 2.296(3) . ?
Ga8 S3 2.366(3) 1_655 ?
Ga9 S11 2.241(3) . ?
Ga9 S5 2.264(3) 1_545 ?
Ga9 S12 2.302(3) . ?
Ga9 S4 2.357(3) 1_556 ?
S1 K2 3.492(4) 1_565 ?
S1 K3 3.798(4) 1_554 ?
S3 Ga8 2.366(3) 1_455 ?
S3 K1 3.694(4) 1_455 ?
S4 Ga6 2.338(3) 1_545 ?
S4 Ga9 2.357(3) 1_554 ?
S4 K4 3.664(4) 1_545 ?
S4 K2 3.743(4) 1_655 ?
S5 Ga4 2.238(3) 1_565 ?
S5 Ga9 2.264(3) 1_565 ?
S5 K4 3.558(4) 1_556 ?
S6 K1 3.258(4) 1_545 ?
S7 Ga4 2.326(3) 1_565 ?
S8 K3 3.161(4) 1_554 ?
S10 Ga1 2.297(3) 1_655 ?
S10 Ga3 2.299(3) 1_655 ?
S10 K3 3.484(4) 1_654 ?
S11 K2 3.280(4) 1_556 ?
S12 K2 3.775(4) 1_656 ?
S13 Ga1 2.248(3) 1_655 ?
S13 K2 3.413(4) 1_665 ?
S14 Ga8 2.243(3) 1_554 ?
S14 K2 3.290(4) 1_655 ?
S15 Ga6 2.231(3) 1_545 ?
S15 K1 3.199(4) 1_445 ?
S16 K4 3.603(4) 1_556 ?
Cl1 K3 2.907(4) 1_655 ?
Cl1 K2 2.930(4) 1_666 ?
Cl1 K4 2.939(4) 1_556 ?
