#------------------------------------------------------------------------------
#$Date: 2016-03-21 04:43:23 +0200 (Mon, 21 Mar 2016) $
#$Revision: 178478 $
#$URL: svn://www.crystallography.net/cod/cif/4/02/99/4029949.cif $
#------------------------------------------------------------------------------
#
# This file is available in the Crystallography Open Database (COD),
# http://www.crystallography.net/
#
# All data on this site have been placed in the public domain by the
# contributors.
#
data_4029949
loop_
_publ_author_name
'Boice, Genevi\`eve'
'Patrick, Brian O.'
'McDonald, Robert'
'Bohne, Cornelia'
'Hicks, Robin'
_publ_section_title
;
 Synthesis and photophysics of thioindigo diimines and related compounds.
;
_journal_issue                   19
_journal_name_full               'The Journal of organic chemistry'
_journal_page_first              9196
_journal_page_last               9205
_journal_paper_doi               10.1021/jo501630f
_journal_volume                  79
_journal_year                    2014
_chemical_formula_moiety         'C28 H20 N2 S2'
_chemical_formula_sum            'C28 H20 N2 S2'
_chemical_formula_weight         448.58
_chemical_name_systematic
;
 ?
;
_space_group_crystal_system      triclinic
_space_group_IT_number           2
_space_group_name_Hall           '-P 1'
_space_group_name_H-M_alt        'P -1'
_symmetry_space_group_name_Hall  '-P 1'
_symmetry_space_group_name_H-M   'P -1'
_atom_sites_solution_hydrogens   mixed
_audit_creation_date             2013-09-23
_audit_creation_method
;
Olex2 1.2
(compiled 2013.09.17 svn.r2790 for OlexSys, GUI svn.r4601)
;
_cell_angle_alpha                72.675(7)
_cell_angle_beta                 86.768(8)
_cell_angle_gamma                88.228(8)
_cell_formula_units_Z            1
_cell_length_a                   5.516(2)
_cell_length_b                   9.667(4)
_cell_length_c                   11.016(4)
_cell_measurement_reflns_used    4921
_cell_measurement_temperature    90(2)
_cell_measurement_theta_max      25.389
_cell_measurement_theta_min      2.215
_cell_volume                     559.8(4)
_computing_molecular_graphics
;
O. V. Dolomanov, L. J. Bourhis, R. J. Gildea, J. A. K. Howard and H. Puschmann,
OLEX2: a complete structure solution, refinement and analysis program.
J. Appl. Cryst. (2009). 42, 339-341.
;
_computing_publication_material
;
O. V. Dolomanov, L. J. Bourhis, R. J. Gildea, J. A. K. Howard and H. Puschmann,
OLEX2: a complete structure solution, refinement and analysis program.
J. Appl. Cryst. (2009). 42, 339-341.
;
_computing_structure_refinement
;
SHELX, G.M. Sheldrick, Acta Cryst.
(2008). A64, 112-122
;
_diffrn_ambient_temperature      90.0(2)
_diffrn_measured_fraction_theta_full 0.996
_diffrn_measured_fraction_theta_max 0.990
_diffrn_radiation_type           MoK\a
_diffrn_radiation_wavelength     0.71073
_diffrn_reflns_av_R_equivalents  0.0540
_diffrn_reflns_av_unetI/netI     0.0549
_diffrn_reflns_Laue_measured_fraction_full 0.996
_diffrn_reflns_Laue_measured_fraction_max 0.990
_diffrn_reflns_limit_h_max       6
_diffrn_reflns_limit_h_min       -6
_diffrn_reflns_limit_k_max       11
_diffrn_reflns_limit_k_min       -11
_diffrn_reflns_limit_l_max       13
_diffrn_reflns_limit_l_min       -13
_diffrn_reflns_number            6821
_diffrn_reflns_point_group_measured_fraction_full 0.996
_diffrn_reflns_point_group_measured_fraction_max 0.990
_diffrn_reflns_theta_full        25.000
_diffrn_reflns_theta_max         25.315
_diffrn_reflns_theta_min         1.939
_exptl_absorpt_coefficient_mu    0.257
_exptl_absorpt_correction_T_max  0.992
_exptl_absorpt_correction_T_min  0.675
_exptl_absorpt_correction_type   multi-scan
_exptl_absorpt_process_details
;
SADABS-2012/1 (Bruker,2012) was used for absorption correction.
wR2(int) was 0.1092 before and 0.0742 after correction.
The Ratio of minimum to maximum transmission is 0.6798.
The \l/2 correction factor is 0.0015.
;
_exptl_crystal_density_diffrn    1.331
_exptl_crystal_F_000             234
_exptl_crystal_size_max          0.29
_exptl_crystal_size_mid          0.11
_exptl_crystal_size_min          0.03
_refine_diff_density_max         0.761
_refine_diff_density_min         -0.419
_refine_diff_density_rms         0.103
_refine_ls_extinction_method     none
_refine_ls_goodness_of_fit_ref   1.184
_refine_ls_hydrogen_treatment    mixed
_refine_ls_matrix_type           full
_refine_ls_number_parameters     149
_refine_ls_number_reflns         2031
_refine_ls_number_restraints     204
_refine_ls_restrained_S_all      1.126
_refine_ls_R_factor_all          0.0962
_refine_ls_R_factor_gt           0.0805
_refine_ls_shift/su_max          0.000
_refine_ls_shift/su_mean         0.000
_refine_ls_structure_factor_coef Fsqd
_refine_ls_weighting_details
'w=1/[\s^2^(Fo^2^)+(0.0452P)^2^+2.8172P] where P=(Fo^2^+2Fc^2^)/3'
_refine_ls_weighting_scheme      calc
_refine_ls_wR_factor_gt          0.1965
_refine_ls_wR_factor_ref         0.2042
_reflns_Friedel_coverage         0.000
_reflns_number_gt                1691
_reflns_number_total             2031
_reflns_threshold_expression     'I > 2\s(I)'
_cod_data_source_file            jo501630f_si_003.cif
_cod_data_source_block           rh115_a
_cod_depositor_comments
'Adding full bibliography for 4029948--4029954.cif.'
_cod_database_code               4029949
#BEGIN Tags that were not found in dictionaries:
_shelxl_version_number           2013-3
_shelx_space_group_comment
;
The symmetry employed for this shelxl refinement is uniquely defined
by the following loop, which should always be used as a source of
symmetry information in preference to the above space-group names.
They are only intended as comments.
;
_olex2_refinement_description
;
1. Fixed Uiso
 At 1.2 times of:
  All C(H) groups
2. Uiso/Uaniso restraints and constraints
All non-hydrogen atoms have similar U: within 1.7A with sigma of 0.04 and sigma
for terminal atoms of 0.08
All non-hydrogen atoms restrained to be isotropic: with sigma of 0.1 and sigma
for terminal atoms of 0.2
3.a Aromatic/amide H refined with riding coordinates:
 C4(H4), C5(H5), C6(H6), C7(H7), C10(H10), C11(H11), C12(H12), C13(H13),
 C14(H14)
;
_shelx_res_file
;
TITL rh115 in P-1
CELL 0.71073 5.5155 9.6673 11.0161 72.675 86.768 88.228
ZERR 1 0.0021 0.0036 0.004 0.0073 0.0079 0.0084
LATT 1

SFAC C H N S
UNIT 28 20 2 2
SIMU
ISOR

L.S. 10
PLAN  20
TEMP -183
REM Solution 1 R1 0.152 Rweak 0.028, Alpha = 0.0981 in P-1
REM Formula: C14 N S
BOND $H
LIST 4
MORE -1
fmap 2
acta 50
CONF
REM <HKL>C:/frames/guest/rh115/work/mo_rh115_0m.hkl</HKL>

WGHT    0.045200    2.817200
FVAR       0.97312
S1    4    0.806542    0.653030    0.973092    11.00000    0.01289    0.03222 =
         0.02278   -0.01093   -0.00080   -0.00312
N1    3    0.455735    0.433945    0.786469    11.00000    0.01308    0.03325 =
         0.02147   -0.00912   -0.00474    0.00359
H1    2    0.372116    0.478166    0.743452    11.00000    0.04543
C1    1    0.591142    0.532789    0.950277    11.00000    0.01188    0.02473 =
         0.02536   -0.00909   -0.00261    0.00267
C2    1    0.617520    0.516877    0.830803    11.00000    0.01415    0.03027 =
         0.01675   -0.00611   -0.00205   -0.00013
C3    1    0.817296    0.597952    0.752831    11.00000    0.00891    0.02753 =
         0.02434   -0.00403   -0.00352    0.00242
C4    1    0.894687    0.605548    0.627344    11.00000    0.01306    0.04123 =
         0.02603   -0.01056   -0.00195    0.00041
AFIX  43
H4    2    0.813676    0.553036    0.581638    11.00000   -1.20000
AFIX   0
C5    1    1.093584    0.692067    0.571046    11.00000    0.01831    0.04252 =
         0.02284   -0.00887    0.00028    0.00097
AFIX  43
H5    2    1.147023    0.699377    0.485890    11.00000   -1.20000
AFIX   0
C6    1    1.215475    0.768573    0.639749    11.00000    0.01454    0.03828 =
         0.03086   -0.00716    0.00031   -0.00093
AFIX  43
H6    2    1.350986    0.826252    0.600446    11.00000   -1.20000
AFIX   0
C7    1    1.139497    0.760592    0.764715    11.00000    0.01519    0.02901 =
         0.03101   -0.01016   -0.00852    0.00038
AFIX  43
H7    2    1.222510    0.811529    0.811039    11.00000   -1.20000
AFIX   0
C8    1    0.938664    0.675995    0.819990    11.00000    0.01435    0.03074 =
         0.01794   -0.00635   -0.00406    0.00056
C9    1    0.520478    0.305215    0.759634    11.00000    0.01319    0.03833 =
         0.02003   -0.01068    0.00242   -0.00285
C10   1    0.728709    0.222997    0.808885    11.00000    0.01514    0.03582 =
         0.03113   -0.01019   -0.00629   -0.00246
AFIX  43
H10   2    0.834444    0.258022    0.857873    11.00000   -1.20000
AFIX   0
C11   1    0.778747    0.091318    0.785761    11.00000    0.01343    0.03775 =
         0.04496   -0.01133   -0.00397    0.00084
AFIX  43
H11   2    0.917945    0.036636    0.820437    11.00000   -1.20000
AFIX   0
C12   1    0.629177    0.037096    0.712609    11.00000    0.02357    0.03224 =
         0.04534   -0.01180    0.00173   -0.00439
AFIX  43
H12   2    0.665991   -0.052715    0.696590    11.00000   -1.20000
AFIX   0
C13   1    0.423753    0.118954    0.663701    11.00000    0.01883    0.04319 =
         0.03263   -0.01242   -0.00263   -0.00882
AFIX  43
H13   2    0.319413    0.084100    0.613959    11.00000   -1.20000
AFIX   0
C14   1    0.370637    0.249784    0.686782    11.00000    0.01283    0.04150 =
         0.02178   -0.01095   -0.00225    0.00023
AFIX  43
H14   2    0.229995    0.303271    0.652696    11.00000   -1.20000
AFIX   0
HKLF 4

REM  rh115 in P-1
REM R1 =  0.0805 for    1691 Fo > 4sig(Fo)  and  0.0962 for all    2031 data
REM    149 parameters refined using    204 restraints

END

WGHT      0.0452      2.8170

REM Highest difference peak  0.761,  deepest hole -0.419,  1-sigma level  0.103
Q1    1   0.8060  0.7649  0.9471  11.00000  0.05    0.76
Q2    1   0.8415  0.6881  0.8806  11.00000  0.05    0.68
Q3    1   0.8047  0.5441  0.9975  11.00000  0.05    0.64
Q4    1   0.7964  0.8600  0.9426  11.00000  0.05    0.53
Q5    1   0.4652  0.3323  0.8175  11.00000  0.05    0.45
Q6    1   0.9166  0.0377  0.9225  11.00000  0.05    0.41
Q7    1   0.4122  0.0456  0.8572  11.00000  0.05    0.38
Q8    1   0.8097  0.6326  1.0609  11.00000  0.05    0.38
Q9    1   0.8089  0.4782  0.7841  11.00000  0.05    0.37
Q10   1   0.5311  0.3919  0.7175  11.00000  0.05    0.37
Q11   1   0.5811  0.4277  0.8456  11.00000  0.05    0.36
Q12   1   1.1777  0.6625  0.6761  11.00000  0.05    0.35
Q13   1   0.8205  0.4442  1.0162  11.00000  0.05    0.34
Q14   1   0.3744  0.1463  0.7250  11.00000  0.05    0.34
Q15   1   0.9856  0.7582  0.7814  11.00000  0.05    0.34
Q16   1   0.4601  0.2004  0.6079  11.00000  0.05    0.32
Q17   1   1.2684  0.8569  0.5845  11.00000  0.05    0.32
Q18   1   0.6437  0.1423  0.6474  11.00000  0.05    0.30
Q19   1   0.2377  0.4015  0.6088  11.00000  0.05    0.29
Q20   1   1.1741  0.8220  0.6800  11.00000  0.05    0.29
;
_shelx_res_checksum              56349
_shelx_hkl_file
;
  -1   0   0 134.855 8.52611   6
  -1   0   0 132.242 8.60297   6
   1   0   0 131.715 8.53168   6
   1   0   0 135.139 8.64171   6
  -2   0   0 380.799 24.3252   6
  -2   0   0 421.304 29.4474   5
  -2   0   0 387.324 24.3020   6
   2   0   0 431.896 27.0305   4
   2   0   0 382.648 24.2608   6
   2   0   0 368.096 24.2615   6
  -3   0   0 1094.79 64.9451   6
  -3   0   0 1072.42 64.9290   6
  -3   0   0 1068.04 78.4224   5
   3   0   0 1045.54 64.8478   6
  -4   0   0 74.1544 7.12486   6
  -4   0   0 86.8608 7.37947   6
   4   0   0 69.9560 6.56077   6
  -5   0   0 347.404 23.2667   6
  -5   0   0 378.890 28.5159   5
  -6   0   0 5.38707 6.08478   5
  -6   0   0 -3.9630 5.99783   6
  -6   1   0 98.6018 10.0921   6
  -6   1   0 117.510 12.3666   5
  -5   1   0 49.0382 7.13700   6
  -5   1   0 76.7338 8.89264   5
   4  -1   0 26.4306 5.05141   6
  -4   1   0 27.0518 5.55070   6
  -4   1   0 39.8329 6.65987   5
  -4   1   0 23.0700 5.58213   6
   3  -1   0 900.890 56.1819   6
  -3   1   0 934.784 56.3253   6
  -3   1   0 894.706 56.2644   6
  -3   1   0 971.492 67.8986   5
   2  -1   0 217.657 14.5072   6
   2  -1   0 237.755 14.5538   6
   2  -1   0 241.183 16.0935   4
   2  -1   0 229.412 16.9902   2
  -2   1   0 237.333 17.5870   5
  -2   1   0 235.248 14.7260   6
  -2   1   0 224.736 14.6702   6
   1  -1   0 1.01636 2.30243   6
   1  -1   0 0.45387 2.43859   1
   1  -1   0 0.20306 1.53294   5
   1  -1   0 0.28330 2.20076   6
  -1   1   0 -0.5648 2.39483   6
  -1   1   0 2.78849 2.20895   6
  -1   1   0 1.09371 2.45593   2
  -1   1   0 0.47823 1.70315   5
   0  -1   0 2157.56 138.908   3
   0  -1   0 1924.47 124.878   6
   0  -1   0 2109.32 137.230   1
   0   1   0 2075.16 138.833   4
   0   1   0 1926.58 124.890   6
   0   1   0 2248.83 137.243   1
  -1  -1   0 86.2925 6.34725   6
  -1  -1   0 80.7436 6.33257   6
   1   1   0 78.6829 6.47557   6
   1   1   0 101.211 7.51521   4
   1   1   0 90.2521 6.39352   6
  -2  -1   0 6.50838 3.14757   6
  -2  -1   0 10.8001 3.19141   6
   2   1   0 13.7221 3.83561   6
   2   1   0 10.0864 2.81404   6
  -3  -1   0 72.0011 8.35553   5
  -3  -1   0 81.5768 6.54067   6
  -3  -1   0 81.9450 6.58481   6
   3   1   0 70.7765 6.15323   6
  -4  -1   0 223.136 17.3947   5
  -4  -1   0 214.385 14.2187   6
   4   1   0 194.551 13.9371   6
  -5  -1   0 4.23196 5.00897   6
  -5  -1   0 -5.0787 5.35004   5
  -6  -1   0 185.389 14.3235   6
  -6  -1   0 197.309 18.0927   5
  -6   2   0 218.426 17.9678   5
  -6   2   0 189.256 14.5540   6
  -5   2   0 23.4932 5.60218   6
  -5   2   0 29.8683 7.23149   5
   4  -2   0 73.6056 6.70082   6
  -4   2   0 64.3320 8.05003   5
  -4   2   0 70.6897 6.80418   6
  -4   2   0 76.1637 7.61920   6
   3  -2   0 373.785 26.9638   4
   3  -2   0 409.547 24.4082   6
  -3   2   0 372.749 29.4098   5
  -3   2   0 425.151 24.6980   6
  -3   2   0 392.545 24.4972   6
   2  -2   0 65.0792 5.26077   6
  -2   2   0 64.8259 5.60343   6
  -2   2   0 60.1638 5.96966   5
  -2   2   0 72.4002 6.13631   2
  -2   2   0 71.3821 5.71755   6
   1  -2   0 6844.44 442.620   1
   1  -2   0 6814.01 402.720   6
   1  -2   0 6451.65 402.717   6
   1  -2   0 6656.52 486.017   5
  -1   2   0 6591.26 402.714   6
  -1   2   0 6531.07 402.726   6
  -1   2   0 6742.21 478.194   2
  -1   2   0 6889.59 442.646   1
   0  -2   0 410.111 25.6385   3
   0  -2   0 369.233 23.1517   6
   0  -2   0 402.146 25.2982   1
   0   2   0 347.270 25.6591   4
   0   2   0 390.201 23.1276   6
   0   2   0 365.787 23.2196   6
   0   2   0 362.941 25.2457   1
  -1  -2   0 413.154 27.9800   6
  -1  -2   0 499.004 31.1056   3
  -1  -2   0 439.994 27.9533   6
   1   2   0 496.184 31.1018   3
   1   2   0 437.874 28.0114   6
  -2  -2   0 1565.95 96.5998   6
  -2  -2   0 1659.38 96.6708   6
   2   2   0 1551.91 107.518   3
   2   2   0 1619.65 96.6359   6
  -3  -2   0 16.4321 4.40165   6
  -3  -2   0 17.7433 4.05434   6
   3   2   0 17.6002 4.19342   6
  -4  -2   0 559.556 40.0248   5
  -4  -2   0 521.771 32.7127   6
   4   2   0 501.432 32.6108   6
  -5  -2   0 10.0412 5.40736   6
  -5  -2   0 -2.9398 5.21962   5
  -6  -2   0 83.6282 12.6991   5
  -6  -2   0 78.7439 8.93323   6
  -6   3   0 -1.9269 5.75475   6
  -5   3   0 3.15576 5.19950   5
  -5   3   0 14.9235 5.46557   6
   4  -3   0 120.381 8.94509   6
  -4   3   0 113.428 9.23470   6
  -4   3   0 117.232 10.3655   5
   3  -3   0 64.2140 5.55782   6
  -3   3   0 69.0625 5.85441   6
  -3   3   0 68.1971 5.95549   6
  -3   3   0 50.1035 6.32622   5
   2  -3   0 82.4823 7.38223   5
   2  -3   0 97.0469 6.77701   6
  -2   3   0 94.4309 6.98756   6
  -2   3   0 92.8621 6.81099   6
   1  -3   0 3893.09 217.813   6
   1  -3   0 3496.95 239.304   1
  -1   3   0 3763.26 239.359   1
  -1   3   0 3480.54 217.809   6
  -1   3   0 3440.40 217.774   6
   0  -3   0 528.926 31.9061   1
   0  -3   0 460.358 32.2572   3
   0  -3   0 491.963 29.1678   6
   0   3   0 454.540 31.8181   1
   0   3   0 470.241 29.2488   6
   0   3   0 494.799 29.1293   6
   0   3   0 438.760 32.3048   4
  -1  -3   0 5.20621 3.18734   6
  -1  -3   0 9.10217 2.95539   6
   1   3   0 5.25601 3.41404   1
   1   3   0 5.45697 3.14703   6
   1   3   0 12.0428 3.52131   3
  -2  -3   0 284.726 18.3599   6
   2   3   0 288.402 18.4375   6
   2   3   0 299.107 20.4679   3
  -3  -3   0 531.548 33.2138   6
   3   3   0 545.565 37.1243   3
   3   3   0 537.732 33.2482   6
  -4  -3   0 224.627 15.0719   6
  -4  -3   0 202.343 18.9043   5
   4   3   0 226.763 15.0633   6
   4   3   0 240.424 17.4157   3
  -5  -3   0 -9.2522 5.23149   5
   5   3   0 -2.6570 7.68554   3
  -6  -3   0 212.837 15.8796   6
  -6  -3   0 236.884 20.9034   5
   6   3   0 224.185 19.0945   3
  -6   4   0 5.95946 6.06574   6
  -5   4   0 51.1592 7.46263   6
   4  -4   0 30.9524 5.62595   6
  -4   4   0 27.4136 5.99047   6
   3  -4   0 -3.6320 3.50720   6
  -3   4   0 -1.6649 3.97514   6
   2  -4   0 284.642 17.3664   6
  -2   4   0 252.323 19.2278   1
  -2   4   0 287.958 17.5335   6
   1  -4   0 287.670 16.8089   6
  -1   4   0 255.682 18.3320   1
  -1   4   0 251.654 16.8543   6
   0  -4   0 9.07737 3.12544   1
   0  -4   0 13.2580 3.92322   6
   0   4   0 10.3232 3.69058   6
   0   4   0 7.45393 2.62341   1
   0   4   0 7.71557 3.16579   4
  -1  -4   0 208.154 13.6914   6
   1   4   0 208.900 13.9657   6
   1   4   0 217.564 14.8647   1
   1   4   0 207.808 15.0207   3
  -2  -4   0 74.4675 6.52042   6
   2   4   0 66.2509 7.02161   1
   2   4   0 64.5203 6.66330   6
   2   4   0 72.7091 6.97746   3
  -3  -4   0 1021.49 61.4963   6
   3   4   0 970.236 68.4120   3
   3   4   0 1036.15 61.5838   6
  -4  -4   0 56.5966 7.08411   6
   4   4   0 50.2698 7.21485   6
   4   4   0 52.4674 8.18680   3
  -5  -4   0 -7.1983 6.98752   5
  -5  -4   0 10.7020 5.38156   6
   5   4   0 13.2061 7.56031   3
  -6  -4   0 70.3988 13.2710   5
  -6  -4   0 80.9475 9.65142   6
   6   4   0 87.0446 12.3493   3
  -5   5   0 1.01569 6.02170   6
   4  -5   0 45.9509 6.05009   6
  -4   5   0 44.7517 6.83634   6
   3  -5   0 71.6240 6.74171   6
  -3   5   0 79.3878 7.56759   6
   2  -5   0 794.102 53.2278   6
  -2   5   0 855.996 53.3761   6
  -2   5   0 977.202 58.7203   1
   1  -5   0 146.869 9.68322   6
  -1   5   0 131.851 9.92581   6
  -1   5   0 132.321 10.2122   1
   0  -5   0 63.1703 6.01862   6
   0   5   0 64.8197 6.30361   6
   0   5   0 60.5607 5.63208   1
   1   5   0 714.057 42.1097   6
   1   5   0 683.974 45.8705   1
   1   5   0 655.568 46.4589   3
  -2  -5   0 166.830 11.5028   6
   2   5   0 164.463 12.5252   1
   2   5   0 157.054 12.4461   3
   2   5   0 160.337 11.6936   6
  -3  -5   0 164.452 11.9525   6
   3   5   0 152.820 13.0983   1
   3   5   0 160.544 13.2954   3
   3   5   0 183.271 12.5650   6
  -4  -5   0 60.8616 7.95226   6
   4   5   0 49.0545 7.38463   6
   4   5   0 60.8291 8.57611   3
  -5  -5   0 6.42906 6.94145   5
  -5  -5   0 14.2045 6.21438   6
   5   5   0 2.21628 7.51855   3
  -5   6   0 3.90175 6.32342   6
  -4   6   0 1.68806 5.69995   6
   2  -6   0 333.761 21.8606   6
  -2   6   0 363.710 24.0349   1
  -2   6   0 336.591 22.1812   6
   1  -6   0 1.29833 3.82486   6
  -1   6   0 -0.0357 4.05934   1
  -1   6   0 1.35614 4.30632   6
   0  -6   0 4.52017 4.11425   6
   0   6   0 2.24147 4.07936   6
   0   6   0 5.00571 3.39736   1
  -1  -6   0 47.1155 5.59083   6
   1   6   0 48.3963 6.18205   3
   1   6   0 55.5815 6.71515   6
   1   6   0 48.3494 5.85205   1
  -2  -6   0 213.630 15.1843   6
   2   6   0 230.107 15.5295   6
   2   6   0 232.595 16.7079   1
   2   6   0 223.785 16.6969   3
  -3  -6   0 23.0010 6.59645   6
   3   6   0 20.8769 6.83530   1
   3   6   0 21.3186 6.86984   3
   3   6   0 24.0742 7.47504   6
  -4  -6   0 -4.5883 6.19884   6
   4   6   0 -5.3203 6.21670   6
   4   6   0 1.10681 6.90471   3
   4   6   0 -2.3706 6.81297   1
  -5  -6   0 50.2755 8.80698   6
  -5  -6   0 45.1576 11.3380   5
   5   6   0 43.6163 9.83547   1
   5   6   0 52.0134 9.85627   3
  -5   7   0 14.3851 6.39986   6
  -4   7   0 32.6649 7.80894   6
   3  -7   0 17.5807 6.20351   6
  -3   7   0 40.5751 7.36786   6
   2  -7   0 390.702 23.4855   6
  -2   7   0 360.295 23.7140   6
  -2   7   0 348.485 25.8246   1
   1  -7   0 -0.3193 4.41848   6
  -1   7   0 0.32424 3.36131   4
  -1   7   0 -7.8177 4.74290   1
  -1   7   0 -4.4425 4.84689   6
   0  -7   0 109.469 8.91423   6
   0   7   0 108.146 8.99768   1
   0   7   0 103.306 9.49095   6
  -1  -7   0 116.740 9.49203   6
   1   7   0 125.510 10.0666   6
   1   7   0 104.639 9.50873   1
   2   7   0 120.914 11.0704   1
   2   7   0 116.964 11.0006   3
   2   7   0 130.741 11.1434   6
  -3  -7   0 84.3648 9.57769   6
   3   7   0 96.6059 10.0920   3
   3   7   0 97.3183 10.3146   6
   3   7   0 96.5740 10.3651   1
  -4  -7   0 18.4949 7.08706   6
   4   7   0 13.0048 7.17044   3
   4   7   0 17.6266 8.22018   1
   4   7   0 16.3911 6.48882   6
  -5  -7   0 142.600 15.9649   5
  -5  -7   0 144.437 12.4876   6
   5   7   0 123.812 13.6410   3
   5   7   0 141.087 14.3643   1
  -4   8   0 8.07827 7.17655   6
   3  -8   0 19.7676 6.21756   6
  -3   8   0 18.5099 7.06689   6
   2  -8   0 10.7644 5.27559   6
  -2   8   0 16.5407 6.73524   6
  -2   8   0 11.5953 6.29282   1
   1  -8   0 14.0200 5.48479   6
  -1   8   0 13.0811 5.72520   1
  -1   8   0 10.3909 5.79508   6
   0  -8   0 2.16450 5.22910   6
  -1  -8   0 31.8943 7.23275   6
   1   8   0 27.3602 7.54029   6
   1   8   0 36.4352 6.33897   1
  -2  -8   0 111.403 10.3355   6
   2   8   0 99.4054 10.6310   1
   2   8   0 105.480 10.7549   3
   2   8   0 121.422 11.0912   6
   3   8   0 40.7439 9.39198   1
   3   8   0 51.8992 9.26674   3
   3   8   0 33.9815 9.26108   6
  -4  -8   0 106.016 11.2033   6
   4   8   0 117.970 12.3228   3
   4   8   0 112.280 12.0338   6
   4   8   0 116.189 12.8484   1
  -3   9   0 17.7040 7.87678   6
   2  -9   0 35.2601 7.14965   6
  -2   9   0 37.8059 7.97848   6
  -2   9   0 36.3413 7.57307   1
   1  -9   0 50.7261 7.58455   6
  -1   9   0 35.1226 7.42183   1
  -1   9   0 58.7897 8.16500   6
   0  -9   0 98.1705 10.2092   6
   0   9   0 131.869 10.6643   1
   0   9   0 111.634 11.4061   6
  -1  -9   0 17.6806 6.65771   6
   1   9   0 34.5052 7.07325   1
   1   9   0 17.4075 7.38223   6
  -2  -9   0 -3.2464 6.79026   6
   2   9   0 -6.1192 6.83515   6
   2   9   0 -2.1855 6.16045   1
  -3  -9   0 38.3656 8.43994   6
   3   9   0 35.4783 10.2903   3
   3   9   0 48.3729 9.72372   6
   3   9   0 49.3243 9.74171   1
   2 -10   0 40.7620 8.03355   6
  -2  10   0 45.6988 9.28484   6
   1 -10   0 5.39878 6.32840   6
  -1  10   0 8.45463 7.39675   6
   0 -10   0 16.2041 6.72350   6
   0  10   0 41.8017 8.62116   1
   0  10   0 21.6096 7.88778   6
  -1 -10   0 10.9592 6.87329   6
   1  10   0 9.51731 8.14944   6
  -2 -10   0 6.25979 7.77205   6
   2  10   0 -9.4527 7.24286   1
   2  10   0 0.85807 8.35441   6
   0 -11   0 38.1470 8.94224   6
   0  11   0 38.9233 9.62556   6
   2  10  -1 -3.4116 6.43298   1
   2  10  -1 0.76822 8.07479   6
  -2 -10   1 5.38274 8.01141   6
   1  10  -1 35.5765 10.0826   6
   1  10  -1 67.7186 10.2453   1
  -1 -10   1 44.3210 9.08612   6
   0  10  -1 118.738 12.0916   6
   0 -10   1 95.9164 10.6071   6
  -1  10  -1 -5.6841 7.15530   6
   1 -10   1 -8.2475 6.55449   6
  -2  10  -1 -0.1882 8.11738   6
   3   9  -1 127.391 12.8430   6
   3   9  -1 112.112 13.0643   3
   3   9  -1 113.962 12.8599   1
   2   9  -1 6.70155 6.62563   1
   2   9  -1 29.1157 9.09129   3
   2   9  -1 7.20896 7.92254   6
  -2  -9   1 4.43950 7.48006   6
   1   9  -1 57.5971 8.19537   1
   1   9  -1 65.7713 9.50890   6
  -1  -9   1 61.6302 9.30996   6
   0   9  -1 68.1906 10.0065   6
   0   9  -1 78.1324 8.89400   1
   0  -9   1 71.2734 8.87473   6
  -1   9  -1 75.6715 8.69171   1
  -1   9  -1 86.7204 9.63663   6
   1  -9   1 79.6063 8.84866   6
  -2   9  -1 11.8610 5.64434   1
  -2   9  -1 6.95195 6.71981   6
   2  -9   1 13.5375 5.90765   6
  -3   9  -1 31.8794 8.72220   6
   4   8  -1 21.2989 7.86038   6
   4   8  -1 30.7229 9.78144   1
   4   8  -1 36.8730 9.79394   3
  -4  -8   1 29.6537 9.22815   6
   3   8  -1 18.5153 8.13717   6
   3   8  -1 21.4353 8.12576   1
   3   8  -1 41.7634 9.68136   3
  -3  -8   1 12.8680 6.88733   6
   2   8  -1 4.54252 6.44538   3
   2   8  -1 2.39529 7.01802   6
   2   8  -1 -6.6226 5.98041   1
  -2  -8   1 3.75763 5.90212   6
   1   8  -1 146.893 12.3710   6
   1   8  -1 133.118 11.6958   1
  -1  -8   1 155.499 11.7618   6
   0   8  -1 7.76267 5.67932   6
   0   8  -1 8.44271 5.29201   1
   0  -8   1 4.26163 5.42375   6
  -1   8  -1 9.92318 6.33119   6
   1  -8   1 7.21341 5.42812   6
  -2   8  -1 88.4688 9.48182   1
  -2   8  -1 103.185 9.57194   6
   2  -8   1 96.6866 8.97468   6
  -3   8  -1 6.43219 6.68137   6
  -4   8  -1 121.397 11.9919   6
   5   7  -1 20.4205 9.30586   1
   5   7  -1 17.6491 8.86655   3
  -5  -7   1 30.7420 10.9511   5
  -5  -7   1 32.1126 9.03100   6
   4   7  -1 11.0116 6.58992   6
   4   7  -1 29.0856 8.88265   3
   4   7  -1 17.2582 8.27726   1
  -4  -7   1 20.9330 7.14514   6
   3   7  -1 34.5984 8.08866   3
   3   7  -1 18.5706 7.31856   6
   3   7  -1 24.9068 7.73290   1
  -3  -7   1 21.5527 6.99882   6
   2   7  -1 95.4181 10.2442   3
   2   7  -1 102.696 9.73897   1
   2   7  -1 94.4214 10.0048   6
  -2  -7   1 85.7734 9.22248   6
   1   7  -1 383.013 22.7076   6
   1   7  -1 294.861 23.5284   1
  -1  -7   1 351.767 22.2010   6
   0   7  -1 117.488 10.3360   6
   0   7  -1 124.164 10.1729   1
   0  -7   1 132.560 10.1620   6
  -1   7  -1 46.9386 6.37849   1
  -1   7  -1 55.8448 7.47706   6
   1  -7   1 65.0019 6.78444   6
  -2   7  -1 -0.8863 5.54242   6
  -2   7  -1 4.84518 4.76884   1
   2  -7   1 6.31510 4.64473   6
  -3   7  -1 363.562 23.4305   6
   3  -7   1 352.084 23.0576   6
  -4   7  -1 7.95914 6.51022   6
   5   6  -1 88.3484 12.0045   3
   5   6  -1 112.963 12.3692   1
  -5  -6   1 93.8514 10.6439   6
   4   6  -1 47.1532 8.93641   1
   4   6  -1 45.8636 8.64159   3
   4   6  -1 40.4998 8.06902   6
  -4  -6   1 49.8519 8.18905   6
   3   6  -1 6.71931 6.56948   3
   3   6  -1 5.44978 6.48095   1
   3   6  -1 -3.8208 5.20818   6
  -3  -6   1 -0.5370 5.86128   6
   2   6  -1 146.107 11.8143   1
   2   6  -1 141.382 11.5805   6
   2   6  -1 142.578 12.1593   3
  -2  -6   1 136.529 10.9720   6
   1   6  -1 4.61873 3.95224   1
   1   6  -1 0.48645 4.57148   3
   1   6  -1 3.47400 4.77095   6
   0   6  -1 365.700 24.4448   6
   0   6  -1 381.405 26.1406   1
   0  -6   1 407.507 24.2837   6
  -1   6  -1 -5.1618 2.96979   4
  -1   6  -1 -0.5769 4.54845   6
   1  -6   1 -1.9633 3.97470   6
  -2   6  -1 7.19852 5.08642   6
  -2   6  -1 21.1745 5.46006   1
   2  -6   1 10.2775 4.27501   6
   2  -6   1 12.1767 4.19898   5
  -3   6  -1 1054.02 66.1515   6
   3  -6   1 1112.64 66.0255   6
  -4   6  -1 1.86171 5.82533   6
  -5   6  -1 58.6571 7.92164   6
   5   5  -1 64.6897 10.3868   3
  -5  -5   1 71.6786 11.1709   5
  -5  -5   1 68.1323 8.73045   6
   4   5  -1 10.7433 6.61511   3
   4   5  -1 3.23817 6.10410   6
  -4  -5   1 4.63224 5.79038   6
   3   5  -1 142.546 11.7464   1
   3   5  -1 128.306 11.7881   3
   3   5  -1 145.616 11.1352   6
  -3  -5   1 128.820 10.7536   6
   2   5  -1 217.814 15.4979   6
   2   5  -1 231.373 16.8979   3
   2   5  -1 236.908 16.5120   1
  -2  -5   1 219.532 15.1608   6
   1   5  -1 251.643 18.1574   3
   1   5  -1 260.733 16.8140   6
   1   5  -1 253.828 17.6177   1
  -1  -5   1 247.002 16.4576   6
   0   5  -1 176.412 12.2395   6
   0   5  -1 166.805 12.3489   1
   0  -5   1 188.042 12.0036   6
  -1   5  -1 39.0699 4.61833   1
  -1   5  -1 46.5085 5.56736   6
  -1   5  -1 28.7880 4.00448   4
   1  -5   1 50.9372 5.09285   6
  -2   5  -1 236.075 15.9516   6
  -2   5  -1 244.421 17.2972   1
   2  -5   1 232.544 18.3649   5
   2  -5   1 261.323 15.7351   6
  -3   5  -1 25.4474 5.99449   6
   3  -5   1 21.8515 4.99859   6
   3  -5   1 19.4394 4.84305   5
  -4   5  -1 6.92250 5.01091   6
  -5   5  -1 5.04092 6.05884   6
   6   4  -1 215.402 17.7645   3
  -6  -4   1 180.858 14.4832   6
   5   4  -1 38.8074 9.11583   3
  -5  -4   1 34.4367 10.1882   5
  -5  -4   1 35.3549 6.82749   6
   4   4  -1 0.49692 5.38639   6
   4   4  -1 4.19524 6.34597   3
  -4  -4   1 -0.9388 4.51554   6
   3   4  -1 350.571 25.6531   3
   3   4  -1 381.903 23.3570   6
  -3  -4   1 355.071 23.1416   6
   2   4  -1 291.855 20.2939   3
   2   4  -1 297.191 18.5598   6
  -2  -4   1 266.220 18.2281   6
   1   4  -1 515.134 32.6601   1
   1   4  -1 469.525 33.2328   3
   1   4  -1 486.270 30.1306   6
  -1  -4   1 467.955 29.9033   6
   0   4  -1 228.536 14.1155   1
   0   4  -1 196.452 13.5534   6
   0  -4   1 202.217 14.1761   1
   0  -4   1 192.933 13.1949   6
  -1   4  -1 247.718 16.5596   6
   1  -4   1 271.406 16.4672   6
  -2   4  -1 2775.91 167.444   6
   2  -4   1 2768.57 201.890   5
   2  -4   1 2779.87 167.386   6
  -3   4  -1 42.5469 5.23869   6
   3  -4   1 36.0827 5.12838   5
   3  -4   1 40.4018 4.77494   6
  -4   4  -1 39.4139 6.01461   6
  -5   4  -1 306.749 20.1406   6
  -6   4  -1 6.14512 5.75259   6
   6   3  -1 57.0479 10.8156   3
  -6  -3   1 67.7556 11.8207   5
  -6  -3   1 57.4745 8.73874   6
   5   3  -1 114.034 12.3943   3
  -5  -3   1 113.292 13.5503   5
  -5  -3   1 122.035 10.1120   6
   4   3  -1 21.0699 5.92069   6
   4   3  -1 18.8793 6.21705   3
  -4  -3   1 17.6633 4.97562   6
   3   3  -1 0.52165 4.62553   3
   3   3  -1 -1.3977 4.67542   6
  -3  -3   1 -2.1586 4.03955   6
   2   3  -1 25.0352 5.46952   3
   2   3  -1 15.9664 4.62741   6
  -2  -3   1 9.94745 3.56928   6
   1   3  -1 349.134 23.0056   3
   1   3  -1 340.882 22.6021   1
   1   3  -1 325.723 20.9612   6
  -1  -3   1 323.191 20.8282   6
  -1  -3   1 324.462 23.1018   4
   0   3  -1 2.30075 3.57529   6
   0   3  -1 2.55025 1.81758   1
   0   3  -1 1.40614 2.82941   6
   0  -3   1 2.95047 2.16335   1
   0  -3   1 -1.1829 2.86029   4
  -1   3  -1 14.2674 3.67243   6
  -1   3  -1 10.0493 3.04051   6
   1  -3   1 11.7367 3.40190   6
   1  -3   1 7.58086 2.35341   1
  -2   3  -1 919.424 57.1957   6
  -2   3  -1 974.372 57.2617   6
   2  -3   1 926.748 68.9175   5
   2  -3   1 956.569 57.1772   6
  -3   3  -1 183.558 11.6741   6
  -3   3  -1 170.997 11.5321   6
   3  -3   1 171.927 11.3137   6
  -4   3  -1 2.59569 4.01118   5
  -4   3  -1 9.57172 4.55368   6
   4  -3   1 8.01081 3.64227   6
  -5   3  -1 13.5938 4.93684   6
  -5   3  -1 3.98847 4.88878   5
  -6   3  -1 94.4431 9.40862   6
   6   2  -1 260.981 20.5274   3
  -6  -2   1 268.573 22.5220   5
  -6  -2   1 240.147 17.9686   6
   5   2  -1 241.436 20.4015   3
  -5  -2   1 273.153 18.0498   6
  -5  -2   1 279.679 22.4932   5
   4   2  -1 263.437 18.6209   3
   4   2  -1 227.154 18.3416   2
   4   2  -1 251.572 16.5123   6
  -4  -2   1 248.306 16.5590   6
   3   2  -1 80.0569 7.56412   3
   3   2  -1 66.7319 7.04883   6
  -3  -2   1 71.8885 6.93155   6
   2   2  -1 670.151 40.7350   6
   2   2  -1 672.356 45.2260   3
  -2  -2   1 679.869 45.2579   4
  -2  -2   1 634.323 40.6222   6
   1   2  -1 480.440 29.1456   6
   1   2  -1 507.865 32.1546   3
  -1  -2   1 452.979 28.9419   6
  -1  -2   1 457.664 32.1460   4
  -1  -2   1 462.198 28.9256   6
   0   2  -1 432.615 30.5598   4
   0   2  -1 479.398 30.7007   3
   0   2  -1 417.020 30.0457   1
   0   2  -1 449.615 27.7302   6
   0   2  -1 445.143 27.6453   6
   0  -2   1 458.667 27.6253   6
   0  -2   1 458.080 30.6184   4
   0  -2   1 476.194 30.1013   1
  -1   2  -1 6704.56 389.402   6
  -1   2  -1 6917.49 462.476   2
  -1   2  -1 6014.92 389.343   6
   1  -2   1 6417.30 462.421   2
   1  -2   1 6652.86 389.363   6
   1  -2   1 6071.50 427.913   1
   1  -2   1 6501.62 389.389   6
  -2   2  -1 130.956 10.8497   2
  -2   2  -1 137.885 9.05420   6
  -2   2  -1 145.094 10.8648   5
  -2   2  -1 134.384 8.96985   6
   2  -2   1 137.590 8.94545   6
   2  -2   1 129.720 11.0585   2
   2  -2   1 144.139 10.7910   5
  -3   2  -1 -5.1314 2.71525   5
  -3   2  -1 2.91189 2.87609   6
  -3   2  -1 -1.1399 2.79683   6
   3  -2   1 4.15536 2.69032   6
  -4   2  -1 314.532 22.9711   5
  -4   2  -1 283.399 19.0179   6
  -4   2  -1 305.741 19.0385   6
   4  -2   1 287.408 18.6333   6
  -5   2  -1 25.6411 5.71275   6
  -5   2  -1 28.9803 7.50648   5
  -6   2  -1 289.370 23.6645   5
  -6   2  -1 286.565 19.1677   6
  -6  -1   1 130.041 12.0790   6
  -6  -1   1 165.611 15.6467   5
  -5  -1   1 75.1276 8.12522   6
  -5  -1   1 66.9976 9.98245   5
   4   1  -1 33.1567 6.11337   6
  -4  -1   1 44.1778 6.32162   6
   3   1  -1 64.7546 6.52458   6
  -3  -1   1 70.3947 6.51593   6
   2   1  -1 1136.19 68.6476   6
  -2  -1   1 1145.79 76.3036   4
  -2  -1   1 1121.21 68.6541   6
  -2  -1   1 1126.43 68.6416   6
   1   1  -1 1660.55 101.694   6
   1   1  -1 1765.76 113.076   3
   1   1  -1 1706.26 120.586   2
  -1  -1   1 1624.80 101.667   6
  -1  -1   1 1658.07 113.005   4
  -1  -1   1 1691.99 101.708   6
   0   1  -1 867.830 53.6966   3
   0   1  -1 800.549 48.3388   6
   0   1  -1 788.175 57.4073   2
   0   1  -1 812.395 48.2913   6
   0   1  -1 814.310 53.6669   4
   0  -1   1 745.360 53.6419   4
   0  -1   1 776.271 57.3978   2
   0  -1   1 792.707 48.2914   6
  -1   1  -1 9299.62 575.440   6
  -1   1  -1 9443.73 694.762   5
  -1   1  -1 9927.34 575.504   6
  -1   1  -1 8975.99 683.354   2
   1  -1   1 9904.81 683.397   2
   1  -1   1 9999.99 694.742   5
   1  -1   1 9576.75 575.449   6
   1  -1   1 9367.43 575.465   6
  -2   1  -1 543.455 36.2976   6
  -2   1  -1 620.300 43.9668   5
  -2   1  -1 590.056 36.3577   6
   2  -1   1 648.753 43.2828   2
   2  -1   1 563.746 36.2342   6
   2  -1   1 630.080 43.9658   5
   2  -1   1 596.592 36.2818   6
  -3   1  -1 7.28975 3.39845   6
  -3   1  -1 4.02782 3.37218   6
  -3   1  -1 -0.7032 3.40190   5
   3  -1   1 5.45670 2.58879   6
   3  -1   1 4.67255 3.29544   2
  -4   1  -1 394.275 24.3299   6
  -4   1  -1 403.142 29.4086   5
  -4   1  -1 402.655 24.2688   6
   4  -1   1 374.470 28.3399   2
   4  -1   1 363.427 23.9015   6
  -5   1  -1 221.159 17.2719   5
  -5   1  -1 189.969 14.1627   6
  -6   1  -1 114.413 10.1481   6
  -6   1  -1 118.399 12.7081   5
  -6   0   1 183.803 16.4784   5
  -6   0   1 152.325 13.1783   6
  -5   0   1 286.926 19.7540   6
  -5   0   1 310.347 24.0519   5
   4   0  -1 101.750 8.79224   6
  -4   0   1 120.761 10.6000   5
  -4   0   1 95.9829 8.86670   6
   3   0  -1 359.616 22.9929   6
  -3   0   1 353.509 22.9372   6
  -3   0   1 388.094 23.0633   6
   2   0  -1 23.3094 4.36207   4
   2   0  -1 17.5457 4.24813   6
  -2   0   1 18.2188 4.01351   6
  -2   0   1 19.1047 4.26690   6
  -2   0   1 27.6024 4.38563   4
   1   0  -1 295.829 19.7847   6
   1   0  -1 331.008 21.7535   4
  -1   0   1 323.399 19.7873   6
  -1   0   1 347.824 21.7939   4
  -1   0   1 295.143 19.6994   6
   0   0  -1 335.979 20.2127   6
   0   0  -1 294.066 20.2225   6
   0   0   1 333.974 22.4362   4
   0   0   1 309.419 20.2015   6
   0   0   1 313.873 20.2011   6
   0   0   1 390.035 22.1144   1
  -1   0  -1 1017.49 77.3456   5
   1   0   1 1105.67 77.3666   5
  -2   0  -1 588.074 39.2324   5
  -2   0  -1 515.417 32.2681   6
  -2   0  -1 519.634 32.2529   6
   2   0   1 517.071 32.1583   6
   2   0   1 480.520 32.1253   6
   2   0   1 568.072 39.0993   5
  -3   0  -1 31.3162 4.41098   6
  -3   0  -1 33.6301 4.44608   6
  -3   0  -1 46.4897 6.26295   5
   3   0   1 31.8292 3.75522   6
  -4   0  -1 5.14856 4.40082   5
  -4   0  -1 -9.5914 4.03933   6
  -5   0  -1 236.093 18.7038   5
  -5   0  -1 211.122 15.0772   6
  -6   0  -1 0.85595 5.46743   6
  -6   0  -1 1.16360 6.24832   5
  -6   1   1 5.17252 6.46443   6
  -6   1   1 27.4573 9.03729   5
  -5   1   1 159.883 13.4087   5
  -5   1   1 119.804 10.8675   6
   4  -1  -1 -5.6272 4.10347   6
  -4   1   1 -2.8301 4.52712   6
  -4   1   1 -3.4835 3.52125   5
  -3   1   1 -8.8371 4.04004   6
  -3   1   1 -0.5601 3.41089   5
   2  -1  -1 462.177 30.6329   4
   2  -1  -1 462.180 27.7804   6
  -2   1   1 472.913 30.6780   4
  -2   1   1 423.080 27.8228   6
  -2   1   1 435.167 27.8169   6
   1  -1  -1 229.183 14.2737   4
   1  -1  -1 184.620 12.9802   6
  -1   1   1 221.757 14.3252   1
  -1   1   1 173.832 13.1833   6
  -1   1   1 189.637 13.2178   6
  -1   1   1 232.345 14.2014   4
   0  -1  -1 669.440 39.5323   6
   0  -1  -1 634.599 47.6596   5
   0  -1  -1 657.644 39.5080   6
   0   1   1 634.063 39.5305   6
   0   1   1 678.388 47.6713   5
  -1  -1  -1 2271.10 180.303   5
  -1  -1  -1 2584.81 149.246   6
  -1  -1  -1 2564.54 149.244   6
   1   1   1 2437.40 149.233   6
   1   1   1 2535.11 149.246   6
  -2  -1  -1 2.55960 2.48006   6
  -2  -1  -1 1.33508 2.79002   5
  -2  -1  -1 4.93994 2.85047   6
   2   1   1 5.99099 2.44878   6
   2   1   1 3.85192 2.31189   6
  -3  -1  -1 640.778 39.6046   6
  -3  -1  -1 680.278 39.6831   6
  -3  -1  -1 668.170 48.1852   5
   3   1   1 611.355 39.4636   6
  -4  -1  -1 340.918 21.9376   6
  -4  -1  -1 372.853 26.9903   5
  -4  -1  -1 330.266 21.8536   6
  -5  -1  -1 305.588 21.6337   6
  -5  -1  -1 375.931 27.0962   5
  -6  -1  -1 65.0072 11.0146   5
  -6  -1  -1 65.5850 8.11747   6
  -6   2   1 56.0415 9.52845   5
  -6   2   1 34.0629 7.42059   6
  -5   2   1 20.4999 5.94239   6
   4  -2  -1 3.40084 4.49177   6
  -4   2   1 -7.0366 3.98979   5
  -4   2   1 1.39797 4.52164   6
   3  -2  -1 133.081 10.4911   4
   3  -2  -1 153.574 9.81678   6
  -3   2   1 123.807 11.5320   5
  -3   2   1 158.466 10.1580   6
   2  -2  -1 150.850 10.4831   6
   2  -2  -1 164.731 11.1312   4
  -2   2   1 130.231 12.1116   5
  -2   2   1 156.601 10.9087   6
  -2   2   1 182.899 11.9225   2
  -2   2   1 140.093 10.4662   6
  -2   2   1 173.727 11.2065   4
   1  -2  -1 108.637 8.24996   1
   1  -2  -1 101.048 7.52688   6
  -1   2   1 105.366 7.64830   6
  -1   2   1 111.671 7.64965   4
   0  -2  -1 2436.71 148.911   1
   0  -2  -1 2375.97 135.524   6
   0  -2  -1 2131.85 163.543   5
   0  -2  -1 2141.90 135.516   6
   0   2   1 2294.97 148.898   1
   0   2   1 2105.48 135.513   6
  -1  -2  -1 77.8595 8.37193   5
  -1  -2  -1 92.1890 6.50685   6
  -1  -2  -1 99.0594 6.60541   6
   1   2   1 101.239 7.47500   1
   1   2   1 82.3362 7.21297   3
   1   2   1 97.1798 6.45490   6
   1   2   1 92.7374 6.68359   6
  -2  -2  -1 39.8873 6.63279   5
  -2  -2  -1 47.2506 4.28781   6
  -2  -2  -1 41.7351 4.45678   6
   2   2   1 38.3169 4.43513   6
  -3  -2  -1 18.0052 4.11672   6
  -3  -2  -1 8.83767 3.62638   5
  -3  -2  -1 23.3687 4.34790   6
   3   2   1 14.6749 3.71892   6
  -4  -2  -1 603.450 35.0705   6
  -4  -2  -1 597.067 42.9764   5
  -4  -2  -1 591.458 35.2409   6
   4   2   1 487.198 34.8284   6
  -5  -2  -1 497.269 31.3899   6
  -5  -2  -1 508.524 38.7032   5
  -6  -2  -1 106.911 13.3785   5
  -6  -2  -1 97.1307 9.22026   6
  -6   3   1 50.3923 8.20999   6
  -5   3   1 142.356 11.3656   6
  -5   3   1 147.328 13.0393   5
   4  -3  -1 2.07718 4.20741   6
  -4   3   1 1.81064 3.46276   5
  -4   3   1 0.22091 4.89631   6
   3  -3  -1 134.381 10.8819   4
   3  -3  -1 173.281 10.4555   6
  -3   3   1 150.928 11.6879   2
  -3   3   1 134.062 11.9874   5
  -3   3   1 170.254 10.6753   6
   2  -3  -1 196.948 12.5416   6
  -2   3   1 200.541 12.6646   6
  -2   3   1 199.603 12.7350   6
  -2   3   1 175.802 14.0936   1
   1  -3  -1 321.833 20.4378   6
   1  -3  -1 357.172 22.5475   1
  -1   3   1 365.399 22.4876   1
  -1   3   1 299.499 20.4403   6
  -1   3   1 311.581 20.5504   6
   0  -3  -1 263.558 16.8447   3
   0  -3  -1 267.682 16.7870   1
   0  -3  -1 223.254 15.4076   6
   0  -3  -1 248.707 15.4557   6
   0   3   1 223.803 15.5356   6
   0   3   1 237.655 16.7115   1
  -1  -3  -1 17.1421 3.45824   6
  -1  -3  -1 18.6748 3.55371   3
  -1  -3  -1 11.3280 3.77030   6
   1   3   1 19.7033 4.08494   1
   1   3   1 15.3948 4.02406   6
   1   3   1 22.5309 3.36340   3
  -2  -3  -1 14.2192 4.19478   6
  -2  -3  -1 17.0317 3.72774   6
   2   3   1 18.6549 4.17039   6
   2   3   1 16.1615 4.81195   3
  -3  -3  -1 736.588 43.7771   6
  -3  -3  -1 695.958 43.7966   6
  -3  -3  -1 709.283 53.3476   5
   3   3   1 656.510 43.7397   6
   3   3   1 786.797 48.9299   3
  -4  -3  -1 288.172 17.4093   6
  -4  -3  -1 243.621 21.8662   5
   4   3   1 269.827 17.2999   6
  -5  -3  -1 167.532 11.8320   6
  -5  -3  -1 155.712 16.1637   5
  -6  -3  -1 4.95316 5.25830   6
  -6  -3  -1 5.94933 7.49917   5
   6   3   1 2.81195 8.47728   3
  -6   4   1 -4.2606 6.58286   6
  -5   4   1 7.08204 5.49021   6
   4  -4  -1 25.1630 5.68621   6
  -4   4   1 33.3415 6.33417   6
   3  -4  -1 55.8430 5.66053   6
  -3   4   1 56.5875 6.15294   6
   2  -4  -1 44.1657 4.91088   6
  -2   4   1 35.4151 5.35334   6
  -2   4   1 32.1565 5.51552   1
   1  -4  -1 199.781 12.8628   6
  -1   4   1 209.461 14.0768   1
  -1   4   1 186.971 13.0614   6
   0  -4  -1 39.5491 3.89060   3
   0  -4  -1 31.5313 4.53726   6
   0   4   1 27.7258 5.21957   6
   0   4   1 39.4184 4.18865   1
   1   4   1 217.718 15.2970   3
   1   4   1 209.949 14.2808   6
   1   4   1 225.609 15.4299   1
  -2  -4  -1 110.221 8.50182   6
   2   4   1 118.347 8.76959   6
   2   4   1 120.778 9.50249   3
   2   4   1 123.036 9.69485   1
  -4  -4  -1 94.5003 8.24047   6
   4   4   1 84.3895 8.18640   6
   4   4   1 97.1902 9.84391   3
  -5  -4  -1 30.5912 6.89390   6
   5   4   1 30.0114 8.94679   3
  -6  -4  -1 13.9238 6.36921   6
  -6  -4  -1 3.70517 7.54581   5
   6   4   1 7.90302 8.35464   3
  -5   5   1 14.5944 6.22478   6
   4  -5  -1 104.226 8.66655   6
  -4   5   1 92.0080 8.72548   6
   3  -5  -1 137.868 9.99555   6
  -3   5   1 132.020 10.2306   6
  -2   5   1 144.744 11.2908   1
   1  -5  -1 260.432 15.8322   6
  -1   5   1 231.023 15.9667   6
  -1   5   1 245.414 17.2343   1
   0  -5  -1 68.4016 6.28570   6
   0   5   1 66.1069 6.78736   6
   0   5   1 79.3540 6.30243   1
  -1  -5  -1 101.411 8.03658   6
   1   5   1 108.508 8.61683   1
   1   5   1 105.113 8.41953   3
  -2  -5  -1 213.373 14.2338   6
   2   5   1 212.048 15.5842   3
   2   5   1 227.079 14.5846   6
   2   5   1 210.118 15.6337   1
  -3  -5  -1 29.4978 5.64207   6
   3   5   1 29.4747 6.77298   1
   3   5   1 28.9221 6.38700   3
   3   5   1 31.3110 5.78217   6
  -4  -5  -1 39.7956 6.88604   6
   4   5   1 47.6521 6.71631   6
   4   5   1 41.5862 8.03036   3
  -5  -5  -1 23.9234 6.77734   6
  -5  -5  -1 1.38367 5.77188   5
   5   5   1 10.5960 7.45760   3
  -6  -5  -1 45.1039 12.7763   5
  -6  -5  -1 64.4555 8.87378   6
   6   5   1 60.6755 11.2195   3
  -5   6   1 41.5641 8.11685   6
   4  -6  -1 149.406 11.2208   6
  -4   6   1 152.035 11.9170   6
   3  -6  -1 51.5630 6.41842   6
  -3   6   1 58.8981 7.40086   6
  -3   6   1 36.4376 7.77210   1
   2  -6  -1 198.052 13.1257   6
  -2   6   1 188.595 13.3600   6
  -2   6   1 186.821 14.2824   1
   1  -6  -1 86.3911 7.09841   6
  -1   6   1 80.1398 7.51184   6
  -1   6   1 68.7451 6.27321   4
  -1   6   1 86.5808 7.37544   1
   0  -6  -1 67.6641 6.73014   6
   0   6   1 77.7132 6.49025   1
   0   6   1 62.7657 7.30327   6
  -1  -6  -1 1.74968 4.07327   6
   1   6   1 7.75614 4.20061   3
   1   6   1 1.23421 4.19682   6
   1   6   1 2.71676 4.07445   1
   2   6   1 61.1699 6.80027   3
   2   6   1 45.6033 7.09605   6
   2   6   1 55.5808 7.39124   1
  -3  -6  -1 12.6172 5.53922   6
   3   6   1 5.76271 6.38326   1
   3   6   1 5.94458 5.67970   6
   3   6   1 13.1285 5.59073   3
  -4  -6  -1 22.2502 6.90886   6
   4   6   1 14.0401 7.31893   1
   4   6   1 10.0304 6.63262   3
   4   6   1 15.2424 6.06396   6
  -5  -6  -1 117.127 10.6286   6
  -5  -6  -1 100.441 13.4836   5
   5   6   1 112.866 12.5622   1
   5   6   1 118.363 12.5103   3
  -5   7   1 131.338 12.0661   6
  -4   7   1 0.90770 6.31971   6
   3  -7  -1 16.3245 5.97248   6
  -3   7   1 19.4903 6.96564   6
  -3   7   1 22.0776 7.31292   1
   2  -7  -1 131.882 10.7293   6
  -2   7   1 150.549 12.2078   1
  -2   7   1 163.144 11.7272   6
   1  -7  -1 14.5511 4.56494   6
  -1   7   1 9.91687 4.89871   1
  -1   7   1 13.4198 3.67353   4
  -1   7   1 12.7611 5.21562   6
   0  -7  -1 167.088 12.1341   6
   0   7   1 169.065 12.8169   1
   0   7   1 179.746 12.6227   6
  -1  -7  -1 67.5483 7.31446   6
   1   7   1 59.4439 6.99934   1
   1   7   1 69.3660 7.83800   6
  -2  -7  -1 3.57691 4.19463   6
   2   7   1 4.22931 4.82893   3
   2   7   1 11.7218 5.75147   6
   2   7   1 22.7166 6.80790   1
   3   7   1 40.3625 8.54311   1
   3   7   1 39.3212 7.16190   3
  -4  -7  -1 5.39875 6.52173   5
  -4  -7  -1 13.8757 6.51605   6
   4   7   1 11.8738 6.96434   3
   4   7   1 11.2140 6.46754   6
   4   7   1 5.36446 7.88780   1
  -5  -7  -1 39.1020 8.80278   6
   5   7   1 38.1010 9.87890   3
   5   7   1 45.5670 10.7800   1
  -4   8   1 11.4272 7.16716   6
   3  -8  -1 -5.1423 6.29651   6
  -3   8   1 5.34192 7.29387   6
  -3   8   1 -2.9213 5.96473   1
   2  -8  -1 2.40963 4.79032   6
  -2   8   1 2.47237 6.38848   6
  -2   8   1 -9.5075 5.82921   1
   1  -8  -1 181.864 13.1533   6
  -1   8   1 173.946 14.5089   1
  -1   8   1 185.496 13.6187   6
   0   8   1 8.06515 5.83529   6
  -1  -8  -1 147.644 12.4293   6
   1   8   1 173.321 13.2621   1
   1   8   1 176.449 13.2962   6
  -2  -8  -1 81.2512 9.08217   6
   2   8   1 91.8320 9.59953   1
   2   8   1 71.2445 9.38236   6
   2   8   1 93.1826 9.28910   3
  -3  -8  -1 -8.5275 5.76570   6
  -3  -8  -1 2.66395 5.89565   5
   3   8   1 5.49170 7.55504   1
   3   8   1 12.6335 7.09749   3
   3   8   1 -2.0130 6.60273   6
  -4  -8  -1 194.197 17.6314   5
   4   8   1 170.311 15.8554   1
   4   8   1 175.724 14.7942   6
   4   8   1 151.676 14.7229   3
   3  -9  -1 29.1453 7.65831   6
  -3   9   1 22.2747 7.01961   6
  -3   9   1 15.0494 7.16643   1
   2  -9  -1 -1.3445 5.37329   6
  -2   9   1 4.07233 6.17088   1
  -2   9   1 0.68266 7.00940   6
   1  -9  -1 79.6304 8.99969   6
  -1   9   1 83.2723 9.71350   6
  -1   9   1 101.154 9.65140   1
   0  -9  -1 12.1889 5.72736   6
   0   9   1 14.5242 6.53181   6
  -1  -9  -1 10.3145 5.86543   6
   1   9   1 6.91659 5.68551   1
   1   9   1 0.11628 7.26181   6
  -2  -9  -1 45.6992 8.50636   6
   2   9   1 37.7288 8.43235   1
   2   9   1 57.8002 9.26977   6
  -3  -9  -1 87.7907 10.2552   6
  -3  -9  -1 102.741 12.3431   5
   3   9   1 80.0972 10.5726   6
   3   9   1 85.4718 11.4074   1
   3   9   1 89.4962 11.0341   3
  -4  -9  -1 -0.0609 7.96232   5
  -4  -9  -1 2.79935 7.00548   6
   4   9   1 36.5378 9.73628   3
   4   9   1 12.5490 9.47219   1
  -3  10   1 62.3583 10.0134   6
  -3  10   1 48.7276 9.95282   1
   2 -10  -1 93.6541 10.0936   6
  -2  10   1 130.182 11.5504   6
  -2  10   1 109.187 11.5586   1
   1 -10  -1 35.6720 7.39946   6
  -1  10   1 33.3507 8.94011   6
  -1  10   1 25.7453 7.71896   1
   0 -10  -1 37.5977 7.92722   6
   0  10   1 23.7130 8.26877   1
   0  10   1 49.5730 8.78948   6
  -1 -10  -1 296.731 20.7418   6
   1  10   1 288.880 22.1913   1
   1  10   1 323.042 21.4756   6
  -2 -10  -1 5.26196 7.17216   6
  -2 -10  -1 4.84473 6.18385   5
   2  10   1 7.39855 8.82534   6
   2  10   1 4.06810 7.32894   1
  -3 -10  -1 110.278 12.0479   6
  -3 -10  -1 103.745 13.9631   5
   3  10   1 123.107 12.9820   3
   3  10   1 95.4442 13.0775   1
   3  10   1 115.133 12.8478   6
   1 -11  -1 -1.2422 6.44795   6
  -1  11   1 2.66788 8.76811   6
  -1  11   1 4.14081 6.73022   1
   0 -11  -1 33.8628 8.76360   6
   0  11   1 39.4184 9.95641   6
   0  11   1 41.8995 9.75091   1
  -1 -11  -1 79.0369 11.4226   5
  -1 -11  -1 52.6680 9.72058   6
   1  11   1 83.4853 10.8641   1
   1  11   1 60.3696 11.0405   6
   1  10  -2 8.97661 7.90131   6
  -1 -10   2 -3.4630 7.84480   6
   0  10  -2 58.2233 10.8076   6
   0 -10   2 60.5305 9.44026   6
  -1  10  -2 12.4983 7.85461   6
   1 -10   2 13.7012 6.88363   6
   3   9  -2 20.3874 9.08414   6
   3   9  -2 9.78765 9.08070   3
   3   9  -2 16.3567 8.87086   1
   2   9  -2 43.4197 8.33633   1
   2   9  -2 48.9716 10.4699   6
  -2  -9   2 44.4615 8.61996   6
   1   9  -2 1.98703 6.55551   1
   1   9  -2 3.54128 7.41736   6
  -1  -9   2 7.34920 7.14417   6
   0   9  -2 100.937 10.7501   6
   0  -9   2 100.884 10.4612   6
  -1   9  -2 9.09905 7.27661   6
   1  -9   2 2.09499 6.18117   6
  -2   9  -2 2.94055 6.43713   6
  -3   9  -2 -5.1483 7.69010   6
   4   8  -2 22.7247 9.03489   1
   4   8  -2 31.6739 10.0072   3
   4   8  -2 14.8342 8.90827   6
  -4  -8   2 25.5656 8.57924   6
   3   8  -2 63.7272 10.8040   6
   3   8  -2 58.5119 10.2751   3
   3   8  -2 65.2149 9.84492   1
  -3  -8   2 58.4873 9.56312   6
   2   8  -2 -6.5198 6.17523   1
   2   8  -2 -6.2999 7.00256   3
   2   8  -2 5.54952 6.91544   6
   1   8  -2 127.970 11.7291   6
   1   8  -2 108.941 10.0893   1
  -1  -8   2 126.059 10.8553   6
   0   8  -2 22.8087 6.51153   1
   0   8  -2 13.9341 6.37749   6
   0  -8   2 17.5082 6.27306   6
  -1   8  -2 293.918 21.2743   1
  -1   8  -2 313.428 20.5748   6
   1  -8   2 297.373 20.0507   6
  -2   8  -2 13.7175 6.11281   6
   2  -8   2 12.8235 5.42856   6
  -3   8  -2 26.3667 7.65434   6
  -4   8  -2 550.947 35.2184   6
   4   7  -2 62.2286 10.4478   3
   4   7  -2 51.2319 9.90902   1
   4   7  -2 53.8767 10.6358   6
  -4  -7   2 53.0514 9.17063   6
   3   7  -2 118.657 12.2418   3
   3   7  -2 124.858 12.3216   6
   3   7  -2 113.609 11.5861   1
  -3  -7   2 113.977 11.0775   6
   2   7  -2 5.20800 6.16689   3
   2   7  -2 11.0271 6.34703   6
   2   7  -2 8.44768 6.13780   1
  -2  -7   2 7.40961 6.22032   6
   1   7  -2 64.9556 7.05068   1
   0   7  -2 8.28408 5.72685   6
   0  -7   2 2.25313 5.09712   6
  -1   7  -2 196.152 14.6107   6
   1  -7   2 218.240 14.4551   6
  -2   7  -2 48.8703 7.20760   6
   2  -7   2 43.3982 6.49053   6
  -3   7  -2 24.9990 6.51117   6
  -4   7  -2 151.504 12.6645   6
   5   6  -2 48.9760 10.3512   3
  -5  -6   2 68.8932 9.87299   6
   4   6  -2 2.97662 6.65056   6
   4   6  -2 3.10020 6.74300   1
   4   6  -2 8.72428 7.14203   3
  -4  -6   2 7.96915 7.28456   6
   3   6  -2 58.2106 8.73828   1
   3   6  -2 69.3660 9.31299   3
   3   6  -2 70.8783 9.30858   6
  -3  -6   2 63.6183 8.66079   6
   2   6  -2 70.7027 8.99278   6
   2   6  -2 90.5021 9.44435   3
   2   6  -2 77.0354 8.58129   1
  -2  -6   2 81.1866 8.50404   6
   1   6  -2 1.82113 3.88639   1
   1   6  -2 2.46018 5.23294   6
   1   6  -2 2.11164 5.10749   3
  -1  -6   2 -1.6937 4.56836   6
   0   6  -2 201.362 14.4179   6
   0   6  -2 203.213 14.5264   1
   0  -6   2 211.901 13.9917   6
  -1   6  -2 124.619 9.43091   1
  -1   6  -2 118.599 9.65886   6
   1  -6   2 120.761 9.41098   6
  -2   6  -2 166.998 12.2820   6
   2  -6   2 175.876 12.0187   6
  -3   6  -2 376.825 24.5797   6
   3  -6   2 390.261 24.3342   6
  -4   6  -2 2.70177 6.16151   6
  -5   6  -2 35.9896 7.53020   6
   5   5  -2 18.7866 8.21769   3
  -5  -5   2 22.7288 7.30316   6
   4   5  -2 177.883 13.7836   6
   4   5  -2 169.841 14.8415   3
  -4  -5   2 173.329 13.2704   6
   3   5  -2 62.4761 8.32056   6
   3   5  -2 57.4714 7.74454   3
  -3  -5   2 55.1799 7.46696   6
   2   5  -2 133.053 11.9073   3
   2   5  -2 146.219 11.5250   1
   2   5  -2 159.804 11.7098   6
  -2  -5   2 142.733 11.0079   6
   1   5  -2 155.358 10.9250   1
   1   5  -2 147.477 11.2244   6
   1   5  -2 145.220 11.6859   3
  -1  -5   2 141.477 11.9046   4
  -1  -5   2 147.735 10.7440   6
   0   5  -2 115.420 9.12551   6
   0   5  -2 109.091 8.24453   1
   0  -5   2 105.119 8.15685   1
   0  -5   2 118.369 8.45049   6
   0  -5   2 105.863 9.09536   4
  -1   5  -2 47.5061 4.79855   1
  -1   5  -2 31.4514 4.28618   4
  -1   5  -2 42.6919 5.57989   6
   1  -5   2 46.7593 5.28903   6
   1  -5   2 51.6301 4.85643   4
  -2   5  -2 51.2893 6.12778   6
   2  -5   2 47.0809 5.35258   6
  -3   5  -2 711.952 42.6727   6
   3  -5   2 675.527 42.4327   6
  -4   5  -2 28.9302 6.53969   6
  -5   5  -2 -1.8500 5.56895   6
   5   4  -2 4.07411 6.82236   6
   5   4  -2 2.73352 7.57543   3
  -5  -4   2 3.62210 5.76364   6
   4   4  -2 546.901 31.6588   6
   4   4  -2 474.704 34.8245   3
  -4  -4   2 463.590 31.2213   6
   3   4  -2 50.3881 7.66819   6
  -3  -4   2 38.1804 6.08954   6
   2   4  -2 17.7265 5.25929   6
   2   4  -2 28.2091 5.29881   3
  -2  -4   2 16.5043 5.74522   4
  -2  -4   2 21.0009 5.64079   6
   1   4  -2 17.9702 3.89296   1
   1   4  -2 20.5001 5.19568   3
   1   4  -2 15.5533 4.51611   6
  -1  -4   2 19.2995 4.94938   6
  -1  -4   2 14.8871 4.46802   4
   0   4  -2 45.1657 5.79330   6
   0  -4   2 49.1538 4.34763   1
  -1   4  -2 23.3687 4.58938   6
  -1   4  -2 11.1666 3.22224   1
  -1   4  -2 19.7612 3.18039   4
   1  -4   2 23.5483 4.11418   6
   1  -4   2 14.0383 2.97341   1
  -2   4  -2 51.9873 5.65119   6
   2  -4   2 49.7974 4.91279   6
  -3   4  -2 44.6046 5.48017   6
  -3   4  -2 39.4325 4.82186   6
   3  -4   2 39.3605 4.67525   6
  -4   4  -2 125.916 9.51613   6
  -5   4  -2 11.7965 5.31192   6
   6   3  -2 62.9346 10.8345   3
  -6  -3   2 63.8844 12.5946   5
   5   3  -2 284.600 18.8107   6
   5   3  -2 238.098 20.7890   3
  -5  -3   2 283.349 18.5408   6
   4   3  -2 2.05447 6.00335   3
   4   3  -2 16.3437 6.21310   6
  -4  -3   2 8.82236 5.21013   6
   3   3  -2 142.403 11.6129   3
   3   3  -2 144.144 11.0765   6
  -3  -3   2 143.912 12.0634   4
  -3  -3   2 134.864 10.4751   6
   2   3  -2 7.13757 4.91992   6
   2   3  -2 4.35290 4.38304   3
  -2  -3   2 -0.1072 4.49750   4
  -2  -3   2 2.08926 3.68888   6
   1   3  -2 26.5491 5.49379   6
   1   3  -2 32.0820 4.65948   3
  -1  -3   2 23.0161 4.70827   6
  -1  -3   2 17.3392 4.89800   4
   0   3  -2 251.408 17.8356   1
   0   3  -2 242.915 18.3761   4
   0   3  -2 283.794 17.0290   6
   0  -3   2 266.061 18.5131   4
   0  -3   2 291.078 16.8315   6
  -1   3  -2 27.2060 3.94411   6
  -1   3  -2 26.6108 3.31373   4
  -1   3  -2 29.5869 4.29095   6
   1  -3   2 27.2022 3.94435   6
   1  -3   2 32.2451 5.88154   2
  -2   3  -2 1809.04 117.613   6
  -2   3  -2 2006.25 117.699   6
   2  -3   2 2112.40 140.017   2
   2  -3   2 1873.29 117.594   6
  -3   3  -2 89.3584 6.44457   6
  -3   3  -2 70.9800 6.04988   6
   3  -3   2 81.0793 5.86421   6
   3  -3   2 78.1234 6.23077   4
   3  -3   2 70.0228 8.16827   2
  -4   3  -2 29.8504 4.87374   6
  -5   3  -2 76.8780 7.47041   6
  -5   3  -2 79.6040 9.92290   5
  -6   3  -2 72.5341 8.12992   6
   6   2  -2 4.18973 8.68169   3
  -6  -2   2 1.64360 5.56970   5
  -6  -2   2 -3.6830 7.06667   6
   5   2  -2 290.687 21.8373   3
   5   2  -2 268.004 19.5853   6
  -5  -2   2 301.479 19.6431   6
   4   2  -2 247.667 16.8764   6
   4   2  -2 237.990 18.8529   3
  -4  -2   2 257.095 17.0141   6
   3   2  -2 -0.5977 4.42527   3
   3   2  -2 -1.2534 4.29932   6
   3   2  -2 -2.1875 3.42635   2
  -3  -2   2 0.42268 4.53661   6
  -3  -2   2 0.77787 4.76107   4
   2   2  -2 71.7682 7.16604   6
   2   2  -2 84.2847 7.56272   3
  -2  -2   2 70.0823 6.77730   6
   1   2  -2 618.083 40.3656   3
   1   2  -2 584.238 43.2425   2
   1   2  -2 609.507 36.5379   6
  -1  -2   2 611.409 36.4149   6
  -1  -2   2 552.525 40.3738   4
   0   2  -2 13.4575 3.31402   6
   0   2  -2 14.2340 4.33144   6
   0   2  -2 13.1265 3.69323   4
   0   2  -2 18.3876 3.58637   3
   0  -2   2 11.5847 3.30020   6
   0  -2   2 13.8749 3.98582   6
   0  -2   2 18.6054 3.39847   4
  -1   2  -2 129.968 8.45491   6
  -1   2  -2 125.637 9.12627   4
  -1   2  -2 144.955 8.68956   6
   1  -2   2 131.238 10.8526   2
   1  -2   2 118.469 8.99854   1
   1  -2   2 126.258 8.61424   6
  -2   2  -2 536.635 35.5364   6
  -2   2  -2 601.485 35.6097   6
   2  -2   2 609.091 43.0996   5
   2  -2   2 649.675 42.6980   2
   2  -2   2 557.656 35.4915   6
   2  -2   2 562.871 39.4713   4
  -3   2  -2 23.2088 4.89685   5
  -3   2  -2 21.7863 3.58901   6
  -3   2  -2 18.6310 3.25867   6
   3  -2   2 11.2905 4.49907   2
  -4   2  -2 28.4646 4.95103   6
  -4   2  -2 26.2457 4.36363   6
  -4   2  -2 26.3142 6.60075   5
   4  -2   2 23.2396 5.38066   2
  -5   2  -2 46.2706 8.07753   5
  -5   2  -2 47.3075 6.28984   6
  -6   2  -2 12.6676 6.57903   5
  -6   2  -2 43.7817 6.61951   6
   6   1  -2 27.6381 8.95845   3
  -6  -1   2 22.9483 6.92874   6
  -6  -1   2 28.3430 10.1272   5
   5   1  -2 3.34840 5.95382   6
  -5  -1   2 14.2624 5.90812   5
  -5  -1   2 8.05627 5.89959   6
   4   1  -2 110.363 9.60390   6
  -4  -1   2 112.645 9.55032   6
   3   1  -2 348.462 23.0659   6
  -3  -1   2 379.020 25.4862   4
  -3  -1   2 363.356 23.0879   6
   2   1  -2 298.346 20.7076   2
   2   1  -2 276.627 18.2005   6
   2   1  -2 288.523 19.9086   3
  -2  -1   2 265.788 18.0205   6
  -2  -1   2 279.049 19.7598   4
   1   1  -2 1563.20 99.3140   3
   1   1  -2 1481.74 105.947   2
   1   1  -2 1447.97 89.3878   6
  -1  -1   2 1431.42 105.902   2
  -1  -1   2 1460.70 99.2499   4
  -1  -1   2 1457.83 89.3615   6
  -1  -1   2 1452.00 89.3285   6
  -1  -1   2 1529.36 99.3872   3
   0   1  -2 294.991 20.8019   6
   0   1  -2 307.025 24.6725   2
   0   1  -2 357.653 22.8641   3
   0   1  -2 360.746 22.9245   4
   0   1  -2 313.160 20.6924   6
   0  -1   2 350.931 24.7727   2
   0  -1   2 354.084 22.9299   4
   0  -1   2 375.369 22.8468   3
   0  -1   2 331.880 20.6586   6
   0  -1   2 304.888 20.7741   6
  -1   1  -2 137.653 8.32602   6
  -1   1  -2 134.415 8.22468   6
   1  -1   2 149.647 8.17808   6
   1  -1   2 120.076 10.5457   2
   1  -1   2 107.297 9.21711   4
   1  -1   2 122.719 8.28583   6
   1  -1   2 132.132 10.1916   5
  -2   1  -2 713.268 44.9114   6
  -2   1  -2 674.815 44.8954   6
  -2   1  -2 777.727 54.5184   5
   2  -1   2 784.888 54.4956   5
   2  -1   2 766.752 53.7341   2
  -3   1  -2 100.296 9.01227   5
  -3   1  -2 96.9071 6.96796   6
   3  -1   2 97.1086 8.82927   2
  -4   1  -2 253.869 15.9191   6
  -4   1  -2 232.141 15.8765   6
  -4   1  -2 260.629 19.6078   5
   4  -1   2 242.924 18.8889   2
  -5   1  -2 28.7654 7.82063   5
  -5   1  -2 20.4957 5.57456   6
   5  -1   2 17.7220 6.05159   2
  -6   1  -2 180.705 12.8216   6
  -6   1  -2 174.875 16.3969   5
  -6   0   2 120.259 11.8840   6
  -6   0   2 149.125 14.7838   5
   5   0  -2 134.812 11.9204   6
  -5   0   2 169.888 14.7411   5
  -5   0   2 149.646 11.9788   6
   4   0  -2 35.9533 6.68091   6
  -4   0   2 37.5044 6.72799   6
   3   0  -2 11.0759 4.36800   6
  -3   0   2 16.1820 4.73789   6
   2   0  -2 309.871 20.1553   6
  -2   0   2 323.369 22.0980   4
  -2   0   2 324.006 20.1379   6
   1   0  -2 4911.98 331.934   1
   1   0  -2 5175.95 335.824   4
   1   0  -2 5119.74 302.143   6
   1   0  -2 5174.22 335.991   3
  -1   0   2 4613.53 358.521   2
  -1   0   2 4896.35 302.126   6
  -1   0   2 5171.82 302.133   6
  -1   0   2 5067.45 335.821   4
   0   0  -2 2536.57 158.954   6
   0   0  -2 2897.04 176.742   3
   0   0  -2 2621.34 158.947   6
   0   0  -2 2834.44 174.563   1
   0   0   2 2468.09 158.932   6
   0   0   2 2553.17 158.936   6
   0   0   2 2469.67 176.676   4
   0   0   2 2766.99 176.714   3
   0   0   2 2590.68 174.558   1
  -1   0  -2 182.869 14.7696   5
   1   0   2 205.611 14.8272   5
  -2   0  -2 56.7970 6.19359   5
  -3   0  -2 19.5565 3.47157   6
  -3   0  -2 20.5985 3.60314   6
  -4   0  -2 18.8925 3.92445   6
  -4   0  -2 15.2164 4.57302   6
   4   0   2 17.6933 5.18865   2
  -5   0  -2 -2.1492 5.11766   5
  -6   0  -2 91.7165 11.8150   5
  -6   0  -2 97.2352 8.51080   6
  -6   1   2 28.5289 8.38186   6
  -6   1   2 47.4702 9.95746   5
   5  -1  -2 202.461 15.1114   6
  -5   1   2 202.988 15.1180   6
  -5   1   2 220.204 17.7077   5
   4  -1  -2 23.4650 6.23636   6
  -4   1   2 34.2569 6.43248   6
   3  -1  -2 583.735 35.6653   6
  -3   1   2 581.750 39.3540   4
  -3   1   2 566.311 35.7044   6
   2  -1  -2 1043.43 63.6309   6
   2  -1  -2 1076.56 70.5179   4
  -2   1   2 1061.48 70.5229   4
  -2   1   2 1005.34 63.6385   6
  -2   1   2 1049.85 63.6509   6
   1  -1  -2 634.896 39.8362   1
   1  -1  -2 526.658 36.3690   6
   1  -1  -2 628.799 40.2084   4
  -1   1   2 648.162 40.2009   4
  -1   1   2 575.151 36.4060   6
  -1   1   2 631.834 39.8392   1
  -1   1   2 516.524 36.3897   6
   0  -1  -2 185.673 12.9964   6
   0  -1  -2 236.658 14.1169   3
   0  -1  -2 237.376 14.4571   4
   0  -1  -2 196.176 13.1387   6
   0   1   2 201.255 13.1666   6
   0   1   2 179.782 14.2061   3
   0   1   2 220.630 15.5889   5
   0   1   2 215.665 14.3830   4
   0   1   2 204.659 13.0545   6
  -1  -1  -2 210.492 16.5312   5
  -1  -1  -2 225.873 13.3139   6
  -1  -1  -2 186.713 13.3118   6
   1   1   2 248.038 15.0533   1
  -2  -1  -2 139.900 9.10797   6
  -2  -1  -2 140.114 9.08021   6
  -2  -1  -2 152.408 11.8773   5
  -3  -1  -2 310.448 23.4614   5
  -3  -1  -2 292.521 18.8188   6
  -3  -1  -2 312.050 18.9150   6
  -4  -1  -2 533.890 34.0307   6
  -4  -1  -2 551.205 41.7220   5
  -4  -1  -2 583.790 34.1643   6
  -5  -1  -2 444.084 27.0730   6
  -5  -1  -2 430.069 33.2680   5
   5   1   2 421.191 31.8837   2
  -6  -1  -2 -4.6599 6.56263   5
  -6  -1  -2 7.60999 5.27922   6
  -6   2   2 8.45752 6.46967   5
  -6   2   2 -3.9376 5.73436   6
  -5   2   2 2.04953 4.85694   5
   4  -2  -2 231.194 16.0222   6
  -4   2   2 250.135 18.9148   5
  -4   2   2 238.977 16.3992   6
   3  -2  -2 84.4909 7.59768   6
  -3   2   2 108.318 7.98145   4
  -3   2   2 88.0336 8.04520   6
   2  -2  -2 297.683 19.8431   6
   2  -2  -2 317.523 21.6512   4
  -2   2   2 347.746 21.7212   4
  -2   2   2 329.000 21.7739   1
  -2   2   2 283.661 19.9591   6
   1  -2  -2 109.087 8.81429   6
   1  -2  -2 133.246 9.40931   4
  -1   2   2 123.957 8.98826   6
  -1   2   2 142.581 9.52962   1
  -1   2   2 146.332 9.34079   4
  -1   2   2 111.311 8.96423   6
   0  -2  -2 5.34283 2.57301   6
   0  -2  -2 13.5154 3.05779   6
   0  -2  -2 6.50200 2.09903   5
   0   2   2 8.52414 3.05019   6
   0   2   2 1.26484 2.27887   5
  -1  -2  -2 638.820 47.0243   5
  -1  -2  -2 643.823 38.7123   6
  -1  -2  -2 643.631 38.7442   6
   1   2   2 682.828 42.7244   1
   1   2   2 548.135 38.7162   6
   1   2   2 677.073 38.7074   6
  -2  -2  -2 6.37216 2.55421   6
  -2  -2  -2 4.88044 3.54766   5
  -2  -2  -2 6.35516 2.90463   6
   2   2   2 10.6322 2.66641   6
   2   2   2 6.73117 2.20036   6
  -3  -2  -2 50.5271 4.58771   6
  -3  -2  -2 45.0027 7.51133   5
  -3  -2  -2 51.0397 4.98031   6
   3   2   2 43.8220 4.20601   6
  -4  -2  -2 9.25614 3.82845   6
  -4  -2  -2 6.93365 3.45715   6
   4   2   2 4.55155 2.71431   6
  -5  -2  -2 7.33203 4.25160   6
  -5  -2  -2 -7.7040 6.02181   5
  -6  -2  -2 22.6532 7.45336   5
  -6   3   2 197.030 15.0521   6
  -5   3   2 8.26212 6.04818   6
  -5   3   2 6.28587 4.69141   5
   4  -3  -2 5.59599 4.59367   6
  -4   3   2 4.26556 3.72416   5
  -4   3   2 0.58152 4.84995   6
   3  -3  -2 250.091 19.4403   4
   3  -3  -2 306.872 18.1310   6
  -3   3   2 311.261 19.5569   4
  -3   3   2 293.398 18.1790   6
  -3   3   2 266.215 20.6529   2
  -3   3   2 260.161 21.0468   5
   2  -3  -2 25.7253 3.50885   4
   2  -3  -2 21.3488 4.38809   6
  -2   3   2 15.4471 4.45901   6
   1  -3  -2 175.459 11.4895   6
  -1   3   2 158.192 11.6585   6
  -1   3   2 180.967 12.1933   4
  -1   3   2 188.326 12.4667   1
   0  -3  -2 119.246 7.93604   1
   0  -3  -2 102.820 7.36483   6
   0  -3  -2 97.8671 7.44705   6
   0   3   2 115.254 7.89244   1
   0   3   2 86.8205 7.56699   6
  -1  -3  -2 521.890 32.3053   6
  -1  -3  -2 520.511 32.2648   6
  -1  -3  -2 536.038 39.2145   5
   1   3   2 541.315 35.7235   3
   1   3   2 537.290 35.5724   1
   1   3   2 521.933 32.3300   6
  -2  -3  -2 986.859 68.5400   5
  -2  -3  -2 920.073 56.3808   6
  -2  -3  -2 919.521 56.4036   6
   2   3   2 900.280 62.1773   1
   2   3   2 964.833 62.8112   3
   2   3   2 892.655 56.3876   6
  -3  -3  -2 56.8267 5.36328   6
  -3  -3  -2 57.2294 5.44316   6
   3   3   2 60.0234 5.27053   6
  -4  -3  -2 65.1743 6.44066   6
  -4  -3  -2 66.4432 6.45243   6
   4   3   2 55.7967 5.79538   6
  -5  -3  -2 40.1060 5.97271   6
  -5  -3  -2 10.8177 6.97643   5
  -6  -3  -2 33.8711 6.72569   6
  -6  -3  -2 16.7593 7.46963   5
  -6   4   2 -2.0840 6.48218   6
  -5   4   2 43.3378 7.50605   6
   4  -4  -2 134.556 10.0586   6
  -4   4   2 120.176 10.7727   5
  -4   4   2 130.851 10.4791   6
   3  -4  -2 8.68210 3.53018   6
   3  -4  -2 13.0572 3.48095   4
  -3   4   2 11.6546 3.60112   4
  -3   4   2 14.1356 4.55121   6
   2  -4  -2 77.2339 6.49527   6
  -2   4   2 80.1859 7.47852   1
  -2   4   2 75.5759 6.10064   4
  -2   4   2 82.7238 6.90303   6
   1  -4  -2 243.429 16.5838   6
  -1   4   2 257.481 18.0526   4
  -1   4   2 268.582 16.8597   6
  -1   4   2 288.577 18.3423   1
   0  -4  -2 921.736 65.6140   5
   0  -4  -2 920.513 54.4399   6
   0  -4  -2 855.945 60.2573   3
   0   4   2 837.420 59.7010   1
   0   4   2 950.523 54.5225   6
  -1  -4  -2 595.551 38.4840   3
  -1  -4  -2 535.798 42.1903   5
  -1  -4  -2 535.701 34.7320   6
   1   4   2 591.615 38.2908   1
   1   4   2 589.801 34.9045   6
   1   4   2 562.755 38.4006   3
  -2  -4  -2 341.421 25.7493   5
  -2  -4  -2 299.449 20.8368   6
  -2  -4  -2 350.958 20.8279   6
   2   4   2 326.205 20.8961   6
   2   4   2 341.706 23.1834   1
   2   4   2 346.879 23.1803   3
  -3  -4  -2 49.1000 5.74418   6
   3   4   2 49.0617 5.57148   6
   3   4   2 59.6540 6.77008   3
   3   4   2 49.9075 6.87932   1
  -4  -4  -2 156.619 10.8693   6
  -4  -4  -2 113.399 14.3502   5
   4   4   2 177.581 13.0464   3
   4   4   2 137.230 10.4553   6
  -5  -4  -2 -4.5509 6.45822   5
  -5  -4  -2 10.0409 4.97288   6
   5   4   2 15.2147 7.70252   3
  -6  -4  -2 106.768 10.6456   6
  -6  -4  -2 124.160 15.3514   5
   6   4   2 139.077 14.0571   3
  -5   5   2 3.59346 5.95877   6
   4  -5  -2 527.763 32.2854   6
  -4   5   2 502.804 32.4376   6
   3  -5  -2 156.835 11.1601   6
  -3   5   2 159.145 12.6134   1
  -3   5   2 153.162 11.4545   6
   2  -5  -2 32.6915 5.02001   6
  -2   5   2 26.6510 5.62767   6
  -2   5   2 25.3780 5.32207   1
   1  -5  -2 195.344 12.3887   6
  -1   5   2 162.391 13.0590   4
  -1   5   2 211.223 13.6294   1
  -1   5   2 182.402 12.6703   6
   0  -5  -2 20.4629 4.60954   5
   0  -5  -2 26.2898 4.54312   6
   0   5   2 28.2425 4.94242   6
  -1  -5  -2 208.230 14.4746   6
   1   5   2 233.602 15.6844   3
   1   5   2 246.056 15.9478   1
   1   5   2 205.378 14.7429   6
  -2  -5  -2 35.6834 7.94401   5
   2   5   2 51.6892 6.41883   1
   2   5   2 44.0971 5.62071   6
   2   5   2 53.1822 5.40945   3
  -3  -5  -2 -1.7503 4.51887   6
   3   5   2 0.20477 4.29607   6
   3   5   2 1.99266 5.05924   3
   3   5   2 1.53753 5.41647   1
  -4  -5  -2 -7.8540 5.20670   6
   4   5   2 -1.2053 6.01590   1
   4   5   2 -1.2377 4.64687   6
   4   5   2 1.25287 6.24850   3
  -5  -5  -2 -5.0970 6.23446   5
  -5  -5  -2 -0.7753 5.88657   6
   5   5   2 1.70366 7.61931   3
  -6  -5  -2 32.2610 7.81546   6
  -6  -5  -2 21.2486 8.68767   5
   6   5   2 19.3317 9.71082   3
  -5   6   2 84.7057 9.81938   6
   4  -6  -2 26.3654 6.52129   6
  -4   6   2 23.3493 6.65410   6
   3  -6  -2 22.6654 6.22163   6
  -3   6   2 24.9282 6.74183   6
  -3   6   2 29.3675 7.10983   1
   2  -6  -2 31.9205 5.63385   6
  -2   6   2 37.7742 5.90847   6
  -2   6   2 33.3212 6.10648   1
   1  -6  -2 183.557 11.6063   6
  -1   6   2 153.874 12.4101   1
  -1   6   2 160.747 11.9059   6
  -1   6   2 170.468 11.8833   4
   0  -6  -2 929.825 72.3238   5
   0  -6  -2 1079.20 60.0059   6
   0   6   2 1051.85 60.0567   6
   0   6   2 880.160 65.6440   1
  -1  -6  -2 120.911 9.12600   6
   1   6   2 121.533 9.90021   1
   1   6   2 124.026 9.58584   6
  -2  -6  -2 401.452 30.8455   5
  -2  -6  -2 388.845 25.0997   6
   2   6   2 410.241 27.8358   1
   2   6   2 379.647 27.6464   3
   2   6   2 420.270 25.3841   6
  -3  -6  -2 388.586 31.1885   5
   3   6   2 400.874 28.1427   3
   3   6   2 402.123 28.1677   1
   3   6   2 411.245 25.5287   6
  -4  -6  -2 5.66160 5.84894   6
   4   6   2 -0.0196 5.24377   6
   4   6   2 -0.1955 6.49200   3
   4   6   2 3.54425 7.09454   1
  -5  -6  -2 171.004 17.0498   5
  -5  -6  -2 169.827 12.7514   6
   5   6   2 147.735 14.5885   3
   5   6   2 159.620 14.8294   1
  -5   7   2 149.590 13.2799   6
   4  -7  -2 43.6356 7.02631   6
  -4   7   2 41.0858 8.02522   6
   3  -7  -2 219.981 15.5225   6
  -3   7   2 226.895 15.9492   6
  -3   7   2 222.359 17.1160   1
   2  -7  -2 21.7814 5.59621   6
  -2   7   2 14.0788 5.51819   6
  -2   7   2 14.8894 5.23744   1
   1  -7  -2 21.3046 4.23520   5
   1  -7  -2 23.5803 5.31552   6
  -1   7   2 20.0203 6.24051   6
  -1   7   2 25.5780 5.81803   1
   0  -7  -2 275.642 17.5330   6
   0   7   2 266.209 17.7835   6
   0   7   2 259.147 18.8054   1
  -1  -7  -2 4.94430 4.48342   6
  -1  -7  -2 -0.0997 4.48879   5
   1   7   2 3.41326 4.32266   1
   1   7   2 9.17611 5.32193   6
  -2  -7  -2 108.035 9.07173   6
  -2  -7  -2 89.9628 11.8798   5
   2   7   2 103.447 9.43815   3
   2   7   2 106.099 10.1102   1
   2   7   2 122.394 9.84781   6
  -3  -7  -2 47.5931 9.09515   5
  -3  -7  -2 35.3118 7.42014   6
   3   7   2 44.4350 7.52295   6
  -4  -7  -2 1.76143 5.34644   5
   4   7   2 3.16796 6.47146   3
   4   7   2 1.78574 6.92060   1
  -5  -7  -2 1.87454 7.35560   5
  -5  -7  -2 26.9886 8.20025   6
   5   7   2 27.5107 9.40808   1
   5   7   2 12.1890 8.13161   3
  -4   8   2 61.4784 9.60745   6
   3  -8  -2 2.95739 6.14091   6
  -3   8   2 -1.3113 5.59825   1
  -3   8   2 -1.9775 6.95949   6
   2  -8  -2 90.3406 8.71173   6
  -2   8   2 89.9420 9.19154   6
  -2   8   2 69.9659 8.98529   1
   1  -8  -2 177.731 13.1162   6
  -1   8   2 177.850 13.4368   6
  -1   8   2 188.402 14.8060   1
   0  -8  -2 38.8873 6.77778   6
   0   8   2 40.7091 7.56303   6
   0   8   2 56.5940 7.18100   1
  -1  -8  -2 75.1397 8.57162   6
   1   8   2 105.104 9.28873   1
   1   8   2 95.5847 9.63424   6
  -2  -8  -2 681.674 52.3964   5
  -2  -8  -2 703.911 43.1095   6
   2   8   2 639.942 47.5240   3
   2   8   2 793.675 43.5308   6
   2   8   2 654.937 47.3095   1
  -3  -8  -2 145.554 12.2178   6
   3   8   2 147.438 12.8161   6
   3   8   2 146.791 13.7326   1
   3   8   2 159.817 13.0501   3
  -4  -8  -2 41.9417 8.28914   6
   4   8   2 36.4319 8.81577   3
   4   8   2 42.2857 10.0299   1
   3  -9  -2 -7.5718 7.13551   6
  -3   9   2 -0.0482 7.36273   6
  -3   9   2 -6.9313 6.06765   1
   2  -9  -2 20.1593 6.92235   6
  -2   9   2 6.95715 6.10202   1
  -2   9   2 17.7736 7.15787   6
   1  -9  -2 339.136 22.1352   6
  -1   9   2 353.957 22.6218   6
  -1   9   2 319.993 24.0846   1
   0  -9  -2 25.9524 6.59379   6
   0  -9  -2 19.7867 6.52232   5
   0   9   2 27.3379 7.70348   6
  -1  -9  -2 94.3556 11.4987   5
  -1  -9  -2 85.9540 9.14167   6
   1   9   2 85.7870 9.59805   1
   1   9   2 100.803 9.93645   6
  -2  -9  -2 256.858 18.1045   6
  -2  -9  -2 283.526 22.3182   5
   2   9   2 218.608 19.3990   1
   2   9   2 289.002 18.9716   6
  -3  -9  -2 32.4120 8.30550   6
   3   9   2 32.0729 9.44305   6
   3   9   2 44.3539 8.75814   3
   3   9   2 18.7232 8.84271   1
  -4  -9  -2 82.5240 10.5987   6
  -4  -9  -2 76.5010 12.6492   5
   4   9   2 93.9227 11.3169   3
   4   9   2 87.2060 12.2842   1
   3 -10  -2 25.1895 8.63329   6
  -3  10   2 41.9215 9.00933   1
  -3  10   2 37.2910 10.2838   6
   2 -10  -2 8.32853 7.53200   6
  -2  10   2 15.5936 7.96797   6
   1 -10  -2 14.6615 6.02124   6
  -1  10   2 23.8218 7.20915   1
  -1  10   2 24.7548 8.04041   6
   0 -10  -2 36.5787 7.81953   6
   0 -10  -2 29.4801 7.98467   5
   0  10   2 49.8798 8.57820   1
   0  10   2 46.0211 8.93549   6
  -1 -10  -2 25.3219 7.72554   6
  -2 -10  -2 44.0383 8.72367   6
  -2 -10  -2 44.7150 9.68014   5
   2  10   2 56.9264 9.83639   6
   2  10   2 51.3959 9.62636   1
  -3 -10  -2 100.297 13.7565   5
  -3 -10  -2 116.357 11.8728   6
   3  10   2 112.020 12.5896   3
   3  10   2 101.855 12.6468   1
   3  10   2 121.932 12.6337   6
   1 -11  -2 -2.1288 6.27470   6
  -1  11   2 -8.4521 7.80866   1
  -1  11   2 1.81260 8.58762   6
   0 -11  -2 74.9404 9.73194   6
   0  11   2 96.0697 11.4944   6
   0  11   2 76.2733 10.6930   1
  -1 -11  -2 120.084 13.5220   5
  -1 -11  -2 109.017 11.4266   6
   1  11   2 122.237 12.6565   1
   1  11   2 125.849 12.8683   6
  -2 -11  -2 13.7152 6.21019   5
  -2 -11  -2 10.7257 7.36001   6
   2  11   2 1.38601 7.89536   1
   2  11   2 15.2931 8.34557   6
   0  10  -3 53.2858 10.2748   6
   0 -10   3 40.2782 9.69857   6
   2   9  -3 81.7600 11.9597   6
  -2  -9   3 80.1595 10.6423   6
   1   9  -3 -2.4429 8.04463   6
  -1  -9   3 3.40285 7.53202   6
   0   9  -3 12.4777 7.51538   6
   0  -9   3 17.1827 7.11553   6
  -1   9  -3 3.74128 7.40469   6
   1  -9   3 1.41666 6.17712   6
  -2   9  -3 31.3391 8.44677   6
   3   8  -3 -5.2920 7.60061   6
   3   8  -3 1.97461 7.87403   1
   3   8  -3 -0.2676 7.64584   3
  -3  -8   3 -4.2019 7.77038   6
   2   8  -3 131.887 12.9741   1
   2   8  -3 157.776 15.0144   3
   2   8  -3 179.841 14.3754   6
  -2  -8   3 169.342 13.2845   6
   1   8  -3 78.4057 9.94027   6
  -1  -8   3 69.1565 8.68671   6
   0   8  -3 -0.5239 6.59337   6
   0  -8   3 5.87413 6.51737   6
  -1   8  -3 124.117 11.2147   6
   1  -8   3 127.033 10.7504   6
  -2   8  -3 28.7838 7.64710   6
  -3   8  -3 3.47165 7.04839   6
   4   7  -3 8.77448 7.51127   3
   4   7  -3 6.97284 8.37292   1
   4   7  -3 -3.0659 7.49687   6
  -4  -7   3 -0.8388 7.83269   6
   3   7  -3 84.0525 11.1518   6
   3   7  -3 113.422 11.9556   3
   3   7  -3 92.7389 10.8557   1
  -3  -7   3 108.442 10.5880   6
   2   7  -3 20.0615 6.80138   1
   2   7  -3 30.6124 8.00179   6
   2   7  -3 6.40127 6.92354   3
  -2  -7   3 25.7291 7.68036   6
   1   7  -3 35.6903 7.97656   6
   1   7  -3 17.6155 5.14055   1
   0   7  -3 12.1184 6.31232   6
   0  -7   3 8.68581 5.69410   6
  -1   7  -3 13.2828 4.34265   1
  -1   7  -3 14.6049 5.72308   6
   1  -7   3 11.1382 5.28049   6
  -2   7  -3 144.636 11.6094   6
   2  -7   3 135.607 10.8698   6
  -3   7  -3 3.09487 5.79645   6
  -4   7  -3 117.264 11.1080   6
   4   6  -3 4.40908 7.55180   6
   4   6  -3 9.03031 7.36357   3
   4   6  -3 6.89532 6.88362   1
  -4  -6   3 5.28138 7.72077   6
   3   6  -3 156.693 13.1343   6
   3   6  -3 143.244 12.6281   1
   3   6  -3 123.505 13.0698   3
  -3  -6   3 153.225 12.1840   6
   2   6  -3 276.121 19.3138   1
   2   6  -3 273.118 18.7409   6
   2   6  -3 241.229 20.0970   3
  -2  -6   3 273.975 18.2297   6
   1   6  -3 25.5363 4.63338   1
   1   6  -3 28.4420 7.24641   3
   1   6  -3 23.1431 7.27884   6
  -1  -6   3 35.6129 6.72217   6
  -1  -6   3 33.0792 6.99255   4
   0   6  -3 3.51244 3.69233   1
   0   6  -3 -0.1776 5.38664   6
   0  -6   3 4.09036 5.04236   4
   0  -6   3 1.67537 5.18456   6
  -1   6  -3 12.4893 3.89576   1
  -1   6  -3 7.02190 5.11344   6
   1  -6   3 19.9666 5.04689   4
   1  -6   3 1.12254 4.61141   6
  -2   6  -3 81.0024 8.26237   6
   2  -6   3 83.8529 7.63978   6
  -3   6  -3 -1.3703 5.21874   6
  -4   6  -3 135.595 11.1548   6
  -5   6  -3 23.6112 7.25580   6
   5   5  -3 -7.8898 7.38111   6
   5   5  -3 -6.2746 8.08008   3
  -5  -5   3 -9.1463 7.18516   6
   4   5  -3 120.990 12.7290   3
   4   5  -3 154.715 12.6803   6
  -4  -5   3 143.794 11.9401   6
   3   5  -3 80.9788 9.82740   3
   3   5  -3 91.2150 9.70432   6
  -3  -5   3 83.6963 8.98786   6
   2   5  -3 185.941 13.6545   6
   2   5  -3 184.748 13.6870   1
   2   5  -3 172.253 14.2996   3
  -2  -5   3 183.296 13.3323   6
  -2  -5   3 174.541 14.4571   4
   1   5  -3 18.8036 5.64245   6
   1   5  -3 26.4491 4.27326   1
   1   5  -3 19.8326 6.10059   3
  -1  -5   3 20.9175 5.90940   4
  -1  -5   3 23.3876 5.68920   6
   0   5  -3 38.8909 4.06079   1
   0   5  -3 27.0902 6.04305   6
   0  -5   3 33.0148 5.56542   4
  -1   5  -3 169.310 12.2360   6
   1  -5   3 175.900 12.7312   4
   1  -5   3 174.246 11.9201   6
  -2   5  -3 8.29396 4.47005   6
   2  -5   3 7.06434 3.88095   6
  -3   5  -3 40.3473 6.08871   6
   3  -5   3 32.7413 5.45963   6
  -4   5  -3 46.6167 6.60686   6
  -5   5  -3 10.4832 5.14638   6
   5   4  -3 9.97451 8.04495   3
   5   4  -3 9.98925 7.86001   6
  -5  -4   3 4.71531 6.23928   6
   4   4  -3 112.431 11.4587   3
   4   4  -3 128.303 11.4548   6
  -4  -4   3 117.962 10.5694   6
   3   4  -3 87.0566 9.16880   3
   3   4  -3 95.9971 9.46258   6
  -3  -4   3 71.5573 9.47044   4
  -3  -4   3 69.8805 7.95595   6
   2   4  -3 35.5111 6.78182   6
   2   4  -3 35.8891 6.51676   3
  -2  -4   3 30.8477 6.05882   6
  -2  -4   3 22.0466 6.33695   4
   1   4  -3 29.8192 5.42400   3
   1   4  -3 21.5990 4.09479   1
   1   4  -3 30.8603 6.14675   6
  -1  -4   3 33.2871 5.52278   4
  -1  -4   3 37.7120 5.91999   6
   0   4  -3 29.5372 5.63046   6
   0  -4   3 26.0123 4.97648   6
   0  -4   3 33.2800 5.14560   4
  -1   4  -3 108.800 8.95073   6
   1  -4   3 128.296 9.16314   4
   1  -4   3 124.228 8.72451   6
  -2   4  -3 8.11041 3.47784   6
  -2   4  -3 9.14245 3.55835   6
   2  -4   3 7.38645 3.26506   6
   2  -4   3 21.2411 6.44880   2
  -3   4  -3 75.8180 6.60005   6
   3  -4   3 58.6936 5.60838   6
  -4   4  -3 91.3142 7.94505   6
  -5   4  -3 6.99237 4.89315   6
   5   3  -3 18.0084 7.31364   3
   5   3  -3 26.0581 7.73805   6
  -5  -3   3 25.8331 7.39840   6
   4   3  -3 11.8449 6.38789   3
   4   3  -3 -13.307 6.67974   6
  -4  -3   3 -9.1586 5.75484   6
   3   3  -3 366.281 21.5403   6
   3   3  -3 312.235 23.1897   3
  -3  -3   3 308.476 20.9620   6
  -3  -3   3 312.309 23.2965   4
   2   3  -3 274.276 19.6509   3
   2   3  -3 273.206 18.2244   6
  -2  -3   3 277.091 19.7519   4
  -2  -3   3 272.854 17.8751   6
   1   3  -3 33.6459 6.09947   6
  -1  -3   3 25.9727 5.27466   6
   0   3  -3 380.518 24.3258   6
   0  -3   3 387.448 24.1151   6
   0  -3   3 377.944 26.7121   4
   0  -3   3 408.293 28.9586   2
  -1   3  -3 3.64576 3.28441   6
  -1   3  -3 3.04069 2.64332   6
  -1   3  -3 5.42295 2.86649   4
   1  -3   3 4.36585 3.07466   6
   1  -3   3 0.48031 4.87381   2
   1  -3   3 3.20794 2.12066   1
  -2   3  -3 68.5807 5.59488   6
  -2   3  -3 75.1820 5.85962   6
   2  -3   3 81.0633 8.44521   2
   2  -3   3 56.6431 5.73161   4
   2  -3   3 75.4735 5.94067   1
   2  -3   3 66.8517 5.31941   6
  -3   3  -3 9.19233 3.62975   6
  -3   3  -3 6.03471 3.09317   6
   3  -3   3 -6.2102 5.22157   2
   3  -3   3 13.0684 2.88179   6
   3  -3   3 6.81994 3.46050   4
  -4   3  -3 41.1301 5.07739   6
   4  -3   3 30.6703 5.13421   4
  -5   3  -3 175.575 12.2602   6
  -6   3  -3 11.5100 5.24729   6
   6   2  -3 10.8171 7.96130   3
  -6  -2   3 5.70178 7.50167   5
  -6  -2   3 -1.8353 7.40662   6
   5   2  -3 16.4823 7.28972   6
   5   2  -3 23.1743 7.41209   3
  -5  -2   3 18.5236 7.28794   6
   4   2  -3 10.9798 6.14387   3
   4   2  -3 23.0883 6.15493   6
  -4  -2   3 20.5550 6.36479   6
   3   2  -3 100.613 8.71628   6
   3   2  -3 85.9768 8.14326   2
   3   2  -3 89.4951 8.36640   3
  -3  -2   3 94.7853 8.51865   6
  -3  -2   3 76.4264 8.72935   4
   2   2  -3 42.3269 5.71619   3
   2   2  -3 45.4199 6.52380   6
  -2  -2   3 33.6429 5.97449   4
  -2  -2   3 42.8436 5.79533   6
   1   2  -3 277.563 17.9791   3
   1   2  -3 235.741 16.5768   6
  -1  -2   3 244.059 16.3117   6
  -1  -2   3 243.625 19.2107   2
  -1  -2   3 264.239 18.0156   4
   0   2  -3 349.274 22.5121   6
   0   2  -3 343.202 22.7078   6
   0   2  -3 347.369 24.9164   3
   0  -2   3 370.903 24.9325   4
   0  -2   3 372.865 22.5306   6
   0  -2   3 398.017 27.0683   2
  -1   2  -3 16.1832 3.30035   6
  -1   2  -3 14.1145 3.19783   6
  -1   2  -3 16.2359 3.24865   4
   1  -2   3 16.4452 3.17829   6
   1  -2   3 13.1640 4.67656   2
   1  -2   3 10.6063 2.80251   4
   1  -2   3 15.2835 2.42046   1
  -2   2  -3 172.982 10.5649   6
   2  -2   3 171.846 13.4366   2
   2  -2   3 154.674 10.3001   6
   2  -2   3 159.662 11.7066   4
  -3   2  -3 212.123 12.5708   6
  -3   2  -3 177.850 12.4416   6
   3  -2   3 196.835 15.7678   2
   3  -2   3 202.412 13.9495   4
  -4   2  -3 39.8669 4.42945   6
  -4   2  -3 57.7629 7.59933   5
  -4   2  -3 52.7076 5.02474   6
   4  -2   3 28.8335 7.52096   2
  -5   2  -3 83.5487 9.90946   5
  -5   2  -3 78.0999 6.94083   6
   5  -2   3 63.8598 9.11068   2
  -6   2  -3 5.56094 4.47997   6
  -6   2  -3 3.66148 6.18582   5
   6   1  -3 55.0382 10.2162   3
  -6  -1   3 64.8391 12.0174   5
  -6  -1   3 70.9494 9.58755   6
   5   1  -3 -6.4129 6.53913   6
   5   1  -3 6.70657 7.03116   3
  -5  -1   3 4.37732 6.14607   6
   4   1  -3 230.348 18.7223   3
   4   1  -3 252.005 17.1782   6
  -4  -1   3 258.854 17.0878   6
  -4  -1   3 247.694 18.7050   4
   3   1  -3 21.9624 5.36863   3
   3   1  -3 24.6871 6.28492   6
  -3  -1   3 21.1800 5.70339   6
  -3  -1   3 26.1590 5.77207   4
   2   1  -3 480.571 33.8446   3
   2   1  -3 536.590 35.8587   2
   2   1  -3 489.024 30.7743   6
  -2  -1   3 474.822 33.9468   4
  -2  -1   3 484.995 30.6447   6
   1   1  -3 4976.37 343.269   1
   1   1  -3 5313.98 312.589   6
   1   1  -3 5226.07 347.548   3
   1   1  -3 5002.73 371.056   2
  -1  -1   3 5110.34 347.402   4
  -1  -1   3 5346.74 312.543   6
  -1  -1   3 5330.99 371.002   2
   0   1  -3 989.928 73.3259   2
   0   1  -3 1021.60 61.6375   6
   0   1  -3 1028.49 68.4538   3
   0   1  -3 1075.47 68.4486   4
   0   1  -3 975.137 61.7024   6
   0  -1   3 1077.99 61.6288   6
   0  -1   3 980.267 68.4025   3
   0  -1   3 963.292 68.4510   4
   0  -1   3 1064.32 73.3314   2
   0  -1   3 1000.50 61.6583   6
  -1   1  -3 219.846 13.9989   6
  -1   1  -3 233.308 15.4664   4
  -1   1  -3 222.432 13.8255   6
   1  -1   3 218.476 15.4347   4
   1  -1   3 216.485 13.8556   6
   1  -1   3 227.853 17.1803   2
  -2   1  -3 58.1256 4.21631   6
  -2   1  -3 53.6571 6.01225   5
   2  -1   3 63.7707 5.12457   4
   2  -1   3 46.4779 6.40300   2
  -3   1  -3 41.3926 5.86484   5
   3  -1   3 31.6389 5.92059   2
  -4   1  -3 236.567 18.9208   5
  -4   1  -3 233.322 15.1345   6
   4  -1   3 243.700 18.6984   2
  -5   1  -3 9.58150 4.97541   5
  -6   1  -3 -3.8912 5.64711   5
  -6   1  -3 -0.3318 4.34988   6
  -6   0   3 4.91413 5.51345   5
  -6   0   3 4.65852 7.14550   6
   5   0  -3 110.633 11.2098   6
  -5   0   3 125.928 10.9498   6
   4   0  -3 213.695 15.0887   6
  -4   0   3 203.843 14.9926   6
  -4   0   3 208.386 15.9927   4
   3   0  -3 7.17086 4.60806   6
  -3   0   3 7.77186 4.81250   6
  -3   0   3 11.8411 4.35569   4
   2   0  -3 138.075 10.5580   6
   2   0  -3 163.574 11.3214   3
  -2   0   3 129.795 11.1269   2
  -2   0   3 152.966 10.8358   6
   1   0  -3 78.2643 5.88386   1
   1   0  -3 79.6065 6.29476   3
   1   0  -3 60.9166 6.65913   6
  -1   0   3 76.6668 6.36048   4
  -1   0   3 58.7485 6.69046   2
   0   0  -3 271.672 18.8585   6
   0   0  -3 258.530 18.9578   6
   0   0  -3 344.371 20.7101   3
   0   0  -3 325.500 20.3140   1
   0   0   3 299.389 20.8071   4
   0   0   3 326.192 20.7000   3
   0   0   3 265.367 18.9109   6
   0   0   3 333.587 20.3227   1
  -1   0  -3 15.4269 2.74119   6
  -1   0  -3 13.5579 2.83451   6
   1   0   3 22.8083 3.49886   4
   1   0   3 23.6799 3.80030   5
  -2   0  -3 290.972 21.9710   5
  -3   0  -3 309.781 23.5774   5
  -4   0  -3 3.61777 4.22010   5
  -4   0  -3 -1.2069 3.08025   6
  -4   0  -3 1.39697 3.08821   6
   4   0   3 3.12563 4.97767   2
  -5   0  -3 411.517 30.5903   5
  -5   0  -3 390.485 24.6127   6
   5   0   3 383.042 29.7043   2
  -6   0  -3 40.1471 9.46217   5
  -6   0  -3 42.3932 5.94220   6
  -6   1   3 5.73897 6.11518   5
  -6   1   3 5.85494 6.66497   6
   5  -1  -3 71.9262 9.34818   6
  -5   1   3 79.4591 9.24650   6
   4  -1  -3 158.606 12.3420   6
  -4   1   3 169.413 12.9854   4
  -4   1   3 150.192 12.1579   6
   3  -1  -3 76.5220 7.84709   6
  -3   1   3 79.2569 8.02331   6
  -3   1   3 90.7991 7.80202   4
   2  -1  -3 935.309 56.3660   6
  -2   1   3 900.642 56.3841   6
  -2   1   3 936.423 62.3751   4
   1  -1  -3 11.9026 3.26925   4
   1  -1  -3 2.87696 3.49494   6
   1  -1  -3 12.0137 3.61430   1
   1  -1  -3 10.4546 3.21869   3
  -1   1   3 15.9366 3.68684   1
  -1   1   3 12.9990 3.84305   4
   0  -1  -3 710.961 48.0162   6
   0  -1  -3 874.644 53.0853   3
   0  -1  -3 715.803 47.9562   6
   0  -1  -3 868.982 52.5285   1
   0   1   3 879.691 52.5397   1
   0   1   3 716.872 47.9446   6
   0   1   3 754.444 48.0293   6
   0   1   3 840.475 53.1192   3
   0   1   3 750.067 53.2468   4
  -1  -1  -3 431.287 28.1696   6
  -1  -1  -3 500.369 34.2816   5
  -1  -1  -3 463.748 28.2381   6
  -2  -1  -3 26.6194 5.19603   5
  -3  -1  -3 721.001 53.2503   5
  -4  -1  -3 34.1688 4.36214   6
  -4  -1  -3 26.9758 7.18745   5
  -4  -1  -3 41.7265 4.35513   6
  -5  -1  -3 7.89692 5.52944   5
   5   1   3 -11.585 5.66408   2
  -6  -1  -3 -4.0782 4.33151   6
  -6   2   3 208.047 16.0419   6
   5  -2  -3 9.61855 6.39048   6
  -5   2   3 25.9053 7.30287   5
  -5   2   3 15.6860 6.37761   6
   4  -2  -3 53.4469 6.90848   6
  -4   2   3 40.4540 7.45697   6
   3  -2  -3 94.5095 8.26932   6
  -3   2   3 91.9868 8.50768   6
  -3   2   3 110.210 8.57540   4
  -2   2   3 10.6864 4.35725   6
   1  -2  -3 59.6451 5.65565   6
   1  -2  -3 74.1991 5.97130   4
  -1   2   3 68.8187 5.63831   4
  -1   2   3 73.9101 5.80346   1
  -1   2   3 54.4801 6.24484   6
   0  -2  -3 103.478 8.04213   5
   0  -2  -3 87.0462 7.07918   6
   0  -2  -3 95.4106 7.38898   6
   0  -2  -3 107.043 7.30652   1
   0   2   3 107.867 7.77086   4
   0   2   3 117.063 7.38231   1
   0   2   3 98.0410 8.31548   5
   0   2   3 80.2860 7.22916   6
   0   2   3 91.1098 6.89621   6
  -1  -2  -3 313.877 19.9441   6
  -1  -2  -3 332.822 24.3170   5
  -1  -2  -3 326.163 19.8884   6
   1   2   3 367.981 19.9064   6
   1   2   3 286.973 19.9224   6
  -2  -2  -3 1706.34 127.875   5
   2   2   3 1798.64 116.409   1
  -3  -2  -3 337.676 20.9300   6
  -3  -2  -3 349.015 20.8948   6
  -3  -2  -3 333.806 26.0276   5
  -4  -2  -3 131.563 9.11168   6
  -4  -2  -3 149.509 9.54395   6
  -4  -2  -3 120.381 12.8581   5
  -5  -2  -3 1080.88 67.2387   6
  -5  -2  -3 1135.75 82.0327   5
  -6  -2  -3 15.2032 7.71593   5
  -6  -2  -3 35.2649 5.24250   6
  -6   3   3 223.207 16.5580   6
   5  -3  -3 74.8062 8.90549   6
  -5   3   3 69.7934 9.01698   6
  -5   3   3 75.1601 9.24372   5
   4  -3  -3 26.0681 6.30397   6
  -4   3   3 28.6225 6.73182   6
  -4   3   3 30.4658 6.06126   4
  -4   3   3 31.8253 5.90592   5
   3  -3  -3 414.447 26.4470   6
  -3   3   3 406.123 26.5672   6
  -3   3   3 443.267 28.9980   4
   2  -3  -3 5.19436 3.18233   6
   2  -3  -3 9.67352 3.38511   4
  -2   3   3 5.67313 3.24924   4
  -2   3   3 0.73975 3.75760   1
  -2   3   3 6.43114 4.11244   6
   1  -3  -3 3.24372 3.06936   6
   1  -3  -3 4.26169 2.70405   4
  -1   3   3 1.73547 3.53805   6
  -1   3   3 6.43070 2.78665   4
  -1   3   3 3.54122 1.82193   5
  -1   3   3 5.46388 3.33725   1
   0  -3  -3 48.0435 4.22152   6
   0  -3  -3 41.7659 4.50096   5
   0  -3  -3 40.6205 4.61938   6
   0   3   3 45.9909 4.58362   1
   0   3   3 48.4965 4.78099   4
   0   3   3 37.9359 4.72948   6
  -1  -3  -3 48.4117 4.61152   6
  -1  -3  -3 43.1338 5.87526   5
  -1  -3  -3 47.0227 4.37899   6
   1   3   3 57.2842 5.32402   1
   1   3   3 43.1468 4.64667   6
  -2  -3  -3 2398.73 136.978   6
  -2  -3  -3 2152.39 136.915   6
  -2  -3  -3 2350.31 165.705   5
   2   3   3 2110.98 136.895   6
   2   3   3 2345.58 150.783   1
  -3  -3  -3 153.694 14.7444   5
  -3  -3  -3 184.487 10.8934   6
  -3  -3  -3 167.390 10.9246   6
   3   3   3 157.281 10.6041   6
  -4  -3  -3 199.661 13.1229   6
  -4  -3  -3 173.636 17.1081   5
  -4  -3  -3 206.701 12.9516   6
  -5  -3  -3 53.9337 10.5874   5
  -5  -3  -3 68.4508 6.78199   6
  -6  -3  -3 -13.749 6.86871   5
  -6  -3  -3 3.23844 4.87785   6
  -6   4   3 3.67467 6.85256   6
  -5   4   3 61.0589 8.22120   6
   4  -4  -3 153.543 11.7502   6
  -4   4   3 163.613 12.5561   4
  -4   4   3 170.226 12.2599   6
  -4   4   3 154.219 12.8609   5
   3  -4  -3 178.341 11.9835   6
  -3   4   3 176.755 12.6762   4
  -3   4   3 161.124 13.2921   1
   2  -4  -3 146.201 10.1516   6
   2  -4  -3 145.581 10.5397   4
  -2   4   3 152.067 10.5458   4
  -2   4   3 135.780 10.2588   6
  -2   4   3 141.058 11.1507   1
   1  -4  -3 4.21321 3.25834   6
  -1   4   3 5.37567 3.92179   6
   0  -4  -3 553.551 35.7863   3
   0  -4  -3 546.005 32.5236   6
   0  -4  -3 492.730 39.0428   5
   0   4   3 546.470 32.6218   6
   0   4   3 518.829 35.6515   1
  -1  -4  -3 437.410 27.6841   6
  -1  -4  -3 441.399 27.6725   6
  -1  -4  -3 436.119 33.7530   5
   1   4   3 458.022 30.4217   3
   1   4   3 473.046 30.5920   1
   1   4   3 458.712 27.7980   6
  -2  -4  -3 44.7660 5.04665   6
  -2  -4  -3 44.9684 4.78424   6
   2   4   3 57.0692 5.16885   3
   2   4   3 40.6060 4.90387   6
   2   4   3 40.9684 5.83572   1
  -3  -4  -3 416.243 32.3661   5
  -3  -4  -3 399.204 26.1169   6
  -3  -4  -3 437.927 26.0775   6
   3   4   3 460.509 29.2952   3
   3   4   3 409.102 29.1690   1
   3   4   3 404.842 25.9957   6
  -4  -4  -3 234.801 20.6635   5
  -4  -4  -3 250.053 15.7111   6
   4   4   3 232.916 15.5284   6
  -5  -4  -3 0.42252 5.23914   6
  -5  -4  -3 -1.4319 6.57052   5
  -6  -4  -3 67.9239 7.83241   6
  -6  -4  -3 54.1050 12.2975   5
  -5   5   3 9.93865 6.26918   6
   4  -5  -3 209.208 15.1546   6
  -4   5   3 223.284 15.4453   6
   3  -5  -3 37.4581 4.87652   4
   3  -5  -3 42.5540 5.91575   6
  -3   5   3 36.1472 6.12723   6
  -3   5   3 43.5525 6.93900   1
   2  -5  -3 27.5152 5.10516   6
  -2   5   3 34.5118 4.02797   4
  -2   5   3 24.6125 5.40123   6
  -2   5   3 30.9751 5.49986   1
   1  -5  -3 147.134 10.2091   6
  -1   5   3 148.219 10.5951   4
  -1   5   3 148.087 10.6504   6
  -1   5   3 143.481 11.0138   1
   0  -5  -3 6.21257 3.40674   6
   0  -5  -3 10.6693 2.41816   3
   0  -5  -3 4.19405 2.67220   5
   0   5   3 15.3829 4.63928   6
   0   5   3 7.29828 3.42135   1
  -1  -5  -3 1159.45 70.1914   6
  -1  -5  -3 1235.92 84.9640   5
  -1  -5  -3 1153.90 77.7885   3
   1   5   3 1127.90 70.2171   6
   1   5   3 1091.59 77.1530   1
   1   5   3 1177.56 77.7622   3
  -2  -5  -3 34.3131 4.80000   6
   2   5   3 31.1820 5.08357   6
   2   5   3 36.4188 6.09805   1
   2   5   3 35.2931 4.57427   3
  -3  -5  -3 350.583 28.1656   5
   3   5   3 365.533 22.6584   6
   3   5   3 353.207 25.2053   3
   3   5   3 366.671 25.3990   1
  -4  -5  -3 555.154 40.4780   5
  -4  -5  -3 553.805 32.6414   6
   4   5   3 471.268 36.3263   1
   4   5   3 518.007 36.7673   3
  -5  -5  -3 29.8023 6.54718   6
  -5  -5  -3 20.9023 7.51739   5
   5   5   3 17.6865 7.33116   1
   5   5   3 19.9017 7.69856   3
  -6  -5  -3 226.068 21.1498   5
  -6  -5  -3 221.905 15.9309   6
   6   5   3 243.142 19.5573   3
   6   5   3 208.750 18.8110   1
  -5   6   3 10.0430 7.13542   6
   4  -6  -3 1.04092 5.57697   6
  -4   6   3 1.92186 6.30798   6
   3  -6  -3 963.641 54.9742   6
  -3   6   3 912.777 55.0684   6
  -3   6   3 811.506 60.3787   1
   2  -6  -3 46.2170 6.12037   6
  -2   6   3 42.5373 6.12788   1
  -2   6   3 36.8448 4.25708   4
  -2   6   3 38.2252 6.44009   6
   1  -6  -3 64.7212 6.07486   6
  -1   6   3 64.8945 6.60011   1
  -1   6   3 58.5452 5.72658   4
  -1   6   3 65.9875 6.85580   6
   0  -6  -3 192.281 13.5106   6
   0   6   3 185.784 14.6299   1
   0   6   3 240.113 14.0133   6
  -1  -6  -3 155.150 14.6717   5
  -1  -6  -3 180.227 11.7427   6
   1   6   3 168.014 11.9257   6
   1   6   3 175.667 12.7073   1
  -2  -6  -3 209.890 12.8027   6
  -2  -6  -3 152.899 16.2449   5
   2   6   3 181.926 13.5174   3
   2   6   3 190.378 12.9422   6
   2   6   3 192.349 14.3206   1
  -3  -6  -3 54.8508 6.84965   6
   3   6   3 68.7995 7.41530   3
   3   6   3 62.5202 7.57933   6
   3   6   3 71.8867 8.56719   1
  -4  -6  -3 183.758 17.0404   5
   4   6   3 163.380 14.3479   3
   4   6   3 174.478 15.0346   1
  -5  -6  -3 37.7543 7.29828   6
  -5  -6  -3 21.7544 8.22299   5
   5   6   3 39.0013 9.50959   1
   5   6   3 28.5964 8.17837   3
  -5   7   3 35.0942 9.14420   6
   4  -7  -3 7.90744 5.10649   6
  -4   7   3 7.22762 6.91585   6
   3  -7  -3 62.0130 7.90302   6
  -3   7   3 62.5590 8.31350   1
  -3   7   3 71.5924 8.60509   6
   2  -7  -3 2.32065 4.97870   6
  -2   7   3 -0.6845 4.83447   1
  -2   7   3 0.51346 5.82065   6
   1  -7  -3 45.5057 5.74879   6
  -1   7   3 35.7551 6.15787   1
  -1   7   3 44.9316 6.79353   6
  -1   7   3 33.4077 4.87619   4
   0  -7  -3 330.611 20.8684   6
   0   7   3 353.360 21.1716   6
   0   7   3 298.316 22.6577   1
  -1  -7  -3 32.1735 5.60056   6
  -1  -7  -3 24.9148 7.14296   5
   1   7   3 33.2973 5.81217   1
   1   7   3 36.7953 6.45680   6
  -2  -7  -3 10.5614 5.09597   6
   2   7   3 16.3467 5.48578   6
   2   7   3 17.3997 6.28398   1
  -3  -7  -3 750.916 51.5375   5
  -3  -7  -3 632.873 41.9894   6
   3   7   3 711.901 42.2289   6
   3   7   3 644.577 46.5361   1
   3   7   3 659.770 46.5025   3
  -4  -7  -3 10.7500 5.70877   6
  -4  -7  -3 9.10984 6.43174   5
   4   7   3 8.82627 6.75531   3
   4   7   3 14.5274 7.31183   1
  -5  -7  -3 151.257 16.5569   5
   5   7   3 148.663 14.7016   1
   5   7   3 122.862 13.3419   3
   4  -8  -3 189.221 14.9327   6
  -4   8   3 202.088 15.2236   6
   3  -8  -3 -3.4881 5.82606   6
  -3   8   3 -1.8550 6.19902   1
  -3   8   3 -9.8707 6.37702   6
   2  -8  -3 13.2935 6.03554   6
  -2   8   3 17.3420 7.11638   6
  -2   8   3 13.8582 5.54641   1
   1  -8  -3 28.3205 6.29764   6
  -1   8   3 45.9641 7.70363   6
   0  -8  -3 230.005 15.8523   6
   0  -8  -3 215.058 18.6896   5
   0   8   3 238.139 17.3040   1
   0   8   3 256.956 16.4292   6
  -1  -8  -3 46.6199 6.78105   6
   1   8   3 51.1702 7.80074   6
  -2  -8  -3 178.541 13.7108   6
   2   8   3 184.322 15.2261   1
   2   8   3 185.642 14.6390   3
   2   8   3 208.730 14.2616   6
  -3  -8  -3 326.205 22.5066   6
  -3  -8  -3 370.396 27.9111   5
   3   8   3 338.406 24.6962   3
   3   8   3 351.746 22.8437   6
   3   8   3 333.489 25.1595   1
  -4  -8  -3 62.0744 8.69390   6
   4   8   3 47.3929 10.4293   1
   4   8   3 48.0919 8.79250   3
  -4   9   3 82.4990 10.7469   6
   3  -9  -3 26.9634 7.76354   6
  -3   9   3 24.7164 7.80624   6
  -3   9   3 16.9486 7.17683   1
   2  -9  -3 2.94384 6.26182   6
  -2   9   3 -7.3444 5.69375   1
  -2   9   3 2.68426 7.71287   6
   1  -9  -3 81.8203 9.04075   6
  -1   9   3 100.440 9.99328   6
  -1   9   3 92.9442 9.77027   1
   0  -9  -3 -0.6337 4.51889   5
   0  -9  -3 4.62087 5.31193   6
   0   9   3 12.2833 6.83299   6
   0   9   3 17.4975 6.74963   1
  -1  -9  -3 45.6540 9.61058   5
  -1  -9  -3 50.2577 7.47825   6
   1   9   3 58.4202 8.05272   1
  -2  -9  -3 36.8566 7.37707   6
   2   9   3 41.4408 8.20687   1
   2   9   3 38.7519 8.49644   6
  -3  -9  -3 75.3866 12.2211   5
  -3  -9  -3 81.4122 9.58039   6
   3   9   3 67.0828 10.8468   1
   3   9   3 88.8667 9.51501   3
   3   9   3 82.7217 9.74201   6
  -4  -9  -3 154.085 16.7437   5
  -4  -9  -3 145.071 12.6696   6
   4   9   3 145.707 14.9685   1
   4   9   3 134.019 13.5725   3
   3 -10  -3 2.49939 7.55977   6
  -3  10   3 10.1992 7.30903   1
  -3  10   3 11.0330 8.34711   6
   2 -10  -3 -0.1102 6.98963   6
  -2  10   3 10.8045 8.33729   6
   1 -10  -3 32.7750 7.29215   6
  -1  10   3 35.3277 8.73295   6
  -1  10   3 27.4508 8.29982   1
   0 -10  -3 102.017 10.2869   6
   0 -10  -3 116.721 11.6959   5
   0  10   3 109.382 11.4568   1
   0  10   3 122.293 11.3058   6
  -1 -10  -3 72.4543 10.9597   5
  -1 -10  -3 78.1166 9.08274   6
   1  10   3 70.0988 9.50531   1
   1  10   3 78.3602 10.0868   6
  -2 -10  -3 182.774 14.2788   6
  -2 -10  -3 198.506 17.7203   5
   2  10   3 160.949 15.6711   1
   2  10   3 198.614 15.2754   6
  -3 -10  -3 12.5386 7.35462   5
  -3 -10  -3 35.7920 8.52796   6
   3  10   3 29.9325 9.68655   3
   3  10   3 25.0251 9.29695   1
   3  10   3 32.5989 9.33234   6
   1 -11  -3 2.27330 6.14530   6
  -1  11   3 8.03370 7.41175   6
  -1  11   3 -9.8216 7.51620   1
   0 -11  -3 29.4838 8.04714   6
   0  11   3 43.6312 9.36505   1
   0  11   3 33.8933 9.96850   6
  -1 -11  -3 6.45981 6.83440   6
  -1 -11  -3 3.76001 6.59516   5
   1  11   3 16.3759 8.26954   1
   1  11   3 16.8906 9.12211   6
  -2 -11  -3 2.42549 6.72835   6
  -2 -11  -3 0.04662 6.68538   5
   2  11   3 7.10873 8.35477   6
   2  11   3 -8.2912 7.41867   1
   1   9  -4 18.5356 8.89852   6
  -1  -9   4 17.8450 8.37461   6
   0   9  -4 11.7883 7.98944   6
   0  -9   4 18.2120 7.84771   6
  -1   9  -4 53.8039 9.34601   6
   3   8  -4 -0.7816 8.93974   3
   3   8  -4 -6.1442 9.15442   6
  -3  -8   4 -10.881 8.19794   6
   2   8  -4 124.725 13.1799   6
   2   8  -4 127.655 13.8021   3
  -2  -8   4 119.406 12.0745   6
   1   8  -4 37.3661 9.69847   6
  -1  -8   4 40.7564 8.61868   6
   0   8  -4 113.108 11.6326   6
   0  -8   4 113.832 10.9857   6
  -1   8  -4 19.1323 6.84209   6
   1  -8   4 10.6842 6.18691   6
  -2   8  -4 15.3662 7.31902   6
  -3   8  -4 28.4979 8.34902   6
   4   7  -4 24.8524 9.12995   3
   4   7  -4 24.7712 9.26600   1
   4   7  -4 22.4315 8.62011   6
  -4  -7   4 23.4496 8.68793   6
   3   7  -4 -11.035 7.39725   6
   3   7  -4 -5.3306 7.33579   1
   3   7  -4 7.52046 8.94833   3
  -3  -7   4 3.34333 7.45625   6
   2   7  -4 1.10452 7.00184   6
   2   7  -4 -4.5207 7.33346   3
  -2  -7   4 10.2882 7.13557   6
   1   7  -4 166.851 14.0997   6
  -1  -7   4 167.461 13.0017   6
  -1  -7   4 160.382 14.4703   4
   0   7  -4 -3.2675 6.21356   6
   0  -7   4 10.5702 6.27968   4
   0  -7   4 -3.2329 6.20431   6
  -1   7  -4 41.2757 7.83593   6
   1  -7   4 37.0664 7.18502   6
  -2   7  -4 141.692 11.5813   6
  -3   7  -4 1.61997 5.57656   6
  -4   7  -4 10.4335 6.82315   6
   4   6  -4 13.8564 7.27888   1
   4   6  -4 13.0406 7.79721   6
   4   6  -4 18.8362 8.86392   3
  -4  -6   4 11.7955 8.26414   6
   3   6  -4 20.2286 7.54575   6
   3   6  -4 36.1276 8.10186   1
   3   6  -4 32.8507 9.12459   3
  -3  -6   4 29.5686 8.51164   6
   2   6  -4 67.1302 9.65443   6
   2   6  -4 62.8050 9.30167   3
  -2  -6   4 50.3103 9.13888   4
  -2  -6   4 64.7026 8.68307   6
   1   6  -4 93.0731 10.9043   3
   1   6  -4 107.462 8.47345   1
   1   6  -4 119.874 10.6164   6
  -1  -6   4 121.147 10.2393   6
  -1  -6   4 102.459 10.6482   4
   0   6  -4 59.2949 8.66135   6
   0  -6   4 61.8689 7.75533   4
   0  -6   4 61.1608 7.50914   6
  -1   6  -4 -0.7300 5.46302   6
   1  -6   4 19.8424 5.29858   4
   1  -6   4 -1.3081 5.03139   6
  -2   6  -4 35.4816 6.58979   6
   2  -6   4 33.5391 5.77186   6
  -3   6  -4 9.46107 5.22910   6
  -4   6  -4 0.91985 5.55132   6
   5   5  -4 55.5317 10.5694   6
   5   5  -4 42.6373 9.78266   3
  -5  -5   4 54.2582 10.0682   6
   4   5  -4 36.7668 8.76294   3
   4   5  -4 45.0366 9.65289   6
  -4  -5   4 33.1172 8.51359   6
   3   5  -4 26.5364 8.28328   3
   3   5  -4 20.9321 7.54724   6
  -3  -5   4 24.0424 7.40352   4
  -3  -5   4 21.6795 6.67736   6
   2   5  -4 66.4569 9.30920   6
   2   5  -4 72.9366 7.96295   1
   2   5  -4 82.7648 9.28333   3
  -2  -5   4 74.7948 9.07642   4
  -2  -5   4 74.0089 8.92480   6
   1   5  -4 48.9905 7.34576   3
   1   5  -4 48.6295 7.71959   6
  -1  -5   4 59.1157 7.32945   6
  -1  -5   4 46.3593 7.18315   4
   0   5  -4 7.65206 4.98840   6
   0  -5   4 8.95545 4.44254   6
   0  -5   4 16.5729 5.55428   4
  -1   5  -4 152.389 11.5774   6
   1  -5   4 146.936 10.9810   6
   1  -5   4 163.806 11.8185   4
  -2   5  -4 12.2085 4.68622   6
  -3   5  -4 19.0606 5.66405   6
  -4   5  -4 47.0059 7.01281   6
  -5   5  -4 11.0817 5.65602   6
   5   4  -4 14.0999 8.24928   6
   5   4  -4 9.76406 7.77706   3
  -5  -4   4 -1.8964 6.51447   6
   4   4  -4 -6.4502 7.72987   6
   4   4  -4 0.89819 7.10869   3
  -4  -4   4 3.92454 7.67451   4
  -4  -4   4 -13.512 5.81012   6
   3   4  -4 148.958 12.3089   6
   3   4  -4 163.225 12.5186   3
  -3  -4   4 116.804 12.7303   4
  -3  -4   4 121.430 11.2634   6
   2   4  -4 32.5566 7.66429   6
   2   4  -4 32.2413 6.52422   3
  -2  -4   4 30.9978 6.77461   4
  -2  -4   4 30.4797 6.69918   6
   1   4  -4 59.3058 7.42400   3
   1   4  -4 69.6925 7.94137   6
  -1  -4   4 66.9344 7.37985   4
  -1  -4   4 69.7574 7.28534   6
   0   4  -4 126.379 9.93640   6
   0  -4   4 126.499 9.45725   6
   0  -4   4 128.050 10.1876   4
  -1   4  -4 46.2839 5.98326   6
   1  -4   4 40.3966 8.01610   2
   1  -4   4 50.3021 5.52763   6
   1  -4   4 57.3337 5.43878   4
  -2   4  -4 84.2547 6.89948   6
  -2   4  -4 66.9738 6.84847   6
   2  -4   4 76.2743 6.71183   4
   2  -4   4 75.6941 6.27689   6
   2  -4   4 87.1573 9.63889   2
  -3   4  -4 36.4568 5.26226   6
   3  -4   4 20.8217 4.58762   4
  -4   4  -4 36.6585 5.79059   6
  -5   4  -4 110.520 8.75742   6
   5   3  -4 72.8307 10.2159   6
   5   3  -4 64.3589 10.1443   3
  -5  -3   4 69.8647 9.19385   6
   4   3  -4 -5.9536 7.24830   6
   4   3  -4 2.12789 6.62637   3
  -4  -3   4 -2.2406 6.77111   4
  -4  -3   4 -11.655 6.00445   6
   3   3  -4 242.871 18.2779   3
   3   3  -4 257.062 17.1572   6
  -3  -3   4 231.331 18.3275   4
  -3  -3   4 244.112 16.7214   6
   1   3  -4 83.3070 7.91839   3
   1   3  -4 82.7762 8.14702   6
  -1  -3   4 91.9605 7.60149   6
  -1  -3   4 82.4874 8.00726   4
  -1  -3   4 84.4438 8.78834   2
   0   3  -4 572.462 33.4781   6
   0  -3   4 564.102 33.2379   6
   0  -3   4 504.046 36.7471   4
   0  -3   4 518.404 39.6788   2
  -1   3  -4 348.293 20.8371   6
  -1   3  -4 302.431 20.6105   6
   1  -3   4 337.236 20.5604   6
   1  -3   4 335.986 25.4187   2
  -2   3  -4 25.5584 4.27173   6
  -2   3  -4 19.6215 4.07650   6
   2  -3   4 15.5641 3.42783   6
   2  -3   4 18.5328 6.77129   2
  -3   3  -4 53.9689 5.44091   6
  -3   3  -4 58.6978 5.57469   6
   3  -3   4 60.7856 6.14035   4
   3  -3   4 74.5428 8.74031   2
  -4   3  -4 5.39683 3.98796   6
   4  -3   4 -0.1802 4.49375   4
   4  -3   4 -0.4919 6.05892   2
  -5   3  -4 178.770 11.5911   6
   5  -3   4 147.999 14.7549   2
   5   2  -4 12.1865 7.63055   6
   5   2  -4 9.80651 6.83973   3
  -5  -2   4 15.0655 7.27727   6
   4   2  -4 82.2776 9.72871   3
   4   2  -4 98.1402 10.0610   6
  -4  -2   4 95.3339 9.77794   6
  -4  -2   4 83.6387 10.2634   4
   3   2  -4 81.3668 9.10533   6
   3   2  -4 94.5810 8.72758   3
  -3  -2   4 99.4119 9.15499   4
  -3  -2   4 80.4911 8.90872   6
   2   2  -4 154.926 11.3612   3
   2   2  -4 142.644 11.0929   6
  -2  -2   4 134.157 11.3130   4
  -2  -2   4 133.428 10.6636   6
   1   2  -4 979.105 66.4617   3
   1   2  -4 874.684 65.3217   1
   1   2  -4 1001.71 60.0046   6
  -1  -2   4 938.634 66.4385   4
  -1  -2   4 1093.66 59.9214   6
  -1  -2   4 1017.35 71.0511   2
   0   2  -4 59.3442 6.20963   6
   0  -2   4 61.0785 5.74707   6
   0  -2   4 51.3091 7.12069   2
  -1   2  -4 104.836 7.80350   6
  -1   2  -4 119.043 8.27908   6
   1  -2   4 111.781 10.8168   2
  -2   2  -4 73.7602 5.54871   6
  -2   2  -4 68.9017 5.38146   6
   2  -2   4 68.8424 6.28112   4
   2  -2   4 77.7806 8.42437   2
  -3   2  -4 252.662 16.1033   6
   3  -2   4 267.054 20.2406   2
   3  -2   4 255.738 18.1314   4
  -4   2  -4 238.652 15.2667   6
   4  -2   4 259.885 17.3368   4
   4  -2   4 225.689 19.6445   2
  -5   2  -4 73.9901 9.35074   5
  -5   2  -4 68.9438 6.30363   6
   5  -2   4 60.6642 9.55232   2
  -6   2  -4 186.872 17.0398   5
   6   1  -4 64.5436 10.6006   3
  -6  -1   4 73.8520 10.0836   6
   5   1  -4 25.6542 8.14224   3
   5   1  -4 33.2520 8.72713   6
  -5  -1   4 31.1279 7.98679   6
   4   1  -4 711.949 41.5488   6
   4   1  -4 597.388 45.6593   3
  -4  -1   4 614.519 45.6328   4
  -4  -1   4 726.467 41.4743   6
   3   1  -4 150.721 11.5703   6
   3   1  -4 146.050 11.8151   3
  -3  -1   4 152.638 11.4246   6
  -3  -1   4 133.247 12.0091   4
   2   1  -4 497.360 31.3820   6
   2   1  -4 490.272 34.3852   3
  -2  -1   4 492.203 34.4612   4
  -2  -1   4 532.449 36.4815   2
  -2  -1   4 491.376 31.2077   6
   1   1  -4 204.371 13.4885   3
   1   1  -4 161.964 12.8062   6
  -1  -1   4 187.613 13.5976   4
  -1  -1   4 172.394 12.5671   6
  -1  -1   4 190.753 14.6710   2
   0   1  -4 98.2180 7.42769   3
   0   1  -4 80.0159 7.54580   6
   0   1  -4 92.7135 7.46324   6
   0  -1   4 92.2969 7.09371   6
   0  -1   4 94.6232 9.01422   2
   0  -1   4 96.9465 7.73702   4
  -1   1  -4 325.249 20.3415   6
  -1   1  -4 319.796 20.4201   6
   1  -1   4 334.164 22.5889   4
   1  -1   4 334.016 24.8274   2
   1  -1   4 330.831 20.1611   6
   1  -1   4 328.942 22.0312   1
  -2   1  -4 26.6289 3.05713   6
  -2   1  -4 29.6812 3.19685   6
   2  -1   4 23.9382 4.09342   4
   2  -1   4 21.6870 5.93628   2
  -3   1  -4 168.545 13.3026   5
   3  -1   4 147.910 13.3410   2
  -4   1  -4 198.488 16.1333   5
   4  -1   4 183.960 16.0909   2
  -5   1  -4 12.5719 5.38651   5
   5  -1   4 2.75575 6.05477   2
  -6   1  -4 48.1757 9.70054   5
   6   0  -4 70.2816 11.1229   3
  -6   0   4 93.2287 12.5097   5
  -6   0   4 80.7201 10.7263   6
   5   0  -4 38.7906 9.25262   6
   5   0  -4 40.9439 8.79015   3
  -5   0   4 40.5025 8.92208   6
  -5   0   4 36.5187 8.91005   4
   4   0  -4 20.5099 6.67056   3
   4   0  -4 4.63625 6.83573   6
  -4   0   4 17.3476 6.44334   6
  -4   0   4 37.7285 7.13438   4
   3   0  -4 220.445 17.6950   3
   3   0  -4 241.197 16.4085   6
  -3   0   4 256.172 16.6007   6
  -3   0   4 245.690 17.6175   4
   2   0  -4 15.5931 4.06554   3
   2   0  -4 1.69266 4.72114   6
  -2   0   4 -0.5295 4.58261   6
   1   0  -4 52.4991 5.19289   3
   1   0  -4 47.7690 4.55510   1
   1   0  -4 31.8209 5.99137   6
  -1   0   4 44.7481 4.66330   1
  -1   0   4 42.5613 5.13300   4
  -1   0   4 31.7819 5.80261   2
  -1   0   4 33.3847 5.49941   6
   0   0  -4 752.828 47.8712   3
   0   0  -4 722.159 43.2420   6
   0   0  -4 709.135 47.1418   1
   0   0  -4 700.283 43.3173   6
   0   0   4 708.025 47.1363   1
   0   0   4 674.884 47.9387   4
   0   0   4 686.053 43.2081   6
   0   0   4 726.658 47.8309   3
  -1   0  -4 20.5180 3.13987   6
  -1   0  -4 16.0413 3.45290   6
   1   0   4 17.2555 2.70089   6
   1   0   4 13.7825 2.77333   6
  -2   0  -4 318.296 24.0896   5
   2   0   4 319.882 21.9960   4
  -3   0  -4 606.289 44.9856   5
  -4   0  -4 239.006 18.7876   5
   4   0   4 224.306 18.7616   2
  -5   0  -4 173.428 15.7628   5
   5   0   4 182.741 15.3469   2
  -6   0  -4 187.183 17.0327   5
  -6   1   4 9.89572 5.39354   5
  -6   1   4 7.27072 6.95961   6
   5  -1  -4 376.145 25.1745   6
  -5   1   4 354.410 27.5779   4
  -5   1   4 403.356 25.1806   6
   4  -1  -4 272.503 18.0588   6
  -4   1   4 242.021 17.6907   6
  -4   1   4 257.486 19.1911   4
   3  -1  -4 145.224 11.7459   6
  -3   1   4 140.150 11.5589   6
  -3   1   4 167.503 12.0634   4
   2  -1  -4 405.215 25.3002   6
   2  -1  -4 378.843 27.6365   3
  -2   1   4 413.043 27.6583   4
  -2   1   4 407.867 25.4367   6
   1  -1  -4 147.087 11.4278   6
   1  -1  -4 183.445 12.0388   3
  -1   1   4 175.141 11.8827   1
  -1   1   4 144.805 11.7743   6
  -1   1   4 171.692 12.2484   4
   0  -1  -4 149.189 10.3662   1
   0  -1  -4 156.319 10.4293   3
   0   1   4 139.947 10.9504   4
   0   1   4 150.733 10.5240   3
  -1  -1  -4 98.2476 6.80326   6
  -1  -1  -4 98.5343 7.10738   6
   1   1   4 97.0616 6.68605   6
   1   1   4 101.094 6.42799   6
  -2  -1  -4 372.114 28.1320   5
   2   1   4 378.738 25.4958   1
  -3  -1  -4 1474.65 107.893   5
  -4  -1  -4 477.398 36.1642   5
   5   1   4 51.6951 8.20969   2
  -6  -1  -4 418.622 32.9443   5
  -6   2   4 55.7479 9.57678   6
   5  -2  -4 281.259 20.6193   6
  -5   2   4 341.654 23.9650   5
  -5   2   4 298.359 22.5213   4
  -5   2   4 277.455 20.3769   6
   4  -2  -4 361.985 24.0077   6
  -4   2   4 366.800 26.1193   4
  -4   2   4 371.900 24.1828   6
   3  -2  -4 32.0198 6.19823   6
  -3   2   4 41.0152 6.12854   4
  -3   2   4 27.6533 5.93747   6
   2  -2  -4 546.652 32.7888   6
  -2   2   4 546.297 36.0540   4
  -2   2   4 496.872 32.8293   6
  -2   2   4 524.612 35.7383   1
   1  -2  -4 1206.39 71.4786   6
   1  -2  -4 1206.88 79.2395   3
  -1   2   4 1129.37 78.3230   1
  -1   2   4 1153.07 71.5202   6
  -1   2   4 1198.48 79.2640   4
   0  -2  -4 75.8686 6.38407   6
   0  -2  -4 64.4124 6.19591   6
   0   2   4 91.8120 6.71742   4
  -1  -2  -4 76.7731 6.45639   5
  -1  -2  -4 60.2267 5.17996   6
  -1  -2  -4 57.5609 4.85874   6
   1   2   4 64.5447 4.77098   6
   1   2   4 57.2349 5.14864   6
  -2  -2  -4 334.015 25.7341   5
  -2  -2  -4 336.909 20.7764   6
  -2  -2  -4 329.901 20.7612   6
   2   2   4 362.470 23.3809   1
  -3  -2  -4 311.994 24.0551   5
  -4  -2  -4 323.425 21.4831   6
  -4  -2  -4 366.675 21.6017   6
  -4  -2  -4 355.417 27.0971   5
  -5  -2  -4 40.8998 9.30626   5
  -5  -2  -4 41.1556 5.03996   6
  -6  -2  -4 57.2748 6.71502   6
  -6   3   4 54.4369 9.08404   6
  -5   3   4 2.22835 4.25455   5
  -5   3   4 -3.0542 6.34661   6
   4  -3  -4 33.2474 6.98741   6
  -4   3   4 27.0251 7.67430   6
  -4   3   4 20.3853 6.72276   4
   3  -3  -4 95.0116 8.07537   6
  -3   3   4 80.3342 8.43611   4
  -3   3   4 100.534 8.60516   6
   2  -3  -4 50.6800 5.89778   6
  -2   3   4 53.1772 6.75992   6
  -2   3   4 57.8663 6.21441   1
   1  -3  -4 77.8089 7.20554   6
  -1   3   4 99.5558 7.82534   5
  -1   3   4 83.6314 7.64781   6
  -1   3   4 97.4521 7.58014   1
  -1   3   4 99.2810 7.40985   4
   0  -3  -4 41.0393 4.70642   6
   0  -3  -4 45.1062 4.80517   5
   0  -3  -4 45.2910 4.71860   6
   0   3   4 38.8807 4.75398   6
   0   3   4 48.3228 4.81435   1
   0   3   4 51.8065 5.24819   4
  -1  -3  -4 554.305 41.0109   5
  -1  -3  -4 565.501 33.9056   6
  -1  -3  -4 543.049 33.8292   6
   1   3   4 598.192 37.4038   1
   1   3   4 520.730 33.8867   6
  -2  -3  -4 326.568 24.6912   5
  -2  -3  -4 341.399 20.0168   6
  -2  -3  -4 331.917 19.9699   6
   2   3   4 291.963 19.8624   6
   2   3   4 330.862 22.3738   1
  -3  -3  -4 -1.7704 4.13310   5
  -3  -3  -4 5.62593 2.65049   6
   3   3   4 0.88334 4.50299   1
  -4  -3  -4 386.577 23.8386   6
  -4  -3  -4 389.975 23.9685   6
  -4  -3  -4 377.356 29.9321   5
  -5  -3  -4 207.404 14.8996   6
  -5  -3  -4 251.480 19.8854   5
  -6  -3  -4 9.57285 5.07515   6
  -6  -3  -4 -4.7975 6.62763   5
   5  -4  -4 329.642 22.6239   6
  -5   4   4 345.805 22.7677   6
   4  -4  -4 40.2474 6.89907   6
  -4   4   4 47.5110 6.94363   4
  -4   4   4 37.1510 5.98292   5
  -4   4   4 45.5822 7.60453   6
   3  -4  -4 317.947 20.2701   6
  -3   4   4 327.517 22.0115   4
  -3   4   4 311.383 20.4428   6
  -3   4   4 296.718 22.2379   1
   2  -4  -4 1340.68 82.4501   6
  -2   4   4 1396.29 82.5810   6
  -2   4   4 1415.05 91.4314   4
  -2   4   4 1288.13 90.5912   1
   1  -4  -4 320.477 20.3451   6
  -1   4   4 321.128 24.1107   5
  -1   4   4 314.846 22.4084   1
  -1   4   4 350.191 22.3561   4
  -1   4   4 315.522 20.5213   6
   0  -4  -4 19.2167 4.13265   6
   0  -4  -4 17.3873 3.89335   5
   0   4   4 23.2357 4.62500   6
   0   4   4 22.4918 4.43500   4
  -1  -4  -4 41.4201 4.71922   6
  -1  -4  -4 39.1198 5.69362   5
  -1  -4  -4 43.3369 4.48103   6
   1   4   4 38.3278 4.89715   6
   1   4   4 39.5657 5.32318   1
  -2  -4  -4 385.855 22.8024   6
  -2  -4  -4 385.506 28.1088   5
  -2  -4  -4 382.342 22.8598   6
   2   4   4 371.638 25.4583   1
   2   4   4 349.356 25.2601   3
   2   4   4 339.714 22.7540   6
  -3  -4  -4 135.171 8.43966   6
  -3  -4  -4 111.195 8.37674   6
  -3  -4  -4 117.035 11.8915   5
   3   4   4 109.004 8.05501   6
   3   4   4 117.334 10.3083   1
  -4  -4  -4 179.158 16.4049   5
   4   4   4 182.594 14.7767   1
  -5  -4  -4 292.492 18.9937   6
  -5  -4  -4 310.938 24.3539   5
   5   4   4 278.473 22.0722   1
  -6  -4  -4 50.9531 12.5329   5
  -6  -4  -4 77.1823 7.74774   6
  -5   5   4 280.599 19.5252   6
   4  -5  -4 53.0504 7.36116   6
  -4   5   4 58.1824 8.09891   6
  -4   5   4 40.0455 6.72801   4
   3  -5  -4 62.2213 6.40732   6
  -3   5   4 78.9481 7.80560   6
  -3   5   4 45.0382 6.73254   4
  -3   5   4 65.7875 7.77917   1
   2  -5  -4 499.515 29.7238   6
  -2   5   4 498.409 29.8593   6
  -2   5   4 422.682 32.5049   1
  -2   5   4 490.219 32.5037   4
   1  -5  -4 40.9859 5.23475   6
  -1   5   4 40.5892 5.86622   6
  -1   5   4 45.8295 4.89319   5
  -1   5   4 42.2704 5.60592   1
  -1   5   4 46.1217 4.98924   4
   0  -5  -4 -0.3448 1.51568   3
   0  -5  -4 0.11565 3.10506   6
   0  -5  -4 2.47781 2.41138   5
   0   5   4 2.44143 3.67761   1
   0   5   4 2.71228 4.15913   6
  -1  -5  -4 112.130 8.53050   6
   1   5   4 127.626 9.61301   1
  -2  -5  -4 4.95864 4.34318   5
  -2  -5  -4 9.08446 3.52305   6
   2   5   4 11.5649 4.02504   6
   2   5   4 8.25656 4.85553   1
   2   5   4 15.7064 3.56159   3
  -3  -5  -4 76.3799 11.0897   5
  -3  -5  -4 101.053 7.75546   6
   3   5   4 92.3216 7.60774   6
   3   5   4 88.7586 9.20495   1
   3   5   4 106.893 8.73128   3
  -4  -5  -4 176.478 17.0586   5
   4   5   4 176.457 14.8873   1
   4   5   4 184.581 14.6722   3
  -5  -5  -4 5.59668 6.67010   5
   5   5   4 9.92393 7.45527   1
   5   5   4 17.5822 7.98121   3
   6   5   4 173.689 16.5860   3
  -5   6   4 7.44395 6.83498   6
   4  -6  -4 130.727 11.0233   6
  -4   6   4 135.190 11.4971   6
   3  -6  -4 281.258 18.7582   6
  -3   6   4 334.905 19.3064   6
  -3   6   4 253.474 20.6411   1
  -3   6   4 277.091 20.2077   4
   2  -6  -4 40.0548 5.85731   6
  -2   6   4 37.1545 4.68280   4
  -2   6   4 41.2816 6.57169   6
  -2   6   4 36.6541 6.10344   1
   1  -6  -4 108.529 8.32474   6
  -1   6   4 108.667 9.04041   6
  -1   6   4 101.623 8.98214   1
  -1   6   4 104.366 8.42107   4
   0  -6  -4 9.87436 2.54382   3
   0  -6  -4 16.1041 4.49415   6
   0   6   4 10.6182 4.33028   6
   0   6   4 6.03764 3.79457   1
  -1  -6  -4 485.359 30.5895   6
  -1  -6  -4 534.666 37.1171   5
   1   6   4 440.846 33.5465   1
   1   6   4 518.306 30.7698   6
  -2  -6  -4 42.0055 5.44474   6
   2   6   4 41.1142 6.06255   6
   2   6   4 42.6981 4.84961   3
   2   6   4 37.0655 6.90376   1
  -3  -6  -4 112.349 8.77141   6
  -3  -6  -4 88.1625 12.7963   5
   3   6   4 108.114 10.4576   1
   3   6   4 111.455 8.81529   6
   3   6   4 108.043 9.29517   3
  -4  -6  -4 259.210 16.8153   6
  -4  -6  -4 278.367 22.1403   5
   4   6   4 235.698 18.8089   3
   4   6   4 229.547 19.2984   1
   5   6   4 16.4633 7.61045   3
   5   6   4 18.6236 8.67953   1
  -5   7   4 16.7345 7.85230   6
   4  -7  -4 28.4592 7.18239   6
  -4   7   4 29.5875 8.54163   6
   3  -7  -4 144.355 11.2817   6
  -3   7   4 120.601 11.9620   1
  -3   7   4 152.205 11.7012   6
   2  -7  -4 36.8226 6.41307   6
  -2   7   4 41.2407 7.12167   6
  -2   7   4 27.8657 6.83325   1
   1  -7  -4 9.84247 5.10133   6
  -1   7   4 9.54029 4.01239   4
  -1   7   4 21.9033 5.66321   1
  -1   7   4 14.4535 5.88563   6
   0  -7  -4 36.9998 5.86387   6
   0   7   4 50.2103 7.20712   6
   0   7   4 54.7493 6.31337   1
  -1  -7  -4 5.16588 4.28984   6
  -1  -7  -4 0.34789 4.57762   5
   1   7   4 13.1040 5.40405   6
   1   7   4 10.6512 4.68163   1
  -2  -7  -4 24.6828 5.87274   6
  -2  -7  -4 12.1362 6.37159   5
   2   7   4 30.0754 6.27981   6
  -3  -7  -4 75.2060 13.0373   5
   3   7   4 102.386 10.9516   1
   3   7   4 101.517 9.05166   3
   3   7   4 108.177 9.11697   6
  -4  -7  -4 2.67321 5.80242   6
  -4  -7  -4 7.55247 7.04758   5
   4   7   4 4.34997 7.38844   1
   4   7   4 3.90588 6.25051   3
  -5  -7  -4 196.672 13.4614   6
  -5  -7  -4 181.273 18.2064   5
   5   7   4 165.262 15.8953   1
   5   7   4 144.179 14.8935   3
   4  -8  -4 40.0012 7.92348   6
  -4   8   4 59.4487 9.35477   6
   3  -8  -4 36.1190 7.67292   6
  -3   8   4 36.4525 8.34480   6
  -3   8   4 36.3358 7.82940   1
   2  -8  -4 56.1455 7.65320   6
  -2   8   4 41.7748 5.02962   4
  -2   8   4 48.3015 7.55674   1
  -2   8   4 66.8127 8.35347   6
  -1   8   4 44.6020 7.97785   1
  -1   8   4 24.8497 7.15198   6
   0  -8  -4 59.0798 7.11344   6
   0   8   4 70.1222 8.05382   1
   0   8   4 58.6418 8.06091   6
  -1  -8  -4 250.120 21.9887   5
  -1  -8  -4 270.467 17.9387   6
   1   8   4 255.391 19.5114   1
   1   8   4 302.795 18.4067   6
  -2  -8  -4 322.014 20.5364   6
   2   8   4 302.412 22.7703   1
  -3  -8  -4 54.0924 7.94042   6
   3   8   4 58.9643 8.44156   6
   3   8   4 69.0561 7.93775   3
   3   8   4 53.2488 9.33864   1
  -4  -8  -4 44.2810 8.26996   6
   4   8   4 28.9974 9.76666   1
   4   8   4 35.3501 7.42487   3
   3  -9  -4 13.0341 6.70111   6
  -3   9   4 16.9482 7.43831   6
   2  -9  -4 14.5479 6.32814   6
  -2   9   4 19.2435 7.74267   6
  -2   9   4 7.16199 5.91133   1
  -1   9   4 36.5792 8.24221   6
  -1   9   4 51.1214 8.12405   1
   0  -9  -4 7.65357 4.26181   5
   0  -9  -4 15.7948 5.30050   6
   0   9   4 24.4197 6.90184   1
   0   9   4 15.0142 6.36964   6
  -1  -9  -4 55.4797 10.1606   5
  -1  -9  -4 66.4231 7.82677   6
   1   9   4 68.1631 8.70223   1
   1   9   4 77.0635 8.87421   6
  -2  -9  -4 34.6655 6.99000   6
   2   9   4 53.0501 8.99178   6
   2   9   4 34.8766 8.34686   1
  -3  -9  -4 18.2478 7.73099   5
  -3  -9  -4 28.8646 7.66143   6
   3   9   4 44.9518 7.54306   3
   3   9   4 23.3379 7.65648   6
   3   9   4 25.5419 8.77239   1
  -4  -9  -4 48.4598 13.1459   5
  -4  -9  -4 64.4502 9.48890   6
   4   9   4 56.3685 11.4102   1
   3 -10  -4 5.27874 7.19507   6
  -3  10   4 11.9158 8.33046   6
  -3  10   4 8.62820 6.96525   1
   2 -10  -4 35.8507 8.51171   6
  -2  10   4 43.6752 9.59809   6
   1 -10  -4 13.7233 5.86699   6
  -1  10   4 19.9473 7.53167   6
  -1  10   4 30.8532 8.30373   1
   0 -10  -4 37.2515 7.53654   6
   0  10   4 42.2921 8.84559   6
   0  10   4 41.9420 8.79011   1
  -1 -10  -4 26.2887 7.24562   6
   1  10   4 18.3438 7.16530   1
   1  10   4 15.8595 8.15228   6
  -2 -10  -4 58.0824 8.40694   6
  -2 -10  -4 49.7902 12.0059   5
   2  10   4 73.9119 10.1294   6
   2  10   4 47.7472 9.82347   1
  -3 -10  -4 14.6076 8.10794   5
   3  10   4 17.3777 9.02381   1
   1 -11  -4 -0.3038 5.81682   6
  -1  11   4 -0.4308 7.48371   6
  -1  11   4 6.64625 7.83577   1
   0 -11  -4 65.8246 8.82525   6
   0  11   4 70.0179 9.94614   1
   0  11   4 62.1483 10.3639   6
  -1 -11  -4 6.24082 6.17755   5
  -1 -11  -4 20.4207 6.90515   6
   1  11   4 33.0490 9.12996   1
   1  11   4 20.9119 8.95600   6
  -2 -11  -4 8.89840 7.57359   5
  -2 -11  -4 9.52543 7.11511   6
   2  11   4 0.26393 9.05317   6
   2  11   4 -7.3343 7.48620   1
   2   8  -5 -1.7479 9.35766   3
   2   8  -5 -5.2385 9.03920   6
  -2  -8   5 -10.493 7.92094   6
   1   8  -5 9.43882 7.38566   6
   0   8  -5 63.6591 9.92944   6
   0  -8   5 74.1911 9.77527   6
  -1   8  -5 7.22198 7.12404   6
  -2   8  -5 32.6651 8.53666   6
   3   7  -5 16.6080 7.76577   3
   3   7  -5 10.6183 8.57255   6
  -3  -7   5 17.9289 8.28711   6
   2   7  -5 1.01114 7.59391   3
   2   7  -5 -1.7798 7.45856   6
  -2  -7   5 1.27572 7.88094   4
  -2  -7   5 -2.5380 7.60023   6
   1   7  -5 96.0065 11.2232   6
  -1  -7   5 103.943 10.4954   6
  -1  -7   5 104.192 11.4447   4
   0   7  -5 57.1349 9.43423   6
   0  -7   5 46.5296 8.71361   6
   0  -7   5 66.7103 8.80748   4
  -1   7  -5 105.819 10.9243   6
   1  -7   5 106.145 10.2873   6
   1  -7   5 126.105 10.6535   4
  -2   7  -5 37.2176 7.43388   6
  -3   7  -5 3.25716 6.21549   6
   4   6  -5 4.59942 7.83077   1
   4   6  -5 -1.1814 8.22887   6
   4   6  -5 -0.4892 7.25462   3
  -4  -6   5 0.03197 7.06676   6
   3   6  -5 35.4193 9.73117   6
   3   6  -5 33.2258 8.65198   1
   3   6  -5 48.0052 9.85357   3
  -3  -6   5 42.2782 9.85228   4
  -3  -6   5 36.4145 9.27139   6
   2   6  -5 5.14700 7.08151   6
   2   6  -5 8.10443 7.36984   3
  -2  -6   5 21.1154 7.26208   6
  -2  -6   5 5.87660 7.24821   4
   1   6  -5 -1.7208 6.91981   3
   1   6  -5 3.21080 6.73864   6
  -1  -6   5 1.19098 6.56871   6
  -1  -6   5 9.89649 6.41359   4
   0   6  -5 24.6028 7.51084   6
   0  -6   5 35.1544 6.95318   4
  -1   6  -5 7.41678 5.76119   6
   1  -6   5 7.16296 5.54291   6
  -2   6  -5 9.84105 5.37970   6
  -3   6  -5 7.58092 5.58321   6
  -4   6  -5 4.17739 6.25053   6
   4   5  -5 26.0138 8.63636   3
   4   5  -5 21.6079 9.07962   6
  -4  -5   5 14.1370 7.83589   6
  -4  -5   5 6.26680 9.06907   4
   3   5  -5 3.00806 6.42974   3
   3   5  -5 8.32394 7.93053   6
  -3  -5   5 0.33179 6.64651   6
  -3  -5   5 2.72563 7.37108   4
   2   5  -5 293.056 22.0935   3
   2   5  -5 312.179 20.5271   6
  -2  -5   5 272.509 21.8294   4
  -2  -5   5 290.307 19.7853   6
   1   5  -5 86.2540 10.1085   3
   1   5  -5 105.332 10.2277   6
  -1  -5   5 101.806 10.1502   4
  -1  -5   5 113.818 9.71890   6
   0   5  -5 60.6232 8.18867   6
   0  -5   5 57.3038 7.48391   4
   0  -5   5 56.2860 7.29570   6
  -1   5  -5 134.800 10.9690   6
   1  -5   5 146.967 11.0255   4
   1  -5   5 121.749 10.2673   6
  -2   5  -5 45.8647 6.70795   6
   2  -5   5 52.0970 5.88385   4
  -3   5  -5 112.743 9.47055   6
  -4   5  -5 4.51197 5.46340   6
   5   4  -5 2.17627 9.07060   6
   5   4  -5 8.00592 8.25761   3
  -5  -4   5 0.69119 7.19741   6
   4   4  -5 59.1908 10.2102   6
   4   4  -5 60.5225 9.27988   3
  -4  -4   5 58.5397 10.3746   4
  -4  -4   5 55.7638 8.89078   6
   3   4  -5 43.0045 7.98042   3
   3   4  -5 48.4877 9.16753   6
  -3  -4   5 31.1190 8.10734   4
  -3  -4   5 49.3358 7.55530   6
   2   4  -5 70.5337 9.45464   3
   2   4  -5 92.4600 9.81145   6
  -2  -4   5 81.0919 8.89438   6
  -2  -4   5 84.1238 9.45228   4
   1   4  -5 137.874 12.0760   3
   1   4  -5 149.220 11.9278   6
  -1  -4   5 146.345 12.1015   4
  -1  -4   5 149.186 11.2296   6
   0   4  -5 22.0710 6.43876   6
   0  -4   5 31.4154 7.42078   2
   0  -4   5 21.9239 5.89259   4
   0  -4   5 36.2580 5.88301   6
  -1   4  -5 182.474 13.2591   6
   1  -4   5 184.988 12.7838   6
   1  -4   5 194.930 14.0938   4
   1  -4   5 193.667 16.5050   2
  -2   4  -5 100.871 7.67724   6
   2  -4   5 73.4956 10.9875   2
   2  -4   5 74.2460 6.98741   6
   2  -4   5 96.4960 7.75891   4
  -3   4  -5 39.3156 6.03396   6
  -4   4  -5 31.2640 5.80321   6
   4  -4   5 55.0763 9.13302   2
  -5   4  -5 51.9856 6.34546   6
   5   3  -5 45.2605 9.57757   3
   5   3  -5 52.0493 10.5112   6
  -5  -3   5 33.1650 8.96117   6
   4   3  -5 -1.5381 7.35988   6
   4   3  -5 3.28060 6.48121   3
  -4  -3   5 -3.9782 7.06806   4
  -4  -3   5 -0.4292 6.38457   6
   3   3  -5 589.845 33.8117   6
   3   3  -5 480.068 36.7267   3
  -3  -3   5 511.453 36.9019   4
  -3  -3   5 526.623 33.2980   6
   1   3  -5 23.3547 6.30045   6
  -1  -3   5 17.2076 6.28836   2
  -1  -3   5 19.9098 5.63784   6
  -1  -3   5 18.6117 5.94783   4
   0   3  -5 93.2106 8.39139   6
   0  -3   5 91.1698 8.26739   4
   0  -3   5 83.9848 9.92800   2
   0  -3   5 90.3997 7.72405   6
  -1   3  -5 110.515 8.58135   6
   1  -3   5 99.0843 10.8556   2
   1  -3   5 113.276 8.99038   4
  -2   3  -5 34.8187 4.48211   6
  -2   3  -5 44.2818 5.10467   6
   2  -3   5 28.9335 5.08347   4
   2  -3   5 38.6954 4.05091   1
   2  -3   5 32.1447 4.06765   6
   2  -3   5 36.2103 7.87956   2
  -3   3  -5 6.37964 3.64583   6
   3  -3   5 -5.3014 4.50706   4
   3  -3   5 8.00611 6.34369   2
  -4   3  -5 168.536 12.1222   6
   4  -3   5 197.857 16.2761   2
   4  -3   5 183.448 13.8367   4
  -5   3  -5 143.089 10.1454   6
   5  -3   5 138.683 14.2582   2
   5   2  -5 42.2408 8.57641   3
   5   2  -5 35.8331 9.35812   6
  -5  -2   5 32.0256 10.2257   4
  -5  -2   5 44.2477 9.33572   6
   4   2  -5 51.8139 8.98861   6
   4   2  -5 46.0614 8.16275   3
  -4  -2   5 45.3652 8.62264   6
  -4  -2   5 35.7850 8.57476   4
   3   2  -5 139.066 11.6332   3
   3   2  -5 142.627 12.0850   6
  -3  -2   5 139.696 11.6780   6
  -3  -2   5 129.605 12.0725   4
   2   2  -5 869.745 68.3711   3
   2   2  -5 1076.35 61.9397   6
  -2  -2   5 1083.03 61.8303   6
  -2  -2   5 947.608 68.4825   4
  -2  -2   5 1076.35 73.0109   2
   1   2  -5 10.1820 5.10573   6
   1   2  -5 5.41419 2.76273   1
   1   2  -5 5.52748 4.16031   3
  -1  -2   5 3.41407 3.91189   4
  -1  -2   5 2.34130 4.05814   6
  -1  -2   5 -0.1381 4.70071   2
   0   2  -5 150.935 11.4094   3
   0   2  -5 138.873 10.9301   6
   0  -2   5 146.178 12.8272   2
   0  -2   5 159.028 11.5497   4
   0  -2   5 152.260 10.6461   6
  -1   2  -5 1098.79 65.1054   6
  -1   2  -5 1051.18 65.0438   6
   1  -2   5 1063.47 72.2554   4
   1  -2   5 1007.85 64.8784   6
   1  -2   5 1140.86 77.7791   2
  -2   2  -5 113.082 7.49384   6
  -2   2  -5 98.9587 7.26610   6
   2  -2   5 105.149 8.35520   4
   2  -2   5 84.9129 10.5895   2
  -3   2  -5 33.3686 4.17216   6
  -3   2  -5 40.6341 4.33035   6
   3  -2   5 37.9524 5.53716   4
   3  -2   5 42.0008 7.72775   2
   4  -2   5 -2.5561 5.91454   2
   4  -2   5 2.37081 4.97653   4
   5  -2   5 131.418 11.1958   4
   5  -2   5 125.519 13.0150   2
   5   1  -5 41.6886 9.57889   6
   5   1  -5 31.2269 8.22745   3
  -5  -1   5 27.3288 9.37930   4
  -5  -1   5 42.3416 8.44510   6
   4   1  -5 76.1365 9.56520   3
   4   1  -5 109.119 10.6276   6
  -4  -1   5 91.4009 9.67845   6
  -4  -1   5 83.4145 10.1251   4
   3   1  -5 47.7893 8.25663   6
   3   1  -5 40.7220 6.97675   3
  -3  -1   5 56.9552 7.50928   6
  -3  -1   5 54.0943 7.51751   4
   2   1  -5 836.345 62.7875   3
   2   1  -5 957.547 56.9678   6
  -2  -1   5 968.135 66.9942   2
  -2  -1   5 873.515 62.8604   4
  -2  -1   5 1002.56 56.8356   6
   1   1  -5 87.4454 8.95551   6
   1   1  -5 100.553 8.08317   1
   1   1  -5 110.156 8.52067   3
  -1  -1   5 99.7929 9.70315   2
  -1  -1   5 119.305 8.90585   4
  -1  -1   5 102.846 8.84959   6
   0   1  -5 70.5601 6.83731   3
   0   1  -5 78.3284 7.36787   6
   0  -1   5 74.8491 8.57493   2
   0  -1   5 92.5712 6.78877   6
  -1   1  -5 102.515 8.40596   6
  -1   1  -5 121.058 8.41975   6
   1  -1   5 134.867 9.12682   4
   1  -1   5 114.321 7.90950   6
   1  -1   5 106.980 8.18798   1
   1  -1   5 118.682 10.9994   2
  -2   1  -5 0.41770 2.76752   6
  -2   1  -5 0.71651 2.67174   6
   2  -1   5 0.03655 3.52654   4
   2  -1   5 0.80669 4.87879   2
   3  -1   5 100.664 10.3952   2
   3  -1   5 108.215 8.69215   4
  -4   1  -5 212.763 17.5583   5
   4  -1   5 224.948 15.6301   4
   4  -1   5 197.836 17.9756   2
  -5   1  -5 3.90444 5.66294   5
   5  -1   5 -5.9632 6.97391   2
  -6   1  -5 83.6285 11.6386   5
   5   0  -5 15.7295 8.12038   6
   5   0  -5 5.21257 6.50078   3
  -5   0   5 12.3204 7.18665   6
  -5   0   5 17.9356 7.43468   4
   4   0  -5 182.854 15.9900   3
   4   0  -5 224.896 15.7637   6
  -4   0   5 205.633 16.1442   4
  -4   0   5 208.299 15.3158   6
   3   0  -5 752.704 56.2510   3
   3   0  -5 882.027 51.1490   6
  -3   0   5 909.338 51.1508   6
  -3   0   5 790.126 56.3440   4
  -3   0   5 804.759 59.5661   2
   2   0  -5 127.405 10.4661   6
   2   0  -5 139.924 10.2805   3
  -2   0   5 125.231 10.1839   6
  -2   0   5 124.403 10.7180   2
  -2   0   5 127.390 10.2897   4
   1   0  -5 1012.47 66.8235   3
   1   0  -5 1000.58 60.4514   6
  -1   0   5 1001.43 71.5371   2
  -1   0   5 1010.96 60.3878   6
  -1   0   5 952.317 65.9183   1
  -1   0   5 965.415 66.9549   4
   0   0  -5 1665.25 98.8665   6
   0   0  -5 1527.33 108.230   1
   0   0  -5 1728.66 98.8559   6
   0   0  -5 1522.02 109.673   3
   0   0   5 1651.67 108.248   1
   0   0   5 1748.34 98.7939   6
   0   0   5 1594.62 109.756   4
  -1   0  -5 29.1752 4.09146   6
  -1   0  -5 26.3662 4.66104   6
   1   0   5 48.2984 4.90661   4
   1   0   5 41.2013 4.02143   1
   1   0   5 37.7548 3.87186   6
   2   0   5 9.95893 3.61967   4
  -3   0  -5 22.1706 5.80863   5
   3   0   5 22.8304 4.54676   4
  -4   0  -5 987.040 75.3259   5
   4   0   5 1056.34 74.3678   2
  -5   0  -5 12.2025 5.53792   5
   5   0   5 -9.4628 6.60673   2
  -6   0  -5 179.668 16.9890   5
   5  -1  -5 83.9852 10.0745   6
   5  -1  -5 60.6148 9.56075   3
  -5   1   5 73.4307 10.1201   4
  -5   1   5 89.0406 10.0058   6
   4  -1  -5 194.242 17.1936   3
   4  -1  -5 230.519 16.2774   6
  -4   1   5 226.203 17.0270   4
  -4   1   5 237.171 16.4774   6
   3  -1  -5 350.617 22.9183   6
   3  -1  -5 357.438 24.7431   3
  -3   1   5 351.853 24.7774   4
  -3   1   5 313.208 25.5565   2
  -3   1   5 381.853 22.9441   6
   2  -1  -5 83.7100 7.34374   3
   2  -1  -5 57.7892 7.61362   6
  -2   1   5 83.1929 7.39184   4
   1  -1  -5 37.4680 5.75198   6
  -1   1   5 26.9090 5.42486   6
   0  -1  -5 1542.38 104.808   3
   0  -1  -5 1517.73 94.5142   6
   0  -1  -5 1617.02 94.5517   6
   0   1   5 1560.76 103.564   1
   0   1   5 1632.29 104.829   3
   0   1   5 1630.11 94.4977   6
   0   1   5 1433.39 104.925   4
  -1  -1  -5 39.4849 4.59574   6
  -1  -1  -5 44.7104 4.71859   6
   1   1   5 39.1477 4.28069   6
  -2  -1  -5 17.2913 4.76183   5
   2   1   5 13.7556 4.38827   4
   2   1   5 19.9498 4.05307   1
  -3  -1  -5 27.3575 5.84721   5
  -4  -1  -5 127.757 12.1371   5
  -5  -1  -5 240.676 21.0830   5
   5   1   5 269.279 20.7331   2
  -6  -1  -5 44.6036 9.75344   5
   5  -2  -5 96.5410 10.2682   6
  -5   2   5 84.1940 9.52653   6
  -5   2   5 84.6609 10.6329   4
   4  -2  -5 165.251 13.4313   6
  -4   2   5 177.616 13.8102   4
  -4   2   5 146.495 13.1867   6
  -3   2   5 2.34681 4.79700   4
   2  -2  -5 336.374 20.9885   6
   2  -2  -5 313.036 22.6110   3
  -2   2   5 335.579 22.5122   1
  -2   2   5 317.688 21.0931   6
  -2   2   5 322.614 22.7035   4
   1  -2  -5 502.074 32.8089   6
   1  -2  -5 580.790 36.0403   3
  -1   2   5 489.247 32.9057   6
  -1   2   5 546.371 36.1354   4
   0  -2  -5 15.8106 2.25727   3
  -1  -2  -5 647.034 38.9865   6
  -1  -2  -5 579.814 38.8801   6
  -1  -2  -5 585.427 47.0401   5
   1   2   5 615.908 43.4214   4
   1   2   5 642.773 38.9406   6
   1   2   5 694.461 42.8380   1
   1   2   5 712.464 43.0795   3
  -2  -2  -5 136.943 9.13838   6
  -2  -2  -5 130.527 9.16724   6
  -2  -2  -5 152.496 11.9919   5
   2   2   5 157.394 10.7225   1
  -3  -2  -5 297.653 22.4652   5
   3   2   5 279.683 20.3409   1
  -4  -2  -5 305.050 24.1520   5
  -5  -2  -5 387.727 30.4174   5
  -6  -2  -5 201.507 18.5592   5
   5  -3  -5 149.188 12.8803   6
  -5   3   5 155.165 13.1649   6
  -5   3   5 153.031 13.6259   4
   4  -3  -5 230.155 16.4110   6
  -4   3   5 238.480 17.6377   4
  -4   3   5 229.740 16.7354   6
   3  -3  -5 34.0596 6.12986   6
  -3   3   5 28.9505 6.82866   6
   2  -3  -5 -0.9641 4.43537   6
  -2   3   5 7.44047 4.18410   1
  -2   3   5 -0.5172 4.80226   6
  -2   3   5 1.70848 3.95732   4
   1  -3  -5 1662.27 123.432   3
   1  -3  -5 1911.01 111.190   6
  -1   3   5 1856.40 123.451   4
  -1   3   5 1748.10 122.043   1
  -1   3   5 2018.56 111.304   6
   0  -3  -5 30.8476 4.46063   6
   0   3   5 39.0939 4.93301   4
   0   3   5 28.9430 5.01765   6
  -1  -3  -5 36.2917 4.66034   6
  -1  -3  -5 47.7987 5.48755   5
  -1  -3  -5 36.1320 4.22082   6
   1   3   5 49.5296 5.47888   4
   1   3   5 34.3005 4.59852   6
  -2  -3  -5 48.5900 4.18091   6
  -2  -3  -5 45.5559 6.46672   5
  -2  -3  -5 48.6349 4.38525   6
   2   3   5 51.8287 5.89623   1
   2   3   5 47.0285 4.10631   6
  -3  -3  -5 13.4858 3.33143   6
  -3  -3  -5 5.53324 4.19038   5
  -3  -3  -5 10.5203 3.08777   6
   3   3   5 8.27474 4.99298   1
  -4  -3  -5 49.8867 5.15050   6
  -4  -3  -5 55.0095 9.16566   5
   4   3   5 60.5397 7.83562   1
  -5  -3  -5 2.53018 5.87755   5
  -6  -3  -5 5.60118 6.77852   5
   5  -4  -5 33.3171 8.03526   6
  -5   4   5 49.6021 8.99641   6
  -5   4   5 46.1699 8.35462   4
   4  -4  -5 164.921 12.4086   6
  -4   4   5 155.168 13.4317   4
  -4   4   5 170.081 13.0046   6
   3  -4  -5 26.2282 6.10539   6
  -3   4   5 28.5898 6.53191   6
  -3   4   5 31.0597 5.97411   4
  -3   4   5 22.3406 6.54355   1
   2  -4  -5 32.6231 5.09105   6
  -2   4   5 46.4576 5.91479   1
  -2   4   5 39.3977 6.41459   6
  -2   4   5 46.1631 5.38750   4
   1  -4  -5 220.050 14.8611   6
  -1   4   5 219.336 15.1989   6
  -1   4   5 246.921 16.2423   4
  -1   4   5 228.386 16.2320   1
   0  -4  -5 126.329 9.72679   6
   0   4   5 150.421 10.6870   1
   0   4   5 130.730 9.94358   6
   0   4   5 161.930 10.9453   4
  -1  -4  -5 20.0577 3.86304   6
  -1  -4  -5 17.5108 3.55902   6
  -1  -4  -5 15.3577 4.35878   5
   1   4   5 17.9976 4.82355   1
   1   4   5 13.7149 4.06790   6
  -2  -4  -5 186.295 15.0414   5
  -2  -4  -5 179.847 11.9054   6
  -2  -4  -5 192.820 11.8816   6
   2   4   5 183.389 13.6344   1
   2   4   5 175.707 11.7406   6
  -3  -4  -5 104.224 7.05750   6
  -3  -4  -5 91.0411 10.1930   5
  -3  -4  -5 89.9092 7.18288   6
   3   4   5 87.4930 9.09674   1
  -4  -4  -5 56.4063 5.84504   6
   4   4   5 54.1639 8.74954   1
  -5  -4  -5 99.2008 12.1004   5
   5   4   5 80.3296 10.9954   1
  -6  -4  -5 6.35976 7.27587   5
   6   4   5 40.2124 9.80669   1
   5  -5  -5 17.2998 6.53600   6
  -5   5   5 34.4157 8.56628   6
   4  -5  -5 115.604 10.0645   6
  -4   5   5 101.465 10.5851   4
  -4   5   5 133.155 10.8344   6
   3  -5  -5 16.9059 5.23882   6
  -3   5   5 16.6843 4.66005   4
  -3   5   5 21.7972 6.73215   6
  -3   5   5 7.49339 4.94764   1
   2  -5  -5 236.520 15.3973   6
  -2   5   5 204.496 16.8056   1
  -2   5   5 246.285 16.5297   4
  -2   5   5 240.887 15.8001   6
   1  -5  -5 157.169 10.8863   6
  -1   5   5 140.960 12.5511   5
  -1   5   5 173.196 11.3319   6
  -1   5   5 175.454 11.7243   4
  -1   5   5 143.144 11.7403   1
   0  -5  -5 49.6457 5.30387   6
   0  -5  -5 49.0426 5.46390   5
   0   5   5 48.7745 5.82835   6
   0   5   5 43.6883 5.64571   1
   0   5   5 53.2695 5.91454   4
  -1  -5  -5 69.5446 7.21486   5
  -1  -5  -5 65.6249 5.74533   6
   1   5   5 62.5087 6.60348   1
   1   5   5 67.3768 6.37061   6
  -2  -5  -5 6.67560 4.02364   5
  -2  -5  -5 15.4752 4.14025   6
   2   5   5 9.38230 5.06205   1
   2   5   5 15.0995 3.04489   3
   2   5   5 10.3531 3.71703   6
  -3  -5  -5 209.556 17.0527   5
  -3  -5  -5 215.534 13.0271   6
  -3  -5  -5 184.195 13.1070   6
   3   5   5 184.628 12.7911   6
   3   5   5 190.850 14.5251   3
   3   5   5 189.266 15.0426   1
  -4  -5  -5 17.0228 5.14938   6
  -4  -5  -5 -4.9902 6.04673   5
   4   5   5 -0.9421 6.00219   3
   4   5   5 2.46691 7.00488   1
  -5  -5  -5 58.9509 11.0598   5
  -5  -5  -5 62.4246 7.07493   6
   5   5   5 54.7650 10.4164   1
  -5   6   5 -1.0639 7.10469   6
   4  -6  -5 252.756 17.7111   6
  -4   6   5 253.368 18.1249   6
   3  -6  -5 44.0053 6.52654   6
  -3   6   5 35.2112 7.40123   1
  -3   6   5 51.0181 7.77297   6
  -3   6   5 56.0845 6.18502   4
   2  -6  -5 108.743 8.65503   6
  -2   6   5 108.383 8.39340   4
  -2   6   5 99.4189 9.02455   6
  -2   6   5 90.7015 9.04198   1
   1  -6  -5 43.0362 6.00294   6
  -1   6   5 42.1602 6.40851   6
  -1   6   5 46.6892 5.74574   4
  -1   6   5 58.3586 6.61335   1
   0  -6  -5 6.89404 2.73398   5
   0  -6  -5 6.18533 3.43378   6
   0   6   5 9.98727 4.82811   6
   0   6   5 4.41356 4.06567   1
   0   6   5 6.38711 4.51978   4
  -1  -6  -5 15.9072 4.40758   6
  -1  -6  -5 8.89811 3.68102   5
   1   6   5 27.1204 5.36188   1
  -2  -6  -5 34.4327 5.38680   6
  -2  -6  -5 27.2122 7.47353   5
   2   6   5 41.6554 4.05243   3
   2   6   5 29.4583 6.80895   1
   2   6   5 27.4578 5.51027   6
  -3  -6  -5 45.4681 5.85209   6
  -3  -6  -5 30.2020 9.16078   5
   3   6   5 35.2115 5.82251   3
   3   6   5 40.2966 5.60456   6
   3   6   5 42.7442 8.04361   1
  -4  -6  -5 9.12887 5.19492   6
  -4  -6  -5 4.21860 6.42767   5
   4   6   5 14.4718 5.87614   3
   4   6   5 2.18531 6.66047   1
  -5  -6  -5 91.0563 8.48364   6
  -5  -6  -5 66.3970 12.4736   5
   5   6   5 84.8248 11.7340   1
   5   6   5 76.4160 10.3400   3
   4  -7  -5 -5.1864 6.19336   6
  -4   7   5 0.19719 7.04547   6
   3  -7  -5 87.2733 9.01662   6
  -3   7   5 94.3917 9.77465   6
  -3   7   5 99.4984 8.46019   4
   2  -7  -5 27.4117 6.37346   6
  -2   7   5 25.0895 7.04768   6
   1  -7  -5 33.8465 5.98986   6
  -1   7   5 32.3028 6.41575   1
  -1   7   5 31.0625 5.40358   4
  -1   7   5 39.0961 6.90446   6
   0  -7  -5 38.9194 5.46852   6
   0  -7  -5 26.2404 5.37900   5
   0   7   5 37.1350 6.79416   6
   0   7   5 38.2200 5.92033   4
   0   7   5 30.4642 6.17229   1
  -1  -7  -5 161.895 13.8053   5
  -1  -7  -5 162.272 11.5578   6
   1   7   5 146.848 12.6814   1
   1   7   5 180.062 12.1129   6
  -2  -7  -5 710.890 49.5191   5
  -2  -7  -5 645.501 40.7211   6
   2   7   5 677.875 40.8044   6
   2   7   5 604.377 44.8836   1
  -3  -7  -5 3.25261 4.80154   6
   3   7   5 1.75779 5.28670   6
   3   7   5 8.65750 4.42571   3
   3   7   5 1.49588 6.89315   1
  -4  -7  -5 20.0372 6.09648   6
  -4  -7  -5 16.9693 7.09202   5
   4   7   5 27.5732 8.71064   1
   4   7   5 15.8331 5.95472   3
  -5  -7  -5 36.1626 11.8550   5
   5   7   5 36.7442 9.61016   3
   5   7   5 50.1139 10.2569   1
   4  -8  -5 1.39915 6.60252   6
  -4   8   5 -3.8486 6.71608   1
   3  -8  -5 14.1440 6.36194   6
  -3   8   5 12.7561 6.44754   6
  -3   8   5 13.0178 5.94237   1
   2  -8  -5 66.1879 7.70299   6
  -2   8   5 61.7093 7.85271   1
  -2   8   5 45.7297 5.71635   4
   1  -8  -5 4.84944 5.36187   6
  -1   8   5 9.53375 4.84906   4
  -1   8   5 11.5704 6.51142   6
   0  -8  -5 3.93679 3.62660   5
   0  -8  -5 11.5248 4.75130   6
   0   8   5 14.1793 5.52637   4
   0   8   5 18.8245 6.63460   6
  -1  -8  -5 8.82621 4.85989   6
   1   8   5 6.66127 6.17516   6
   2   8   5 36.7504 7.83962   6
   2   8   5 45.1785 7.67732   1
  -3  -8  -5 51.0536 7.71195   6
   3   8   5 53.8299 9.60417   1
   3   8   5 65.6660 7.43737   3
  -4  -8  -5 30.1010 7.62808   6
   4   8   5 29.4923 9.59448   1
   3  -9  -5 -1.1044 6.76858   6
  -3   9   5 6.37663 7.51751   6
   2  -9  -5 2.27523 6.58725   6
  -2   9   5 -1.0032 6.85399   6
  -2   9   5 -0.3228 5.51043   1
   1  -9  -5 130.773 10.8422   6
  -1   9   5 152.386 11.9370   6
  -1   9   5 105.792 10.4744   4
  -1   9   5 129.311 11.7992   1
   0  -9  -5 -4.3382 3.60933   5
   0  -9  -5 1.74402 5.02631   6
   0   9   5 9.37073 6.61418   1
   0   9   5 -1.9167 6.11353   6
  -1  -9  -5 35.8147 6.83353   6
   1   9   5 34.9644 7.43910   1
   1   9   5 48.5371 8.22996   6
  -2  -9  -5 50.5470 7.82084   6
   2   9   5 55.8758 8.86878   1
   2   9   5 61.9054 9.06497   6
  -3  -9  -5 48.1064 7.95600   6
  -3  -9  -5 39.8252 11.0654   5
   3   9   5 50.5257 9.43012   1
  -4  -9  -5 124.888 16.0211   5
  -4  -9  -5 142.575 11.8885   6
   4   9   5 128.048 14.1636   1
   3 -10  -5 58.5603 9.75064   6
  -3  10   5 44.9487 9.29895   1
  -3  10   5 69.7139 10.6667   6
   2 -10  -5 11.7581 7.52146   6
  -2  10   5 11.4191 7.88322   6
  -2  10   5 1.91486 6.88376   1
   1 -10  -5 68.7889 9.02318   6
  -1  10   5 70.5622 9.66661   1
  -1  10   5 75.1656 10.6097   6
   0 -10  -5 6.37213 5.65730   6
   0  10   5 12.4915 6.84829   1
   0  10   5 3.69789 6.33129   4
   0  10   5 13.0002 7.16252   6
  -1 -10  -5 6.22068 5.72222   6
   1  10   5 4.92650 6.92827   1
   1  10   5 11.7913 6.73755   6
  -2 -10  -5 56.1656 8.36010   6
   2  10   5 54.0725 9.54288   1
   2  10   5 61.8427 9.72181   6
  -3 -10  -5 31.5671 8.00101   6
  -3 -10  -5 11.8537 7.84972   5
   3  10   5 21.2487 8.22640   1
   1 -11  -5 -7.2349 7.20847   6
  -1  11   5 7.94280 7.91242   1
  -1  11   5 2.41500 8.66321   6
   0 -11  -5 15.9158 6.60114   6
   0  11   5 25.4386 8.40175   6
   0  11   5 38.9708 9.24340   1
  -1 -11  -5 -2.5670 6.01226   6
   1  11   5 4.28833 7.83775   1
   1  11   5 1.05110 8.51409   6
  -2 -11  -5 12.0058 6.96082   5
  -2 -11  -5 13.0590 7.05466   6
   2  11   5 5.13182 7.77114   1
   2  11   5 0.13429 8.53301   6
   1   8  -6 -6.0937 8.02534   6
  -1  -8   6 -0.5621 8.51888   4
   0   8  -6 6.87508 8.11055   6
   0  -8   6 26.9431 9.12733   4
   0  -8   6 3.29528 8.14277   6
  -1   8  -6 108.720 11.8751   6
   2   7  -6 17.4835 8.64756   6
   2   7  -6 13.7641 8.98558   3
  -2  -7   6 30.9144 9.31818   4
  -2  -7   6 24.2866 8.64425   6
   1   7  -6 103.223 12.1189   6
  -1  -7   6 97.6434 11.6443   6
  -1  -7   6 121.452 12.1664   4
   0   7  -6 34.3316 9.69457   6
   0  -7   6 44.1738 8.47742   4
   0  -7   6 28.7919 7.53452   6
   1  -7   6 74.6136 9.85870   4
  -2   7  -6 29.7653 7.80549   6
  -3   7  -6 -2.3257 6.68348   6
   3   6  -6 56.8476 11.3982   3
   3   6  -6 53.0788 10.8292   6
  -3  -6   6 56.8479 10.2285   6
  -3  -6   6 49.5469 10.0401   4
   2   6  -6 -5.6446 7.42103   6
   2   6  -6 4.26587 7.48641   3
  -2  -6   6 6.16039 7.67545   6
  -2  -6   6 6.17898 7.16357   4
   1   6  -6 165.382 14.1795   6
  -1  -6   6 178.739 14.0006   6
  -1  -6   6 168.927 14.5764   4
   0   6  -6 168.397 14.5079   6
   0  -6   6 195.982 15.1942   4
  -1   6  -6 -4.5291 5.93489   6
   1  -6   6 -1.0879 5.57820   6
  -2   6  -6 58.1129 8.19775   6
  -3   6  -6 125.616 10.8319   6
   4   5  -6 4.58715 6.65993   3
   4   5  -6 16.7954 9.59560   6
  -4  -5   6 14.3854 7.99644   6
  -4  -5   6 6.05271 8.63743   4
   3   5  -6 5.24324 8.37066   6
   3   5  -6 9.61572 6.97716   3
  -3  -5   6 6.59912 7.10037   6
  -3  -5   6 9.65944 7.45916   4
   2   5  -6 71.4258 10.1773   3
   2   5  -6 93.3337 11.0229   6
  -2  -5   6 74.9430 9.75599   4
  -2  -5   6 82.0184 9.33552   6
   1   5  -6 14.0253 6.90840   6
   1   5  -6 -1.8038 6.86438   3
  -1  -5   6 9.21870 6.67363   6
  -1  -5   6 11.4003 6.35563   4
   0   5  -6 68.2949 8.78724   6
   0  -5   6 61.4473 8.25574   6
   0  -5   6 67.4348 8.21617   4
  -1   5  -6 34.0947 7.27879   6
   1  -5   6 38.3026 6.68507   4
   1  -5   6 36.9943 6.42368   6
   1  -5   6 27.2183 8.96781   2
  -2   5  -6 5.49825 4.83952   6
   2  -5   6 5.93131 7.62612   2
  -3   5  -6 99.3358 9.35494   6
   3  -5   6 130.598 13.7514   2
  -4   5  -6 8.92679 5.36504   6
   4   4  -6 88.7540 11.3365   3
   4   4  -6 133.579 12.6030   6
  -4  -4   6 105.931 11.0569   6
  -4  -4   6 90.9208 12.1350   4
   3   4  -6 31.7865 7.74142   3
   3   4  -6 44.9699 9.41756   6
  -3  -4   6 28.5856 8.29778   4
  -3  -4   6 30.9605 7.68362   6
   2   4  -6 417.482 27.0713   6
   2   4  -6 382.537 29.2694   3
  -2  -4   6 410.239 26.6309   6
  -2  -4   6 422.192 29.2127   4
   1   4  -6 442.632 27.7078   6
   1   4  -6 364.359 29.9944   3
  -1  -4   6 446.156 30.1335   4
  -1  -4   6 449.958 27.3193   6
   0   4  -6 32.1208 7.36433   6
   0  -4   6 26.0630 6.36369   4
   0  -4   6 14.0018 7.07629   2
   0  -4   6 29.8496 6.41768   6
  -1   4  -6 183.647 13.4480   6
   1  -4   6 190.939 14.2845   4
   1  -4   6 186.061 16.6355   2
  -2   4  -6 177.364 12.8651   6
   2  -4   6 203.574 14.0514   4
   2  -4   6 168.516 16.8195   2
  -3   4  -6 -1.3027 4.07537   6
   3  -4   6 9.28810 7.57061   2
  -4   4  -6 27.1955 5.49826   6
   5   3  -6 4.16093 9.21599   6
   5   3  -6 4.97518 7.81122   3
  -5  -3   6 0.11921 7.47042   6
  -5  -3   6 0.78584 8.90128   4
   4   3  -6 46.1694 10.0574   6
   4   3  -6 46.8009 8.24051   3
  -4  -3   6 39.8314 9.13674   4
  -4  -3   6 49.0363 9.08869   6
   3   3  -6 14.0109 6.30434   3
   3   3  -6 6.69332 7.77696   6
  -3  -3   6 0.59379 7.06612   4
  -3  -3   6 -1.4911 5.85730   6
   2   3  -6 146.339 11.7298   6
   2   3  -6 120.065 11.3374   3
  -2  -3   6 124.029 10.8540   6
  -2  -3   6 118.113 11.3326   4
   1   3  -6 323.927 25.3331   3
   1   3  -6 367.272 23.4635   6
  -1  -3   6 342.654 25.2805   4
  -1  -3   6 388.451 27.4924   2
  -1  -3   6 364.592 23.1251   6
   0   3  -6 9.42162 5.54526   6
   0  -3   6 9.75653 5.17103   6
   0  -3   6 1.32131 4.81774   4
   0  -3   6 5.19904 6.04476   2
  -1   3  -6 -2.2077 5.03870   6
   1  -3   6 10.3613 4.79603   4
   1  -3   6 4.04608 6.18954   2
   1  -3   6 6.66989 3.60616   6
  -2   3  -6 418.866 28.1929   6
  -2   3  -6 455.056 28.1042   6
   2  -3   6 465.396 34.4576   2
   2  -3   6 464.487 31.1173   4
  -3   3  -6 5.42975 3.71853   6
   3  -3   6 10.5493 6.95655   2
   3  -3   6 -5.5490 4.36236   4
  -4   3  -6 12.6178 4.23034   6
   4  -3   6 13.4504 6.00431   4
   4  -3   6 35.2225 8.62309   2
   5  -3   6 16.0249 7.85865   2
   5   2  -6 95.9371 11.6736   3
   5   2  -6 108.852 12.0858   6
  -5  -2   6 122.545 12.0467   6
  -5  -2   6 93.4019 12.1687   4
   4   2  -6 5.77678 7.76709   6
   4   2  -6 7.43226 6.56036   3
  -4  -2   6 4.48207 7.28833   6
  -4  -2   6 -0.7819 6.86485   4
   3   2  -6 3.70424 7.41747   6
  -3  -2   6 11.1285 6.28388   4
  -3  -2   6 7.70095 6.73097   6
   2   2  -6 847.872 49.8883   6
   2   2  -6 686.490 54.7785   3
  -2  -2   6 901.576 49.7670   6
  -2  -2   6 753.196 54.9050   4
  -2  -2   6 835.892 58.5538   2
   1   2  -6 96.7950 9.40821   3
   1   2  -6 113.305 9.35850   6
   1   2  -6 97.7662 7.87133   1
  -1  -2   6 95.9334 10.4360   2
  -1  -2   6 105.041 8.69689   6
  -1  -2   6 102.340 9.08781   4
   0   2  -6 287.002 18.3783   6
   0  -2   6 251.394 21.6301   2
   0  -2   6 280.115 19.8163   4
   0  -2   6 290.288 18.0494   6
  -1   2  -6 130.071 9.89180   6
  -1   2  -6 143.294 10.2751   6
   1  -2   6 131.497 13.1177   2
   1  -2   6 128.417 9.56203   6
   1  -2   6 157.529 10.9692   4
  -2   2  -6 61.1848 5.71183   6
  -2   2  -6 60.5348 5.66480   6
   2  -2   6 59.7682 5.87224   4
   2  -2   6 56.0394 9.00838   2
   2  -2   6 44.8664 5.13180   1
  -3   2  -6 68.7907 5.49720   6
   3  -2   6 53.1008 9.99530   2
   3  -2   6 57.5954 7.02298   4
   4  -2   6 23.0681 6.11334   4
   4  -2   6 24.2094 7.76506   2
   5  -2   6 143.187 14.2926   2
   5   1  -6 129.404 13.3634   6
   5   1  -6 111.571 12.1659   3
  -5  -1   6 118.418 13.2757   4
  -5  -1   6 145.471 12.6086   6
   4   1  -6 1.80763 6.21543   3
   4   1  -6 -7.9852 7.42485   6
  -4  -1   6 -4.4454 6.20506   6
  -4  -1   6 -5.8513 6.35853   4
   3   1  -6 413.543 31.5512   3
   3   1  -6 485.488 29.6209   6
  -3  -1   6 424.806 31.8133   4
  -3  -1   6 488.327 29.2701   6
   2   1  -6 94.4084 9.50689   6
   2   1  -6 87.8064 8.64925   3
  -2  -1   6 102.723 9.20313   2
  -2  -1   6 88.3171 8.67501   4
  -2  -1   6 83.4303 8.64532   6
   1   1  -6 183.111 13.3422   3
   1   1  -6 163.957 12.9955   6
  -1  -1   6 186.891 12.8648   6
  -1  -1   6 183.152 13.5745   4
  -1  -1   6 172.864 14.7904   2
   0   1  -6 209.828 15.5783   3
   0   1  -6 198.794 14.7624   6
   0  -1   6 231.980 17.6701   2
   0  -1   6 223.842 14.3809   6
   0  -1   6 222.320 15.8649   4
  -1   1  -6 630.827 38.4158   6
  -1   1  -6 622.992 38.4665   6
   1  -1   6 667.005 46.1867   2
   1  -1   6 597.912 38.1907   6
   1  -1   6 612.724 42.5678   4
  -2   1  -6 6.99562 3.30452   6
  -2   1  -6 11.1436 3.54360   6
   2  -1   6 5.96146 3.15187   1
   2  -1   6 16.8576 4.59564   4
   2  -1   6 3.18955 5.60501   2
   3  -1   6 18.6294 5.07022   4
   3  -1   6 23.9625 7.40404   2
   4  -1   6 63.0478 9.51126   2
   4  -1   6 66.0057 7.45562   4
   5  -1   6 20.0590 6.13502   4
   5  -1   6 -7.9325 7.17308   2
   5   0  -6 75.7786 10.4348   3
   5   0  -6 88.8831 11.4198   6
  -5   0   6 77.4852 10.9307   4
  -5   0   6 97.7843 11.1170   6
   4   0  -6 27.1016 7.70661   6
   4   0  -6 22.9082 7.20096   3
  -4   0   6 21.4478 7.33573   6
  -4   0   6 12.7705 7.32006   4
   3   0  -6 12.1876 6.38359   6
   3   0  -6 21.6535 6.12475   3
  -3   0   6 28.0167 7.05432   4
  -3   0   6 12.6111 6.55016   6
  -3   0   6 16.8997 5.18557   2
  -2   0   6 15.8242 6.05682   6
  -2   0   6 28.7952 5.82232   2
  -2   0   6 42.6807 5.88607   4
   1   0  -6 213.595 15.4222   6
   1   0  -6 232.022 15.9880   3
  -1   0   6 209.094 15.1472   6
  -1   0   6 217.580 16.1532   4
  -1   0   6 215.196 17.6669   2
  -1   0   6 241.903 15.5357   1
   0   0  -6 96.5299 7.98576   3
   0   0  -6 90.2698 8.35238   6
   0   0  -6 90.2558 7.40366   1
   0   0   6 114.315 7.32473   1
   0   0   6 98.7477 7.95722   6
   0   0   6 107.911 8.38496   4
   0   0   6 89.4330 9.94415   2
  -1   0  -6 360.949 23.6066   6
  -1   0  -6 366.027 23.4839   6
   1   0   6 382.680 26.0501   4
   1   0   6 385.299 25.3199   1
   1   0   6 388.050 23.2820   6
  -2   0  -6 309.312 19.1963   6
  -2   0  -6 281.549 19.0383   6
   2   0   6 314.150 21.4548   4
   2   0   6 323.036 20.9547   1
   3   0   6 64.7478 9.62956   2
   3   0   6 84.8756 7.68795   4
   3   0   6 89.0731 7.32787   1
  -4   0  -6 15.4660 5.48020   5
   4   0   6 24.7268 7.92163   2
   4   0   6 18.4084 5.47856   4
  -5   0  -6 110.514 11.7819   5
   5   0   6 100.274 12.0460   2
   5  -1  -6 58.1798 9.53237   3
   5  -1  -6 65.8645 10.3669   6
  -5   1   6 61.8884 9.88904   4
  -5   1   6 63.9569 9.64108   6
   4  -1  -6 55.9375 8.92737   6
   4  -1  -6 37.4112 7.73638   3
  -4   1   6 27.7289 8.10807   4
  -4   1   6 56.7261 8.78126   6
   3  -1  -6 106.711 9.98045   3
   3  -1  -6 113.593 10.5235   6
  -3   1   6 119.449 10.6669   6
  -3   1   6 114.682 10.5347   4
   2  -1  -6 209.431 14.1306   3
   2  -1  -6 189.091 13.6370   6
  -2   1   6 173.234 13.7836   6
  -2   1   6 190.199 14.2243   4
  -2   1   6 181.535 15.1257   2
   1  -1  -6 232.312 15.8423   3
   1  -1  -6 224.647 15.2765   6
  -1   1   6 217.268 16.1242   4
  -1   1   6 198.862 15.1768   6
  -1   1   6 239.790 15.6589   1
   0  -1  -6 258.117 16.6839   6
   0  -1  -6 265.493 17.5896   3
   0   1   6 251.988 16.4452   6
   0   1   6 231.019 17.7878   4
   0   1   6 262.331 17.3394   1
  -1  -1  -6 137.877 10.3574   6
   1   1   6 141.511 9.93015   6
   1   1   6 165.036 11.3431   4
  -2  -1  -6 61.0599 5.61301   6
  -2  -1  -6 74.3443 5.65071   6
  -3  -1  -6 30.8077 6.32789   5
   3   1   6 21.5775 5.25128   1
   3   1   6 15.2430 5.17710   4
  -4  -1  -6 75.0552 9.46895   5
  -5  -1  -6 301.951 25.4568   5
   5   1   6 332.604 25.3804   2
  -6  -1  -6 4.17707 6.46894   5
   5  -2  -6 -2.4575 7.18214   3
   5  -2  -6 3.72640 7.37724   6
  -5   2   6 7.30857 7.17047   4
  -5   2   6 3.60370 7.48098   6
   4  -2  -6 45.3857 7.94095   3
   4  -2  -6 58.9646 8.52278   6
  -4   2   6 29.8042 8.26762   4
  -4   2   6 55.4269 8.10062   6
   3  -2  -6 105.536 9.91004   3
   3  -2  -6 99.9680 9.95483   6
  -3   2   6 99.2864 10.2174   6
  -3   2   6 118.443 9.86302   4
   2  -2  -6 53.3169 6.12409   3
  -2   2   6 49.4397 6.43685   4
  -2   2   6 55.9544 6.18340   1
   0  -2  -6 159.862 12.7126   6
   0   2   6 184.533 13.6398   4
   0   2   6 209.409 13.2514   1
  -1  -2  -6 363.413 23.3771   6
  -1  -2  -6 366.226 23.4516   6
   1   2   6 376.928 26.1491   4
   1   2   6 359.002 23.2965   6
   1   2   6 410.430 25.6096   1
   1   2   6 387.297 25.6014   3
  -2  -2  -6 36.4730 3.98580   6
  -2  -2  -6 40.0221 5.97189   5
  -3  -2  -6 119.802 11.1760   5
   3   2   6 118.446 10.0084   1
  -4  -2  -6 10.8615 4.89972   5
   4   2   6 21.6467 6.53203   1
  -5  -2  -6 32.6045 8.70142   5
  -6  -2  -6 13.9767 6.49346   5
   5  -3  -6 110.495 11.3112   6
  -5   3   6 131.142 11.6374   6
  -5   3   6 97.7908 11.5792   4
   4  -3  -6 2.47894 5.91009   6
  -4   3   6 4.64735 6.46864   6
  -4   3   6 1.44364 6.36652   4
   3  -3  -6 186.133 13.5825   6
  -3   3   6 191.703 14.2441   4
  -3   3   6 175.708 14.0153   6
   2  -3  -6 22.3383 5.87255   6
   2  -3  -6 22.4684 5.33296   3
  -2   3   6 35.2441 5.62739   1
  -2   3   6 24.6811 5.58013   6
   1  -3  -6 232.460 15.7467   3
   1  -3  -6 217.224 14.8142   6
  -1   3   6 223.733 16.0108   4
  -1   3   6 223.324 15.7868   1
  -1   3   6 225.695 15.1624   6
   0  -3  -6 2.66719 3.24114   6
   0   3   6 15.9809 4.41155   1
   0   3   6 3.24733 4.00340   6
   0   3   6 7.88522 4.22852   4
  -1  -3  -6 4.84846 2.82423   5
  -1  -3  -6 7.63809 3.47192   6
  -1  -3  -6 4.81257 3.26775   6
   1   3   6 4.86308 4.15842   4
   1   3   6 5.17038 3.24988   6
   1   3   6 6.44780 3.39496   1
  -2  -3  -6 330.651 20.3389   6
  -2  -3  -6 337.425 25.1263   5
  -2  -3  -6 318.833 20.3314   6
   2   3   6 330.757 22.7835   1
  -3  -3  -6 4.91939 3.89204   5
  -3  -3  -6 5.82488 2.56245   6
  -3  -3  -6 6.46922 2.50885   6
   3   3   6 8.95051 4.78373   1
  -4  -3  -6 189.924 16.3453   5
   4   3   6 179.387 14.9568   1
  -5  -3  -6 -0.7601 6.02896   5
   5   3   6 4.96530 6.83228   1
  -6  -3  -6 -2.8846 7.00937   5
   6   3   6 11.2919 7.62952   1
   5  -4  -6 15.3596 6.71633   6
  -5   4   6 18.2393 7.25137   4
  -5   4   6 17.6674 7.30162   6
   4  -4  -6 11.8780 5.93520   6
  -4   4   6 15.8017 6.80375   6
  -4   4   6 4.74015 6.26219   4
   3  -4  -6 223.785 15.3730   6
  -3   4   6 233.181 15.7048   6
  -3   4   6 218.358 16.3957   4
  -3   4   6 210.381 16.6367   1
   2  -4  -6 112.342 9.23977   6
  -2   4   6 110.612 9.81573   1
  -2   4   6 131.790 9.66236   4
  -2   4   6 110.411 9.77060   6
   1  -4  -6 4.96015 2.89601   3
   1  -4  -6 2.81152 3.52539   6
  -1   4   6 6.93715 4.71449   6
  -1   4   6 10.8518 4.03472   1
  -1   4   6 17.6551 4.51021   4
   0  -4  -6 54.2511 5.59267   6
   0   4   6 69.0506 6.47740   4
   0   4   6 54.3141 6.12423   1
   0   4   6 57.9480 6.28508   6
  -1  -4  -6 0.07015 3.04538   5
  -1  -4  -6 3.69462 3.03880   6
   1   4   6 7.64816 4.38932   4
   1   4   6 2.74952 3.88246   1
   1   4   6 2.67710 3.41588   6
  -2  -4  -6 55.7268 5.03766   6
  -2  -4  -6 55.3573 5.30229   6
  -2  -4  -6 57.8298 6.93428   5
   2   4   6 63.3761 6.77341   1
   2   4   6 56.6409 5.04847   6
  -3  -4  -6 19.0609 4.10365   6
  -3  -4  -6 10.8745 4.70641   5
  -3  -4  -6 18.1411 3.97164   6
   3   4   6 23.1081 6.33645   1
  -4  -4  -6 27.9530 4.53174   6
  -4  -4  -6 26.5157 8.53879   5
   4   4   6 30.4544 7.96346   1
  -5  -4  -6 119.613 8.97159   6
  -5  -4  -6 132.377 13.7508   5
   5   4   6 115.332 12.6121   1
   5  -5  -6 121.207 11.5985   6
  -5   5   6 136.143 12.2007   6
   4  -5  -6 437.925 29.8686   6
  -4   5   6 470.127 30.1324   6
  -4   5   6 493.747 32.7524   4
   3  -5  -6 63.7490 7.77970   6
  -3   5   6 76.4967 7.94337   4
  -3   5   6 68.2250 8.50939   6
   2  -5  -6 55.7007 6.34908   6
  -2   5   6 59.7224 6.54825   4
  -2   5   6 61.9429 7.61149   6
  -2   5   6 54.6743 7.03705   1
   1  -5  -6 32.4693 5.24471   6
  -1   5   6 42.8428 6.36113   6
  -1   5   6 35.8551 5.28967   4
  -1   5   6 39.6280 6.14859   1
   0  -5  -6 13.8101 4.18113   6
   0   5   6 11.6080 4.35556   6
   0   5   6 11.1195 4.21315   1
   0   5   6 14.2273 4.94606   4
  -1  -5  -6 293.600 17.6577   6
  -1  -5  -6 269.873 21.2744   5
   1   5   6 276.239 17.7185   6
   1   5   6 277.279 19.8609   4
   1   5   6 271.547 19.5293   1
  -2  -5  -6 2.87370 3.18395   6
  -2  -5  -6 6.20404 3.91191   5
   2   5   6 1.48354 5.08501   1
   2   5   6 2.18713 3.44180   6
  -3  -5  -6 175.243 15.2777   5
  -3  -5  -6 175.451 11.6701   6
   3   5   6 172.277 12.9285   3
   3   5   6 165.437 13.9551   1
  -4  -5  -6 3.58776 4.07156   6
  -4  -5  -6 -8.7423 5.62859   5
   4   5   6 3.67125 6.39817   1
  -5  -5  -6 19.1397 5.72032   6
  -5  -5  -6 4.89442 6.57067   5
   5   5   6 14.9298 8.36762   1
   5  -6  -6 -0.9882 7.01004   6
  -5   6   6 5.14315 7.19394   6
   4  -6  -6 91.8603 10.0301   6
  -4   6   6 108.840 10.7806   6
  -4   6   6 99.3256 9.89913   4
   3  -6  -6 -1.1866 5.08222   6
  -3   6   6 -4.6967 6.11510   6
  -3   6   6 -1.6886 5.38469   1
   2  -6  -6 30.6378 6.07934   6
  -2   6   6 36.1349 5.46396   4
  -2   6   6 31.2151 7.04205   6
  -2   6   6 26.3264 6.20278   1
   1  -6  -6 68.8888 6.74693   6
  -1   6   6 64.0394 7.29382   6
  -1   6   6 58.1463 7.20451   1
  -1   6   6 72.7662 6.90146   4
   0  -6  -6 9.20401 3.23955   5
   0  -6  -6 15.1881 4.69243   6
   0   6   6 19.2913 5.30567   1
   0   6   6 17.2502 5.06371   4
   0   6   6 11.2937 4.96946   6
  -1  -6  -6 3.77313 3.66520   5
  -1  -6  -6 3.89206 3.60938   6
   1   6   6 0.93581 4.27530   6
   1   6   6 0.96434 4.42682   1
  -2  -6  -6 131.417 12.3104   5
  -2  -6  -6 132.656 9.63521   6
   2   6   6 136.065 9.86147   6
   2   6   6 124.616 11.2888   1
  -3  -6  -6 19.4387 5.30517   6
  -3  -6  -6 6.82792 5.67148   5
   3   6   6 16.2082 4.59678   3
   3   6   6 21.4323 7.23853   1
  -4  -6  -6 121.882 12.7859   5
  -4  -6  -6 110.285 8.76884   6
   4   6   6 91.7263 9.75906   3
   4   6   6 90.4562 11.4086   1
  -5  -6  -6 44.3975 6.99380   6
   5   6   6 44.7716 9.70736   1
   5   6   6 40.4363 9.78011   3
   4  -7  -6 12.3743 6.40087   6
  -4   7   6 17.8724 7.48525   6
  -4   7   6 0.15780 6.71355   1
   3  -7  -6 13.9370 5.28674   6
  -3   7   6 32.3492 6.07328   4
  -3   7   6 5.17009 5.84503   1
  -3   7   6 18.2909 6.88122   6
   2  -7  -6 91.9168 8.26922   6
  -2   7   6 98.4904 9.15166   6
  -2   7   6 63.3251 8.58017   1
  -2   7   6 77.6467 7.44087   4
   1  -7  -6 0.89911 5.16921   6
  -1   7   6 2.62798 5.85871   6
  -1   7   6 3.29220 4.72019   4
  -1   7   6 2.46484 5.12558   1
   0  -7  -6 207.181 13.3527   6
   0  -7  -6 185.773 15.1835   5
   0   7   6 201.127 14.6587   4
   0   7   6 162.105 14.4140   1
   0   7   6 202.414 13.7644   6
  -1  -7  -6 62.8490 7.75983   5
  -1  -7  -6 59.7735 6.60263   6
   1   7   6 56.0916 7.27283   1
   1   7   6 65.5001 7.64525   6
  -2  -7  -6 33.4009 5.86275   6
   2   7   6 26.9529 6.70167   6
   2   7   6 42.9640 7.31289   1
  -3  -7  -6 1.52057 5.53923   5
  -3  -7  -6 4.96297 5.04116   6
   3   7   6 -0.6370 7.05297   1
  -4  -7  -6 176.690 16.3574   5
  -4  -7  -6 151.816 11.7181   6
   4   7   6 133.398 14.2982   1
  -5  -7  -6 117.816 10.1309   6
  -5  -7  -6 103.975 14.2745   5
   5   7   6 101.451 13.2911   1
   4  -8  -6 7.35072 7.02716   6
  -4   8   6 13.0489 6.88470   1
  -4   8   6 10.3693 7.91781   6
   3  -8  -6 31.0569 7.13704   6
  -3   8   6 19.8932 6.95965   1
  -3   8   6 35.1808 8.73739   6
   2  -8  -6 75.7501 7.95659   6
  -2   8   6 51.5723 7.88093   1
  -2   8   6 54.7259 6.45266   4
   1  -8  -6 85.5344 8.89378   6
  -1   8   6 87.5971 8.59781   4
  -1   8   6 106.229 9.60273   6
  -1   8   6 82.1373 9.30257   1
   0  -8  -6 146.206 13.5904   5
   0  -8  -6 179.766 12.4260   6
   0   8   6 162.612 13.4166   4
   0   8   6 166.674 13.6148   1
   0   8   6 184.898 13.0381   6
  -1  -8  -6 -0.1177 4.54398   6
  -1  -8  -6 -2.0684 4.18516   5
   1   8   6 2.59474 6.19275   6
   1   8   6 -2.7997 5.29452   1
  -2  -8  -6 78.7316 7.70313   6
  -2  -8  -6 75.0474 10.1439   5
   2   8   6 84.3483 8.41429   6
   2   8   6 60.2593 8.82374   1
  -3  -8  -6 85.8573 8.68428   6
  -3  -8  -6 83.0315 11.8348   5
   3   8   6 70.4081 10.1796   1
  -4  -8  -6 5.50549 7.67138   5
  -4  -8  -6 24.0833 7.11588   6
   4   8   6 26.2580 8.95548   1
   3  -9  -6 6.14838 6.79976   6
  -3   9   6 8.00819 8.07557   6
  -3   9   6 -4.0998 6.84339   1
   2  -9  -6 14.0887 6.52807   6
  -2   9   6 0.59791 7.37461   6
  -2   9   6 7.68383 5.72301   1
   1  -9  -6 199.049 14.1309   6
  -1   9   6 164.759 14.5726   4
  -1   9   6 176.085 15.2853   1
  -1   9   6 229.171 14.9828   6
   0  -9  -6 32.3244 6.43419   6
   0  -9  -6 43.7514 6.36479   5
   0   9   6 54.3279 9.02850   6
   0   9   6 52.0557 8.46392   1
   0   9   6 34.9643 7.64865   4
  -1  -9  -6 25.2240 7.28101   5
  -1  -9  -6 20.9146 6.35495   6
   1   9   6 36.5231 8.78074   6
   1   9   6 22.8500 7.24980   1
  -2  -9  -6 -8.2227 5.35131   5
  -2  -9  -6 5.68948 5.48115   6
   2   9   6 -1.9594 6.10706   6
   2   9   6 6.59472 6.34199   1
  -3  -9  -6 56.7595 11.2127   5
  -3  -9  -6 55.6228 8.21191   6
   3   9   6 50.5360 9.72398   1
  -4  -9  -6 118.165 15.9012   5
  -4  -9  -6 127.931 11.4859   6
   4   9   6 125.067 13.7031   1
   2 -10  -6 57.8124 8.97775   6
  -2  10   6 41.4257 9.02004   1
  -2  10   6 72.8328 10.0499   6
   1 -10  -6 54.2621 8.79428   6
  -1  10   6 74.3203 9.71984   1
  -1  10   6 67.8932 10.2935   6
  -1  10   6 51.5660 8.47953   4
   0 -10  -6 23.5095 6.62040   6
   0  10   6 29.4622 7.31613   4
   0  10   6 32.1761 8.57708   1
   0  10   6 40.8934 9.28549   6
  -1 -10  -6 14.7498 5.80036   6
  -1 -10  -6 -8.5791 4.95096   5
   1  10   6 9.95493 6.81318   6
   1  10   6 1.29608 7.13645   1
  -2 -10  -6 26.9122 7.15663   6
  -2 -10  -6 11.1104 7.16637   5
   2  10   6 33.8476 8.59471   1
   2  10   6 29.6048 8.60231   6
  -3 -10  -6 1.56129 6.48425   6
  -3 -10  -6 -10.569 7.54287   5
   3  10   6 -0.3617 7.71314   1
   1 -11  -6 24.6044 7.65532   6
  -1  11   6 33.8739 9.52094   1
  -1  11   6 37.4290 10.1304   6
   0 -11  -6 13.5442 6.15405   6
   0  11   6 10.4679 7.31139   4
   0  11   6 33.5378 10.2027   6
   0  11   6 27.7595 8.41343   1
  -1 -11  -6 13.0940 6.43125   6
   1  11   6 21.5098 8.42028   1
   1  11   6 20.4203 7.77282   6
  -2 -11  -6 -2.5662 6.14486   5
  -2 -11  -6 0.12617 6.56827   6
   1   7  -7 1.30008 7.99455   6
  -1  -7   7 8.03933 7.92961   6
  -1  -7   7 14.3162 8.00377   4
   0   7  -7 148.132 14.5039   6
   0  -7   7 160.685 14.1567   4
  -1   7  -7 78.1157 10.4538   6
  -2   7  -7 8.73225 7.00591   6
  -3  -6   7 32.8213 10.1664   6
   2   6  -7 32.7908 10.0153   6
   2   6  -7 18.0191 8.39594   3
  -2  -6   7 21.6525 8.66236   6
  -2  -6   7 30.2336 9.49294   4
   1   6  -7 73.3343 11.2302   6
  -1  -6   7 93.0172 10.1758   4
  -1  -6   7 83.7773 10.6511   6
   0   6  -7 30.8031 9.18184   6
   0  -6   7 50.0396 8.49742   4
  -2   6  -7 44.0490 8.32805   6
  -3   6  -7 45.6421 7.80919   6
   3   5  -7 39.3439 10.7800   6
   3   5  -7 38.9139 10.2278   3
  -3  -5   7 30.2355 9.55268   4
  -3  -5   7 23.2396 8.26889   6
   2   5  -7 2.50217 8.20392   6
   2   5  -7 5.65772 7.55284   3
  -2  -5   7 16.5742 7.83348   4
  -2  -5   7 7.33872 6.61420   6
   1   5  -7 139.656 13.8698   3
   1   5  -7 145.993 13.4770   6
  -1  -5   7 153.567 13.5092   4
  -1  -5   7 152.626 12.8447   6
   0   5  -7 172.305 14.5253   6
   0  -5   7 178.945 14.0699   6
   0  -5   7 197.320 15.0156   4
  -1   5  -7 52.4674 8.56700   6
   1  -5   7 64.4057 7.94316   4
   1  -5   7 46.2073 10.9165   2
  -2   5  -7 124.372 10.9538   6
   2  -5   7 133.218 11.0463   4
   2  -5   7 131.921 14.7151   2
  -3   5  -7 59.2539 7.44977   6
   3  -5   7 70.9655 12.0250   2
   4  -5   7 14.7832 9.20072   2
   4   4  -7 44.3543 11.0750   6
   4   4  -7 33.1436 9.67080   3
  -4  -4   7 37.5613 9.42160   6
  -4  -4   7 39.7706 9.86141   4
   3   4  -7 50.9466 10.7640   6
   3   4  -7 44.3289 9.29286   3
   2   4  -7 -8.1264 7.59548   6
   2   4  -7 5.00109 6.01733   3
  -2  -4   7 -11.220 6.74079   6
  -2  -4   7 10.0907 6.85331   4
   1   4  -7 0.20050 7.21677   6
   1   4  -7 2.55743 6.09827   3
  -1  -4   7 1.49647 6.36590   4
  -1  -4   7 3.50213 5.79043   6
  -1  -4   7 1.53890 6.81749   2
   0   4  -7 147.931 12.2036   6
   0  -4   7 145.248 12.3383   4
   0  -4   7 142.957 11.5860   6
   0  -4   7 136.552 14.6425   2
  -1   4  -7 13.1526 5.89211   6
   1  -4   7 14.7313 5.74169   4
   1  -4   7 8.63881 7.70179   2
  -2   4  -7 6.37861 5.72584   6
   2  -4   7 5.60900 7.96190   2
   2  -4   7 19.5470 6.51782   4
  -3   4  -7 55.3141 6.66311   6
   3  -4   7 48.6918 7.56162   4
   3  -4   7 76.2789 11.6080   2
  -4   4  -7 31.3093 5.78393   6
   4   3  -7 88.5856 11.7192   6
   4   3  -7 69.4629 10.2322   3
  -4  -3   7 81.1962 10.4535   6
  -4  -3   7 65.3663 10.7276   4
   3   3  -7 6.92177 8.28939   6
  -3  -3   7 1.07542 7.34570   4
  -3  -3   7 5.68047 6.42242   6
   2   3  -7 3.75948 6.24951   3
   2   3  -7 -13.514 6.74836   6
  -2  -3   7 10.7756 6.44830   4
   1   3  -7 55.6212 8.40654   3
   1   3  -7 59.9375 9.02384   6
  -1  -3   7 78.7569 9.84882   2
  -1  -3   7 62.1501 8.43291   6
   0   3  -7 167.215 13.3407   6
   0  -3   7 185.991 12.9093   6
   0  -3   7 174.866 13.7906   4
   0  -3   7 161.876 15.5913   2
  -1   3  -7 102.652 9.94816   6
   1  -3   7 122.891 10.0212   4
   1  -3   7 123.611 12.6423   2
   1  -3   7 99.5488 8.87313   6
  -2   3  -7 184.536 13.9546   6
   2  -3   7 228.202 15.4344   4
   2  -3   7 187.520 18.1015   2
  -3   3  -7 3.52031 4.04871   6
   3  -3   7 -1.7287 7.45241   2
   4  -3   7 19.2833 8.26136   2
   4   2  -7 24.2547 7.78869   3
   4   2  -7 11.4258 8.62495   6
  -4  -2   7 18.1692 8.04480   6
  -4  -2   7 17.3901 7.20883   4
   3   2  -7 88.2791 9.68338   3
   3   2  -7 121.743 11.8860   6
  -3  -2   7 103.779 10.5266   6
  -3  -2   7 79.4418 10.3851   4
   2   2  -7 258.120 22.5531   3
   2   2  -7 350.264 21.5364   6
  -2  -2   7 316.660 20.9004   6
  -2  -2   7 302.252 22.7759   4
  -2  -2   7 325.861 24.1671   2
   1   2  -7 21.1327 6.10856   3
   1   2  -7 12.1138 6.67442   6
  -1  -2   7 1.50231 6.52833   2
  -1  -2   7 6.54377 5.68264   6
  -1  -2   7 27.4703 6.68234   4
   0   2  -7 169.842 13.0470   6
   0  -2   7 166.590 13.5866   4
   0  -2   7 166.731 15.4675   2
   0  -2   7 198.234 12.7407   6
  -1   2  -7 59.1592 6.95195   6
   1  -2   7 42.7826 5.61166   6
   1  -2   7 43.9369 9.38215   2
   1  -2   7 55.0686 6.88014   4
  -2   2  -7 157.142 12.3202   6
   2  -2   7 190.134 13.4916   4
   2  -2   7 183.083 16.1940   2
  -3   2  -7 13.3296 4.10657   6
   3  -2   7 3.22815 5.46531   4
   3  -2   7 -10.717 7.53341   2
   3  -2   7 8.93179 4.17965   1
   4  -2   7 -8.4135 7.03577   2
   4  -2   7 -0.1273 5.59696   4
   5  -2   7 -3.0096 7.42045   2
   5   1  -7 4.03463 9.19753   6
   5   1  -7 5.56454 7.77178   3
  -5  -1   7 2.36153 9.04746   6
  -5  -1   7 1.78043 8.01444   4
   4   1  -7 164.927 14.8777   3
   4   1  -7 198.659 15.5048   6
  -4  -1   7 191.440 14.9111   6
  -4  -1   7 169.914 15.5070   4
   3   1  -7 8.11505 6.14982   3
   3   1  -7 6.09036 7.52963   6
  -3  -1   7 4.47897 5.19149   2
  -3  -1   7 9.75454 6.33100   6
  -3  -1   7 9.06691 6.47778   4
   2   1  -7 67.6759 7.95753   3
   2   1  -7 59.6525 9.45801   6
  -2  -1   7 64.1526 9.15543   6
  -2  -1   7 70.1314 8.41061   2
  -2  -1   7 67.2860 7.83810   4
   1   1  -7 261.216 17.5792   6
   1   1  -7 254.712 18.2638   3
  -1  -1   7 258.115 17.0182   6
  -1  -1   7 245.902 19.8599   2
  -1  -1   7 229.708 18.2201   4
   0   1  -7 16.0154 5.55126   6
   0  -1   7 16.3649 4.41920   6
   0  -1   7 14.1116 6.09563   2
  -1   1  -7 91.9986 8.62338   6
  -1   1  -7 98.3448 8.32738   6
   1  -1   7 96.5448 7.59774   6
   1  -1   7 102.402 11.1160   2
   1  -1   7 120.030 9.06881   4
  -2   1  -7 31.5354 5.47427   6
  -2   1  -7 36.5595 5.17609   6
   2  -1   7 30.3261 8.43703   2
   2  -1   7 46.2496 5.89894   4
   3  -1   7 132.818 11.1352   1
   3  -1   7 160.097 11.6881   4
   3  -1   7 138.328 14.2344   2
   4  -1   7 54.5174 7.24757   4
   4  -1   7 54.5455 9.85713   2
   5  -1   7 -0.5749 6.07835   4
   5  -1   7 -8.2753 7.50961   2
   5   0  -7 12.4152 7.19865   3
   5   0  -7 -1.8145 8.93784   6
  -5   0   7 8.74744 7.94070   6
  -5   0   7 7.27677 7.87912   4
   4   0  -7 102.329 10.8366   3
   4   0  -7 136.371 12.6148   6
  -4   0   7 103.164 11.6920   4
  -4   0   7 131.479 12.0686   6
   3   0  -7 3.98133 7.09119   6
  -3   0   7 4.18670 6.14854   4
  -3   0   7 8.75400 4.92211   2
  -3   0   7 1.13945 6.65797   6
   2   0  -7 11.5177 6.81876   6
  -2   0   7 8.50354 6.43184   6
  -2   0   7 28.8210 6.40619   2
   1   0  -7 325.940 23.7339   3
   1   0  -7 358.643 22.3796   6
  -1   0   7 351.912 23.1469   1
  -1   0   7 331.882 23.9529   4
  -1   0   7 326.002 21.8819   6
  -1   0   7 336.564 25.8863   2
   0   0  -7 93.9229 7.71997   3
   0   0  -7 69.6818 8.36123   6
   0   0   7 78.1711 7.99243   6
   0   0   7 90.1855 8.07692   4
   0   0   7 98.5720 6.64995   1
   0   0   7 78.4679 10.0594   2
  -1   0  -7 87.2624 7.45137   6
  -1   0  -7 75.1734 7.78467   6
   1   0   7 105.577 8.21293   4
   1   0   7 94.1049 10.3871   2
   1   0   7 90.4325 7.00511   6
   1   0   7 86.9559 6.86379   1
  -2   0  -7 68.6231 6.59068   6
  -2   0  -7 71.3129 5.97398   6
   2   0   7 72.9852 9.69862   2
   2   0   7 86.2839 7.31275   4
   2   0   7 60.2249 6.38499   1
   3   0   7 215.834 15.0922   1
   3   0   7 218.457 15.3582   4
   3   0   7 178.184 17.9103   2
   4   0   7 13.9056 5.28341   4
   4   0   7 2.33244 6.94682   2
   4   0   7 6.37845 4.81954   1
   5   0   7 -0.0178 7.27180   2
   5   0   7 2.33117 5.91110   4
   5  -1  -7 77.0483 10.6070   3
   5  -1  -7 94.8163 11.9063   6
  -5   1   7 102.230 11.6383   6
  -5   1   7 80.2408 11.0077   4
   4  -1  -7 74.7140 8.95377   3
   4  -1  -7 74.9109 10.1046   6
  -4   1   7 55.4978 9.56879   4
  -4   1   7 94.5553 10.4262   6
   3  -1  -7 12.2920 6.73626   6
  -3   1   7 13.5947 6.52613   4
  -3   1   7 7.41670 6.62982   6
   2  -1  -7 224.931 16.2416   3
   2  -1  -7 226.270 16.1433   6
  -2   1   7 208.152 16.4481   4
  -2   1   7 227.363 17.7650   2
  -2   1   7 220.181 15.7781   6
   1  -1  -7 58.8162 7.49483   6
   1  -1  -7 78.2518 6.41048   3
  -1   1   7 52.5718 7.37405   6
  -1   1   7 65.9444 6.96835   4
   0  -1  -7 56.5484 7.43422   6
   0  -1  -7 73.7744 6.44127   3
   0   1   7 73.9969 7.03088   4
   0   1   7 59.6964 6.98800   6
   0   1   7 80.5515 6.09945   1
  -1  -1  -7 97.1196 8.18853   6
  -1  -1  -7 96.8378 8.50135   6
   1   1   7 113.856 9.01322   4
   1   1   7 96.7161 7.97743   6
   1   1   7 118.010 8.01931   1
  -2  -1  -7 8.06779 3.16455   6
  -2  -1  -7 6.82642 3.70262   6
   2   1   7 12.0830 3.83058   1
   2   1   7 19.8395 5.06701   4
   3   1   7 549.863 38.0888   4
   3   1   7 556.687 37.5033   1
  -4  -1  -7 91.6063 10.1744   5
   4   1   7 72.1975 8.47113   4
   4   1   7 82.7596 8.73278   1
  -5  -1  -7 39.7457 8.96595   5
   5   1   7 29.7972 7.43286   1
   5   1   7 20.0270 6.59612   4
   5  -2  -7 75.5466 10.4816   3
   5  -2  -7 82.9001 10.9227   6
  -5   2   7 73.1728 10.6498   4
  -5   2   7 96.6602 10.9796   6
   4  -2  -7 51.8736 8.99493   6
   4  -2  -7 44.1273 8.02389   3
  -4   2   7 30.7300 8.46086   4
  -4   2   7 67.3341 9.48817   6
   3  -2  -7 85.3944 8.81075   6
  -3   2   7 80.6738 8.57877   4
  -3   2   7 53.9059 7.88677   2
  -3   2   7 56.8431 8.71120   6
   2  -2  -7 445.605 26.8918   6
   2  -2  -7 405.969 28.8736   3
  -2   2   7 387.616 29.0444   4
  -2   2   7 431.383 28.6309   1
  -2   2   7 417.797 26.8622   6
   1  -2  -7 10.9227 4.97642   6
  -1   2   7 10.0979 4.91274   6
  -1   2   7 18.7396 4.79424   4
   0  -2  -7 340.917 20.9096   6
   0  -2  -7 334.733 22.3770   3
   0   2   7 300.784 22.8331   4
   0   2   7 335.028 22.2628   1
   0   2   7 320.375 20.7242   6
   1   2   7 4.24654 4.45073   4
   1   2   7 7.65714 3.35550   1
  -2  -2  -7 65.8736 6.08516   6
  -2  -2  -7 59.2154 5.63129   6
   2   2   7 80.3219 6.68342   1
   2   2   7 68.9998 7.20523   4
  -3  -2  -7 223.807 18.6005   5
   3   2   7 228.124 17.0493   4
   3   2   7 241.574 16.7506   1
  -4  -2  -7 2.19709 5.00043   5
   4   2   7 7.80325 5.84740   1
  -5  -2  -7 42.5476 9.31083   5
   5   2   7 26.0784 8.36102   1
   5  -3  -7 -2.5221 7.38014   3
   5  -3  -7 -1.7792 7.31822   6
  -5   3   7 -3.2722 6.66051   6
  -5   3   7 1.44974 7.02373   4
   4  -3  -7 2.83145 6.61532   3
   4  -3  -7 8.13619 6.27404   6
  -4   3   7 3.42043 6.92156   4
  -4   3   7 4.29715 6.52467   6
   3  -3  -7 325.273 24.4265   3
   3  -3  -7 376.668 22.7198   6
  -3   3   7 301.937 24.4411   4
  -3   3   7 371.712 23.0859   6
   2  -3  -7 409.096 28.2972   3
   2  -3  -7 418.899 26.1777   6
  -2   3   7 416.100 28.1739   1
  -2   3   7 373.240 28.4507   4
  -2   3   7 430.290 26.4728   6
   1  -3  -7 -1.2848 4.36421   6
  -1   3   7 8.18528 3.97429   1
  -1   3   7 0.47575 3.90644   4
  -1   3   7 -3.0828 4.74005   6
   0  -3  -7 44.9597 5.77612   6
   0   3   7 39.1930 6.35876   6
   0   3   7 61.6350 6.30505   4
   0   3   7 67.2446 6.16495   1
  -1  -3  -7 13.0607 4.02537   6
  -1  -3  -7 14.3166 3.90334   6
   1   3   7 19.1247 4.73393   1
   1   3   7 16.0300 4.42240   6
   1   3   7 18.5538 5.26680   4
  -2  -3  -7 228.434 14.4985   6
  -2  -3  -7 213.873 14.3894   6
  -2  -3  -7 226.766 17.9765   5
   2   3   7 226.707 16.7077   4
   2   3   7 237.727 16.3251   1
  -3  -3  -7 43.7640 7.42004   5
  -3  -3  -7 43.6556 4.46936   6
   3   3   7 37.9856 6.83809   1
  -4  -3  -7 12.6479 5.29918   5
   4   3   7 12.4352 6.54488   1
  -5  -3  -7 8.73949 5.94610   5
   5   3   7 15.0824 7.40606   1
   5  -4  -7 3.63610 7.41942   6
  -5   4   7 7.27686 7.20449   6
  -5   4   7 6.66312 6.91945   4
   4  -4  -7 195.011 14.6242   6
  -4   4   7 210.068 15.1162   6
  -4   4   7 178.157 15.5175   4
   3  -4  -7 375.360 24.3662   6
   3  -4  -7 369.257 26.5424   3
  -3   4   7 413.768 24.8652   6
  -3   4   7 357.708 26.4854   4
  -3   4   7 363.620 26.4307   1
   2  -4  -7 23.7690 5.30873   3
   2  -4  -7 23.1143 6.39603   6
  -2   4   7 32.2800 5.84840   4
  -2   4   7 18.3128 5.88003   6
  -2   4   7 32.8225 5.96704   1
   1  -4  -7 63.7533 6.60954   6
   1  -4  -7 70.2708 6.01216   3
  -1   4   7 59.9922 6.96694   1
  -1   4   7 69.0330 7.44078   6
  -1   4   7 61.2255 6.46592   4
   0  -4  -7 238.262 15.1196   6
   0   4   7 228.986 16.7917   4
   0   4   7 230.497 16.5420   1
   0   4   7 223.707 15.2981   6
  -1  -4  -7 134.522 9.91917   6
   1   4   7 152.490 11.1439   1
   1   4   7 144.106 10.0593   6
   1   4   7 141.527 11.4890   4
  -2  -4  -7 225.936 14.8020   6
  -2  -4  -7 237.009 14.8132   6
  -2  -4  -7 235.786 18.3577   5
   2   4   7 221.170 17.0030   4
   2   4   7 229.008 16.8076   1
   2   4   7 230.461 14.6063   6
  -3  -4  -7 49.5181 8.16744   5
  -3  -4  -7 53.2650 5.20141   6
   3   4   7 52.5335 7.65240   1
  -4  -4  -7 12.5593 3.85113   6
  -4  -4  -7 9.89485 5.10777   5
   4   4   7 12.9048 6.22726   1
  -5  -4  -7 44.4662 10.2837   5
   5   4   7 45.6112 9.65086   1
   5  -5  -7 99.7177 11.3703   6
  -5   5   7 104.812 11.6319   6
   4  -5  -7 64.1581 8.73962   6
  -4   5   7 87.8606 10.1029   6
  -4   5   7 77.4577 9.19555   4
   3  -5  -7 143.960 11.4965   6
  -3   5   7 150.127 12.1321   6
  -3   5   7 121.277 11.9593   1
  -3   5   7 151.491 11.9398   4
   2  -5  -7 100.401 8.59162   6
  -2   5   7 94.3108 9.30464   1
  -2   5   7 101.625 9.48524   6
  -2   5   7 97.7505 9.02901   4
   1  -5  -7 0.61886 3.15524   3
   1  -5  -7 2.47299 4.03391   6
  -1   5   7 3.84097 4.64466   1
  -1   5   7 7.68350 4.59923   4
  -1   5   7 9.21104 4.98014   6
   0  -5  -7 130.397 9.67071   6
   0   5   7 131.964 10.0963   6
   0   5   7 132.759 10.6764   4
   0   5   7 125.620 10.7010   1
  -1  -5  -7 64.6350 6.30990   6
  -1  -5  -7 62.7549 7.07360   5
   1   5   7 57.5573 7.45781   4
   1   5   7 61.5191 6.45456   6
   1   5   7 68.0517 7.22071   1
  -2  -5  -7 101.991 7.86913   6
  -2  -5  -7 102.631 10.0721   5
   2   5   7 100.965 9.50104   1
   2   5   7 101.262 7.78281   6
  -3  -5  -7 10.0317 3.76159   6
  -3  -5  -7 12.6746 5.36033   5
   3   5   7 12.5940 6.28866   1
  -4  -5  -7 4.86547 3.83483   6
  -4  -5  -7 6.07351 5.88108   5
   4   5   7 -0.1979 6.72435   1
  -5  -5  -7 39.1934 10.7899   5
  -5  -5  -7 40.1524 5.76930   6
   5   5   7 35.8074 9.45468   1
   4  -6  -7 99.9879 9.93150   6
  -4   6   7 86.5882 10.5359   4
  -4   6   7 117.728 10.8505   6
   3  -6  -7 5.98897 5.59246   6
  -3   6   7 2.25099 6.28395   6
  -3   6   7 3.31676 5.74109   1
  -3   6   7 19.4671 6.27839   4
   2  -6  -7 24.3018 5.94951   6
  -2   6   7 33.4830 6.04856   4
  -2   6   7 38.1000 7.77247   6
   1  -6  -7 273.567 16.5138   6
  -1   6   7 244.188 17.8658   4
  -1   6   7 208.617 17.8851   1
  -1   6   7 260.918 16.9529   6
   0  -6  -7 388.405 23.9688   6
   0   6   7 344.114 26.3595   1
   0   6   7 384.712 24.2250   6
   0   6   7 399.981 26.7215   4
  -1  -6  -7 259.544 19.4951   5
  -1  -6  -7 261.699 16.1740   6
   1   6   7 237.143 17.9533   1
   1   6   7 229.633 16.2301   6
   1   6   7 245.512 18.2945   4
  -2  -6  -7 18.3282 4.77449   6
  -2  -6  -7 8.61022 4.35476   5
   2   6   7 14.8681 5.84997   1
   2   6   7 12.2438 4.06632   6
  -3  -6  -7 48.5598 6.00693   6
  -3  -6  -7 48.4023 8.81079   5
   3   6   7 37.4931 8.32223   1
  -4  -6  -7 117.412 13.3220   5
  -4  -6  -7 124.276 9.55511   6
   4   6   7 115.701 12.1725   1
  -5  -6  -7 22.8464 6.27590   6
   5   6   7 20.7541 8.64020   1
   4  -7  -7 121.712 11.4835   6
  -4   7   7 106.527 11.7423   1
  -4   7   7 127.026 11.8694   6
   3  -7  -7 64.2214 8.03604   6
  -3   7   7 67.9074 9.25426   6
  -3   7   7 63.7114 8.67404   1
  -3   7   7 52.6159 7.47380   4
   2  -7  -7 24.6506 6.43883   6
  -2   7   7 32.6862 7.72931   6
  -2   7   7 19.8305 6.51597   1
  -2   7   7 17.8846 5.47119   4
   1  -7  -7 154.172 11.1202   6
  -1   7   7 135.906 11.8350   4
  -1   7   7 142.898 12.5197   1
  -1   7   7 152.274 11.8487   6
   0  -7  -7 620.315 37.4801   6
   0   7   7 616.805 37.6493   6
   0   7   7 573.219 41.5387   4
  -1  -7  -7 496.114 38.5756   5
  -1  -7  -7 566.311 32.2112   6
   1   7   7 551.640 32.3756   6
   1   7   7 471.352 35.3733   1
   1   7   7 490.585 35.7813   4
  -2  -7  -7 1.56782 4.37651   6
  -2  -7  -7 -8.3961 4.77595   5
   2   7   7 1.19042 4.77546   6
   2   7   7 0.51101 5.35508   1
  -3  -7  -7 29.3052 9.10164   5
  -3  -7  -7 32.7268 6.00117   6
   3   7   7 29.5733 8.09051   1
  -4  -7  -7 12.5911 5.59051   6
  -4  -7  -7 3.78280 6.61386   5
   4   7   7 12.9792 8.16607   1
   3  -8  -7 26.7684 7.22069   6
  -3   8   7 29.1550 8.78526   6
  -3   8   7 9.97737 7.21399   1
  -2   8   7 12.9841 5.89162   1
  -2   8   7 8.53778 4.83267   4
   1  -8  -7 100.317 9.21250   6
  -1   8   7 82.3043 10.2253   1
  -1   8   7 110.838 10.0269   6
  -1   8   7 100.824 9.44562   4
   0  -8  -7 109.989 9.64422   6
   0  -8  -7 105.035 10.3590   5
   0   8   7 115.556 10.6421   4
   0   8   7 104.970 10.8344   1
   0   8   7 136.378 10.8565   6
  -1  -8  -7 42.7854 7.11803   5
  -1  -8  -7 43.4736 6.26661   6
   1   8   7 56.2984 7.61909   6
   1   8   7 39.8794 7.98235   4
   1   8   7 49.3901 7.77471   1
  -2  -8  -7 0.35573 5.16315   5
  -2  -8  -7 -3.1690 4.81539   6
   2   8   7 3.33003 5.84105   6
   2   8   7 -0.0134 5.82380   1
  -3  -8  -7 45.5983 7.17642   6
  -3  -8  -7 47.1300 10.0861   5
   3   8   7 37.6383 9.01080   1
  -4  -8  -7 -8.6384 6.78528   5
  -4  -8  -7 7.02057 6.07774   6
   4   8   7 -2.5485 8.61734   1
   3  -9  -7 -0.1270 6.26100   6
  -3   9   7 -6.3400 7.76842   6
  -3   9   7 5.52814 6.98046   1
   2  -9  -7 297.307 20.5864   6
  -2   9   7 308.332 21.1458   6
   1  -9  -7 213.318 15.0574   6
  -1   9   7 190.430 15.8030   4
  -1   9   7 242.280 15.8157   6
  -1   9   7 180.568 16.3545   1
   0  -9  -7 50.4957 7.34985   5
   0  -9  -7 59.0066 7.62646   6
   0   9   7 57.2437 8.87229   6
   0   9   7 59.1560 8.23003   4
   0   9   7 62.4318 8.93591   1
  -1  -9  -7 51.7222 7.05661   6
  -1  -9  -7 47.9515 7.82607   5
   1   9   7 64.9774 8.81752   6
   1   9   7 52.1541 8.54029   4
   1   9   7 53.4839 8.47510   1
  -2  -9  -7 62.2637 7.58837   6
  -2  -9  -7 58.4637 9.59078   5
   2   9   7 53.5274 9.11392   1
  -3  -9  -7 15.4921 6.92364   5
  -3  -9  -7 30.8213 7.23189   6
   3   9   7 25.6449 8.70115   1
   2 -10  -7 32.8090 8.27991   6
  -2  10   7 23.2574 7.86278   1
  -2  10   7 21.7159 7.92555   6
   1 -10  -7 144.035 12.2758   6
  -1  10   7 174.737 13.7209   6
  -1  10   7 141.727 13.5259   1
  -1  10   7 129.231 12.3801   4
   0 -10  -7 -7.6150 6.31705   6
   0  10   7 -3.0548 6.59161   4
   0  10   7 6.54174 7.64246   6
   0  10   7 1.25699 7.28412   1
  -1 -10  -7 6.37373 5.19146   5
  -1 -10  -7 8.34326 5.73463   6
   1  10   7 23.5321 8.06984   6
   1  10   7 1.77686 6.88990   1
   1  10   7 23.6012 8.04189   4
  -2 -10  -7 55.8084 7.89825   6
  -2 -10  -7 47.6574 9.91936   5
   2  10   7 42.3267 9.30840   1
  -3 -10  -7 4.16049 6.72149   5
  -3 -10  -7 11.1182 6.83404   6
   3  10   7 2.34749 8.06968   1
   0 -11  -7 5.44757 7.16982   6
   0  11   7 3.26452 7.17918   1
   0  11   7 2.47731 7.17096   4
   0  11   7 20.3757 8.73607   6
  -1 -11  -7 86.9639 9.63149   6
   1  11   7 94.4409 10.7043   4
   1  11   7 84.0851 11.3717   1
   1   6  -8 -4.0642 7.93168   6
  -1  -6   8 9.15362 8.26825   6
  -1  -6   8 11.7988 8.36385   4
   0  -6   8 93.2547 11.0540   4
  -1   6  -8 4.40875 8.54343   6
   1  -6   8 51.1758 8.49186   4
  -2   6  -8 94.9686 10.6451   6
   2   5  -8 75.3605 11.6017   6
   2   5  -8 57.8126 10.6432   3
  -2  -5   8 78.2396 10.9542   4
  -2  -5   8 73.2458 11.0903   6
   1   5  -8 4.11843 8.47734   6
  -1  -5   8 37.1774 8.41936   4
  -1  -5   8 13.9857 8.12476   6
   0   5  -8 -3.3814 7.24212   6
   0  -5   8 2.84473 8.13813   2
   0  -5   8 0.09286 6.99013   6
   0  -5   8 11.5506 6.90060   4
  -1   5  -8 19.4670 7.30610   6
   1  -5   8 20.3089 9.27028   2
   2  -5   8 31.1708 11.0748   2
   2  -5   8 41.4503 7.48936   4
  -3   5  -8 14.1863 5.78839   6
   3  -5   8 32.6116 11.5184   2
   3   4  -8 54.8208 11.5707   6
   3   4  -8 46.5219 9.77198   3
  -3  -4   8 44.8876 8.89262   6
  -3  -4   8 44.4801 9.93707   4
   2   4  -8 22.2647 7.61458   3
   2   4  -8 37.8939 10.1388   6
  -2  -4   8 31.6920 9.12073   6
  -2  -4   8 47.9600 8.70155   4
   1   4  -8 23.9422 8.79690   6
   1   4  -8 42.4395 9.07143   3
  -1  -4   8 33.9400 9.56210   2
  -1  -4   8 42.0163 8.41425   4
   0   4  -8 -14.061 7.33933   6
   0  -4   8 10.5605 5.96331   4
   0  -4   8 0.12827 8.09238   2
   0  -4   8 -12.786 6.52895   6
  -1   4  -8 114.886 10.8594   6
   1  -4   8 113.777 11.0840   4
   1  -4   8 107.915 13.8531   2
  -2   4  -8 -13.064 5.39646   6
   2  -4   8 1.74747 6.03092   4
   2  -4   8 1.18820 8.33737   2
  -3   4  -8 72.3029 7.87181   6
   3  -4   8 79.0967 12.9720   2
   4   3  -8 6.76824 7.68015   3
   4   3  -8 9.99663 9.70279   6
  -4  -3   8 6.70469 7.86343   4
  -4  -3   8 -0.5671 8.11522   6
   3   3  -8 216.662 18.8157   3
   3   3  -8 281.217 19.1939   6
  -3  -3   8 251.565 18.1106   6
  -3  -3   8 227.985 19.1508   4
   2   3  -8 -2.5198 7.45032   3
   2   3  -8 8.01923 7.36502   6
  -2  -3   8 2.86407 6.98207   2
  -2  -3   8 9.32866 7.15417   4
  -2  -3   8 4.43026 6.33595   6
   1   3  -8 38.7465 8.52305   6
   1   3  -8 36.3968 7.90343   3
  -1  -3   8 46.8749 8.12098   6
  -1  -3   8 42.6278 9.69075   2
  -1  -3   8 35.4709 7.72886   4
   0   3  -8 161.224 13.4895   6
   0  -3   8 157.759 13.1874   6
   0  -3   8 159.126 16.2122   2
   0  -3   8 181.799 13.8823   4
  -1   3  -8 95.6179 9.55358   6
   1  -3   8 88.9498 12.0555   2
   1  -3   8 85.0450 9.52579   4
  -2   3  -8 37.8650 6.52568   6
   2  -3   8 14.7538 8.81865   2
   2  -3   8 36.9011 7.33012   4
  -3   3  -8 0.02209 4.16288   6
   3  -3   8 -3.4360 8.12941   2
   3  -3   8 -0.9281 5.64782   4
  -4   3  -8 5.68521 3.97955   6
   4  -3   8 7.32974 9.01650   2
   4   2  -8 4.99801 7.08914   3
   4   2  -8 1.62701 9.25007   6
  -4  -2   8 -0.3011 7.08239   4
  -4  -2   8 0.37844 8.45154   6
   3   2  -8 367.597 22.9406   6
   3   2  -8 269.434 23.3691   3
  -3  -2   8 306.444 23.7189   4
  -3  -2   8 335.816 22.1406   6
   2   2  -8 -2.1378 6.13849   3
   2   2  -8 0.28402 7.57287   6
  -2  -2   8 -1.5334 6.37868   2
  -2  -2   8 6.53470 6.48392   4
  -2  -2   8 3.67365 6.23527   6
   1   2  -8 18.5860 7.24573   6
   1   2  -8 9.50970 5.56484   3
  -1  -2   8 16.9388 6.03775   6
  -1  -2   8 16.3616 6.97674   2
  -1  -2   8 11.9686 6.69330   4
   0   2  -8 173.959 13.4300   6
   0  -2   8 162.804 12.7312   6
   0  -2   8 158.883 15.6742   2
   0  -2   8 176.266 13.9842   4
  -1   2  -8 -2.4701 5.78114   6
   1  -2   8 -5.0885 7.33867   2
   1  -2   8 -5.2821 4.58581   6
  -2   2  -8 23.6777 5.73100   6
   2  -2   8 31.9812 6.51667   4
   2  -2   8 7.84761 8.25380   2
  -3   2  -8 21.3307 4.77964   6
   3  -2   8 22.5610 5.89803   4
   3  -2   8 10.9219 8.56441   2
   4  -2   8 -2.3654 6.30755   4
   4  -2   8 -2.7275 7.78930   2
   4   1  -8 43.5629 10.7032   6
   4   1  -8 45.5675 8.96951   3
  -4  -1   8 31.7710 9.72405   4
  -4  -1   8 36.9385 10.6193   6
   3   1  -8 27.8000 7.35811   3
   3   1  -8 18.2001 8.84497   6
  -3  -1   8 18.4271 7.39567   4
  -3  -1   8 18.6876 6.40253   2
  -3  -1   8 33.3522 9.25218   6
   2   1  -8 22.5620 6.65138   3
   2   1  -8 38.3976 9.07819   6
  -2  -1   8 35.9708 8.39720   6
  -2  -1   8 20.2116 6.72441   4
  -2  -1   8 26.5288 7.56006   2
   1   1  -8 148.810 12.5239   3
   1   1  -8 165.253 13.3185   6
  -1  -1   8 151.686 14.6090   2
  -1  -1   8 150.782 12.2889   6
  -1  -1   8 161.236 12.9856   4
   0   1  -8 117.478 11.1238   6
   0  -1   8 126.562 10.1386   6
   0  -1   8 122.613 12.9507   2
   0  -1   8 125.293 10.8694   4
  -1   1  -8 18.1276 5.68135   6
   1  -1   8 26.0343 8.46660   2
   1  -1   8 20.9888 4.87134   6
   1  -1   8 28.8318 6.06686   4
  -2   1  -8 71.8372 7.43116   6
   2  -1   8 75.7939 7.49929   4
   2  -1   8 63.7385 10.5890   2
  -3   1  -8 63.8821 6.04791   6
   3  -1   8 83.0150 11.3360   2
   3  -1   8 62.7492 6.93136   1
   4  -1   8 45.2030 7.01271   1
   4  -1   8 32.7883 10.5062   2
   4  -1   8 40.5922 7.31847   4
   5  -1   8 75.0723 8.55917   1
   5  -1   8 59.4473 8.62676   4
   5  -1   8 74.0530 11.6085   2
   4   0  -8 88.2457 11.4769   6
   4   0  -8 67.4397 9.18792   3
  -4   0   8 71.4730 9.94341   4
  -4   0   8 80.7943 10.6913   6
   3   0  -8 107.863 11.5503   6
   3   0  -8 94.7401 9.78955   3
  -3   0   8 97.4367 10.4942   4
  -3   0   8 83.7797 9.78078   2
  -3   0   8 93.7254 10.4931   6
   2   0  -8 19.6613 7.19581   6
   2   0  -8 7.98333 6.74021   3
  -2   0   8 16.1454 6.46899   6
  -2   0   8 21.3342 7.19848   2
   1   0  -8 457.595 29.8007   6
   1   0  -8 456.065 32.1335   3
  -1   0   8 497.510 34.9575   2
  -1   0   8 456.627 29.3313   6
  -1   0   8 444.666 32.2659   4
   0   0  -8 28.3423 7.15331   6
   0   0   8 37.6117 8.85201   2
   0   0   8 41.8586 6.51246   6
  -1   0  -8 86.9992 8.65871   6
  -1   0  -8 92.5854 8.70399   6
   1   0   8 103.850 8.58351   4
   1   0   8 92.8282 7.64443   6
   1   0   8 95.4810 11.2971   2
   1   0   8 93.8655 7.37973   1
  -2   0  -8 16.9019 4.98934   6
   2   0   8 19.2953 6.11231   4
   2   0   8 11.1470 7.43977   2
   3   0   8 374.656 28.9521   2
   3   0   8 380.227 25.7166   4
   3   0   8 335.579 24.9907   1
   4   0   8 361.601 26.1183   2
   4   0   8 307.623 22.5564   4
   4   0   8 283.940 22.3266   1
   5   0   8 0.85594 7.68072   2
   5   0   8 1.27136 5.93907   1
   5   0   8 2.22036 6.06880   4
   5  -1  -8 42.3131 10.9274   6
   5  -1  -8 36.1231 8.63562   3
  -5   1   8 23.1953 8.43707   4
  -5   1   8 57.4713 10.7374   6
   4  -1  -8 27.7542 7.54534   3
   4  -1  -8 17.6135 7.85283   6
  -4   1   8 16.9315 8.29994   6
  -4   1   8 29.5831 8.25760   4
   3  -1  -8 94.9203 10.8677   6
   3  -1  -8 88.6491 9.33935   3
  -3   1   8 77.5150 9.33358   2
  -3   1   8 78.7722 10.1081   6
  -3   1   8 99.0611 9.78277   4
   2  -1  -8 174.346 13.9271   3
   2  -1  -8 179.791 14.2657   6
  -2   1   8 181.090 14.1334   4
  -2   1   8 168.928 15.4847   2
  -2   1   8 187.037 13.9233   6
   1  -1  -8 81.6759 7.66222   3
   1  -1  -8 54.9040 9.11164   6
  -1   1   8 88.6210 8.24716   4
  -1   1   8 93.5403 9.70509   2
  -1   1   8 62.1230 8.52211   6
   0  -1  -8 343.024 21.3631   6
   0   1   8 312.206 23.0935   4
   0   1   8 315.978 21.0138   6
   0   1   8 334.248 22.3093   1
  -1  -1  -8 65.7180 7.56720   6
  -1  -1  -8 57.6753 6.68086   6
   1   1   8 71.2795 7.60125   4
   1   1   8 80.9241 6.31915   1
   1   1   8 69.5931 6.57772   6
  -2  -1  -8 56.9865 6.05199   6
  -2  -1  -8 53.2733 5.72770   6
   2   1   8 44.5181 5.87339   1
   2   1   8 57.2176 7.01737   4
   3   1   8 275.937 19.5253   4
   3   1   8 257.956 18.9673   1
   4   1   8 215.340 16.0054   4
   4   1   8 218.787 18.5137   2
   4   1   8 195.540 15.7827   1
   5   1   8 11.2697 6.35779   4
   5   1   8 17.3803 8.02063   2
   5   1   8 18.8345 6.67866   1
   5  -2  -8 37.9148 9.39683   3
   5  -2  -8 46.1168 9.83066   6
  -5   2   8 31.4255 9.21633   4
  -5   2   8 53.4192 10.1430   6
   4  -2  -8 31.6654 9.19476   6
   4  -2  -8 32.0195 7.64103   3
  -4   2   8 29.4941 8.17938   4
  -4   2   8 33.1881 9.49924   6
   3  -2  -8 35.9285 8.81230   6
  -3   2   8 25.6715 6.33426   2
  -3   2   8 34.7480 8.76027   6
   2  -2  -8 822.371 46.5382   6
   2  -2  -8 665.216 50.7228   3
  -2   2   8 690.990 50.1219   1
  -2   2   8 807.933 46.5208   6
   1  -2  -8 16.2940 4.35849   3
   1  -2  -8 -0.1498 5.57384   6
  -1   2   8 13.2118 5.09270   4
   0  -2  -8 124.259 10.6813   6
   0   2   8 138.864 10.6057   4
  -1  -2  -8 344.127 21.5312   6
  -1  -2  -8 319.142 21.5227   6
   1   2   8 346.581 23.1343   1
   1   2   8 307.991 23.7357   4
   1   2   8 365.341 21.3290   6
  -2  -2  -8 248.434 17.2703   6
  -2  -2  -8 277.590 17.4407   6
   2   2   8 265.096 19.5444   4
   2   2   8 292.561 19.1127   1
   3   2   8 171.017 13.6464   4
   3   2   8 172.104 13.2357   1
  -4  -2  -8 46.2458 8.49789   5
   4   2   8 29.0132 7.35305   4
   4   2   8 40.0101 7.00424   1
  -5  -2  -8 32.6966 9.30698   5
   5   2   8 34.5504 8.28242   1
   5   2   8 16.8647 6.77277   4
  -5   3   8 51.2599 10.0131   4
   4  -3  -8 39.4376 8.28258   3
   4  -3  -8 49.3612 9.44857   6
  -4   3   8 60.3047 9.03461   6
  -4   3   8 63.6421 8.86642   4
   3  -3  -8 18.4561 6.34395   6
   3  -3  -8 35.0799 6.71699   3
  -3   3   8 17.0330 6.76418   6
   2  -3  -8 258.200 17.5822   6
   2  -3  -8 264.765 18.3672   3
  -2   3   8 260.900 17.9979   6
  -2   3   8 247.624 18.2668   1
  -2   3   8 232.808 18.6465   4
   1  -3  -8 78.0675 6.96537   3
   1  -3  -8 79.0139 7.94965   6
  -1   3   8 81.3168 7.32148   1
  -1   3   8 71.0124 8.42259   6
  -1   3   8 72.1459 7.80143   4
   0  -3  -8 34.2040 6.71891   6
   0   3   8 52.9083 6.13797   1
   0   3   8 56.3326 6.53054   4
  -1  -3  -8 487.024 28.9081   6
   1   3   8 432.128 32.1143   4
   1   3   8 478.882 31.6277   1
   1   3   8 421.950 31.4416   3
   1   3   8 502.719 28.7646   6
  -2  -3  -8 334.575 20.1225   6
  -2  -3  -8 296.780 20.0538   6
   2   3   8 329.099 22.3336   1
   2   3   8 313.047 22.7550   4
  -3  -3  -8 143.217 13.1259   5
  -3  -3  -8 157.314 9.93583   6
   3   3   8 143.437 11.9012   1
   3   3   8 132.649 12.2369   4
  -4  -3  -8 50.8663 8.96565   5
   4   3   8 47.0520 7.77641   1
   4   3   8 37.3497 8.00024   4
  -5  -3  -8 41.6665 9.96087   5
   5   3   8 36.8694 9.12311   1
   4  -4  -8 11.1763 7.02814   6
   4  -4  -8 4.81544 6.16077   3
  -4   4   8 17.7647 6.95059   4
  -4   4   8 4.19457 7.10428   6
   3  -4  -8 96.4022 10.3957   3
   3  -4  -8 112.065 10.3600   6
  -3   4   8 116.238 10.7613   4
  -3   4   8 117.863 10.6405   1
  -3   4   8 122.910 11.0139   6
   2  -4  -8 5.89234 5.18855   6
  -2   4   8 3.30829 5.49343   1
  -2   4   8 8.53965 6.16122   6
   1  -4  -8 61.3306 6.01072   3
   1  -4  -8 71.7038 7.13206   6
  -1   4   8 58.0895 6.93379   1
  -1   4   8 70.7822 7.86290   6
  -1   4   8 56.2396 7.07911   4
   0  -4  -8 260.538 17.1849   6
   0   4   8 266.972 17.5508   6
   0   4   8 263.416 19.2940   4
   0   4   8 272.976 18.9843   1
  -1  -4  -8 58.6643 6.16205   6
   1   4   8 62.2803 7.37713   4
   1   4   8 53.8858 6.41680   6
   1   4   8 58.6114 6.78011   1
  -2  -4  -8 316.410 19.8211   6
  -2  -4  -8 311.504 24.3723   5
   2   4   8 299.751 22.1406   1
   2   4   8 348.590 19.6773   6
   2   4   8 287.274 22.5419   4
  -3  -4  -8 3.66037 4.60868   5
  -3  -4  -8 -5.2327 3.46650   6
   3   4   8 0.61846 5.83653   4
   3   4   8 1.97759 5.82780   1
  -4  -4  -8 6.01171 5.40113   5
   4   4   8 2.62500 6.41766   1
  -5  -4  -8 -0.9351 6.06762   5
   5   4   8 4.61955 7.16551   1
   4  -5  -8 7.37115 6.35874   6
  -4   5   8 10.6294 7.17866   6
  -4   5   8 3.35558 7.27778   4
   3  -5  -8 153.170 13.6547   3
   3  -5  -8 178.708 12.8605   6
  -3   5   8 186.239 13.6342   6
  -3   5   8 163.298 13.5797   4
  -3   5   8 155.640 13.4597   1
   2  -5  -8 36.9262 5.99902   3
   2  -5  -8 36.9056 6.63459   6
  -2   5   8 41.1035 7.52815   6
  -2   5   8 30.1335 6.95127   1
  -2   5   8 38.7618 6.87086   4
   1  -5  -8 97.9507 8.16207   6
  -1   5   8 99.4037 9.04997   6
  -1   5   8 95.5580 9.16049   1
  -1   5   8 94.1303 8.77698   4
   0  -5  -8 446.000 27.8850   6
   0   5   8 420.005 30.6318   1
   0   5   8 485.927 28.1737   6
   0   5   8 430.689 31.0546   4
  -1  -5  -8 460.003 28.4288   6
   1   5   8 443.223 31.3322   1
   1   5   8 442.738 31.8358   4
   1   5   8 476.510 28.4938   6
  -2  -5  -8 154.820 10.7873   6
  -2  -5  -8 150.338 13.3814   5
   2   5   8 144.254 12.6883   4
   2   5   8 145.476 12.2612   1
   2   5   8 161.405 10.7254   6
  -3  -5  -8 28.7878 7.98106   5
  -3  -5  -8 33.2427 5.17183   6
   3   5   8 30.0632 7.48222   1
  -4  -5  -8 184.225 12.1224   6
  -4  -5  -8 183.712 16.6132   5
   4   5   8 166.807 14.9684   1
  -5  -5  -8 14.7692 6.71820   5
   5   5   8 29.7829 8.50055   1
   4  -6  -8 57.7579 8.60185   6
  -4   6   8 65.6920 9.72985   6
  -4   6   8 54.1338 8.81102   4
   3  -6  -8 12.7179 6.18021   6
  -3   6   8 15.1139 5.68731   4
  -3   6   8 18.7408 6.92200   6
  -3   6   8 12.8267 6.10385   1
   2  -6  -8 17.9613 5.84891   3
   2  -6  -8 37.0698 6.52370   6
  -2   6   8 24.3216 6.75040   1
  -2   6   8 46.9915 7.75211   6
  -2   6   8 33.3677 6.61268   4
   1  -6  -8 13.7500 4.88624   6
  -1   6   8 17.8782 5.81364   4
  -1   6   8 27.1772 6.98795   6
  -1   6   8 31.2324 7.43685   1
   0  -6  -8 83.2984 7.77317   6
   0   6   8 73.8700 8.77103   1
   0   6   8 75.8851 8.74885   4
   0   6   8 89.3381 8.42487   6
  -1  -6  -8 1015.67 57.0339   6
  -1  -6  -8 853.628 68.6758   5
   1   6   8 914.318 63.5745   4
   1   6   8 866.592 62.7363   1
   1   6   8 1016.63 57.1222   6
  -2  -6  -8 14.8653 4.62895   6
  -2  -6  -8 10.1487 4.73157   5
   2   6   8 11.6982 6.18472   4
   2   6   8 20.6572 6.59153   1
  -3  -6  -8 58.2492 6.77939   6
  -3  -6  -8 47.7426 8.84737   5
   3   6   8 40.8564 8.50163   1
  -4  -6  -8 76.6713 7.08937   6
  -4  -6  -8 70.4694 10.5494   5
   4   6   8 64.3991 10.3595   1
  -5  -6  -8 -1.1775 7.47784   5
   4  -7  -8 29.3649 8.12826   6
  -4   7   8 33.6279 8.57133   1
  -4   7   8 37.3258 9.37064   6
   3  -7  -8 73.3048 8.36792   6
  -3   7   8 56.7069 8.54312   1
  -3   7   8 71.3369 9.21873   6
  -3   7   8 50.9237 8.10644   4
   2  -7  -8 26.8599 6.34963   6
  -2   7   8 13.6331 6.28229   1
  -2   7   8 13.6034 5.76812   4
  -2   7   8 33.8010 7.93557   6
   1  -7  -8 224.673 14.6449   6
  -1   7   8 185.488 15.9892   1
  -1   7   8 218.735 15.2918   6
  -1   7   8 197.309 15.7063   4
   0  -7  -8 64.3370 7.28510   6
   0   7   8 56.3339 8.51452   1
   0   7   8 53.4636 8.17247   6
   0   7   8 69.3744 8.30932   4
  -1  -7  -8 9.59662 4.33203   5
  -1  -7  -8 11.8231 4.79412   6
   1   7   8 8.04594 5.42262   1
   1   7   8 4.66231 5.62192   6
   1   7   8 8.94646 6.20720   4
  -2  -7  -8 80.7077 9.78265   5
  -2  -7  -8 99.8943 8.18985   6
   2   7   8 77.7669 9.73231   4
   2   7   8 79.8451 9.27234   1
  -3  -7  -8 29.9979 9.00133   5
  -3  -7  -8 38.3462 6.24076   6
   3   7   8 33.1053 8.22303   1
  -4  -7  -8 8.55127 5.19978   6
  -4  -7  -8 10.0175 6.89362   5
   4   7   8 8.29774 8.47076   1
   3  -8  -8 0.38651 6.21503   6
  -3   8   8 -7.2266 7.34922   6
  -3   8   8 0.82857 6.96016   1
   2  -8  -8 26.8730 7.09585   6
  -2   8   8 10.3348 5.92496   1
  -2   8   8 30.9451 8.81687   6
  -2   8   8 5.41083 5.34254   4
   1  -8  -8 226.917 15.3176   6
  -1   8   8 189.201 16.9103   1
  -1   8   8 191.403 16.3943   4
  -1   8   8 256.942 16.2867   6
   0  -8  -8 237.225 16.5956   6
   0   8   8 243.861 18.4127   4
   0   8   8 259.655 17.1050   6
   0   8   8 228.266 18.4824   1
  -1  -8  -8 8.90527 5.16977   6
  -1  -8  -8 3.77103 4.54967   5
   1   8   8 3.79186 5.96054   6
   1   8   8 -0.7763 6.76043   4
   1   8   8 5.36686 6.06329   1
  -2  -8  -8 85.3391 7.95323   6
  -2  -8  -8 90.9017 10.1555   5
   2   8   8 71.3905 9.74429   1
  -3  -8  -8 186.831 17.1142   5
  -3  -8  -8 189.629 13.2437   6
   3   8   8 164.773 15.5346   1
  -4  -8  -8 -3.9212 5.46018   6
   4   8   8 -10.391 8.63355   1
   2  -9  -8 33.6790 8.18737   6
  -2   9   8 41.4166 9.57698   6
   1  -9  -8 3.60502 6.04747   6
  -1   9   8 7.42540 6.82181   1
  -1   9   8 12.9537 6.53508   4
  -1   9   8 11.5695 7.70301   6
   0  -9  -8 27.3483 7.32959   6
   0   9   8 33.3633 8.54038   6
   0   9   8 25.4557 7.49504   4
   0   9   8 23.7647 8.16697   1
  -1  -9  -8 15.5988 6.10094   6
  -1  -9  -8 5.39575 4.65913   5
   1   9   8 26.5798 8.06851   6
   1   9   8 9.39936 7.30313   4
   1   9   8 2.17771 6.26274   1
  -2  -9  -8 0.00570 5.17375   5
  -2  -9  -8 5.90116 5.48086   6
   2   9   8 -1.4958 5.89356   1
  -3  -9  -8 15.0520 6.08880   6
  -3  -9  -8 7.23913 6.76291   5
   3   9   8 8.29639 7.32753   1
   2 -10  -8 66.8109 9.22621   6
  -2  10   8 80.1521 10.8401   6
  -2  10   8 50.9177 9.69127   1
   1 -10  -8 142.476 11.8825   6
  -1  10   8 121.847 12.8842   1
  -1  10   8 116.451 12.1583   4
  -1  10   8 162.390 12.9683   6
   0 -10  -8 0.66764 6.16802   6
   0  10   8 10.6154 7.57261   1
   0  10   8 4.12620 7.03758   4
   0  10   8 3.15344 7.98146   6
  -1 -10  -8 28.3881 7.91235   5
  -1 -10  -8 30.2063 7.48048   6
   1  10   8 23.5580 7.89160   6
   1  10   8 30.1903 9.10581   1
   1  10   8 25.2601 8.52452   4
  -2 -10  -8 69.1570 8.45862   6
  -2 -10  -8 61.5739 10.3034   5
   2  10   8 51.2111 10.0021   1
   1   5  -9 9.26272 9.08204   6
  -1  -5   9 35.2870 9.04698   4
  -1  -5   9 16.3890 8.55857   6
   0   5  -9 -9.0044 7.86200   6
   0  -5   9 0.21000 8.95841   2
   0  -5   9 14.0310 7.65050   4
  -1   5  -9 19.2383 7.77496   6
   1  -5   9 14.0341 9.62182   2
  -2   5  -9 -3.1399 6.51598   6
   2  -5   9 5.99494 9.46819   2
   2   4  -9 96.0069 12.5631   6
   2   4  -9 80.4678 11.7087   3
  -2  -4   9 94.4965 11.7024   4
  -2  -4   9 96.8084 11.3445   6
   1   4  -9 8.10534 8.73377   6
  -1  -4   9 27.0552 8.53723   4
  -1  -4   9 13.9916 8.34706   6
  -1  -4   9 7.45536 8.30027   2
   0   4  -9 39.8178 9.43466   6
   0  -4   9 40.4460 8.24058   4
   0  -4   9 29.7881 10.4829   2
  -1   4  -9 212.124 16.1344   6
   1  -4   9 214.260 17.0077   4
   1  -4   9 201.453 20.1141   2
  -2   4  -9 -9.9824 5.87204   6
   2  -4   9 -3.1005 8.82879   2
   2  -4   9 -5.1405 6.73274   4
  -3   4  -9 25.6652 7.03622   6
   3  -4   9 38.9467 12.3313   2
   3   3  -9 97.2522 12.1003   3
   3   3  -9 120.637 13.6130   6
  -3  -3   9 115.619 12.5717   4
  -3  -3   9 109.818 11.9878   6
   2   3  -9 55.5957 10.2700   3
   2   3  -9 100.384 12.0017   6
  -2  -3   9 65.2121 10.9340   2
  -2  -3   9 72.8787 9.66970   6
  -2  -3   9 86.8196 10.5094   4
   1   3  -9 66.0851 10.0515   3
   1   3  -9 74.0818 10.3921   6
  -1  -3   9 84.8664 9.62948   4
  -1  -3   9 85.2135 11.9230   2
  -1  -3   9 79.7060 10.0001   6
   0   3  -9 19.8352 7.83427   6
   0  -3   9 16.5853 8.35462   2
   0  -3   9 27.7123 7.57687   4
   0  -3   9 17.6000 7.31258   6
  -1   3  -9 124.490 11.7423   6
   1  -3   9 111.589 14.1540   2
   1  -3   9 131.704 11.9654   4
  -2   3  -9 27.9668 7.02007   6
   2  -3   9 15.4628 9.31570   2
   2  -3   9 20.2860 7.21332   4
  -3   3  -9 1.30459 5.01378   6
   3  -3   9 -3.0785 6.99208   4
   3  -3   9 -0.7980 9.06729   2
   3   2  -9 -0.3052 7.07131   3
   3   2  -9 -8.4036 8.92806   6
  -3  -2   9 -1.0041 7.40407   4
  -3  -2   9 -11.141 7.55448   6
   2   2  -9 109.398 12.2869   6
   2   2  -9 78.8216 10.5809   3
  -2  -2   9 85.0022 10.1231   4
  -2  -2   9 85.5287 11.4604   2
  -2  -2   9 86.8735 9.82456   6
   1   2  -9 -6.9079 5.97251   3
   1   2  -9 1.17393 7.31242   6
  -1  -2   9 4.64114 6.60580   4
  -1  -2   9 -1.3219 7.24560   2
  -1  -2   9 -5.1940 5.85142   6
   0   2  -9 195.034 15.1451   6
   0  -2   9 200.299 15.7958   4
   0  -2   9 187.337 14.3674   6
   0  -2   9 188.451 17.8525   2
  -1   2  -9 3.26512 6.35997   6
   1  -2   9 6.56665 8.20847   2
   1  -2   9 0.68404 6.22976   4
  -2   2  -9 23.3098 6.79503   6
   2  -2   9 13.9675 6.45615   4
   2  -2   9 5.87257 8.71784   2
  -3   2  -9 204.330 14.1913   6
   3  -2   9 217.478 20.2216   2
   4  -2   9 91.7525 9.53403   4
   4  -2   9 97.2339 13.3618   2
   4   1  -9 37.0660 10.1402   6
   4   1  -9 32.9065 8.49034   3
  -4  -1   9 30.1798 9.26847   4
  -4  -1   9 32.2992 9.60091   6
   3   1  -9 -14.571 9.23603   6
   3   1  -9 12.3285 7.07451   3
  -3  -1   9 -11.956 8.28096   6
  -3  -1   9 1.81688 6.65161   2
  -3  -1   9 7.72895 7.13197   4
   2   1  -9 156.315 13.5373   6
   2   1  -9 110.831 11.9875   3
  -2  -1   9 140.292 13.1641   2
  -2  -1   9 127.801 12.0919   4
  -2  -1   9 132.610 11.9428   6
   1   1  -9 27.3646 7.24264   3
   1   1  -9 38.2849 9.24704   6
  -1  -1   9 41.2205 9.66712   2
  -1  -1   9 34.5871 7.74818   4
  -1  -1   9 46.4143 7.92076   6
   0   1  -9 312.386 21.2177   6
   0  -1   9 298.950 22.4540   4
   0  -1   9 323.280 25.1779   2
   0  -1   9 294.650 20.3739   6
  -1   1  -9 126.764 10.9366   6
   1  -1   9 116.958 11.1592   4
   1  -1   9 123.852 13.4937   2
  -2   1  -9 245.508 16.7201   6
   2  -1   9 234.943 21.3755   2
   2  -1   9 256.517 18.4814   4
  -3   1  -9 58.9039 6.31237   6
   3  -1   9 69.4504 11.5032   2
   4  -1   9 197.185 16.0139   4
   4  -1   9 213.446 19.3078   2
   4   0  -9 25.1213 7.92681   3
   4   0  -9 29.4361 9.87134   6
  -4   0   9 28.9713 8.27020   4
  -4   0   9 33.1609 9.53697   6
   3   0  -9 13.5142 9.05430   6
   3   0  -9 40.0964 7.35247   3
  -3   0   9 27.6059 7.81968   2
  -3   0   9 16.3853 7.83419   6
  -3   0   9 41.6554 8.40737   4
   2   0  -9 41.0838 9.51547   6
   2   0  -9 27.5490 7.08356   3
  -2   0   9 39.7874 7.75346   6
  -2   0   9 45.2488 7.82739   4
  -2   0   9 35.4892 8.39329   2
   1   0  -9 57.0105 9.16317   6
   1   0  -9 57.9708 7.46586   3
  -1   0   9 66.0470 8.33553   4
  -1   0   9 54.9091 8.75489   6
  -1   0   9 44.8661 9.31373   2
   0   0  -9 6.59287 6.49918   6
   0   0   9 10.6029 7.69193   2
   0   0   9 3.18237 5.61494   6
  -1   0  -9 95.7759 9.61475   6
   1   0   9 103.384 7.73964   1
   1   0   9 93.6895 12.2294   2
   1   0   9 103.465 9.48015   4
   1   0   9 82.6990 8.06983   6
  -3   0  -9 101.953 8.25421   6
   3   0   9 90.6940 9.06833   1
   3   0   9 131.421 13.7339   2
   4   0   9 243.681 17.1889   4
   4   0   9 186.315 16.6622   1
   4   0   9 252.143 20.1955   2
   4  -1  -9 34.4340 10.5847   6
   4  -1  -9 43.7907 8.45955   3
  -4   1   9 23.8573 8.44547   4
  -4   1   9 46.0430 10.2992   6
   3  -1  -9 46.0572 7.73011   3
   3  -1  -9 40.8455 10.0943   6
  -3   1   9 45.0568 8.13130   4
  -3   1   9 34.9356 9.52043   6
  -3   1   9 38.0825 8.16887   2
   2  -1  -9 25.2123 7.66574   6
   2  -1  -9 21.0084 6.68206   3
  -2   1   9 12.9691 6.48282   2
  -2   1   9 32.8862 7.36097   4
  -2   1   9 20.7356 6.99767   6
   1  -1  -9 198.158 17.4412   3
   1  -1  -9 241.149 17.2507   6
  -1   1   9 233.689 16.8087   6
  -1   1   9 256.075 20.1665   2
  -1   1   9 256.557 17.1388   1
  -1   1   9 246.551 18.1222   4
   0  -1  -9 95.7504 10.1756   6
   0   1   9 100.585 9.97509   4
   0   1   9 107.851 9.30785   6
   0   1   9 120.557 8.65813   1
  -1  -1  -9 95.0748 9.73248   6
   1   1   9 109.159 9.86675   4
   1   1   9 126.544 8.76664   1
   1   1   9 89.4643 8.71858   6
  -2  -1  -9 791.932 45.4016   6
   2   1   9 714.443 50.4160   4
   2   1   9 704.642 49.3781   1
   3   1   9 179.126 13.2461   4
   3   1   9 142.207 12.3310   1
   4   1   9 85.9064 9.03107   4
   4   1   9 85.9129 11.9853   2
   4   1   9 72.9998 8.43816   1
   5   1   9 36.9096 7.51520   4
   5   1   9 27.9095 7.29730   1
   5   1   9 23.5771 9.30354   2
   4  -2  -9 108.453 11.0662   3
  -4   2   9 102.286 11.8061   4
   3  -2  -9 43.5308 9.24905   6
   3  -2  -9 50.8136 7.53987   3
  -3   2   9 45.8791 7.96402   4
  -3   2   9 36.2432 9.03058   6
  -3   2   9 30.9247 7.46414   2
   2  -2  -9 78.4036 9.21891   6
   2  -2  -9 59.7865 7.99391   3
  -2   2   9 58.0241 8.64032   4
  -2   2   9 66.5098 9.02346   2
  -2   2   9 81.1242 7.90691   1
  -2   2   9 74.9057 9.26307   6
   1  -2  -9 30.8697 8.23682   6
   1  -2  -9 24.9908 6.17914   3
  -1   2   9 27.2094 6.65042   6
   0   2   9 3.09951 4.95867   4
   0   2   9 4.81151 4.18961   1
  -1  -2  -9 72.4375 8.56510   6
   1   2   9 80.1039 7.86367   6
   1   2   9 97.1833 9.19862   4
   1   2   9 104.825 8.04935   1
   2   2   9 174.454 12.9630   1
   2   2   9 170.720 13.8286   4
   3   2   9 310.570 22.1709   4
   3   2   9 299.597 21.5433   1
   4   2   9 40.9876 7.36414   1
   4   2   9 47.2944 7.61896   4
   5   2   9 16.3843 6.78867   4
   5   2   9 3.41763 7.92830   2
   5   2   9 17.4084 6.61787   1
   4  -3  -9 146.268 13.8327   3
   4  -3  -9 178.061 14.0371   6
  -4   3   9 197.570 14.6529   6
  -4   3   9 132.105 14.3661   4
   3  -3  -9 30.8299 6.90213   3
   3  -3  -9 13.9172 6.76796   6
  -3   3   9 11.5552 5.85098   2
  -3   3   9 19.5957 6.78602   4
  -3   3   9 11.7496 6.46532   6
   2  -3  -9 33.0021 6.36208   3
   2  -3  -9 35.1872 7.68710   6
  -2   3   9 39.4400 7.49193   4
  -2   3   9 40.6279 6.74183   1
  -2   3   9 29.8762 7.77852   6
   1  -3  -9 33.0251 7.15158   6
   1  -3  -9 14.6971 5.09259   3
  -1   3   9 25.2455 6.18857   6
   0  -3  -9 3.87241 4.89715   6
   0   3   9 3.82881 4.38526   6
   0   3   9 8.14938 4.61112   1
   0   3   9 3.80171 5.31763   4
  -1  -3  -9 413.128 24.5830   6
   1   3   9 361.776 27.2652   4
   1   3   9 388.660 24.3324   6
   1   3   9 380.016 26.6457   1
  -2  -3  -9 203.122 15.4017   6
   2   3   9 243.307 16.7144   1
   2   3   9 240.813 17.3745   4
  -3  -3  -9 79.4605 7.25474   6
   3   3   9 99.3987 9.24162   4
   3   3   9 86.9252 9.01599   1
  -4  -3  -9 119.319 12.3097   5
   4   3   9 119.566 11.6072   4
   4   3   9 126.717 11.4549   1
  -5  -3  -9 13.9880 6.89973   5
   5   3   9 15.4834 7.46413   4
   5   3   9 27.4817 8.38914   1
   4  -4  -9 57.4817 9.26037   6
   4  -4  -9 56.3006 8.85187   3
  -4   4   9 65.2720 9.79956   6
  -4   4   9 50.9246 9.21676   4
   3  -4  -9 34.2650 8.02807   6
   3  -4  -9 30.4032 6.99910   3
  -3   4   9 43.7193 7.61026   1
  -3   4   9 29.6359 8.70787   6
  -3   4   9 36.1114 7.60960   4
   2  -4  -9 51.4183 6.72454   3
   2  -4  -9 49.0144 7.65388   6
  -2   4   9 35.4274 7.53991   4
  -2   4   9 46.7588 7.42352   1
  -2   4   9 43.0776 8.24150   6
   1  -4  -9 57.2689 7.33899   6
  -1   4   9 53.9048 7.62678   1
  -1   4   9 63.3302 7.57192   4
  -1   4   9 49.9067 7.92508   6
   0  -4  -9 1.04358 4.48715   6
   0   4   9 7.06581 4.92368   6
   0   4   9 -2.4124 4.51797   1
   0   4   9 -6.5731 5.47286   4
  -1  -4  -9 446.865 26.6560   6
   1   4   9 452.502 26.6837   6
   1   4   9 392.103 29.7946   4
   1   4   9 404.642 29.2215   1
  -2  -4  -9 560.740 31.3297   6
   2   4   9 484.446 34.6016   1
   2   4   9 470.040 35.2205   4
  -3  -4  -9 60.8120 5.70672   6
  -3  -4  -9 51.9035 8.16440   5
   3   4   9 59.5753 8.06710   1
   3   4   9 51.8853 8.47444   4
  -4  -4  -9 61.4082 9.85746   5
   4   4   9 56.3953 8.78343   1
   4   4   9 56.1761 8.83070   4
  -5  -4  -9 112.083 13.1887   5
   5   4   9 100.511 11.4366   4
   5   4   9 94.0205 11.5792   1
   4  -5  -9 2.00744 6.68933   3
   4  -5  -9 9.17666 6.74841   6
  -4   5   9 16.5260 6.94067   4
  -4   5   9 11.0928 7.55011   6
   3  -5  -9 5.43927 5.89093   6
   3  -5  -9 7.80150 5.63785   3
  -3   5   9 11.2123 6.01130   4
  -3   5   9 6.30932 5.55872   1
  -3   5   9 12.9735 6.89069   6
   2  -5  -9 20.0828 5.65815   3
   2  -5  -9 18.8817 5.85925   6
  -2   5   9 24.7178 6.76466   1
  -2   5   9 21.6901 6.77790   6
  -2   5   9 14.8897 5.90161   4
   1  -5  -9 2.22308 2.91725   3
   1  -5  -9 11.7201 4.93859   6
  -1   5   9 0.45306 5.48517   1
  -1   5   9 10.8473 5.63461   6
  -1   5   9 2.94501 5.25147   4
   0  -5  -9 19.1720 5.16168   6
   0   5   9 32.7504 7.06422   1
   0   5   9 28.8111 6.56511   6
   0   5   9 12.2536 6.17844   4
   1   5   9 75.7481 7.48843   6
  -2  -5  -9 67.6873 8.25999   5
  -2  -5  -9 64.7617 6.74317   6
   2   5   9 58.7881 7.85241   1
   2   5   9 65.3522 8.51456   4
  -3  -5  -9 74.0720 6.93107   6
  -3  -5  -9 70.6570 9.77375   5
   3   5   9 74.7893 9.04673   4
   3   5   9 67.3505 8.84429   1
  -4  -5  -9 8.51622 4.10273   6
  -4  -5  -9 9.14771 6.06885   5
   4   5   9 14.5432 7.52079   1
   4   5   9 1.22537 7.17029   4
   4  -6  -9 19.3556 7.98951   3
   4  -6  -9 18.7236 7.08563   6
  -4   6   9 30.9479 8.44103   4
  -4   6   9 36.0079 9.48130   6
   3  -6  -9 9.22761 6.02259   6
   3  -6  -9 1.00949 5.92285   3
  -3   6   9 8.67847 6.85981   6
  -3   6   9 5.04570 5.98315   4
  -3   6   9 10.5114 6.44363   1
   2  -6  -9 43.6260 6.58109   3
   2  -6  -9 68.3573 7.72088   6
  -2   6   9 55.0805 7.97653   4
  -2   6   9 68.5163 8.62403   6
  -2   6   9 49.2662 8.27332   1
   1  -6  -9 115.331 9.22096   6
  -1   6   9 107.087 10.1619   4
  -1   6   9 128.217 10.2884   6
  -1   6   9 101.930 10.6492   1
   0  -6  -9 519.727 32.6035   6
   0   6   9 572.130 32.9132   6
   0   6   9 479.588 35.8342   1
   0   6   9 515.340 36.3634   4
  -1  -6  -9 130.288 9.61570   6
   1   6   9 117.210 11.2270   4
   1   6   9 126.619 9.71138   6
   1   6   9 106.552 10.8146   1
  -2  -6  -9 6.08268 4.76893   6
  -2  -6  -9 8.01257 4.86363   5
   2   6   9 15.0111 6.66633   4
   2   6   9 6.70400 5.63200   1
  -3  -6  -9 155.913 15.1950   5
  -3  -6  -9 190.360 11.8623   6
   3   6   9 146.247 13.8411   1
   3   6   9 151.205 14.1130   4
  -4  -6  -9 73.5428 7.15359   6
  -4  -6  -9 67.8359 10.9104   5
   4   6   9 56.6425 10.2044   1
   3  -7  -9 3.39509 6.49783   6
  -3   7   9 1.77154 6.31342   1
  -3   7   9 0.65702 6.11319   4
  -3   7   9 0.86252 7.11533   6
   2  -7  -9 30.4873 7.02920   6
  -2   7   9 38.3591 8.25260   6
  -2   7   9 27.2746 7.63875   1
   1  -7  -9 48.3528 6.90755   6
  -1   7   9 45.6625 8.17776   6
  -1   7   9 50.4384 8.60796   1
  -1   7   9 48.9637 7.91011   4
   0  -7  -9 190.758 13.5822   6
   0   7   9 193.426 15.2643   4
   0   7   9 199.388 14.1691   6
   0   7   9 173.408 15.0050   1
  -1  -7  -9 2.68773 5.05927   6
   1   7   9 -5.0435 6.07871   1
   1   7   9 -3.0072 6.55692   4
   1   7   9 -1.2849 5.50356   6
  -2  -7  -9 34.0386 8.09338   5
  -2  -7  -9 41.9738 6.80805   6
   2   7   9 29.7871 7.74646   1
   2   7   9 37.2714 8.28034   4
  -3  -7  -9 30.4107 9.21666   5
  -3  -7  -9 41.2859 6.55998   6
   3   7   9 29.6395 8.30774   1
   3   7   9 32.8606 8.82923   4
  -4  -7  -9 65.4516 7.79160   6
  -4  -7  -9 77.8628 11.5266   5
   4   7   9 54.9275 10.3303   1
   3  -8  -9 11.2393 6.60266   6
  -3   8   9 12.2474 7.56057   6
  -3   8   9 11.7432 7.45040   1
  -3   8   9 2.90366 7.16267   4
   2  -8  -9 133.866 11.0327   6
  -2   8   9 121.743 12.3455   1
  -2   8   9 137.772 12.4119   6
  -2   8   9 124.211 11.6165   4
   1  -8  -9 44.3886 7.59755   6
  -1   8   9 52.6354 8.82141   6
  -1   8   9 40.7907 8.25246   1
  -1   8   9 43.7138 7.95180   4
   0  -8  -9 59.5246 7.67823   6
   0   8   9 74.6749 9.08923   6
   0   8   9 61.6317 8.75755   4
   0   8   9 58.5159 9.07176   1
  -1  -8  -9 4.69285 4.19072   5
  -1  -8  -9 3.83644 5.97936   6
   1   8   9 1.97587 6.44171   6
   1   8   9 2.34437 6.76208   4
   1   8   9 -0.0730 6.12386   1
  -2  -8  -9 33.3390 8.37388   5
  -2  -8  -9 48.7844 6.96994   6
   2   8   9 16.5592 6.31834   1
   2   8   9 31.4724 8.47440   4
  -3  -8  -9 62.9633 8.07703   6
  -3  -8  -9 48.7308 10.0012   5
   3   8   9 45.4498 9.08664   1
   2  -9  -9 15.2923 6.26675   6
  -2   9   9 13.2478 8.12718   6
  -2   9   9 16.0733 6.73617   1
  -2   9   9 1.15045 6.11624   4
   1  -9  -9 16.2836 6.45006   6
  -1   9   9 18.6091 8.07490   1
  -1   9   9 9.22717 6.99704   4
  -1   9   9 8.55754 7.88404   6
   0  -9  -9 28.6139 7.14477   6
   0   9   9 23.4873 8.21833   4
   0   9   9 24.9441 8.44129   1
   0   9   9 22.3312 7.96400   6
  -1  -9  -9 24.1369 7.41135   6
  -1  -9  -9 21.4265 7.31046   5
   1   9   9 12.4698 7.15188   1
   1   9   9 19.5344 7.58150   4
  -2  -9  -9 1.45745 5.52183   5
  -2  -9  -9 4.57923 6.26335   6
   2   9   9 -2.3115 6.61244   1
   2   9   9 5.21808 7.77466   4
  -3  -9  -9 6.63353 6.26043   5
  -3  -9  -9 18.0962 7.66533   6
   3   9   9 5.58727 7.43028   1
   1 -10  -9 4.18961 7.11311   6
  -1  10   9 4.72283 7.15441   4
  -1  10   9 5.91703 7.91450   1
  -1  10   9 8.42187 8.66146   6
   0 -10  -9 6.92969 6.90658   6
   0  10   9 6.54346 7.03539   1
   0  10   9 2.72993 7.60730   4
   0  10   9 6.96768 8.12653   6
  -1 -10  -9 -0.5363 5.14218   5
  -1 -10  -9 5.98867 6.48925   6
   1  10   9 -3.2488 7.83868   4
   1  10   9 -12.928 7.69061   1
   1   4 -10 67.6401 11.9257   6
  -1  -4  10 69.5387 10.3045   4
  -1  -4  10 43.5682 11.8223   2
   0   4 -10 36.7480 10.5355   6
   0  -4  10 42.5382 9.00303   4
   0  -4  10 32.0953 11.9770   2
  -1   4 -10 61.9080 10.1876   6
   1  -4  10 56.7437 12.8971   2
   1  -4  10 58.8883 10.0322   4
   2  -4  10 10.1340 10.2048   2
   2  -4  10 3.73603 7.67007   4
   2   3 -10 11.6750 9.83605   6
   2   3 -10 16.3758 7.71635   3
  -2  -3  10 21.2863 8.34263   4
  -2  -3  10 11.1608 7.10910   6
  -2  -3  10 6.40636 8.43758   2
   1   3 -10 91.7347 11.7771   6
  -1  -3  10 83.4993 10.6020   6
  -1  -3  10 88.7065 10.7522   4
  -1  -3  10 80.3390 12.6758   2
   0   3 -10 -1.2446 8.04117   6
   0  -3  10 0.06979 7.14481   4
   0  -3  10 14.4356 8.80091   2
  -1   3 -10 171.029 15.0451   6
   1  -3  10 175.756 18.7102   2
   1  -3  10 194.270 15.8104   4
  -2   3 -10 25.1456 7.61618   6
   2  -3  10 -0.9414 9.34124   2
   2  -3  10 0.79490 7.53472   4
   3   2 -10 15.7910 7.98910   3
   3   2 -10 17.4176 10.2529   6
  -3  -2  10 23.4916 8.18666   6
  -3  -2  10 24.8624 8.78586   4
   2   2 -10 61.0883 10.5068   3
   2   2 -10 94.8630 12.1011   6
  -2  -2  10 73.5003 10.2741   4
  -2  -2  10 71.3590 10.2376   6
  -2  -2  10 76.1266 11.3452   2
   1   2 -10 20.0240 8.43996   6
   1   2 -10 12.2532 7.72805   3
  -1  -2  10 15.1785 6.64557   6
  -1  -2  10 37.8384 8.69953   4
  -1  -2  10 5.74217 8.40876   2
   0   2 -10 22.4175 7.70559   6
   0  -2  10 16.5359 8.78270   2
   0  -2  10 18.8578 7.09660   4
  -1   2 -10 0.31456 7.28787   6
   1  -2  10 -1.1412 6.48011   4
   1  -2  10 -0.8043 8.14594   2
  -2   2 -10 101.344 9.87717   6
   2  -2  10 95.8349 14.5079   2
   2  -2  10 80.7539 10.6261   4
  -3   2 -10 1.54809 4.73363   6
   3  -2  10 -3.0370 6.72924   4
   3  -2  10 6.53324 10.2230   2
   3   1 -10 12.9667 7.04444   3
   3   1 -10 -0.6636 9.50248   6
  -3  -1  10 1.78293 7.21823   2
  -3  -1  10 16.9811 8.50750   6
  -3  -1  10 29.7575 9.24885   4
   2   1 -10 104.995 11.3808   3
   2   1 -10 141.929 13.6429   6
  -2  -1  10 120.753 11.7298   6
  -2  -1  10 110.254 11.3907   4
  -2  -1  10 119.657 13.1322   2
   1   1 -10 11.2730 6.36340   3
   1   1 -10 3.59621 8.10321   6
  -1  -1  10 12.3190 6.76334   4
  -1  -1  10 7.20578 8.20655   2
  -1  -1  10 7.75266 6.22919   6
   0   1 -10 57.7947 9.71104   6
   0  -1  10 64.5217 9.18989   4
   0  -1  10 59.0418 8.57338   6
   0  -1  10 66.2328 11.4616   2
  -1   1 -10 33.5940 8.24596   6
   1  -1  10 35.8463 10.5247   2
   1  -1  10 25.9881 8.19161   4
  -2   1 -10 83.5764 9.26129   6
   2  -1  10 95.4496 13.0837   2
   2  -1  10 82.2313 9.60764   4
  -3   1 -10 62.8197 7.12631   6
   4  -1  10 67.6395 9.28974   4
   4  -1  10 63.2312 13.1347   2
   3   0 -10 122.965 13.1078   6
   3   0 -10 87.3555 11.0809   3
  -3   0  10 79.3520 11.2062   2
  -3   0  10 92.4323 10.9847   4
  -3   0  10 103.908 11.3913   6
   2   0 -10 25.9502 9.05486   6
   2   0 -10 35.1179 7.91940   3
  -2   0  10 35.5100 8.10010   4
  -2   0  10 31.8249 9.40354   6
  -2   0  10 45.1237 9.45571   2
   1   0 -10 5.50806 7.40839   6
   1   0 -10 -1.3134 5.64582   3
  -1   0  10 10.9122 6.11317   4
  -1   0  10 10.5853 6.64698   6
  -1   0  10 6.40273 7.49370   2
   0   0 -10 19.5548 7.42250   6
   0   0  10 12.0167 7.89526   2
   0   0  10 22.4997 7.21087   4
   0   0  10 12.6523 5.95719   6
  -1   0 -10 5.47343 6.60814   6
   1   0  10 4.15403 8.45004   2
   1   0  10 2.52056 5.87875   4
  -2   0 -10 45.0440 7.64631   6
   2   0  10 57.9692 7.67801   4
   2   0  10 68.5987 11.5691   2
  -3   0 -10 460.015 33.2427   6
   3   0  10 564.476 37.3980   4
   3   0  10 585.679 41.3370   2
   4   0  10 192.406 15.5942   4
   4   0  10 196.356 18.9701   2
   3  -1 -10 181.493 14.4796   3
  -3   1  10 179.417 14.5600   4
  -3   1  10 147.720 15.3494   2
   2  -1 -10 11.1598 6.11684   3
   2  -1 -10 11.2083 8.18096   6
  -2   1  10 23.5896 7.93855   4
  -2   1  10 22.2436 8.14232   2
  -2   1  10 13.7541 7.01730   6
   1  -1 -10 92.3914 9.33892   3
   1  -1 -10 101.672 10.7272   6
  -1   1  10 104.451 9.73211   6
  -1   1  10 107.532 12.0071   2
  -1   1  10 86.2505 10.1294   4
   0  -1 -10 2.98827 6.69559   6
   0   1  10 14.7591 6.13429   4
   0   1  10 -1.9211 6.06904   6
   0   1  10 9.68887 7.86823   2
  -1  -1 -10 11.1168 6.35894   6
   1   1  10 14.0434 4.49046   1
   1   1  10 13.7224 5.43639   4
   1   1  10 15.4026 7.84961   2
  -2  -1 -10 82.0479 8.95414   6
   2   1  10 97.9401 9.53014   4
   2   1  10 72.1550 7.98077   1
   2   1  10 108.967 12.3145   2
   3   1  10 28.6674 6.03297   1
   4   1  10 61.9780 12.1883   2
   4   1  10 43.9747 7.77182   1
   4   1  10 75.2798 8.72522   4
   4  -2 -10 82.0025 11.0819   3
   4  -2 -10 122.949 12.4632   6
  -4   2  10 89.2208 11.4567   4
   3  -2 -10 188.270 14.6560   3
  -3   2  10 215.489 15.0255   6
  -3   2  10 150.365 15.6251   2
  -3   2  10 161.737 14.8354   4
   2  -2 -10 4.04338 5.11251   3
   2  -2 -10 7.32622 7.44759   6
  -2   2  10 10.1753 7.01284   2
  -2   2  10 11.5100 6.74325   4
  -2   2  10 11.7821 5.43003   1
  -2   2  10 3.93644 6.32573   6
   1  -2 -10 5.85396 4.63627   3
   1  -2 -10 6.42903 6.35605   6
  -1   2  10 0.62425 5.54601   6
  -1   2  10 10.2187 5.86024   4
   0  -2 -10 44.6578 8.05623   6
   0   2  10 36.4061 7.27737   6
   0   2  10 47.5425 7.52358   4
   0   2  10 59.1545 6.18827   1
  -1  -2 -10 30.1470 6.84894   6
   1   2  10 29.5245 7.21162   4
   1   2  10 29.1293 6.05108   1
  -2  -2 -10 281.962 18.6347   6
   2   2  10 264.391 19.5210   1
   2   2  10 284.035 20.5366   4
  -3  -2 -10 145.207 11.0449   6
   3   2  10 141.832 12.0085   1
   3   2  10 156.501 12.8225   4
   4   2  10 6.93249 6.77648   4
   4   2  10 14.2526 6.02535   1
   4  -3 -10 204.671 15.1631   6
   4  -3 -10 151.117 14.8221   3
  -4   3  10 134.135 15.0108   4
  -4   3  10 208.339 15.2841   6
   3  -3 -10 32.0244 9.65649   6
  -3   3  10 9.85471 7.07721   2
  -3   3  10 24.1068 8.42225   6
   2  -3 -10 5.50562 5.68136   3
   2  -3 -10 10.6131 6.90107   6
  -2   3  10 13.8660 6.94911   6
  -2   3  10 3.45441 6.12148   4
  -2   3  10 8.88406 5.06963   1
   1  -3 -10 -0.0480 6.12341   6
   1  -3 -10 8.92916 4.11477   3
  -1   3  10 11.6458 6.06299   4
  -1   3  10 4.39714 6.08153   6
   0  -3 -10 3.96812 6.08653   6
   0   3  10 11.8906 5.11281   1
   0   3  10 -1.5843 5.25931   6
   0   3  10 10.9242 5.32116   4
  -1  -3 -10 2.14157 5.19203   6
   1   3  10 8.42707 5.19788   1
   1   3  10 11.0892 6.13731   4
   2   3  10 58.5450 7.41289   1
   2   3  10 62.4097 8.23031   4
  -3  -3 -10 108.172 8.72919   6
   3   3  10 112.793 10.2115   1
   3   3  10 111.135 10.9019   4
   4   3  10 7.95986 6.97042   4
   4   3  10 20.6965 6.80038   1
   3  -4 -10 106.330 10.9764   6
   3  -4 -10 119.938 10.7936   3
  -3   4  10 117.970 10.9306   1
  -3   4  10 99.9763 11.3207   4
  -3   4  10 94.4365 11.3121   6
   2  -4 -10 1.92316 6.11454   6
   2  -4 -10 0.37945 5.02647   3
  -2   4  10 0.30725 6.07904   6
  -2   4  10 -5.3066 6.01001   1
  -2   4  10 -5.2158 5.96263   4
   1  -4 -10 100.084 9.32788   3
   1  -4 -10 130.557 10.2696   6
  -1   4  10 131.611 10.4358   6
  -1   4  10 105.152 10.7908   4
  -1   4  10 123.354 10.3939   1
   0  -4 -10 46.9054 7.14025   6
   0   4  10 48.4159 7.03094   1
   0   4  10 50.4010 7.62974   4
   0   4  10 49.2116 6.99456   6
  -1  -4 -10 74.1053 7.62596   6
   1   4  10 55.6677 7.87385   1
   1   4  10 63.3359 8.30591   4
  -2  -4 -10 8.68790 5.13325   6
   2   4  10 13.8304 5.51047   1
   2   4  10 16.6530 6.47840   4
  -3  -4 -10 19.5338 5.40769   6
   3   4  10 16.7149 7.04389   4
   3   4  10 12.7756 6.16012   1
  -4  -4 -10 24.2807 8.50502   5
   4   4  10 29.1136 8.43711   4
   4   4  10 33.7421 8.24337   1
   3  -5 -10 25.2382 7.25642   3
   3  -5 -10 8.96484 6.72769   6
  -3   5  10 6.79179 6.16848   1
  -3   5  10 2.29270 7.20759   6
  -3   5  10 26.6693 8.16669   4
   2  -5 -10 -0.8722 4.74171   3
   2  -5 -10 0.10044 5.42242   6
  -2   5  10 5.58120 6.00396   1
  -2   5  10 7.43040 6.44487   6
  -2   5  10 -5.3271 6.26569   4
   1  -5 -10 62.6417 8.01089   6
  -1   5  10 64.5163 8.85108   6
  -1   5  10 61.1192 8.23753   1
  -1   5  10 49.5365 8.15757   4
   0  -5 -10 179.442 13.0662   6
   0   5  10 189.784 13.3603   6
   0   5  10 170.265 14.0292   1
   0   5  10 171.994 14.5064   4
  -1  -5 -10 80.5275 7.78793   6
   1   5  10 72.6785 8.90453   4
   1   5  10 70.1508 8.60095   1
  -2  -5 -10 21.6299 5.26706   6
   2   5  10 14.9866 6.68958   4
   2   5  10 12.2266 5.89883   1
  -3  -5 -10 64.2925 9.17340   5
  -3  -5 -10 70.3956 6.65941   6
   3   5  10 63.1346 8.94976   1
   3   5  10 62.3737 9.54930   4
  -4  -5 -10 8.58181 3.79074   6
  -4  -5 -10 7.27729 6.41387   5
   4   5  10 4.45578 7.56075   1
   4   5  10 6.92069 7.82654   4
   3  -6 -10 0.67121 6.03877   6
  -3   6  10 -6.1960 7.07931   6
  -3   6  10 5.93272 6.51650   4
  -3   6  10 9.04366 5.93419   1
   2  -6 -10 4.61493 5.88945   6
  -2   6  10 -4.9871 6.71980   4
  -2   6  10 13.0157 6.17981   1
  -2   6  10 9.22834 6.92468   6
   1  -6 -10 218.283 14.8329   6
  -1   6  10 221.460 15.3693   6
  -1   6  10 189.169 15.9852   4
  -1   6  10 192.696 16.0017   1
   0  -6 -10 137.312 10.8822   6
   0   6  10 148.216 12.8175   4
   0   6  10 146.151 12.3854   1
   0   6  10 147.388 11.7110   6
  -1  -6 -10 19.2257 5.90290   6
   1   6  10 12.9219 6.92353   4
   1   6  10 15.9954 6.10698   1
  -2  -6 -10 -0.2070 5.09176   6
   2   6  10 1.49612 6.76214   4
   2   6  10 -2.2739 5.18864   1
  -3  -6 -10 -1.8270 4.81646   6
  -3  -6 -10 3.14537 5.71754   5
   3   6  10 -0.7122 7.33511   4
   3   6  10 -1.7084 6.03166   1
  -4  -6 -10 72.2652 7.12595   6
  -4  -6 -10 58.8157 10.9068   5
   4   6  10 56.5622 9.93354   1
   4   6  10 63.9898 10.3726   4
   3  -7 -10 6.31977 6.53372   6
  -3   7  10 7.13164 6.55219   4
  -3   7  10 9.90091 7.55110   6
  -3   7  10 11.6726 6.90636   1
   2  -7 -10 25.5109 7.31795   6
  -2   7  10 40.9648 8.24652   4
  -2   7  10 23.2935 7.32678   6
  -2   7  10 25.9576 7.94697   1
   1  -7 -10 84.5495 8.23769   6
  -1   7  10 84.7985 9.56565   1
  -1   7  10 92.1545 10.0538   6
  -1   7  10 78.4413 9.07245   4
   0  -7 -10 47.6395 6.98641   6
   0   7  10 40.9909 8.22349   1
   0   7  10 50.2663 8.44699   4
   0   7  10 50.7335 7.77353   6
  -1  -7 -10 59.1630 7.33807   6
   1   7  10 43.1358 8.47293   1
   1   7  10 47.1412 8.60231   4
  -2  -7 -10 42.8691 8.12095   5
  -2  -7 -10 55.9195 7.10504   6
   2   7  10 39.9951 8.39065   1
   2   7  10 51.7559 8.97544   4
  -3  -7 -10 3.47747 5.96362   5
  -3  -7 -10 3.80634 5.53380   6
   3   7  10 2.40109 6.67087   1
   3   7  10 5.02948 7.96825   4
   2  -8 -10 12.0205 6.24120   6
  -2   8  10 24.2075 7.84732   1
  -2   8  10 18.2067 7.45719   6
  -2   8  10 0.48352 6.87366   4
   1  -8 -10 11.2668 5.58836   6
  -1   8  10 9.39236 5.48377   4
  -1   8  10 15.0107 7.25771   6
  -1   8  10 24.6837 8.25312   1
   0  -8 -10 10.3904 6.09727   6
   0   8  10 4.02245 6.31803   1
   0   8  10 10.4794 7.27669   4
   0   8  10 13.5565 6.89270   6
  -1  -8 -10 7.52488 5.72256   6
   1   8  10 8.92730 7.40229   4
   1   8  10 0.42086 6.89037   1
  -2  -8 -10 15.0009 5.93391   5
  -2  -8 -10 20.0263 6.43962   6
   2   8  10 21.0979 7.30319   1
   2   8  10 18.6254 8.01147   4
  -3  -8 -10 32.5549 9.71274   5
  -3  -8 -10 46.9891 7.79520   6
   3   8  10 29.9576 9.15000   1
   3   8  10 30.4741 9.25907   4
   1  -9 -10 15.6103 6.52165   6
  -1   9  10 19.8030 7.85824   1
  -1   9  10 14.0984 7.81368   6
  -1   9  10 11.5118 7.49527   4
   0  -9 -10 25.5137 7.21238   6
   0   9  10 24.0387 7.94514   6
   0   9  10 31.2433 8.61938   4
   0   9  10 16.6923 7.31484   1
  -1  -9 -10 57.3896 7.98256   6
   1   9  10 46.4388 9.22473   4
   1   9  10 33.4129 9.29506   1
  -2  -9 -10 35.9686 8.02722   6
  -2  -9 -10 23.8306 8.68844   5
   2   9  10 11.9365 7.50889   1
   2   9  10 26.3733 8.99655   4
   0   3 -11 20.7272 8.97478   6
   0  -3  11 19.8480 8.63341   4
   0  -3  11 9.13608 10.1064   2
  -1   3 -11 -3.4101 8.47492   6
   1  -3  11 -2.6279 10.0042   2
   1  -3  11 -3.8018 7.93063   4
   1   2 -11 89.7251 12.0507   6
  -1  -2  11 80.8705 12.8899   2
  -1  -2  11 80.5241 10.6161   4
   0   2 -11 20.1212 7.93804   6
   0  -2  11 14.3398 9.30616   2
   0  -2  11 14.6492 7.92970   4
  -1   2 -11 7.61266 8.19194   6
   1  -2  11 4.00686 7.79341   4
   1  -2  11 13.0213 9.46225   2
  -2   2 -11 84.8681 9.94699   6
   2  -2  11 67.9394 10.6474   4
   2  -2  11 81.5016 13.2539   2
   2   1 -11 121.328 13.1184   3
  -2  -1  11 128.808 12.7311   4
  -2  -1  11 142.273 12.6010   6
  -2  -1  11 140.643 14.7524   2
   1   1 -11 -3.9973 7.55797   3
   1   1 -11 7.13612 8.57426   6
  -1  -1  11 8.00981 7.40142   4
  -1  -1  11 5.40902 8.32932   2
  -1  -1  11 2.96734 7.18691   6
   0   1 -11 9.51391 7.66697   6
   0  -1  11 19.0856 9.26373   2
   0  -1  11 6.80376 6.55820   4
  -1   1 -11 40.8906 9.51499   6
   1  -1  11 71.4609 12.7235   2
   1  -1  11 55.9356 9.38997   4
  -2   1 -11 101.060 10.7701   6
   2  -1  11 112.432 14.9333   2
   2  -1  11 97.9084 11.3389   4
  -3   1 -11 22.2568 6.70284   6
   3  -1  11 43.0613 12.2149   2
   3  -1  11 44.5288 8.54157   4
   2   0 -11 32.2925 8.76110   3
   2   0 -11 64.7278 11.7031   6
  -2   0  11 49.4066 10.0892   6
  -2   0  11 58.1664 10.1490   2
  -2   0  11 59.0369 10.1669   4
   1   0 -11 175.396 15.3121   3
  -1   0  11 172.513 15.4493   4
  -1   0  11 206.370 17.5970   2
  -1   0  11 188.587 14.6836   6
   0   0 -11 17.4579 8.07978   6
   0   0  11 19.9086 8.66391   2
   0   0  11 11.7517 7.02615   4
  -1   0 -11 21.8079 7.95369   6
   1   0  11 12.7842 7.08736   4
   1   0  11 22.1892 8.85587   2
  -2   0 -11 90.7751 10.0370   6
   2   0  11 92.3840 10.1821   4
   2   0  11 101.390 13.2170   2
   3   0  11 94.2502 13.6791   2
   3   0  11 106.978 11.2113   4
   3  -1 -11 94.1570 11.3369   3
  -3   1  11 113.335 12.0759   4
  -3   1  11 141.146 12.2649   6
   2  -1 -11 14.0621 8.41813   6
  -2   1  11 10.3779 7.95922   2
  -2   1  11 34.0284 8.48094   4
  -2   1  11 16.1594 7.10148   6
   1  -1 -11 45.6030 10.1178   6
   1  -1 -11 48.3436 7.91299   3
  -1   1  11 45.3438 8.99103   4
  -1   1  11 53.0869 10.6565   2
  -1   1  11 67.5203 7.05481   1
  -1   1  11 42.5937 8.41675   6
   0  -1 -11 4.21890 7.24616   6
   0   1  11 12.0621 6.98043   4
   0   1  11 6.12155 8.42226   2
  -1  -1 -11 5.23764 6.42881   6
   1   1  11 14.9409 8.91364   2
   1   1  11 23.9963 7.40217   4
  -2  -1 -11 19.2109 6.83825   6
   2   1  11 20.0057 9.18703   2
   2   1  11 26.9513 7.83265   4
   3   1  11 52.3849 11.7021   2
   3   1  11 47.8341 8.59623   4
   3  -2 -11 81.5845 11.6478   6
   3  -2 -11 62.5085 9.09484   3
  -3   2  11 79.2138 10.9381   6
  -3   2  11 60.1561 9.48856   4
   2  -2 -11 76.7979 10.1741   3
  -2   2  11 111.636 10.9484   6
  -2   2  11 98.2369 10.7713   4
  -2   2  11 118.327 12.5464   2
   1  -2 -11 12.9543 5.31343   3
   1  -2 -11 8.32441 7.17407   6
  -1   2  11 9.08767 6.44087   6
  -1   2  11 6.39599 6.68632   4
  -1   2  11 10.1458 7.70956   2
   0  -2 -11 39.3293 8.67158   6
   0   2  11 28.4778 7.38638   4
  -1  -2 -11 98.1380 9.86453   6
   1   2  11 83.0471 8.34831   1
   1   2  11 92.9779 9.56722   4
  -2  -2 -11 2.84292 5.87046   6
   2   2  11 12.3740 6.69393   4
   2   2  11 2.46023 4.92758   1
  -3  -2 -11 -1.6507 5.75190   6
   3   2  11 11.2930 5.23142   1
   3   2  11 27.4128 7.76507   4
   3  -3 -11 9.24265 6.55627   3
   3  -3 -11 0.28370 7.96218   6
  -3   3  11 17.3408 7.78101   4
  -3   3  11 -6.7978 7.71854   6
   2  -3 -11 109.323 11.0845   6
  -2   3  11 125.527 10.4173   1
  -2   3  11 85.9606 10.9356   4
  -2   3  11 113.977 11.2767   6
   1  -3 -11 64.4322 7.69113   3
   1  -3 -11 87.0826 9.76767   6
  -1   3  11 70.4095 8.60000   6
  -1   3  11 55.0457 9.21239   4
  -1   3  11 77.9447 8.19534   1
   0   3  11 30.4643 6.47985   1
   0   3  11 30.8920 7.65932   4
  -1  -3 -11 234.327 15.3203   6
   1   3  11 205.057 15.9759   1
   1   3  11 196.911 16.7171   4
  -2  -3 -11 2.68692 5.07014   6
   2   3  11 7.51905 6.45960   4
   2   3  11 0.89036 5.21554   1
  -3  -3 -11 47.2546 7.01950   6
   3   3  11 50.5115 7.32619   1
   3   3  11 48.7918 8.36935   4
   4   3  11 7.93106 6.22863   1
   3  -4 -11 43.9392 9.35263   6
   3  -4 -11 37.9793 7.98598   3
  -3   4  11 55.2900 9.13774   4
  -3   4  11 51.1492 10.3591   6
   2  -4 -11 7.42672 5.38408   3
   2  -4 -11 18.1089 6.75880   6
  -2   4  11 8.04741 6.27544   6
  -2   4  11 18.7643 7.59944   4
   1  -4 -11 14.6651 6.57271   6
  -1   4  11 8.07330 5.31656   1
  -1   4  11 7.78968 6.19251   6
  -1   4  11 10.0391 6.60460   4
   0  -4 -11 105.834 9.84843   6
   0   4  11 91.7752 9.82219   6
   0   4  11 107.786 10.1820   1
   0   4  11 97.2449 10.1747   4
  -1  -4 -11 51.2494 7.56543   6
   1   4  11 59.9647 8.65319   4
   1   4  11 52.7902 8.19453   1
  -2  -4 -11 10.8646 4.93080   6
   2   4  11 12.5956 6.99922   4
   2   4  11 5.41202 5.60242   1
  -3  -4 -11 37.1452 6.01637   6
   3   4  11 44.5397 7.61932   1
   3   4  11 33.2415 8.17197   4
   3  -5 -11 132.734 11.9890   6
  -3   5  11 133.925 12.3993   6
  -3   5  11 126.172 12.1498   1
  -3   5  11 106.048 12.3845   4
   2  -5 -11 29.4565 7.74894   6
  -2   5  11 32.9073 8.72024   4
  -2   5  11 33.9199 8.92764   6
  -2   5  11 36.5584 8.19345   1
   1  -5 -11 40.8762 7.36408   6
  -1   5  11 41.4063 8.29996   6
  -1   5  11 31.3849 8.06634   4
  -1   5  11 49.3892 7.50097   1
   0  -5 -11 413.620 25.1910   6
   0   5  11 363.725 27.2928   1
   0   5  11 423.118 25.4177   6
   0   5  11 348.872 27.8137   4
  -1  -5 -11 5.44706 5.75240   6
   1   5  11 4.44515 6.62372   4
   1   5  11 -5.7231 6.32448   1
   2   5  11 75.9131 9.46298   4
   2   5  11 72.1233 8.87743   1
  -3  -5 -11 52.6503 6.43153   6
   3   5  11 42.9159 8.91370   4
   3   5  11 44.2746 8.36953   1
   2  -6 -11 66.4883 8.66386   6
  -2   6  11 76.2715 9.31782   1
  -2   6  11 44.0769 9.59969   4
  -2   6  11 66.9440 9.54801   6
   1  -6 -11 9.73120 6.23764   6
  -1   6  11 29.0570 7.58428   1
  -1   6  11 11.4838 6.63458   4
  -1   6  11 10.2873 6.81373   6
   0  -6 -11 8.13284 5.65299   6
   0   6  11 2.38723 6.01927   1
   0   6  11 13.2340 7.28860   4
   0   6  11 -1.3259 6.94517   6
  -1  -6 -11 93.0972 8.35079   6
   1   6  11 63.1955 9.46450   1
   1   6  11 71.7150 9.59425   4
  -2  -6 -11 8.03504 4.83835   6
   2   6  11 -0.5932 6.25472   1
   2   6  11 9.64354 7.17168   4
  -3  -6 -11 21.5559 5.81874   6
   3   6  11 11.9016 6.80212   1
   3   6  11 13.0111 7.86978   4
   2  -7 -11 9.29366 6.75698   6
  -2   7  11 6.19234 7.60469   6
  -2   7  11 14.4449 6.85442   1
  -2   7  11 -3.9027 7.60191   4
   1  -7 -11 42.8430 7.74361   6
  -1   7  11 43.7442 8.62242   4
  -1   7  11 45.9720 8.63509   1
  -1   7  11 47.4482 8.72722   6
   0  -7 -11 12.4946 5.00921   6
   0   7  11 16.7586 7.63079   4
   0   7  11 9.02928 6.99580   1
  -1  -7 -11 102.412 9.02135   6
   1   7  11 75.4816 10.7238   1
   1   7  11 94.0770 10.5682   4
  -2  -7 -11 156.314 11.0000   6
   2   7  11 121.920 12.4904   4
   2   7  11 105.530 12.2414   1
  -3  -7 -11 1.94011 5.57002   5
  -3  -7 -11 4.94969 5.87445   6
   3   7  11 6.51638 8.10109   4
   3   7  11 2.00900 7.05135   1
   1  -8 -11 11.0093 6.35574   6
  -1   8  11 10.9714 7.45474   6
  -1   8  11 13.8999 7.52680   1
  -1   8  11 8.41839 6.83990   4
   0  -8 -11 27.9259 6.98877   6
   0   8  11 27.3090 8.95007   1
   0   8  11 36.3172 8.81437   4
  -1  -8 -11 30.6351 7.35348   6
   1   8  11 33.8683 8.53861   4
   1   8  11 20.2039 8.25643   1
  -2  -8 -11 27.4656 7.35420   6
   2   8  11 23.4572 7.52312   1
   2   8  11 25.7758 8.56642   4
  -1  -1  12 4.50296 9.21642   2
  -1  -1  12 4.46053 7.52659   4
   0   1 -12 98.4405 12.0781   6
   0  -1  12 96.4857 14.8032   2
   0  -1  12 73.6227 11.0590   4
  -1   1 -12 12.1947 7.90461   6
   1  -1  12 2.13964 8.04334   4
   1  -1  12 7.34117 10.1280   2
   1   0 -12 49.2939 11.5674   6
  -1   0  12 46.6386 11.3676   2
  -1   0  12 35.4726 9.18781   4
   0   0 -12 21.5302 9.01852   6
   0   0  12 15.2443 9.57597   2
   0   0  12 10.0309 7.21325   4
  -1   0 -12 53.8941 9.84043   6
   1   0  12 36.1637 9.22166   4
   1   0  12 69.0046 12.7775   2
  -2   0 -12 -10.960 6.96077   6
   2   0  12 13.4323 9.91472   2
   2   0  12 4.56267 7.18774   4
   2  -1 -12 8.15006 6.61206   3
   2  -1 -12 12.6504 9.36524   6
  -2   1  12 16.1766 7.77010   4
  -2   1  12 4.50691 8.24537   2
  -2   1  12 18.3378 8.73348   6
   1  -1 -12 59.0458 11.1730   6
  -1   1  12 52.4823 11.5511   2
  -1   1  12 50.4952 9.27005   4
   0  -1 -12 95.9039 11.4197   6
   0   1  12 88.2458 12.9766   2
   0   1  12 79.8784 10.6470   4
  -1  -1 -12 7.51809 7.36178   6
   1   1  12 15.3572 9.49051   2
   1   1  12 13.1911 6.99909   4
  -2  -1 -12 82.2033 10.8754   6
   2   1  12 99.4454 10.8170   4
   2   1  12 109.349 14.1282   2
   2  -2 -12 74.0607 11.3629   6
   2  -2 -12 60.1460 8.66939   3
  -2   2  12 63.3499 9.70846   6
  -2   2  12 46.1060 10.3673   2
  -2   2  12 47.2409 9.88556   4
   1  -2 -12 29.2891 7.99308   3
   1  -2 -12 42.8279 10.0564   6
  -1   2  12 30.0282 10.5403   2
  -1   2  12 34.6606 8.71358   4
  -1   2  12 51.3387 7.25438   1
   0  -2 -12 75.0509 10.4179   6
   0   2  12 76.6193 11.6417   2
  -1  -2 -12 24.7051 7.49936   6
   1   2  12 38.5596 10.1768   2
   1   2  12 24.6430 7.92874   4
  -2  -2 -12 46.9357 8.66609   6
   2   2  12 57.3232 9.04071   4
   2   2  12 73.5343 11.8707   2
  -3  -2 -12 70.1192 8.97526   6
   3   2  12 78.3342 12.3011   2
   3   2  12 73.1326 9.79338   4
   2  -3 -12 138.552 12.3200   6
   2  -3 -12 91.6886 11.5042   3
  -2   3  12 111.952 12.8852   2
  -2   3  12 116.878 11.2945   6
  -2   3  12 89.1890 11.9972   4
   1  -3 -12 35.1427 9.24003   6
  -1   3  12 31.4192 9.02544   4
   0  -3 -12 13.7483 6.83114   6
   0   3  12 10.2982 6.67030   4
  -1  -3 -12 92.9540 9.11836   6
   1   3  12 75.8968 8.60628   1
   1   3  12 68.5215 9.33365   4
  -2  -3 -12 30.2044 8.13942   6
   2   3  12 39.1833 7.24527   1
   2   3  12 43.7814 8.40868   4
  -3  -3 -12 63.2285 7.75723   6
   3   3  12 47.0053 9.14093   4
   3   3  12 44.1894 7.44116   1
   2  -4 -12 80.8008 10.2232   6
  -2   4  12 87.2050 9.30179   1
  -2   4  12 71.7789 10.1322   6
  -2   4  12 59.1669 10.0496   4
   1  -4 -12 52.6871 8.48783   6
  -1   4  12 44.3994 9.36250   4
  -1   4  12 38.9770 8.40813   6
   0  -4 -12 60.0110 8.40322   6
   0   4  12 56.3422 8.08302   1
   0   4  12 43.0087 8.46365   4
  -1  -4 -12 13.7778 6.25820   6
   1   4  12 8.28042 5.87829   1
   1   4  12 18.2785 7.26506   4
  -2  -4 -12 130.656 10.0545   6
   2   4  12 100.608 11.3866   4
   2   4  12 96.6070 10.6396   1
  -3  -4 -12 46.4709 7.02355   6
   3   4  12 36.3088 9.01788   4
   3   4  12 24.9983 7.77497   1
   2  -5 -12 74.2666 9.82093   6
  -2   5  12 82.1675 9.59727   1
  -2   5  12 56.8639 9.38335   6
   1  -5 -12 193.572 13.7362   6
  -1   5  12 140.897 14.8839   4
  -1   5  12 177.989 14.2649   1
  -1   5  12 165.484 13.3727   6
   0  -5 -12 11.3842 6.07216   6
   0   5  12 6.19476 6.92291   1
   0   5  12 11.6104 6.51945   4
  -1  -5 -12 10.6645 5.62381   6
   1   5  12 7.13132 6.73675   1
   1   5  12 13.6772 7.30978   4
  -2  -5 -12 169.881 11.4766   6
   2   5  12 123.063 12.6872   1
   2   5  12 131.730 13.4208   4
   1  -6 -12 12.3101 6.14856   6
  -1   6  12 10.3641 7.55072   6
  -1   6  12 8.90306 7.19685   4
   0  -6 -12 4.80292 6.14849   6
   0   6  12 2.31202 5.77805   4
   0   6  12 -3.6611 7.31124   1
  -1  -6 -12 47.6203 7.65007   6
   1   6  12 41.7348 8.87163   4
   1   6  12 28.3192 8.44164   1
  -2  -6 -12 40.2845 7.21884   6
   2   6  12 30.6276 9.00622   4
   2   6  12 19.6826 7.60827   1
   1  -7 -12 118.385 10.8449   6
  -1   7  12 109.189 11.1371   1
  -1   7  12 96.1286 11.6459   4
   0  -7 -12 4.24400 6.02111   6
   0   7  12 -6.1920 7.31081   1
   0   7  12 8.29273 7.90833   4
  -1  -7 -12 58.2309 7.89897   6
   1   7  12 33.8339 9.89856   1
   1   7  12 63.2597 9.71856   4
   0  -2 -13 81.8994 11.2697   6
   0   2  13 64.2825 10.5261   4
   0   2  13 81.8265 13.4199   2
  -1  -2 -13 41.7482 9.38715   6
   1   2  13 42.6317 11.6365   2
   1   2  13 24.8429 8.57312   4
   0  -3 -13 123.397 11.3032   6
   0   3  13 85.0911 11.4711   4
  -1  -3 -13 35.4508 8.81715   6
   1   3  13 28.0063 8.63725   4
   0  -4 -13 27.9111 8.46804   6
   0   4  13 19.7179 7.61798   4
  -1  -4 -13 8.89919 6.88348   6
   1   4  13 -1.4131 6.02594   1
   1   4  13 0.38788 6.02400   4
   0  -5 -13 74.7726 9.68225   6
   0   5  13 82.1684 9.63086   1
   0   5  13 68.1439 10.5233   4
  -1  -5 -13 9.55863 6.48244   6
   1   5  13 12.7985 7.96906   4
   1   5  13 2.55685 6.57032   1
   0   0   0    0.00    0.00   0
;
_shelx_hkl_checksum              44381
#END Tags that were not found in dictionaries
loop_
_space_group_symop_operation_xyz
'x, y, z'
'-x, -y, -z'
loop_
_atom_site_label
_atom_site_type_symbol
_atom_site_fract_x
_atom_site_fract_y
_atom_site_fract_z
_atom_site_U_iso_or_equiv
_atom_site_adp_type
_atom_site_occupancy
_atom_site_site_symmetry_order
_atom_site_calc_flag
_atom_site_refinement_flags_posn
_atom_site_refinement_flags_adp
S1 S 0.8065(2) 0.65303(14) 0.97309(12) 0.0220(4) Uani 1 1 d . U
N1 N 0.4557(8) 0.4339(5) 0.7865(4) 0.0223(9) Uani 1 1 d . U
H1 H 0.372(13) 0.478(7) 0.743(7) 0.05(2) Uiso 1 1 d . .
C1 C 0.5911(8) 0.5328(5) 0.9503(5) 0.0203(10) Uani 1 1 d . U
C2 C 0.6175(8) 0.5169(5) 0.8308(4) 0.0205(10) Uani 1 1 d . U
C3 C 0.8173(8) 0.5980(5) 0.7528(5) 0.0210(10) Uani 1 1 d . U
C4 C 0.8947(8) 0.6055(6) 0.6273(5) 0.0266(11) Uani 1 1 d . U
H4 H 0.8137 0.5530 0.5816 0.032 Uiso 1 1 calc R U
C5 C 1.0936(9) 0.6921(6) 0.5710(5) 0.0282(12) Uani 1 1 d . U
H5 H 1.1470 0.6994 0.4859 0.034 Uiso 1 1 calc R U
C6 C 1.2155(9) 0.7686(6) 0.6397(5) 0.0286(12) Uani 1 1 d . U
H6 H 1.3510 0.8263 0.6004 0.034 Uiso 1 1 calc R U
C7 C 1.1395(8) 0.7606(5) 0.7647(5) 0.0245(11) Uani 1 1 d . U
H7 H 1.2225 0.8115 0.8110 0.029 Uiso 1 1 calc R U
C8 C 0.9387(8) 0.6760(5) 0.8200(4) 0.0211(10) Uani 1 1 d . U
C9 C 0.5205(8) 0.3052(6) 0.7596(4) 0.0235(11) Uani 1 1 d . U
C10 C 0.7287(9) 0.2230(6) 0.8089(5) 0.0271(11) Uani 1 1 d . U
H10 H 0.8344 0.2580 0.8579 0.032 Uiso 1 1 calc R U
C11 C 0.7787(9) 0.0913(6) 0.7858(5) 0.0322(13) Uani 1 1 d . U
H11 H 0.9179 0.0366 0.8204 0.039 Uiso 1 1 calc R U
C12 C 0.6292(10) 0.0371(6) 0.7126(6) 0.0337(13) Uani 1 1 d . U
H12 H 0.6660 -0.0527 0.6966 0.040 Uiso 1 1 calc R U
C13 C 0.4238(9) 0.1190(6) 0.6637(5) 0.0311(12) Uani 1 1 d . U
H13 H 0.3194 0.0841 0.6140 0.037 Uiso 1 1 calc R U
C14 C 0.3706(8) 0.2498(6) 0.6868(5) 0.0250(11) Uani 1 1 d . U
H14 H 0.2300 0.3033 0.6527 0.030 Uiso 1 1 calc R U
loop_
_atom_site_aniso_label
_atom_site_aniso_U_11
_atom_site_aniso_U_22
_atom_site_aniso_U_33
_atom_site_aniso_U_23
_atom_site_aniso_U_13
_atom_site_aniso_U_12
S1 0.0129(6) 0.0322(7) 0.0228(6) -0.0109(5) -0.0008(4) -0.0031(5)
N1 0.013(2) 0.033(3) 0.021(2) -0.0091(19) -0.0047(17) 0.0036(18)
C1 0.012(2) 0.025(3) 0.025(2) -0.009(2) -0.0026(19) 0.0027(19)
C2 0.014(2) 0.030(3) 0.017(2) -0.006(2) -0.0020(18) -0.0001(19)
C3 0.009(2) 0.028(3) 0.024(2) -0.004(2) -0.0035(18) 0.0024(19)
C4 0.013(2) 0.041(3) 0.026(3) -0.011(2) -0.0019(19) 0.000(2)
C5 0.018(2) 0.043(3) 0.023(3) -0.009(2) 0.000(2) 0.001(2)
C6 0.015(2) 0.038(3) 0.031(3) -0.007(2) 0.000(2) -0.001(2)
C7 0.015(2) 0.029(3) 0.031(3) -0.010(2) -0.009(2) 0.000(2)
C8 0.014(2) 0.031(3) 0.018(2) -0.006(2) -0.0041(18) 0.0006(19)
C9 0.013(2) 0.038(3) 0.020(2) -0.011(2) 0.0024(18) -0.003(2)
C10 0.015(2) 0.036(3) 0.031(3) -0.010(2) -0.006(2) -0.002(2)
C11 0.013(2) 0.038(3) 0.045(3) -0.011(3) -0.004(2) 0.001(2)
C12 0.024(3) 0.032(3) 0.045(3) -0.012(3) 0.002(2) -0.004(2)
C13 0.019(3) 0.043(3) 0.033(3) -0.012(2) -0.003(2) -0.009(2)
C14 0.013(2) 0.042(3) 0.022(2) -0.011(2) -0.0023(19) 0.000(2)
loop_
_atom_type_symbol
_atom_type_description
_atom_type_scat_dispersion_real
_atom_type_scat_dispersion_imag
_atom_type_scat_source
C C 0.0033 0.0016 'International Tables Vol C Tables 4.2.6.8 and 6.1.1.4'
H H 0.0000 0.0000 'International Tables Vol C Tables 4.2.6.8 and 6.1.1.4'
N N 0.0061 0.0033 'International Tables Vol C Tables 4.2.6.8 and 6.1.1.4'
S S 0.1246 0.1234 'International Tables Vol C Tables 4.2.6.8 and 6.1.1.4'
loop_
_geom_angle_atom_site_label_1
_geom_angle_atom_site_label_2
_geom_angle_atom_site_label_3
_geom_angle
_geom_angle_site_symmetry_1
_geom_angle_site_symmetry_3
C8 S1 C1 91.2(2) . .
C2 N1 H1 112(6) . .
C9 N1 H1 114(6) . .
C9 N1 C2 124.1(4) . .
C1 C1 S1 121.1(5) 2_667 .
C2 C1 S1 111.6(4) . .
C2 C1 C1 127.3(5) . 2_667
N1 C2 C3 123.6(4) . .
C1 C2 N1 122.3(4) . .
C1 C2 C3 114.1(4) . .
C4 C3 C2 128.8(4) . .
C4 C3 C8 120.3(4) . .
C8 C3 C2 110.9(4) . .
C3 C4 H4 120.7 . .
C5 C4 C3 118.6(5) . .
C5 C4 H4 120.7 . .
C4 C5 H5 119.7 . .
C4 C5 C6 120.6(5) . .
C6 C5 H5 119.7 . .
C5 C6 H6 119.6 . .
C7 C6 C5 120.9(5) . .
C7 C6 H6 119.6 . .
C6 C7 H7 120.8 . .
C8 C7 C6 118.5(4) . .
C8 C7 H7 120.8 . .
C3 C8 S1 112.2(3) . .
C7 C8 S1 126.6(4) . .
C7 C8 C3 121.1(4) . .
N1 C9 C10 122.0(4) . .
N1 C9 C14 119.9(4) . .
C14 C9 C10 117.9(5) . .
C9 C10 H10 119.9 . .
C11 C10 C9 120.1(5) . .
C11 C10 H10 119.9 . .
C10 C11 H11 119.2 . .
C10 C11 C12 121.6(5) . .
C12 C11 H11 119.2 . .
C11 C12 H12 120.9 . .
C11 C12 C13 118.1(5) . .
C13 C12 H12 120.9 . .
C12 C13 H13 119.5 . .
C14 C13 C12 120.9(5) . .
C14 C13 H13 119.5 . .
C9 C14 H14 119.3 . .
C13 C14 C9 121.3(5) . .
C13 C14 H14 119.3 . .
loop_
_geom_bond_atom_site_label_1
_geom_bond_atom_site_label_2
_geom_bond_distance
_geom_bond_site_symmetry_2
S1 C1 1.766(5) .
S1 C8 1.753(5) .
N1 H1 0.72(7) .
N1 C2 1.416(6) .
N1 C9 1.394(7) .
C1 C1 1.454(9) 2_667
C1 C2 1.369(7) .
C2 C3 1.453(6) .
C3 C4 1.405(7) .
C3 C8 1.409(7) .
C4 H4 0.9500 .
C4 C5 1.400(7) .
C5 H5 0.9500 .
C5 C6 1.412(7) .
C6 H6 0.9500 .
C6 C7 1.397(7) .
C7 H7 0.9500 .
C7 C8 1.396(7) .
C9 C10 1.415(7) .
C9 C14 1.404(7) .
C10 H10 0.9500 .
C10 C11 1.387(8) .
C11 H11 0.9500 .
C11 C12 1.399(8) .
C12 H12 0.9500 .
C12 C13 1.400(8) .
C13 H13 0.9500 .
C13 C14 1.382(8) .
C14 H14 0.9500 .
loop_
_geom_torsion_atom_site_label_1
_geom_torsion_atom_site_label_2
_geom_torsion_atom_site_label_3
_geom_torsion_atom_site_label_4
_geom_torsion
_geom_torsion_site_symmetry_1
_geom_torsion_site_symmetry_4
S1 C1 C2 N1 -175.5(4) . .
S1 C1 C2 C3 1.6(5) . .
N1 C2 C3 C4 -3.1(8) . .
N1 C2 C3 C8 176.8(4) . .
N1 C9 C10 C11 176.3(5) . .
N1 C9 C14 C13 -176.9(5) . .
C1 S1 C8 C3 1.8(4) . .
C1 S1 C8 C7 -178.6(5) . .
C1 C1 C2 N1 2.4(9) 2_667 .
C1 C1 C2 C3 179.5(6) 2_667 .
C1 C2 C3 C4 179.8(5) . .
C1 C2 C3 C8 -0.3(6) . .
C2 N1 C9 C10 19.3(7) . .
C2 N1 C9 C14 -163.9(5) . .
C2 C3 C4 C5 179.9(5) . .
C2 C3 C8 S1 -1.2(5) . .
C2 C3 C8 C7 179.1(4) . .
C3 C4 C5 C6 0.8(8) . .
C4 C3 C8 S1 178.7(4) . .
C4 C3 C8 C7 -0.9(7) . .
C4 C5 C6 C7 -0.5(8) . .
C5 C6 C7 C8 -0.5(8) . .
C6 C7 C8 S1 -178.4(4) . .
C6 C7 C8 C3 1.2(7) . .
C8 S1 C1 C1 -180.0(5) . 2_667
C8 S1 C1 C2 -1.9(4) . .
C8 C3 C4 C5 -0.1(7) . .
C9 N1 C2 C1 -113.2(6) . .
C9 N1 C2 C3 70.0(7) . .
C9 C10 C11 C12 0.9(8) . .
C10 C9 C14 C13 0.1(7) . .
C10 C11 C12 C13 -0.7(8) . .
C11 C12 C13 C14 0.2(8) . .
C12 C13 C14 C9 0.1(8) . .
C14 C9 C10 C11 -0.6(7) . .
