#------------------------------------------------------------------------------
#$Date: 2016-03-21 04:26:14 +0200 (Mon, 21 Mar 2016) $
#$Revision: 178469 $
#$URL: svn://www.crystallography.net/cod/cif/4/02/90/4029024.cif $
#------------------------------------------------------------------------------
#
# This file is available in the Crystallography Open Database (COD),
# http://www.crystallography.net/
#
# All data on this site have been placed in the public domain by the
# contributors.
#
data_4029024
loop_
_publ_author_name
'Su, Chicheung'
'Guang, Jie'
'Williard, Paul G.'
_publ_section_title
;
 Structures of Lithium N-Monosubstituted Anilides: Trisolvated Monomer to
 Tetrasolvated Dimer.
;
_journal_issue                   3
_journal_name_full               'The Journal of organic chemistry'
_journal_page_first              1032
_journal_paper_doi               10.1021/jo402498z
_journal_volume                  79
_journal_year                    2014
_chemical_formula_sum            'C11 H18 Li N O2'
_chemical_formula_weight         203.20
_space_group_crystal_system      triclinic
_space_group_IT_number           2
_space_group_name_Hall           '-P 1'
_space_group_name_H-M_alt        'P -1'
_symmetry_space_group_name_Hall  '-P 1'
_symmetry_space_group_name_H-M   'P -1'
_atom_sites_solution_hydrogens   geom
_cell_angle_alpha                79.550(6)
_cell_angle_beta                 68.433(6)
_cell_angle_gamma                75.674(6)
_cell_formula_units_Z            2
_cell_length_a                   8.1783(8)
_cell_length_b                   8.8499(8)
_cell_length_c                   9.4271(9)
_cell_measurement_temperature    213.(2)
_cell_volume                     611.70(10)
_computing_structure_refinement  'SHELXL-2013 (Sheldrick, 2013)'
_diffrn_ambient_temperature      213.(2)
_diffrn_measured_fraction_theta_full 0.996
_diffrn_measured_fraction_theta_max 0.996
_diffrn_radiation_wavelength     0.71073
_diffrn_reflns_av_R_equivalents  0.0289
_diffrn_reflns_limit_h_max       9
_diffrn_reflns_limit_h_min       -9
_diffrn_reflns_limit_k_max       9
_diffrn_reflns_limit_k_min       -9
_diffrn_reflns_limit_l_max       10
_diffrn_reflns_limit_l_min       -10
_diffrn_reflns_number            7940
_diffrn_reflns_theta_full        23.38
_diffrn_reflns_theta_max         23.38
_diffrn_reflns_theta_min         2.33
_exptl_absorpt_coefficient_mu    0.073
_exptl_absorpt_correction_T_max  0.99
_exptl_absorpt_correction_T_min  0.98
_exptl_absorpt_process_details
;
;
_exptl_crystal_density_diffrn    1.103
_exptl_crystal_density_method    'not measured'
_exptl_crystal_F_000             220
_exptl_crystal_size_max          0.232
_exptl_crystal_size_mid          0.200
_exptl_crystal_size_min          0.150
_refine_diff_density_max         1.074
_refine_diff_density_min         -0.444
_refine_ls_extinction_method     none
_refine_ls_goodness_of_fit_ref   1.840
_refine_ls_hydrogen_treatment    constr
_refine_ls_matrix_type           full
_refine_ls_number_parameters     149
_refine_ls_number_reflns         1776
_refine_ls_number_restraints     0
_refine_ls_restrained_S_all      1.840
_refine_ls_R_factor_all          0.1303
_refine_ls_R_factor_gt           0.1005
_refine_ls_shift/su_max          9.514
_refine_ls_shift/su_mean         0.073
_refine_ls_structure_factor_coef Fsqd
_refine_ls_weighting_details
'w=1/[\s^2^(Fo^2^)+(0.0938P)^2^+0.2089P] where P=(Fo^2^+2Fc^2^)/3'
_refine_ls_weighting_scheme      calc
_refine_ls_wR_factor_gt          0.2736
_refine_ls_wR_factor_ref         0.2913
_reflns_number_gt                1290
_reflns_number_total             1776
_reflns_threshold_expression     'I > 2\s(I)'
_cod_data_source_file            jo402498z_si_002.cif
_cod_data_source_block           958143
_cod_database_code               4029024
#BEGIN Tags that were not found in dictionaries:
_shelx_res_file
;
TITL mount_0m in P-1
CELL 0.71073 8.1783 8.8499 9.4271 79.550 68.433 75.674
ZERR 2.00 0.0008 0.0008 0.0009 0.006 0.006 0.006
LATT 1
SFAC C  H  O  Li N
UNIT 22  36  4  2  2
OMIT  1  -1  2
OMIT  -3  0  2
OMIT  1  1  0
L.S. 16
BOND  $H
CONF
ACTA
FMAP -2
PLAN 4
SIZE 0.150 0.200 0.232
TEMP -60.00
WGHT    0.093800    0.208900
FVAR       0.36945   0.44069
MOLE 1
C1    1    0.256193    0.614110    0.754928    11.00000    0.06536    0.04364 =
         0.04726   -0.01159    0.00041   -0.01577
AFIX 137
H1A   2    0.126989    0.623361    0.794203    11.00000   -1.50000
H1B   2    0.285840    0.711767    0.696681    11.00000   -1.50000
H1C   2    0.301487    0.591469    0.839822    11.00000   -1.50000
AFIX   0
C2    1    0.200507    0.310612    0.880533    11.00000    0.04555    0.03746 =
         0.03140   -0.00854   -0.00547   -0.00667
AFIX  43
H2    2    0.153629    0.390915    0.946031    11.00000   -1.20000
AFIX   0
C3    1    0.170761    0.162168    0.938510    11.00000    0.06012    0.05143 =
         0.03344    0.00289   -0.00440   -0.01386
AFIX  43
H3    2    0.105145    0.143447    1.043119    11.00000   -1.20000
AFIX   0
C4    1    0.234181    0.039279    0.848034    11.00000    0.06071    0.03889 =
         0.05606    0.00262   -0.01090   -0.01165
AFIX  43
H4    2    0.212615   -0.061818    0.889065    11.00000   -1.20000
AFIX   0
C5    1    0.331169    0.071144    0.693878    11.00000    0.05607    0.03691 =
         0.04812   -0.01284   -0.00827   -0.00136
AFIX  43
H5    2    0.375960   -0.009706    0.629082    11.00000   -1.20000
AFIX   0
C6    1    0.362050    0.217774    0.635657    11.00000    0.04940    0.03959 =
         0.02741   -0.00410   -0.00508   -0.00526
AFIX  43
H6    2    0.428046    0.234775    0.530903    11.00000   -1.20000
AFIX   0
C7    1    0.299860    0.345527    0.724829    11.00000    0.03303    0.03772 =
         0.03029   -0.00586   -0.00814   -0.00473
C8    1    0.314392    0.305791    0.251545    11.00000    0.13582    0.08232 =
         0.12648   -0.04736   -0.09544    0.02256
AFIX 137
H8A   2    0.206763    0.262065    0.298961    11.00000   -1.50000
H8B   2    0.412866    0.235261    0.277765    11.00000   -1.50000
H8C   2    0.343926    0.319201    0.141103    11.00000   -1.50000
AFIX   0
C9    1    0.145565    0.558467    0.267953    11.00000    0.09980    0.07689 =
         0.11660   -0.01976   -0.08103    0.01128
AFIX  23
H9A   2    0.045024    0.507805    0.285407    11.00000   -1.20000
H9B   2    0.187291    0.600068    0.159886    11.00000   -1.20000
AFIX   0
PART 1
C10A  1    0.085517    0.691462    0.371023    21.00000    0.03744    0.08119 =
         0.10829   -0.00725   -0.03359   -0.00096
AFIX  23
H10A  2    0.005135    0.777907    0.334208    21.00000   -1.20000
H10B  2    0.017774    0.653638    0.475524    21.00000   -1.20000
AFIX   0
PART  2
C10B  1    0.180019    0.719267    0.247785   -21.00000    0.11170    0.09223 =
         0.05887   -0.00232   -0.04534    0.02739
AFIX  23
H10C  2    0.281353    0.732979    0.153525   -21.00000   -1.20000
H10D  2    0.074273    0.796292    0.238899   -21.00000   -1.20000
AFIX   0
PART  0
C11   1    0.228598    0.882403    0.329731    11.00000    0.42783    0.11600 =
         1.24175    0.28344   -0.40000   -0.15817
AFIX 137
H11A  2    0.265442    0.924504    0.398769    11.00000   -1.50000
H11B  2    0.112221    0.941921    0.328566    11.00000   -1.50000
H11C  2    0.315825    0.889725    0.227176    11.00000   -1.50000
AFIX   0
LI1   4    0.383854    0.545671    0.430353    11.00000    0.04253    0.03831 =
         0.04227   -0.00199   -0.01797   -0.00543
N1    5    0.337365    0.488055    0.656315    11.00000    0.04083    0.03181 =
         0.03435   -0.00562   -0.00326   -0.00823
O1    3    0.285319    0.449654    0.304055    11.00000    0.07201    0.05928 =
         0.07958   -0.01335   -0.05149    0.00544
O2    3    0.218777    0.743376    0.373989    11.00000    0.08942    0.04615 =
         0.09470   -0.00122   -0.05625    0.00412
HKLF 4 1 1 0 0 0 1 0 0 0 1

REM  mount_0m in P-1
REM R1 =  0.1005 for    1290 Fo > 4sig(Fo)  and  0.1303 for all    1776 data
REM    149 parameters refined using      0 restraints

END

WGHT      0.1710      1.0195

REM Highest difference peak  1.074,  deepest hole -0.444,  1-sigma level  0.072
Q1    1   0.1522  0.8873  0.4440  11.00000  0.05    1.07
Q2    1   0.3083  0.8485  0.2228  11.00000  0.05    1.03
Q3    1   0.1659  0.8737  0.2976  11.00000  0.05   -0.44
Q4    1   0.2638  0.9405  0.2981  11.00000  0.05    0.40
;
_shelx_res_checksum              10650
_shelx_hkl_file
;
  -1   0   0    1.48    0.10
  -1   0   0    1.62    0.10
  -1   0   0    1.51    0.10
  -1   0   0    1.64    0.08
   1   0   0    1.66    0.10
   1   0   0    1.44    0.10
   1   0   0    1.59    0.08
  -2   0   0  918.67   16.08
  -2   0   0 1000.00   16.18
  -2   0   0  964.77   17.25
  -2   0   0  929.96   14.35
   2   0   0  955.31   17.34
   2   0   0  945.29   14.41
   2   0   0  945.12   16.12
   2   0   0  964.55   16.01
  -3   0   0   18.70    0.50
  -3   0   0   19.06    0.47
  -3   0   0   18.76    0.47
  -3   0   0   18.86    0.38
   3   0   0   19.45    0.49
   3   0   0   18.84    0.47
   3   0   0   18.94    0.47
  -4   0   0    0.02    0.13
  -4   0   0    0.01    0.11
   4   0   0    0.02    0.15
   4   0   0   -0.03    0.13
   4   0   0    0.03    0.13
  -5   0   0    0.40    0.16
  -5   0   0    0.48    0.18
   5   0   0    0.14    0.22
   5   0   0    0.21    0.16
   5   0   0    0.38    0.18
  -6   0   0    3.24    0.34
  -6   0   0    3.41    0.41
  -6   0   0    3.59    0.40
   6   0   0    4.01    0.38
   6   0   0    3.65    0.36
   6   0   0    3.50    0.38
  -7   0   0    0.85    0.33
   7   0   0    0.85    0.28
   7   0   0    0.25    0.27
  -8   0   0    0.26    0.41
   8   0   0   -0.02    0.32
   8   0   0    0.21    0.36
   8  -1   0    0.56    0.37
  -8   1   0    0.59    0.44
   7  -1   0    0.51    0.29
   7  -1   0    0.42    0.31
  -7   1   0    0.34    0.37
   6  -1   0    0.41    0.23
   6  -1   0   -0.17    0.21
  -6   1   0    0.06    0.25
   5  -1   0   -0.12    0.18
   5  -1   0   -0.11    0.25
   5  -1   0    0.17    0.15
   5  -1   0    0.10    0.17
  -5   1   0   -0.16    0.20
  -5   1   0   -0.06    0.18
   4  -1   0    6.04    0.33
   4  -1   0    6.03    0.25
   4  -1   0    6.14    0.27
   4  -1   0    6.11    0.38
  -4   1   0    5.88    0.35
  -4   1   0    5.59    0.26
   3  -1   0   12.43    0.42
   3  -1   0   12.33    0.30
   3  -1   0   12.67    0.40
   3  -1   0   13.60    0.34
  -3   1   0   13.07    0.42
  -3   1   0   12.34    0.32
   2  -1   0   17.39    0.45
   2  -1   0   17.55    0.35
   2  -1   0   18.11    0.38
   2  -1   0   17.70    0.45
  -2   1   0   18.19    0.45
  -2   1   0   18.37    0.38
  -2   1   0   17.51    0.45
  -2   1   0   17.61    0.36
   1  -1   0   35.84    0.72
   1  -1   0   34.98    0.61
   1  -1   0   37.20    0.72
  -1   1   0   37.59    0.62
  -1   1   0   36.62    0.72
  -1   1   0   36.96    0.72
   0  -1   0  154.84    2.68
   0  -1   0  164.94    2.69
   0  -1   0  159.64    2.40
   0   1   0  152.00    2.68
  -1  -1   0    6.37    0.12
  -1  -1   0    6.01    0.20
  -1  -1   0    6.17    0.14
  -1  -1   0    6.31    0.16
  -1  -1   0    5.86    0.13
  -1  -1   0    6.22    0.17
   1   1   0    6.19    0.17
   1   1   0    6.17    0.14
   1   1   0    6.28    0.16
  -2  -1   0  190.70    2.88
  -2  -1   0  189.24    3.27
  -2  -1   0  191.82    3.17
  -2  -1   0  194.60    3.49
  -2  -1   0  171.37    3.16
   2   1   0  187.47    3.17
   2   1   0  188.32    3.49
  -3  -1   0   31.82    0.63
  -3  -1   0   32.89    0.63
  -3  -1   0   32.46    0.60
  -3  -1   0   31.18    0.76
  -3  -1   0   31.97    0.74
   3   1   0   32.48    0.77
   3   1   0   31.45    0.63
  -4  -1   0    2.22    0.17
  -4  -1   0    2.48    0.27
  -4  -1   0    2.17    0.18
  -4  -1   0    2.04    0.21
  -4  -1   0    2.16    0.21
   4   1   0    2.56    0.25
   4   1   0    2.28    0.19
  -5  -1   0   28.11    0.61
  -5  -1   0   30.36    0.69
  -5  -1   0   30.23    0.62
  -5  -1   0   28.84    0.84
   5   1   0   29.60    0.69
   5   1   0   26.91    0.68
   5   1   0   30.09    0.82
  -6  -1   0   -0.06    0.21
  -6  -1   0   -0.40    0.24
  -6  -1   0   -0.30    0.22
  -6  -1   0   -0.11    0.17
   6   1   0   -0.27    0.22
   6   1   0   -0.02    0.17
   6   1   0    0.27    0.22
  -7  -1   0    6.75    0.57
  -7  -1   0    6.42    0.39
   7   1   0    7.31    0.45
   7   1   0    6.58    0.51
  -8  -1   0    0.42    0.43
   8   1   0   -0.15    0.28
   8   1   0    0.00    0.35
   7  -2   0   -0.03    0.32
  -7   2   0   -0.29    0.39
   6  -2   0    2.08    0.25
   6  -2   0    1.54    0.30
   6  -2   0    1.88    0.23
  -6   2   0    1.89    0.35
   5  -2   0    8.16    0.60
   5  -2   0    7.86    0.34
   5  -2   0    8.11    0.31
   5  -2   0    8.77    0.50
  -5   2   0    7.88    0.50
   4  -2   0    6.51    0.47
   4  -2   0    6.65    0.22
   4  -2   0    6.53    0.40
   4  -2   0    6.54    0.28
  -4   2   0    6.63    0.40
  -4   2   0    6.19    0.33
   3  -2   0   51.40    1.12
   3  -2   0   51.13    1.13
   3  -2   0   51.22    0.92
  -3   2   0   51.57    1.12
  -3   2   0   52.40    0.94
   2  -2   0   12.92    0.32
   2  -2   0   12.30    0.41
   2  -2   0   12.82    0.43
  -2   2   0   12.44    0.40
  -2   2   0   12.37    0.34
  -2   2   0   12.18    0.40
  -2   2   0   12.69    0.42
   1  -2   0    2.58    0.15
   1  -2   0    2.78    0.19
   1  -2   0    2.76    0.19
  -1   2   0    2.79    0.10
  -1   2   0    2.90    0.20
  -1   2   0    2.58    0.19
  -1   2   0    2.82    0.19
  -1   2   0    2.66    0.15
  -1  -2   0   15.83    0.35
  -1  -2   0   16.19    0.42
  -1  -2   0   16.58    0.36
  -1  -2   0   16.41    0.35
  -1  -2   0   16.33    0.36
  -1  -2   0   15.86    0.33
   1   2   0   15.84    0.36
   1   2   0   16.02    0.35
   1   2   0   15.83    0.42
   1   2   0   16.71    0.36
   1   2   0   15.82    0.36
   1   2   0   16.49    0.34
  -2  -2   0   12.47    0.29
  -2  -2   0   13.37    0.29
  -2  -2   0   13.42    0.33
  -2  -2   0   13.39    0.35
  -2  -2   0   13.20    0.42
  -2  -2   0   13.70    0.26
   2   2   0   13.32    0.33
   2   2   0   13.58    0.26
   2   2   0   13.51    0.41
   2   2   0   12.90    0.35
   2   2   0   13.26    0.28
  -3  -2   0    4.60    0.21
  -3  -2   0    4.73    0.16
  -3  -2   0    4.57    0.14
  -3  -2   0    4.60    0.16
  -3  -2   0    4.66    0.24
   3   2   0    4.61    0.16
   3   2   0    4.72    0.16
   3   2   0    4.82    0.27
  -4  -2   0    1.85    0.22
  -4  -2   0    1.80    0.17
  -4  -2   0    1.57    0.18
   4   2   0    1.91    0.15
   4   2   0    1.63    0.16
   4   2   0    1.53    0.23
  -5  -2   0    3.01    0.24
  -5  -2   0    3.07    0.33
  -5  -2   0    2.74    0.29
  -5  -2   0    2.75    0.24
   5   2   0    2.79    0.34
   5   2   0    2.67    0.22
   5   2   0    3.03    0.24
  -6  -2   0    1.27    0.24
  -6  -2   0    1.40    0.28
  -6  -2   0    1.25    0.21
  -6  -2   0    1.37    0.21
   6   2   0    1.17    0.21
   6   2   0    0.98    0.26
   6   2   0    1.34    0.18
  -7  -2   0    3.01    0.42
  -7  -2   0    2.66    0.28
   7   2   0    3.23    0.39
   7   2   0    3.48    0.33
  -8  -2   0    0.48    0.42
   8   2   0    1.17    0.26
   8   2   0    0.37    0.40
   7  -3   0    0.07    0.38
  -7   3   0    0.48    0.46
   6  -3   0    3.32    0.46
   6  -3   0    3.11    0.37
  -6   3   0    3.65    0.46
   5  -3   0    0.78    0.28
   5  -3   0    0.89    0.22
  -5   3   0    0.88    0.31
   4  -3   0   24.11    0.58
   4  -3   0   24.19    0.77
  -4   3   0   23.78    0.77
   3  -3   0   27.64    0.63
   3  -3   0   29.21    0.80
  -3   3   0   28.81    0.79
   2  -3   0    9.21    0.32
   2  -3   0    9.02    0.40
   2  -3   0    8.60    0.44
  -2   3   0    8.85    0.38
  -2   3   0    9.41    0.34
   1  -3   0   14.74    0.39
   1  -3   0   15.12    0.47
   1  -3   0   14.80    0.47
  -1   3   0   14.92    0.48
  -1   3   0   15.50    0.36
  -1   3   0   14.09    0.42
  -1   3   0   14.69    0.45
  -1   3   0   15.05    0.40
  -1  -3   0    0.19    0.10
  -1  -3   0    0.06    0.10
  -1  -3   0    0.03    0.07
  -1  -3   0    0.14    0.12
  -1  -3   0    0.01    0.10
   1   3   0    0.27    0.11
   1   3   0   -0.06    0.10
   1   3   0   -0.03    0.08
   1   3   0    0.12    0.10
   1   3   0    0.04    0.08
   1   3   0    0.19    0.09
  -2  -3   0   12.31    0.35
  -2  -3   0   12.87    0.33
  -2  -3   0   12.42    0.35
  -2  -3   0   12.37    0.30
  -2  -3   0   12.57    0.33
   2   3   0   12.67    0.30
   2   3   0   12.04    0.35
   2   3   0   12.50    0.43
   2   3   0   11.99    0.34
   2   3   0   12.02    0.31
   2   3   0   12.20    0.36
  -3  -3   0    6.28    0.26
  -3  -3   0    6.29    0.28
  -3  -3   0    5.83    0.21
  -3  -3   0    6.14    0.22
   3   3   0    5.79    0.30
   3   3   0    5.66    0.33
   3   3   0    6.29    0.30
  -4  -3   0    7.15    0.30
  -4  -3   0    7.02    0.23
  -4  -3   0    6.73    0.22
  -4  -3   0    7.25    0.35
   4   3   0    5.67    0.38
   4   3   0    7.08    0.22
   4   3   0    7.20    0.23
  -5  -3   0    1.77    0.19
  -5  -3   0    1.94    0.21
  -5  -3   0    1.65    0.26
   5   3   0    1.80    0.18
   5   3   0    1.76    0.16
   5   3   0    1.58    0.28
  -6  -3   0    1.46    0.28
  -6  -3   0    1.35    0.23
   6   3   0    1.75    0.31
  -7  -3   0    0.73    0.27
  -7  -3   0    0.60    0.31
   7   3   0    0.83    0.33
  -8  -3   0   -0.21    0.37
   8   3   0    0.20    0.40
   6  -4   0   -0.19    0.31
   6  -4   0   -0.01    0.34
  -6   4   0    0.27    0.42
   5  -4   0    1.87    0.38
   5  -4   0    1.86    0.29
  -5   4   0    2.51    0.40
   4  -4   0    0.43    0.21
   4  -4   0    0.36    0.29
  -4   4   0    0.52    0.28
   3  -4   0    0.10    0.23
   3  -4   0   -0.01    0.16
  -3   4   0   -0.05    0.22
   2  -4   0    5.55    0.30
   2  -4   0    4.49    0.41
  -2   4   0    5.77    0.39
   1  -4   0    0.05    0.12
   1  -4   0    0.09    0.16
  -1   4   0    0.07    0.13
  -1   4   0    0.04    0.10
   0  -4   0   23.45    0.58
   0  -4   0   23.34    0.64
   0  -4   0   23.27    0.57
   0   4   0   21.90    0.57
   0   4   0   24.45    0.66
   0   4   0   23.28    0.63
   0   4   0   23.96    0.60
  -1  -4   0   29.57    0.71
  -1  -4   0   29.83    0.65
  -1  -4   0   29.08    0.65
   1   4   0   28.89    0.65
   1   4   0   29.47    0.75
   1   4   0   28.72    0.71
   1   4   0   28.87    0.69
   1   4   0   29.38    0.66
  -2  -4   0    0.38    0.11
  -2  -4   0    0.44    0.13
  -2  -4   0    0.30    0.13
   2   4   0    0.24    0.14
   2   4   0    0.34    0.15
   2   4   0    0.41    0.11
   2   4   0    0.33    0.15
   2   4   0    0.19    0.13
  -3  -4   0   17.41    0.49
  -3  -4   0   16.74    0.45
  -3  -4   0   15.97    0.47
   3   4   0   16.14    0.50
   3   4   0   16.45    0.38
   3   4   0   16.37    0.59
   3   4   0   16.62    0.42
  -4  -4   0    1.54    0.22
  -4  -4   0    1.45    0.20
  -4  -4   0    1.48    0.16
   4   4   0    1.47    0.15
   4   4   0    1.69    0.17
   4   4   0    1.56    0.26
  -5  -4   0    1.84    0.24
  -5  -4   0    1.91    0.25
   5   4   0    1.72    0.30
  -6  -4   0    0.58    0.25
  -6  -4   0    0.06    0.22
   6   4   0    0.14    0.29
  -7  -4   0    2.94    0.34
  -7  -4   0    3.74    0.48
   7   4   0    3.81    0.49
  -8  -4   0    1.20    0.40
  -8  -4   0    0.10    0.34
   8   4   0    0.94    0.46
   6  -5   0    2.57    0.41
   6  -5   0    1.73    0.45
  -6   5   0    2.12    0.54
   5  -5   0    1.19    0.38
   5  -5   0    0.94    0.31
  -5   5   0    1.00    0.43
   4  -5   0   10.34    0.68
   4  -5   0   10.56    0.50
  -4   5   0    9.26    0.67
   3  -5   0    1.48    0.26
   3  -5   0    1.01    0.29
  -3   5   0    1.37    0.31
   2  -5   0    3.93    0.45
   2  -5   0    4.62    0.32
  -2   5   0    4.24    0.42
   1  -5   0    0.56    0.21
   1  -5   0    0.23    0.17
  -1   5   0    0.32    0.19
  -1   5   0    0.13    0.13
   0  -5   0   15.54    0.50
   0  -5   0   16.31    0.59
   0   5   0   15.55    0.50
   0   5   0   15.12    0.55
  -1  -5   0    0.16    0.19
  -1  -5   0    0.21    0.14
  -1  -5   0   -0.05    0.16
   1   5   0    0.22    0.19
   1   5   0    0.08    0.16
   1   5   0    0.20    0.17
   1   5   0    0.41    0.21
  -2  -5   0   39.35    0.91
  -2  -5   0   38.77    0.87
  -2  -5   0   39.37    0.85
   2   5   0   38.19    0.87
   2   5   0   37.56    0.85
   2   5   0   39.13    0.91
   2   5   0   38.73    0.89
   2   5   0   39.27    1.02
  -3  -5   0    0.28    0.17
  -3  -5   0    0.08    0.16
  -3  -5   0    0.27    0.20
   3   5   0    0.25    0.18
   3   5   0   -0.09    0.13
   3   5   0    0.08    0.19
   3   5   0    0.11    0.17
  -4  -5   0    5.45    0.39
  -4  -5   0    4.79    0.35
  -4  -5   0    5.00    0.32
   4   5   0    5.61    0.24
   4   5   0    4.94    0.28
   4   5   0    4.75    0.42
  -5  -5   0    0.43    0.23
  -5  -5   0    0.48    0.24
  -5  -5   0    0.49    0.16
   5   5   0    0.13    0.25
   5   5   0    0.32    0.13
   5   5   0    0.51    0.16
  -6  -5   0    1.61    0.32
  -6  -5   0    1.51    0.32
   6   5   0    1.63    0.35
  -7  -5   0    2.17    0.39
  -7  -5   0    1.80    0.34
   7   5   0    1.86    0.44
   5  -6   0    2.81    0.41
   5  -6   0    2.89    0.52
  -5   6   0    2.20    0.55
   4  -6   0    1.98    0.41
   4  -6   0    1.09    0.33
  -4   6   0    1.21    0.43
   3  -6   0    6.10    0.49
   3  -6   0    7.28    0.63
  -3   6   0    5.94    0.63
   2  -6   0    0.50    0.29
   2  -6   0    0.29    0.25
  -2   6   0    0.56    0.15
  -2   6   0    0.19    0.29
   1  -6   0    0.38    0.22
   1  -6   0    0.12    0.26
  -1   6   0    0.24    0.19
  -1   6   0    0.04    0.23
   0  -6   0    0.27    0.21
   0  -6   0    0.06    0.23
   0   6   0    0.00    0.18
   0   6   0    0.36    0.21
  -1  -6   0    0.38    0.19
  -1  -6   0    0.41    0.24
  -1  -6   0    0.50    0.21
   1   6   0    0.57    0.21
   1   6   0    0.39    0.30
   1   6   0    0.52    0.22
  -2  -6   0    0.38    0.22
  -2  -6   0    0.51    0.20
  -2  -6   0    0.59    0.21
   2   6   0    0.21    0.24
   2   6   0    0.36    0.19
   2   6   0    0.56    0.25
  -3  -6   0    1.25    0.27
  -3  -6   0    1.34    0.23
  -3  -6   0    1.61    0.26
   3   6   0    1.67    0.27
   3   6   0    2.46    0.29
   3   6   0    1.10    0.25
   3   6   0    1.69    0.28
  -4  -6   0    0.06    0.26
  -4  -6   0    0.07    0.22
  -4  -6   0    0.13    0.23
   4   6   0    0.00    0.26
   4   6   0    0.47    0.23
   4   6   0    0.22    0.17
   4   6   0    0.13    0.20
  -5  -6   0    0.11    0.26
  -5  -6   0    0.15    0.25
   5   6   0    0.39    0.30
   5   6   0    0.20    0.17
   5   6   0    0.24    0.21
  -6  -6   0    0.30    0.31
  -6  -6   0    0.52    0.31
   6   6   0    1.05    0.38
  -7  -6   0   -0.17    0.35
  -7  -6   0    0.37    0.34
   7   6   0    0.02    0.40
   4  -7   0   -0.77    0.42
   4  -7   0    0.14    0.36
  -4   7   0   -0.04    0.44
   3  -7   0   35.83    1.01
   3  -7   0   34.53    1.23
  -3   7   0   34.64    1.23
   2  -7   0    0.21    0.34
   2  -7   0    0.54    0.29
  -2   7   0    0.30    0.18
  -2   7   0    0.25    0.32
   1  -7   0   47.47    1.14
   1  -7   0   47.47    1.33
  -1   7   0   46.26    1.11
  -1   7   0   47.85    1.32
   0  -7   0    0.51    0.32
   0  -7   0    0.32    0.26
   0   7   0    0.46    0.26
   0   7   0    0.46    0.25
  -1  -7   0   11.48    0.52
  -1  -7   0   11.09    0.55
  -1  -7   0   11.54    0.68
   1   7   0   11.99    0.60
   1   7   0   11.56    0.55
  -2  -7   0    0.04    0.25
  -2  -7   0    0.33    0.28
  -2  -7   0    0.53    0.23
   2   7   0    0.05    0.22
   2   7   0   -0.05    0.36
   2   7   0    0.12    0.26
  -3  -7   0    0.83    0.28
  -3  -7   0    0.95    0.29
  -3  -7   0    0.27    0.25
   3   7   0    1.24    0.24
   3   7   0    0.56    0.28
   3   7   0    0.57    0.35
  -4  -7   0    1.29    0.32
  -4  -7   0    1.39    0.32
  -4  -7   0    1.42    0.26
   4   7   0    1.37    0.38
   4   7   0    1.43    0.25
  -5  -7   0   -0.04    0.28
  -5  -7   0   -0.61    0.28
   5   7   0    0.23    0.22
   5   7   0    0.02    0.32
  -6  -7   0    0.76    0.37
  -6  -7   0    1.24    0.35
   6   7   0    1.72    0.43
   3  -8   0   -0.79    0.46
   3  -8   0   -0.03    0.35
  -3   8   0    0.06    0.47
   2  -8   0    4.68    0.48
   2  -8   0    4.16    0.60
  -2   8   0    4.01    0.55
   1  -8   0    2.68    0.48
   1  -8   0    1.68    0.36
  -1   8   0    2.10    0.43
  -1   8   0    1.37    0.29
   0  -8   0    0.57    0.40
   0  -8   0    1.42    0.35
   0   8   0    1.06    0.29
   0   8   0    1.10    0.36
  -1  -8   0    0.69    0.37
  -1  -8   0    1.50    0.35
   1   8   0    1.15    0.32
   1   8   0    1.29    0.37
  -2  -8   0    4.71    0.42
  -2  -8   0    3.87    0.48
  -2  -8   0    3.92    0.45
   2   8   0    4.27    0.55
   2   8   0    4.75    0.48
  -3  -8   0   -0.32    0.26
  -3  -8   0    0.29    0.36
  -3  -8   0    0.03    0.33
   3   8   0    0.33    0.28
   3   8   0    0.20    0.32
  -4  -8   0    7.55    0.59
  -4  -8   0    8.29    0.50
   4   8   0    6.45    0.62
   4   8   0    6.25    0.53
  -5  -8   0    0.63    0.37
  -5  -8   0    0.87    0.33
   5   8   0    1.10    0.46
   5   8   0    0.80    0.28
  -6  -8   0    1.92    0.46
  -6  -8   0    1.20    0.39
   6   8   0    0.19    0.45
   6   8   0    0.63    0.27
   1  -9   0    0.48    0.40
   1  -9   0   -0.37    0.49
  -1   9   0    0.64    0.48
   0  -9   0    0.24    0.41
   0  -9   0    0.12    0.45
   0   9   0   -0.19    0.32
   0   9   0   -0.04    0.40
  -1  -9   0    0.67    0.38
  -1  -9   0    0.08    0.43
   1   9   0    0.38    0.36
   1   9   0    0.30    0.34
  -2  -9   0   -0.31    0.42
  -2  -9   0    0.59    0.41
   2   9   0    0.81    0.38
   2   9   0   -0.10    0.34
  -3  -9   0   -0.12    0.40
  -3  -9   0   -0.23    0.33
   3   9   0    0.48    0.42
   3   9   0    0.74    0.33
  -4  -9   0    1.09    0.37
  -4  -9   0    1.17    0.50
   4   9   0    1.10    0.35
   4   9   0    1.33    0.49
   3   9  -1   -0.31    0.38
   3   9  -1   -0.48    0.36
  -3  -9   1    0.03    0.36
  -3  -9   1   -0.16    0.42
   2   9  -1    0.08    0.41
   2   9  -1    1.61    0.37
  -2  -9   1    0.21    0.47
  -2  -9   1    1.38    0.43
  -2  -9   1    0.85    0.37
   1   9  -1    0.84    0.41
   1   9  -1    1.48    0.42
  -1  -9   1    1.71    0.49
  -1  -9   1    1.64    0.43
   0   9  -1    3.02    0.52
   0   9  -1    3.17    0.43
   0  -9   1    2.45    0.58
   0  -9   1    2.28    0.46
  -1   9  -1    0.57    0.44
   1  -9   1    0.47    0.43
   1  -9   1    0.66    0.50
   5   8  -1    1.05    0.32
   5   8  -1   -0.10    0.42
  -5  -8   1    0.70    0.44
  -5  -8   1    1.78    0.40
   4   8  -1    3.60    0.41
   4   8  -1    3.39    0.53
  -4  -8   1    4.13    0.53
  -4  -8   1    4.26    0.46
   3   8  -1    6.88    0.67
   3   8  -1    4.94    0.55
  -3  -8   1    7.32    0.52
  -3  -8   1    5.34    0.63
  -3  -8   1    6.51    0.69
   2   8  -1    1.84    0.42
   2   8  -1    2.50    0.35
  -2  -8   1    1.69    0.35
  -2  -8   1    2.67    0.43
  -2  -8   1    1.92    0.43
   1   8  -1    9.10    0.62
   1   8  -1    9.82    0.67
  -1  -8   1    8.56    0.71
  -1  -8   1    9.93    0.62
  -1  -8   1   10.54    0.57
   0   8  -1    0.15    0.34
   0   8  -1    0.17    0.29
   0  -8   1    0.25    0.37
   0  -8   1    0.48    0.32
  -1   8  -1    0.12    0.29
  -1   8  -1    0.06    0.38
   1  -8   1    0.01    0.39
   1  -8   1    0.59    0.34
  -2   8  -1    0.18    0.40
   2  -8   1    0.31    0.46
   2  -8   1    0.03    0.37
  -3   8  -1    4.70    0.63
   3  -8   1    3.65    0.63
   3  -8   1    4.24    0.54
   6   7  -1    0.14    0.25
   6   7  -1   -0.24    0.43
  -6  -7   1   -0.32    0.36
  -6  -7   1   -0.64    0.38
   5   7  -1    0.38    0.36
  -5  -7   1   -0.19    0.37
  -5  -7   1    0.75    0.32
   4   7  -1    2.78    0.42
   4   7  -1    3.93    0.36
  -4  -7   1    2.96    0.40
  -4  -7   1    3.25    0.37
   3   7  -1    0.54    0.29
   3   7  -1    0.21    0.24
  -3  -7   1   -0.04    0.25
  -3  -7   1    0.35    0.32
  -3  -7   1   -0.04    0.29
   2   7  -1    3.74    0.44
   2   7  -1    4.71    0.45
  -2  -7   1    4.60    0.51
  -2  -7   1    3.16    0.38
  -2  -7   1    3.28    0.40
   1   7  -1    8.65    0.53
   1   7  -1    9.05    0.57
  -1  -7   1    9.15    0.52
  -1  -7   1    9.73    0.50
  -1  -7   1    8.36    0.61
   0   7  -1    0.22    0.26
   0   7  -1    0.48    0.24
   0  -7   1    0.29    0.29
   0  -7   1    0.24    0.26
  -1   7  -1   18.05    0.67
  -1   7  -1   19.29    0.82
   1  -7   1   19.90    0.86
   1  -7   1   18.63    0.71
  -2   7  -1    4.62    0.63
  -2   7  -1    4.19    0.39
   2  -7   1    4.20    0.50
   2  -7   1    4.51    0.50
  -3   7  -1    3.91    0.54
   3  -7   1    3.89    0.53
   3  -7   1    2.79    0.43
  -4   7  -1    7.50    0.87
   4  -7   1    7.12    0.65
   4  -7   1    7.46    0.81
   7   6  -1    0.76    0.45
  -7  -6   1    0.39    0.40
  -7  -6   1    0.22    0.38
   6   6  -1    1.71    0.22
   6   6  -1    0.95    0.41
  -6  -6   1    1.69    0.34
  -6  -6   1    0.58    0.36
   5   6  -1    1.51    0.26
   5   6  -1    1.96    0.39
  -5  -6   1    2.25    0.33
  -5  -6   1    1.21    0.32
   4   6  -1    0.39    0.21
   4   6  -1   -0.15    0.29
   4   6  -1    0.07    0.29
  -4  -6   1    0.23    0.26
  -4  -6   1    0.04    0.26
  -4  -6   1    0.31    0.25
   3   6  -1    2.92    0.36
   3   6  -1    3.04    0.36
   3   6  -1    2.82    0.37
   3   6  -1    2.83    0.36
  -3  -6   1    2.97    0.33
  -3  -6   1    2.76    0.33
  -3  -6   1    3.02    0.34
   2   6  -1    2.62    0.33
   2   6  -1    3.97    0.35
   2   6  -1    2.47    0.34
  -2  -6   1    3.37    0.36
  -2  -6   1    3.77    0.42
  -2  -6   1    2.96    0.33
   1   6  -1    0.81    0.22
   1   6  -1    0.62    0.22
  -1  -6   1    0.44    0.25
  -1  -6   1    0.70    0.23
  -1  -6   1    0.79    0.24
   0   6  -1    5.70    0.45
   0   6  -1    5.90    0.40
   0  -6   1    5.99    0.41
   0  -6   1    6.07    0.38
   0  -6   1    5.47    0.48
  -1   6  -1   12.96    0.62
  -1   6  -1   13.27    0.51
   1  -6   1   12.17    0.64
   1  -6   1   13.10    0.54
  -2   6  -1    0.60    0.30
  -2   6  -1    0.13    0.18
   2  -6   1    0.13    0.25
   2  -6   1   -0.03    0.28
  -3   6  -1   39.34    1.21
   3  -6   1   38.00    1.22
   3  -6   1   37.40    0.99
  -4   6  -1    0.64    0.41
   4  -6   1    0.37    0.29
   4  -6   1    0.34    0.37
  -5   6  -1    7.83    0.90
   5  -6   1    7.34    0.62
   5  -6   1    6.42    0.80
   7   5  -1   12.66    0.81
  -7  -5   1   11.72    0.71
  -7  -5   1   13.20    0.62
   6   5  -1   -0.23    0.34
  -6  -5   1   -0.31    0.27
  -6  -5   1   -0.42    0.28
   5   5  -1   18.81    0.63
   5   5  -1   23.59    0.92
   5   5  -1   22.82    0.59
  -5  -5   1   23.50    0.77
  -5  -5   1   22.56    0.69
  -5  -5   1   22.65    0.63
   4   5  -1    2.10    0.35
   4   5  -1    2.15    0.26
  -4  -5   1    1.77    0.25
  -4  -5   1    2.20    0.27
  -4  -5   1    2.94    0.36
   3   5  -1    4.28    0.32
   3   5  -1    4.94    0.39
   3   5  -1    5.07    0.27
   3   5  -1    5.47    0.40
  -3  -5   1    4.68    0.36
  -3  -5   1    5.02    0.34
  -3  -5   1    4.62    0.35
   2   5  -1    0.90    0.19
   2   5  -1    0.78    0.23
   2   5  -1    1.14    0.21
   2   5  -1    0.91    0.20
  -2  -5   1    0.71    0.18
  -2  -5   1    0.95    0.21
  -2  -5   1    0.68    0.20
   1   5  -1    0.40    0.24
   1   5  -1    0.39    0.21
   1   5  -1    0.18    0.17
  -1  -5   1    0.13    0.16
  -1  -5   1    0.41    0.17
  -1  -5   1    0.61    0.20
   0   5  -1    0.65    0.21
   0   5  -1    1.08    0.21
   0  -5   1    0.94    0.19
   0  -5   1    1.03    0.22
   0  -5   1    0.89    0.20
  -1   5  -1    1.29    0.20
  -1   5  -1    1.30    0.24
   1  -5   1    1.25    0.21
   1  -5   1    1.35    0.25
  -2   5  -1    0.13    0.14
  -2   5  -1    0.33    0.24
   2  -5   1   -0.04    0.24
   2  -5   1    0.27    0.21
  -3   5  -1   -0.18    0.24
   3  -5   1   -0.29    0.20
   3  -5   1   -0.04    0.25
  -4   5  -1   -0.29    0.32
   4  -5   1    0.10    0.27
   4  -5   1   -0.05    0.30
  -5   5  -1    0.26    0.37
   5  -5   1    0.55    0.36
   5  -5   1    0.15    0.30
  -6   5  -1    0.76    0.51
   6  -5   1   -0.05    0.39
   6  -5   1    0.66    0.39
   7   4  -1    0.53    0.19
   7   4  -1    0.12    0.34
  -7  -4   1   -0.61    0.28
  -7  -4   1    0.06    0.34
   6   4  -1    2.55    0.43
   6   4  -1    2.81    0.36
   6   4  -1    2.39    0.22
  -6  -4   1    2.77    0.31
  -6  -4   1    2.68    0.37
   5   4  -1    0.48    0.26
   5   4  -1    1.25    0.21
   5   4  -1    1.09    0.18
  -5  -4   1    0.89    0.24
  -5  -4   1    0.93    0.20
  -5  -4   1    1.11    0.23
   4   4  -1    6.28    0.30
   4   4  -1    6.69    0.44
  -4  -4   1    6.45    0.35
  -4  -4   1    6.89    0.34
  -4  -4   1    5.71    0.37
   3   4  -1    4.60    0.27
   3   4  -1    5.26    0.36
   3   4  -1    5.09    0.33
  -3  -4   1    5.28    0.31
  -3  -4   1    5.11    0.31
  -3  -4   1    5.12    0.31
   2   4  -1   79.68    1.75
   2   4  -1   81.30    1.55
   2   4  -1   84.03    1.58
   2   4  -1   78.45    1.42
  -2  -4   1   79.90    1.57
  -2  -4   1   78.58    1.44
  -2  -4   1   80.69    1.56
   1   4  -1    2.18    0.21
   1   4  -1    1.84    0.23
   1   4  -1    2.34    0.24
   1   4  -1    2.10    0.28
  -1  -4   1    2.44    0.27
  -1  -4   1    2.22    0.21
  -1  -4   1    2.40    0.21
   0   4  -1  106.29    2.07
   0   4  -1  109.48    2.14
   0   4  -1  108.74    2.05
   0  -4   1  106.19    2.01
   0  -4   1  106.33    2.06
   0  -4   1  104.90    1.84
  -1   4  -1   -0.13    0.13
  -1   4  -1   -0.03    0.13
   1  -4   1   -0.11    0.16
   1  -4   1    0.01    0.12
  -2   4  -1   13.64    0.37
  -2   4  -1   13.35    0.55
   2  -4   1   12.88    0.44
   2  -4   1   13.02    0.55
  -3   4  -1   -0.25    0.20
   3  -4   1   -0.33    0.21
   3  -4   1    0.27    0.19
  -4   4  -1    2.04    0.34
   4  -4   1    3.25    0.35
   4  -4   1    2.71    0.34
  -5   4  -1   -0.49    0.30
   5  -4   1    0.36    0.25
   5  -4   1    0.02    0.29
  -6   4  -1    1.60    0.44
   6  -4   1    1.86    0.41
   6  -4   1    1.67    0.34
  -7   4  -1   -0.12    0.50
   7  -4   1    0.22    0.36
   7  -4   1    0.25    0.44
   8   3  -1   -0.07    0.26
   8   3  -1   -0.27    0.42
  -8  -3   1   -0.30    0.40
   7   3  -1    0.27    0.35
   7   3  -1   -0.14    0.21
  -7  -3   1    0.05    0.33
  -7  -3   1    0.12    0.26
   6   3  -1    0.48    0.18
   6   3  -1    0.28    0.23
   6   3  -1    0.67    0.31
  -6  -3   1    0.40    0.21
  -6  -3   1    0.11    0.23
  -6  -3   1    0.23    0.26
   5   3  -1    0.03    0.19
   5   3  -1   -0.18    0.22
   5   3  -1    0.01    0.15
  -5  -3   1    0.19    0.18
  -5  -3   1    0.26    0.20
  -5  -3   1   -0.10    0.16
   4   3  -1    6.07    0.39
   4   3  -1    5.94    0.27
  -4  -3   1    6.31    0.30
  -4  -3   1    6.32    0.37
  -4  -3   1    5.74    0.29
   3   3  -1    7.07    0.39
   3   3  -1    7.47    0.32
   3   3  -1    7.41    0.30
   3   3  -1    7.76    0.28
  -3  -3   1    7.91    0.34
  -3  -3   1    7.48    0.30
  -3  -3   1    8.01    0.30
   2   3  -1   18.14    0.57
   2   3  -1   17.99    0.36
   2   3  -1   16.90    0.50
   2   3  -1   17.81    0.46
   2   3  -1   18.77    0.48
   2   3  -1   18.22    0.45
  -2  -3   1   17.23    0.44
  -2  -3   1   18.00    0.47
  -2  -3   1   18.21    0.49
  -2  -3   1   17.29    0.46
   1   3  -1   30.17    0.64
   1   3  -1   30.49    0.76
   1   3  -1   29.71    0.67
   1   3  -1   31.56    0.70
   1   3  -1   31.48    0.69
   1   3  -1   31.08    0.62
  -1  -3   1   30.02    0.64
  -1  -3   1   30.89    0.68
  -1  -3   1   30.09    0.69
  -1  -3   1   30.92    0.68
   0   3  -1   24.09    0.60
   0   3  -1   24.53    0.55
   0   3  -1   23.77    0.61
   0   3  -1   25.70    0.59
   0  -3   1   24.53    0.62
   0  -3   1   24.24    0.58
   0  -3   1   25.35    0.55
   0  -3   1   25.05    0.61
  -1   3  -1    0.94    0.15
  -1   3  -1    1.00    0.18
  -1   3  -1    1.14    0.18
   1  -3   1    1.02    0.17
   1  -3   1    1.00    0.17
   1  -3   1    1.00    0.14
   1  -3   1    0.77    0.12
  -2   3  -1   15.53    0.51
   2  -3   1   15.16    0.51
   2  -3   1   14.58    0.42
  -3   3  -1   -0.04    0.17
   3  -3   1    0.11    0.16
   3  -3   1   -0.06    0.12
  -4   3  -1    4.54    0.43
   4  -3   1    4.05    0.30
   4  -3   1    4.89    0.40
  -5   3  -1    6.26    0.54
   5  -3   1    6.75    0.42
   5  -3   1    7.82    0.51
  -6   3  -1    3.70    0.49
   6  -3   1    4.37    0.43
   6  -3   1    3.90    0.53
  -7   3  -1    2.80    0.51
   7  -3   1    2.64    0.38
   7  -3   1    2.98    0.44
   8   2  -1    0.46    0.40
   8   2  -1   -0.11    0.28
  -8  -2   1    0.33    0.42
   7   2  -1    1.31    0.34
   7   2  -1    0.71    0.25
  -7  -2   1    0.56    0.35
   6   2  -1    0.39    0.20
   6   2  -1    0.22    0.24
  -6  -2   1    0.37    0.17
  -6  -2   1    0.17    0.22
  -6  -2   1    0.29    0.23
  -6  -2   1    0.29    0.23
  -6  -2   1    0.54    0.28
   5   2  -1    0.39    0.16
   5   2  -1    0.30    0.22
  -5  -2   1    0.12    0.18
  -5  -2   1    0.08    0.20
  -5  -2   1    0.28    0.14
  -5  -2   1    0.31    0.15
   4   2  -1   -0.03    0.16
   4   2  -1   -0.05    0.14
   4   2  -1   -0.20    0.11
  -4  -2   1   -0.08    0.16
  -4  -2   1    0.07    0.13
  -4  -2   1    0.13    0.11
   3   2  -1    2.29    0.20
   3   2  -1    1.83    0.25
   3   2  -1    1.70    0.18
   3   2  -1    2.11    0.17
  -3  -2   1    2.25    0.23
  -3  -2   1    1.97    0.19
  -3  -2   1    1.99    0.16
  -3  -2   1    1.92    0.19
   2   2  -1   14.48    0.46
   2   2  -1   13.78    0.34
   2   2  -1   14.33    0.37
   2   2  -1   13.65    0.41
  -2  -2   1   14.20    0.41
  -2  -2   1   13.90    0.36
  -2  -2   1   14.68    0.34
  -2  -2   1   14.11    0.37
   1   2  -1    2.95    0.16
   1   2  -1    3.14    0.16
   1   2  -1    3.16    0.18
   1   2  -1    3.05    0.18
  -1  -2   1    3.17    0.18
  -1  -2   1    3.03    0.15
  -1  -2   1    3.17    0.17
  -1  -2   1    2.80    0.16
   0   2  -1   74.99    1.40
   0   2  -1   76.62    1.40
   0   2  -1   78.06    1.42
   0   2  -1   76.93    1.27
   0  -2   1   75.02    1.26
   0  -2   1   74.19    1.39
   0  -2   1   73.96    1.40
   0  -2   1   76.57    1.42
  -1   2  -1  123.16    2.20
  -1   2  -1  123.33    2.21
  -1   2  -1  121.44    2.21
  -1   2  -1  123.87    1.97
   1  -2   1  120.80    1.97
   1  -2   1  116.24    2.20
   1  -2   1  125.69    2.23
   1  -2   1  122.14    2.20
  -2   2  -1   33.04    0.77
  -2   2  -1   32.22    0.76
  -2   2  -1   33.63    0.76
  -2   2  -1   33.40    0.66
   2  -2   1   33.20    0.77
   2  -2   1   32.91    0.66
   2  -2   1   33.27    0.76
  -3   2  -1   77.64    1.44
  -3   2  -1   76.54    1.34
  -3   2  -1   76.23    1.53
   3  -2   1   75.75    1.53
   3  -2   1   76.82    1.33
   3  -2   1   75.96    1.54
  -4   2  -1    0.08    0.12
  -4   2  -1   -0.14    0.17
   4  -2   1    0.06    0.14
   4  -2   1   -0.05    0.23
   4  -2   1    0.24    0.17
  -5   2  -1    2.32    0.23
  -5   2  -1    2.65    0.31
   5  -2   1    3.45    0.38
   5  -2   1    3.00    0.28
   5  -2   1    2.93    0.36
  -6   2  -1    0.55    0.31
   6  -2   1    1.19    0.29
   6  -2   1    0.99    0.24
  -7   2  -1    0.54    0.42
   7  -2   1    0.15    0.31
   7  -2   1   -0.22    0.28
   8  -2   1   -0.11    0.40
   8   1  -1    0.29    0.32
   8   1  -1    0.42    0.40
  -8  -1   1    0.23    0.43
   7   1  -1    0.16    0.26
   7   1  -1    0.13    0.31
  -7  -1   1    1.29    0.37
   6   1  -1    5.95    0.40
   6   1  -1    5.22    0.50
   6   1  -1    5.55    0.44
  -6  -1   1    5.61    0.28
  -6  -1   1    5.01    0.31
  -6  -1   1    5.48    0.46
  -6  -1   1    6.65    0.52
   5   1  -1    2.21    0.29
   5   1  -1    2.71    0.28
   5   1  -1    2.49    0.28
  -5  -1   1    2.75    0.31
  -5  -1   1    2.61    0.31
  -5  -1   1    2.74    0.20
  -5  -1   1    2.00    0.22
  -5  -1   1    2.42    0.32
   4   1  -1   28.71    0.68
   4   1  -1   29.95    0.69
   4   1  -1   29.51    0.79
  -4  -1   1   29.24    0.69
  -4  -1   1   26.60    0.77
  -4  -1   1   28.76    0.62
  -4  -1   1   29.59    0.55
  -4  -1   1   28.94    0.54
   3   1  -1   24.78    0.65
   3   1  -1   24.57    0.57
   3   1  -1   23.45    0.55
  -3  -1   1   24.77    0.65
  -3  -1   1   23.41    0.55
  -3  -1   1   24.34    0.48
  -3  -1   1   24.58    0.56
  -3  -1   1   24.31    0.45
   2   1  -1   62.31    1.14
   2   1  -1   61.70    1.27
   2   1  -1   62.60    0.99
   2   1  -1   59.22    1.13
  -2  -1   1   59.86    0.98
  -2  -1   1   60.78    1.02
  -2  -1   1   60.81    1.20
  -2  -1   1   61.57    1.14
  -2  -1   1   59.92    1.13
   1   1  -1  204.62    3.37
   1   1  -1  204.17    3.59
   1   1  -1  210.53    3.55
   1   1  -1  214.33    3.16
  -1  -1   1  205.20    3.54
  -1  -1   1  206.26    3.59
  -1  -1   1  212.34    3.55
  -1  -1   1  206.12    3.16
   0   1  -1   80.89    1.27
   0   1  -1   82.22    1.43
   0   1  -1   79.58    1.42
   0   1  -1   78.88    1.42
   0  -1   1   78.07    1.41
   0  -1   1   79.22    1.42
   0  -1   1   78.77    1.27
   0  -1   1   81.56    1.43
  -1   1  -1   68.16    1.23
  -1   1  -1   66.24    1.22
  -1   1  -1   66.28    1.09
  -1   1  -1   65.44    1.21
   1  -1   1   64.87    1.22
   1  -1   1   66.50    1.22
   1  -1   1   65.86    1.09
   1  -1   1   65.47    1.21
  -2   1  -1  177.05    3.08
  -2   1  -1  176.82    3.08
  -2   1  -1  174.66    3.21
  -2   1  -1  174.94    2.75
   2  -1   1  176.37    3.09
   2  -1   1  176.99    3.08
   2  -1   1  175.18    2.75
  -3   1  -1    4.48    0.28
  -3   1  -1    4.71    0.23
  -3   1  -1    5.22    0.21
  -3   1  -1    4.70    0.25
   3  -1   1    5.21    0.21
   3  -1   1    4.74    0.25
   3  -1   1    4.50    0.27
  -4   1  -1    7.48    0.36
  -4   1  -1    7.41    0.32
  -4   1  -1    7.32    0.32
   4  -1   1    6.57    0.34
   4  -1   1    7.08    0.38
   4  -1   1    7.50    0.29
   4  -1   1    7.62    0.29
  -5   1  -1    3.66    0.35
  -5   1  -1    3.41    0.34
   5  -1   1    2.93    0.31
   5  -1   1    2.80    0.32
   5  -1   1    2.56    0.25
   5  -1   1    2.94    0.26
  -6   1  -1    0.11    0.26
   6  -1   1    0.83    0.23
   6  -1   1    0.45    0.20
   6  -1   1    0.44    0.32
   6  -1   1    0.06    0.20
  -7   1  -1    0.74    0.34
   7  -1   1    0.33    0.30
   7  -1   1    0.36    0.26
   8  -1   1    0.69    0.35
   7   0  -1    0.58    0.28
   7   0  -1    0.03    0.29
  -7   0   1    0.10    0.38
   6   0  -1    0.75    0.25
   6   0  -1    0.43    0.36
   6   0  -1    0.91    0.27
  -6   0   1    0.76    0.30
  -6   0   1    0.59    0.15
  -6   0   1    0.88    0.31
   5   0  -1    5.89    0.37
   5   0  -1    5.72    0.45
   5   0  -1    6.26    0.40
  -5   0   1    5.73    0.22
  -5   0   1    5.54    0.24
  -5   0   1    5.56    0.42
  -5   0   1    5.61    0.43
   4   0  -1   -0.09    0.17
   4   0  -1   -0.03    0.13
   4   0  -1    0.12    0.16
  -4   0   1    0.17    0.15
  -4   0   1    0.06    0.09
  -4   0   1    0.11    0.18
  -4   0   1    0.01    0.08
  -4   0   1   -0.05    0.17
   3   0  -1   25.06    0.60
   3   0  -1   24.81    0.61
   3   0  -1   25.93    0.64
  -3   0   1   24.32    0.56
  -3   0   1   25.02    0.43
  -3   0   1   25.08    0.61
  -3   0   1   25.89    0.67
  -3   0   1   25.32    0.43
   2   0  -1   50.64    1.01
   2   0  -1   52.96    1.01
  -2   0   1   52.42    0.94
  -2   0   1   51.55    1.01
  -2   0   1   52.64    1.06
  -2   0   1   52.11    1.01
   1   0  -1   10.09    0.28
   1   0  -1    9.84    0.26
   1   0  -1   10.63    0.27
   1   0  -1   10.11    0.23
  -1   0   1   10.23    0.27
  -1   0   1   10.33    0.26
  -1   0   1    9.95    0.28
  -1   0   1   10.21    0.23
   0   0  -1   80.95    1.45
   0   0   1   82.01    1.45
   0   0   1   82.73    1.28
   0   0   1   83.72    1.45
  -1   0  -1   52.25    0.95
  -1   0  -1   52.09    0.96
  -1   0  -1   52.42    0.96
  -1   0  -1   52.73    0.87
   1   0   1   52.38    0.95
   1   0   1   51.47    0.96
   1   0   1   52.83    0.97
  -2   0  -1   81.53    1.47
  -2   0  -1   79.85    1.33
  -2   0  -1   83.39    1.58
  -2   0  -1   83.45    1.47
   2   0   1   82.27    1.33
   2   0   1   83.70    1.47
   2   0   1   83.21    1.47
   2   0   1   83.96    1.58
  -3   0  -1   75.51    1.27
  -3   0  -1   75.79    1.50
  -3   0  -1   75.81    1.40
  -3   0  -1   74.95    1.40
   3   0   1   75.22    1.40
   3   0   1   79.20    1.51
   3   0   1   75.13    1.40
   3   0   1   76.38    1.27
  -4   0  -1   15.69    0.44
  -4   0  -1   14.99    0.41
  -4   0  -1   14.89    0.48
   4   0   1   15.94    0.45
   4   0   1   16.15    0.46
   4   0   1   15.17    0.44
   4   0   1   16.02    0.40
  -5   0  -1   -0.01    0.15
   5   0   1    0.03    0.15
   5   0   1    0.02    0.16
   5   0   1   -0.04    0.18
  -6   0  -1    1.63    0.27
   6   0   1    2.40    0.32
   6   0   1    1.71    0.27
   6   0   1    1.68    0.30
  -7   0  -1    2.28    0.33
   7   0   1    2.30    0.32
   7   0   1    2.08    0.30
  -8   0  -1    2.25    0.45
   8   0   1    2.71    0.39
   8   0   1    1.88    0.35
   7  -1  -1   -0.25    0.31
   7  -1  -1    0.02    0.31
  -7   1   1   -0.44    0.39
   6  -1  -1    2.10    0.30
   6  -1  -1    2.17    0.30
  -6   1   1    2.66    0.38
  -6   1   1    2.49    0.38
   5  -1  -1    2.62    0.31
   5  -1  -1    2.87    0.37
   5  -1  -1    3.38    0.37
  -5   1   1    2.60    0.35
  -5   1   1    3.16    0.40
  -5   1   1    2.60    0.24
   4  -1  -1   14.37    0.57
   4  -1  -1   15.22    0.52
   4  -1  -1   15.03    0.47
  -4   1   1   15.22    0.34
  -4   1   1   15.15    0.55
   3  -1  -1    6.17    0.17
   3  -1  -1    5.99    0.25
   3  -1  -1    6.13    0.30
   3  -1  -1    5.14    0.33
  -3   1   1    5.97    0.19
  -3   1   1    6.00    0.32
  -3   1   1    6.20    0.32
   2  -1  -1   -0.08    0.11
   2  -1  -1   -0.07    0.05
   2  -1  -1    0.07    0.09
  -2   1   1    0.04    0.11
  -2   1   1    0.07    0.09
  -2   1   1    0.05    0.05
  -2   1   1   -0.05    0.10
   1  -1  -1   10.85    0.21
   1  -1  -1   10.71    0.29
   1  -1  -1   10.68    0.31
   1  -1  -1   10.74    0.31
  -1   1   1   10.92    0.21
  -1   1   1   10.26    0.30
  -1   1   1   10.65    0.31
  -1   1   1   10.37    0.28
   0  -1  -1  447.84    7.72
   0  -1  -1  461.34    7.64
   0  -1  -1  454.09    7.38
   0  -1  -1  450.45    6.91
   0   1   1  455.85    7.36
   0   1   1  455.36    7.77
   0   1   1  464.90    7.71
   0   1   1  460.25    6.86
   0   1   1  433.64    7.76
  -1  -1  -1    0.45    0.05
  -1  -1  -1    0.50    0.06
  -1  -1  -1    0.45    0.07
  -1  -1  -1    0.43    0.06
   1   1   1    0.45    0.06
   1   1   1    0.43    0.06
   1   1   1    0.39    0.07
  -2  -1  -1  262.62    4.88
  -2  -1  -1  271.08    4.45
   2   1   1  268.71    4.45
   2   1   1  264.30    4.88
  -3  -1  -1    1.44    0.15
  -3  -1  -1    1.41    0.11
  -3  -1  -1    1.38    0.10
  -3  -1  -1    1.50    0.19
   3   1   1    1.53    0.17
   3   1   1    1.46    0.11
   3   1   1    1.24    0.10
  -4  -1  -1    5.08    0.26
  -4  -1  -1    5.11    0.22
  -4  -1  -1    5.61    0.24
   4   1   1    5.61    0.29
   4   1   1    5.01    0.21
  -5  -1  -1    0.94    0.16
   5   1   1    0.64    0.14
   5   1   1    0.82    0.20
  -6  -1  -1    0.11    0.18
   6   1   1    0.05    0.18
   6   1   1    0.31    0.16
  -7  -1  -1    3.64    0.46
   7   1   1    3.15    0.43
   7   1   1    2.71    0.36
  -8  -1  -1   -0.39    0.34
  -8  -1  -1   -0.29    0.30
   8   1   1   -0.20    0.35
   8   1   1    0.07    0.26
   7  -2  -1    0.67    0.36
  -7   2   1    0.42    0.37
   6  -2  -1    7.07    0.57
   6  -2  -1    7.38    0.41
  -6   2   1    7.57    0.66
   5  -2  -1    0.11    0.23
   5  -2  -1    0.17    0.14
   5  -2  -1    0.30    0.16
  -5   2   1    0.12    0.20
  -5   2   1    0.22    0.27
   4  -2  -1    3.91    0.39
   4  -2  -1    3.92    0.22
   4  -2  -1    3.65    0.37
   4  -2  -1    3.73    0.22
  -4   2   1    3.57    0.25
  -4   2   1    4.32    0.39
   3  -2  -1    3.20    0.36
   3  -2  -1    3.49    0.17
   3  -2  -1    2.95    0.30
   3  -2  -1    2.79    0.18
  -3   2   1    2.88    0.21
  -3   2   1    3.18    0.31
   2  -2  -1    0.73    0.10
   2  -2  -1    0.69    0.17
   2  -2  -1    0.56    0.14
  -2   2   1    0.57    0.14
  -2   2   1    0.68    0.11
   1  -2  -1   23.44    0.46
   1  -2  -1   22.43    0.56
   1  -2  -1   22.77    0.54
   1  -2  -1   23.00    0.45
   1  -2  -1   22.47    0.56
  -1   2   1   23.14    0.57
  -1   2   1   22.90    0.54
  -1   2   1   23.80    0.57
  -1   2   1   23.34    0.46
   0  -2  -1   57.13    1.09
   0  -2  -1   55.49    1.10
   0  -2  -1   57.30    0.96
   0  -2  -1   56.82    1.05
   0   2   1   58.48    1.09
   0   2   1   57.32    1.09
   0   2   1   56.35    0.96
   0   2   1   57.22    1.05
   0   2   1   56.96    1.10
  -1  -2  -1    0.02    0.06
  -1  -2  -1    0.00    0.06
  -1  -2  -1    0.03    0.07
  -1  -2  -1    0.05    0.06
  -1  -2  -1    0.08    0.06
   1   2   1    0.04    0.06
   1   2   1    0.12    0.07
   1   2   1    0.07    0.07
   1   2   1    0.01    0.03
   1   2   1    0.07    0.07
   1   2   1    0.00    0.06
  -2  -2  -1  135.01    2.31
  -2  -2  -1  139.47    2.30
  -2  -2  -1  136.01    2.62
  -2  -2  -1  135.89    2.36
  -2  -2  -1  135.17    2.19
  -2  -2  -1  140.04    2.32
   2   2   1  132.50    2.31
   2   2   1  138.76    2.62
   2   2   1  138.79    2.31
   2   2   1  138.79    2.30
  -3  -2  -1    5.62    0.23
  -3  -2  -1    5.32    0.20
  -3  -2  -1    5.14    0.23
  -3  -2  -1    4.53    0.29
   3   2   1    4.89    0.26
  -4  -2  -1   28.76    0.62
  -4  -2  -1   29.18    0.71
  -4  -2  -1   29.03    0.63
   4   2   1   29.65    0.78
  -5  -2  -1    0.06    0.19
  -5  -2  -1   -0.28    0.15
   5   2   1   -0.18    0.17
  -6  -2  -1   -0.22    0.23
  -6  -2  -1    0.06    0.15
  -6  -2  -1   -0.04    0.18
   6   2   1    0.13    0.14
   6   2   1   -0.25    0.21
   6   2   1    0.09    0.13
  -7  -2  -1    0.92    0.32
  -7  -2  -1    0.24    0.24
   7   2   1    0.06    0.27
   7   2   1    0.56    0.20
   7   2   1   -0.03    0.16
  -8  -2  -1    0.83    0.39
  -8  -2  -1    0.28    0.32
   8   2   1    0.80    0.36
   8   2   1    0.76    0.22
   7  -3  -1    0.56    0.41
  -7   3   1   -0.12    0.40
   6  -3  -1    5.77    0.39
   6  -3  -1    6.11    0.61
  -6   3   1    5.73    0.72
   5  -3  -1    5.16    0.52
   5  -3  -1    5.64    0.34
  -5   3   1    5.18    0.58
   4  -3  -1    6.15    0.30
   4  -3  -1    6.09    0.46
  -4   3   1    6.43    0.38
  -4   3   1    5.28    0.48
   3  -3  -1   71.00    1.24
   3  -3  -1   71.71    1.55
  -3   3   1   71.60    1.54
  -3   3   1   70.28    1.26
   2  -3  -1    2.66    0.20
   2  -3  -1    2.29    0.28
  -2   3   1    2.25    0.25
  -2   3   1    2.01    0.26
   1  -3  -1   89.42    1.73
   1  -3  -1   86.67    1.48
   1  -3  -1   87.67    1.64
   1  -3  -1   87.25    1.65
   1  -3  -1   86.82    1.71
  -1   3   1   90.02    1.72
  -1   3   1   89.59    1.49
  -1   3   1   87.90    1.71
   0  -3  -1    6.15    0.29
   0  -3  -1    6.26    0.24
   0  -3  -1    6.69    0.29
   0  -3  -1    6.41    0.27
   0  -3  -1    6.33    0.24
   0   3   1    6.27    0.25
   0   3   1    6.68    0.28
   0   3   1    6.28    0.29
   0   3   1    6.26    0.27
   0   3   1    6.51    0.24
   0   3   1    6.55    0.23
  -1  -3  -1    9.08    0.30
  -1  -3  -1    8.67    0.29
  -1  -3  -1    9.46    0.30
  -1  -3  -1    9.18    0.23
  -1  -3  -1    8.92    0.33
  -1  -3  -1    9.02    0.29
   1   3   1    9.26    0.31
   1   3   1    9.28    0.23
   1   3   1    9.10    0.30
   1   3   1    9.14    0.29
   1   3   1    9.71    0.31
   1   3   1    8.73    0.30
  -2  -3  -1    4.96    0.22
  -2  -3  -1    4.73    0.16
  -2  -3  -1    5.06    0.20
  -2  -3  -1    5.07    0.28
  -2  -3  -1    4.81    0.20
  -2  -3  -1    4.74    0.21
   2   3   1    4.74    0.26
   2   3   1    4.93    0.21
   2   3   1    4.77    0.17
   2   3   1    4.88    0.24
   2   3   1    4.86    0.18
  -3  -3  -1   30.94    0.66
  -3  -3  -1   31.27    0.62
  -3  -3  -1   30.20    0.66
   3   3   1   31.02    0.81
   3   3   1   30.52    0.62
  -4  -3  -1    4.55    0.27
  -4  -3  -1    4.18    0.21
  -4  -3  -1    3.92    0.26
   4   3   1    4.44    0.32
  -5  -3  -1   16.68    0.56
  -5  -3  -1   16.49    0.42
  -5  -3  -1   16.67    0.51
   5   3   1   16.90    0.63
  -6  -3  -1   -0.01    0.21
  -6  -3  -1   -0.14    0.17
  -6  -3  -1    0.24    0.23
   6   3   1   -0.10    0.23
  -7  -3  -1    0.57    0.31
  -7  -3  -1    0.88    0.27
  -7  -3  -1    0.48    0.23
   7   3   1    0.70    0.32
  -8  -3  -1    0.52    0.31
  -8  -3  -1    0.93    0.37
   8   3   1    0.32    0.37
   6  -4  -1    1.13    0.43
  -6   4   1    1.87    0.50
   5  -4  -1    0.29    0.23
   5  -4  -1    0.36    0.31
  -5   4   1    0.59    0.38
   4  -4  -1   10.46    0.44
   4  -4  -1   10.82    0.61
  -4   4   1   10.15    0.62
   3  -4  -1   13.06    0.44
   3  -4  -1   13.14    0.60
  -3   4   1   12.65    0.60
   2  -4  -1    0.06    0.14
   2  -4  -1    0.02    0.17
  -2   4   1   -0.05    0.20
   1  -4  -1   51.37    1.16
   1  -4  -1   51.10    0.99
   1  -4  -1   50.86    1.02
  -1   4   1   52.51    1.16
  -1   4   1   51.46    1.02
   0  -4  -1    4.63    0.26
   0  -4  -1    4.85    0.27
   0  -4  -1    4.69    0.27
   0  -4  -1    5.26    0.32
   0   4   1    4.88    0.25
   0   4   1    4.64    0.34
   0   4   1    4.96    0.24
   0   4   1    4.71    0.28
  -1  -4  -1   29.71    0.76
  -1  -4  -1   30.68    0.73
  -1  -4  -1   31.50    0.71
  -1  -4  -1   31.25    0.68
   1   4   1   31.86    0.74
   1   4   1   30.64    0.72
   1   4   1   31.18    0.64
   1   4   1   31.13    0.76
   1   4   1   31.22    0.72
  -2  -4  -1   32.17    0.72
  -2  -4  -1   31.80    0.69
  -2  -4  -1   32.31    0.71
  -2  -4  -1   32.44    0.65
  -2  -4  -1   32.32    0.71
   2   4   1   33.33    0.84
   2   4   1   32.11    0.66
   2   4   1   32.47    0.71
   2   4   1   33.09    0.72
   2   4   1   31.89    0.70
  -3  -4  -1   27.41    0.59
  -3  -4  -1   26.44    0.59
  -3  -4  -1   27.59    0.66
  -3  -4  -1   27.81    0.61
  -3  -4  -1   27.19    0.59
   3   4   1   26.45    0.60
   3   4   1   26.90    0.61
   3   4   1   27.88    0.79
   3   4   1   28.32    0.58
  -4  -4  -1   30.32    0.71
  -4  -4  -1   30.05    0.62
  -4  -4  -1   29.95    0.71
   4   4   1   28.34    0.86
  -5  -4  -1   26.20    0.71
  -5  -4  -1   26.06    0.56
  -5  -4  -1   25.45    0.69
   5   4   1   26.20    0.85
  -6  -4  -1    1.01    0.17
  -6  -4  -1    0.88    0.25
  -6  -4  -1    0.60    0.24
   6   4   1    1.48    0.29
  -7  -4  -1    0.70    0.28
  -7  -4  -1    1.68    0.24
  -7  -4  -1    1.20    0.31
   7   4   1    1.36    0.38
  -8  -4  -1    1.46    0.41
  -8  -4  -1    1.20    0.36
   8   4   1    1.35    0.41
   6  -5  -1    0.43    0.46
   5  -5  -1    0.66    0.30
   5  -5  -1    0.77    0.41
  -5   5   1    1.13    0.44
   4  -5  -1    1.54    0.37
   4  -5  -1    1.98    0.29
  -4   5   1    2.09    0.40
   3  -5  -1    1.21    0.25
   3  -5  -1    1.14    0.30
  -3   5   1    0.76    0.31
   2  -5  -1    3.35    0.43
   2  -5  -1    2.95    0.31
  -2   5   1    2.78    0.35
   1  -5  -1    0.59    0.19
   1  -5  -1    1.12    0.25
  -1   5   1    0.62    0.13
  -1   5   1    0.73    0.22
   0  -5  -1   25.23    0.64
   0  -5  -1   23.92    0.66
   0  -5  -1   24.61    0.73
   0   5   1   25.19    0.66
   0   5   1   26.35    0.66
   0   5   1   24.93    0.72
  -1  -5  -1   12.06    0.48
  -1  -5  -1   10.80    0.42
  -1  -5  -1   11.07    0.43
   1   5   1   10.84    0.37
   1   5   1   10.87    0.48
   1   5   1   11.63    0.44
   1   5   1   10.74    0.42
  -2  -5  -1    0.32    0.16
  -2  -5  -1    0.26    0.17
  -2  -5  -1    0.26    0.13
  -2  -5  -1   -0.04    0.16
   2   5   1    0.15    0.17
   2   5   1    0.15    0.13
   2   5   1    0.16    0.18
   2   5   1    0.31    0.15
  -3  -5  -1    0.41    0.16
  -3  -5  -1    0.62    0.16
  -3  -5  -1    0.56    0.18
  -3  -5  -1    0.44    0.13
   3   5   1    0.34    0.12
   3   5   1    0.41    0.20
   3   5   1    0.22    0.16
   3   5   1    0.57    0.18
   3   5   1    0.23    0.20
  -4  -5  -1    3.06    0.34
  -4  -5  -1    2.92    0.26
  -4  -5  -1    2.92    0.28
  -4  -5  -1    3.22    0.25
   4   5   1    2.50    0.35
   4   5   1    2.78    0.35
   4   5   1    3.06    0.21
   4   5   1    2.46    0.29
   4   5   1    2.89    0.23
  -5  -5  -1    1.13    0.17
  -5  -5  -1    0.94    0.24
  -5  -5  -1    1.23    0.24
   5   5   1    0.85    0.29
  -6  -5  -1   -0.16    0.25
  -6  -5  -1   -0.27    0.23
   6   5   1   -0.04    0.26
  -7  -5  -1    2.89    0.36
  -7  -5  -1    2.25    0.35
   7   5   1    2.94    0.44
  -8  -5  -1    2.27    0.42
  -8  -5  -1    2.18    0.41
   8   5   1    2.37    0.53
   5  -6  -1    1.53    0.38
   5  -6  -1    0.23    0.43
  -5   6   1    1.01    0.52
   4  -6  -1    2.44    0.47
   4  -6  -1    3.42    0.39
  -4   6   1    3.65    0.51
   3  -6  -1    1.55    0.30
   3  -6  -1    1.21    0.38
  -3   6   1    1.09    0.38
   2  -6  -1    9.27    0.49
   2  -6  -1    9.45    0.66
  -2   6   1    9.69    0.61
   1  -6  -1   22.83    0.68
   1  -6  -1   21.33    0.82
  -1   6   1   21.72    0.58
  -1   6   1   22.48    0.78
   0  -6  -1   11.19    0.50
   0  -6  -1    9.53    0.56
   0   6   1   11.16    0.52
   0   6   1   10.93    0.44
  -1  -6  -1   10.46    0.53
  -1  -6  -1   10.84    0.47
   1   6   1   10.12    0.45
   1   6   1   10.53    0.57
   1   6   1   10.65    0.48
   1   6   1   10.74    0.49
  -2  -6  -1    2.79    0.38
  -2  -6  -1    2.47    0.29
  -2  -6  -1    2.17    0.26
  -2  -6  -1    2.79    0.26
   2   6   1    2.60    0.28
   2   6   1    2.10    0.29
   2   6   1    2.93    0.32
   2   6   1    1.90    0.27
  -3  -6  -1    0.37    0.20
  -3  -6  -1    0.04    0.15
  -3  -6  -1   -0.09    0.20
  -3  -6  -1    0.44    0.23
   3   6   1    0.33    0.22
   3   6   1    0.36    0.18
   3   6   1    0.41    0.22
   3   6   1    0.34    0.22
  -4  -6  -1    0.72    0.20
  -4  -6  -1    0.68    0.21
  -4  -6  -1    0.55    0.19
  -4  -6  -1    0.75    0.25
   4   6   1    1.07    0.26
   4   6   1    0.84    0.26
   4   6   1    0.82    0.17
  -5  -6  -1    1.04    0.24
  -5  -6  -1    1.36    0.19
  -5  -6  -1    0.85    0.27
  -5  -6  -1    0.94    0.21
   5   6   1    1.04    0.17
   5   6   1    0.87    0.31
   5   6   1    1.14    0.14
  -6  -6  -1    1.05    0.32
  -6  -6  -1    0.96    0.27
   6   6   1    2.07    0.38
  -7  -6  -1    0.52    0.33
  -7  -6  -1    0.14    0.35
   7   6   1    0.33    0.37
   4  -7  -1   -0.17    0.45
   4  -7  -1    0.70    0.38
  -4   7   1    0.41    0.47
   3  -7  -1    0.63    0.35
   3  -7  -1   -0.68    0.38
  -3   7   1    0.20    0.40
   2  -7  -1    7.75    0.69
   2  -7  -1    8.73    0.56
  -2   7   1    8.74    0.71
   1  -7  -1   18.32    0.69
   1  -7  -1   18.24    0.83
  -1   7   1   17.10    0.54
  -1   7   1   16.56    0.77
   0  -7  -1   11.72    0.66
   0  -7  -1   10.06    0.53
   0   7   1   11.25    0.62
   0   7   1    9.92    0.50
  -1  -7  -1   26.32    0.90
  -1  -7  -1   27.13    0.79
   1   7   1   25.80    0.84
   1   7   1   26.04    0.82
  -2  -7  -1    0.27    0.24
  -2  -7  -1    0.53    0.29
   2   7   1    0.54    0.33
   2   7   1    0.24    0.23
   2   7   1    0.54    0.23
  -3  -7  -1    0.56    0.27
  -3  -7  -1    0.80    0.22
  -3  -7  -1    0.32    0.26
   3   7   1    0.80    0.30
   3   7   1    0.74    0.27
   3   7   1    0.88    0.24
  -4  -7  -1    4.84    0.46
  -4  -7  -1    4.43    0.38
  -4  -7  -1    5.10    0.48
   4   7   1    4.71    0.46
   4   7   1    4.00    0.48
   4   7   1    5.81    0.39
  -5  -7  -1    1.76    0.37
  -5  -7  -1    1.75    0.29
   5   7   1    1.61    0.22
   5   7   1    1.56    0.37
  -6  -7  -1    0.26    0.36
  -6  -7  -1    0.60    0.31
   6   7   1    0.95    0.37
  -7  -7  -1    1.22    0.39
  -7  -7  -1    0.85    0.41
   7   7   1    0.86    0.47
   3  -8  -1    2.16    0.44
   3  -8  -1    2.09    0.53
  -3   8   1    1.44    0.54
   2  -8  -1    2.84    0.50
   2  -8  -1    2.14    0.40
  -2   8   1    2.17    0.50
   1  -8  -1    2.87    0.49
   1  -8  -1    2.89    0.42
  -1   8   1    2.87    0.46
  -1   8   1    2.68    0.31
   0  -8  -1    5.59    0.51
   0  -8  -1    5.00    0.65
   0   8   1    5.46    0.47
   0   8   1    5.72    0.59
  -1  -8  -1   -0.07    0.30
  -1  -8  -1   -0.18    0.33
   1   8   1    0.29    0.32
   1   8   1   -0.11    0.25
  -2  -8  -1    0.98    0.37
  -2  -8  -1    0.62    0.32
   2   8   1    0.42    0.27
   2   8   1    0.55    0.29
  -3  -8  -1   -0.06    0.24
  -3  -8  -1    0.64    0.32
  -3  -8  -1    0.29    0.33
   3   8   1    0.38    0.30
   3   8   1    0.54    0.28
  -4  -8  -1    2.83    0.33
  -4  -8  -1    2.05    0.38
   4   8   1    2.40    0.42
  -5  -8  -1   -0.13    0.38
  -5  -8  -1    0.62    0.32
   5   8   1    0.78    0.40
   5   8   1    0.15    0.25
  -6  -8  -1    3.71    0.54
   6   8   1    3.81    0.59
   1  -9  -1    1.89    0.55
   1  -9  -1    1.59    0.43
  -1   9   1    1.22    0.46
   0  -9  -1    0.79    0.38
   0  -9  -1   -0.37    0.46
   0   9   1   -0.23    0.32
   0   9   1    0.22    0.41
  -1  -9  -1    3.55    0.56
  -1  -9  -1    2.98    0.49
   1   9   1    3.44    0.43
   1   9   1    3.79    0.48
  -2  -9  -1    0.40    0.42
  -2  -9  -1   -0.05    0.41
   2   9   1   -0.37    0.37
   2   9   1   -0.70    0.31
  -3  -9  -1    2.05    0.46
   3   9   1    2.05    0.44
   3   9   1    2.61    0.44
  -4  -9  -1    0.39    0.41
   4   9   1    1.11    0.32
   4   9   1    0.65    0.43
  -5  -9  -1    0.90    0.47
   5   9   1    0.44    0.32
   5   9   1    0.92    0.44
   2   9  -2   -0.11    0.43
   2   9  -2   -0.68    0.40
  -2  -9   2    0.34    0.45
  -2  -9   2   -0.39    0.38
   1   9  -2    0.26    0.41
   1   9  -2    0.73    0.40
  -1  -9   2    0.01    0.53
  -1  -9   2    0.03    0.39
  -1  -9   2    0.84    0.38
   0   9  -2    0.39    0.42
   0   9  -2    0.46    0.41
   0  -9   2   -0.09    0.41
   0  -9   2    1.08    0.50
   4   8  -2   -0.42    0.42
   4   8  -2    0.81    0.35
  -4  -8   2   -0.43    0.35
  -4  -8   2    0.46    0.45
   3   8  -2   -0.16    0.36
   3   8  -2    0.17    0.30
  -3  -8   2   -0.26    0.36
  -3  -8   2    0.80    0.32
   2   8  -2    1.55    0.41
   2   8  -2    2.01    0.40
  -2  -8   2    1.70    0.39
  -2  -8   2    2.58    0.48
  -2  -8   2    2.04    0.43
   1   8  -2    0.70    0.31
   1   8  -2    0.01    0.33
  -1  -8   2    0.04    0.30
  -1  -8   2    0.42    0.35
   0   8  -2    4.65    0.51
   0   8  -2    3.72    0.43
   0  -8   2    4.17    0.49
   0  -8   2    4.16    0.53
   0  -8   2    4.63    0.48
  -1   8  -2    2.66    0.48
  -1   8  -2    2.42    0.39
   1  -8   2    2.66    0.51
   1  -8   2    2.59    0.46
  -2   8  -2    0.43    0.43
   2  -8   2   -0.16    0.45
   2  -8   2    0.87    0.40
  -3   8  -2    1.10    0.49
   3  -8   2    0.86    0.51
   3  -8   2    1.67    0.44
   5   7  -2    0.79    0.31
   5   7  -2    0.20    0.42
  -5  -7   2    0.29    0.40
  -5  -7   2    0.89    0.40
   4   7  -2    1.49    0.45
   4   7  -2    2.39    0.34
  -4  -7   2    2.32    0.40
  -4  -7   2    3.03    0.41
   3   7  -2    1.58    0.34
   3   7  -2    1.74    0.33
  -3  -7   2    1.51    0.35
  -3  -7   2    1.43    0.33
  -3  -7   2    0.90    0.38
   2   7  -2    2.81    0.37
   2   7  -2    2.72    0.38
  -2  -7   2    2.29    0.41
  -2  -7   2    2.63    0.38
   1   7  -2    5.84    0.46
   1   7  -2    6.71    0.50
  -1  -7   2    5.22    0.60
  -1  -7   2    4.74    0.48
  -1  -7   2    5.44    0.47
   0   7  -2    2.35    0.37
   0   7  -2    3.11    0.41
   0  -7   2    1.61    0.39
   0  -7   2    2.01    0.33
   0  -7   2    1.91    0.34
  -1   7  -2    0.90    0.26
  -1   7  -2    0.12    0.31
   1  -7   2   -0.03    0.28
   1  -7   2   -0.47    0.33
  -2   7  -2    5.16    0.47
  -2   7  -2    6.39    0.65
   2  -7   2    5.08    0.51
   2  -7   2    5.49    0.67
  -3   7  -2   13.54    0.86
   3  -7   2   12.97    0.87
   3  -7   2   14.49    0.73
  -4   7  -2    3.14    0.59
   4  -7   2    3.59    0.56
   4  -7   2    3.43    0.47
   6   6  -2    0.22    0.42
   6   6  -2    0.64    0.27
  -6  -6   2   -0.92    0.36
  -6  -6   2    0.57    0.40
   5   6  -2   -0.74    0.34
   5   6  -2    0.04    0.26
  -5  -6   2   -0.72    0.31
  -5  -6   2    0.04    0.32
   4   6  -2    0.51    0.32
   4   6  -2    0.49    0.25
  -4  -6   2    0.18    0.29
  -4  -6   2   -0.20    0.26
  -4  -6   2    0.51    0.28
   3   6  -2    1.85    0.34
   3   6  -2    1.57    0.37
   3   6  -2    1.20    0.25
   3   6  -2    1.26    0.24
  -3  -6   2    1.77    0.28
  -3  -6   2    1.38    0.32
  -3  -6   2    1.25    0.30
   2   6  -2    0.97    0.24
   2   6  -2    0.96    0.29
   2   6  -2    0.47    0.34
  -2  -6   2    0.57    0.28
  -2  -6   2    0.19    0.24
  -2  -6   2    0.50    0.25
   1   6  -2    0.73    0.26
   1   6  -2    1.36    0.25
  -1  -6   2    1.15    0.24
  -1  -6   2    0.92    0.29
  -1  -6   2    1.17    0.26
   0   6  -2    0.74    0.26
   0   6  -2    0.80    0.25
   0  -6   2    0.67    0.23
   0  -6   2    0.85    0.29
   0  -6   2    0.63    0.25
  -1   6  -2    0.14    0.26
  -1   6  -2    0.59    0.26
   1  -6   2    0.17    0.25
   1  -6   2    0.17    0.24
   1  -6   2   -0.04    0.28
  -2   6  -2    1.61    0.27
  -2   6  -2    1.14    0.33
   2  -6   2    1.50    0.34
   2  -6   2    1.45    0.30
  -3   6  -2   -0.06    0.20
  -3   6  -2   -0.05    0.36
   3  -6   2    0.41    0.30
   3  -6   2    0.04    0.31
  -4   6  -2    0.21    0.40
   4  -6   2    0.17    0.38
   4  -6   2    0.15    0.34
  -5   6  -2    0.65    0.48
   5  -6   2   -0.33    0.36
   5  -6   2    0.40    0.42
   7   5  -2    1.49    0.51
   7   5  -2    1.34    0.30
  -7  -5   2    1.91    0.46
   6   5  -2   14.36    0.57
   6   5  -2   13.41    0.82
  -6  -5   2   14.09    0.72
  -6  -5   2   13.51    0.61
   5   5  -2    1.50    0.25
   5   5  -2    1.05    0.37
  -5  -5   2    1.32    0.32
  -5  -5   2    1.59    0.33
   4   5  -2   19.12    0.63
   4   5  -2   19.05    0.78
   4   5  -2   19.76    0.71
  -4  -5   2   18.96    0.67
  -4  -5   2   19.03    0.63
  -4  -5   2   19.51    0.70
   3   5  -2    0.53    0.20
   3   5  -2    0.40    0.24
   3   5  -2    0.15    0.28
   3   5  -2    0.27    0.14
  -3  -5   2    0.30    0.24
  -3  -5   2    0.34    0.21
  -3  -5   2    0.25    0.20
   2   5  -2   -0.09    0.23
   2   5  -2   -0.12    0.26
   2   5  -2    0.13    0.19
   2   5  -2   -0.14    0.17
  -2  -5   2   -0.07    0.18
  -2  -5   2    0.04    0.19
  -2  -5   2    0.06    0.21
   1   5  -2    2.03    0.34
   1   5  -2    2.14    0.25
   1   5  -2    2.18    0.28
  -1  -5   2    2.25    0.30
  -1  -5   2    1.90    0.28
  -1  -5   2    2.01    0.25
   0   5  -2   16.88    0.61
   0   5  -2   17.88    0.63
   0  -5   2   17.07    0.56
   0  -5   2   17.12    0.57
   0  -5   2   18.01    0.66
  -1   5  -2   14.01    0.60
   1  -5   2   13.68    0.52
   1  -5   2   14.20    0.52
   1  -5   2   13.37    0.61
  -2   5  -2    1.00    0.28
   2  -5   2    1.15    0.24
   2  -5   2    1.01    0.27
  -3   5  -2    1.40    0.33
   3  -5   2    1.61    0.31
   3  -5   2    1.55    0.30
  -4   5  -2    1.68    0.39
   4  -5   2    1.35    0.31
   4  -5   2    0.99    0.35
  -5   5  -2    0.22    0.39
   5  -5   2   -0.04    0.35
   5  -5   2   -0.68    0.26
  -6   5  -2    1.16    0.49
   6  -5   2    0.29    0.38
   6  -5   2    0.15    0.41
   7   4  -2    7.94    0.81
   7   4  -2    8.82    0.51
  -7  -4   2    8.81    0.69
   6   4  -2    1.11    0.26
   6   4  -2    0.51    0.37
  -6  -4   2    0.77    0.33
  -6  -4   2    1.22    0.29
   5   4  -2   30.67    1.04
   5   4  -2   31.10    0.84
   5   4  -2   30.60    0.77
  -5  -4   2   30.63    0.81
  -5  -4   2   29.39    0.93
  -5  -4   2   30.92    0.76
   4   4  -2    8.66    0.52
   4   4  -2    8.11    0.47
   4   4  -2    8.20    0.40
  -4  -4   2    7.74    0.41
  -4  -4   2    8.14    0.44
  -4  -4   2    8.25    0.44
   3   4  -2    9.20    0.46
   3   4  -2    9.46    0.40
   3   4  -2    9.23    0.51
  -3  -4   2    9.37    0.39
  -3  -4   2    9.52    0.45
  -3  -4   2    9.25    0.44
   2   4  -2    3.56    0.23
   2   4  -2    3.16    0.29
   2   4  -2    3.48    0.33
   2   4  -2    4.17    0.37
  -2  -4   2    3.80    0.33
  -2  -4   2    3.20    0.28
  -2  -4   2    3.16    0.29
   1   4  -2    7.44    0.43
   1   4  -2    5.93    0.34
  -1  -4   2    6.68    0.39
  -1  -4   2    6.57    0.33
  -1  -4   2    6.28    0.31
   0   4  -2    0.78    0.24
   0   4  -2    0.65    0.18
   0  -4   2    0.67    0.17
   0  -4   2    0.71    0.18
   0  -4   2    0.53    0.15
  -1   4  -2    7.87    0.43
   1  -4   2    7.69    0.36
   1  -4   2    8.03    0.42
   1  -4   2    7.52    0.36
  -2   4  -2   -0.18    0.20
   2  -4   2    0.17    0.18
   2  -4   2   -0.08    0.19
  -3   4  -2    0.27    0.23
   3  -4   2    0.33    0.25
   3  -4   2    0.28    0.18
  -4   4  -2    0.16    0.15
  -4   4  -2   -0.18    0.27
   4  -4   2    0.01    0.20
   4  -4   2   -0.48    0.23
  -5   4  -2   -0.18    0.34
   5  -4   2    0.48    0.27
   5  -4   2    0.21    0.30
  -6   4  -2    0.08    0.42
   6  -4   2   -0.60    0.32
   6  -4   2   -0.09    0.33
  -7   4  -2    0.57    0.50
   7  -4   2   -0.30    0.42
   7  -4   2    0.56    0.38
   7   3  -2    0.10    0.26
   7   3  -2   -0.09    0.42
  -7  -3   2    0.57    0.36
   6   3  -2    0.09    0.30
   6   3  -2   -0.20    0.22
  -6  -3   2   -0.34    0.28
  -6  -3   2    0.24    0.23
   5   3  -2    0.58    0.19
   5   3  -2    0.46    0.26
   5   3  -2    1.02    0.30
  -5  -3   2    0.87    0.24
  -5  -3   2    0.74    0.20
  -5  -3   2    0.85    0.25
   4   3  -2    1.43    0.20
   4   3  -2    1.13    0.29
   4   3  -2    1.56    0.25
  -4  -3   2    1.32    0.19
  -4  -3   2    1.14    0.20
  -4  -3   2    1.40    0.25
   3   3  -2    3.33    0.33
   3   3  -2    2.21    0.26
   3   3  -2    2.59    0.31
  -3  -3   2    2.66    0.29
  -3  -3   2    2.77    0.24
  -3  -3   2    2.86    0.29
   2   3  -2    7.30    0.31
   2   3  -2    7.71    0.36
  -2  -3   2    7.23    0.28
  -2  -3   2    8.04    0.35
  -2  -3   2    7.80    0.36
   1   3  -2    8.00    0.37
   1   3  -2    8.33    0.32
  -1  -3   2    7.94    0.33
  -1  -3   2    7.89    0.30
  -1  -3   2    8.17    0.36
   0   3  -2   60.01    1.24
   0   3  -2   61.52    1.27
   0  -3   2   60.17    1.12
   0  -3   2   60.65    1.26
   0  -3   2   61.58    1.24
  -1   3  -2    3.63    0.25
  -1   3  -2    3.03    0.33
   1  -3   2    2.96    0.21
   1  -3   2    3.49    0.24
   1  -3   2    3.28    0.28
  -2   3  -2   59.10    1.27
   2  -3   2   58.84    1.13
   2  -3   2   59.72    1.29
  -3   3  -2    1.43    0.22
   3  -3   2    1.25    0.18
   3  -3   2    1.32    0.24
  -4   3  -2   10.23    0.36
  -4   3  -2   11.11    0.54
   4  -3   2   10.77    0.43
   4  -3   2   10.89    0.53
  -5   3  -2    0.26    0.28
  -5   3  -2    0.53    0.18
   5  -3   2    0.49    0.25
   5  -3   2    0.27    0.23
  -6   3  -2    4.69    0.62
   6  -3   2    5.22    0.45
   6  -3   2    5.24    0.56
  -7   3  -2    0.54    0.46
   7  -3   2   -0.42    0.32
   7   2  -2    0.11    0.27
   7   2  -2   -0.36    0.37
  -7  -2   2    0.37    0.33
   6   2  -2    0.62    0.24
   6   2  -2    0.22    0.31
  -6  -2   2    0.71    0.18
  -6  -2   2    0.70    0.31
  -6  -2   2    0.32    0.30
   5   2  -2    0.15    0.22
   5   2  -2    0.50    0.26
   5   2  -2    0.16    0.17
  -5  -2   2    0.27    0.15
  -5  -2   2   -0.10    0.21
  -5  -2   2    0.33    0.24
   4   2  -2    3.87    0.35
   4   2  -2    2.88    0.34
   4   2  -2    3.08    0.28
  -4  -2   2    3.12    0.31
  -4  -2   2    3.09    0.32
  -4  -2   2    3.60    0.22
   3   2  -2    0.61    0.13
   3   2  -2    0.34    0.13
   3   2  -2    0.56    0.19
   3   2  -2    0.56    0.19
  -3  -2   2    0.43    0.11
  -3  -2   2    0.69    0.15
  -3  -2   2    0.34    0.18
   2   2  -2   30.35    0.70
   2   2  -2   30.95    0.56
   2   2  -2   31.09    0.72
   2   2  -2   31.26    0.61
  -2  -2   2   32.16    0.73
  -2  -2   2   32.33    0.76
  -2  -2   2   31.67    0.61
   1   2  -2   -0.06    0.10
   1   2  -2    0.02    0.09
   1   2  -2   -0.17    0.11
   1   2  -2    0.10    0.13
  -1  -2   2   -0.03    0.08
  -1  -2   2   -0.13    0.09
  -1  -2   2    0.16    0.12
  -1  -2   2    0.15    0.11
   0   2  -2    6.91    0.29
   0   2  -2    7.40    0.28
   0   2  -2    6.40    0.24
   0   2  -2    6.89    0.29
   0  -2   2    6.46    0.26
   0  -2   2    7.03    0.28
   0  -2   2    6.99    0.29
   0  -2   2    7.05    0.24
  -1   2  -2    7.15    0.29
  -1   2  -2    6.87    0.32
  -1   2  -2    7.03    0.28
  -1   2  -2    6.96    0.25
   1  -2   2    6.96    0.25
   1  -2   2    7.00    0.30
   1  -2   2    7.35    0.28
   1  -2   2    7.18    0.30
  -2   2  -2   41.46    0.92
  -2   2  -2   40.35    0.94
   2  -2   2   41.78    0.81
   2  -2   2   41.29    0.92
   2  -2   2   42.08    0.93
  -3   2  -2    0.65    0.16
  -3   2  -2    0.66    0.13
   3  -2   2    0.60    0.14
   3  -2   2    0.72    0.17
   3  -2   2    0.52    0.18
  -4   2  -2   17.92    0.49
  -4   2  -2   17.65    0.59
   4  -2   2   17.87    0.61
   4  -2   2   17.08    0.63
   4  -2   2   17.75    0.50
  -5   2  -2    3.40    0.40
  -5   2  -2    3.13    0.32
   5  -2   2    3.54    0.40
   5  -2   2    3.18    0.38
   5  -2   2    2.94    0.32
  -6   2  -2    1.55    0.29
  -6   2  -2    2.28    0.35
   6  -2   2    1.99    0.29
   6  -2   2    2.11    0.34
  -7   2  -2    0.72    0.38
   7  -2   2    0.86    0.30
   7  -2   2    0.62    0.33
   8  -2   2    1.89    0.42
   7   1  -2   -0.34    0.38
   7   1  -2    0.39    0.31
  -7  -1   2    0.46    0.38
   6   1  -2    0.29    0.29
   6   1  -2    0.23    0.25
  -6  -1   2    0.64    0.30
  -6  -1   2    0.58    0.30
   5   1  -2    6.13    0.43
   5   1  -2    6.43    0.39
   5   1  -2    6.46    0.51
  -5  -1   2    5.98    0.46
  -5  -1   2    6.47    0.45
  -5  -1   2    5.90    0.39
   4   1  -2    7.53    0.43
   4   1  -2    7.67    0.43
   4   1  -2    7.10    0.36
  -4  -1   2    7.73    0.42
  -4  -1   2    6.89    0.39
  -4  -1   2    7.26    0.30
   3   1  -2   20.57    0.55
   3   1  -2   20.15    0.57
  -3  -1   2   20.88    0.39
  -3  -1   2   20.80    0.57
  -3  -1   2   20.42    0.61
  -3  -1   2   21.30    0.46
   2   1  -2  114.60    2.11
   2   1  -2  115.12    1.93
   2   1  -2  117.20    1.79
   2   1  -2  112.24    2.10
  -2  -1   2  115.81    1.79
  -2  -1   2  115.81    2.11
  -2  -1   2  116.12    2.16
  -2  -1   2  116.29    1.93
  -2  -1   2  112.53    2.10
   1   1  -2    2.54    0.17
   1   1  -2    2.40    0.13
   1   1  -2    2.42    0.14
   1   1  -2    2.49    0.19
   1   1  -2    2.11    0.18
  -1  -1   2    2.32    0.17
  -1  -1   2    2.51    0.17
  -1  -1   2    2.39    0.18
  -1  -1   2    2.40    0.13
   0   1  -2  278.24    4.27
   0   1  -2  276.90    4.79
   0   1  -2  276.79    4.81
   0   1  -2  286.67    4.81
   0  -1   2  275.03    4.79
   0  -1   2  283.64    4.81
   0  -1   2  280.90    4.82
   0  -1   2  281.15    4.28
  -1   1  -2    2.22    0.17
  -1   1  -2    2.18    0.17
  -1   1  -2    2.31    0.16
  -1   1  -2    2.32    0.16
   1  -1   2    2.38    0.16
   1  -1   2    2.14    0.15
   1  -1   2    2.42    0.15
   1  -1   2    2.05    0.18
  -2   1  -2    6.62    0.26
  -2   1  -2    6.81    0.29
  -2   1  -2    6.95    0.28
  -2   1  -2    6.69    0.25
   2  -1   2    6.95    0.28
   2  -1   2    6.91    0.24
   2  -1   2    6.78    0.28
  -3   1  -2    2.46    0.23
  -3   1  -2    2.39    0.19
  -3   1  -2    2.50    0.22
   3  -1   2    2.51    0.18
   3  -1   2    2.82    0.24
   3  -1   2    2.60    0.22
  -4   1  -2   35.05    0.81
  -4   1  -2   35.45    0.82
   4  -1   2   35.60    0.83
   4  -1   2   35.58    0.74
   4  -1   2   30.83    0.81
  -5   1  -2    6.14    0.39
  -5   1  -2    6.43    0.38
   5  -1   2    6.38    0.44
   5  -1   2    5.74    0.38
   5  -1   2    6.08    0.32
  -6   1  -2    1.71    0.29
   6  -1   2    1.46    0.25
   6  -1   2    1.42    0.27
   6  -1   2    1.88    0.35
  -7   1  -2    0.41    0.32
   7  -1   2    0.09    0.28
   8  -1   2   -0.24    0.32
   7   0  -2    0.57    0.34
   7   0  -2    0.00    0.32
  -7   0   2    0.03    0.39
   6   0  -2    1.32    0.29
   6   0  -2    0.99    0.30
  -6   0   2    1.41    0.37
  -6   0   2    1.48    0.35
   5   0  -2    0.17    0.20
   5   0  -2   -0.14    0.24
   5   0  -2    0.24    0.29
  -5   0   2    0.46    0.26
  -5   0   2    0.04    0.23
   4   0  -2   10.61    0.51
   4   0  -2   11.34    0.45
   4   0  -2   10.86    0.47
  -4   0   2    9.88    0.44
  -4   0   2   10.16    0.46
  -4   0   2   10.75    0.49
   3   0  -2    1.45    0.21
   3   0  -2    1.12    0.17
  -3   0   2    1.34    0.19
  -3   0   2    1.26    0.18
  -3   0   2    1.18    0.20
   2   0  -2    1.39    0.17
   2   0  -2    1.43    0.15
   2   0  -2    1.32    0.17
  -2   0   2    1.57    0.21
  -2   0   2    1.57    0.19
  -2   0   2    1.49    0.16
  -2   0   2    1.67    0.20
   1   0  -2   16.86    0.30
   1   0  -2   15.75    0.43
   1   0  -2   15.86    0.42
   1   0  -2   16.35    0.43
   1   0  -2   16.79    0.38
  -1   0   2   16.72    0.29
  -1   0   2   16.02    0.42
  -1   0   2   16.48    0.43
  -1   0   2   16.60    0.38
  -1   0   2   16.44    0.43
   0   0  -2  575.54    9.48
   0   0  -2  588.44    9.71
   0   0  -2  558.83    9.70
   0   0  -2  580.04    8.77
   0   0  -2  581.67    9.73
   0   0   2  564.99    9.70
   0   0   2  588.31    9.36
   0   0   2  572.59    9.70
   0   0   2  578.43    9.92
   0   0   2  577.02    8.73
  -1   0  -2  215.63    3.81
  -1   0  -2  223.94    3.81
  -1   0  -2  227.80    3.71
  -1   0  -2  219.96    3.42
  -1   0  -2  226.56    3.81
   1   0   2  222.10    3.81
   1   0   2  226.75    3.81
   1   0   2  221.09    3.82
   1   0   2  218.62    3.42
  -2   0  -2  954.13   16.16
  -2   0  -2  988.21   17.44
  -2   0  -2  993.84   16.35
  -2   0  -2  950.20   16.28
  -2   0  -2  964.40   14.45
   2   0   2  956.92   14.65
   2   0   2  948.67   16.34
   2   0   2  951.83   16.21
  -3   0  -2  276.07    5.10
  -3   0  -2  277.35    4.75
  -3   0  -2  277.96    4.30
  -3   0  -2  271.30    4.74
   3   0   2  277.79    4.76
   3   0   2  282.72    4.75
   3   0   2  277.15    4.30
  -4   0  -2  102.70    1.88
  -4   0  -2   98.74    2.02
   4   0   2  100.59    1.87
   4   0   2  103.46    2.02
   4   0   2  101.98    1.73
   4   0   2  103.30    1.89
  -5   0  -2   94.57    1.82
   5   0   2   95.84    1.83
   5   0   2   96.32    1.83
   5   0   2   94.98    1.67
   5   0   2   96.58    1.96
  -6   0  -2   -0.26    0.20
   6   0   2    0.28    0.19
   6   0   2    0.01    0.22
   6   0   2   -0.08    0.20
  -7   0  -2    6.83    0.51
   7   0   2    7.22    0.45
   7   0   2    5.92    0.44
   8   0   2    1.19    0.30
   8   0   2    0.31    0.32
   7  -1  -2    0.22    0.33
   7  -1  -2    0.07    0.34
  -7   1   2    0.60    0.44
   6  -1  -2    0.95    0.30
   6  -1  -2    0.70    0.29
  -6   1   2    1.05    0.38
  -6   1   2    0.50    0.35
   5  -1  -2    0.25    0.38
   5  -1  -2    0.48    0.23
   5  -1  -2    0.51    0.23
  -5   1   2    0.40    0.27
  -5   1   2    0.01    0.27
   4  -1  -2   -0.14    0.27
   4  -1  -2    0.12    0.18
   4  -1  -2    0.21    0.18
  -4   1   2   -0.20    0.18
  -4   1   2    0.06    0.20
   3  -1  -2    2.64    0.28
   3  -1  -2    2.72    0.34
  -3   1   2    2.93    0.30
  -3   1   2    2.87    0.27
   2  -1  -2    0.13    0.12
   2  -1  -2    0.26    0.12
   2  -1  -2    0.24    0.15
  -2   1   2    0.13    0.12
  -2   1   2    0.29    0.13
  -2   1   2    0.01    0.14
   1  -1  -2   10.01    0.34
   1  -1  -2   10.67    0.31
   1  -1  -2   10.49    0.34
   1  -1  -2   10.45    0.21
  -1   1   2   10.51    0.32
  -1   1   2   10.96    0.35
  -1   1   2   10.18    0.33
  -1   1   2    9.99    0.34
   0  -1  -2   32.65    0.65
   0  -1  -2   31.58    0.68
   0  -1  -2   31.75    0.65
   0   1   2   32.67    0.65
   0   1   2   32.83    0.65
   0   1   2   32.43    0.68
   0   1   2   32.47    0.68
  -1  -1  -2   26.20    0.56
  -1  -1  -2   26.90    0.56
  -1  -1  -2   27.45    0.52
  -1  -1  -2   26.80    0.56
   1   1   2   27.03    0.56
   1   1   2   26.58    0.56
   1   1   2   27.34    0.56
   1   1   2   27.72    0.52
  -2  -1  -2  188.03    3.21
  -2  -1  -2  194.84    2.97
  -2  -1  -2  190.19    3.27
  -2  -1  -2  193.37    3.55
  -2  -1  -2  188.36    3.25
   2   1   2  186.48    3.25
   2   1   2  191.60    3.55
   2   1   2  191.49    3.26
  -3  -1  -2   40.17    0.92
  -3  -1  -2   41.33    0.77
  -3  -1  -2   41.14    0.77
  -3  -1  -2   40.57    0.78
   3   1   2   40.33    0.77
   3   1   2   41.57    0.92
  -4  -1  -2   30.59    0.64
  -4  -1  -2   30.40    0.63
   4   1   2   32.08    0.79
   4   1   2   31.30    0.64
  -5  -1  -2    9.17    0.32
   5   1   2    9.24    0.32
   5   1   2    9.10    0.42
  -6  -1  -2    0.87    0.20
   6   1   2    0.72    0.22
   6   1   2    0.87    0.18
  -7  -1  -2   15.11    0.55
   7   1   2   15.98    0.65
   7   1   2   15.28    0.53
   8   1   2    3.56    0.51
   8   1   2    3.01    0.31
   7  -2  -2    5.31    0.65
  -7   2   2    4.36    0.58
   6  -2  -2    0.79    0.28
   6  -2  -2    1.51    0.38
  -6   2   2    1.16    0.44
  -6   2   2    0.87    0.36
   5  -2  -2    0.80    0.23
   5  -2  -2    0.88    0.29
  -5   2   2    0.69    0.33
  -5   2   2    0.20    0.28
   4  -2  -2    0.05    0.10
   4  -2  -2    0.19    0.20
   4  -2  -2    0.01    0.16
  -4   2   2   -0.06    0.21
  -4   2   2    0.42    0.24
  -4   2   2    0.09    0.12
   3  -2  -2    1.20    0.14
   3  -2  -2    1.19    0.21
  -3   2   2    1.50    0.23
  -3   2   2    1.41    0.24
  -3   2   2    1.71    0.16
   2  -2  -2    4.84    0.36
   2  -2  -2    5.13    0.31
   2  -2  -2    5.04    0.18
   2  -2  -2    5.03    0.29
  -2   2   2    5.19    0.19
  -2   2   2    4.99    0.31
  -2   2   2    5.00    0.28
   1  -2  -2    9.10    0.24
   1  -2  -2    8.98    0.32
   1  -2  -2    9.31    0.35
   1  -2  -2    8.91    0.36
  -1   2   2    8.10    0.35
  -1   2   2    9.41    0.35
  -1   2   2    9.08    0.31
  -1   2   2    8.74    0.34
  -1   2   2    9.08    0.24
   0  -2  -2   17.20    0.46
   0  -2  -2   17.60    0.38
   0  -2  -2   17.58    0.44
   0  -2  -2   17.58    0.46
   0  -2  -2   17.40    0.43
   0   2   2   17.83    0.46
   0   2   2   17.68    0.45
   0   2   2   17.96    0.41
   0   2   2   17.10    0.38
   0   2   2   17.06    0.46
  -1  -2  -2   14.03    0.35
  -1  -2  -2   14.29    0.37
  -1  -2  -2   14.39    0.37
  -1  -2  -2   14.19    0.37
  -1  -2  -2   14.32    0.39
   1   2   2   14.23    0.37
   1   2   2   14.39    0.28
   1   2   2   13.79    0.37
   1   2   2   14.30    0.38
   1   2   2   14.40    0.39
  -2  -2  -2   19.02    0.45
  -2  -2  -2   19.43    0.42
  -2  -2  -2   19.30    0.52
  -2  -2  -2   19.72    0.41
  -2  -2  -2   19.53    0.37
   2   2   2   19.43    0.47
   2   2   2   19.44    0.41
   2   2   2   19.07    0.51
  -3  -2  -2    3.84    0.21
  -3  -2  -2    3.93    0.14
  -3  -2  -2    4.16    0.14
   3   2   2    3.98    0.13
   3   2   2    4.15    0.25
   3   2   2    4.14    0.13
  -4  -2  -2    3.22    0.23
   4   2   2    3.72    0.27
  -5  -2  -2    1.96    0.22
   5   2   2    1.90    0.27
   6   2   2    1.22    0.24
  -7  -2  -2    5.61    0.47
   7   2   2    5.49    0.26
   7   2   2    6.28    0.50
  -8  -2  -2    0.41    0.31
  -8  -2  -2    0.59    0.34
   8   2   2    0.21    0.34
   6  -3  -2    3.99    0.49
  -6   3   2    4.93    0.58
  -6   3   2    4.67    0.63
   5  -3  -2    1.37    0.34
   5  -3  -2    0.89    0.17
  -5   3   2    0.97    0.36
  -5   3   2    0.88    0.32
   4  -3  -2    0.05    0.24
   4  -3  -2   -0.05    0.14
  -4   3   2   -0.44    0.25
  -4   3   2   -0.07    0.19
   3  -3  -2    0.16    0.11
   3  -3  -2    0.13    0.13
   3  -3  -2    0.08    0.21
  -3   3   2   -0.02    0.22
  -3   3   2    0.11    0.16
   2  -3  -2    9.68    0.41
   2  -3  -2    9.92    0.31
   2  -3  -2    9.57    0.44
   2  -3  -2    9.53    0.28
  -2   3   2    9.85    0.45
  -2   3   2    9.51    0.32
   1  -3  -2   17.51    0.42
   1  -3  -2   16.97    0.50
   1  -3  -2   16.96    0.41
   1  -3  -2   16.23    0.53
  -1   3   2   17.02    0.54
  -1   3   2   17.49    0.42
   0  -3  -2    5.16    0.27
   0  -3  -2    4.96    0.26
   0  -3  -2    5.22    0.23
   0  -3  -2    5.01    0.22
   0  -3  -2    4.89    0.29
   0   3   2    4.88    0.23
   0   3   2    5.21    0.30
   0   3   2    5.52    0.27
  -1  -3  -2   31.87    0.70
  -1  -3  -2   31.03    0.70
  -1  -3  -2   30.50    0.73
  -1  -3  -2   31.63    0.65
  -1  -3  -2   31.64    0.70
   1   3   2   32.21    0.70
   1   3   2   31.61    0.73
   1   3   2   31.93    0.70
   1   3   2   32.01    0.66
   1   3   2   32.68    0.71
  -2  -3  -2    7.28    0.34
  -2  -3  -2    6.96    0.28
  -2  -3  -2    6.81    0.27
  -2  -3  -2    7.19    0.25
  -2  -3  -2    6.90    0.25
   2   3   2    6.78    0.28
   2   3   2    7.42    0.31
   2   3   2    7.29    0.25
   2   3   2    7.16    0.24
  -3  -3  -2    1.90    0.14
  -3  -3  -2    1.59    0.13
  -3  -3  -2    1.83    0.13
  -3  -3  -2    1.88    0.18
  -3  -3  -2    2.09    0.19
   3   3   2    1.84    0.12
   3   3   2    1.34    0.18
   3   3   2    1.92    0.22
   3   3   2    1.88    0.12
  -4  -3  -2   14.01    0.44
  -4  -3  -2   15.13    0.42
  -4  -3  -2   14.94    0.42
   4   3   2   14.14    0.53
  -5  -3  -2    0.06    0.14
  -5  -3  -2   -0.07    0.17
  -5  -3  -2   -0.04    0.16
   5   3   2    0.07    0.18
  -6  -3  -2    0.02    0.21
  -6  -3  -2    0.02    0.22
  -6  -3  -2   -0.16    0.19
   6   3   2    0.26    0.20
  -7  -3  -2    0.22    0.27
  -7  -3  -2    0.11    0.24
  -7  -3  -2   -0.10    0.24
   7   3   2   -0.20    0.28
  -8  -3  -2    1.58    0.35
  -8  -3  -2    0.91    0.38
  -8  -3  -2    0.62    0.33
   8   3   2    1.24    0.35
   6  -4  -2   -0.65    0.39
  -6   4   2   -0.20    0.40
  -6   4   2    0.25    0.47
   5  -4  -2   -0.02    0.23
   5  -4  -2    0.04    0.31
  -5   4   2    0.13    0.39
   4  -4  -2    0.61    0.30
   4  -4  -2    1.02    0.21
  -4   4   2    0.98    0.34
   3  -4  -2   10.97    0.59
   3  -4  -2   11.09    0.40
  -3   4   2   10.66    0.59
   2  -4  -2    9.76    0.51
   2  -4  -2    9.66    0.35
  -2   4   2    8.64    0.49
   1  -4  -2   36.62    0.94
   1  -4  -2   37.29    0.77
   1  -4  -2   37.51    0.91
   1  -4  -2   36.31    0.79
  -1   4   2   37.09    0.94
   0  -4  -2    0.08    0.13
   0  -4  -2    0.20    0.13
   0  -4  -2   -0.08    0.15
   0  -4  -2    0.13    0.13
   0   4   2    0.13    0.12
   0   4   2    0.03    0.18
   0   4   2    0.12    0.13
  -1  -4  -2    4.42    0.29
  -1  -4  -2    3.97    0.29
  -1  -4  -2    3.90    0.24
  -1  -4  -2    4.22    0.26
   1   4   2    4.44    0.26
   1   4   2    4.15    0.30
   1   4   2    4.25    0.26
   1   4   2    4.51    0.19
  -2  -4  -2    9.95    0.37
  -2  -4  -2   10.25    0.37
  -2  -4  -2   10.64    0.37
   2   4   2   10.34    0.40
   2   4   2   10.67    0.37
   2   4   2    9.83    0.34
  -3  -4  -2    7.38    0.32
  -3  -4  -2    6.90    0.28
  -3  -4  -2    7.33    0.21
  -3  -4  -2    6.89    0.27
  -3  -4  -2    6.91    0.32
   3   4   2    6.92    0.36
   3   4   2    6.91    0.33
   3   4   2    7.35    0.25
  -4  -4  -2    0.32    0.13
  -4  -4  -2    0.42    0.19
  -4  -4  -2    0.50    0.15
   4   4   2    0.62    0.20
   4   4   2    0.30    0.17
  -5  -4  -2   13.92    0.47
  -5  -4  -2   14.73    0.53
  -5  -4  -2   14.76    0.45
   5   4   2   13.38    0.59
  -6  -4  -2    4.55    0.35
  -6  -4  -2    5.30    0.39
  -6  -4  -2    4.73    0.39
   6   4   2    5.26    0.44
  -7  -4  -2   -0.01    0.26
  -7  -4  -2    0.95    0.28
  -7  -4  -2    0.74    0.29
   7   4   2    0.68    0.32
  -8  -4  -2    1.06    0.36
  -8  -4  -2    0.94    0.36
   8   4   2    0.82    0.38
   5  -5  -2    1.36    0.32
   5  -5  -2    1.61    0.44
  -5   5   2    1.65    0.50
   4  -5  -2    0.17    0.32
   4  -5  -2    0.24    0.25
  -4   5   2   -0.38    0.34
   3  -5  -2    4.70    0.52
   3  -5  -2    3.18    0.36
  -3   5   2    4.74    0.57
   2  -5  -2    6.78    0.36
   2  -5  -2    7.38    0.53
  -2   5   2    7.25    0.53
   1  -5  -2    5.25    0.39
   1  -5  -2    4.17    0.43
   1  -5  -2    4.72    0.29
   1  -5  -2    4.74    0.34
  -1   5   2    5.46    0.43
   0  -5  -2    3.58    0.36
   0  -5  -2    3.56    0.33
   0  -5  -2    3.53    0.32
   0  -5  -2    3.06    0.27
   0   5   2    3.37    0.34
   0   5   2    3.23    0.31
   0   5   2    2.99    0.25
  -1  -5  -2    2.25    0.26
  -1  -5  -2    1.92    0.24
  -1  -5  -2    2.24    0.26
   1   5   2    2.03    0.26
   1   5   2    1.81    0.21
   1   5   2    1.80    0.22
   1   5   2    1.71    0.26
  -2  -5  -2   11.83    0.45
  -2  -5  -2   12.08    0.45
  -2  -5  -2   10.98    0.44
   2   5   2   11.21    0.47
   2   5   2   11.66    0.30
   2   5   2   11.22    0.46
   2   5   2   11.88    0.43
  -3  -5  -2    0.93    0.11
  -3  -5  -2    0.85    0.20
  -3  -5  -2    1.15    0.19
  -3  -5  -2    0.90    0.17
   3   5   2    0.95    0.15
   3   5   2    0.58    0.19
   3   5   2    1.01    0.13
   3   5   2    1.09    0.17
  -4  -5  -2   11.25    0.48
  -4  -5  -2   11.90    0.36
  -4  -5  -2   12.39    0.42
  -4  -5  -2   12.04    0.35
   4   5   2   11.72    0.33
   4   5   2   11.04    0.34
   4   5   2   11.10    0.53
  -5  -5  -2    9.63    0.40
  -5  -5  -2    9.99    0.40
  -5  -5  -2    9.10    0.46
   5   5   2    9.48    0.54
  -6  -5  -2    0.59    0.23
  -6  -5  -2    0.56    0.22
  -6  -5  -2    0.30    0.26
   6   5   2    0.42    0.29
  -7  -5  -2    0.79    0.31
  -7  -5  -2    1.35    0.28
  -7  -5  -2    0.93    0.26
   7   5   2    0.98    0.33
  -8  -5  -2    0.30    0.34
  -8  -5  -2    0.01    0.35
   8   5   2    1.08    0.44
   4  -6  -2    1.15    0.33
   4  -6  -2    1.09    0.43
  -4   6   2    0.95    0.49
   3  -6  -2    6.97    0.68
   3  -6  -2    7.90    0.50
  -3   6   2    7.75    0.70
   2  -6  -2    3.26    0.37
   2  -6  -2    1.96    0.38
  -2   6   2    2.36    0.37
   1  -6  -2   10.40    0.44
   1  -6  -2   10.30    0.62
   1  -6  -2   11.06    0.50
  -1   6   2   11.20    0.60
   0  -6  -2    0.47    0.24
   0  -6  -2   -0.13    0.23
   0  -6  -2    0.43    0.22
   0   6   2    0.17    0.18
   0   6   2    0.40    0.21
  -1  -6  -2    0.72    0.26
  -1  -6  -2    1.37    0.27
  -1  -6  -2    1.18    0.25
   1   6   2    1.25    0.22
   1   6   2    1.35    0.24
   1   6   2    1.54    0.23
  -2  -6  -2    7.29    0.46
  -2  -6  -2    8.04    0.44
  -2  -6  -2    7.59    0.43
   2   6   2    8.63    0.45
   2   6   2    7.51    0.31
   2   6   2    8.00    0.42
   2   6   2    7.57    0.49
  -3  -6  -2   -0.01    0.20
  -3  -6  -2    0.15    0.22
  -3  -6  -2    0.28    0.20
  -3  -6  -2    0.18    0.13
   3   6   2    0.20    0.15
   3   6   2   -0.03    0.20
   3   6   2    0.15    0.16
   3   6   2    0.25    0.22
  -4  -6  -2    2.60    0.33
  -4  -6  -2    2.72    0.33
  -4  -6  -2    3.12    0.32
  -4  -6  -2    2.95    0.24
   4   6   2    2.38    0.28
   4   6   2    2.43    0.35
  -5  -6  -2    0.08    0.19
  -5  -6  -2    0.24    0.26
  -5  -6  -2    0.09    0.21
   5   6   2   -0.38    0.24
  -6  -6  -2    0.28    0.22
  -6  -6  -2    0.00    0.30
  -6  -6  -2    0.04    0.24
   6   6   2   -0.39    0.28
  -7  -6  -2    0.38    0.36
   7   6   2    0.03    0.36
  -8  -6  -2    0.48    0.39
  -8  -6  -2    0.14    0.36
   8   6   2    0.13    0.46
   4  -7  -2    0.57    0.39
   4  -7  -2    0.32    0.48
  -4   7   2    0.69    0.52
   3  -7  -2   -0.15    0.39
   3  -7  -2    0.01    0.33
  -3   7   2   -0.01    0.40
   2  -7  -2    0.40    0.27
   2  -7  -2   -0.02    0.35
  -2   7   2   -0.03    0.35
   1  -7  -2   22.79    0.92
   1  -7  -2   22.21    0.76
  -1   7   2   22.67    0.90
   0  -7  -2   14.11    0.71
   0  -7  -2   13.83    0.59
   0   7   2   13.34    0.66
   0   7   2   13.68    0.53
  -1  -7  -2   33.79    0.91
  -1  -7  -2   34.70    0.99
  -1  -7  -2   34.57    1.05
   1   7   2   33.17    0.96
   1   7   2   30.71    0.91
  -2  -7  -2   54.42    1.31
  -2  -7  -2   55.97    1.28
  -2  -7  -2   54.33    1.25
   2   7   2   51.43    1.33
   2   7   2   52.77    1.11
   2   7   2   53.82    1.36
   2   7   2   55.78    1.29
  -3  -7  -2    7.42    0.49
  -3  -7  -2    6.75    0.49
  -3  -7  -2    7.02    0.52
   3   7   2    6.16    0.54
   3   7   2    6.16    0.44
   3   7   2    6.87    0.51
   3   7   2    6.35    0.35
  -4  -7  -2   17.03    0.48
  -4  -7  -2   14.57    0.61
  -4  -7  -2   17.44    0.68
  -4  -7  -2   16.22    0.61
   4   7   2   17.43    0.58
   4   7   2   16.15    0.54
   4   7   2   16.38    0.61
   4   7   2   16.23    0.73
  -5  -7  -2    0.18    0.29
  -5  -7  -2   -0.06    0.22
  -5  -7  -2    0.08    0.27
   5   7   2    0.23    0.19
   5   7   2    0.10    0.29
   5   7   2    0.32    0.25
  -6  -7  -2    0.39    0.29
  -6  -7  -2    0.05    0.34
  -6  -7  -2   -0.19    0.27
   6   7   2    0.36    0.34
  -7  -7  -2    0.57    0.34
  -7  -7  -2    0.25    0.35
   7   7   2    0.28    0.44
   2  -8  -2    2.40    0.55
   2  -8  -2    2.62    0.42
  -2   8   2    3.01    0.50
   1  -8  -2    3.78    0.43
   1  -8  -2    3.59    0.54
  -1   8   2    4.04    0.51
   0  -8  -2    9.65    0.77
   0  -8  -2    9.80    0.58
   0   8   2    9.76    0.70
   0   8   2   10.30    0.54
  -1  -8  -2   15.14    0.72
  -1  -8  -2   16.36    0.80
   1   8   2   16.35    0.75
   1   8   2   15.04    0.66
  -2  -8  -2    0.06    0.31
  -2  -8  -2    0.03    0.36
   2   8   2    0.08    0.27
   2   8   2    0.23    0.27
  -3  -8  -2    2.25    0.41
  -3  -8  -2    2.41    0.38
  -3  -8  -2    2.33    0.41
   3   8   2    4.18    0.50
   3   8   2    2.41    0.40
  -4  -8  -2    4.47    0.35
  -4  -8  -2    5.38    0.52
  -4  -8  -2    4.30    0.46
   4   8   2    4.79    0.51
   4   8   2    3.93    0.52
  -5  -8  -2    0.19    0.38
  -5  -8  -2    1.10    0.34
   5   8   2    0.04    0.35
   5   8   2    0.84    0.25
  -6  -8  -2    1.63    0.45
   6   8   2    1.84    0.47
   1  -9  -2    1.29    0.51
   1  -9  -2    0.71    0.40
  -1   9   2    0.43    0.45
   0  -9  -2    0.85    0.46
   0  -9  -2   -0.80    0.36
   0   9   2   -0.13    0.41
   0   9   2    0.62    0.31
  -1  -9  -2    0.26    0.45
  -1  -9  -2   -0.33    0.37
   1   9   2   -0.41    0.34
   1   9   2    0.06    0.33
  -2  -9  -2   -0.54    0.43
  -2  -9  -2    0.44    0.39
   2   9   2    0.22    0.34
   2   9   2    0.03    0.37
  -3  -9  -2    0.57    0.39
   3   9   2    0.75    0.36
   3   9   2    0.64    0.34
  -4  -9  -2   -0.01    0.41
   4   9   2    0.57    0.41
   4   9   2    0.84    0.37
  -5  -9  -2   -0.53    0.44
   5   9   2    0.77    0.30
   5   9   2   -0.29    0.39
   3   8  -3    1.43    0.43
   3   8  -3    1.79    0.48
  -3  -8   3    1.73    0.49
  -3  -8   3    1.91    0.44
   2   8  -3    0.25    0.36
   2   8  -3    0.22    0.36
  -2  -8   3    0.13    0.37
  -2  -8   3   -0.51    0.38
  -2  -8   3   -0.63    0.43
   1   8  -3    4.99    0.55
   1   8  -3    6.35    0.63
  -1  -8   3    4.21    0.57
  -1  -8   3    5.06    0.54
  -1  -8   3    5.68    0.62
   0   8  -3    0.11    0.36
   0   8  -3    0.82    0.37
   0  -8   3    0.05    0.35
   0  -8   3    0.14    0.40
   0  -8   3    0.38    0.46
  -1   8  -3   10.84    0.64
  -1   8  -3    9.33    0.75
   1  -8   3    7.68    0.83
   1  -8   3   10.26    0.75
  -2   8  -3   -0.26    0.41
  -2   8  -3    0.45    0.34
   2  -8   3   -0.32    0.47
   2  -8   3   -0.49    0.38
   5   7  -3   -0.31    0.34
   5   7  -3    0.08    0.45
  -5  -7   3    0.77    0.44
  -5  -7   3    0.32    0.39
   4   7  -3    0.80    0.41
   4   7  -3    0.85    0.35
  -4  -7   3    0.87    0.38
  -4  -7   3    1.41    0.40
   3   7  -3    0.30    0.31
   3   7  -3    0.27    0.36
  -3  -7   3    0.49    0.36
  -3  -7   3    0.33    0.41
  -3  -7   3    0.41    0.33
   2   7  -3    0.28    0.29
   2   7  -3    0.25    0.35
  -2  -7   3    0.59    0.36
  -2  -7   3    0.03    0.32
  -2  -7   3    0.64    0.34
   1   7  -3   -0.23    0.34
   1   7  -3    0.00    0.29
  -1  -7   3    0.34    0.31
  -1  -7   3   -0.03    0.30
  -1  -7   3    0.92    0.39
   0   7  -3    2.76    0.42
   0   7  -3    2.13    0.39
   0  -7   3    2.71    0.45
   0  -7   3    2.53    0.38
   0  -7   3    2.22    0.37
  -1   7  -3   11.93    0.64
  -1   7  -3   12.77    0.72
   1  -7   3   12.83    0.64
   1  -7   3   12.43    0.78
   1  -7   3   11.87    0.65
  -2   7  -3    0.08    0.31
  -2   7  -3    0.22    0.36
   2  -7   3   -0.21    0.31
   2  -7   3    0.23    0.40
  -3   7  -3   10.37    0.83
  -3   7  -3    9.87    0.60
   3  -7   3   10.96    0.83
   3  -7   3   10.73    0.68
  -4   7  -3    4.13    0.62
   4  -7   3    5.68    0.63
   4  -7   3    3.42    0.58
   5   6  -3    0.80    0.41
   5   6  -3    0.51    0.31
  -5  -6   3    0.24    0.35
  -5  -6   3    0.15    0.37
   4   6  -3    0.35    0.30
   4   6  -3    0.18    0.34
  -4  -6   3    0.37    0.32
  -4  -6   3    0.10    0.31
   3   6  -3    0.45    0.27
   3   6  -3    0.10    0.31
  -3  -6   3    1.04    0.29
  -3  -6   3    0.15    0.32
  -3  -6   3    0.44    0.28
   2   6  -3    0.03    0.29
   2   6  -3   -0.40    0.24
  -2  -6   3    0.27    0.26
  -2  -6   3   -0.45    0.29
  -2  -6   3    0.15    0.27
   1   6  -3    3.49    0.43
   1   6  -3    3.69    0.46
  -1  -6   3    3.32    0.37
  -1  -6   3    4.64    0.41
  -1  -6   3    3.29    0.40
   0   6  -3   -0.19    0.24
   0   6  -3    0.15    0.26
   0  -6   3   -0.29    0.22
   0  -6   3    0.05    0.29
   0  -6   3    0.03    0.26
  -1   6  -3    0.23    0.26
   1  -6   3    0.20    0.27
   1  -6   3   -0.02    0.32
   1  -6   3    0.17    0.25
  -2   6  -3    1.89    0.36
   2  -6   3    1.76    0.39
   2  -6   3    1.42    0.32
  -3   6  -3    1.53    0.39
   3  -6   3    2.65    0.37
   3  -6   3    2.33    0.45
  -4   6  -3    4.43    0.57
   4  -6   3    3.27    0.51
   4  -6   3    4.86    0.52
  -5   6  -3    2.37    0.55
   5  -6   3    2.75    0.54
   5  -6   3    2.77    0.45
   6   5  -3   -0.17    0.43
   6   5  -3    0.63    0.30
  -6  -5   3    0.61    0.34
  -6  -5   3    0.09    0.39
   5   5  -3   13.48    0.62
   5   5  -3   13.59    0.73
  -5  -5   3   11.37    0.69
  -5  -5   3   12.71    0.59
   4   5  -3    3.54    0.45
   4   5  -3    4.32    0.51
  -4  -5   3    4.11    0.45
  -4  -5   3    3.73    0.43
  -4  -5   3    3.92    0.51
   3   5  -3   38.93    1.18
   3   5  -3   37.92    1.10
   3   5  -3   37.97    0.74
   3   5  -3   39.60    0.99
  -3  -5   3   38.65    1.05
  -3  -5   3   40.43    0.94
  -3  -5   3   39.37    1.05
   2   5  -3   12.93    0.71
   2   5  -3   14.16    0.57
   2   5  -3   12.37    0.47
   2   5  -3   13.09    0.64
  -2  -5   3   14.35    0.64
  -2  -5   3   13.54    0.51
  -2  -5   3   13.37    0.55
   1   5  -3   10.86    0.53
  -1  -5   3   11.75    0.50
  -1  -5   3   11.03    0.58
  -1  -5   3   11.26    0.49
   0   5  -3    7.03    0.48
   0  -5   3    8.13    0.45
   0  -5   3    8.00    0.42
   0  -5   3    8.35    0.53
  -1   5  -3    2.30    0.29
   1  -5   3    1.37    0.29
   1  -5   3    2.25    0.29
   1  -5   3    1.96    0.28
  -2   5  -3    0.39    0.25
   2  -5   3    0.62    0.22
   2  -5   3    0.00    0.24
   2  -5   3    0.58    0.27
  -3   5  -3    1.40    0.35
   3  -5   3    1.58    0.35
   3  -5   3    1.28    0.29
  -4   5  -3   -0.02    0.34
   4  -5   3    0.17    0.32
   4  -5   3    0.29    0.28
  -5   5  -3   -0.12    0.38
   5  -5   3    0.44    0.32
   5  -5   3    0.69    0.37
  -6   5  -3    0.20    0.46
   6  -5   3    0.75    0.41
   6  -5   3    0.66    0.42
   6   4  -3    6.43    0.63
   6   4  -3    7.56    0.51
  -6  -4   3    4.74    0.53
   5   4  -3    0.74    0.26
   5   4  -3    0.75    0.33
  -5  -4   3    0.43    0.25
  -5  -4   3    0.80    0.31
   4   4  -3   13.49    0.69
   4   4  -3   14.30    0.57
   4   4  -3   13.31    0.70
  -4  -4   3   13.98    0.61
  -4  -4   3   14.46    0.60
  -4  -4   3   14.37    0.51
   3   4  -3    8.88    0.48
   3   4  -3    9.71    0.56
   3   4  -3    8.87    0.54
  -3  -4   3    9.17    0.50
  -3  -4   3    9.29    0.42
  -3  -4   3    9.36    0.50
   2   4  -3    0.13    0.18
   2   4  -3   -0.28    0.26
  -2  -4   3   -0.15    0.17
  -2  -4   3    0.15    0.21
  -2  -4   3   -0.04    0.19
   1   4  -3    0.24    0.19
   1   4  -3    0.54    0.27
  -1  -4   3    0.55    0.19
  -1  -4   3    0.93    0.23
  -1  -4   3    0.42    0.19
   0   4  -3   28.68    0.80
   0  -4   3   28.79    0.79
   0  -4   3   28.66    0.72
   0  -4   3   29.94    0.84
  -1   4  -3   30.95    0.85
   1  -4   3   31.35    0.78
   1  -4   3   30.95    0.88
   1  -4   3   31.23    0.83
  -2   4  -3   13.66    0.57
   2  -4   3   12.63    0.58
   2  -4   3   13.14    0.53
   2  -4   3   13.32    0.50
  -3   4  -3   21.93    0.77
   3  -4   3   22.82    0.80
   3  -4   3   22.92    0.69
  -4   4  -3    1.01    0.32
   4  -4   3    1.09    0.25
   4  -4   3    1.05    0.31
  -5   4  -3    1.21    0.37
   5  -4   3    0.97    0.28
   5  -4   3    0.52    0.33
  -6   4  -3    1.45    0.42
   6  -4   3    1.11    0.37
   6  -4   3    0.71    0.38
  -7   4  -3    0.03    0.50
   7  -4   3   -0.08    0.39
   7  -4   3   -0.03    0.41
   7   3  -3   -0.24    0.41
   7   3  -3   -0.08    0.34
  -7  -3   3   -0.33    0.38
   6   3  -3    1.00    0.40
   6   3  -3    0.52    0.28
  -6  -3   3    0.13    0.30
   5   3  -3    1.80    0.28
   5   3  -3    1.55    0.34
  -5  -3   3    1.83    0.33
  -5  -3   3    1.45    0.34
  -5  -3   3    1.61    0.23
   4   3  -3    0.34    0.20
   4   3  -3    0.08    0.28
   4   3  -3   -0.05    0.25
  -4  -3   3    0.17    0.17
  -4  -3   3   -0.52    0.22
  -4  -3   3   -0.09    0.21
   3   3  -3    0.12    0.19
   3   3  -3    0.17    0.25
  -3  -3   3    0.29    0.22
  -3  -3   3    0.38    0.20
  -3  -3   3    0.04    0.16
   2   3  -3    5.17    0.40
   2   3  -3    5.33    0.24
  -2  -3   3    5.02    0.37
  -2  -3   3    5.49    0.28
  -2  -3   3    5.82    0.35
   1   3  -3    0.18    0.16
   1   3  -3    0.28    0.20
  -1  -3   3    0.22    0.18
  -1  -3   3    0.08    0.14
  -1  -3   3    0.15    0.13
   0   3  -3   12.36    0.46
   0   3  -3   12.62    0.52
   0  -3   3   12.66    0.41
   0  -3   3   13.05    0.45
   0  -3   3   13.00    0.50
  -1   3  -3    2.17    0.26
   1  -3   3    2.66    0.29
   1  -3   3    2.13    0.22
   1  -3   3    2.32    0.24
  -2   3  -3    4.57    0.32
   2  -3   3    4.64    0.36
   2  -3   3    4.02    0.29
   2  -3   3    4.35    0.30
  -3   3  -3    4.13    0.37
   3  -3   3    4.04    0.37
   3  -3   3    3.87    0.32
  -4   3  -3    3.28    0.34
  -4   3  -3    2.93    0.35
   4  -3   3    3.01    0.41
   4  -3   3    3.14    0.33
  -5   3  -3    0.22    0.28
  -5   3  -3    0.02    0.24
   5  -3   3    0.12    0.25
   5  -3   3    0.24    0.25
  -6   3  -3    1.06    0.37
   6  -3   3    0.92    0.34
   6  -3   3    0.98    0.28
  -7   3  -3    0.39    0.45
   7  -3   3    0.05    0.35
   7  -3   3    0.52    0.35
   7   2  -3    1.28    0.34
   7   2  -3    0.71    0.42
  -7  -2   3    1.07    0.41
   6   2  -3    0.68    0.30
   6   2  -3    0.82    0.36
  -6  -2   3    0.73    0.32
   5   2  -3    1.40    0.27
   5   2  -3    1.12    0.32
  -5  -2   3    1.18    0.16
  -5  -2   3    0.72    0.30
  -5  -2   3    0.94    0.32
   4   2  -3    0.45    0.27
   4   2  -3    0.20    0.18
   4   2  -3    0.25    0.24
  -4  -2   3    0.00    0.21
  -4  -2   3   -0.07    0.21
  -4  -2   3   -0.07    0.13
   3   2  -3   11.94    0.36
   3   2  -3   11.98    0.31
   3   2  -3   12.41    0.54
   3   2  -3   12.62    0.48
  -3  -2   3   12.68    0.35
  -3  -2   3   12.96    0.49
  -3  -2   3   12.40    0.50
   2   2  -3    8.90    0.43
   2   2  -3    8.66    0.38
   2   2  -3    8.75    0.32
   2   2  -3    8.98    0.27
  -2  -2   3    9.06    0.39
  -2  -2   3    9.06    0.40
  -2  -2   3    9.13    0.30
   1   2  -3    9.13    0.41
   1   2  -3    8.91    0.29
   1   2  -3    9.76    0.32
   1   2  -3    9.05    0.35
  -1  -2   3    9.19    0.31
  -1  -2   3    9.21    0.37
  -1  -2   3    9.11    0.39
   0   2  -3    8.87    0.35
   0   2  -3    9.03    0.31
   0   2  -3    8.62    0.39
   0  -2   3    9.04    0.35
   0  -2   3    9.44    0.39
   0  -2   3    8.79    0.30
  -1   2  -3   13.51    0.48
  -1   2  -3   13.88    0.45
   1  -2   3   13.92    0.46
   1  -2   3   14.42    0.40
   1  -2   3   13.84    0.47
   1  -2   3   14.02    0.43
  -2   2  -3    2.84    0.25
   2  -2   3    3.14    0.24
   2  -2   3    2.98    0.26
   2  -2   3    3.06    0.30
   2  -2   3    3.17    0.22
  -3   2  -3   47.38    1.08
   3  -2   3   48.38    1.11
   3  -2   3   47.59    0.96
   3  -2   3   47.04    1.10
  -4   2  -3    0.26    0.18
  -4   2  -3   -0.16    0.19
   4  -2   3   -0.04    0.16
   4  -2   3   -0.21    0.17
   4  -2   3   -0.03    0.23
  -5   2  -3    9.32    0.52
   5  -2   3    9.84    0.46
   5  -2   3    9.44    0.52
  -6   2  -3    0.04    0.29
   6  -2   3   -0.19    0.24
   6  -2   3    0.23    0.25
  -7   2  -3    0.15    0.38
   7  -2   3   -0.42    0.30
   7  -2   3   -0.69    0.30
   8  -2   3    1.17    0.41
   8  -2   3    0.61    0.40
   7   1  -3    1.18    0.37
   7   1  -3    1.78    0.47
  -7  -1   3    1.02    0.44
   6   1  -3    0.48    0.34
   6   1  -3   -0.01    0.26
  -6  -1   3    0.69    0.33
   5   1  -3   -0.12    0.36
   5   1  -3   -0.24    0.26
  -5  -1   3    0.00    0.27
  -5  -1   3    0.06    0.25
   4   1  -3    8.09    0.46
   4   1  -3    9.57    0.44
   4   1  -3    7.91    0.54
  -4  -1   3    8.16    0.47
  -4  -1   3    7.39    0.36
  -4  -1   3    7.55    0.46
   3   1  -3    0.01    0.15
   3   1  -3    0.04    0.12
   3   1  -3   -0.04    0.21
   3   1  -3    0.05    0.09
  -3  -1   3   -0.04    0.08
  -3  -1   3   -0.14    0.17
  -3  -1   3    0.29    0.19
  -3  -1   3    0.03    0.14
   2   1  -3  117.37    2.20
   2   1  -3  115.71    2.01
   2   1  -3  111.63    2.20
   2   1  -3  117.83    1.84
  -2  -1   3  116.99    1.84
  -2  -1   3  119.82    2.21
  -2  -1   3  117.09    2.02
  -2  -1   3  117.85    2.25
   1   1  -3    4.39    0.25
   1   1  -3    3.63    0.19
   1   1  -3    4.03    0.20
   1   1  -3    3.89    0.28
  -1  -1   3    3.91    0.18
  -1  -1   3    3.75    0.22
  -1  -1   3    4.40    0.27
  -1  -1   3    3.71    0.24
   0   1  -3  227.37    3.83
   0   1  -3  227.44    3.99
   0   1  -3  227.42    4.01
   0   1  -3  232.81    3.54
   0  -1   3  232.42    4.02
   0  -1   3  228.43    3.54
   0  -1   3  227.35    4.00
   0  -1   3  221.18    4.01
  -1   1  -3    1.57    0.19
  -1   1  -3    1.67    0.22
  -1   1  -3    1.76    0.18
  -1   1  -3    1.70    0.19
   1  -1   3    1.66    0.15
   1  -1   3    1.95    0.20
   1  -1   3    1.93    0.20
   1  -1   3    1.97    0.18
  -2   1  -3    5.48    0.28
  -2   1  -3    5.99    0.31
  -2   1  -3    5.83    0.31
   2  -1   3    5.93    0.25
   2  -1   3    6.00    0.29
   2  -1   3    6.24    0.27
   2  -1   3    6.00    0.30
  -3   1  -3    0.76    0.16
   3  -1   3    0.68    0.13
   3  -1   3    0.74    0.16
   3  -1   3    0.79    0.18
  -4   1  -3   -0.07    0.17
  -4   1  -3   -0.01    0.15
   4  -1   3    0.07    0.13
   4  -1   3    0.08    0.18
   4  -1   3    0.02    0.15
  -5   1  -3    0.82    0.21
   5  -1   3    1.02    0.26
   5  -1   3    0.74    0.20
   5  -1   3    0.44    0.19
  -6   1  -3    0.11    0.24
   6  -1   3    0.25    0.31
   6  -1   3    0.03    0.24
   6  -1   3   -0.11    0.23
  -7   1  -3    0.21    0.32
   7  -1   3   -0.44    0.26
   7  -1   3   -0.01    0.30
   8  -1   3    0.29    0.34
   7   0  -3    0.67    0.40
   7   0  -3    0.99    0.40
  -7   0   3    0.61    0.40
   6   0  -3    0.75    0.32
   6   0  -3    0.64    0.34
  -6   0   3    0.41    0.32
  -6   0   3    1.17    0.39
   5   0  -3    0.01    0.26
   5   0  -3    0.14    0.25
   5   0  -3    0.68    0.40
  -5   0   3    0.29    0.28
  -5   0   3    0.35    0.31
   4   0  -3   -0.27    0.19
   4   0  -3    0.09    0.23
   4   0  -3    0.46    0.31
  -4   0   3    0.08    0.21
  -4   0   3   -0.06    0.22
   3   0  -3   20.69    0.54
   3   0  -3   19.62    0.61
   3   0  -3   20.37    0.67
  -3   0   3   20.02    0.64
  -3   0   3   19.64    0.55
  -3   0   3   20.98    0.66
   2   0  -3   27.45    0.61
   2   0  -3   26.47    0.70
   2   0  -3   25.99    0.72
  -2   0   3   26.72    0.71
  -2   0   3   26.97    0.72
  -2   0   3   27.26    0.62
   1   0  -3   41.28    0.92
   1   0  -3   41.69    0.93
   1   0  -3   42.08    0.84
   1   0  -3   42.80    0.71
  -1   0   3   42.52    0.93
  -1   0   3   42.84    0.71
  -1   0   3   42.55    0.92
  -1   0   3   41.00    0.92
  -1   0   3   42.04    0.84
   0   0  -3  150.58    2.36
   0   0  -3  147.08    2.71
   0   0  -3  147.65    2.70
   0   0  -3  154.87    2.72
   0   0  -3  151.93    2.59
   0   0   3  151.36    2.36
   0   0   3  151.23    2.70
   0   0   3  153.34    2.70
   0   0   3  151.17    2.72
   0   0   3  151.04    2.59
  -1   0  -3    3.34    0.20
  -1   0  -3    3.07    0.22
  -1   0  -3    3.12    0.20
  -1   0  -3    3.53    0.20
  -1   0  -3    3.47    0.17
   1   0   3    3.30    0.18
   1   0   3    3.75    0.21
   1   0   3    3.48    0.17
   1   0   3    3.26    0.19
  -2   0  -3    9.63    0.32
  -2   0  -3    8.88    0.29
  -2   0  -3    8.95    0.32
  -2   0  -3    9.01    0.30
   2   0   3    8.93    0.28
   2   0   3    9.38    0.32
   2   0   3    9.29    0.30
   2   0   3    9.01    0.32
  -3   0  -3   57.14    1.16
  -3   0  -3   57.29    1.14
  -3   0  -3   58.02    1.23
  -3   0  -3   56.99    1.16
   3   0   3   57.19    1.15
   3   0   3   57.89    1.07
   3   0   3   58.49    1.15
  -4   0  -3   14.85    0.46
   4   0   3   15.21    0.46
   4   0   3   15.15    0.45
   4   0   3   15.75    0.47
  -5   0  -3   35.31    0.82
   5   0   3   35.23    0.84
   5   0   3   35.00    0.83
   5   0   3   33.90    0.80
  -6   0  -3    2.03    0.26
   6   0   3    1.87    0.28
   6   0   3    1.78    0.24
  -7   0  -3    2.12    0.31
   7   0   3    2.37    0.31
   8   0   3    0.23    0.29
   6  -1  -3    1.06    0.33
   6  -1  -3    0.03    0.31
  -6   1   3    0.27    0.37
  -6   1   3   -0.06    0.40
   5  -1  -3    0.46    0.26
   5  -1  -3   -0.04    0.25
  -5   1   3    0.19    0.29
  -5   1   3    0.01    0.30
   4  -1  -3    1.73    0.27
   4  -1  -3    2.25    0.28
  -4   1   3    1.62    0.30
  -4   1   3    1.73    0.30
   3  -1  -3    1.91    0.23
   3  -1  -3    1.94    0.31
   3  -1  -3    1.49    0.24
  -3   1   3    1.72    0.27
  -3   1   3    1.97    0.26
   2  -1  -3    6.07    0.34
   2  -1  -3    7.63    0.42
   2  -1  -3    7.50    0.33
  -2   1   3    7.50    0.37
  -2   1   3    7.72    0.37
   1  -1  -3    4.86    0.25
   1  -1  -3    4.34    0.26
   1  -1  -3    4.32    0.29
   1  -1  -3    4.53    0.30
   1  -1  -3    4.51    0.15
  -1   1   3    4.47    0.28
  -1   1   3    4.99    0.26
  -1   1   3    4.77    0.27
   0  -1  -3   16.05    0.45
   0  -1  -3   15.70    0.34
   0  -1  -3   15.82    0.42
   0  -1  -3   15.40    0.42
   0  -1  -3   15.38    0.46
   0   1   3   15.85    0.42
   0   1   3   15.41    0.44
   0   1   3   15.83    0.45
   0   1   3   15.38    0.43
  -1  -1  -3    2.58    0.20
  -1  -1  -3    2.40    0.16
  -1  -1  -3    2.58    0.18
  -1  -1  -3    2.53    0.15
  -1  -1  -3    2.60    0.18
   1   1   3    2.63    0.19
   1   1   3    2.57    0.15
   1   1   3    2.68    0.20
   1   1   3    2.53    0.19
  -2  -1  -3    7.27    0.25
  -2  -1  -3    7.56    0.29
  -2  -1  -3    7.63    0.31
  -2  -1  -3    7.57    0.26
  -2  -1  -3    7.55    0.28
  -2  -1  -3    7.92    0.27
   2   1   3    7.85    0.27
   2   1   3    7.97    0.27
   2   1   3    7.74    0.24
  -3  -1  -3   45.58    0.93
  -3  -1  -3   46.34    0.91
  -3  -1  -3   46.06    0.93
  -3  -1  -3   46.64    0.98
   3   1   3   46.61    0.93
   3   1   3   48.06    0.92
  -4  -1  -3   34.62    0.73
  -4  -1  -3   34.31    0.76
   4   1   3   33.71    0.73
   4   1   3   35.59    0.87
   4   1   3   34.80    0.73
  -5  -1  -3   84.60    1.60
   5   1   3   87.65    1.84
   5   1   3   86.36    1.62
   5   1   3   85.49    1.64
  -6  -1  -3    6.42    0.35
   6   1   3    5.56    0.38
   6   1   3    6.08    0.32
  -7  -1  -3   15.93    0.56
   7   1   3   16.35    0.66
   7   1   3   16.77    0.54
   8   1   3   -0.38    0.29
   8   1   3    0.46    0.25
   6  -2  -3   14.86    0.80
  -6   2   3   14.35    0.80
  -6   2   3   14.12    0.92
   5  -2  -3   10.06    0.51
   5  -2  -3   11.34    0.63
  -5   2   3    9.94    0.71
  -5   2   3    9.77    0.63
   4  -2  -3    9.79    0.53
   4  -2  -3    9.98    0.46
  -4   2   3   10.33    0.59
  -4   2   3    8.84    0.55
   3  -2  -3   10.69    0.51
   3  -2  -3    9.99    0.47
  -3   2   3   10.24    0.48
  -3   2   3   10.91    0.54
   2  -2  -3    0.35    0.17
   2  -2  -3    0.45    0.09
   2  -2  -3    0.39    0.18
  -2   2   3    0.40    0.17
  -2   2   3    0.58    0.18
   1  -2  -3    0.23    0.09
   1  -2  -3    0.16    0.12
   1  -2  -3    0.19    0.13
  -1   2   3    0.12    0.14
  -1   2   3    0.02    0.14
   0  -2  -3    3.87    0.24
   0  -2  -3    3.74    0.26
   0  -2  -3    3.82    0.18
   0  -2  -3    3.56    0.24
   0  -2  -3    3.70    0.21
   0   2   3    4.27    0.25
   0   2   3    3.55    0.25
   0   2   3    4.13    0.26
   0   2   3    3.75    0.20
  -1  -2  -3    0.23    0.08
  -1  -2  -3    0.46    0.12
  -1  -2  -3    0.30    0.11
  -1  -2  -3    0.17    0.11
  -1  -2  -3    0.04    0.10
   1   2   3    0.38    0.12
   1   2   3    0.27    0.10
   1   2   3    0.11    0.12
   1   2   3    0.34    0.08
  -2  -2  -3   13.81    0.38
  -2  -2  -3   13.78    0.31
  -2  -2  -3   13.20    0.37
  -2  -2  -3   13.55    0.44
  -2  -2  -3   13.74    0.40
   2   2   3   14.00    0.42
   2   2   3   13.91    0.38
   2   2   3   13.95    0.31
   2   2   3   13.47    0.37
  -3  -2  -3   22.78    0.52
  -3  -2  -3   22.45    0.49
  -3  -2  -3   22.41    0.57
  -3  -2  -3   22.93    0.50
   3   2   3   22.71    0.63
   3   2   3   22.59    0.50
  -4  -2  -3    2.37    0.24
  -4  -2  -3    2.43    0.17
  -4  -2  -3    2.62    0.20
   4   2   3    2.18    0.23
   4   2   3    2.56    0.16
   4   2   3    1.73    0.16
  -5  -2  -3    2.60    0.28
  -5  -2  -3    2.64    0.23
   5   2   3    2.52    0.18
   5   2   3    2.66    0.18
   5   2   3    2.42    0.27
  -6  -2  -3    1.02    0.15
  -6  -2  -3    1.00    0.25
   6   2   3    1.11    0.15
   6   2   3    1.53    0.25
   6   2   3    1.50    0.19
  -7  -2  -3    1.31    0.34
   7   2   3    0.94    0.16
   7   2   3    1.44    0.31
   7   2   3    1.04    0.18
  -8  -2  -3    0.04    0.40
   8   2   3    0.67    0.33
  -9  -2  -3    0.85    0.54
  -9  -2  -3    0.23    0.40
  -9  -2  -3   -0.39    0.39
   6  -3  -3    8.39    0.77
  -6   3   3    8.29    0.76
  -6   3   3    8.45    0.89
   5  -3  -3    1.40    0.37
  -5   3   3    1.07    0.38
  -5   3   3    1.85    0.44
   4  -3  -3   10.84    0.44
   4  -3  -3   10.47    0.60
  -4   3   3    9.29    0.66
  -4   3   3   10.69    0.60
   3  -3  -3    4.92    0.44
   3  -3  -3    5.35    0.41
   3  -3  -3    5.56    0.25
  -3   3   3    5.45    0.49
  -3   3   3    5.60    0.28
  -3   3   3    5.38    0.41
   2  -3  -3    4.10    0.23
   2  -3  -3    3.84    0.37
   2  -3  -3    3.71    0.33
  -2   3   3    3.42    0.33
  -2   3   3    4.14    0.37
  -2   3   3    3.28    0.24
   1  -3  -3   68.46    1.18
   1  -3  -3   68.18    1.46
   1  -3  -3   67.83    1.39
  -1   3   3   69.83    1.20
  -1   3   3   68.36    1.46
  -1   3   3   68.06    1.39
   0  -3  -3   90.09    1.80
   0  -3  -3   92.37    1.82
   0  -3  -3   91.73    1.74
   0  -3  -3   94.40    1.56
   0   3   3   92.49    1.81
   0   3   3   93.13    1.71
   0   3   3   91.01    1.80
  -1  -3  -3   72.22    1.28
  -1  -3  -3   71.72    1.48
  -1  -3  -3   70.64    1.39
  -1  -3  -3   73.34    1.42
   1   3   3   70.43    1.41
   1   3   3   69.26    1.41
   1   3   3   72.51    1.28
  -2  -3  -3   38.88    0.82
  -2  -3  -3   38.15    0.80
  -2  -3  -3   38.34    0.84
  -2  -3  -3   36.73    0.82
   2   3   3   39.58    0.83
   2   3   3   38.95    0.82
   2   3   3   39.30    0.91
  -3  -3  -3    7.97    0.33
  -3  -3  -3    8.10    0.29
  -3  -3  -3    8.22    0.29
  -3  -3  -3    7.91    0.32
  -3  -3  -3    7.83    0.21
   3   3   3    7.88    0.36
   3   3   3    8.03    0.27
  -4  -3  -3    8.77    0.25
  -4  -3  -3    7.95    0.34
  -4  -3  -3    8.06    0.26
  -4  -3  -3    7.98    0.35
   4   3   3    8.08    0.23
   4   3   3    8.04    0.24
   4   3   3    7.98    0.39
  -5  -3  -3    2.64    0.30
   5   3   3    2.85    0.35
  -6  -3  -3    0.61    0.22
  -6  -3  -3    0.21    0.22
   6   3   3    0.74    0.25
  -7  -3  -3    0.60    0.26
  -7  -3  -3   -0.06    0.29
  -7  -3  -3    0.16    0.26
   7   3   3    0.47    0.30
  -8  -3  -3   -0.51    0.30
  -8  -3  -3   -0.16    0.35
  -8  -3  -3    0.36    0.32
   8   3   3    0.04    0.33
  -9  -3  -3    0.06    0.41
  -9  -3  -3   -0.02    0.47
  -9  -3  -3   -0.06    0.36
   9   3   3    0.02    0.39
   5  -4  -3   -0.01    0.36
  -5   4   3   -0.58    0.43
  -5   4   3    0.12    0.36
   4  -4  -3    1.13    0.36
   4  -4  -3    0.80    0.21
  -4   4   3    0.39    0.36
  -4   4   3    1.52    0.35
   3  -4  -3    0.96    0.17
   3  -4  -3    1.37    0.33
   3  -4  -3    1.70    0.21
  -3   4   3    1.20    0.35
  -3   4   3    1.26    0.30
  -3   4   3    1.48    0.27
   2  -4  -3    1.46    0.26
   2  -4  -3    1.81    0.20
   2  -4  -3    1.34    0.18
   2  -4  -3    1.49    0.26
  -2   4   3    1.23    0.28
  -2   4   3    1.26    0.24
   1  -4  -3   29.25    0.85
   1  -4  -3   30.30    0.72
   1  -4  -3   29.32    0.65
   1  -4  -3   28.60    0.79
  -1   4   3   29.42    0.74
  -1   4   3   28.82    0.84
   0  -4  -3    5.84    0.36
   0  -4  -3    6.38    0.29
   0  -4  -3    5.45    0.32
   0  -4  -3    6.12    0.38
   0   4   3    6.67    0.29
   0   4   3    6.30    0.37
  -1  -4  -3  104.24    1.96
  -1  -4  -3  103.68    2.00
  -1  -4  -3  105.55    1.80
   1   4   3  101.07    1.99
   1   4   3  106.33    1.84
   1   4   3  104.64    2.08
   1   4   3   99.98    1.99
  -2  -4  -3   14.30    0.45
  -2  -4  -3   14.04    0.47
  -2  -4  -3   13.91    0.46
   2   4   3   14.23    0.44
   2   4   3   14.65    0.50
   2   4   3   14.66    0.46
  -3  -4  -3   12.15    0.43
  -3  -4  -3   10.94    0.43
  -3  -4  -3   12.21    0.39
   3   4   3   12.28    0.38
   3   4   3   12.33    0.37
   3   4   3   12.26    0.47
  -4  -4  -3    2.58    0.23
  -4  -4  -3    2.37    0.20
  -4  -4  -3    2.27    0.25
  -4  -4  -3    2.47    0.27
  -4  -4  -3    2.36    0.17
   4   4   3    2.24    0.30
   4   4   3    2.90    0.17
   4   4   3    2.84    0.19
  -5  -4  -3    2.00    0.24
  -5  -4  -3    2.12    0.27
  -5  -4  -3    2.27    0.29
   5   4   3    2.46    0.34
  -6  -4  -3    0.05    0.22
  -6  -4  -3   -0.08    0.23
  -6  -4  -3    0.07    0.20
   6   4   3    0.52    0.25
  -7  -4  -3    4.72    0.43
  -7  -4  -3    4.01    0.44
  -7  -4  -3    5.54    0.46
   7   4   3    4.55    0.51
  -8  -4  -3    0.39    0.35
  -8  -4  -3   -0.25    0.33
  -8  -4  -3   -0.09    0.32
   8   4   3   -0.49    0.35
   5  -5  -3    0.08    0.42
  -5   5   3    0.00    0.50
  -5   5   3    0.56    0.46
   4  -5  -3    1.90    0.30
   4  -5  -3    0.90    0.42
  -4   5   3    1.37    0.39
  -4   5   3    2.22    0.47
   3  -5  -3    0.01    0.23
   3  -5  -3    0.55    0.32
  -3   5   3   -0.45    0.29
   2  -5  -3    5.01    0.45
   2  -5  -3    4.55    0.29
   2  -5  -3    5.34    0.35
   2  -5  -3    5.26    0.51
  -2   5   3    4.20    0.50
   1  -5  -3    0.22    0.18
   1  -5  -3    0.38    0.20
   1  -5  -3    0.54    0.25
   1  -5  -3    0.02    0.23
  -1   5   3    0.39    0.23
   0  -5  -3   -0.19    0.17
   0  -5  -3    0.11    0.21
   0  -5  -3    0.24    0.20
   0  -5  -3   -0.06    0.20
   0   5   3    0.11    0.19
  -1  -5  -3    8.07    0.42
  -1  -5  -3    7.72    0.44
  -1  -5  -3    8.06    0.40
   1   5   3    7.92    0.38
   1   5   3    7.70    0.30
   1   5   3    7.70    0.42
   1   5   3    7.59    0.49
  -2  -5  -3   15.91    0.53
  -2  -5  -3   16.43    0.55
  -2  -5  -3   14.03    0.52
   2   5   3   15.88    0.53
   2   5   3   16.49    0.56
   2   5   3   16.19    0.56
  -3  -5  -3    5.62    0.36
  -3  -5  -3    6.22    0.36
  -3  -5  -3    6.37    0.35
   3   5   3    5.87    0.35
   3   5   3    6.33    0.32
   3   5   3    5.09    0.37
  -4  -5  -3    2.48    0.28
  -4  -5  -3    3.03    0.34
  -4  -5  -3    2.65    0.34
   4   5   3    2.51    0.35
   4   5   3    2.66    0.22
  -5  -5  -3    1.68    0.28
  -5  -5  -3    1.57    0.25
  -5  -5  -3    1.86    0.23
   5   5   3    1.77    0.31
  -6  -5  -3    1.25    0.26
  -6  -5  -3    0.80    0.31
  -6  -5  -3    0.83    0.22
   6   5   3    1.22    0.31
  -7  -5  -3   -0.14    0.27
  -7  -5  -3    0.21    0.30
  -7  -5  -3    0.20    0.28
   7   5   3    0.48    0.31
  -8  -5  -3    0.21    0.33
  -8  -5  -3    0.67    0.36
   8   5   3    0.46    0.39
   4  -6  -3    0.39    0.33
   4  -6  -3    0.55    0.42
  -4   6   3   -0.43    0.46
   3  -6  -3    1.33    0.29
   3  -6  -3    0.92    0.39
  -3   6   3    1.31    0.45
   2  -6  -3    0.69    0.36
   2  -6  -3    0.82    0.25
  -2   6   3    0.72    0.34
   1  -6  -3    1.63    0.28
   1  -6  -3    1.66    0.36
   1  -6  -3    2.39    0.35
   1  -6  -3    2.51    0.36
  -1   6   3    2.03    0.34
   0  -6  -3    4.05    0.45
   0  -6  -3    4.28    0.39
   0  -6  -3    4.59    0.49
   0   6   3    5.04    0.46
  -1  -6  -3    8.79    0.44
  -1  -6  -3    8.56    0.47
  -1  -6  -3    8.04    0.53
   1   6   3    8.52    0.38
   1   6   3    8.21    0.49
   1   6   3    8.11    0.42
  -2  -6  -3    4.35    0.42
  -2  -6  -3    4.43    0.39
  -2  -6  -3    4.35    0.37
   2   6   3    3.98    0.35
   2   6   3    4.01    0.37
   2   6   3    4.01    0.47
  -3  -6  -3    9.03    0.47
  -3  -6  -3    8.60    0.42
  -3  -6  -3    8.84    0.47
   3   6   3    8.88    0.42
   3   6   3    8.42    0.49
   3   6   3    8.38    0.47
  -4  -6  -3    2.92    0.34
  -4  -6  -3    3.43    0.37
  -4  -6  -3    3.79    0.36
   4   6   3    3.64    0.30
   4   6   3    3.73    0.42
   4   6   3    3.47    0.35
  -5  -6  -3    0.15    0.17
  -5  -6  -3   -0.15    0.24
  -5  -6  -3   -0.12    0.24
  -5  -6  -3   -0.11    0.15
   5   6   3    0.03    0.26
   5   6   3   -0.30    0.13
   5   6   3   -0.03    0.13
  -6  -6  -3    0.43    0.28
  -6  -6  -3    0.09    0.28
  -6  -6  -3    0.56    0.23
   6   6   3    0.60    0.31
  -7  -6  -3    0.13    0.35
  -7  -6  -3    0.31    0.30
  -7  -6  -3    0.48    0.31
   7   6   3    0.90    0.38
  -8  -6  -3    0.10    0.33
  -8  -6  -3   -0.35    0.41
   8   6   3   -0.32    0.44
   3  -7  -3   -0.01    0.45
   3  -7  -3    0.90    0.36
  -3   7   3    1.33    0.49
   2  -7  -3    0.18    0.39
   2  -7  -3    0.59    0.32
  -2   7   3    0.26    0.39
   1  -7  -3   -0.01    0.33
   1  -7  -3    0.09    0.28
  -1   7   3   -0.07    0.31
   0  -7  -3    2.07    0.36
   0  -7  -3    1.52    0.36
   0  -7  -3    2.65    0.34
   0   7   3    2.19    0.37
  -1  -7  -3    8.32    0.54
  -1  -7  -3    7.36    0.53
  -1  -7  -3    7.42    0.59
   1   7   3    8.05    0.55
   1   7   3    7.04    0.43
   1   7   3    7.79    0.46
  -2  -7  -3    5.47    0.54
  -2  -7  -3    5.89    0.47
  -2  -7  -3    6.20    0.51
   2   7   3    5.76    0.47
   2   7   3    5.68    0.45
   2   7   3    6.23    0.32
  -3  -7  -3   11.14    0.61
  -3  -7  -3   11.07    0.57
  -3  -7  -3   11.17    0.57
   3   7   3   10.99    0.62
   3   7   3   11.28    0.65
   3   7   3   12.00    0.54
  -4  -7  -3   -0.27    0.26
  -4  -7  -3   -0.06    0.27
  -4  -7  -3   -0.17    0.26
   4   7   3   -0.42    0.19
   4   7   3    0.07    0.26
   4   7   3   -0.66    0.25
  -5  -7  -3    1.54    0.31
  -5  -7  -3    0.70    0.31
   5   7   3    1.00    0.35
   5   7   3    1.36    0.21
  -6  -7  -3    2.46    0.35
  -6  -7  -3    2.62    0.43
   6   7   3    2.70    0.45
  -7  -7  -3    1.04    0.42
   7   7   3    0.57    0.39
   2  -8  -3    1.22    0.49
   2  -8  -3    0.16    0.37
  -2   8   3    0.19    0.46
   1  -8  -3    0.85    0.44
   1  -8  -3    0.04    0.36
  -1   8   3   -0.15    0.38
   0  -8  -3    1.63    0.45
   0  -8  -3    1.71    0.38
   0   8   3    1.49    0.40
  -1  -8  -3    0.33    0.35
  -1  -8  -3    0.47    0.34
  -1  -8  -3    0.52    0.36
   1   8   3    0.20    0.31
   1   8   3    0.45    0.27
  -2  -8  -3   20.11    0.91
  -2  -8  -3   19.24    0.81
  -2  -8  -3   19.27    0.79
   2   8   3   19.02    0.75
   2   8   3   19.45    0.78
  -3  -8  -3   -0.22    0.34
  -3  -8  -3   -0.48    0.32
  -3  -8  -3    0.04    0.33
   3   8   3   -0.53    0.30
   3   8   3    0.05    0.26
  -4  -8  -3   10.74    0.66
  -4  -8  -3   10.25    0.61
   4   8   3    9.24    0.58
   4   8   3    9.84    0.67
  -5  -8  -3    0.14    0.34
  -5  -8  -3   -0.15    0.38
   5   8   3    0.29    0.36
   5   8   3    0.55    0.26
  -6  -8  -3   -0.28    0.40
  -6  -8  -3    0.13    0.35
   6   8   3    0.25    0.40
   0  -9  -3   -0.51    0.51
   0  -9  -3   -1.13    0.39
   0   9   3    0.58    0.40
  -1  -9  -3    0.08    0.37
  -1  -9  -3    0.25    0.45
   1   9   3   -0.09    0.32
   1   9   3    0.13    0.35
  -2  -9  -3    0.13    0.41
  -2  -9  -3    0.89    0.43
   2   9   3    0.01    0.34
   2   9   3    0.61    0.32
  -3  -9  -3    0.84    0.42
  -3  -9  -3    0.56    0.40
   3   9   3    1.09    0.40
   3   9   3    0.19    0.32
  -4  -9  -3    0.48    0.43
  -4  -9  -3    0.19    0.41
   4   9   3    0.60    0.35
   4   9   3    0.17    0.41
  -5  -9  -3    0.93    0.47
  -5  -9  -3    2.23    0.44
   5   9   3    1.64    0.47
   5   9   3    1.06    0.38
   2   8  -4    0.37    0.44
   2   8  -4    0.46    0.45
  -2  -8   4    0.56    0.45
  -2  -8   4    0.81    0.42
   1   8  -4   -0.21    0.39
   1   8  -4   -0.56    0.42
  -1  -8   4   -0.01    0.38
  -1  -8   4    0.40    0.44
  -1  -8   4   -0.31    0.48
   0   8  -4   -0.11    0.41
   0   8  -4   -0.66    0.42
   0  -8   4   -0.05    0.36
   0  -8   4    0.84    0.45
   0  -8   4    0.15    0.48
  -1   8  -4   -0.74    0.37
  -1   8  -4   -0.85    0.47
   1  -8   4    0.07    0.50
   1  -8   4    0.14    0.42
   1  -8   4    0.54    0.39
   4   7  -4    0.30    0.44
   4   7  -4   -0.30    0.40
  -4  -7   4    0.59    0.41
  -4  -7   4   -0.39    0.47
   3   7  -4    0.32    0.36
   3   7  -4   -0.26    0.45
  -3  -7   4   -0.33    0.37
  -3  -7   4    0.78    0.38
   2   7  -4    0.26    0.36
   2   7  -4    0.24    0.36
  -2  -7   4   -0.23    0.40
  -2  -7   4    0.92    0.42
  -2  -7   4    0.50    0.35
   1   7  -4    1.58    0.38
   1   7  -4    1.08    0.35
  -1  -7   4    0.74    0.37
  -1  -7   4    1.44    0.41
  -1  -7   4    1.22    0.35
   0   7  -4    1.16    0.37
   0   7  -4    0.80    0.39
   0  -7   4    1.10    0.36
   0  -7   4    1.20    0.44
   0  -7   4    0.89    0.35
  -1   7  -4    5.86    0.60
  -1   7  -4    6.58    0.61
   1  -7   4    6.56    0.62
   1  -7   4    5.75    0.58
   1  -7   4    7.72    0.76
  -2   7  -4    0.42    0.39
  -2   7  -4   -0.24    0.34
   2  -7   4   -0.18    0.43
   2  -7   4    0.42    0.40
  -3   7  -4    4.06    0.53
  -3   7  -4    3.86    0.45
   3  -7   4    2.76    0.53
   3  -7   4    4.09    0.52
   5   6  -4    1.06    0.45
   5   6  -4    0.97    0.38
  -5  -6   4    0.21    0.41
  -5  -6   4    0.48    0.44
   4   6  -4    0.09    0.35
   4   6  -4    0.23    0.44
  -4  -6   4    0.81    0.39
  -4  -6   4    0.33    0.37
   3   6  -4    0.13    0.35
   3   6  -4    0.18    0.31
  -3  -6   4    0.09    0.37
  -3  -6   4    0.60    0.32
  -3  -6   4   -0.66    0.33
   2   6  -4    0.14    0.32
   2   6  -4    1.11    0.33
  -2  -6   4    0.77    0.32
  -2  -6   4    0.72    0.32
  -2  -6   4    0.89    0.39
   1   6  -4   -0.59    0.26
  -1  -6   4    0.32    0.29
  -1  -6   4   -0.42    0.28
  -1  -6   4    0.48    0.33
   0   6  -4    1.04    0.33
   0  -6   4    1.23    0.39
   0  -6   4    1.87    0.33
   0  -6   4    1.00    0.34
  -1   6  -4    0.80    0.35
   1  -6   4    1.35    0.38
   1  -6   4    1.33    0.32
   1  -6   4    1.41    0.31
  -2   6  -4    0.74    0.34
   2  -6   4    0.93    0.34
   2  -6   4    1.04    0.31
   2  -6   4    0.37    0.38
  -3   6  -4    1.65    0.39
   3  -6   4    0.68    0.39
   3  -6   4    1.35    0.35
  -4   6  -4    0.51    0.41
   4  -6   4    0.40    0.41
   4  -6   4    0.47    0.34
  -5   6  -4    0.17    0.47
   5  -6   4    0.55    0.41
   5  -6   4   -0.64    0.42
   5   5  -4    0.36    0.32
   5   5  -4    0.56    0.43
  -5  -5   4    0.34    0.36
  -5  -5   4    0.68    0.35
   4   5  -4    6.62    0.64
   4   5  -4    7.05    0.58
  -4  -5   4    7.12    0.55
  -4  -5   4    7.14    0.68
  -4  -5   4    7.41    0.59
   3   5  -4    2.34    0.35
   3   5  -4    1.48    0.38
  -3  -5   4    1.66    0.33
  -3  -5   4    1.63    0.31
  -3  -5   4    2.05    0.39
   2   5  -4   15.85    0.54
   2   5  -4   16.73    0.68
  -2  -5   4   17.01    0.65
  -2  -5   4   15.42    0.64
  -2  -5   4   15.40    0.74
   1   5  -4    5.21    0.48
  -1  -5   4    6.15    0.44
  -1  -5   4    4.66    0.53
  -1  -5   4    6.19    0.44
   0   5  -4   12.50    0.63
   0  -5   4   12.08    0.55
   0  -5   4   11.06    0.65
   0  -5   4   12.76    0.57
  -1   5  -4    0.26    0.26
   1  -5   4    0.36    0.28
   1  -5   4    0.54    0.24
   1  -5   4    0.44    0.26
  -2   5  -4    1.29    0.32
   2  -5   4    1.05    0.27
   2  -5   4    0.64    0.27
   2  -5   4    0.59    0.32
  -3   5  -4    5.07    0.53
   3  -5   4    4.94    0.44
   3  -5   4    3.44    0.44
  -4   5  -4    0.04    0.33
   4  -5   4   -0.33    0.31
   4  -5   4    0.06    0.33
  -5   5  -4    4.75    0.56
   5  -5   4    3.68    0.50
   5  -5   4    4.16    0.47
  -6   5  -4    1.01    0.50
   6  -5   4    0.27    0.42
   6  -5   4    0.02    0.37
   6   4  -4    1.52    0.43
   6   4  -4    0.10    0.35
  -6  -4   4    0.28    0.41
   5   4  -4    4.67    0.64
   5   4  -4    6.41    0.54
  -5  -4   4    6.04    0.49
  -5  -4   4    5.11    0.58
   4   4  -4    8.84    0.55
   4   4  -4    8.45    0.63
  -4  -4   4    7.27    0.58
  -4  -4   4    7.62    0.61
  -4  -4   4    7.26    0.47
   3   4  -4   31.16    0.93
   3   4  -4   29.68    1.02
  -3  -4   4   32.63    0.80
  -3  -4   4   31.65    0.97
  -3  -4   4   30.67    0.93
   2   4  -4   38.47    1.01
   2   4  -4   37.53    0.83
  -2  -4   4   38.88    1.05
  -2  -4   4   39.47    0.90
  -2  -4   4   38.94    1.06
   1   4  -4    9.01    0.48
  -1  -4   4    7.95    0.47
  -1  -4   4    8.37    0.54
  -1  -4   4    8.44    0.42
   0   4  -4   49.06    1.19
   0  -4   4   50.34    1.22
   0  -4   4   46.21    1.15
   0  -4   4   47.97    1.05
  -1   4  -4    9.05    0.50
   1  -4   4    8.79    0.44
   1  -4   4    7.48    0.43
   1  -4   4    7.95    0.51
  -2   4  -4    2.34    0.32
   2  -4   4    2.50    0.32
   2  -4   4    2.34    0.33
   2  -4   4    2.63    0.31
  -3   4  -4    5.67    0.48
   3  -4   4    5.23    0.41
   3  -4   4    4.81    0.50
   3  -4   4    5.01    0.43
  -4   4  -4    2.06    0.36
   4  -4   4    2.01    0.30
   4  -4   4    2.19    0.38
  -5   4  -4   -0.02    0.33
   5  -4   4   -0.13    0.30
   5  -4   4   -0.15    0.29
  -6   4  -4    0.37    0.40
   6  -4   4    0.52    0.38
   6  -4   4    0.17    0.32
  -7   4  -4    0.96    0.51
   7  -4   4    0.12    0.40
   7  -4   4   -0.27    0.41
   6   3  -4   -0.18    0.33
   6   3  -4    0.62    0.40
  -6  -3   4   -0.10    0.37
   5   3  -4    0.27    0.36
   5   3  -4    0.35    0.29
  -5  -3   4   -0.26    0.35
  -5  -3   4   -0.38    0.30
   4   3  -4    1.65    0.38
   4   3  -4    2.32    0.33
  -4  -3   4    1.71    0.34
  -4  -3   4    1.72    0.23
  -4  -3   4    1.89    0.32
   3   3  -4    2.74    0.23
   3   3  -4    2.48    0.40
   3   3  -4    3.38    0.40
  -3  -3   4    3.23    0.32
  -3  -3   4    2.87    0.37
  -3  -3   4    3.28    0.44
   2   3  -4    0.30    0.15
   2   3  -4   -0.05    0.30
   2   3  -4   -0.06    0.18
  -2  -3   4    0.30    0.23
  -2  -3   4    0.31    0.17
  -2  -3   4    0.22    0.22
   1   3  -4    0.48    0.19
   1   3  -4    0.67    0.17
  -1  -3   4    0.65    0.19
  -1  -3   4    0.31    0.17
  -1  -3   4    0.30    0.21
   0   3  -4    3.41    0.33
   0  -3   4    3.23    0.36
   0  -3   4    3.61    0.29
   0  -3   4    3.10    0.29
  -1   3  -4   35.20    0.91
   1  -3   4   34.71    0.88
   1  -3   4   35.09    0.94
   1  -3   4   34.12    0.80
  -2   3  -4   11.38    0.53
   2  -3   4   11.50    0.45
   2  -3   4   11.84    0.54
   2  -3   4   11.02    0.48
  -3   3  -4   20.82    0.72
   3  -3   4   20.22    0.68
   3  -3   4   21.47    0.74
   3  -3   4   20.03    0.62
  -4   3  -4    5.95    0.48
   4  -3   4    4.30    0.45
   4  -3   4    5.56    0.40
  -5   3  -4    1.13    0.31
   5  -3   4    1.06    0.30
   5  -3   4    1.00    0.30
  -6   3  -4    0.61    0.37
   6  -3   4    0.42    0.32
   6  -3   4    0.75    0.35
  -7   3  -4    1.80    0.46
   7  -3   4    1.34    0.41
   7  -3   4    1.78    0.40
   6   2  -4    1.67    0.38
   6   2  -4    2.15    0.43
  -6  -2   4    2.01    0.44
   5   2  -4    0.00    0.34
   5   2  -4    1.13    0.30
  -5  -2   4    0.76    0.33
  -5  -2   4    0.44    0.36
   4   2  -4    1.25    0.28
   4   2  -4    0.83    0.39
   4   2  -4    1.75    0.20
  -4  -2   4    1.28    0.30
  -4  -2   4    1.51    0.17
  -4  -2   4    0.71    0.28
   3   2  -4    6.14    0.41
   3   2  -4    4.93    0.55
   3   2  -4    5.45    0.32
   3   2  -4    5.52    0.29
  -3  -2   4    5.73    0.41
  -3  -2   4    5.33    0.28
  -3  -2   4    4.75    0.43
   2   2  -4    0.03    0.19
   2   2  -4    0.12    0.19
   2   2  -4   -0.02    0.13
   2   2  -4    0.12    0.27
  -2  -2   4    0.02    0.17
  -2  -2   4    0.24    0.21
  -2  -2   4    0.09    0.13
   1   2  -4   10.42    0.37
   1   2  -4    9.27    0.50
   1   2  -4    9.54    0.46
  -1  -2   4    9.52    0.34
  -1  -2   4    9.73    0.42
  -1  -2   4    9.59    0.46
   0   2  -4   -0.13    0.13
   0   2  -4   -0.01    0.15
   0  -2   4    0.00    0.11
   0  -2   4    0.07    0.16
   0  -2   4    0.05    0.13
  -1   2  -4    0.42    0.15
   1  -2   4    0.27    0.14
   1  -2   4    0.45    0.18
   1  -2   4    0.31    0.15
  -2   2  -4    0.53    0.17
   2  -2   4    0.44    0.14
   2  -2   4    0.71    0.17
   2  -2   4    0.49    0.20
  -3   2  -4    0.84    0.19
   3  -2   4    0.67    0.18
   3  -2   4    0.38    0.20
   3  -2   4    0.82    0.20
  -4   2  -4    6.72    0.44
   4  -2   4    6.36    0.45
   4  -2   4    6.62    0.39
  -5   2  -4   -0.32    0.22
   5  -2   4    0.32    0.22
   5  -2   4   -0.11    0.22
  -6   2  -4    0.93    0.32
   6  -2   4    1.56    0.31
   6  -2   4    1.50    0.33
  -7   2  -4    0.05    0.35
   7  -2   4    0.16    0.30
   7  -2   4    0.54    0.33
   8  -2   4   -0.92    0.41
   8  -2   4    0.18    0.41
   6   1  -4    4.29    0.58
   6   1  -4    3.83    0.49
  -6  -1   4    4.81    0.60
   5   1  -4    0.07    0.32
   5   1  -4   -0.01    0.26
  -5  -1   4    0.41    0.30
  -5  -1   4   -0.24    0.33
   4   1  -4    3.46    0.41
   4   1  -4    3.60    0.33
  -4  -1   4    3.63    0.48
  -4  -1   4    3.43    0.43
  -4  -1   4    3.75    0.39
   3   1  -4    1.57    0.25
   3   1  -4    1.81    0.20
   3   1  -4    2.01    0.17
   3   1  -4    1.69    0.35
  -3  -1   4    1.69    0.24
  -3  -1   4    1.47    0.16
  -3  -1   4    1.53    0.27
  -3  -1   4    1.67    0.28
   2   1  -4    4.39    0.35
   2   1  -4    4.54    0.24
   2   1  -4    4.59    0.28
   2   1  -4    4.74    0.43
  -2  -1   4    3.32    0.32
  -2  -1   4    4.56    0.36
  -2  -1   4    5.00    0.22
  -2  -1   4    4.99    0.32
   1   1  -4    1.55    0.26
   1   1  -4    1.68    0.23
   1   1  -4    1.49    0.16
   1   1  -4    1.37    0.17
  -1  -1   4    1.49    0.21
  -1  -1   4    1.53    0.23
  -1  -1   4    1.69    0.18
   0   1  -4   29.47    0.64
   0   1  -4   29.50    0.69
   0   1  -4   29.22    0.80
   0   1  -4   30.24    0.77
   0  -1   4   29.75    0.62
   0  -1   4   29.15    0.74
   0  -1   4   29.65    0.77
  -1   1  -4    0.05    0.12
  -1   1  -4    0.05    0.12
   1  -1   4    0.01    0.11
   1  -1   4    0.04    0.11
   1  -1   4    0.02    0.13
  -2   1  -4   20.13    0.58
   2  -1   4   20.52    0.57
   2  -1   4   20.03    0.60
   2  -1   4   19.89    0.51
   2  -1   4   19.28    0.58
  -3   1  -4    0.97    0.19
   3  -1   4    0.96    0.17
   3  -1   4    0.75    0.20
   3  -1   4    0.91    0.15
   3  -1   4    1.05    0.22
  -4   1  -4    6.52    0.38
   4  -1   4    5.85    0.38
   4  -1   4    5.95    0.34
   4  -1   4    5.38    0.42
  -5   1  -4    3.24    0.38
   5  -1   4    2.58    0.33
   5  -1   4    3.64    0.37
   5  -1   4    3.54    0.37
  -6   1  -4   12.97    0.60
   6  -1   4   12.10    0.56
   6  -1   4   12.13    0.67
   6  -1   4   13.15    0.60
  -7   1  -4   -0.78    0.31
   7  -1   4   -0.10    0.30
   7  -1   4   -0.35    0.29
   8  -1   4   -0.44    0.33
   6   0  -4    1.16    0.37
   6   0  -4    0.81    0.38
  -6   0   4    0.80    0.37
   5   0  -4    0.20    0.29
   5   0  -4    0.66    0.31
  -5   0   4    0.62    0.39
  -5   0   4    0.06    0.28
   4   0  -4    0.48    0.24
   4   0  -4    0.09    0.22
  -4   0   4    0.26    0.28
  -4   0   4    0.03    0.25
   3   0  -4    0.48    0.19
   3   0  -4    0.35    0.21
  -3   0   4    0.81    0.22
  -3   0   4    0.66    0.25
   2   0  -4    9.99    0.46
   2   0  -4   10.24    0.26
   2   0  -4   10.28    0.39
  -2   0   4    9.70    0.45
  -2   0   4    9.90    0.47
   1   0  -4   12.25    0.52
   1   0  -4   12.49    0.40
   1   0  -4   12.27    0.32
   1   0  -4   11.04    0.44
  -1   0   4   11.13    0.46
  -1   0   4   12.57    0.31
  -1   0   4   12.19    0.43
  -1   0   4   12.94    0.45
   0   0  -4    8.14    0.28
   0   0  -4    8.52    0.40
   0   0  -4    8.69    0.33
   0   0  -4    8.84    0.36
   0   0   4    8.49    0.35
   0   0   4    8.77    0.38
   0   0   4    8.21    0.34
   0   0   4    8.76    0.28
  -1   0  -4   20.15    0.49
  -1   0  -4   20.84    0.55
  -1   0  -4   21.18    0.56
  -1   0  -4   20.43    0.57
   1   0   4   20.03    0.56
   1   0   4   20.12    0.53
   1   0   4   20.57    0.48
   1   0   4   19.96    0.57
  -2   0  -4    4.62    0.27
  -2   0  -4    4.86    0.26
  -2   0  -4    4.67    0.28
   2   0   4    4.71    0.25
   2   0   4    4.78    0.30
   2   0   4    4.70    0.23
   2   0   4    5.13    0.29
  -3   0  -4   16.60    0.49
   3   0   4   16.48    0.51
   3   0   4   16.46    0.48
   3   0   4   15.77    0.49
   3   0   4   16.45    0.47
  -4   0  -4   -0.14    0.15
   4   0   4    0.11    0.18
   4   0   4   -0.32    0.15
   4   0   4   -0.02    0.15
  -5   0  -4   89.12    1.78
   5   0   4   92.40    1.79
   5   0   4   89.99    1.80
   5   0   4   88.88    1.67
  -6   0  -4    6.97    0.45
   6   0   4    6.17    0.44
   6   0   4    6.11    0.42
   6   0   4    6.23    0.49
  -7   0  -4   33.65    0.94
   7   0   4   33.81    0.93
   8   0   4    0.88    0.31
   6  -1  -4    0.53    0.40
   6  -1  -4    1.49    0.40
  -6   1   4    0.32    0.51
  -6   1   4    0.84    0.41
   5  -1  -4    0.25    0.31
   5  -1  -4    0.07    0.30
  -5   1   4    1.03    0.41
  -5   1   4    0.42    0.34
   4  -1  -4    1.07    0.26
   4  -1  -4    1.12    0.28
  -4   1   4    0.41    0.28
  -4   1   4    0.43    0.30
   3  -1  -4    1.37    0.23
   3  -1  -4    1.20    0.24
  -3   1   4    1.14    0.27
  -3   1   4    1.12    0.25
   2  -1  -4    0.18    0.16
   2  -1  -4    0.13    0.17
  -2   1   4    0.33    0.19
  -2   1   4    0.28    0.18
   1  -1  -4    5.19    0.31
   1  -1  -4    5.12    0.21
   1  -1  -4    5.03    0.33
  -1   1   4    4.95    0.33
  -1   1   4    5.09    0.30
   0  -1  -4    0.93    0.16
   0  -1  -4    0.78    0.15
   0  -1  -4    1.01    0.13
   0   1   4    0.77    0.15
   0   1   4    0.88    0.14
  -1  -1  -4    2.90    0.23
  -1  -1  -4    3.12    0.22
  -1  -1  -4    3.26    0.25
  -1  -1  -4    3.11    0.20
   1   1   4    3.28    0.21
   1   1   4    3.15    0.27
   1   1   4    2.90    0.24
  -2  -1  -4   24.16    0.61
  -2  -1  -4   23.32    0.56
  -2  -1  -4   22.66    0.61
   2   1   4   23.71    0.60
   2   1   4   22.84    0.60
   2   1   4   23.53    0.55
   2   1   4   23.49    0.54
  -3  -1  -4    1.06    0.18
  -3  -1  -4    0.71    0.15
   3   1   4    0.70    0.16
   3   1   4    0.67    0.14
   3   1   4    0.42    0.14
   3   1   4    0.44    0.14
  -4  -1  -4   15.43    0.54
  -4  -1  -4   15.45    0.45
   4   1   4   15.54    0.47
   4   1   4   15.98    0.47
  -5  -1  -4    0.96    0.18
   5   1   4    1.21    0.21
   5   1   4    0.96    0.19
  -6  -1  -4    1.10    0.23
   6   1   4    1.21    0.20
   6   1   4    1.23    0.24
  -7  -1  -4    0.84    0.25
   7   1   4    0.56    0.22
   8   1   4    0.15    0.25
   9   1   4    1.40    0.31
   6  -2  -4    0.88    0.41
  -6   2   4    0.26    0.41
  -6   2   4   -0.65    0.52
   5  -2  -4    7.42    0.65
   5  -2  -4    4.60    0.50
  -5   2   4    5.49    0.56
  -5   2   4    5.95    0.57
   4  -2  -4    9.11    0.60
  -4   2   4    8.42    0.59
  -4   2   4    9.21    0.65
   3  -2  -4   11.90    0.58
   3  -2  -4   11.34    0.53
  -3   2   4   10.95    0.60
  -3   2   4   11.93    0.55
   2  -2  -4    9.96    0.26
   2  -2  -4    9.60    0.44
   2  -2  -4    9.97    0.50
   2  -2  -4   10.18    0.26
  -2   2   4   10.01    0.45
  -2   2   4    9.90    0.51
   1  -2  -4    4.70    0.21
   1  -2  -4    4.75    0.30
   1  -2  -4    4.77    0.34
   1  -2  -4    4.80    0.23
  -1   2   4    4.38    0.35
  -1   2   4    4.47    0.31
   0  -2  -4    5.85    0.34
   0  -2  -4    5.91    0.25
   0  -2  -4    6.14    0.32
   0  -2  -4    5.73    0.32
   0  -2  -4    5.68    0.25
   0   2   4    5.98    0.33
   0   2   4    5.54    0.28
  -1  -2  -4    1.53    0.20
  -1  -2  -4    1.55    0.17
  -1  -2  -4    1.68    0.19
  -1  -2  -4    1.48    0.18
   1   2   4    1.54    0.19
   1   2   4    1.66    0.17
   1   2   4    1.70    0.19
  -2  -2  -4   72.98    1.35
  -2  -2  -4   72.73    1.43
  -2  -2  -4   73.66    1.43
   2   2   4   71.64    1.43
   2   2   4   72.00    1.43
   2   2   4   73.30    1.34
  -3  -2  -4    2.18    0.21
  -3  -2  -4    2.17    0.20
  -3  -2  -4    2.38    0.23
   3   2   4    2.27    0.20
   3   2   4    2.31    0.23
  -4  -2  -4   15.71    0.52
  -4  -2  -4   16.10    0.45
  -4  -2  -4   16.73    0.48
   4   2   4   15.95    0.45
   4   2   4   16.10    0.45
  -5  -2  -4    0.59    0.17
  -5  -2  -4    0.66    0.21
   5   2   4    0.32    0.18
   5   2   4    0.43    0.14
  -6  -2  -4   -0.10    0.25
   6   2   4    0.20    0.16
   6   2   4    0.18    0.15
   6   2   4    0.12    0.22
  -7  -2  -4    0.76    0.32
   7   2   4    0.69    0.20
   7   2   4    0.07    0.16
   7   2   4    0.44    0.28
  -8  -2  -4    0.70    0.41
   8   2   4    0.42    0.31
   8   2   4   -0.09    0.19
  -9  -2  -4    1.01    0.50
   9   2   4    0.63    0.42
   5  -3  -4   14.07    0.81
  -5   3   4   14.28    0.82
  -5   3   4   11.99    0.91
   4  -3  -4    3.17    0.43
  -4   3   4    4.90    0.55
  -4   3   4    3.21    0.47
   3  -3  -4   29.32    0.87
   3  -3  -4   28.97    0.95
   3  -3  -4   28.67    0.55
  -3   3   4   29.89    0.97
  -3   3   4   30.60    0.94
   2  -3  -4    2.27    0.30
   2  -3  -4    2.14    0.28
   2  -3  -4    1.87    0.21
  -2   3   4    2.03    0.31
  -2   3   4    2.26    0.30
   1  -3  -4    8.90    0.47
   1  -3  -4    9.09    0.32
   1  -3  -4    9.50    0.43
  -1   3   4    9.20    0.41
  -1   3   4    8.74    0.47
   0  -3  -4    2.30    0.22
   0  -3  -4    2.04    0.26
   0  -3  -4    2.07    0.28
   0   3   4    2.27    0.29
   0   3   4    2.11    0.22
  -1  -3  -4    3.97    0.29
  -1  -3  -4    4.21    0.25
  -1  -3  -4    3.71    0.32
  -1  -3  -4    4.43    0.23
   1   3   4    4.50    0.22
   1   3   4    3.73    0.32
   1   3   4    3.34    0.28
  -2  -3  -4    2.06    0.21
  -2  -3  -4    2.01    0.25
  -2  -3  -4    2.00    0.23
  -2  -3  -4    1.76    0.15
   2   3   4    1.76    0.14
   2   3   4    1.97    0.22
   2   3   4    1.84    0.25
  -3  -3  -4    3.11    0.17
  -3  -3  -4    3.02    0.27
  -3  -3  -4    2.99    0.26
   3   3   4    3.24    0.24
   3   3   4    3.56    0.26
  -4  -3  -4    2.72    0.26
  -4  -3  -4    2.55    0.22
  -4  -3  -4    3.16    0.24
   4   3   4    2.42    0.29
   4   3   4    2.81    0.22
  -5  -3  -4    1.14    0.23
  -5  -3  -4    0.95    0.15
  -5  -3  -4    1.22    0.23
   5   3   4    1.22    0.14
   5   3   4    1.24    0.24
   5   3   4    1.17    0.13
  -6  -3  -4    1.01    0.27
   6   3   4    1.24    0.26
  -7  -3  -4    0.38    0.33
   7   3   4    0.59    0.28
  -8  -3  -4    0.06    0.38
   8   3   4    0.48    0.35
  -9  -3  -4    0.90    0.50
  -9  -3  -4    0.39    0.41
  -9  -3  -4    0.18    0.40
   9   3   4    0.52    0.42
   5  -4  -4    1.05    0.45
  -5   4   4    0.33    0.44
  -5   4   4   -0.04    0.52
   4  -4  -4    0.82    0.36
  -4   4   4    1.34    0.40
  -4   4   4    1.03    0.44
   3  -4  -4    0.63    0.34
   3  -4  -4    0.36    0.19
   3  -4  -4    0.44    0.32
  -3   4   4    0.61    0.34
  -3   4   4    0.39    0.30
   2  -4  -4    2.80    0.36
   2  -4  -4    2.39    0.28
   2  -4  -4    3.02    0.29
   2  -4  -4    2.73    0.36
  -2   4   4    2.50    0.32
  -2   4   4    2.82    0.37
   1  -4  -4    1.99    0.28
   1  -4  -4    1.93    0.20
   1  -4  -4    1.82    0.29
  -1   4   4    1.73    0.26
  -1   4   4    2.21    0.31
   0  -4  -4   24.12    0.60
   0  -4  -4   23.45    0.71
   0  -4  -4   23.85    0.75
   0   4   4   24.71    0.76
   0   4   4   24.89    0.63
  -1  -4  -4   21.00    0.55
  -1  -4  -4   21.13    0.64
  -1  -4  -4   20.53    0.65
   1   4   4   20.55    0.64
   1   4   4   20.87    0.50
   1   4   4   20.34    0.67
  -2  -4  -4   15.29    0.55
  -2  -4  -4   17.23    0.52
  -2  -4  -4   18.29    0.56
   2   4   4   17.60    0.55
   2   4   4   17.19    0.56
  -3  -4  -4    5.35    0.32
  -3  -4  -4    5.60    0.35
  -3  -4  -4    5.10    0.33
   3   4   4    5.32    0.31
   3   4   4    5.16    0.34
  -4  -4  -4   10.69    0.38
  -4  -4  -4   10.44    0.43
  -4  -4  -4   10.42    0.46
   4   4   4   10.45    0.49
   4   4   4   10.43    0.36
  -5  -4  -4    1.41    0.16
  -5  -4  -4    1.55    0.25
  -5  -4  -4    1.39    0.26
  -5  -4  -4    1.49    0.18
  -5  -4  -4    1.47    0.19
   5   4   4    1.36    0.14
   5   4   4    1.51    0.20
   5   4   4    1.43    0.26
  -6  -4  -4    5.46    0.44
  -6  -4  -4    4.99    0.36
  -6  -4  -4    4.86    0.46
   6   4   4    5.25    0.44
  -7  -4  -4    0.79    0.32
  -7  -4  -4    0.98    0.29
  -7  -4  -4    0.84    0.30
   7   4   4    1.00    0.32
  -8  -4  -4    1.65    0.40
  -8  -4  -4    2.73    0.42
  -8  -4  -4    2.22    0.38
   8   4   4    1.88    0.43
   4  -5  -4   -0.55    0.36
  -4   5   4   -0.39    0.43
  -4   5   4   -0.07    0.39
   3  -5  -4    1.05    0.25
   3  -5  -4    1.19    0.39
  -3   5   4    1.09    0.40
  -3   5   4    1.32    0.37
   2  -5  -4    0.17    0.30
   2  -5  -4   -0.11    0.29
   2  -5  -4    0.35    0.22
  -2   5   4   -0.16    0.30
  -2   5   4    0.04    0.25
   1  -5  -4    4.47    0.47
   1  -5  -4    4.13    0.43
   1  -5  -4    4.42    0.36
  -1   5   4    6.03    0.50
  -1   5   4    3.81    0.39
   0  -5  -4    1.93    0.30
   0  -5  -4    1.77    0.28
   0  -5  -4    1.84    0.24
   0   5   4    2.12    0.31
   0   5   4    2.25    0.29
  -1  -5  -4   -0.07    0.20
  -1  -5  -4   -0.08    0.19
  -1  -5  -4   -0.07    0.20
   1   5   4   -0.07    0.19
   1   5   4    0.02    0.14
  -2  -5  -4    4.39    0.37
  -2  -5  -4    5.34    0.39
  -2  -5  -4    4.85    0.34
   2   5   4    4.77    0.43
   2   5   4    4.49    0.35
   2   5   4    4.04    0.35
  -3  -5  -4    0.10    0.21
  -3  -5  -4    0.17    0.19
  -3  -5  -4   -0.05    0.18
   3   5   4   -0.13    0.19
   3   5   4   -0.30    0.16
   3   5   4    0.18    0.20
  -4  -5  -4   -0.05    0.19
  -4  -5  -4    0.01    0.21
  -4  -5  -4   -0.04    0.16
   4   5   4   -0.01    0.16
   4   5   4    0.13    0.21
   4   5   4   -0.09    0.14
  -5  -5  -4   -0.15    0.22
  -5  -5  -4    0.25    0.25
  -5  -5  -4    0.34    0.17
   5   5   4    0.26    0.23
   5   5   4    0.05    0.13
   5   5   4    0.22    0.14
  -6  -5  -4    0.25    0.19
  -6  -5  -4    0.40    0.28
  -6  -5  -4    0.63    0.29
   6   5   4    0.60    0.27
  -7  -5  -4    1.71    0.34
  -7  -5  -4    2.15    0.31
  -7  -5  -4    1.90    0.38
   7   5   4    2.26    0.39
  -8  -5  -4    0.64    0.33
  -8  -5  -4   -0.03    0.36
  -8  -5  -4   -0.08    0.39
   8   5   4    0.04    0.41
   4  -6  -4   -0.54    0.45
   3  -6  -4    3.35    0.52
   3  -6  -4    3.14    0.36
  -3   6   4    3.29    0.48
  -3   6   4    3.52    0.55
   2  -6  -4    0.04    0.35
   2  -6  -4    0.06    0.33
   2  -6  -4   -0.24    0.25
  -2   6   4   -0.25    0.35
  -2   6   4   -0.30    0.32
   1  -6  -4    9.73    0.49
   1  -6  -4    9.04    0.65
   1  -6  -4    9.28    0.59
  -1   6   4    9.32    0.51
  -1   6   4    9.30    0.66
   0  -6  -4    2.65    0.35
   0  -6  -4    2.43    0.36
   0  -6  -4    2.26    0.29
   0   6   4    2.58    0.36
   0   6   4    2.58    0.29
  -1  -6  -4    2.99    0.37
  -1  -6  -4    2.79    0.30
  -1  -6  -4    1.83    0.33
   1   6   4    2.73    0.28
   1   6   4    2.64    0.26
   1   6   4    2.37    0.32
  -2  -6  -4    8.53    0.46
  -2  -6  -4    7.56    0.52
  -2  -6  -4    9.13    0.48
   2   6   4    8.75    0.49
   2   6   4    7.87    0.59
   2   6   4    8.67    0.46
  -3  -6  -4    0.61    0.24
  -3  -6  -4    0.38    0.24
  -3  -6  -4    0.17    0.24
   3   6   4    0.41    0.20
   3   6   4    0.10    0.27
   3   6   4    0.83    0.25
  -4  -6  -4    3.14    0.38
  -4  -6  -4    3.24    0.39
  -4  -6  -4    2.95    0.33
   4   6   4    3.33    0.40
   4   6   4    3.46    0.33
   4   6   4    2.94    0.30
  -5  -6  -4   -0.05    0.27
  -5  -6  -4   -0.11    0.25
  -5  -6  -4    0.04    0.21
   5   6   4    0.33    0.19
   5   6   4    0.16    0.16
   5   6   4    0.03    0.25
  -6  -6  -4   -0.06    0.30
  -6  -6  -4   -0.22    0.30
   6   6   4    0.16    0.28
  -7  -6  -4    0.60    0.38
  -7  -6  -4   -0.22    0.30
   7   6   4    0.45    0.35
  -8  -6  -4   -0.08    0.38
  -8  -6  -4   -0.99    0.36
   8   6   4   -0.10    0.38
   3  -7  -4    0.50    0.37
   3  -7  -4   -0.67    0.48
  -3   7   4    0.10    0.44
  -3   7   4   -0.52    0.50
   2  -7  -4    3.29    0.40
   2  -7  -4    3.37    0.53
  -2   7   4    3.13    0.54
  -2   7   4    3.74    0.47
   1  -7  -4    0.62    0.38
   1  -7  -4   -0.34    0.29
   1  -7  -4    0.69    0.36
  -1   7   4    0.51    0.31
  -1   7   4    0.64    0.37
   0  -7  -4    0.01    0.34
   0  -7  -4   -0.02    0.29
   0  -7  -4    0.10    0.32
   0   7   4    0.05    0.26
   0   7   4    0.23    0.31
  -1  -7  -4    1.15    0.34
  -1  -7  -4    1.48    0.31
  -1  -7  -4    0.99    0.35
   1   7   4    1.40    0.24
   1   7   4    0.93    0.32
  -2  -7  -4   14.09    0.69
  -2  -7  -4   13.30    0.61
  -2  -7  -4   14.51    0.65
   2   7   4   13.25    0.64
   2   7   4   12.87    0.60
  -3  -7  -4    0.00    0.28
  -3  -7  -4    0.01    0.29
  -3  -7  -4    0.12    0.28
   3   7   4    0.08    0.24
   3   7   4    0.25    0.27
   3   7   4    0.01    0.35
  -4  -7  -4   47.25    1.18
  -4  -7  -4   45.93    1.14
  -4  -7  -4   47.59    1.20
   4   7   4   46.54    1.31
   4   7   4   46.44    1.11
  -5  -7  -4   -0.08    0.30
  -5  -7  -4    0.34    0.33
   5   7   4    0.38    0.29
   5   7   4    0.69    0.21
  -6  -7  -4   17.49    0.70
  -6  -7  -4   18.21    0.81
   6   7   4   18.42    0.86
  -7  -7  -4   -0.08    0.43
  -7  -7  -4    0.06    0.34
   7   7   4    0.01    0.39
   1  -8  -4    0.21    0.44
   1  -8  -4   -0.29    0.36
  -1   8   4   -0.14    0.41
  -1   8   4   -0.09    0.35
   0  -8  -4    0.08    0.38
   0  -8  -4   -0.11    0.33
   0  -8  -4    0.39    0.39
   0   8   4    0.22    0.30
   0   8   4   -0.50    0.36
  -1  -8  -4    2.07    0.43
  -1  -8  -4    2.04    0.44
  -1  -8  -4    2.04    0.41
   1   8   4    1.71    0.31
   1   8   4    1.79    0.39
  -2  -8  -4    1.66    0.36
  -2  -8  -4    1.56    0.41
  -2  -8  -4    0.71    0.38
   2   8   4    1.09    0.34
   2   8   4    0.95    0.33
  -3  -8  -4   15.59    0.75
  -3  -8  -4   13.86    0.80
  -3  -8  -4   14.82    0.72
   3   8   4   15.67    0.73
   3   8   4   14.98    0.70
  -4  -8  -4    0.86    0.39
  -4  -8  -4    1.24    0.36
   4   8   4    1.37    0.31
   4   8   4    1.07    0.35
  -5  -8  -4    7.19    0.65
  -5  -8  -4    6.71    0.64
   5   8   4    6.74    0.60
   5   8   4    6.98    0.51
  -6  -8  -4    5.69    0.61
  -6  -8  -4    5.33    0.58
   6   8   4    5.24    0.72
   6   8   4    5.93    0.42
  -7  -8  -4    0.02    0.46
   7   8   4   -0.28    0.42
   0  -9  -4    0.43    0.40
   0  -9  -4    1.24    0.54
   0   9   4   -0.22    0.45
  -1  -9  -4    1.36    0.48
  -1  -9  -4    0.05    0.47
  -1  -9  -4    1.03    0.43
   1   9   4    0.19    0.40
  -2  -9  -4    0.10    0.43
  -2  -9  -4    0.13    0.46
  -2  -9  -4   -1.05    0.37
   2   9   4    0.18    0.34
   2   9   4   -0.03    0.36
  -3  -9  -4    0.45    0.42
  -3  -9  -4   -0.15    0.43
   3   9   4    0.74    0.35
   3   9   4   -0.23    0.31
  -4  -9  -4   -0.17    0.42
  -4  -9  -4    0.05    0.43
   4   9   4    0.12    0.33
   4   9   4    0.63    0.39
  -5  -9  -4   -0.14    0.46
  -5  -9  -4    0.42    0.44
   5   9   4    0.21    0.33
   5   9   4    0.42    0.40
   2   7  -5    0.59    0.46
   2   7  -5   -0.34    0.43
  -2  -7   5   -0.74    0.36
  -2  -7   5    0.53    0.48
  -2  -7   5   -0.60    0.42
   1   7  -5   -0.08    0.42
   1   7  -5   -0.85    0.44
  -1  -7   5   -0.05    0.44
  -1  -7   5    0.31    0.36
  -1  -7   5   -0.55    0.38
   0   7  -5    0.13    0.40
   0  -7   5   -0.83    0.31
   0  -7   5    0.69    0.43
   0  -7   5    0.74    0.43
  -1   7  -5    0.98    0.46
   1  -7   5    0.89    0.40
   1  -7   5    1.43    0.51
   1  -7   5    0.95    0.41
  -2   7  -5   -0.51    0.44
   2  -7   5    0.54    0.41
   2  -7   5   -0.08    0.41
   2  -7   5    0.43    0.47
  -3   7  -5    0.90    0.56
   3  -7   5    2.47    0.48
   3  -7   5    1.21    0.55
   3   6  -5    0.25    0.41
   3   6  -5    0.04    0.38
  -3  -6   5    0.70    0.36
  -3  -6   5   -0.34    0.43
  -3  -6   5   -0.86    0.40
   2   6  -5    0.85    0.32
   2   6  -5    0.61    0.36
  -2  -6   5    0.14    0.40
  -2  -6   5    0.82    0.34
  -2  -6   5   -0.48    0.38
   1   6  -5    1.77    0.39
  -1  -6   5    0.96    0.43
  -1  -6   5    0.76    0.36
  -1  -6   5    0.94    0.38
   0   6  -5    0.44    0.38
   0  -6   5    1.26    0.38
   0  -6   5    0.90    0.40
   0  -6   5    0.81    0.32
  -1   6  -5   -0.02    0.36
   1  -6   5   -0.77    0.39
   1  -6   5   -0.15    0.33
   1  -6   5    0.15    0.32
  -2   6  -5   -0.27    0.37
   2  -6   5   -0.30    0.30
   2  -6   5    0.46    0.35
   2  -6   5    0.78    0.40
  -3   6  -5    0.29    0.44
   3  -6   5    1.11    0.37
   3  -6   5    0.69    0.42
  -4   6  -5    1.14    0.47
   4  -6   5    0.85    0.41
   4  -6   5    0.81    0.48
   4   5  -5    0.85    0.40
   4   5  -5    0.12    0.37
  -4  -5   5    0.06    0.38
  -4  -5   5    0.66    0.35
   3   5  -5    1.98    0.39
  -3  -5   5    2.75    0.46
  -3  -5   5    2.32    0.42
  -3  -5   5    2.62    0.38
   2   5  -5    9.46    0.49
   2   5  -5    9.71    0.66
  -2  -5   5   10.65    0.63
  -2  -5   5   10.89    0.58
  -2  -5   5   10.37    0.73
   1   5  -5    3.62    0.43
  -1  -5   5    4.48    0.49
  -1  -5   5    4.07    0.45
  -1  -5   5    3.74    0.47
   0   5  -5   13.79    0.71
   0  -5   5   13.46    0.75
   0  -5   5   13.19    0.65
   0  -5   5   14.20    0.63
  -1   5  -5   -0.23    0.29
   1  -5   5    0.28    0.30
   1  -5   5    0.21    0.26
   1  -5   5    0.40    0.33
  -2   5  -5    2.91    0.43
   2  -5   5    3.74    0.47
   2  -5   5    3.49    0.46
   2  -5   5    4.28    0.45
  -3   5  -5    0.45    0.36
   3  -5   5    0.92    0.34
   3  -5   5    0.86    0.39
   3  -5   5    0.98    0.31
  -4   5  -5    0.78    0.40
   4  -5   5    1.23    0.35
   4  -5   5    0.69    0.38
  -5   5  -5    2.47    0.49
   5  -5   5    1.14    0.45
   5  -5   5    1.03    0.41
   5   4  -5    0.40    0.35
   5   4  -5   -0.32    0.40
  -5  -4   5   -0.81    0.37
   4   4  -5   -0.13    0.38
   4   4  -5    1.07    0.35
  -4  -4   5    0.64    0.31
  -4  -4   5    0.77    0.34
  -4  -4   5    0.70    0.38
   3   4  -5    5.03    0.56
   3   4  -5    5.02    0.32
  -3  -4   5    4.73    0.46
  -3  -4   5    4.49    0.52
  -3  -4   5    4.70    0.63
   2   4  -5    5.97    0.38
   2   4  -5    5.96    0.55
  -2  -4   5    5.96    0.59
  -2  -4   5    5.74    0.47
  -2  -4   5    5.32    0.44
   1   4  -5   20.41    0.75
   1   4  -5   20.56    0.64
  -1  -4   5   19.70    0.80
  -1  -4   5   20.75    0.66
  -1  -4   5   20.32    0.74
   0   4  -5    9.37    0.55
   0  -4   5    8.75    0.59
   0  -4   5    7.54    0.48
   0  -4   5    8.55    0.47
  -1   4  -5    7.26    0.54
   1  -4   5    7.74    0.56
   1  -4   5    7.33    0.44
   1  -4   5    7.58    0.48
  -2   4  -5    0.51    0.27
   2  -4   5    0.73    0.25
   2  -4   5    0.52    0.29
   2  -4   5    0.50    0.25
  -3   4  -5    3.39    0.43
   3  -4   5    4.45    0.45
   3  -4   5    3.41    0.37
   3  -4   5    3.90    0.53
  -4   4  -5   -0.22    0.32
   4  -4   5    0.22    0.31
   4  -4   5   -0.12    0.28
  -5   4  -5    8.66    0.74
   5  -4   5    9.50    0.61
   5  -4   5    9.88    0.74
  -6   4  -5    1.09    0.45
   6  -4   5    0.37    0.35
   6  -4   5    0.27    0.42
   5   3  -5    0.31    0.35
   5   3  -5    0.76    0.44
  -5  -3   5    0.16    0.35
   4   3  -5    0.73    0.33
  -4  -3   5    0.02    0.31
  -4  -3   5   -0.71    0.35
  -4  -3   5    0.11    0.22
   3   3  -5    2.01    0.22
   3   3  -5    1.95    0.33
  -3  -3   5    1.90    0.37
  -3  -3   5    1.68    0.34
  -3  -3   5    1.62    0.26
   2   3  -5    1.12    0.22
   2   3  -5    0.91    0.28
  -2  -3   5    1.39    0.30
  -2  -3   5    1.05    0.24
  -2  -3   5    1.10    0.31
   1   3  -5    1.92    0.26
  -1  -3   5    2.03    0.29
  -1  -3   5    2.31    0.25
  -1  -3   5    2.46    0.33
   0   3  -5    5.64    0.41
   0   3  -5    6.38    0.45
   0  -3   5    6.23    0.40
   0  -3   5    5.91    0.47
   0  -3   5    5.86    0.38
  -1   3  -5   -0.06    0.22
   1  -3   5    0.09    0.21
   1  -3   5    0.23    0.20
   1  -3   5   -0.12    0.23
  -2   3  -5    1.12    0.26
   2  -3   5    0.52    0.22
   2  -3   5    0.47    0.22
   2  -3   5    0.87    0.25
  -3   3  -5    0.45    0.26
   3  -3   5    0.71    0.23
   3  -3   5    0.53    0.28
   3  -3   5    0.13    0.22
  -4   3  -5    1.50    0.33
   4  -3   5    1.95    0.30
   4  -3   5    1.87    0.35
  -5   3  -5    1.06    0.34
   5  -3   5    0.68    0.28
   5  -3   5    1.37    0.34
  -6   3  -5    0.64    0.38
   6  -3   5    0.25    0.34
   6  -3   5   -0.12    0.33
  -7   3  -5    0.17    0.45
   7  -3   5    0.63    0.35
   7  -3   5    0.47    0.40
   5   2  -5    0.74    0.35
   5   2  -5    0.84    0.45
  -5  -2   5   -0.26    0.34
   4   2  -5    0.00    0.28
   4   2  -5    0.20    0.22
  -4  -2   5    0.10    0.33
  -4  -2   5    0.03    0.27
  -4  -2   5   -0.08    0.16
   3   2  -5    0.37    0.25
   3   2  -5    0.13    0.23
   3   2  -5    0.11    0.20
  -3  -2   5    0.27    0.28
  -3  -2   5    0.06    0.25
  -3  -2   5    0.20    0.18
   2   2  -5    1.50    0.29
   2   2  -5    1.68    0.22
  -2  -2   5    1.47    0.31
  -2  -2   5    1.65    0.31
  -2  -2   5    1.70    0.21
   1   2  -5    0.27    0.22
   1   2  -5    0.20    0.17
  -1  -2   5    0.40    0.21
  -1  -2   5    0.40    0.24
  -1  -2   5    0.27    0.17
   0   2  -5    7.87    0.45
   0   2  -5    7.91    0.39
   0  -2   5    8.24    0.35
   0  -2   5    8.05    0.41
   0  -2   5    8.16    0.48
  -1   2  -5    2.78    0.31
  -1   2  -5    2.78    0.31
   1  -2   5    2.23    0.28
   1  -2   5    2.86    0.36
   1  -2   5    2.76    0.28
  -2   2  -5    4.60    0.40
   2  -2   5    4.84    0.34
   2  -2   5    4.28    0.32
   2  -2   5    4.56    0.41
  -3   2  -5    1.36    0.25
   3  -2   5    1.46    0.26
   3  -2   5    1.31    0.25
   3  -2   5    1.44    0.24
  -4   2  -5    0.18    0.25
   4  -2   5   -0.11    0.20
   4  -2   5    0.12    0.23
  -5   2  -5    4.82    0.53
   5  -2   5    5.45    0.44
   5  -2   5    5.49    0.49
   6  -2   5    1.37    0.32
   6  -2   5    0.51    0.30
  -7   2  -5   -0.30    0.42
   7  -2   5    0.01    0.34
   7  -2   5    0.11    0.33
   8  -2   5    0.53    0.42
   5   1  -5    3.92    0.54
   5   1  -5    3.82    0.46
  -5  -1   5    3.87    0.48
  -5  -1   5    3.72    0.49
   4   1  -5    1.04    0.31
   4   1  -5    1.44    0.27
  -4  -1   5    1.20    0.36
  -4  -1   5    1.33    0.32
   3   1  -5    3.78    0.25
   3   1  -5    3.48    0.35
   3   1  -5    3.56    0.45
  -3  -1   5    2.80    0.37
  -3  -1   5    3.87    0.22
  -3  -1   5    3.65    0.41
   2   1  -5    0.73    0.24
   2   1  -5    0.80    0.19
   2   1  -5    1.01    0.21
  -2  -1   5    1.15    0.27
  -2  -1   5    0.76    0.16
  -2  -1   5    0.76    0.23
   1   1  -5   11.79    0.43
   1   1  -5   11.67    0.54
  -1  -1   5   11.99    0.38
  -1  -1   5   11.67    0.54
  -1  -1   5   11.72    0.49
   0   1  -5   14.85    0.57
   0   1  -5   14.96    0.49
   0  -1   5   15.39    0.43
   0  -1   5   14.69    0.52
   0  -1   5   13.35    0.56
  -1   1  -5   37.06    0.87
  -1   1  -5   33.02    0.91
   1  -1   5   37.44    0.90
   1  -1   5   37.61    0.79
   1  -1   5   37.56    0.96
  -2   1  -5   22.63    0.70
  -2   1  -5   24.83    0.71
   2  -1   5   25.19    0.74
   2  -1   5   24.17    0.67
   2  -1   5   24.43    0.63
  -3   1  -5   55.00    1.24
   3  -1   5   55.96    1.28
   3  -1   5   54.95    1.14
   3  -1   5   56.15    1.24
  -4   1  -5    6.35    0.41
   4  -1   5    5.90    0.42
   4  -1   5    5.79    0.38
  -5   1  -5   20.57    0.71
   5  -1   5   19.59    0.65
   5  -1   5   20.70    0.73
  -6   1  -5    0.13    0.28
   6  -1   5    0.12    0.27
   6  -1   5   -0.09    0.25
  -7   1  -5    0.15    0.37
   7  -1   5    0.46    0.30
   7  -1   5   -0.42    0.33
   8  -1   5    0.91    0.35
   8  -1   5    0.16    0.38
   5   0  -5   -0.12    0.34
   5   0  -5    0.40    0.41
  -5   0   5    0.43    0.40
  -5   0   5    0.49    0.36
   4   0  -5   -0.33    0.28
   4   0  -5   -0.25    0.27
  -4   0   5    0.54    0.35
  -4   0   5    0.30    0.29
   3   0  -5    0.95    0.27
   3   0  -5    0.60    0.24
  -3   0   5    0.81    0.28
  -3   0   5    0.80    0.30
   2   0  -5    0.24    0.22
   2   0  -5    0.22    0.14
   2   0  -5   -0.17    0.17
  -2   0   5   -0.10    0.20
  -2   0   5    0.26    0.24
   1   0  -5    6.35    0.36
   1   0  -5    7.07    0.42
   1   0  -5    6.64    0.31
  -1   0   5    6.61    0.27
  -1   0   5    6.67    0.38
  -1   0   5    5.12    0.41
   0   0  -5   16.99    0.60
   0   0  -5   17.32    0.54
   0   0   5   17.16    0.45
   0   0   5   16.88    0.59
   0   0   5   17.14    0.55
  -1   0  -5    6.75    0.38
  -1   0  -5    5.95    0.34
   1   0   5    6.49    0.28
   1   0   5    6.24    0.31
   1   0   5    5.38    0.36
  -2   0  -5   53.64    1.17
  -2   0  -5   54.96    1.22
   2   0   5   54.70    1.16
   2   0   5   53.42    1.06
   2   0   5   52.87    1.21
  -3   0  -5   20.17    0.61
  -3   0  -5   20.02    0.65
   3   0   5   20.78    0.58
   3   0   5   20.84    0.65
   3   0   5   21.19    0.61
   3   0   5   21.28    0.65
  -4   0  -5    3.77    0.33
   4   0   5    3.98    0.39
   4   0   5    3.83    0.33
   4   0   5    4.00    0.35
  -5   0  -5   46.11    1.07
   5   0   5   45.14    1.03
   5   0   5   42.20    1.08
   5   0   5   45.43    1.09
  -6   0  -5    6.66    0.48
   6   0   5    7.99    0.46
   6   0   5    6.50    0.54
   6   0   5    6.85    0.47
  -7   0  -5    7.66    0.57
   7   0   5    7.57    0.53
   8   0   5    2.06    0.37
   5  -1  -5    0.47    0.40
   5  -1  -5    0.30    0.36
  -5   1   5    0.52    0.37
  -5   1   5    0.47    0.43
   4  -1  -5   -0.23    0.30
   4  -1  -5    0.48    0.29
  -4   1   5   -0.01    0.29
  -4   1   5    0.47    0.33
   3  -1  -5    1.56    0.31
   3  -1  -5    1.74    0.27
  -3   1   5    2.10    0.31
  -3   1   5    2.13    0.34
   2  -1  -5    0.03    0.21
   2  -1  -5    0.19    0.21
   2  -1  -5   -0.04    0.11
   2  -1  -5   -0.10    0.11
  -2   1   5   -0.07    0.21
  -2   1   5   -0.28    0.22
   1  -1  -5    7.13    0.45
   1  -1  -5    7.85    0.29
   1  -1  -5    7.40    0.38
  -1   1   5    7.99    0.48
  -1   1   5    7.03    0.38
   0  -1  -5    0.28    0.16
   0  -1  -5    0.76    0.22
   0  -1  -5    0.48    0.17
   0   1   5    0.51    0.21
   0   1   5    0.63    0.17
  -1  -1  -5   43.74    1.03
  -1  -1  -5   45.44    1.01
   1   1   5   42.95    1.05
   1   1   5   46.20    0.99
  -2  -1  -5    0.22    0.16
  -2  -1  -5    0.34    0.16
   2   1   5    0.28    0.15
   2   1   5    0.36    0.17
   2   1   5    0.00    0.18
   2   1   5    0.13    0.13
  -3  -1  -5    3.28    0.31
  -3  -1  -5    3.17    0.31
   3   1   5    2.86    0.33
   3   1   5    3.18    0.25
   3   1   5    2.85    0.26
   3   1   5    2.97    0.29
  -4  -1  -5    0.16    0.19
  -4  -1  -5    0.30    0.17
   4   1   5    0.28    0.20
   4   1   5    0.34    0.17
   4   1   5    0.50    0.19
  -5  -1  -5   26.18    0.71
  -5  -1  -5   27.57    0.82
   5   1   5   26.83    0.73
   5   1   5   26.33    0.73
  -6  -1  -5    3.03    0.40
  -6  -1  -5    2.41    0.28
   6   1   5    3.41    0.41
   6   1   5    2.62    0.35
  -7  -1  -5   31.86    0.86
   7   1   5   31.59    0.86
   8   1   5    0.66    0.29
   5  -2  -5    2.32    0.45
   5  -2  -5    2.55    0.42
  -5   2   5    2.17    0.48
  -5   2   5    1.80    0.47
   4  -2  -5    1.97    0.38
   4  -2  -5    2.04    0.39
  -4   2   5    2.19    0.40
  -4   2   5    1.89    0.45
   3  -2  -5   11.51    0.58
   3  -2  -5   10.94    0.65
  -3   2   5   12.09    0.60
  -3   2   5   12.89    0.69
   2  -2  -5    0.29    0.23
   2  -2  -5    0.23    0.12
   2  -2  -5    0.09    0.23
   2  -2  -5    0.12    0.13
  -2   2   5    0.48    0.26
  -2   2   5   -0.01    0.21
   1  -2  -5   27.84    0.59
   1  -2  -5   28.00    0.84
   1  -2  -5   28.91    0.78
   1  -2  -5   27.15    0.59
  -1   2   5   28.10    0.85
  -1   2   5   28.82    0.78
   0  -2  -5    3.78    0.32
   0  -2  -5    4.13    0.37
   0  -2  -5    3.54    0.26
   0   2   5    3.91    0.35
   0   2   5    4.20    0.30
  -1  -2  -5   15.20    0.53
  -1  -2  -5   15.40    0.51
  -1  -2  -5   13.41    0.50
   1   2   5   15.17    0.55
   1   2   5   15.49    0.46
  -2  -2  -5    2.32    0.27
  -2  -2  -5    3.06    0.28
  -2  -2  -5    2.20    0.28
   2   2   5    2.66    0.28
   2   2   5    2.26    0.21
   2   2   5    2.49    0.29
  -3  -2  -5    0.18    0.16
  -3  -2  -5    0.19    0.18
  -3  -2  -5    0.20    0.15
   3   2   5    0.02    0.17
   3   2   5    0.37    0.14
   3   2   5    0.28    0.14
  -4  -2  -5    0.24    0.19
  -4  -2  -5   -0.08    0.20
  -4  -2  -5    0.10    0.16
   4   2   5    0.18    0.15
   4   2   5    0.04    0.18
  -5  -2  -5    0.60    0.20
  -5  -2  -5    0.15    0.23
   5   2   5    0.37    0.17
   5   2   5    0.04    0.19
  -6  -2  -5    0.21    0.27
  -6  -2  -5    0.24    0.22
   6   2   5    0.08    0.21
   6   2   5    0.11    0.18
  -7  -2  -5   -0.15    0.33
   7   2   5    0.48    0.21
  -8  -2  -5   -0.74    0.42
   8   2   5    0.56    0.24
  -9  -2  -5   -1.02    0.52
   9   2   5    0.20    0.27
   5  -3  -5    1.73    0.48
  -5   3   5    1.49    0.55
  -5   3   5    1.81    0.49
   4  -3  -5   23.53    0.91
   4  -3  -5   22.42    0.98
  -4   3   5   22.65    0.91
  -4   3   5   22.94    1.00
   3  -3  -5    0.97    0.34
   3  -3  -5    1.40    0.35
  -3   3   5    0.99    0.37
  -3   3   5    0.86    0.34
   2  -3  -5   35.31    1.05
   2  -3  -5   34.79    0.69
   2  -3  -5   35.48    0.97
   2  -3  -5   34.80    0.68
  -2   3   5   35.40    0.99
  -2   3   5   35.12    1.07
   1  -3  -5    4.88    0.29
   1  -3  -5    4.66    0.39
   1  -3  -5    4.72    0.33
   1  -3  -5    5.19    0.44
  -1   3   5    4.75    0.45
  -1   3   5    4.54    0.37
   0  -3  -5    1.89    0.20
   0  -3  -5    1.36    0.27
   0  -3  -5    1.69    0.27
   0   3   5    1.87    0.27
   0   3   5    1.88    0.23
  -1  -3  -5   11.92    0.41
  -1  -3  -5   11.72    0.44
  -1  -3  -5   11.71    0.50
  -1  -3  -5   11.45    0.48
   1   3   5   12.29    0.51
   1   3   5   12.06    0.40
  -2  -3  -5   53.99    1.07
  -2  -3  -5   54.02    1.21
  -2  -3  -5   55.17    1.22
   2   3   5   54.10    1.21
   2   3   5   53.02    1.20
   2   3   5   55.70    1.06
  -3  -3  -5    1.75    0.23
  -3  -3  -5    1.34    0.17
  -3  -3  -5    1.42    0.24
   3   3   5    1.68    0.25
   3   3   5    2.09    0.27
   3   3   5    1.53    0.19
  -4  -3  -5   23.86    0.71
  -4  -3  -5   23.08    0.56
  -4  -3  -5   23.50    0.64
   4   3   5   23.44    0.62
   4   3   5   23.29    0.62
  -5  -3  -5    3.74    0.33
  -5  -3  -5    3.91    0.38
  -5  -3  -5    3.92    0.33
   5   3   5    5.13    0.32
   5   3   5    4.34    0.29
  -6  -3  -5    3.11    0.37
  -6  -3  -5    2.19    0.23
   6   3   5    2.22    0.23
   6   3   5    2.42    0.35
   6   3   5    2.59    0.27
  -7  -3  -5   -0.01    0.31
   7   3   5   -0.08    0.18
   7   3   5   -0.17    0.27
   7   3   5    0.13    0.15
  -8  -3  -5    1.59    0.46
   8   3   5    0.97    0.38
  -9  -3  -5    0.71    0.49
   9   3   5    0.03    0.40
   4  -4  -5   -0.44    0.39
  -4   4   5    0.56    0.46
  -4   4   5   -0.45    0.37
   3  -4  -5    1.41    0.39
   3  -4  -5    0.87    0.37
  -3   4   5    0.97    0.39
  -3   4   5    1.53    0.38
   2  -4  -5    1.28    0.22
   2  -4  -5    1.56    0.33
   2  -4  -5    1.33    0.34
  -2   4   5    1.49    0.35
  -2   4   5    1.91    0.32
   1  -4  -5    1.58    0.30
   1  -4  -5    1.70    0.21
   1  -4  -5    1.73    0.32
  -1   4   5    1.86    0.32
  -1   4   5    1.77    0.27
   0  -4  -5    1.83    0.29
   0  -4  -5    1.62    0.28
   0  -4  -5    1.80    0.21
   0   4   5    2.16    0.29
   0   4   5    1.94    0.29
  -1  -4  -5   22.17    0.62
  -1  -4  -5   21.53    0.73
  -1  -4  -5   21.65    0.70
   1   4   5   22.14    0.72
   1   4   5   22.33    0.57
  -2  -4  -5   17.43    0.57
  -2  -4  -5   17.64    0.62
  -2  -4  -5   17.42    0.62
   2   4   5   16.95    0.62
   2   4   5   18.24    0.60
   2   4   5   17.97    0.43
  -3  -4  -5   10.29    0.48
  -3  -4  -5   10.03    0.46
  -3  -4  -5   11.63    0.49
   3   4   5   10.04    0.47
   3   4   5   10.80    0.44
  -4  -4  -5    4.82    0.37
  -4  -4  -5    4.13    0.37
  -4  -4  -5    4.51    0.37
   4   4   5    4.99    0.32
  -5  -4  -5    0.11    0.19
  -5  -4  -5    0.12    0.18
  -5  -4  -5    0.11    0.23
  -5  -4  -5    0.26    0.22
   5   4   5    0.10    0.22
   5   4   5    0.22    0.16
  -6  -4  -5    1.29    0.30
  -6  -4  -5    0.97    0.21
  -6  -4  -5    0.73    0.28
  -6  -4  -5    1.03    0.30
   6   4   5    1.16    0.18
   6   4   5    0.82    0.30
   6   4   5    1.09    0.16
  -7  -4  -5   -0.87    0.28
  -7  -4  -5   -0.28    0.34
   7   4   5   -0.37    0.28
  -8  -4  -5    0.76    0.37
  -8  -4  -5    0.35    0.32
  -8  -4  -5    0.87    0.39
   8   4   5    0.31    0.38
   4  -5  -5    0.65    0.47
  -4   5   5    0.23    0.45
  -4   5   5   -0.02    0.52
   3  -5  -5    0.89    0.39
   3  -5  -5    1.16    0.41
  -3   5   5    1.16    0.40
  -3   5   5   -0.23    0.44
   2  -5  -5    1.18    0.39
   2  -5  -5    1.51    0.27
   2  -5  -5    1.41    0.38
  -2   5   5    1.49    0.36
  -2   5   5    1.40    0.39
   1  -5  -5    9.10    0.61
   1  -5  -5    8.16    0.56
   1  -5  -5    7.70    0.43
  -1   5   5    8.08    0.49
  -1   5   5    8.49    0.60
   0  -5  -5    0.20    0.25
   0  -5  -5    0.02    0.26
   0  -5  -5   -0.01    0.21
   0   5   5   -0.16    0.24
   0   5   5   -0.18    0.21
  -1  -5  -5    9.76    0.56
  -1  -5  -5   10.61    0.53
  -1  -5  -5    9.33    0.44
   1   5   5    9.44    0.53
   1   5   5   10.05    0.38
  -2  -5  -5    1.39    0.28
  -2  -5  -5    1.44    0.28
  -2  -5  -5    2.05    0.27
   2   5   5    1.73    0.18
   2   5   5    1.89    0.27
  -3  -5  -5    3.33    0.37
  -3  -5  -5    2.88    0.38
  -3  -5  -5    3.26    0.39
   3   5   5    2.76    0.34
   3   5   5    2.91    0.32
  -4  -5  -5   -0.42    0.23
  -4  -5  -5    0.05    0.22
  -4  -5  -5   -0.04    0.22
   4   5   5    0.09    0.18
   4   5   5    0.15    0.21
   4   5   5    0.12    0.21
  -5  -5  -5    0.00    0.20
  -5  -5  -5    0.14    0.25
  -5  -5  -5    0.20    0.26
   5   5   5    0.07    0.16
   5   5   5   -0.09    0.25
  -6  -5  -5    0.14    0.31
  -6  -5  -5   -0.04    0.30
  -6  -5  -5   -0.06    0.17
   6   5   5   -0.12    0.14
   6   5   5    0.18    0.16
   6   5   5   -0.18    0.26
  -7  -5  -5    0.80    0.35
  -7  -5  -5    0.18    0.32
  -7  -5  -5    0.43    0.25
   7   5   5    0.71    0.34
  -8  -5  -5    0.74    0.33
  -8  -5  -5   -0.03    0.42
  -8  -5  -5    0.01    0.39
   8   5   5    0.60    0.38
   3  -6  -5   -0.13    0.45
  -3   6   5    0.12    0.49
  -3   6   5    1.12    0.43
   2  -6  -5    0.47    0.36
   2  -6  -5    0.13    0.30
   2  -6  -5    0.20    0.40
  -2   6   5    0.91    0.36
  -2   6   5    0.52    0.42
   1  -6  -5    1.32    0.29
   1  -6  -5    1.68    0.38
   1  -6  -5    2.23    0.40
  -1   6   5    1.74    0.41
  -1   6   5    1.69    0.33
   0  -6  -5    3.98    0.45
   0  -6  -5    4.62    0.43
   0  -6  -5    5.55    0.51
   0   6   5    4.82    0.42
   0   6   5    5.78    0.57
  -1  -6  -5    5.38    0.44
  -1  -6  -5    5.07    0.54
  -1  -6  -5    6.18    0.50
   1   6   5    5.75    0.35
   1   6   5    5.14    0.50
  -2  -6  -5   10.13    0.51
  -2  -6  -5    9.41    0.60
  -2  -6  -5    9.18    0.54
   2   6   5    8.84    0.54
  -3  -6  -5   13.05    0.59
  -3  -6  -5   12.72    0.61
  -3  -6  -5   13.25    0.58
   3   6   5   11.22    0.63
   3   6   5   12.84    0.57
  -4  -6  -5    0.71    0.30
  -4  -6  -5    0.42    0.26
  -4  -6  -5    0.56    0.26
   4   6   5    0.31    0.26
   4   6   5    0.48    0.25
   4   6   5    0.42    0.22
  -5  -6  -5   10.21    0.60
  -5  -6  -5   10.30    0.51
  -5  -6  -5   10.21    0.60
   5   6   5   10.32    0.45
   5   6   5   10.61    0.62
  -6  -6  -5    0.27    0.33
  -6  -6  -5    0.60    0.35
   6   6   5    0.60    0.21
   6   6   5    1.00    0.33
   6   6   5    0.34    0.16
  -7  -6  -5    0.59    0.40
  -7  -6  -5   -0.06    0.34
   7   6   5    0.96    0.37
  -8  -6  -5   -0.37    0.41
  -8  -6  -5   -0.38    0.42
   8   6   5    0.36    0.43
   2  -7  -5   -0.10    0.46
   2  -7  -5    0.56    0.38
   2  -7  -5    1.07    0.50
  -2   7   5   -0.01    0.48
  -2   7   5    0.23    0.44
   1  -7  -5    1.57    0.46
   1  -7  -5    1.87    0.46
   1  -7  -5    1.93    0.36
  -1   7   5    2.25    0.41
  -1   7   5    1.35    0.45
   0  -7  -5    0.61    0.38
   0  -7  -5    0.47    0.32
   0  -7  -5    0.52    0.36
   0   7   5    0.44    0.35
   0   7   5    0.60    0.30
  -1  -7  -5    0.31    0.31
  -1  -7  -5    0.65    0.36
  -1  -7  -5    0.52    0.38
   1   7   5    0.32    0.24
   1   7   5    0.17    0.29
  -2  -7  -5    3.75    0.49
  -2  -7  -5    4.38    0.58
  -2  -7  -5    4.37    0.51
   2   7   5    2.91    0.38
  -3  -7  -5    1.25    0.36
  -3  -7  -5    1.12    0.34
  -3  -7  -5    1.01    0.33
   3   7   5    0.66    0.31
   3   7   5    1.27    0.29
  -4  -7  -5    0.35    0.33
  -4  -7  -5    0.58    0.34
  -4  -7  -5    0.65    0.31
   4   7   5    0.84    0.28
   4   7   5    0.51    0.30
  -5  -7  -5    1.83    0.37
  -5  -7  -5    1.70    0.38
   5   7   5    2.97    0.41
   5   7   5    0.97    0.27
  -6  -7  -5    0.56    0.37
  -6  -7  -5    0.48    0.36
   6   7   5    0.46    0.36
   6   7   5    0.53    0.22
  -7  -7  -5    1.33    0.44
  -7  -7  -5    0.83    0.41
   7   7   5    1.15    0.41
   1  -8  -5    0.67    0.54
   1  -8  -5    0.30    0.37
   1  -8  -5   -0.06    0.49
  -1   8   5    0.34    0.46
  -1   8   5    0.44    0.42
   0  -8  -5    2.04    0.52
   0  -8  -5    2.56    0.40
   0  -8  -5    2.00    0.51
   0   8   5    2.28    0.36
   0   8   5    2.42    0.49
  -1  -8  -5    0.93    0.39
  -1  -8  -5    0.57    0.38
  -1  -8  -5   -0.20    0.42
   1   8   5    1.11    0.41
  -2  -8  -5    0.12    0.38
  -2  -8  -5    0.06    0.38
  -2  -8  -5    0.11    0.33
   2   8   5   -0.28    0.31
  -3  -8  -5    0.69    0.40
  -3  -8  -5    0.41    0.34
  -3  -8  -5    0.95    0.42
   3   8   5    0.85    0.35
   3   8   5    0.69    0.33
  -4  -8  -5    5.08    0.60
  -4  -8  -5    6.31    0.64
   4   8   5    6.12    0.54
   4   8   5    5.24    0.61
  -5  -8  -5    1.07    0.41
  -5  -8  -5    1.32    0.42
   5   8   5    2.24    0.43
   5   8   5    1.31    0.30
  -6  -8  -5    6.17    0.72
  -6  -8  -5    6.25    0.66
   6   8   5    6.61    0.68
   6   8   5    5.63    0.48
  -1  -9  -5    0.88    0.52
  -1  -9  -5    0.11    0.41
  -1  -9  -5    0.70    0.49
   1   9   5    0.38    0.46
  -2  -9  -5   -0.30    0.46
  -2  -9  -5   -0.04    0.45
  -2  -9  -5    0.00    0.47
   2   9   5   -0.11    0.39
  -3  -9  -5   -0.57    0.40
  -3  -9  -5   -0.17    0.47
   3   9   5    0.07    0.39
   3   9   5   -0.49    0.36
  -4  -9  -5   -0.21    0.41
  -4  -9  -5    0.57    0.47
   4   9   5   -0.61    0.39
   4   9   5    0.19    0.34
  -5  -9  -5    0.81    0.48
  -5  -9  -5   -0.33    0.47
   5   9   5    1.35    0.46
   5   9   5    0.30    0.32
  -2  -6   6    0.42    0.45
  -2  -6   6    1.17    0.50
  -2  -6   6    0.87    0.44
   1   6  -6    0.66    0.38
   1   6  -6    0.41    0.40
  -1  -6   6    0.31    0.42
  -1  -6   6   -0.09    0.36
  -1  -6   6   -0.16    0.48
   0   6  -6   -0.13    0.39
   0  -6   6   -0.20    0.45
   0  -6   6    0.02    0.35
   0  -6   6    0.22    0.42
  -1   6  -6   -0.42    0.41
   1  -6   6   -0.82    0.32
   1  -6   6   -0.01    0.34
   1  -6   6   -0.27    0.43
  -2   6  -6    0.26    0.39
   2  -6   6    0.25    0.45
   2  -6   6    0.11    0.39
   2  -6   6   -0.07    0.35
  -3   6  -6    0.49    0.45
   3  -6   6    0.26    0.48
   3  -6   6   -0.12    0.40
   3  -6   6   -0.05    0.38
   3   5  -6    0.82    0.42
  -3  -5   6    0.10    0.47
  -3  -5   6    0.91    0.43
  -3  -5   6    1.68    0.41
   2   5  -6    1.10    0.43
   2   5  -6    1.46    0.32
  -2  -5   6    1.52    0.40
  -2  -5   6    0.89    0.45
  -2  -5   6    1.52    0.38
   1   5  -6    8.22    0.56
   1   5  -6    8.95    0.68
  -1  -5   6    7.01    0.73
  -1  -5   6    7.82    0.63
  -1  -5   6    7.56    0.58
   0   5  -6    2.46    0.43
   0  -5   6    1.76    0.36
   0  -5   6    1.43    0.35
   0  -5   6    0.94    0.40
  -1   5  -6   15.62    0.82
   1  -5   6   16.77    0.71
   1  -5   6   16.52    0.76
   1  -5   6   16.22    0.89
  -2   5  -6    0.89    0.40
   2  -5   6    0.95    0.40
   2  -5   6    0.56    0.34
   2  -5   6    0.30    0.32
  -3   5  -6    1.32    0.46
   3  -5   6    1.09    0.45
   3  -5   6    1.87    0.39
   3  -5   6    1.95    0.37
  -4   5  -6    2.49    0.52
   4  -5   6    1.59    0.44
   4  -5   6    1.53    0.41
  -5   5  -6   -0.10    0.49
   5  -5   6    1.02    0.47
   5  -5   6    1.25    0.45
   4   4  -6    0.14    0.38
   4   4  -6   -0.31    0.45
  -4  -4   6   -0.15    0.40
   3   4  -6    1.08    0.38
  -3  -4   6    0.70    0.37
  -3  -4   6   -0.04    0.42
  -3  -4   6    0.62    0.32
   2   4  -6    8.18    0.69
   2   4  -6    8.00    0.48
  -2  -4   6    9.24    0.61
  -2  -4   6    9.94    0.55
  -2  -4   6   10.20    0.73
   1   4  -6    0.72    0.29
  -1  -4   6    0.89    0.29
  -1  -4   6    1.20    0.36
  -1  -4   6    0.67    0.29
   0   4  -6   37.60    1.00
   0   4  -6   36.49    1.10
   0  -4   6   35.74    0.94
   0  -4   6   34.93    1.06
   0  -4   6   36.42    1.16
  -1   4  -6    2.04    0.38
   1  -4   6    2.10    0.34
   1  -4   6    2.41    0.42
  -2   4  -6   24.01    0.93
   2  -4   6   23.52    0.94
   2  -4   6   22.96    0.83
   2  -4   6   24.87    0.82
  -3   4  -6    6.65    0.65
   3  -4   6    5.72    0.62
   3  -4   6    6.42    0.51
   3  -4   6    5.55    0.50
  -4   4  -6    3.19    0.49
   4  -4   6    3.12    0.41
   4  -4   6    2.94    0.48
  -5   4  -6    3.15    0.51
   5  -4   6    2.94    0.49
   5  -4   6    2.27    0.43
  -6   4  -6    0.33    0.49
   6  -4   6    1.05    0.45
   6  -4   6    1.00    0.41
   4   3  -6    0.45    0.36
  -4  -3   6    0.10    0.36
  -4  -3   6    1.12    0.44
   3   3  -6    0.68    0.26
   3   3  -6    0.80    0.35
  -3  -3   6    0.18    0.39
  -3  -3   6    0.35    0.26
  -3  -3   6    0.34    0.32
   2   3  -6    0.00    0.31
   2   3  -6    0.33    0.24
  -2  -3   6    0.04    0.28
  -2  -3   6    0.33    0.25
  -2  -3   6    0.08    0.36
   1   3  -6    3.31    0.40
   1   3  -6    4.20    0.41
  -1  -3   6    3.57    0.46
  -1  -3   6    2.98    0.41
  -1  -3   6    3.68    0.42
   0   3  -6    0.81    0.27
   0   3  -6    0.94    0.30
   0  -3   6    1.29    0.26
   0  -3   6    0.99    0.27
   0  -3   6    0.92    0.33
  -1   3  -6    1.18    0.31
  -1   3  -6    1.42    0.30
   1  -3   6    1.42    0.32
   1  -3   6    1.48    0.28
   1  -3   6    1.11    0.27
  -2   3  -6   -0.16    0.25
   2  -3   6   -0.26    0.23
   2  -3   6   -0.24    0.22
   2  -3   6   -0.37    0.25
  -3   3  -6    2.46    0.40
   3  -3   6    2.99    0.38
   3  -3   6    2.55    0.34
   3  -3   6    2.62    0.34
  -4   3  -6    0.11    0.31
   4  -3   6    0.18    0.28
   4  -3   6   -0.11    0.26
   4  -3   6    0.13    0.30
  -5   3  -6    7.91    0.72
   5  -3   6    7.77    0.69
   5  -3   6    8.45    0.56
  -6   3  -6    1.80    0.47
   6  -3   6    0.94    0.38
   6  -3   6    1.02    0.37
  -7   3  -6    2.78    0.56
   7  -3   6    3.27    0.53
   7  -3   6    3.34    0.49
   4   2  -6   -0.49    0.36
  -4  -2   6    0.32    0.43
  -4  -2   6    0.04    0.35
   3   2  -6    2.55    0.40
   3   2  -6    1.84    0.28
  -3  -2   6    2.44    0.43
  -3  -2   6    1.16    0.34
  -3  -2   6    2.04    0.25
   2   2  -6    0.05    0.23
   2   2  -6    0.41    0.28
  -2  -2   6    0.28    0.27
  -2  -2   6    0.22    0.21
  -2  -2   6    0.96    0.32
   1   2  -6    1.36    0.27
   1   2  -6    1.62    0.32
  -1  -2   6    0.96    0.32
  -1  -2   6    1.10    0.29
  -1  -2   6    1.12    0.23
   0   2  -6    0.67    0.28
   0   2  -6    1.03    0.27
   0  -2   6    1.24    0.30
   0  -2   6    0.95    0.24
   0  -2   6    0.99    0.24
  -1   2  -6    2.78    0.32
  -1   2  -6    2.42    0.31
   1  -2   6    1.97    0.28
   1  -2   6    2.82    0.34
   1  -2   6    2.49    0.34
  -2   2  -6    3.85    0.45
  -2   2  -6    4.00    0.43
   2  -2   6    3.58    0.37
   2  -2   6    4.28    0.45
   2  -2   6    4.31    0.37
  -3   2  -6   -0.33    0.23
   3  -2   6   -0.19    0.24
   3  -2   6   -0.17    0.21
   3  -2   6   -0.10    0.21
  -4   2  -6    6.03    0.56
   4  -2   6    7.34    0.47
   4  -2   6    8.12    0.55
   4  -2   6    7.17    0.47
  -5   2  -6    0.69    0.32
   5  -2   6    0.50    0.27
   5  -2   6    0.56    0.31
  -6   2  -6   -0.01    0.38
   6  -2   6    0.79    0.35
   6  -2   6   -0.34    0.32
  -7   2  -6    0.23    0.44
   7  -2   6    0.10    0.36
   7  -2   6    0.38    0.39
   5   1  -6   -0.40    0.46
   5   1  -6   -0.43    0.41
  -5  -1   6    0.03    0.44
   4   1  -6    3.66    0.38
   4   1  -6    4.13    0.49
  -4  -1   6    3.77    0.56
  -4  -1   6    3.30    0.49
   3   1  -6    0.02    0.26
   3   1  -6    0.30    0.31
  -3  -1   6    0.45    0.37
  -3  -1   6    0.11    0.27
   2   1  -6    1.94    0.29
   2   1  -6    1.67    0.29
   2   1  -6    1.92    0.33
  -2  -1   6    1.49    0.20
  -2  -1   6    1.80    0.32
  -2  -1   6    1.82    0.35
   1   1  -6    0.94    0.22
   1   1  -6    0.84    0.27
  -1  -1   6    0.80    0.27
  -1  -1   6    1.08    0.19
  -1  -1   6    0.95    0.27
   0   1  -6   -0.01    0.20
   0   1  -6   -0.25    0.23
   0  -1   6    0.32    0.21
   0  -1   6   -0.10    0.17
   0  -1   6   -0.08    0.23
  -1   1  -6    2.25    0.32
  -1   1  -6    2.59    0.30
   1  -1   6    1.98    0.25
   1  -1   6    2.26    0.28
   1  -1   6    2.50    0.32
  -2   1  -6    1.18    0.25
  -2   1  -6    0.99    0.25
   2  -1   6    0.68    0.22
   2  -1   6    1.34    0.25
   2  -1   6    0.97    0.25
  -3   1  -6    0.16    0.24
  -3   1  -6   -0.29    0.23
   3  -1   6    0.45    0.23
   3  -1   6   -0.23    0.18
   3  -1   6    0.15    0.19
  -4   1  -6    3.55    0.44
   4  -1   6    4.46    0.39
   4  -1   6    4.89    0.38
   4  -1   6    4.48    0.45
  -5   1  -6   -0.09    0.27
   5  -1   6    0.32    0.24
   5  -1   6   -0.19    0.26
  -6   1  -6    1.56    0.34
   6  -1   6    1.24    0.33
   6  -1   6    2.19    0.37
  -7   1  -6    0.23    0.40
   7  -1   6   -0.09    0.33
   7  -1   6    0.07    0.32
   8  -1   6   -0.21    0.38
   8  -1   6   -0.44    0.42
   5   0  -6   -0.65    0.41
  -5   0   6    0.63    0.48
  -5   0   6    0.18    0.40
   4   0  -6    0.19    0.34
   4   0  -6    0.18    0.35
  -4   0   6   -0.03    0.33
  -4   0   6    0.74    0.41
   3   0  -6   -0.08    0.29
   3   0  -6    0.58    0.26
  -3   0   6    0.16    0.34
  -3   0   6    0.11    0.31
   2   0  -6    1.57    0.32
   2   0  -6    1.45    0.27
   2   0  -6    1.53    0.22
  -2   0   6    1.70    0.33
  -2   0   6    1.96    0.32
   1   0  -6    0.29    0.24
   1   0  -6   -0.27    0.20
  -1   0   6    0.09    0.24
  -1   0   6    0.15    0.17
  -1   0   6    0.12    0.24
   0   0  -6    1.01    0.24
   0   0  -6    0.90    0.26
   0   0   6    1.12    0.25
   0   0   6    1.17    0.23
   0   0   6    0.72    0.18
  -1   0  -6    7.35    0.43
  -1   0  -6    7.02    0.47
   1   0   6    7.40    0.41
   1   0   6    7.27    0.46
   1   0   6    8.26    0.37
  -2   0  -6    0.78    0.24
  -2   0  -6    0.47    0.24
   2   0   6    0.84    0.22
   2   0   6    0.75    0.20
  -3   0  -6   33.43    0.89
  -3   0  -6   31.24    0.89
   3   0   6   31.68    0.80
   3   0   6   32.50    0.90
   3   0   6   30.76    0.84
  -4   0  -6    2.54    0.33
  -4   0  -6    2.86    0.36
   4   0   6    2.60    0.30
   4   0   6    2.88    0.33
   4   0   6    2.37    0.28
  -5   0  -6    7.72    0.55
  -5   0  -6    7.59    0.51
   5   0   6    7.05    0.58
   5   0   6    7.40    0.47
   5   0   6    7.76    0.50
  -6   0  -6    4.61    0.49
   6   0   6    3.81    0.45
   6   0   6    4.13    0.46
  -7   0  -6    4.72    0.56
   7   0   6    3.14    0.40
   7   0   6    4.58    0.51
   8   0   6    4.10    0.47
   4  -1  -6    0.45    0.36
   4  -1  -6    0.17    0.38
  -4   1   6    0.45    0.41
  -4   1   6   -0.11    0.36
   3  -1  -6   -0.14    0.28
   3  -1  -6    0.26    0.32
  -3   1   6    0.01    0.29
  -3   1   6    0.80    0.37
   2  -1  -6    4.37    0.26
   2  -1  -6    5.45    0.52
   2  -1  -6    4.95    0.29
   2  -1  -6    4.19    0.42
  -2   1   6    4.17    0.45
  -2   1   6    4.86    0.55
   1  -1  -6    3.38    0.39
   1  -1  -6    3.34    0.44
   1  -1  -6    3.09    0.32
  -1   1   6    3.78    0.45
  -1   1   6    3.57    0.37
   0  -1  -6    6.04    0.46
   0  -1  -6    5.71    0.40
   0   1   6    4.89    0.38
   0   1   6    5.57    0.46
  -1  -1  -6    8.37    0.44
  -1  -1  -6    7.76    0.49
   1   1   6    7.64    0.46
   1   1   6    7.90    0.40
  -2  -1  -6   -0.05    0.18
  -2  -1  -6    0.10    0.18
   2   1   6    0.04    0.18
   2   1   6    0.07    0.17
  -3  -1  -6    0.34    0.21
  -3  -1  -6    0.32    0.20
   3   1   6    0.24    0.18
   3   1   6    0.05    0.19
   3   1   6    0.24    0.18
  -4  -1  -6    0.32    0.24
  -4  -1  -6    0.60    0.24
   4   1   6    1.25    0.29
   4   1   6    0.46    0.20
   4   1   6    0.66    0.22
   4   1   6    0.69    0.21
  -5  -1  -6    3.02    0.39
  -5  -1  -6    3.07    0.36
   5   1   6    3.03    0.38
   5   1   6    2.33    0.32
  -6  -1  -6    1.16    0.35
  -6  -1  -6    0.69    0.26
   6   1   6    0.38    0.32
   6   1   6    0.87    0.26
  -7  -1  -6    0.32    0.36
   7   1   6   -0.14    0.26
  -8  -1  -6    1.20    0.47
   8   1   6    0.61    0.30
   4  -2  -6    1.19    0.41
   4  -2  -6    0.95    0.42
  -4   2   6    1.02    0.47
  -4   2   6    1.63    0.42
   3  -2  -6    0.69    0.31
   3  -2  -6    0.88    0.36
  -3   2   6    0.64    0.37
  -3   2   6    0.80    0.33
   2  -2  -6   14.45    0.38
   2  -2  -6   14.16    0.73
   2  -2  -6   14.13    0.63
  -2   2   6   14.98    0.66
  -2   2   6   15.48    0.75
   1  -2  -6    3.37    0.33
   1  -2  -6    3.95    0.38
   1  -2  -6    3.69    0.29
   1  -2  -6    3.12    0.38
  -1   2   6    3.71    0.39
  -1   2   6    3.45    0.40
   0  -2  -6   19.54    0.72
   0  -2  -6   19.27    0.66
   0   2   6   19.43    0.73
   0   2   6   19.37    0.63
  -1  -2  -6    8.52    0.48
  -1  -2  -6    8.30    0.45
   1   2   6    8.11    0.39
   1   2   6    7.86    0.48
  -2  -2  -6    1.89    0.27
  -2  -2  -6    1.57    0.26
   2   2   6    1.93    0.26
   2   2   6    1.93    0.23
  -3  -2  -6    2.75    0.29
  -3  -2  -6    3.19    0.35
   3   2   6    2.84    0.33
   3   2   6    2.32    0.31
   3   2   6    3.38    0.30
  -4  -2  -6    2.70    0.35
  -4  -2  -6    2.25    0.29
   4   2   6    2.24    0.29
   4   2   6    2.35    0.27
   4   2   6    2.21    0.29
  -5  -2  -6    1.68    0.31
  -5  -2  -6    1.51    0.27
   5   2   6    1.25    0.29
   5   2   6    1.42    0.25
  -6  -2  -6    3.70    0.44
  -6  -2  -6    2.96    0.40
   6   2   6    3.34    0.39
   6   2   6    3.40    0.46
  -7  -2  -6    0.85    0.38
   7   2   6    0.75    0.25
  -8  -2  -6    0.56    0.43
   8   2   6    0.62    0.28
   4  -3  -6    1.38    0.45
   4  -3  -6    0.77    0.47
  -4   3   6    1.17    0.52
  -4   3   6    1.72    0.43
   3  -3  -6   16.45    0.86
   3  -3  -6   15.96    0.76
  -3   3   6   16.09    0.90
  -3   3   6   15.93    0.78
   2  -3  -6   -0.41    0.30
   2  -3  -6    0.89    0.32
   2  -3  -6    0.31    0.18
  -2   3   6    0.87    0.31
  -2   3   6    0.56    0.30
   1  -3  -6   57.68    1.38
   1  -3  -6   58.10    1.47
   1  -3  -6   57.27    1.09
  -1   3   6   59.29    1.48
  -1   3   6   56.90    1.34
   0  -3  -6   18.30    0.70
   0  -3  -6   17.57    0.65
   0  -3  -6   17.24    0.52
   0   3   6   16.69    0.70
   0   3   6   15.27    0.58
  -1  -3  -6   33.55    0.96
  -1  -3  -6   34.46    0.81
  -1  -3  -6   33.89    0.92
   1   3   6   33.37    0.97
   1   3   6   35.48    0.84
  -2  -3  -6   15.22    0.53
  -2  -3  -6   14.73    0.60
  -2  -3  -6   15.01    0.59
   2   3   6   14.75    0.59
   2   3   6   16.15    0.47
  -3  -3  -6    0.45    0.21
  -3  -3  -6    0.55    0.24
  -3  -3  -6    0.52    0.23
   3   3   6    1.05    0.27
   3   3   6    0.60    0.16
   3   3   6    0.39    0.20
  -4  -3  -6    0.12    0.21
  -4  -3  -6   -0.02    0.22
  -4  -3  -6    0.30    0.22
   4   3   6    0.34    0.19
   4   3   6   -0.16    0.21
  -5  -3  -6    2.23    0.28
  -5  -3  -6    2.80    0.35
   5   3   6    2.73    0.33
   5   3   6    2.96    0.30
  -6  -3  -6    0.70    0.26
  -6  -3  -6    0.80    0.30
   6   3   6    0.39    0.24
   6   3   6    0.58    0.21
  -7  -3  -6    0.65    0.40
   7   3   6    0.42    0.22
  -8  -3  -6    0.26    0.45
   8   3   6   -0.13    0.21
   3  -4  -6    0.37    0.40
   3  -4  -6   -0.71    0.38
  -3   4   6    0.10    0.38
  -3   4   6   -0.49    0.40
   2  -4  -6   11.30    0.45
   2  -4  -6   13.08    0.78
   2  -4  -6   12.06    0.70
  -2   4   6   11.98    0.65
  -2   4   6   11.69    0.78
   1  -4  -6    1.23    0.35
   1  -4  -6    1.66    0.24
   1  -4  -6    1.97    0.34
  -1   4   6    3.02    0.40
  -1   4   6    1.50    0.36
   0  -4  -6    0.58    0.29
   0  -4  -6    0.93    0.30
   0  -4  -6    0.73    0.23
   0   4   6    1.05    0.28
   0   4   6    0.79    0.25
  -1  -4  -6    5.18    0.44
  -1  -4  -6    4.90    0.49
  -1  -4  -6    5.32    0.38
   1   4   6    4.94    0.46
   1   4   6    4.65    0.34
  -2  -4  -6   14.58    0.61
  -2  -4  -6   14.96    0.64
  -2  -4  -6   14.30    0.50
  -2  -4  -6   15.27    0.56
   2   4   6   15.25    0.46
   2   4   6   15.71    0.62
  -3  -4  -6    0.46    0.19
  -3  -4  -6    0.51    0.23
  -3  -4  -6    0.44    0.23
  -3  -4  -6    0.23    0.25
   3   4   6    0.66    0.21
   3   4   6    0.36    0.28
   3   4   6    0.79    0.17
  -4  -4  -6   19.89    0.72
  -4  -4  -6   19.92    0.67
  -4  -4  -6   19.16    0.49
   4   4   6   19.07    0.66
   4   4   6   19.82    0.65
  -5  -4  -6    3.87    0.33
  -5  -4  -6    4.05    0.41
  -5  -4  -6    5.51    0.50
   5   4   6    4.24    0.40
   5   4   6    4.38    0.37
  -6  -4  -6    7.95    0.60
  -6  -4  -6    7.96    0.47
   6   4   6    7.10    0.41
  -7  -4  -6   -0.11    0.37
   7   4   6   -0.07    0.18
  -8  -4  -6    3.49    0.51
   3  -5  -6    0.16    0.47
   3  -5  -6   -0.07    0.44
  -3   5   6   -0.21    0.47
  -3   5   6   -0.07    0.42
   2  -5  -6    0.86    0.28
   2  -5  -6    1.27    0.40
   2  -5  -6    1.61    0.41
  -2   5   6    1.30    0.37
  -2   5   6    0.42    0.39
   1  -5  -6   -0.31    0.25
   1  -5  -6    0.09    0.35
   1  -5  -6    0.57    0.33
  -1   5   6    0.59    0.28
  -1   5   6    0.43    0.37
   0  -5  -6    0.23    0.25
   0  -5  -6    0.32    0.27
   0  -5  -6    0.44    0.32
   0   5   6    0.26    0.30
   0   5   6   -0.05    0.23
  -1  -5  -6    1.90    0.34
  -1  -5  -6    1.22    0.27
  -1  -5  -6    1.62    0.33
   1   5   6    1.85    0.25
   1   5   6    1.79    0.34
  -2  -5  -6   -0.16    0.26
  -2  -5  -6    0.66    0.29
  -2  -5  -6    0.26    0.25
   2   5   6    0.34    0.17
   2   5   6    0.21    0.24
  -3  -5  -6    1.03    0.28
  -3  -5  -6    0.58    0.28
  -3  -5  -6    0.73    0.26
   3   5   6    0.69    0.22
   3   5   6    0.75    0.30
  -4  -5  -6    0.67    0.28
  -4  -5  -6    1.01    0.29
  -4  -5  -6   -0.09    0.26
   4   5   6    0.74    0.30
   4   5   6    0.48    0.23
  -5  -5  -6    0.32    0.30
  -5  -5  -6    0.51    0.29
  -5  -5  -6    0.63    0.26
   5   5   6   -0.05    0.24
   5   5   6    0.16    0.20
  -6  -5  -6    0.63    0.32
  -6  -5  -6    0.12    0.34
   6   5   6    0.56    0.21
  -7  -5  -6   -0.47    0.35
  -7  -5  -6    0.16    0.36
   7   5   6   -0.25    0.33
  -8  -5  -6    2.63    0.52
  -8  -5  -6    2.76    0.51
   8   5   6    1.95    0.50
   2  -6  -6    1.27    0.45
   2  -6  -6    0.49    0.45
   2  -6  -6    0.47    0.33
  -2   6   6    0.39    0.47
  -2   6   6    0.97    0.43
   1  -6  -6    0.16    0.36
   1  -6  -6   -0.18    0.39
   1  -6  -6    0.10    0.29
  -1   6   6    0.18    0.33
  -1   6   6    0.23    0.38
   0  -6  -6    0.67    0.29
   0  -6  -6    0.47    0.36
   0  -6  -6    0.89    0.37
   0   6   6    0.42    0.27
   0   6   6    0.17    0.33
  -1  -6  -6    0.14    0.27
  -1  -6  -6    0.32    0.32
  -1  -6  -6    0.35    0.32
   1   6   6    0.08    0.23
   1   6   6    0.25    0.28
  -2  -6  -6    2.15    0.37
  -2  -6  -6    2.09    0.39
  -2  -6  -6    1.97    0.34
   2   6   6    2.23    0.25
   2   6   6    2.12    0.32
  -3  -6  -6   -0.09    0.29
  -3  -6  -6   -0.02    0.31
  -3  -6  -6    0.14    0.28
   3   6   6    0.35    0.25
  -4  -6  -6    7.76    0.55
  -4  -6  -6    7.09    0.56
  -4  -6  -6    8.36    0.58
   4   6   6    7.41    0.49
  -5  -6  -6    0.56    0.31
  -5  -6  -6    0.58    0.36
  -5  -6  -6    0.49    0.33
   5   6   6    0.63    0.24
  -6  -6  -6    0.37    0.34
  -6  -6  -6    0.48    0.36
   6   6   6    0.47    0.32
   6   6   6    0.48    0.23
  -7  -6  -6    0.32    0.41
  -7  -6  -6    1.12    0.40
   7   6   6    0.65    0.36
  -8  -6  -6    1.07    0.50
  -8  -6  -6    1.99    0.47
   8   6   6    0.94    0.45
   1  -7  -6    0.53    0.36
   1  -7  -6   -0.16    0.45
   1  -7  -6   -0.36    0.45
  -1   7   6   -0.39    0.37
  -1   7   6   -0.12    0.46
   0  -7  -6    4.87    0.62
   0  -7  -6    4.53    0.54
   0  -7  -6    3.83    0.44
   0   7   6    5.14    0.47
   0   7   6    4.89    0.59
  -1  -7  -6    0.90    0.39
  -1  -7  -6    0.44    0.30
  -1  -7  -6    0.86    0.40
   1   7   6    1.13    0.29
   1   7   6    0.98    0.39
  -2  -7  -6    1.45    0.38
  -2  -7  -6    2.10    0.42
  -2  -7  -6    1.66    0.38
   2   7   6    1.70    0.39
  -3  -7  -6    0.30    0.33
  -3  -7  -6    0.29    0.38
  -3  -7  -6    0.67    0.38
   3   7   6    0.50    0.32
  -4  -7  -6    3.32    0.43
  -4  -7  -6    4.02    0.46
  -4  -7  -6    3.61    0.46
   4   7   6    3.89    0.41
  -5  -7  -6    2.97    0.45
  -5  -7  -6    2.52    0.44
   5   7   6    2.59    0.35
   5   7   6    1.68    0.44
  -6  -7  -6    9.69    0.73
  -6  -7  -6    8.71    0.72
   6   7   6    8.54    0.51
   6   7   6    9.50    0.70
  -7  -7  -6    5.49    0.61
  -7  -7  -6    5.08    0.57
   7   7   6    4.61    0.59
   0  -8  -6   -0.10    0.40
   0  -8  -6   -0.46    0.47
   0  -8  -6   -0.10    0.50
   0   8   6   -0.21    0.44
  -1  -8  -6    0.94    0.43
  -1  -8  -6    0.16    0.46
  -1  -8  -6    0.38    0.41
   1   8   6   -0.23    0.38
  -2  -8  -6    0.69    0.43
  -2  -8  -6    0.30    0.41
  -2  -8  -6    0.09    0.35
   2   8   6   -0.26    0.34
  -3  -8  -6    0.39    0.41
  -3  -8  -6    0.99    0.42
  -3  -8  -6    0.50    0.42
   3   8   6    0.42    0.34
  -4  -8  -6    1.15    0.44
  -4  -8  -6    1.06    0.44
   4   8   6    0.63    0.34
  -5  -8  -6    3.51    0.53
  -5  -8  -6    3.79    0.52
   5   8   6    3.05    0.40
   5   8   6    3.14    0.50
  -6  -8  -6    4.69    0.55
  -6  -8  -6    3.51    0.61
   6   8   6    4.43    0.52
   6   8   6    5.05    0.68
  -3  -9  -6    0.61    0.44
  -1   6  -7    0.44    0.48
   1  -6   7    0.10    0.54
   1  -6   7   -0.07    0.41
   2   5  -7    3.21    0.58
  -2  -5   7    3.02    0.47
  -2  -5   7    4.53    0.61
  -2  -5   7    2.25    0.52
   1   5  -7    0.65    0.44
   1   5  -7    1.03    0.41
  -1  -5   7    0.89    0.42
  -1  -5   7    0.95    0.38
  -1  -5   7    0.68    0.51
   0   5  -7    0.16    0.39
   0   5  -7   -0.59    0.38
   0  -5   7    0.07    0.33
   0  -5   7   -0.25    0.44
   0  -5   7    0.33    0.36
  -1   5  -7    0.45    0.43
   1  -5   7   -0.46    0.35
   1  -5   7    0.62    0.34
   1  -5   7    0.06    0.44
  -2   5  -7    3.89    0.54
   2  -5   7    4.10    0.58
   2  -5   7    4.26    0.48
   2  -5   7    4.06    0.54
  -3   5  -7    2.63    0.55
   3  -5   7    2.87    0.47
   3  -5   7    3.20    0.47
   3  -5   7    2.95    0.55
  -4   5  -7    2.28    0.56
   4  -5   7    2.36    0.51
   4  -5   7    1.86    0.51
   4  -5   7    1.48    0.46
   3   4  -7    1.87    0.49
   2   4  -7    0.38    0.44
  -2  -4   7    0.10    0.36
  -2  -4   7    0.45    0.35
  -2  -4   7   -0.51    0.44
   1   4  -7    3.63    0.52
   1   4  -7    3.68    0.41
  -1  -4   7    4.93    0.57
  -1  -4   7    3.20    0.47
  -1  -4   7    3.98    0.57
   0   4  -7    0.02    0.34
   0   4  -7    0.16    0.35
   0  -4   7    0.36    0.40
   0  -4   7   -0.20    0.30
   0  -4   7    0.84    0.36
  -1   4  -7   22.36    0.88
  -1   4  -7   21.74    0.95
   1  -4   7   21.70    0.82
   1  -4   7   22.78    0.88
   1  -4   7   20.71    0.99
  -2   4  -7    0.49    0.38
   2  -4   7   -0.16    0.33
   2  -4   7   -0.13    0.32
   2  -4   7   -0.46    0.36
  -3   4  -7    8.01    0.75
   3  -4   7    7.39    0.58
   3  -4   7    6.17    0.75
   3  -4   7    7.99    0.65
  -4   4  -7   -0.02    0.43
   4  -4   7    0.66    0.43
   4  -4   7    0.34    0.34
   4  -4   7   -0.32    0.36
  -5   4  -7    0.99    0.49
   5  -4   7    1.10    0.42
   5  -4   7   -0.05    0.39
   3   3  -7    0.07    0.39
  -3  -3   7    0.14    0.36
  -3  -3   7    0.52    0.48
   2   3  -7    0.08    0.38
   2   3  -7    0.30    0.31
  -2  -3   7   -0.13    0.31
  -2  -3   7   -0.54    0.40
  -2  -3   7    0.24    0.34
   1   3  -7    0.32    0.36
   1   3  -7    0.38    0.29
  -1  -3   7    1.43    0.31
  -1  -3   7    0.12    0.31
  -1  -3   7   -0.47    0.37
   0   3  -7    1.35    0.41
   0   3  -7    2.06    0.35
   0  -3   7    1.63    0.33
   0  -3   7    1.18    0.31
   0  -3   7    1.32    0.39
  -1   3  -7    0.93    0.33
  -1   3  -7    0.93    0.32
   1  -3   7   -0.04    0.27
   1  -3   7    0.68    0.37
   1  -3   7    0.43    0.30
  -2   3  -7    5.90    0.55
  -2   3  -7    4.59    0.59
   2  -3   7    5.23    0.62
   2  -3   7    5.24    0.48
   2  -3   7    4.92    0.49
  -3   3  -7    0.68    0.35
   3  -3   7    0.44    0.31
   3  -3   7    0.61    0.35
   3  -3   7    0.28    0.30
  -4   3  -7    2.52    0.44
   4  -3   7    2.92    0.46
   4  -3   7    3.14    0.42
   4  -3   7    2.86    0.42
  -5   3  -7    0.48    0.44
   5  -3   7    1.42    0.41
   5  -3   7    0.79    0.38
  -6   3  -7    0.30    0.46
   6  -3   7    0.82    0.40
   6  -3   7    0.19    0.37
   3   2  -7   -0.38    0.32
   3   2  -7   -0.04    0.39
  -3  -2   7    0.39    0.43
  -3  -2   7   -0.54    0.33
   2   2  -7    1.32    0.31
   2   2  -7    1.31    0.40
  -2  -2   7    1.84    0.37
  -2  -2   7    1.35    0.28
  -2  -2   7    1.44    0.43
   1   2  -7    0.22    0.32
   1   2  -7   -0.20    0.27
  -1  -2   7    0.28    0.30
  -1  -2   7   -0.19    0.25
  -1  -2   7   -0.30    0.33
   0   2  -7    0.60    0.36
   0   2  -7    0.62    0.27
   0  -2   7    0.65    0.29
   0  -2   7    0.75    0.27
   0  -2   7    1.09    0.34
  -1   2  -7    2.06    0.35
  -1   2  -7    1.75    0.38
   1  -2   7    1.84    0.36
   1  -2   7    2.09    0.30
   1  -2   7    2.16    0.33
  -2   2  -7    2.69    0.38
  -2   2  -7    2.08    0.35
   2  -2   7    3.62    0.41
   2  -2   7    2.10    0.36
   2  -2   7    2.51    0.33
  -3   2  -7    4.10    0.52
  -3   2  -7    3.56    0.43
   3  -2   7    3.36    0.36
   3  -2   7    2.91    0.40
   3  -2   7    3.23    0.41
  -4   2  -7    0.21    0.32
   4  -2   7   -0.17    0.28
   4  -2   7    0.14    0.27
   4  -2   7    0.57    0.32
  -5   2  -7    0.11    0.36
   5  -2   7    0.13    0.33
   5  -2   7   -0.03    0.29
  -6   2  -7   -0.14    0.42
   6  -2   7    0.22    0.36
   6  -2   7   -0.32    0.33
  -7   2  -7   -0.10    0.50
   7  -2   7    1.13    0.41
   7  -2   7   -0.18    0.43
   4   1  -7   -0.09    0.43
  -4  -1   7   -0.10    0.53
  -4  -1   7   -0.18    0.38
   3   1  -7    6.23    0.70
   3   1  -7    5.13    0.54
  -3  -1   7    5.97    0.75
  -3  -1   7    5.50    0.59
   2   1  -7    0.94    0.35
   2   1  -7    0.55    0.30
  -2  -1   7    0.55    0.33
  -2  -1   7    0.61    0.24
  -2  -1   7    0.40    0.37
   1   1  -7    2.60    0.40
   1   1  -7    2.33    0.34
  -1  -1   7    2.73    0.28
  -1  -1   7    2.17    0.36
  -1  -1   7    2.54    0.43
   0   1  -7    0.27    0.30
   0   1  -7    0.54    0.26
   0  -1   7    0.27    0.32
   0  -1   7    0.56    0.23
   0  -1   7    0.64    0.28
  -1   1  -7    8.18    0.53
  -1   1  -7    7.81    0.60
   1  -1   7    8.69    0.59
   1  -1   7    8.28    0.45
   1  -1   7    8.13    0.48
  -2   1  -7    1.35    0.30
  -2   1  -7    0.83    0.31
   2  -1   7    1.05    0.29
   2  -1   7    0.42    0.24
   2  -1   7    1.00    0.25
  -3   1  -7   25.36    0.86
  -3   1  -7   25.34    0.85
   3  -1   7   25.10    0.89
   3  -1   7   24.69    0.82
   3  -1   7   24.90    0.77
  -4   1  -7    4.03    0.49
  -4   1  -7    4.01    0.52
   4  -1   7    3.06    0.40
   4  -1   7    3.21    0.37
   4  -1   7    3.41    0.39
  -5   1  -7   19.73    0.84
  -5   1  -7   18.45    0.85
   5  -1   7   19.30    0.73
   5  -1   7   19.00    0.82
  -6   1  -7    0.17    0.39
   6  -1   7    0.94    0.35
   6  -1   7    0.18    0.33
  -7   1  -7    3.67    0.53
   7  -1   7    3.15    0.47
   7  -1   7    2.66    0.45
   4   0  -7    1.01    0.48
   4   0  -7    1.30    0.41
  -4   0   7    1.09    0.51
  -4   0   7    0.30    0.42
   3   0  -7    1.30    0.41
   3   0  -7    0.57    0.34
  -3   0   7    0.70    0.44
  -3   0   7    0.84    0.37
   2   0  -7    0.49    0.28
   2   0  -7    0.27    0.34
  -2   0   7   -0.07    0.30
  -2   0   7   -0.07    0.36
   1   0  -7   -0.45    0.26
   1   0  -7    0.67    0.31
  -1   0   7    0.26    0.26
  -1   0   7    0.21    0.32
   0   0  -7    0.38    0.30
   0   0  -7   -0.35    0.24
   0   0   7   -0.23    0.21
   0   0   7    0.02    0.27
   0   0   7   -0.30    0.25
  -1   0  -7    0.35    0.27
  -1   0  -7   -0.01    0.25
   1   0   7    0.11    0.20
   1   0   7   -0.20    0.25
   1   0   7   -0.18    0.21
  -2   0  -7    0.60    0.28
  -2   0  -7    0.49    0.25
   2   0   7    0.49    0.26
   2   0   7    0.48    0.23
   2   0   7    0.45    0.24
  -3   0  -7    3.57    0.44
  -3   0  -7    3.06    0.40
   3   0   7    2.79    0.35
   3   0   7    2.86    0.32
   3   0   7    3.00    0.36
  -4   0  -7    0.83    0.26
   4   0   7    0.29    0.25
   4   0   7    0.21    0.23
   4   0   7    0.80    0.27
  -5   0  -7    9.72    0.59
  -5   0  -7    9.18    0.63
   5   0   7   10.77    0.56
   5   0   7   10.04    0.60
  -6   0  -7    0.55    0.37
  -6   0  -7    0.04    0.33
   6   0   7   -0.26    0.29
   6   0   7    0.14    0.31
  -7   0  -7    9.34    0.78
   7   0   7    8.68    0.65
   7   0   7   10.02    0.66
  -8   0  -7    0.32    0.58
   8   0   7    0.58    0.39
   4  -1  -7    0.42    0.44
   4  -1  -7   -0.21    0.45
  -4   1   7    0.01    0.41
   3  -1  -7    1.35    0.40
   3  -1  -7    0.83    0.37
  -3   1   7    0.58    0.44
  -3   1   7    0.50    0.40
   2  -1  -7    0.13    0.33
   2  -1  -7    0.42    0.35
   2  -1  -7    0.05    0.19
  -2   1   7    0.25    0.31
  -2   1   7   -0.01    0.35
   1  -1  -7    1.44    0.36
   1  -1  -7    1.47    0.33
  -1   1   7    0.97    0.36
  -1   1   7    1.25    0.31
   0  -1  -7    2.03    0.33
   0  -1  -7    2.81    0.37
   0   1   7    2.63    0.37
   0   1   7    2.04    0.32
  -1  -1  -7   -0.40    0.22
  -1  -1  -7   -0.22    0.25
   1   1   7    0.04    0.22
   1   1   7   -0.25    0.22
  -2  -1  -7    0.35    0.27
  -2  -1  -7    0.32    0.25
   2   1   7    0.66    0.22
   2   1   7    0.16    0.24
  -3  -1  -7    3.75    0.42
  -3  -1  -7    4.44    0.51
   3   1   7    3.87    0.43
   3   1   7    4.53    0.37
  -4  -1  -7    0.49    0.28
  -4  -1  -7    0.38    0.27
   4   1   7    0.42    0.25
   4   1   7    0.26    0.22
  -5  -1  -7    1.90    0.36
  -5  -1  -7    1.24    0.34
   5   1   7    1.84    0.31
  -6  -1  -7    0.19    0.32
   6   1   7    0.77    0.27
  -7  -1  -7    1.87    0.47
   7   1   7    1.80    0.35
  -8  -1  -7    0.11    0.48
   8   1   7    0.92    0.36
   3  -2  -7   -0.52    0.37
   3  -2  -7    0.37    0.40
  -3   2   7    0.05    0.36
  -3   2   7    0.08    0.43
   2  -2  -7    0.30    0.34
   2  -2  -7    0.25    0.34
  -2   2   7    0.57    0.39
  -2   2   7   -0.01    0.30
   1  -2  -7    2.54    0.26
   1  -2  -7    2.51    0.39
   1  -2  -7    2.93    0.38
  -1   2   7    2.90    0.38
  -1   2   7    2.45    0.43
   0  -2  -7   13.31    0.62
   0  -2  -7   13.58    0.69
   0   2   7   11.71    0.59
   0   2   7   13.07    0.67
  -1  -2  -7    4.09    0.47
  -1  -2  -7    4.64    0.46
   1   2   7    3.65    0.48
   1   2   7    3.01    0.36
  -2  -2  -7    4.37    0.49
  -2  -2  -7    4.66    0.44
   2   2   7    4.22    0.35
   2   2   7    4.79    0.45
  -3  -2  -7    1.58    0.31
  -3  -2  -7    1.75    0.30
   3   2   7    1.97    0.29
   3   2   7    1.32    0.23
  -4  -2  -7    0.01    0.25
  -4  -2  -7   -0.16    0.24
   4   2   7    0.22    0.21
   4   2   7   -0.48    0.21
  -5  -2  -7    0.09    0.26
  -5  -2  -7    0.22    0.31
   5   2   7   -0.09    0.22
   5   2   7    0.44    0.32
  -6  -2  -7    0.37    0.34
  -6  -2  -7   -0.02    0.29
   6   2   7   -0.57    0.24
  -7  -2  -7    1.48    0.42
   7   2   7    1.51    0.30
  -8  -2  -7   -0.69    0.45
   8   2   7    0.82    0.32
   3  -3  -7   -0.88    0.39
   3  -3  -7   -0.34    0.41
  -3   3   7    0.15    0.38
  -3   3   7   -0.75    0.46
   2  -3  -7   12.64    0.68
   2  -3  -7   11.57    0.82
  -2   3   7   12.07    0.80
  -2   3   7   12.08    0.70
   1  -3  -7    1.41    0.35
   1  -3  -7    1.65    0.40
   1  -3  -7    1.66    0.26
  -1   3   7    0.79    0.32
  -1   3   7    2.01    0.40
   0  -3  -7   25.04    0.91
   0  -3  -7   24.45    0.84
   0  -3  -7   25.71    0.69
   0   3   7   25.05    0.80
   0   3   7   26.61    0.93
  -1  -3  -7    5.36    0.47
  -1  -3  -7    5.46    0.55
   1   3   7    4.84    0.41
   1   3   7    5.27    0.52
  -2  -3  -7    6.14    0.47
  -2  -3  -7    5.83    0.52
   2   3   7    5.14    0.37
   2   3   7    5.47    0.47
  -3  -3  -7    2.28    0.31
  -3  -3  -7    2.55    0.35
   3   3   7    2.57    0.32
   3   3   7    2.38    0.26
  -4  -3  -7    0.42    0.28
  -4  -3  -7    0.06    0.26
   4   3   7    0.46    0.23
   4   3   7    0.24    0.20
   4   3   7    0.46    0.32
  -5  -3  -7    2.36    0.37
  -5  -3  -7    2.04    0.33
   5   3   7    2.50    0.32
   5   3   7    2.64    0.37
  -6  -3  -7    2.29    0.40
  -6  -3  -7    2.32    0.36
   6   3   7    1.71    0.29
  -7  -3  -7    8.14    0.71
   7   3   7    6.86    0.50
  -8  -3  -7   -0.06    0.45
   8   3   7    0.15    0.28
   3  -4  -7   -1.03    0.43
   3  -4  -7   -0.07    0.42
  -3   4   7    0.60    0.39
   2  -4  -7    0.59    0.44
   2  -4  -7    0.55    0.41
  -2   4   7    0.11    0.44
  -2   4   7    0.04    0.37
   1  -4  -7    1.22    0.40
   1  -4  -7    2.30    0.41
   1  -4  -7    2.12    0.27
  -1   4   7    2.08    0.35
  -1   4   7    1.89    0.41
   0  -4  -7    0.57    0.33
   0  -4  -7    1.06    0.27
   0  -4  -7    1.20    0.36
   0   4   7    0.69    0.28
   0   4   7    1.16    0.33
  -1  -4  -7    1.47    0.35
  -1  -4  -7    0.84    0.26
  -1  -4  -7    0.54    0.32
   1   4   7    1.24    0.28
   1   4   7    1.50    0.32
  -2  -4  -7    0.87    0.30
  -2  -4  -7    0.18    0.27
  -2  -4  -7    0.17    0.24
   2   4   7    0.02    0.21
   2   4   7    0.29    0.24
  -3  -4  -7    1.48    0.31
  -3  -4  -7    2.10    0.35
  -3  -4  -7    1.93    0.34
   3   4   7    1.50    0.31
   3   4   7    1.71    0.23
  -4  -4  -7    0.31    0.29
  -4  -4  -7    0.62    0.27
  -4  -4  -7    0.28    0.28
   4   4   7    0.75    0.26
   4   4   7    0.98    0.22
   4   4   7    0.20    0.31
  -5  -4  -7    0.59    0.35
  -5  -4  -7    0.22    0.28
   5   4   7    0.98    0.25
  -6  -4  -7    2.01    0.41
   6   4   7    2.22    0.30
  -7  -4  -7    1.96    0.43
   7   4   7    2.55    0.29
  -8  -4  -7    0.54    0.47
   8   4   7    0.53    0.27
   2  -5  -7   -0.82    0.40
   2  -5  -7   -0.15    0.46
  -2   5   7    0.64    0.40
  -2   5   7    0.41    0.48
   1  -5  -7    1.30    0.44
   1  -5  -7    0.58    0.30
   1  -5  -7    0.45    0.40
  -1   5   7    0.75    0.35
  -1   5   7    0.11    0.41
   0  -5  -7    0.94    0.30
   0  -5  -7    1.23    0.40
   0  -5  -7    1.84    0.42
   0   5   7    1.24    0.31
   0   5   7    1.28    0.38
  -1  -5  -7    3.16    0.37
  -1  -5  -7    2.79    0.43
  -1  -5  -7    2.55    0.41
   1   5   7    3.16    0.40
   1   5   7    2.73    0.40
  -2  -5  -7    2.52    0.38
  -2  -5  -7    2.08    0.33
  -2  -5  -7    1.67    0.39
   2   5   7    2.45    0.27
   2   5   7    2.34    0.37
  -3  -5  -7    8.30    0.63
  -3  -5  -7    8.82    0.54
  -3  -5  -7    8.69    0.60
   3   5   7    9.35    0.56
   3   5   7    7.92    0.35
  -4  -5  -7    1.94    0.33
  -4  -5  -7    1.37    0.37
  -4  -5  -7    1.22    0.34
   4   5   7    1.32    0.29
  -5  -5  -7    1.60    0.40
  -5  -5  -7    2.21    0.40
  -5  -5  -7    1.60    0.39
  -6  -5  -7    0.21    0.37
  -6  -5  -7   -0.18    0.36
   6   5   7    0.09    0.25
  -7  -5  -7    0.73    0.45
  -7  -5  -7    0.76    0.45
   7   5   7    0.93    0.26
  -8  -5  -7   -0.05    0.47
  -8  -5  -7    0.89    0.53
   1  -6  -7    1.08    0.36
   1  -6  -7    1.37    0.49
   1  -6  -7    1.08    0.49
  -1   6   7    1.37    0.49
  -1   6   7    1.38    0.40
   0  -6  -7    0.92    0.43
   0  -6  -7   -0.05    0.32
   0  -6  -7    1.18    0.44
   0   6   7    0.87    0.32
   0   6   7    0.75    0.41
  -1  -6  -7    0.00    0.36
  -1  -6  -7   -0.14    0.38
  -1  -6  -7   -0.31    0.32
   1   6   7   -0.08    0.33
   1   6   7    0.09    0.28
  -2  -6  -7    3.67    0.40
  -2  -6  -7    3.92    0.47
  -2  -6  -7    4.07    0.48
   2   6   7    3.87    0.36
   2   6   7    4.14    0.47
  -3  -6  -7    2.16    0.39
  -3  -6  -7    1.92    0.40
  -3  -6  -7    1.79    0.38
   3   6   7    1.57    0.34
  -4  -6  -7   11.88    0.77
  -4  -6  -7   11.93    0.67
  -4  -6  -7   10.20    0.70
   4   6   7   12.47    0.62
  -5  -6  -7    1.04    0.39
  -5  -6  -7    0.86    0.37
   5   6   7    0.62    0.29
  -6  -6  -7    3.52    0.51
  -6  -6  -7    4.37    0.53
   6   6   7    3.89    0.47
  -7  -6  -7    0.31    0.44
  -7  -6  -7    0.68    0.41
   0  -7  -7   -0.13    0.43
   0  -7  -7    0.33    0.48
   0  -7  -7    0.47    0.41
   0   7   7   -0.30    0.35
   0   7   7    0.32    0.44
  -1  -7  -7    0.76    0.43
  -1  -7  -7    0.34    0.36
  -1  -7  -7    0.40    0.42
   1   7   7    0.20    0.42
  -2  -7  -7    0.26    0.38
  -2  -7  -7    1.25    0.43
  -2  -7  -7    0.89    0.40
   2   7   7    0.62    0.36
  -3  -7  -7    2.35    0.43
  -3  -7  -7    1.76    0.44
  -3  -7  -7    2.19    0.42
   3   7   7    1.86    0.38
  -4  -7  -7    4.79    0.53
  -4  -7  -7    5.50    0.61
  -4  -7  -7    4.83    0.53
   4   7   7    4.59    0.46
  -5  -7  -7    0.57    0.42
  -5  -7  -7    0.21    0.44
   5   7   7   -0.16    0.30
  -6  -7  -7    0.83    0.45
  -6  -7  -7    1.05    0.47
   6   7   7    1.20    0.33
  -2  -8  -7    1.29    0.44
  -2  -8  -7    1.37    0.52
  -2  -8  -7    2.13    0.52
   2   8   7    1.67    0.46
  -3  -8  -7    1.40    0.45
  -3  -8  -7    1.09    0.48
  -3  -8  -7    1.12    0.47
   3   8   7    0.79    0.43
  -4  -8  -7   -0.24    0.43
  -4  -8  -7   -0.14    0.43
   4   8   7   -0.40    0.35
  -5  -8  -7   -0.16    0.45
  -5  -8  -7    0.08    0.45
   5   8   7   -0.54    0.33
   1   4  -8    1.03    0.42
   1   4  -8    0.39    0.48
  -1  -4   8    0.62    0.42
  -1  -4   8    0.89    0.40
  -1  -4   8   -0.21    0.50
   0   4  -8   -0.44    0.43
   0   4  -8    0.48    0.45
   0  -4   8    0.17    0.50
   0  -4   8    0.32    0.38
   0  -4   8   -0.24    0.36
  -1   4  -8   -0.14    0.43
  -1   4  -8   -0.05    0.41
   1  -4   8    0.57    0.42
   1  -4   8    0.25    0.47
   1  -4   8    1.23    0.38
  -2   4  -8    9.91    0.79
  -2   4  -8    8.04    0.79
   2  -4   8    7.09    0.63
   2  -4   8    7.20    0.85
   2  -4   8    6.89    0.65
  -3   4  -8   11.57    0.91
   3  -4   8    8.24    0.67
   3  -4   8    9.15    0.88
   3  -4   8    8.49    0.67
  -4   4  -8    4.30    0.61
   4  -4   8    4.54    0.54
   4  -4   8    3.35    0.52
   4  -4   8    3.69    0.61
   2   3  -8    0.39    0.45
  -2  -3   8   -0.47    0.36
  -2  -3   8    0.21    0.50
  -2  -3   8   -0.12    0.38
   1   3  -8    0.43    0.40
   1   3  -8    0.23    0.43
  -1  -3   8    0.64    0.36
  -1  -3   8    0.22    0.34
  -1  -3   8   -0.88    0.45
   0   3  -8    0.81    0.36
   0   3  -8    0.43    0.43
   0  -3   8    1.61    0.46
   0  -3   8    0.32    0.34
   0  -3   8    1.10    0.35
  -1   3  -8    2.26    0.44
  -1   3  -8    0.98    0.45
   1  -3   8    1.25    0.37
   1  -3   8    1.33    0.35
   1  -3   8    1.54    0.46
  -2   3  -8    1.52    0.43
  -2   3  -8    1.70    0.44
   2  -3   8    1.46    0.45
   2  -3   8    1.85    0.38
   2  -3   8    1.54    0.39
  -3   3  -8    0.69    0.41
  -3   3  -8    0.81    0.41
   3  -3   8   -0.35    0.40
   3  -3   8    0.40    0.35
   3  -3   8    1.07    0.38
  -4   3  -8    1.47    0.47
   4  -3   8   -0.19    0.41
   4  -3   8    0.06    0.37
   4  -3   8    0.13    0.37
  -5   3  -8   -0.13    0.47
   5  -3   8    0.14    0.39
   5  -3   8   -0.70    0.44
   2   2  -8   -0.07    0.37
   2   2  -8   -0.42    0.41
  -2  -2   8   -0.16    0.48
  -2  -2   8   -0.20    0.40
  -2  -2   8   -0.01    0.32
   1   2  -8    1.02    0.39
   1   2  -8    1.54    0.44
  -1  -2   8    1.27    0.47
  -1  -2   8    1.67    0.33
  -1  -2   8    1.78    0.41
   0   2  -8    3.31    0.42
   0   2  -8    3.77    0.51
   0  -2   8    3.09    0.36
   0  -2   8    2.99    0.50
   0  -2   8    3.80    0.49
  -1   2  -8    0.11    0.35
  -1   2  -8   -0.01    0.38
   1  -2   8    0.36    0.38
   1  -2   8    0.35    0.28
   1  -2   8    0.40    0.32
  -2   2  -8    3.79    0.48
  -2   2  -8    4.18    0.54
   2  -2   8    4.81    0.47
   2  -2   8    4.31    0.48
   2  -2   8    3.55    0.49
  -3   2  -8    0.36    0.35
  -3   2  -8    0.33    0.36
   3  -2   8   -0.68    0.30
   3  -2   8    0.48    0.32
   3  -2   8    0.34    0.35
  -4   2  -8    1.28    0.41
  -4   2  -8    1.48    0.42
   4  -2   8    1.38    0.37
   4  -2   8    1.52    0.36
   4  -2   8    0.82    0.39
  -5   2  -8    1.16    0.46
  -5   2  -8   -0.32    0.42
   5  -2   8    0.34    0.37
   5  -2   8   -0.35    0.34
   5  -2   8    0.17    0.38
  -6   2  -8    0.75    0.46
   6  -2   8    0.10    0.39
   6  -2   8    0.16    0.42
   2   1  -8    4.94    0.60
   2   1  -8    4.91    0.58
  -2  -1   8    6.87    0.82
  -2  -1   8    5.14    0.61
   1   1  -8    1.95    0.41
   1   1  -8    2.88    0.47
  -1  -1   8    2.68    0.44
  -1  -1   8    1.84    0.33
  -1  -1   8    2.46    0.47
   0   1  -8    0.49    0.33
   0   1  -8    0.92    0.37
   0  -1   8    0.59    0.39
   0  -1   8    0.11    0.28
   0  -1   8    0.94    0.36
  -1   1  -8    0.18    0.37
  -1   1  -8   -0.20    0.34
   1  -1   8    0.44    0.31
   1  -1   8    0.10    0.28
   1  -1   8   -0.13    0.33
  -2   1  -8    1.62    0.40
  -2   1  -8    1.30    0.40
   2  -1   8    1.41    0.34
   2  -1   8    1.52    0.32
   2  -1   8    1.76    0.37
  -3   1  -8    2.10    0.40
  -3   1  -8    2.08    0.43
   3  -1   8    1.90    0.40
   3  -1   8    1.69    0.33
   3  -1   8    2.14    0.34
  -4   1  -8    1.64    0.40
  -4   1  -8    1.45    0.40
   4  -1   8    1.72    0.36
   4  -1   8    1.45    0.35
   4  -1   8    1.62    0.39
  -5   1  -8    0.68    0.37
  -5   1  -8    1.07    0.41
   5  -1   8    0.71    0.37
   5  -1   8    0.46    0.35
   5  -1   8    0.27    0.33
  -6   1  -8    1.17    0.46
  -6   1  -8    1.04    0.43
   6  -1   8    0.38    0.37
   6  -1   8    0.92    0.42
  -7   1  -8   -0.20    0.50
   7  -1   8   -0.07    0.40
   7  -1   8   -0.67    0.44
   2   0  -8    2.14    0.48
   2   0  -8    2.22    0.40
  -2   0   8    1.43    0.50
  -2   0   8    1.76    0.45
   1   0  -8    0.43    0.34
   1   0  -8    0.49    0.39
  -1   0   8    0.03    0.31
  -1   0   8    0.43    0.40
   0   0  -8    1.20    0.40
   0   0  -8    2.04    0.39
   0   0   8    2.07    0.37
   0   0   8    2.26    0.44
  -1   0  -8   -0.21    0.31
  -1   0  -8    0.86    0.32
   1   0   8   -0.08    0.26
   1   0   8    0.05    0.28
   1   0   8    0.10    0.31
  -2   0  -8    0.01    0.30
  -2   0  -8    0.76    0.34
   2   0   8    0.09    0.29
   2   0   8    0.02    0.24
   2   0   8    0.14    0.30
  -3   0  -8    4.86    0.62
  -3   0  -8    4.70    0.54
   3   0   8    5.73    0.56
   3   0   8    5.30    0.47
   3   0   8    5.76    0.49
  -4   0  -8    0.44    0.37
  -4   0  -8    0.87    0.35
   4   0   8    1.05    0.32
   4   0   8    0.57    0.30
   4   0   8    0.75    0.31
  -5   0  -8    5.67    0.73
  -5   0  -8    7.28    0.60
   5   0   8    6.74    0.56
   5   0   8    7.25    0.60
   5   0   8    6.47    0.56
  -6   0  -8   -0.16    0.39
  -6   0  -8   -0.14    0.38
   6   0   8    0.25    0.36
   6   0   8    0.03    0.33
  -7   0  -8    0.78    0.49
   7   0   8    2.45    0.46
   7   0   8    1.44    0.42
   2  -1  -8   -0.71    0.38
   2  -1  -8    0.15    0.40
  -2   1   8   -0.49    0.39
  -2   1   8   -0.41    0.45
   1  -1  -8    3.75    0.51
   1  -1  -8    3.61    0.47
  -1   1   8    4.04    0.47
  -1   1   8    3.38    0.52
   0  -1  -8    0.24    0.31
   0  -1  -8    1.13    0.38
   0   1   8    0.69    0.32
   0   1   8    1.28    0.36
  -1  -1  -8    3.22    0.45
  -1  -1  -8    2.67    0.42
   1   1   8    2.62    0.42
   1   1   8    2.92    0.38
  -2  -1  -8    1.82    0.35
  -2  -1  -8    2.16    0.39
   2   1   8    2.18    0.32
   2   1   8    1.72    0.35
  -3  -1  -8   -0.02    0.29
  -3  -1  -8    0.46    0.33
   3   1   8    0.55    0.23
   3   1   8   -0.09    0.27
  -4  -1  -8   -0.11    0.32
  -4  -1  -8   -0.01    0.33
   4   1   8   -0.42    0.23
   4   1   8   -0.63    0.26
  -5  -1  -8    0.66    0.34
  -5  -1  -8   -0.31    0.37
   5   1   8    0.31    0.29
   5   1   8    0.64    0.31
  -6  -1  -8    0.91    0.39
  -6  -1  -8    1.70    0.44
   6   1   8    1.15    0.35
  -7  -1  -8   -0.19    0.44
   7   1   8    0.66    0.36
   2  -2  -8    0.18    0.43
   2  -2  -8    0.04    0.39
  -2   2   8   -0.27    0.38
  -2   2   8    0.34    0.46
   1  -2  -8    1.10    0.38
   1  -2  -8    0.54    0.27
   1  -2  -8    0.71    0.40
  -1   2   8    0.15    0.42
  -1   2   8    1.09    0.39
   0  -2  -8    9.44    0.64
   0  -2  -8   10.92    0.72
   0   2   8   10.82    0.73
   0   2   8    9.26    0.60
  -1  -2  -8    0.50    0.34
  -1  -2  -8    1.68    0.36
   1   2   8    0.77    0.34
   1   2   8    1.63    0.31
  -2  -2  -8    5.19    0.53
  -2  -2  -8    7.33    0.63
   2   2   8    6.19    0.58
   2   2   8    5.92    0.44
  -3  -2  -8    2.32    0.41
  -3  -2  -8    2.76    0.39
   3   2   8    2.38    0.36
  -4  -2  -8    1.21    0.35
  -4  -2  -8    2.08    0.39
   4   2   8    1.30    0.30
   4   2   8    0.93    0.29
  -5  -2  -8   -0.03    0.33
  -5  -2  -8    0.23    0.32
   5   2   8   -0.22    0.28
   5   2   8   -0.05    0.29
  -6  -2  -8    1.58    0.43
  -6  -2  -8    1.22    0.40
   6   2   8    1.12    0.33
  -7  -2  -8    0.47    0.45
   7   2   8    0.30    0.33
  -8  -2  -8    1.17    0.51
   8   2   8   -0.75    0.33
   2  -3  -8    0.26    0.44
   2  -3  -8    0.32    0.44
  -2   3   8   -0.39    0.46
   1  -3  -8    6.17    0.67
   1  -3  -8    6.61    0.77
   1  -3  -8    6.23    0.45
  -1   3   8    8.01    0.78
  -1   3   8    7.97    0.63
   0  -3  -8   14.05    0.81
   0  -3  -8   12.86    0.57
   0  -3  -8   12.97    0.70
   0   3   8   11.35    0.67
   0   3   8   12.19    0.79
  -1  -3  -8   15.67    0.80
  -1  -3  -8   16.76    0.75
   1   3   8   16.05    0.66
   1   3   8   15.61    0.81
  -2  -3  -8   26.97    0.94
  -2  -3  -8   26.73    0.99
   2   3   8   26.61    0.96
   2   3   8   26.83    0.79
  -3  -3  -8    3.23    0.41
  -3  -3  -8    2.70    0.41
   3   3   8    2.56    0.40
   3   3   8    2.52    0.33
  -4  -3  -8   10.04    0.69
  -4  -3  -8   12.02    0.67
   4   3   8   11.57    0.65
   4   3   8   11.89    0.54
  -5  -3  -8    0.32    0.36
  -5  -3  -8    1.30    0.37
   5   3   8    1.03    0.30
  -6  -3  -8    1.71    0.45
  -6  -3  -8    1.84    0.41
   6   3   8    1.85    0.34
  -7  -3  -8    0.92    0.45
   7   3   8    0.97    0.34
  -8  -3  -8    0.01    0.53
   8   3   8   -0.58    0.33
   1  -4  -8    1.75    0.45
   1  -4  -8    0.91    0.48
  -1   4   8    2.03    0.47
  -1   4   8    1.83    0.42
   0  -4  -8    4.36    0.48
   0  -4  -8    3.53    0.52
   0  -4  -8    3.25    0.45
   0   4   8    3.41    0.49
   0   4   8    3.23    0.42
  -1  -4  -8    9.98    0.74
  -1  -4  -8    8.61    0.64
  -1  -4  -8    8.70    0.53
   1   4   8    9.12    0.70
   1   4   8    8.48    0.55
  -2  -4  -8    1.47    0.38
  -2  -4  -8    1.24    0.31
  -2  -4  -8    1.13    0.37
   2   4   8    1.19    0.35
   2   4   8    1.17    0.28
  -3  -4  -8    4.90    0.56
  -3  -4  -8    5.74    0.62
   3   4   8    6.22    0.58
   3   4   8    5.98    0.45
  -4  -4  -8    1.80    0.40
  -4  -4  -8    1.20    0.39
   4   4   8    1.85    0.28
   4   4   8    1.80    0.33
  -5  -4  -8    0.72    0.39
  -5  -4  -8    0.56    0.36
   5   4   8    0.78    0.30
  -6  -4  -8    8.49    0.69
   6   4   8    7.13    0.56
  -7  -4  -8    7.72    0.68
   7   4   8    5.82    0.55
   1  -5  -8    1.38    0.53
   1  -5  -8    1.27    0.46
  -1   5   8    0.54    0.47
  -1   5   8    0.39    0.41
   0  -5  -8   -0.29    0.42
   0  -5  -8   -0.32    0.44
   0  -5  -8   -0.12    0.32
   0   5   8    0.04    0.34
   0   5   8   -0.02    0.39
  -1  -5  -8   -0.32    0.39
  -1  -5  -8    0.69    0.40
  -1  -5  -8    0.96    0.34
   1   5   8    0.69    0.38
   1   5   8    1.15    0.33
  -2  -5  -8    0.69    0.38
  -2  -5  -8    0.24    0.37
  -2  -5  -8    0.46    0.33
   2   5   8    0.80    0.34
   2   5   8   -0.09    0.27
  -3  -5  -8    2.72    0.48
  -3  -5  -8    2.57    0.44
  -3  -5  -8    2.63    0.39
   3   5   8    2.33    0.30
   3   5   8    2.91    0.40
  -4  -5  -8   -0.20    0.37
  -4  -5  -8    0.46    0.34
  -4  -5  -8   -0.11    0.40
   4   5   8    0.68    0.29
  -5  -5  -8    0.10    0.39
  -5  -5  -8    0.90    0.39
  -5  -5  -8    0.66    0.39
   5   5   8    1.21    0.32
  -6  -5  -8    2.08    0.47
  -6  -5  -8    1.87    0.49
   6   5   8    2.54    0.37
  -7  -5  -8    0.02    0.47
  -7  -5  -8    0.50    0.50
   7   5   8    1.05    0.31
   0  -6  -8    0.81    0.49
   0  -6  -8    0.99    0.46
   0  -6  -8    1.51    0.39
   0   6   8    1.15    0.50
   0   6   8    1.65    0.42
  -1  -6  -8    0.18    0.44
  -1  -6  -8    0.26    0.42
  -1  -6  -8   -0.22    0.34
   1   6   8   -0.60    0.32
   1   6   8   -0.27    0.39
  -2  -6  -8    2.04    0.45
  -2  -6  -8    1.71    0.44
  -2  -6  -8    1.36    0.40
   2   6   8    1.47    0.41
  -3  -6  -8    1.10    0.40
  -3  -6  -8    1.33    0.42
  -3  -6  -8    0.56    0.41
   3   6   8    1.03    0.39
  -4  -6  -8    0.31    0.39
  -4  -6  -8    0.62    0.44
  -4  -6  -8    0.87    0.39
   4   6   8   -0.31    0.32
  -5  -6  -8    1.42    0.45
  -5  -6  -8    0.73    0.41
   5   6   8    1.14    0.36
  -6  -6  -8   -0.38    0.45
  -6  -6  -8   -0.80    0.46
   6   6   8   -0.13    0.31
  -7  -6  -8    0.23    0.50
  -2  -7  -8    0.17    0.47
  -2  -7  -8   -0.13    0.43
  -2  -7  -8   -0.06    0.39
   2   7   8   -0.26    0.39
  -3  -7  -8    0.72    0.47
  -3  -7  -8    1.37    0.48
  -3  -7  -8    0.99    0.43
   3   7   8    0.74    0.39
  -4  -7  -8   -0.44    0.40
  -4  -7  -8    0.54    0.42
   4   7   8    0.17    0.36
  -5  -7  -8   -0.28    0.49
  -5  -7  -8    0.57    0.47
   5   7   8    1.18    0.36
  -1   3  -9   -0.13    0.49
  -1   3  -9   -0.38    0.49
   1  -3   9   -0.09    0.38
   1  -3   9   -0.56    0.39
   1  -3   9    0.39    0.51
  -2   3  -9    0.62    0.52
  -2   3  -9    1.49    0.53
   2  -3   9    0.44    0.49
   2  -3   9    0.97    0.43
   2  -3   9    0.21    0.40
  -3   3  -9    1.51    0.54
  -3   3  -9    2.35    0.55
   3  -3   9    2.02    0.47
   3  -3   9    1.83    0.54
   3  -3   9    1.48    0.46
   0   2  -9    1.18    0.46
   0   2  -9    0.87    0.47
   0  -2   9    0.74    0.39
   0  -2   9   -0.02    0.50
   0  -2   9    0.31    0.41
  -1   2  -9    0.25    0.45
  -1   2  -9    0.35    0.43
   1  -2   9   -0.68    0.45
   1  -2   9   -0.29    0.40
   1  -2   9    0.04    0.36
  -2   2  -9    1.86    0.49
  -2   2  -9    0.79    0.50
   2  -2   9    1.39    0.38
   2  -2   9    1.17    0.45
   2  -2   9    2.27    0.42
  -3   2  -9   -0.15    0.47
  -3   2  -9    0.22    0.44
   3  -2   9    0.18    0.42
   3  -2   9   -0.32    0.36
   3  -2   9   -0.45    0.38
  -4   2  -9   -0.24    0.45
  -4   2  -9    0.43    0.42
   4  -2   9    0.68    0.44
   4  -2   9    0.02    0.36
   4  -2   9   -0.30    0.36
  -5   2  -9    1.03    0.48
  -5   2  -9   -0.07    0.48
   5  -2   9    1.24    0.47
   5  -2   9    0.29    0.41
   5  -2   9    0.37    0.44
   1   1  -9    2.39    0.50
   1   1  -9    3.49    0.58
  -1  -1   9    3.12    0.42
  -1  -1   9    2.98    0.57
  -1  -1   9    3.11    0.52
   0   1  -9    3.58    0.55
   0   1  -9    4.26    0.54
   0  -1   9    4.56    0.57
   0  -1   9    2.37    0.40
   0  -1   9    4.07    0.57
  -1   1  -9    2.24    0.49
  -1   1  -9    2.28    0.48
   1  -1   9    2.74    0.41
   1  -1   9    1.71    0.38
   1  -1   9    1.93    0.50
  -2   1  -9    5.88    0.69
  -2   1  -9    6.87    0.79
   2  -1   9    4.98    0.61
   2  -1   9    5.25    0.59
   2  -1   9    5.12    0.60
  -3   1  -9    0.59    0.45
  -3   1  -9    0.48    0.45
   3  -1   9    0.62    0.38
   3  -1   9    0.59    0.36
   3  -1   9    0.01    0.34
  -4   1  -9    2.21    0.53
  -4   1  -9    3.15    0.53
   4  -1   9    2.33    0.44
   4  -1   9    2.26    0.45
   4  -1   9    2.51    0.46
  -5   1  -9    2.34    0.47
   5  -1   9    1.89    0.44
   5  -1   9    1.37    0.41
   5  -1   9    2.21    0.43
  -6   1  -9    1.38    0.50
  -6   1  -9    1.60    0.53
   6  -1   9    1.36    0.47
   6  -1   9    0.74    0.45
   1   0  -9    2.08    0.50
   1   0  -9    2.71    0.50
  -1   0   9    2.33    0.49
  -1   0   9    2.47    0.58
   0   0  -9    0.54    0.44
   0   0  -9    0.20    0.42
   0   0   9    0.10    0.36
   0   0   9    0.09    0.42
  -1   0  -9    0.46    0.42
  -1   0  -9    0.20    0.39
   1   0   9    1.24    0.34
   1   0   9    0.68    0.35
   1   0   9    0.55    0.41
  -2   0  -9    0.92    0.45
  -2   0  -9    1.29    0.42
   2   0   9    0.49    0.35
   2   0   9    0.53    0.39
   2   0   9    0.87    0.35
  -3   0  -9   -0.64    0.35
  -3   0  -9    0.26    0.43
   3   0   9   -0.12    0.34
   3   0   9   -0.39    0.31
   3   0   9    0.60    0.35
  -4   0  -9   -0.61    0.41
  -4   0  -9   -0.13    0.39
   4   0   9   -0.01    0.34
   4   0   9    0.74    0.37
   4   0   9    0.30    0.35
  -5   0  -9    1.43    0.46
  -5   0  -9    1.14    0.49
   5   0   9    1.73    0.41
   5   0   9    1.06    0.40
   5   0   9    1.19    0.39
  -6   0  -9   -0.55    0.45
  -6   0  -9   -0.31    0.52
   6   0   9    0.35    0.42
   6   0   9   -0.44    0.38
   1  -1  -9    0.79    0.42
   1  -1  -9    1.21    0.48
  -1   1   9    0.09    0.42
  -1   1   9    0.90    0.50
   0  -1  -9    0.25    0.41
   0  -1  -9    0.14    0.41
   0   1   9   -0.02    0.36
   0   1   9   -0.01    0.41
  -1  -1  -9    0.22    0.40
  -1  -1  -9    0.99    0.44
   1   1   9    0.51    0.40
   1   1   9    0.47    0.34
  -2  -1  -9    0.43    0.39
  -2  -1  -9    0.43    0.40
   2   1   9    0.09    0.36
   2   1   9    0.64    0.34
  -3  -1  -9    0.19    0.39
  -3  -1  -9    0.61    0.38
   3   1   9    0.88    0.31
   3   1   9   -0.13    0.32
  -4  -1  -9   -0.13    0.40
  -4  -1  -9    0.19    0.35
   4   1   9   -0.34    0.34
   4   1   9   -0.23    0.31
  -5  -1  -9    0.69    0.45
  -5  -1  -9    0.29    0.42
   5   1   9   -0.33    0.34
   5   1   9    0.03    0.34
  -6  -1  -9    1.49    0.51
  -6  -1  -9    0.46    0.48
   6   1   9    1.19    0.41
  -7  -1  -9    0.83    0.53
   7   1   9    0.59    0.40
   1  -2  -9    1.43    0.54
   1  -2  -9    2.56    0.49
  -1   2   9    1.64    0.57
  -1   2   9    2.77    0.50
   0  -2  -9    0.57    0.44
   0  -2  -9    0.89    0.41
   0   2   9    0.55    0.45
   0   2   9    0.77    0.39
  -1  -2  -9   -0.22    0.37
  -1  -2  -9    0.74    0.43
   1   2   9    0.27    0.35
   1   2   9    0.31    0.37
  -2  -2  -9    1.68    0.43
  -2  -2  -9    1.87    0.44
   2   2   9    2.05    0.38
   2   2   9    2.14    0.42
  -3  -2  -9    0.78    0.42
  -3  -2  -9    0.20    0.37
   3   2   9    0.43    0.34
   3   2   9    0.67    0.31
  -4  -2  -9    1.59    0.41
  -4  -2  -9    2.23    0.45
   4   2   9    1.42    0.36
   4   2   9    1.81    0.37
  -5  -2  -9    0.26    0.41
  -5  -2  -9    0.27    0.40
   5   2   9    0.85    0.35
   5   2   9    0.53    0.33
  -6  -2  -9   -0.42    0.42
  -6  -2  -9   -0.07    0.46
   6   2   9   -0.56    0.31
  -7  -2  -9   -0.07    0.49
   7   2   9   -0.37    0.38
   1  -3  -9    0.17    0.51
   0  -3  -9    3.29    0.53
   0  -3  -9    2.95    0.53
   0  -3  -9    3.06    0.41
   0   3   9    3.52    0.54
   0   3   9    2.52    0.46
  -1  -3  -9    4.28    0.55
  -1  -3  -9    4.03    0.55
   1   3   9    4.72    0.58
   1   3   9    3.75    0.53
  -2  -3  -9    6.10    0.75
  -2  -3  -9    4.44    0.53
   2   3   9    4.73    0.54
   2   3   9    5.23    0.67
  -3  -3  -9   14.58    0.87
  -3  -3  -9   13.26    0.77
   3   3   9   13.93    0.65
   3   3   9   13.99    0.80
  -4  -3  -9    1.25    0.42
  -4  -3  -9    1.89    0.45
   4   3   9    2.33    0.39
   4   3   9    1.52    0.34
  -5  -3  -9    3.73    0.52
  -5  -3  -9    3.12    0.49
   5   3   9    2.69    0.43
   5   3   9    3.10    0.40
  -6  -3  -9    0.76    0.44
   6   3   9    1.15    0.38
  -7  -3  -9   -0.32    0.49
   7   3   9   -0.04    0.36
   0  -4  -9    0.53    0.38
   0  -4  -9    0.03    0.50
   0  -4  -9    0.31    0.43
   0   4   9    0.66    0.47
   0   4   9    0.54    0.41
  -1  -4  -9    0.49    0.35
  -1  -4  -9    0.70    0.44
  -1  -4  -9    0.43    0.46
   1   4   9   -0.23    0.36
   1   4   9    0.05    0.42
  -2  -4  -9    2.90    0.50
  -2  -4  -9    1.51    0.47
  -2  -4  -9    1.52    0.38
   2   4   9    1.62    0.42
  -3  -4  -9    0.52    0.42
  -3  -4  -9   -0.89    0.35
   3   4   9   -0.35    0.30
   3   4   9    0.16    0.35
  -4  -4  -9    2.51    0.50
  -4  -4  -9    2.61    0.48
   4   4   9    2.75    0.44
   4   4   9    2.52    0.38
  -5  -4  -9    0.60    0.42
  -5  -4  -9   -0.30    0.40
   5   4   9    0.26    0.34
  -6  -4  -9    2.03    0.50
   6   4   9    1.48    0.38
  -7  -4  -9    0.84    0.52
   7   4   9    0.28    0.37
  -1  -5  -9    0.29    0.39
  -1  -5  -9   -0.42    0.49
  -1  -5  -9   -0.05    0.44
   1   5   9    0.24    0.37
   1   5   9    0.38    0.44
  -2  -5  -9    1.59    0.48
  -2  -5  -9    1.27    0.48
  -2  -5  -9    1.81    0.43
   2   5   9    1.37    0.35
   2   5   9    1.32    0.45
  -3  -5  -9    0.10    0.42
  -3  -5  -9    0.03    0.38
  -3  -5  -9   -0.20    0.45
   3   5   9    0.70    0.37
  -4  -5  -9    2.28    0.48
  -4  -5  -9    3.40    0.49
  -4  -5  -9    2.43    0.50
   4   5   9    1.96    0.42
  -5  -5  -9   -0.09    0.42
  -5  -5  -9    0.17    0.41
   5   5   9    0.19    0.35
  -6  -5  -9   -0.88    0.48
  -6  -5  -9    0.41    0.47
   6   5   9    0.47    0.35
  -2  -6  -9    0.36    0.48
  -2  -6  -9    0.23    0.51
  -2  -6  -9    1.06    0.45
   2   6   9    0.63    0.44
  -3  -6  -9    0.56    0.46
  -3  -6  -9    0.11    0.47
   3   6   9    0.00    0.37
  -4  -6  -9    1.49    0.51
  -4  -6  -9    0.81    0.50
  -4  -6  -9    0.27    0.47
   4   6   9    1.28    0.41
  -5  -6  -9    0.67    0.50
  -5  -6  -9    0.26    0.46
   5   6   9    0.88    0.39
  -2   1 -10    1.07    0.51
  -2   1 -10    0.86    0.52
   2  -1  10    0.18    0.41
   2  -1  10    0.20    0.51
   2  -1  10   -0.27    0.41
  -3   1 -10    1.02    0.54
  -3   1 -10    0.58    0.50
   3  -1  10    0.51    0.42
   3  -1  10   -0.64    0.46
   3  -1  10    0.55    0.45
  -1   0 -10    0.57    0.53
  -1   0 -10   -0.72    0.48
   1   0  10    0.11    0.42
   1   0  10   -0.23    0.45
  -2   0 -10    4.28    0.62
  -2   0 -10    3.20    0.59
   2   0  10    2.58    0.50
   2   0  10    3.18    0.56
  -3   0 -10    0.77    0.50
  -3   0 -10    0.58    0.50
   3   0  10    0.06    0.39
   3   0  10   -0.57    0.41
   3   0  10    0.76    0.37
  -4   0 -10   -0.01    0.48
  -4   0 -10    0.15    0.52
   4   0  10   -0.23    0.42
   4   0  10   -0.18    0.42
   4   0  10    0.22    0.38
  -5   0 -10   -0.34    0.52
  -5   0 -10   -0.17    0.52
   5   0  10    0.35    0.43
   5   0  10    0.13    0.44
  -1  -1 -10    0.56    0.49
  -1  -1 -10   -0.06    0.50
   1   1  10    1.13    0.49
   1   1  10    0.37    0.43
  -2  -1 -10    0.65    0.53
  -2  -1 -10   -0.56    0.47
   2   1  10    0.87    0.43
   2   1  10    0.56    0.44
  -3  -1 -10    1.79    0.46
  -3  -1 -10    0.54    0.49
   3   1  10    0.34    0.42
  -4  -1 -10   -0.06    0.43
  -4  -1 -10   -0.05    0.48
   4   1  10   -0.21    0.40
  -5  -1 -10   -0.39    0.46
  -5  -1 -10    0.71    0.52
   5   1  10    0.16    0.41
   5   1  10   -0.21    0.41
  -1  -2 -10    0.84    0.57
  -1  -2 -10    1.00    0.51
   1   2  10    0.39    0.48
   1   2  10    0.82    0.45
  -2  -2 -10    0.52    0.45
   2   2  10    1.00    0.40
   2   2  10   -0.20    0.44
  -3  -2 -10    1.39    0.53
  -3  -2 -10    0.35    0.49
   3   2  10    1.46    0.42
   3   2  10    0.95    0.44
  -4  -2 -10    1.28    0.45
  -4  -2 -10    0.60    0.50
   4   2  10   -0.51    0.36
   4   2  10    0.30    0.38
  -5  -2 -10    6.05    0.68
  -5  -2 -10    5.89    0.73
   5   2  10    5.81    0.62
   5   2  10    5.17    0.65
  -2  -3 -10    2.45    0.53
  -2  -3 -10    2.80    0.58
   2   3  10    3.33    0.48
   2   3  10    3.24    0.53
  -3  -3 -10    0.62    0.52
  -3  -3 -10    1.11    0.52
   3   3  10    0.38    0.41
   3   3  10    0.71    0.44
  -4  -3 -10   14.24    0.93
  -4  -3 -10   11.19    0.92
   4   3  10   13.00    0.86
   4   3  10   10.31    0.71
  -5  -3 -10    2.51    0.54
  -5  -3 -10    2.80    0.57
   5   3  10    2.18    0.43
   5   3  10    2.48    0.48
  -2  -4 -10   -0.21    0.49
  -2  -4 -10   -0.13    0.54
  -2  -4 -10   -0.08    0.38
   2   4  10    0.65    0.47
   2   4  10   -0.78    0.39
  -3  -4 -10    6.39    0.74
  -3  -4 -10    7.74    0.92
   3   4  10    6.39    0.64
   3   4  10    7.19    0.83
  -4  -4 -10    1.52    0.48
  -4  -4 -10    1.04    0.53
   4   4  10    0.80    0.39
   4   4  10    1.35    0.44
  -5  -4 -10    1.14    0.52
   5   4  10    1.50    0.45
   0   0   0    0.00    0.00
;
_shelx_hkl_checksum              15316
#END Tags that were not found in dictionaries
loop_
_space_group_symop_operation_xyz
'x, y, z'
'-x, -y, -z'
loop_
_atom_site_type_symbol
_atom_site_label
_atom_site_fract_x
_atom_site_fract_y
_atom_site_fract_z
_atom_site_U_iso_or_equiv
_atom_site_adp_type
_atom_site_calc_flag
_atom_site_refinement_flags_adp
_atom_site_refinement_flags_occupancy
_atom_site_refinement_flags_posn
_atom_site_occupancy
_atom_site_disorder_assembly
_atom_site_disorder_group
C C1 0.2562(7) 0.6141(5) 0.7549(5) 0.0559(14) Uani d . . . 1.0 . .
H H1A 0.127 0.6234 0.7942 0.084 Uiso calc U . R 1.0 . .
H H1B 0.2858 0.7118 0.6967 0.084 Uiso calc U . R 1.0 . .
H H1C 0.3015 0.5915 0.8398 0.084 Uiso calc U . R 1.0 . .
C C2 0.2005(6) 0.3106(5) 0.8805(4) 0.0399(11) Uani d . . . 1.0 . .
H H2 0.1536 0.3909 0.946 0.048 Uiso calc U . R 1.0 . .
C C3 0.1708(7) 0.1622(5) 0.9385(5) 0.0521(13) Uani d . . . 1.0 . .
H H3 0.1051 0.1434 1.0431 0.063 Uiso calc U . R 1.0 . .
C C4 0.2342(7) 0.0393(5) 0.8480(5) 0.0551(14) Uani d . . . 1.0 . .
H H4 0.2126 -0.0618 0.8891 0.066 Uiso calc U . R 1.0 . .
C C5 0.3312(6) 0.0711(5) 0.6939(5) 0.0501(13) Uani d . . . 1.0 . .
H H5 0.376 -0.0097 0.6291 0.06 Uiso calc U . R 1.0 . .
C C6 0.3620(6) 0.2178(5) 0.6357(4) 0.0417(12) Uani d . . . 1.0 . .
H H6 0.428 0.2348 0.5309 0.05 Uiso calc U . R 1.0 . .
C C7 0.2999(5) 0.3455(5) 0.7248(4) 0.0345(10) Uani d . . . 1.0 . .
C C8 0.3144(11) 0.3058(7) 0.2515(9) 0.103(3) Uani d . . . 1.0 . .
H H8A 0.2068 0.2621 0.299 0.155 Uiso calc U . R 1.0 . .
H H8B 0.4129 0.2353 0.2778 0.155 Uiso calc U . R 1.0 . .
H H8C 0.3439 0.3192 0.1411 0.155 Uiso calc U . R 1.0 . .
C C9 0.1456(9) 0.5585(8) 0.2680(8) 0.089(2) Uani d . . . 1.0 . .
H H9A 0.045 0.5078 0.2854 0.107 Uiso calc U . R 1.0 A 1
H H9B 0.1873 0.6001 0.1599 0.107 Uiso calc U . R 1.0 A 1
C C10A 0.0855(19) 0.6915(17) 0.371(3) 0.075(6) Uani d . P . 0.44(2) B 1
H H10A 0.0051 0.7779 0.3342 0.09 Uiso calc U P R 0.44(2) B 1
H H10B 0.0178 0.6536 0.4755 0.09 Uiso calc U P R 0.44(2) B 1
C C10B 0.180(2) 0.7193(15) 0.2478(17) 0.092(6) Uani d . P . 0.56(2) B 2
H H10C 0.2814 0.733 0.1535 0.111 Uiso calc U P R 0.56(2) B 2
H H10D 0.0743 0.7963 0.2389 0.111 Uiso calc U P R 0.56(2) B 2
C C11 0.229(3) 0.8824(17) 0.330(5) 0.59(3) Uani d . . . 1.0 . .
H H11A 0.2654 0.9245 0.3988 0.884 Uiso calc U . R 1.0 . .
H H11B 0.1122 0.9419 0.3286 0.884 Uiso calc U . R 1.0 . .
H H11C 0.3158 0.8897 0.2272 0.884 Uiso calc U . R 1.0 . .
Li Li1 0.3839(9) 0.5457(8) 0.4304(8) 0.0407(17) Uani d . . . 1.0 . .
N N1 0.3374(4) 0.4881(4) 0.6563(4) 0.0379(10) Uani d . . . 1.0 . .
O O1 0.2853(5) 0.4497(4) 0.3041(4) 0.0654(11) Uani d . . . 1.0 . .
O O2 0.2188(6) 0.7434(4) 0.3740(5) 0.0736(13) Uani d . . . 1.0 . .
loop_
_atom_site_aniso_label
_atom_site_aniso_U_11
_atom_site_aniso_U_22
_atom_site_aniso_U_33
_atom_site_aniso_U_12
_atom_site_aniso_U_13
_atom_site_aniso_U_23
C1 0.065(3) 0.044(3) 0.047(3) -0.016(2) 0.000(2) -0.012(2)
C2 0.046(3) 0.037(2) 0.031(2) -0.007(2) -0.0055(19) -0.0085(18)
C3 0.060(3) 0.051(3) 0.033(2) -0.014(2) -0.004(2) 0.003(2)
C4 0.061(3) 0.039(3) 0.056(3) -0.012(2) -0.011(3) 0.003(2)
C5 0.056(3) 0.037(3) 0.048(3) -0.001(2) -0.008(2) -0.013(2)
C6 0.049(3) 0.040(3) 0.027(2) -0.005(2) -0.0051(19) -0.0041(18)
C7 0.033(2) 0.038(2) 0.030(2) -0.0047(18) -0.0081(18) -0.0059(18)
C8 0.136(6) 0.082(5) 0.126(6) 0.023(4) -0.095(5) -0.047(4)
C9 0.100(5) 0.077(4) 0.117(5) 0.011(4) -0.081(4) -0.020(4)
C10A 0.037(8) 0.081(10) 0.108(17) -0.001(7) -0.034(9) -0.007(9)
C10B 0.112(12) 0.092(10) 0.059(9) 0.027(8) -0.045(9) -0.002(7)
C11 0.43(3) 0.116(11) 1.24(9) -0.158(17) -0.40(5) 0.28(3)
Li1 0.043(4) 0.038(4) 0.042(4) -0.005(3) -0.018(3) -0.002(3)
N1 0.041(2) 0.032(2) 0.0344(19) -0.0082(16) -0.0033(15) -0.0056(15)
O1 0.072(2) 0.059(2) 0.080(2) 0.0054(18) -0.051(2) -0.0133(18)
O2 0.089(3) 0.046(2) 0.095(3) 0.004(2) -0.056(2) -0.0012(19)
loop_
_atom_type_symbol
_atom_type_description
_atom_type_scat_dispersion_real
_atom_type_scat_dispersion_imag
_atom_type_scat_source
C C 0.0033 0.0016 'International Tables Vol C Tables 4.2.6.8 and 6.1.1.4'
H H 0.0000 0.0000 'International Tables Vol C Tables 4.2.6.8 and 6.1.1.4'
O O 0.0106 0.0060 'International Tables Vol C Tables 4.2.6.8 and 6.1.1.4'
Li Li -0.0003 0.0001 'International Tables Vol C Tables 4.2.6.8 and 6.1.1.4'
N N 0.0061 0.0033 'International Tables Vol C Tables 4.2.6.8 and 6.1.1.4'
loop_
_geom_angle_atom_site_label_1
_geom_angle_atom_site_label_2
_geom_angle_atom_site_label_3
_geom_angle_site_symmetry_1
_geom_angle_site_symmetry_3
_geom_angle
N1 C1 H1A . . 109.5
N1 C1 H1B . . 109.5
H1A C1 H1B . . 109.5
N1 C1 H1C . . 109.5
H1A C1 H1C . . 109.5
H1B C1 H1C . . 109.5
C3 C2 C7 . . 121.5(4)
C3 C2 H2 . . 119.2
C7 C2 H2 . . 119.2
C4 C3 C2 . . 122.1(4)
C4 C3 H3 . . 118.9
C2 C3 H3 . . 118.9
C3 C4 C5 . . 117.4(4)
C3 C4 H4 . . 121.3
C5 C4 H4 . . 121.3
C6 C5 C4 . . 120.9(4)
C6 C5 H5 . . 119.6
C4 C5 H5 . . 119.6
C5 C6 C7 . . 123.2(4)
C5 C6 H6 . . 118.4
C7 C6 H6 . . 118.4
N1 C7 C6 . . 119.0(3)
N1 C7 C2 . . 126.2(4)
C6 C7 C2 . . 114.9(4)
N1 C7 Li1 . 2_666 46.3(2)
C6 C7 Li1 . 2_666 91.0(3)
C2 C7 Li1 . 2_666 134.9(3)
O1 C8 H8A . . 109.5
O1 C8 H8B . . 109.5
H8A C8 H8B . . 109.5
O1 C8 H8C . . 109.5
H8A C8 H8C . . 109.5
H8B C8 H8C . . 109.5
O1 C9 C10B . . 109.7(7)
O1 C9 C10A . . 108.0(7)
O1 C9 H9A . . 110.1
C10A C9 H9A . . 110.1
O1 C9 H9B . . 110.1
C10A C9 H9B . . 110.1
H9A C9 H9B . . 108.4
O2 C10A C9 . . 112.7(11)
O2 C10A Li1 . . 48.2(5)
C9 C10A Li1 . . 80.9(6)
O2 C10A H10A . . 109.1
C9 C10A H10A . . 109.1
Li1 C10A H10A . . 156.7
O2 C10A H10B . . 109.0
C9 C10A H10B . . 109.0
Li1 C10A H10B . . 87.6
H10A C10A H10B . . 107.8
O2 C10B C9 . . 109.5(9)
O2 C10B H10C . . 109.8
C9 C10B H10C . . 109.8
O2 C10B H10D . . 109.8
C9 C10B H10D . . 109.8
H10C C10B H10D . . 108.2
O2 C11 H11A . . 109.7
O2 C11 H11B . . 109.7
H11A C11 H11B . . 109.3
O2 C11 H11C . . 109.5
H11A C11 H11C . . 109.3
H11B C11 H11C . . 109.3
N1 Li1 O1 . . 123.9(4)
N1 Li1 O2 . . 115.3(4)
O1 Li1 O2 . . 81.5(3)
N1 Li1 N1 . 2_666 101.8(3)
O1 Li1 N1 . 2_666 112.0(3)
O2 Li1 N1 . 2_666 123.5(4)
N1 Li1 Li1 . 2_666 52.1(3)
O1 Li1 Li1 . 2_666 137.3(5)
O2 Li1 Li1 . 2_666 141.1(5)
N1 Li1 Li1 2_666 2_666 49.7(2)
N1 Li1 C10A . . 112.1(6)
O1 Li1 C10A . . 58.8(4)
O2 Li1 C10A . . 28.1(3)
N1 Li1 C10A 2_666 . 143.8(6)
Li1 Li1 C10A 2_666 . 160.5(6)
N1 Li1 C7 . 2_666 114.0(3)
O1 Li1 C7 . 2_666 117.0(3)
O2 Li1 C7 . 2_666 95.7(3)
N1 Li1 C7 2_666 2_666 28.22(15)
Li1 Li1 C7 2_666 2_666 66.8(3)
C10A Li1 C7 . 2_666 119.7(5)
C7 N1 C1 . . 114.7(3)
C7 N1 Li1 . . 121.1(3)
C1 N1 Li1 . . 117.3(3)
C7 N1 Li1 . 2_666 105.4(3)
C1 N1 Li1 . 2_666 112.7(3)
Li1 N1 Li1 . 2_666 78.2(3)
C8 O1 C9 . . 112.5(4)
C8 O1 Li1 . . 137.1(4)
C9 O1 Li1 . . 110.4(4)
C10A O2 C11 . . 119.4(13)
C11 O2 C10B . . 94.2(18)
C10A O2 Li1 . . 103.7(7)
C11 O2 Li1 . . 136.3(11)
C10B O2 Li1 . . 108.6(5)
loop_
_geom_bond_atom_site_label_1
_geom_bond_atom_site_label_2
_geom_bond_site_symmetry_2
_geom_bond_distance
C1 N1 . 1.451(5)
C1 H1A . 0.97
C1 H1B . 0.97
C1 H1C . 0.97
C2 C3 . 1.372(6)
C2 C7 . 1.412(6)
C2 H2 . 0.94
C3 C4 . 1.383(6)
C3 H3 . 0.94
C4 C5 . 1.391(6)
C4 H4 . 0.94
C5 C6 . 1.360(6)
C5 H5 . 0.94
C6 C7 . 1.410(6)
C6 H6 . 0.94
C7 N1 . 1.361(5)
C7 Li1 2_666 2.774(8)
C8 O1 . 1.384(6)
C8 H8A . 0.97
C8 H8B . 0.97
C8 H8C . 0.97
C9 O1 . 1.404(7)
C9 C10B . 1.484(16)
C9 C10A . 1.533(17)
C9 H9A . 0.98
C9 H9B . 0.98
C10A O2 . 1.294(13)
C10A Li1 . 2.667(15)
C10A H10A . 0.98
C10A H10B . 0.98
C10B O2 . 1.402(12)
C10B H10C . 0.98
C10B H10D . 0.98
C11 O2 . 1.238(11)
C11 H11A . 0.9711
C11 H11B . 0.9711
C11 H11C . 0.9711
Li1 N1 . 2.012(7)
Li1 O1 . 2.049(7)
Li1 O2 . 2.046(8)
Li1 N1 2_666 2.083(8)
Li1 Li1 2_666 2.584(14)
Li1 C7 2_666 2.774(8)
N1 Li1 2_666 2.083(8)
loop_
_geom_torsion_atom_site_label_1
_geom_torsion_atom_site_label_2
_geom_torsion_atom_site_label_3
_geom_torsion_atom_site_label_4
_geom_torsion_site_symmetry_1
_geom_torsion_site_symmetry_4
_geom_torsion
C7 C2 C3 C4 . . -0.8(7)
C2 C3 C4 C5 . . 0.2(7)
C3 C4 C5 C6 . . 0.2(7)
C4 C5 C6 C7 . . 0.1(7)
C5 C6 C7 N1 . . -180.0(4)
C5 C6 C7 C2 . . -0.6(7)
C5 C6 C7 Li1 . 2_666 141.3(4)
C3 C2 C7 N1 . . -179.8(4)
C3 C2 C7 C6 . . 0.9(6)
C3 C2 C7 Li1 . 2_666 -118.4(5)
O1 C9 C10A O2 . . 47.8(16)
C10B C9 C10A O2 . . -52.3(11)
O1 C9 C10A Li1 . . 10.8(7)
C10B C9 C10A Li1 . . -89.4(9)
O1 C9 C10B O2 . . -50.4(13)
C10A C9 C10B O2 . . 45.7(9)
C6 C7 N1 C1 . . 175.6(4)
C2 C7 N1 C1 . . -3.7(6)
Li1 C7 N1 C1 2_666 . -124.5(5)
C6 C7 N1 Li1 . . 25.5(6)
C2 C7 N1 Li1 . . -153.8(4)
Li1 C7 N1 Li1 2_666 . 85.4(4)
C6 C7 N1 Li1 . 2_666 -59.9(5)
C2 C7 N1 Li1 . 2_666 120.8(4)
C10B C9 O1 C8 . . -149.8(8)
C10A C9 O1 C8 . . 162.5(9)
C10B C9 O1 Li1 . . 32.9(9)
C10A C9 O1 Li1 . . -14.8(10)
C9 C10A O2 C11 . . 119.(2)
Li1 C10A O2 C11 . . 172.(2)
C9 C10A O2 C10B . . 50.1(12)
Li1 C10A O2 C10B . . 103.0(9)
C9 C10A O2 Li1 . . -52.9(14)
C9 C10B O2 C10A . . -50.9(12)
C9 C10B O2 C11 . . -176.1(16)
C9 C10B O2 Li1 . . 41.8(13)
