#------------------------------------------------------------------------------
#$Date: 2016-03-21 04:30:10 +0200 (Mon, 21 Mar 2016) $
#$Revision: 178471 $
#$URL: svn://www.crystallography.net/cod/cif/4/02/92/4029267.cif $
#------------------------------------------------------------------------------
#
# This file is available in the Crystallography Open Database (COD),
# http://www.crystallography.net/
#
# All data on this site have been placed in the public domain by the
# contributors.
#
data_4029267
loop_
_publ_author_name
'Priede, Martins'
'Kazak, Mihail'
'Kalnins, Toms'
'Shubin, Kirill'
'Suna, Edgars'
_publ_section_title
;
 Diastereoselective Hydroxymethylation of Cyclic
 N-tert-Butanesulfinylketimines Using Methoxymethanol as Formaldehyde
 Source.
;
_journal_issue                   8
_journal_name_full               'The Journal of organic chemistry'
_journal_page_first              3715
_journal_page_last               3724
_journal_paper_doi               10.1021/jo500506u
_journal_volume                  79
_journal_year                    2014
_chemical_absolute_configuration rmad
_chemical_formula_moiety         'C13 H21 N O2 S2'
_chemical_formula_sum            'C13 H21 N O2 S2'
_chemical_formula_weight         287.43
_chemical_name_systematic
; 
 ? 
;
_space_group_IT_number           4
_symmetry_cell_setting           monoclinic
_symmetry_space_group_name_Hall  'P 2yb'
_symmetry_space_group_name_H-M   'P 1 21 1'
_atom_sites_solution_hydrogens   mixed
_atom_sites_solution_primary     direct
_atom_sites_solution_secondary   difmap
_audit_creation_method           SHELXL-97
_cell_angle_alpha                90.00
_cell_angle_beta                 110.0483(14)
_cell_angle_gamma                90.00
_cell_formula_units_Z            2
_cell_length_a                   7.6984(3)
_cell_length_b                   9.2444(3)
_cell_length_c                   10.9871(5)
_cell_measurement_reflns_used    2714
_cell_measurement_temperature    153(2)
_cell_measurement_theta_max      27.5
_cell_measurement_theta_min      0.9
_cell_volume                     734.54(5)
_computing_structure_refinement  'SHELXL-97 (Sheldrick, 1997)'
_computing_structure_solution    'SHELXS-97 (Sheldrick, 1990)'
_diffrn_ambient_temperature      153(2)
_diffrn_measured_fraction_theta_full 0.99
_diffrn_measured_fraction_theta_max 0.99
_diffrn_measurement_device_type  'Bruker-Nonius KappaCCD'
_diffrn_measurement_method       '\f and \w scan'
_diffrn_radiation_monochromator  graphite
_diffrn_radiation_source         'fine-focus sealed tube'
_diffrn_radiation_type           MoK\a
_diffrn_radiation_wavelength     0.71073
_diffrn_reflns_av_R_equivalents  0.0028
_diffrn_reflns_av_sigmaI/netI    0.0475
_diffrn_reflns_limit_h_max       10
_diffrn_reflns_limit_h_min       -10
_diffrn_reflns_limit_k_max       9
_diffrn_reflns_limit_k_min       -12
_diffrn_reflns_limit_l_max       14
_diffrn_reflns_limit_l_min       -14
_diffrn_reflns_number            3385
_diffrn_reflns_theta_full        28.5
_diffrn_reflns_theta_max         28.5
_diffrn_reflns_theta_min         2.9
_exptl_absorpt_coefficient_mu    0.357
_exptl_absorpt_correction_type   none
_exptl_crystal_colour            Colourless
_exptl_crystal_density_diffrn    1.300
_exptl_crystal_density_method    'not measured'
_exptl_crystal_description       Plate
_exptl_crystal_F_000             308
_exptl_crystal_size_max          0.38
_exptl_crystal_size_mid          0.21
_exptl_crystal_size_min          0.11
_refine_diff_density_max         0.243
_refine_diff_density_min         -0.211
_refine_diff_density_rms         0.048
_refine_ls_abs_structure_details 'Flack H D (1983), Acta Cryst. A39, 876-881'
_refine_ls_abs_structure_Flack   -0.10(6)
_refine_ls_extinction_method     none
_refine_ls_goodness_of_fit_ref   1.005
_refine_ls_hydrogen_treatment    mixed
_refine_ls_matrix_type           full
_refine_ls_number_parameters     171
_refine_ls_number_reflns         3380
_refine_ls_number_restraints     1
_refine_ls_restrained_S_all      1.005
_refine_ls_R_factor_all          0.0387
_refine_ls_R_factor_gt           0.0334
_refine_ls_shift/su_max          0.000
_refine_ls_shift/su_mean         0.000
_refine_ls_structure_factor_coef Fsqd
_refine_ls_weighting_details
'calc w=1/[\s^2^(Fo^2^)+(0.0522P)^2^+0.1010P] where P=(Fo^2^+2Fc^2^)/3'
_refine_ls_weighting_scheme      calc
_refine_ls_wR_factor_gt          0.0873
_refine_ls_wR_factor_ref         0.0912
_reflns_d_resolution_high        0.7400
_reflns_number_gt                3153
_reflns_number_total             3380
_reflns_threshold_expression     >2sigma(I)
_cod_data_source_file            5f.cif
_cod_data_source_block           MKW_I_288
_cod_depositor_comments
;Adding full bibliography for
 ./tmp-cod-update-bibliographies-12971/cifs/4029267.cif.
;
_cod_original_sg_symbol_H-M      'P 21 '
_cod_database_code               4029267
#BEGIN Tags that were not found in dictionaries:
_shelx_title                     ' Compound MKW_I_288'
_shelx_refln_list_code           4
_shelx_f_calc_maximum            61.17
_shelx_f_squared_multiplier      1.000
#END Tags that were not found in dictionaries
loop_
_symmetry_equiv_pos_as_xyz
'x, y, z'
'-x, y+1/2, -z'
loop_
_atom_site_label
_atom_site_type_symbol
_atom_site_fract_x
_atom_site_fract_y
_atom_site_fract_z
_atom_site_U_iso_or_equiv
_atom_site_adp_type
_atom_site_occupancy
_atom_site_symmetry_multiplicity
_atom_site_calc_flag
_atom_site_refinement_flags
S11 S 0.08869(6) 0.11978(5) 0.92681(4) 0.01860(11) Uani 1 1 d .
S1 S 0.34736(8) 0.29604(7) 1.50047(5) 0.03080(14) Uani 1 1 d .
O12 O -0.0666(2) 0.05127(15) 0.96152(14) 0.0240(3) Uani 1 1 d .
O18 O 0.6495(2) 0.1237(2) 1.05330(19) 0.0420(4) Uani 1 1 d .
H18 H 0.735(5) 0.125(6) 1.013(4) 0.082(12) Uiso 1 1 d .
C13 C -0.0311(3) 0.2223(2) 0.77665(18) 0.0212(4) Uani 1 1 d .
C4 C 0.3494(3) 0.2190(2) 1.14057(19) 0.0188(4) Uani 1 1 d .
H4 H 0.3826 0.1237 1.1337 0.023 Uiso 1 1 d R
N10 N 0.1880(2) 0.25145(18) 1.02451(16) 0.0191(3) Uani 1 1 d .
H10 H 0.128(3) 0.323(3) 1.030(2) 0.022(6) Uiso 1 1 d .
C9 C 0.3076(3) 0.2362(2) 1.26425(19) 0.0207(4) Uani 1 1 d .
C15 C 0.1103(3) 0.3120(3) 0.7420(2) 0.0314(5) Uani 1 1 d .
H15A H 0.0498 0.3660 0.6643 0.038 Uiso 1 1 d R
H15B H 0.2008 0.2488 0.7283 0.038 Uiso 1 1 d R
H15C H 0.1701 0.3776 0.8115 0.038 Uiso 1 1 d R
C16 C -0.1111(3) 0.1031(3) 0.6754(2) 0.0331(5) Uani 1 1 d .
H16A H -0.1771 0.1464 0.5931 0.040 Uiso 1 1 d R
H16B H -0.1941 0.0442 0.7023 0.040 Uiso 1 1 d R
H16C H -0.0127 0.0442 0.6678 0.040 Uiso 1 1 d R
C5 C 0.5157(3) 0.3122(2) 1.1416(2) 0.0217(4) Uani 1 1 d .
H5 H 0.4644 0.4094 1.1220 0.026 Uiso 1 1 d R
C8 C 0.4293(3) 0.3004(2) 1.37232(19) 0.0243(4) Uani 1 1 d .
C3 C 0.1441(3) 0.1849(2) 1.2857(2) 0.0253(4) Uani 1 1 d .
H3 H 0.0455 0.1346 1.2232 0.030 Uiso 1 1 d R
C14 C -0.1861(3) 0.3128(2) 0.7936(2) 0.0262(4) Uani 1 1 d .
H14A H -0.1355 0.3936 0.8621 0.031 Uiso 1 1 d R
H14B H -0.2584 0.3543 0.7069 0.031 Uiso 1 1 d R
H14C H -0.2612 0.2427 0.8285 0.031 Uiso 1 1 d R
C6 C 0.6690(3) 0.3057(3) 1.2732(2) 0.0286(4) Uani 1 1 d .
H6A H 0.7047 0.2069 1.2947 0.034 Uiso 1 1 d R
H6B H 0.7736 0.3599 1.2697 0.034 Uiso 1 1 d R
C2 C 0.1470(3) 0.2091(3) 1.4076(2) 0.0302(5) Uani 1 1 d .
H2 H 0.0606 0.2132 1.4547 0.036 Uiso 1 1 d R
C7 C 0.6072(3) 0.3702(3) 1.3798(2) 0.0309(5) Uani 1 1 d .
H7A H 0.7018 0.3434 1.4707 0.037 Uiso 1 1 d R
H7B H 0.5904 0.4800 1.3668 0.037 Uiso 1 1 d R
C17 C 0.5873(3) 0.2693(2) 1.0343(2) 0.0298(5) Uani 1 1 d .
H17A H 0.4899 0.2780 0.9520 0.036 Uiso 1 1 d R
H17B H 0.6879 0.3316 1.0362 0.036 Uiso 1 1 d R
loop_
_atom_site_aniso_label
_atom_site_aniso_U_11
_atom_site_aniso_U_22
_atom_site_aniso_U_33
_atom_site_aniso_U_23
_atom_site_aniso_U_13
_atom_site_aniso_U_12
S11 0.0207(2) 0.0162(2) 0.0186(2) -0.00099(17) 0.00636(16) 0.00060(18)
S1 0.0319(3) 0.0400(3) 0.0181(2) 0.0014(2) 0.0055(2) 0.0037(2)
O12 0.0258(8) 0.0205(7) 0.0268(8) 0.0018(6) 0.0106(6) -0.0042(6)
O18 0.0468(10) 0.0295(8) 0.0639(12) -0.0054(9) 0.0375(9) -0.0030(8)
C13 0.0262(10) 0.0212(10) 0.0150(9) -0.0006(7) 0.0055(8) 0.0006(8)
C4 0.0164(9) 0.0164(9) 0.0215(9) 0.0007(7) 0.0038(7) 0.0022(7)
N10 0.0195(8) 0.0160(8) 0.0200(8) -0.0006(6) 0.0043(6) 0.0028(6)
C9 0.0205(10) 0.0186(10) 0.0219(10) 0.0037(7) 0.0058(8) 0.0030(7)
C15 0.0366(12) 0.0351(13) 0.0250(11) 0.0041(9) 0.0139(9) -0.0003(10)
C16 0.0451(13) 0.0261(12) 0.0223(10) -0.0041(9) 0.0043(9) -0.0013(10)
C5 0.0184(9) 0.0199(10) 0.0264(10) 0.0019(8) 0.0072(8) -0.0001(8)
C8 0.0248(10) 0.0270(11) 0.0188(9) 0.0007(8) 0.0046(8) 0.0031(9)
C3 0.0229(10) 0.0273(11) 0.0254(11) 0.0018(8) 0.0077(8) 0.0003(8)
C14 0.0269(10) 0.0269(11) 0.0230(10) 0.0009(8) 0.0061(8) 0.0054(9)
C6 0.0179(9) 0.0310(12) 0.0340(12) -0.0006(9) 0.0051(8) -0.0017(9)
C2 0.0271(11) 0.0387(13) 0.0261(11) 0.0037(9) 0.0109(9) 0.0021(10)
C7 0.0268(12) 0.0357(13) 0.0238(11) -0.0037(9) 0.0002(9) -0.0057(9)
C17 0.0254(11) 0.0323(13) 0.0354(12) -0.0028(9) 0.0153(9) -0.0048(9)
loop_
_atom_type_symbol
_atom_type_description
_atom_type_scat_dispersion_real
_atom_type_scat_dispersion_imag
_atom_type_scat_source
C C 0.0033 0.0016 'International Tables Vol C Tables 4.2.6.8 and 6.1.1.4'
H H 0.0000 0.0000 'International Tables Vol C Tables 4.2.6.8 and 6.1.1.4'
N N 0.0061 0.0033 'International Tables Vol C Tables 4.2.6.8 and 6.1.1.4'
O O 0.0106 0.0060 'International Tables Vol C Tables 4.2.6.8 and 6.1.1.4'
S S 0.1246 0.1234 'International Tables Vol C Tables 4.2.6.8 and 6.1.1.4'
loop_
_geom_angle_atom_site_label_1
_geom_angle_atom_site_label_2
_geom_angle_atom_site_label_3
_geom_angle
O12 S11 N10 112.31(9)
O12 S11 C13 104.11(9)
N10 S11 C13 100.52(9)
C2 S1 C8 91.78(11)
C17 O18 H18 100(3)
C15 C13 C14 113.00(18)
C15 C13 C16 110.79(18)
C14 C13 C16 110.26(17)
C15 C13 S11 108.82(14)
C14 C13 S11 110.14(14)
C16 C13 S11 103.40(14)
N10 C4 C9 112.39(16)
N10 C4 C5 110.15(16)
C9 C4 C5 111.62(16)
N10 C4 H4 107.2
C9 C4 H4 108.8
C5 C4 H4 106.3
C4 N10 S11 118.95(13)
C4 N10 H10 115.7(17)
S11 N10 H10 119.8(17)
C8 C9 C3 112.17(19)
C8 C9 C4 122.18(18)
C3 C9 C4 125.62(18)
C13 C15 H15A 109.7
C13 C15 H15B 109.1
H15A C15 H15B 109.5
C13 C15 H15C 109.6
H15A C15 H15C 109.5
H15B C15 H15C 109.5
C13 C16 H16A 109.5
C13 C16 H16B 109.2
H16A C16 H16B 109.5
C13 C16 H16C 109.7
H16A C16 H16C 109.5
H16B C16 H16C 109.5
C17 C5 C6 110.97(17)
C17 C5 C4 111.79(17)
C6 C5 C4 110.89(16)
C17 C5 H5 107.3
C6 C5 H5 111.7
C4 C5 H5 104.0
C9 C8 C7 125.29(19)
C9 C8 S1 111.31(16)
C7 C8 S1 123.36(16)
C2 C3 C9 113.0(2)
C2 C3 H3 122.3
C9 C3 H3 124.7
C13 C14 H14A 111.7
C13 C14 H14B 107.4
H14A C14 H14B 111.2
C13 C14 H14C 105.4
H14A C14 H14C 107.6
H14B C14 H14C 113.4
C5 C6 C7 111.64(17)
C5 C6 H6A 109.6
C7 C6 H6A 108.6
C5 C6 H6B 109.2
C7 C6 H6B 108.3
H6A C6 H6B 109.5
C3 C2 S1 111.73(17)
C3 C2 H2 138.7
S1 C2 H2 107.6
C8 C7 C6 108.11(18)
C8 C7 H7A 106.1
C6 C7 H7A 110.0
C8 C7 H7B 110.5
C6 C7 H7B 109.6
H7A C7 H7B 112.4
O18 C17 C5 109.16(18)
O18 C17 H17A 109.5
C5 C17 H17A 109.6
O18 C17 H17B 109.7
C5 C17 H17B 109.4
H17A C17 H17B 109.5
loop_
_geom_bond_atom_site_label_1
_geom_bond_atom_site_label_2
_geom_bond_distance
S11 O12 1.5127(15)
S11 N10 1.6297(17)
S11 C13 1.8512(19)
S1 C2 1.728(2)
S1 C8 1.729(2)
O18 C17 1.420(3)
O18 H18 0.91(4)
C13 C15 1.517(3)
C13 C14 1.520(3)
C13 C16 1.536(3)
C4 N10 1.474(2)
C4 C9 1.508(3)
C4 C5 1.540(3)
C4 H4 0.9281
N10 H10 0.82(3)
C9 C8 1.370(3)
C9 C3 1.438(3)
C15 H15A 0.9600
C15 H15B 0.9600
C15 H15C 0.9600
C16 H16A 0.9600
C16 H16B 0.9600
C16 H16C 0.9600
C5 C17 1.515(3)
C5 C6 1.522(3)
C5 H5 0.9754
C8 C7 1.490(3)
C3 C2 1.350(3)
C3 H3 0.9522
C14 H14A 1.0369
C14 H14B 1.0008
C14 H14C 1.0261
C6 C7 1.529(3)
C6 H6A 0.9600
C6 H6B 0.9601
C2 H2 0.9735
C7 H7A 1.0439
C7 H7B 1.0274
C17 H17A 0.9600
C17 H17B 0.9600
loop_
_refln_index_h
_refln_index_k
_refln_index_l
_refln_F_squared_calc
_refln_F_squared_meas
_refln_F_squared_sigma
_refln_observed_status
0 -12 0 223.84 222.61 16.15 o
1 -12 0 20.29 18.55 4.15 o
2 -12 0 21.37 27.23 5.10 o
1 -11 0 21.68 26.08 4.01 o
2 -11 0 14.15 18.55 3.38 o
3 -11 0 119.25 106.75 10.42 o
4 -11 0 45.85 51.05 5.82 o
0 -10 0 423.74 443.71 21.55 o
1 -10 0 79.04 75.84 6.33 o
2 -10 0 14.68 24.81 4.65 o
3 -10 0 4.74 -3.35 3.80 o
4 -10 0 63.63 73.67 7.13 o
5 -10 0 105.72 112.02 9.10 o
1 -9 0 18.65 10.54 2.21 o
2 -9 0 195.88 197.27 7.70 o
3 -9 0 126.76 124.10 5.78 o
4 -9 0 41.71 41.77 2.87 o
5 -9 0 44.31 48.13 3.81 o
6 -9 0 5.95 13.35 4.33 o
0 -8 0 14.18 11.27 2.74 o
1 -8 0 161.29 153.58 4.41 o
2 -8 0 0.26 0.49 0.66 o
3 -8 0 8.24 5.77 0.99 o
4 -8 0 10.45 7.69 2.14 o
1 -7 0 45.19 43.80 1.47 o
2 -7 0 221.60 220.18 5.72 o
3 -7 0 162.05 157.64 4.47 o
4 -7 0 135.48 126.59 4.83 o
5 -7 0 92.22 98.05 5.58 o
6 -7 0 17.03 15.72 2.35 o
7 -7 0 38.18 37.48 4.18 o
0 -6 0 795.42 799.95 33.12 o
1 -6 0 166.36 175.03 3.72 o
2 -6 0 1.52 3.86 0.93 o
3 -6 0 29.50 30.25 1.47 o
4 -6 0 213.31 206.54 7.67 o
5 -6 0 122.79 121.47 7.03 o
6 -6 0 31.40 30.08 2.76 o
7 -6 0 117.52 121.96 8.19 o
8 -6 0 24.27 21.25 3.97 o
1 -5 0 128.67 154.12 3.13 o
2 -5 0 545.42 575.97 16.37 o
3 -5 0 644.46 681.05 20.12 o
4 -5 0 269.55 293.39 10.16 o
5 -5 0 273.20 265.64 13.29 o
6 -5 0 31.86 35.77 3.72 o
7 -5 0 127.75 125.42 10.62 o
8 -5 0 37.15 36.49 5.02 o
0 -4 0 2169.92 2074.39 62.79 o
1 -4 0 412.60 442.77 9.67 o
2 -4 0 171.00 195.61 5.19 o
3 -4 0 89.01 83.92 2.71 o
4 -4 0 208.74 215.37 7.39 o
5 -4 0 226.70 219.52 7.25 o
6 -4 0 286.83 283.82 15.23 o
7 -4 0 181.30 180.37 11.94 o
8 -4 0 35.66 34.63 4.54 o
9 -4 0 13.17 15.43 3.78 o
1 -3 0 1907.81 2004.10 45.79 o
2 -3 0 937.04 1003.96 29.59 o
3 -3 0 44.60 45.39 1.90 o
4 -3 0 0.88 3.35 1.16 o
5 -3 0 468.97 462.00 15.61 o
6 -3 0 27.04 27.77 2.97 o
7 -3 0 53.10 52.01 4.60 o
8 -3 0 0.02 -3.73 3.73 o
9 -3 0 46.96 47.51 5.93 o
2 -2 0 582.19 592.81 14.80 o
3 -2 0 53.42 55.37 2.32 o
4 -2 0 396.84 395.74 11.79 o
5 -2 0 321.26 317.48 10.04 o
6 -2 0 588.30 601.14 26.17 o
7 -2 0 17.43 12.98 3.85 o
8 -2 0 4.71 3.19 3.07 o
9 -2 0 16.88 12.24 4.87 o
1 -1 0 1430.13 1341.69 43.44 o
2 -1 0 463.49 436.24 11.45 o
3 -1 0 232.11 207.39 5.98 o
4 -1 0 124.47 129.61 4.89 o
5 -1 0 334.93 330.55 10.51 o
6 -1 0 50.58 39.13 3.99 o
7 -1 0 25.61 19.91 3.70 o
8 -1 0 105.71 99.97 8.75 o
9 -1 0 21.66 39.50 5.96 o
2 0 0 2.81 3.35 1.03 o
3 0 0 260.76 278.35 8.41 o
4 0 0 2298.66 2385.71 59.37 o
5 0 0 210.00 203.78 6.35 o
6 0 0 39.86 45.39 3.80 o
7 0 0 254.87 245.97 15.57 o
8 0 0 27.22 30.82 4.86 o
9 0 0 21.84 33.42 6.52 o
2 1 0 482.58 455.97 12.66 o
3 1 0 239.91 242.72 7.16 o
4 1 0 132.58 130.79 4.07 o
5 1 0 328.56 330.82 9.44 o
6 1 0 52.59 37.75 4.01 o
7 1 0 25.58 29.36 4.26 o
8 1 0 107.32 104.46 9.09 o
9 1 0 21.84 22.71 4.31 o
2 2 0 573.48 581.68 15.01 o
3 2 0 49.47 54.82 2.64 o
4 2 0 394.92 401.96 10.40 o
5 2 0 318.64 321.19 9.30 o
6 2 0 575.68 554.13 24.42 o
7 2 0 16.29 13.40 4.13 o
8 2 0 5.15 13.13 3.38 o
9 2 0 16.86 23.71 4.41 o
1 3 0 1896.18 2000.13 58.34 o
2 3 0 950.44 1004.90 23.02 o
3 3 0 47.60 49.58 1.88 o
4 3 0 0.86 3.24 1.71 o
5 3 0 458.63 435.63 13.61 o
6 3 0 27.15 24.15 3.49 o
7 3 0 50.67 45.49 4.20 o
8 3 0 0.02 -3.19 4.45 o
9 3 0 47.21 53.52 6.83 o
1 4 0 419.24 455.65 12.98 o
2 4 0 165.93 174.45 4.31 o
3 4 0 88.29 86.11 2.48 o
4 4 0 212.47 221.72 6.40 o
5 4 0 225.01 221.28 8.16 o
6 4 0 281.07 257.49 10.23 o
7 4 0 180.57 177.99 12.06 o
8 4 0 35.34 53.62 6.41 o
9 4 0 13.12 13.51 5.17 o
1 5 0 118.45 154.31 7.37 o
2 5 0 544.31 566.05 14.11 o
3 5 0 653.50 695.83 16.82 o
4 5 0 274.17 296.44 7.15 o
5 5 0 266.63 267.58 8.49 o
6 5 0 32.06 33.77 2.67 o
7 5 0 126.77 116.30 9.59 o
8 5 0 36.00 36.13 6.50 o
1 6 0 162.07 158.39 8.95 o
2 6 0 1.65 2.42 1.20 o
3 6 0 27.09 29.12 1.28 o
4 6 0 213.51 203.14 6.55 o
5 6 0 124.57 127.42 4.85 o
6 6 0 31.18 26.92 2.85 o
7 6 0 117.18 113.28 8.52 o
8 6 0 24.19 26.46 5.49 o
2 7 0 226.51 219.30 14.93 o
3 7 0 169.35 171.52 6.21 o
4 7 0 134.74 130.79 5.59 o
5 7 0 96.65 96.44 4.08 o
6 7 0 16.14 23.07 4.20 o
7 7 0 39.81 32.57 5.25 o
8 7 0 58.90 51.69 6.50 o
4 8 0 10.02 10.16 1.04 o
5 8 0 19.20 27.54 3.27 o
6 8 0 109.88 118.55 9.36 o
7 8 0 4.66 6.05 3.90 o
6 9 0 5.88 6.39 2.74 o
-2 -12 1 12.96 10.35 3.58 o
-1 -12 1 22.65 18.80 3.79 o
0 -12 1 6.34 6.43 5.00 o
1 -12 1 78.18 80.43 8.77 o
2 -12 1 43.13 46.90 5.78 o
-4 -11 1 29.87 33.68 4.82 o
-3 -11 1 30.57 24.15 4.15 o
-2 -11 1 90.81 109.22 7.90 o
-1 -11 1 68.18 58.16 5.43 o
0 -11 1 6.59 8.40 2.58 o
1 -11 1 130.91 123.27 8.56 o
2 -11 1 59.86 67.81 6.83 o
3 -11 1 57.99 62.43 6.80 o
4 -11 1 45.07 40.72 5.39 o
-6 -10 1 6.31 8.44 4.87 o
-5 -10 1 62.93 64.20 6.89 o
-4 -10 1 49.74 43.80 4.52 o
-3 -10 1 1.77 0.82 3.94 o
-2 -10 1 26.72 24.37 4.54 o
-1 -10 1 18.12 19.25 3.45 o
0 -10 1 237.35 249.94 8.20 o
1 -10 1 9.19 11.93 2.36 o
2 -10 1 64.94 74.69 6.79 o
3 -10 1 50.00 52.12 5.25 o
4 -10 1 99.50 109.22 10.22 o
5 -10 1 33.42 30.74 4.77 o
-6 -9 1 24.99 28.01 4.31 o
-5 -9 1 39.31 39.60 3.08 o
-4 -9 1 52.23 50.52 3.16 o
-3 -9 1 90.55 91.42 3.97 o
-2 -9 1 142.98 133.52 5.48 o
-1 -9 1 361.10 371.07 11.42 o
0 -9 1 30.25 23.35 2.72 o
1 -9 1 120.06 129.27 5.56 o
2 -9 1 4.20 8.40 1.20 o
3 -9 1 278.70 307.00 11.43 o
4 -9 1 139.11 136.45 9.87 o
5 -9 1 3.40 0.99 2.74 o
6 -9 1 25.18 26.23 4.48 o
-5 -8 1 38.41 44.30 3.65 o
-4 -8 1 66.65 62.43 3.04 o
-3 -8 1 73.83 65.99 2.53 o
-2 -8 1 99.10 93.84 3.02 o
-1 -8 1 0.95 1.64 0.49 o
0 -8 1 401.63 403.74 12.51 o
1 -8 1 102.51 92.55 2.99 o
2 -8 1 14.32 15.55 1.05 o
3 -8 1 142.30 148.47 4.70 o
4 -8 1 287.91 261.07 9.58 o
5 -8 1 2.49 1.37 3.58 o
6 -8 1 13.25 10.73 2.96 o
-7 -7 1 18.98 16.32 2.40 o
-6 -7 1 26.63 20.57 2.42 o
-5 -7 1 59.89 63.01 3.30 o
-4 -7 1 28.91 29.52 3.38 o
-3 -7 1 90.35 86.25 3.30 o
-2 -7 1 881.54 889.09 22.98 o
-1 -7 1 345.49 341.15 7.94 o
0 -7 1 39.54 43.41 1.27 o
1 -7 1 177.94 195.40 4.77 o
2 -7 1 1036.34 1090.29 26.43 o
3 -7 1 304.55 306.74 9.09 o
4 -7 1 111.92 114.54 4.13 o
5 -7 1 188.29 189.44 8.77 o
6 -7 1 23.12 21.46 2.88 o
7 -7 1 2.53 5.70 3.00 o
-8 -6 1 55.09 62.89 6.11 o
-7 -6 1 1.11 2.68 2.79 o
-6 -6 1 68.32 72.52 5.43 o
-5 -6 1 19.17 24.07 2.47 o
-4 -6 1 262.81 271.47 8.80 o
-3 -6 1 470.03 461.36 21.65 o
-2 -6 1 27.95 31.23 1.66 o
-1 -6 1 46.15 59.99 1.61 o
0 -6 1 270.20 294.15 6.36 o
1 -6 1 415.34 392.50 7.93 o
2 -6 1 123.16 131.30 3.39 o
3 -6 1 33.18 32.24 1.85 o
4 -6 1 297.75 294.41 11.19 o
5 -6 1 67.10 68.54 4.30 o
6 -6 1 151.12 144.53 10.51 o
7 -6 1 30.73 31.81 4.10 o
8 -6 1 9.54 15.37 4.30 o
-9 -5 1 35.86 31.40 5.06 o
-8 -5 1 23.35 21.12 4.43 o
-7 -5 1 102.87 102.66 7.36 o
-6 -5 1 143.40 150.83 7.83 o
-5 -5 1 27.14 25.70 1.96 o
-4 -5 1 175.85 170.36 5.42 o
-3 -5 1 318.86 325.99 9.37 o
-2 -5 1 1152.26 1161.41 30.82 o
-1 -5 1 82.32 73.16 1.77 o
0 -5 1 186.92 186.79 3.44 o
1 -5 1 787.03 853.22 17.75 o
2 -5 1 2346.19 2402.39 53.76 o
3 -5 1 489.00 491.78 14.79 o
4 -5 1 488.93 476.12 15.52 o
5 -5 1 387.20 380.27 23.13 o
6 -5 1 13.97 15.26 2.26 o
7 -5 1 72.28 65.75 5.65 o
8 -5 1 3.19 4.13 2.86 o
-9 -4 1 175.34 174.84 14.90 o
-8 -4 1 4.45 12.60 4.21 o
-7 -4 1 73.29 83.79 5.56 o
-6 -4 1 45.96 43.02 3.89 o
-5 -4 1 337.48 327.06 11.53 o
-4 -4 1 466.13 481.64 13.34 o
-3 -4 1 700.63 706.82 22.07 o
-2 -4 1 164.84 147.93 4.69 o
-1 -4 1 174.37 181.56 4.59 o
0 -4 1 224.63 206.11 4.68 o
1 -4 1 1531.18 1508.37 32.82 o
2 -4 1 114.71 109.99 3.58 o
3 -4 1 458.87 464.56 12.78 o
4 -4 1 267.45 273.43 8.58 o
5 -4 1 345.64 365.95 17.30 o
6 -4 1 130.59 132.49 8.36 o
7 -4 1 57.70 52.55 5.16 o
8 -4 1 13.07 17.85 3.70 o
-9 -3 1 3.33 -3.94 3.94 o
-8 -3 1 165.18 187.20 11.96 o
-7 -3 1 86.84 84.33 6.53 o
-6 -3 1 50.20 45.89 4.72 o
-5 -3 1 190.93 181.17 6.19 o
-4 -3 1 382.42 391.04 10.55 o
-3 -3 1 1129.25 1153.84 31.72 o
-2 -3 1 298.98 348.86 9.97 o
-1 -3 1 239.65 220.40 6.82 o
0 -3 1 817.56 800.37 17.19 o
1 -3 1 1133.36 1184.25 26.02 o
2 -3 1 242.02 268.31 7.77 o
3 -3 1 567.82 598.96 16.33 o
4 -3 1 232.13 228.17 7.61 o
5 -3 1 142.14 121.63 4.91 o
6 -3 1 67.22 70.77 5.86 o
7 -3 1 46.30 52.76 4.96 o
8 -3 1 78.58 76.49 7.65 o
9 -3 1 30.48 14.29 4.15 o
-9 -2 1 95.48 109.99 11.35 o
-8 -2 1 24.70 37.57 5.09 o
-7 -2 1 262.52 268.31 13.35 o
-6 -2 1 121.88 117.90 6.60 o
-5 -2 1 284.20 251.34 8.22 o
-4 -2 1 516.55 509.02 16.05 o
-3 -2 1 2020.97 2110.33 53.12 o
-2 -2 1 59.44 61.72 2.10 o
-1 -2 1 358.04 377.09 10.65 o
0 -2 1 3032.67 2834.38 79.71 o
1 -2 1 765.92 802.47 19.74 o
2 -2 1 13.43 14.23 1.29 o
3 -2 1 771.62 765.12 20.09 o
4 -2 1 648.96 702.49 20.04 o
5 -2 1 132.90 129.94 5.07 o
6 -2 1 54.95 49.47 4.27 o
7 -2 1 212.73 211.25 13.14 o
8 -2 1 51.09 48.13 5.45 o
9 -2 1 13.04 10.73 4.18 o
-9 -1 1 73.64 77.01 7.15 o
-8 -1 1 69.22 71.77 6.53 o
-7 -1 1 175.61 185.99 10.92 o
-6 -1 1 322.81 314.84 13.15 o
-5 -1 1 157.57 137.48 4.87 o
-4 -1 1 16.52 22.64 1.62 o
-3 -1 1 520.39 546.13 14.20 o
-2 -1 1 3742.28 3650.69 116.43 o
-1 -1 1 1744.72 1476.31 54.11 o
2 -1 1 759.45 725.07 19.96 o
3 -1 1 30.29 21.46 1.58 o
4 -1 1 67.58 64.67 2.98 o
5 -1 1 90.44 86.52 3.72 o
6 -1 1 83.58 70.65 4.86 o
7 -1 1 9.42 12.45 3.03 o
8 -1 1 42.40 42.44 5.50 o
9 -1 1 64.26 59.30 6.39 o
-9 0 1 0.07 5.17 4.02 o
-8 0 1 6.80 7.48 3.73 o
-7 0 1 2.02 1.09 3.07 o
-6 0 1 217.12 216.45 9.60 o
-5 0 1 165.74 175.23 5.89 o
-4 0 1 15.20 10.21 1.42 o
-3 0 1 429.57 428.23 10.73 o
-2 0 1 1625.00 1662.38 46.54 o
1 0 1 107.70 106.75 4.44 o
2 0 1 4.93 9.42 1.14 o
3 0 1 70.84 71.14 2.50 o
4 0 1 152.62 155.97 5.19 o
5 0 1 38.50 35.69 2.21 o
6 0 1 244.80 223.05 11.51 o
7 0 1 307.82 320.39 16.98 o
8 0 1 228.19 225.71 14.48 o
9 0 1 34.97 56.26 7.00 o
-9 1 1 73.99 81.63 9.51 o
-8 1 1 70.45 57.71 5.06 o
-7 1 1 175.30 170.55 9.68 o
-6 1 1 319.04 320.66 10.35 o
-5 1 1 157.78 141.34 4.93 o
-4 1 1 18.34 22.36 1.90 o
-3 1 1 505.76 511.36 13.74 o
-2 1 1 3726.85 3631.91 152.76 o
0 1 1 902.70 946.63 33.18 o
2 1 1 769.17 744.75 19.42 o
3 1 1 31.91 25.40 1.64 o
4 1 1 62.45 55.48 2.43 o
5 1 1 88.58 90.99 3.68 o
6 1 1 85.84 78.71 5.13 o
7 1 1 9.65 12.98 4.48 o
8 1 1 44.04 51.16 5.72 o
9 1 1 64.31 66.11 8.08 o
-9 2 1 96.44 99.53 9.02 o
-8 2 1 25.55 21.73 3.59 o
-7 2 1 263.44 279.84 13.39 o
-6 2 1 117.72 115.18 4.46 o
-5 2 1 280.48 258.45 8.10 o
-4 2 1 516.66 524.18 13.91 o
-3 2 1 2047.38 2129.44 57.46 o
-2 2 1 57.81 54.39 1.97 o
-1 2 1 353.81 361.99 12.98 o
1 2 1 756.96 777.89 18.19 o
2 2 1 12.22 14.57 1.19 o
3 2 1 773.77 783.27 20.33 o
4 2 1 652.40 697.40 18.40 o
5 2 1 127.10 122.13 4.75 o
6 2 1 54.09 50.20 4.62 o
7 2 1 219.82 214.06 12.36 o
8 2 1 52.52 50.95 6.03 o
9 2 1 12.51 2.81 5.76 o
-9 3 1 3.59 2.24 5.26 o
-8 3 1 168.75 201.04 11.56 o
-7 3 1 86.07 84.33 7.21 o
-6 3 1 50.56 49.58 2.82 o
-5 3 1 183.78 187.00 6.28 o
-4 3 1 396.72 407.63 10.48 o
-3 3 1 1134.77 1177.63 30.52 o
-2 3 1 301.75 336.24 8.97 o
-1 3 1 223.12 214.06 8.89 o
0 3 1 808.89 804.57 19.76 o
1 3 1 1142.58 1209.90 30.94 o
2 3 1 243.38 269.28 6.57 o
3 3 1 561.52 569.58 13.44 o
4 3 1 226.19 225.05 6.89 o
5 3 1 143.54 123.11 4.77 o
6 3 1 70.69 65.39 5.99 o
7 3 1 46.38 52.55 4.62 o
8 3 1 82.99 88.19 7.93 o
9 3 1 30.75 34.37 6.17 o
-9 4 1 179.09 188.42 16.07 o
-8 4 1 4.34 7.89 4.66 o
-7 4 1 70.91 69.16 6.53 o
-6 4 1 47.78 44.20 2.96 o
-5 4 1 340.99 330.82 11.05 o
-4 4 1 456.75 472.90 14.18 o
-3 4 1 695.16 701.31 16.10 o
-2 4 1 167.74 151.38 3.65 o
-1 4 1 167.52 179.37 8.14 o
0 4 1 215.72 186.59 4.66 o
1 4 1 1522.24 1523.38 38.19 o
2 4 1 108.95 108.29 2.93 o
3 4 1 457.25 471.61 12.88 o
4 4 1 272.36 281.58 6.72 o
5 4 1 340.79 340.88 9.31 o
6 4 1 126.26 110.46 5.76 o
7 4 1 59.91 64.91 5.61 o
8 4 1 12.16 18.55 5.55 o
-9 5 1 35.98 26.69 6.13 o
-8 5 1 24.68 32.49 6.17 o
-7 5 1 105.22 106.45 6.88 o
-6 5 1 142.32 134.21 6.01 o
-5 5 1 28.93 26.31 1.75 o
-4 5 1 178.05 183.37 4.61 o
-3 5 1 327.83 345.82 8.27 o
-2 5 1 1140.95 1138.28 43.01 o
-1 5 1 78.59 73.54 3.56 o
1 5 1 789.04 867.57 20.52 o
2 5 1 2350.27 2452.78 56.53 o
3 5 1 490.79 490.14 12.47 o
4 5 1 483.73 462.00 12.74 o
5 5 1 395.16 393.39 12.35 o
6 5 1 14.30 8.97 4.53 o
7 5 1 73.57 78.06 7.47 o
8 5 1 3.24 0.05 3.83 o
-8 6 1 55.67 58.40 6.11 o
-7 6 1 1.33 2.13 3.22 o
-6 6 1 65.88 66.83 3.76 o
-5 6 1 21.75 22.71 1.83 o
-4 6 1 266.88 264.92 8.93 o
-3 6 1 472.55 464.87 10.23 o
-2 6 1 29.00 32.15 3.28 o
-1 6 1 41.43 52.65 3.98 o
1 6 1 421.18 407.32 13.16 o
2 6 1 121.77 123.60 3.63 o
3 6 1 32.25 29.27 1.44 o
4 6 1 299.96 307.78 8.06 o
5 6 1 68.95 63.72 3.20 o
6 6 1 151.63 164.03 9.87 o
7 6 1 29.34 30.90 4.04 o
8 6 1 9.62 6.81 4.02 o
-8 7 1 20.80 15.84 4.66 o
-7 7 1 19.96 13.19 3.39 o
-6 7 1 27.38 24.29 3.43 o
-5 7 1 60.06 56.37 2.79 o
-4 7 1 27.79 30.25 1.30 o
-2 7 1 871.46 835.98 48.43 o
2 7 1 1037.01 1059.19 31.84 o
3 7 1 302.67 319.59 10.87 o
4 7 1 117.20 112.34 5.19 o
5 7 1 186.00 172.88 9.55 o
6 7 1 22.40 23.93 3.55 o
7 7 1 2.64 6.09 3.29 o
-7 8 1 4.10 5.04 3.13 o
-6 8 1 28.57 30.08 4.47 o
3 8 1 142.11 137.31 5.56 o
4 8 1 289.02 270.25 16.08 o
5 8 1 2.85 4.62 2.26 o
6 8 1 14.43 12.50 3.46 o
7 8 1 99.42 96.59 8.89 o
4 9 1 133.17 136.27 7.78 o
5 9 1 3.59 5.04 2.63 o
6 9 1 24.28 21.80 4.64 o
-2 -12 2 29.06 31.73 4.59 o
-1 -12 2 16.11 21.67 5.52 o
0 -12 2 73.28 76.36 8.29 o
1 -12 2 26.71 38.12 5.31 o
-4 -11 2 45.73 37.12 5.24 o
-3 -11 2 11.69 10.88 4.79 o
-2 -11 2 10.56 9.05 4.33 o
-1 -11 2 172.65 192.30 12.54 o
0 -11 2 41.04 53.62 6.08 o
1 -11 2 37.65 36.49 5.19 o
2 -11 2 9.04 4.19 4.85 o
3 -11 2 76.00 72.52 6.94 o
-6 -10 2 10.33 14.34 5.67 o
-5 -10 2 61.43 61.03 7.76 o
-4 -10 2 58.91 58.05 4.97 o
-3 -10 2 105.63 115.98 8.14 o
-2 -10 2 51.56 52.22 4.93 o
-1 -10 2 84.72 77.53 5.48 o
0 -10 2 6.40 11.78 2.75 o
1 -10 2 61.50 65.99 4.33 o
2 -10 2 60.31 61.03 5.44 o
3 -10 2 175.99 192.72 12.55 o
4 -10 2 3.52 -1.59 4.05 o
5 -10 2 0.21 6.96 4.93 o
-7 -9 2 76.89 67.20 6.56 o
-6 -9 2 55.48 46.29 6.05 o
-5 -9 2 18.48 20.64 2.69 o
-4 -9 2 24.25 21.25 2.39 o
-3 -9 2 60.38 62.19 2.92 o
-2 -9 2 654.67 686.09 23.30 o
-1 -9 2 111.76 101.31 3.13 o
0 -9 2 5.14 4.46 1.91 o
1 -9 2 101.15 91.84 3.69 o
2 -9 2 224.52 235.61 10.47 o
3 -9 2 163.27 162.71 9.27 o
4 -9 2 26.00 21.87 4.09 o
5 -9 2 184.76 191.28 14.76 o
6 -9 2 20.92 23.50 4.53 o
-7 -8 2 14.03 6.65 3.63 o
-6 -8 2 6.67 7.24 3.23 o
-5 -8 2 4.56 4.69 2.09 o
-4 -8 2 312.78 303.12 11.35 o
-3 -8 2 383.03 376.81 10.36 o
-2 -8 2 194.86 202.93 5.91 o
-1 -8 2 6.49 8.57 0.78 o
0 -8 2 241.96 246.67 6.05 o
1 -8 2 142.18 131.98 3.58 o
2 -8 2 157.50 153.03 5.50 o
3 -8 2 73.69 70.77 3.12 o
4 -8 2 62.01 65.62 3.00 o
5 -8 2 0.01 -3.33 3.33 o
6 -8 2 34.13 29.60 4.92 o
-6 -7 2 68.20 68.05 5.50 o
-5 -7 2 99.39 92.41 5.70 o
-4 -7 2 78.43 83.11 3.65 o
-3 -7 2 92.49 87.77 3.47 o
-2 -7 2 1074.86 1126.31 28.85 o
-1 -7 2 170.31 173.27 5.08 o
0 -7 2 0.25 0.27 0.50 o
1 -7 2 81.84 85.15 2.32 o
2 -7 2 333.55 336.51 10.33 o
3 -7 2 91.73 95.14 3.04 o
4 -7 2 125.57 124.43 4.14 o
5 -7 2 189.39 203.36 7.82 o
6 -7 2 18.73 21.94 3.54 o
7 -7 2 22.67 17.72 3.06 o
-8 -6 2 83.88 82.17 8.20 o
-7 -6 2 3.06 1.32 1.87 o
-6 -6 2 1.81 -1.27 2.09 o
-4 -6 2 463.65 464.23 14.05 o
-3 -6 2 220.86 225.27 8.01 o
-2 -6 2 5.72 5.94 0.87 o
-1 -6 2 423.95 439.65 9.95 o
0 -6 2 555.08 554.82 11.87 o
1 -6 2 63.96 63.01 1.76 o
2 -6 2 14.66 15.37 0.99 o
3 -6 2 1151.90 1200.63 31.33 o
4 -6 2 0.44 1.04 1.38 o
5 -6 2 12.93 9.01 2.58 o
6 -6 2 9.22 4.55 2.41 o
7 -6 2 94.57 96.73 8.16 o
-9 -5 2 26.95 22.92 5.25 o
-8 -5 2 268.08 288.84 20.41 o
-7 -5 2 40.15 38.49 4.05 o
-6 -5 2 119.78 118.55 5.81 o
-5 -5 2 295.59 295.93 10.71 o
-4 -5 2 59.68 63.25 4.01 o
-3 -5 2 125.04 125.92 4.99 o
-2 -5 2 3.60 8.36 1.12 o
-1 -5 2 559.55 554.82 16.41 o
0 -5 2 36.82 42.16 1.25 o
1 -5 2 257.09 250.88 5.16 o
2 -5 2 30.56 26.84 1.23 o
3 -5 2 81.91 88.88 3.49 o
4 -5 2 358.23 345.54 12.67 o
5 -5 2 99.65 102.21 5.99 o
6 -5 2 61.27 70.77 5.49 o
7 -5 2 57.77 66.23 7.12 o
8 -5 2 14.14 10.78 3.36 o
-9 -4 2 22.41 25.11 4.60 o
-8 -4 2 126.90 111.86 8.62 o
-7 -4 2 19.70 15.78 2.88 o
-6 -4 2 38.11 41.29 4.19 o
-5 -4 2 188.47 201.25 7.15 o
-4 -4 2 301.50 317.74 9.25 o
-3 -4 2 196.92 204.63 5.94 o
-2 -4 2 533.46 591.37 16.22 o
-1 -4 2 76.51 73.54 2.03 o
0 -4 2 434.76 464.87 10.23 o
1 -4 2 366.85 372.22 7.72 o
2 -4 2 437.56 469.36 10.92 o
3 -4 2 821.49 885.12 27.34 o
4 -4 2 268.00 277.61 10.87 o
5 -4 2 118.84 120.49 6.67 o
6 -4 2 27.22 33.25 4.44 o
7 -4 2 30.05 34.72 4.63 o
8 -4 2 99.63 106.90 9.50 o
-9 -3 2 96.15 91.56 9.36 o
-8 -3 2 33.92 31.15 3.97 o
-7 -3 2 626.23 634.67 29.13 o
-6 -3 2 590.97 580.25 22.85 o
-5 -3 2 83.21 88.60 3.77 o
-4 -3 2 132.61 148.11 5.05 o
-3 -3 2 36.76 38.03 1.83 o
-2 -3 2 2020.37 2068.99 57.99 o
-1 -3 2 123.53 126.26 3.66 o
0 -3 2 50.09 49.68 1.36 o
1 -3 2 1505.70 1516.44 33.48 o
2 -3 2 374.00 353.86 9.76 o
3 -3 2 538.47 565.35 14.80 o
4 -3 2 10.84 11.03 2.46 o
5 -3 2 931.84 979.69 41.29 o
6 -3 2 30.45 30.25 2.77 o
7 -3 2 56.49 67.56 6.09 o
8 -3 2 2.97 13.13 4.89 o
-10 -2 2 46.24 36.85 6.75 o
-9 -2 2 30.27 24.37 4.54 o
-8 -2 2 3.69 6.20 2.70 o
-7 -2 2 9.95 4.40 2.58 o
-6 -2 2 203.73 207.82 8.98 o
-5 -2 2 36.23 35.95 2.31 o
-4 -2 2 195.32 206.75 6.39 o
-3 -2 2 845.21 894.40 27.48 o
-2 -2 2 436.11 419.99 11.54 o
-1 -2 2 822.92 856.68 25.17 o
0 -2 2 421.82 467.43 13.46 o
1 -2 2 2677.24 2646.61 51.86 o
2 -2 2 613.72 651.59 18.54 o
3 -2 2 195.34 162.14 5.47 o
4 -2 2 268.64 277.61 8.40 o
5 -2 2 382.24 386.07 16.60 o
6 -2 2 99.88 107.21 6.60 o
7 -2 2 185.11 180.97 10.77 o
8 -2 2 87.11 94.42 9.08 o
9 -2 2 18.75 4.62 6.15 o
-10 -1 2 2.77 -4.69 5.23 o
-9 -1 2 20.06 22.57 5.21 o
-8 -1 2 234.53 250.17 11.72 o
-7 -1 2 351.96 326.79 15.01 o
-6 -1 2 206.65 208.25 8.77 o
-5 -1 2 161.76 148.29 5.05 o
-4 -1 2 4.87 12.24 1.51 o
-3 -1 2 81.49 86.94 3.59 o
-2 -1 2 1201.00 1203.72 34.97 o
0 -1 2 371.34 396.33 12.10 o
1 -1 2 1122.16 1139.28 33.02 o
2 -1 2 24.18 25.63 1.72 o
3 -1 2 129.30 144.35 4.45 o
4 -1 2 207.08 209.96 6.44 o
5 -1 2 316.67 319.59 13.51 o
6 -1 2 366.91 372.50 15.73 o
7 -1 2 14.83 13.19 3.39 o
8 -1 2 30.52 29.76 4.13 o
9 -1 2 8.76 9.10 4.56 o
-10 0 2 0.17 1.82 5.84 o
-9 0 2 15.54 18.10 5.30 o
-8 0 2 6.97 6.96 4.65 o
-7 0 2 127.02 107.21 6.75 o
-6 0 2 79.31 79.11 3.69 o
-5 0 2 6.59 5.38 1.55 o
-4 0 2 528.21 469.68 11.56 o
-3 0 2 13.30 13.08 1.55 o
-2 0 2 338.00 304.41 9.05 o
-1 0 2 1121.41 1111.93 46.46 o
0 0 2 549.14 529.73 15.01 o
1 0 2 48.49 39.32 1.95 o
2 0 2 766.69 826.58 22.16 o
3 0 2 1051.08 987.59 28.88 o
4 0 2 262.70 287.08 8.54 o
5 0 2 16.98 18.74 2.25 o
6 0 2 357.07 346.92 15.18 o
7 0 2 393.48 418.77 22.14 o
8 0 2 36.32 33.77 4.99 o
9 0 2 8.84 11.22 5.66 o
-10 1 2 2.55 3.80 4.13 o
-9 1 2 20.34 17.47 5.46 o
-8 1 2 235.94 232.67 14.02 o
-7 1 2 341.76 338.69 18.55 o
-6 1 2 203.94 208.89 8.57 o
-5 1 2 155.79 165.18 5.14 o
-4 1 2 5.08 10.35 1.43 o
-3 1 2 81.52 95.28 3.18 o
-2 1 2 1216.26 1193.45 33.80 o
1 1 2 1138.39 1146.30 26.10 o
2 1 2 27.75 29.92 1.62 o
3 1 2 125.73 131.81 4.25 o
4 1 2 217.14 211.69 6.69 o
5 1 2 314.65 321.72 10.90 o
6 1 2 371.16 395.45 18.57 o
7 1 2 15.45 14.97 4.13 o
8 1 2 31.13 30.98 5.03 o
9 1 2 8.25 3.86 3.96 o
-10 2 2 46.84 33.42 7.54 o
-9 2 2 29.82 31.15 4.47 o
-8 2 2 3.13 -1.42 2.80 o
-7 2 2 9.57 3.74 4.13 o
-6 2 2 201.38 196.65 7.27 o
-5 2 2 32.73 27.23 2.01 o
-4 2 2 190.39 200.41 6.50 o
-3 2 2 879.27 909.54 24.59 o
-2 2 2 433.21 420.60 13.07 o
-1 2 2 808.39 843.29 25.83 o
0 2 2 407.59 449.66 11.32 o
1 2 2 2667.17 2648.14 70.94 o
2 2 2 614.64 658.03 15.21 o
3 2 2 190.90 160.63 4.51 o
4 2 2 263.92 274.41 8.35 o
5 2 2 378.90 386.65 12.83 o
6 2 2 106.12 103.11 6.32 o
7 2 2 182.76 167.85 11.72 o
8 2 2 84.66 97.61 9.67 o
9 2 2 19.34 24.81 5.24 o
-9 3 2 95.96 104.46 8.64 o
-8 3 2 33.42 30.57 3.93 o
-7 3 2 621.15 609.16 27.81 o
-6 3 2 581.72 567.82 18.01 o
-5 3 2 83.27 88.05 3.34 o
-4 3 2 127.30 138.53 5.24 o
-3 3 2 36.38 33.42 1.63 o
-2 3 2 2046.56 2061.58 67.31 o
-1 3 2 123.16 117.42 3.05 o
0 3 2 46.98 45.49 1.30 o
1 3 2 1519.56 1554.20 39.74 o
2 3 2 383.85 384.03 8.43 o
3 3 2 544.90 572.06 13.12 o
4 3 2 10.12 11.42 1.10 o
5 3 2 947.72 949.30 31.06 o
6 3 2 30.33 31.07 5.12 o
7 3 2 56.82 61.84 4.78 o
8 3 2 2.78 -0.71 3.36 o
-9 4 2 23.87 36.67 6.28 o
-8 4 2 126.72 133.17 11.64 o
-7 4 2 20.78 23.00 3.98 o
-6 4 2 38.13 36.31 2.95 o
-5 4 2 186.00 206.97 6.40 o
-4 4 2 307.68 335.42 9.50 o
-3 4 2 212.43 215.59 6.09 o
-2 4 2 541.79 593.89 13.73 o
-1 4 2 80.20 75.20 2.57 o
0 4 2 434.44 459.46 11.12 o
1 4 2 365.89 362.27 10.72 o
2 4 2 443.98 467.75 11.86 o
3 4 2 826.89 900.18 23.13 o
4 4 2 264.27 267.33 7.03 o
5 4 2 120.27 110.62 4.05 o
6 4 2 25.89 26.92 2.23 o
7 4 2 29.65 33.94 5.18 o
8 4 2 98.31 92.55 8.98 o
-9 5 2 26.96 32.32 4.80 o
-8 5 2 266.71 268.31 17.97 o
-7 5 2 41.12 46.60 5.47 o
-6 5 2 118.87 121.63 5.39 o
-5 5 2 286.28 292.88 9.64 o
-4 5 2 60.40 61.61 1.75 o
-3 5 2 125.86 127.76 3.19 o
-2 5 2 4.51 8.44 0.39 o
-1 5 2 551.74 545.78 22.86 o
0 5 2 40.12 46.70 1.52 o
1 5 2 260.48 260.83 7.66 o
2 5 2 30.38 25.11 1.19 o
3 5 2 87.46 94.56 2.74 o
4 5 2 367.68 370.79 11.13 o
5 5 2 103.58 94.56 4.04 o
6 5 2 60.31 62.31 5.38 o
7 5 2 57.60 57.15 6.16 o
8 5 2 14.73 11.83 4.89 o
-8 6 2 84.80 85.70 8.10 o
-7 6 2 3.57 4.55 3.13 o
-6 6 2 1.84 0.93 1.59 o
-5 6 2 84.89 88.60 2.79 o
-4 6 2 456.53 459.77 15.89 o
-3 6 2 221.32 219.52 6.37 o
-2 6 2 4.47 7.40 2.38 o
-1 6 2 423.59 449.66 19.80 o
0 6 2 543.92 539.91 21.70 o
1 6 2 63.07 67.44 2.31 o
2 6 2 13.41 12.66 0.95 o
3 6 2 1162.16 1207.83 30.91 o
4 6 2 0.34 1.20 0.88 o
5 6 2 13.07 13.03 1.82 o
6 6 2 8.82 10.93 2.75 o
7 6 2 91.96 91.42 7.80 o
-7 7 2 91.86 87.63 6.38 o
-6 7 2 68.93 64.67 5.60 o
-5 7 2 99.68 98.05 3.96 o
-4 7 2 76.42 80.69 4.13 o
-1 7 2 173.16 183.77 9.84 o
1 7 2 79.37 78.97 3.29 o
2 7 2 338.45 332.98 12.17 o
3 7 2 88.31 90.57 3.38 o
4 7 2 130.55 130.28 5.42 o
5 7 2 188.51 205.48 12.75 o
6 7 2 18.61 19.51 4.13 o
7 7 2 22.94 31.40 4.57 o
2 8 2 153.70 152.11 6.40 o
3 8 2 76.00 75.46 3.09 o
4 8 2 62.44 75.84 5.42 o
5 8 2 0.00 0.00 0.55 o
6 8 2 31.79 31.23 3.81 o
3 9 2 162.02 139.06 9.44 o
4 9 2 24.12 22.78 3.25 o
5 9 2 186.29 173.08 11.90 o
6 9 2 20.84 26.46 5.19 o
-2 -12 3 4.12 5.66 4.23 o
-1 -12 3 11.37 8.14 4.82 o
0 -12 3 41.46 43.90 6.28 o
-4 -11 3 34.95 37.39 5.08 o
-3 -11 3 14.17 5.77 3.06 o
-2 -11 3 49.02 57.71 5.06 o
-1 -11 3 1.59 4.49 4.87 o
0 -11 3 6.67 10.73 3.49 o
1 -11 3 132.03 133.69 10.62 o
2 -11 3 9.98 11.98 4.16 o
3 -11 3 12.39 14.91 4.30 o
-5 -10 3 88.87 87.91 5.28 o
-4 -10 3 92.52 102.35 5.40 o
-3 -10 3 40.29 47.11 4.58 o
-2 -10 3 98.71 82.17 6.72 o
-1 -10 3 13.56 14.68 3.13 o
0 -10 3 70.56 73.28 5.71 o
1 -10 3 46.90 51.69 3.94 o
2 -10 3 108.10 104.46 7.73 o
3 -10 3 40.63 34.20 4.16 o
4 -10 3 45.57 43.80 6.58 o
-7 -9 3 0.95 -4.33 4.33 o
-6 -9 3 62.28 61.03 5.56 o
-5 -9 3 143.96 137.31 9.38 o
-4 -9 3 33.85 29.43 2.49 o
-3 -9 3 45.41 49.37 2.60 o
-2 -9 3 7.41 10.25 1.47 o
-1 -9 3 115.06 109.68 5.59 o
0 -9 3 39.45 37.12 2.08 o
1 -9 3 3.34 3.94 0.76 o
2 -9 3 38.82 37.21 4.43 o
3 -9 3 15.30 11.83 2.86 o
4 -9 3 56.41 58.40 6.45 o
5 -9 3 56.29 69.03 7.39 o
-7 -8 3 7.97 15.09 5.13 o
-6 -8 3 54.43 48.75 4.97 o
-5 -8 3 77.54 82.97 5.94 o
-4 -8 3 483.27 473.22 17.09 o
-3 -8 3 271.11 271.72 10.26 o
-2 -8 3 71.37 69.65 2.47 o
-1 -8 3 322.15 318.01 8.72 o
0 -8 3 157.28 152.66 4.03 o
1 -8 3 31.43 33.25 1.37 o
2 -8 3 4.04 3.35 0.87 o
3 -8 3 261.04 259.16 7.88 o
4 -8 3 106.31 104.01 5.89 o
5 -8 3 15.70 16.26 3.59 o
6 -8 3 8.58 18.10 3.97 o
-8 -7 3 17.91 15.09 5.13 o
-7 -7 3 30.17 29.76 3.80 o
-6 -7 3 12.89 9.88 2.98 o
-5 -7 3 150.22 144.53 7.66 o
-4 -7 3 100.51 99.97 4.44 o
-3 -7 3 81.74 81.36 3.35 o
-2 -7 3 170.67 156.53 4.45 o
-1 -7 3 116.04 103.41 2.86 o
0 -7 3 67.02 55.48 1.88 o
1 -7 3 185.08 186.19 4.25 o
2 -7 3 41.34 42.35 1.83 o
3 -7 3 5.61 5.04 1.03 o
4 -7 3 72.46 70.65 3.36 o
5 -7 3 149.01 145.60 6.80 o
6 -7 3 112.56 109.84 7.92 o
-9 -6 3 49.12 47.00 8.23 o
-8 -6 3 65.82 72.90 7.21 o
-7 -6 3 95.18 91.42 7.09 o
-6 -6 3 78.23 71.65 4.77 o
-5 -6 3 4.37 -0.32 2.84 o
-4 -6 3 152.32 142.93 5.32 o
-3 -6 3 382.83 377.67 11.23 o
-2 -6 3 133.52 135.06 4.31 o
-1 -6 3 38.06 36.22 1.07 o
0 -6 3 134.14 119.52 3.08 o
1 -6 3 139.27 129.94 3.72 o
2 -6 3 295.83 300.54 8.74 o
3 -6 3 58.42 54.82 1.98 o
4 -6 3 115.04 120.65 5.37 o
5 -6 3 9.84 11.83 2.19 o
6 -6 3 41.53 49.68 5.43 o
7 -6 3 14.55 12.50 3.30 o
-5 -5 3 47.52 41.58 2.77 o
-4 -5 3 247.55 237.44 8.22 o
-3 -5 3 8.44 7.69 1.31 o
-2 -5 3 281.90 277.86 8.15 o
-1 -5 3 122.43 122.78 4.60 o
0 -5 3 41.93 42.06 1.25 o
1 -5 3 707.31 710.37 14.62 o
2 -5 3 6.55 8.19 0.98 o
3 -5 3 239.97 226.83 6.25 o
4 -5 3 82.99 78.31 3.93 o
5 -5 3 273.99 283.07 14.96 o
6 -5 3 9.46 10.21 2.75 o
7 -5 3 22.25 16.98 3.85 o
8 -5 3 7.92 5.84 5.16 o
-9 -4 3 62.07 58.16 7.23 o
-8 -4 3 248.09 247.83 14.00 o
-7 -4 3 26.66 23.21 3.00 o
-6 -4 3 238.05 224.16 10.65 o
-5 -4 3 26.78 25.25 2.91 o
-4 -4 3 523.01 565.35 18.33 o
-3 -4 3 81.24 96.30 3.35 o
-2 -4 3 341.65 330.28 9.97 o
-1 -4 3 669.17 692.31 19.50 o
0 -4 3 128.02 131.81 3.07 o
1 -4 3 341.05 315.37 6.58 o
2 -4 3 250.06 259.64 6.93 o
3 -4 3 882.28 882.48 29.94 o
4 -4 3 16.23 13.57 1.80 o
5 -4 3 51.84 52.87 4.96 o
6 -4 3 95.49 108.13 6.32 o
7 -4 3 130.59 133.52 11.31 o
8 -4 3 26.68 26.46 5.64 o
-10 -3 3 75.27 90.29 8.73 o
-9 -3 3 6.62 12.50 3.61 o
-8 -3 3 68.91 70.39 6.72 o
-7 -3 3 57.68 44.99 4.08 o
-6 -3 3 180.70 200.20 9.02 o
-5 -3 3 325.77 334.88 11.39 o
-4 -3 3 60.75 55.37 2.65 o
-3 -3 3 424.80 477.42 12.63 o
-2 -3 3 49.67 57.26 1.68 o
-1 -3 3 915.45 819.35 24.19 o
0 -3 3 1029.18 997.40 21.53 o
1 -3 3 1207.17 1247.83 24.09 o
2 -3 3 1478.50 1535.56 31.37 o
3 -3 3 414.33 421.21 12.17 o
4 -3 3 438.16 439.65 14.61 o
5 -3 3 27.37 30.98 3.47 o
6 -3 3 274.39 280.58 16.14 o
7 -3 3 17.62 18.93 4.84 o
8 -3 3 10.46 10.93 3.68 o
-10 -2 3 33.37 37.94 6.12 o
-9 -2 3 33.33 33.16 4.44 o
-8 -2 3 220.23 221.50 10.81 o
-7 -2 3 138.81 130.11 8.28 o
-6 -2 3 283.75 270.74 11.46 o
-5 -2 3 95.82 91.70 3.55 o
-4 -2 3 875.94 901.96 34.28 o
-3 -2 3 1153.00 1249.92 33.54 o
-2 -2 3 379.26 378.82 9.81 o
-1 -2 3 104.66 100.27 2.97 o
0 -2 3 1267.97 1254.12 38.32 o
1 -2 3 677.77 653.10 12.12 o
2 -2 3 182.66 180.77 5.18 o
3 -2 3 557.30 557.62 15.75 o
4 -2 3 131.46 122.94 4.77 o
5 -2 3 197.89 192.10 9.25 o
6 -2 3 30.83 26.46 3.43 o
7 -2 3 288.66 298.75 16.91 o
8 -2 3 43.65 51.05 5.93 o
-10 -1 3 32.14 29.52 7.00 o
-9 -1 3 5.42 8.83 4.05 o
-8 -1 3 22.54 16.98 3.97 o
-7 -1 3 41.13 34.03 4.07 o
-6 -1 3 485.86 496.72 17.84 o
-5 -1 3 260.08 275.89 8.12 o
-4 -1 3 609.51 619.82 16.97 o
-3 -1 3 268.00 291.87 9.12 o
-2 -1 3 2071.09 2050.83 56.39 o
-1 -1 3 296.76 274.66 8.11 o
0 -1 3 1388.80 1402.64 42.20 o
1 -1 3 1234.48 1182.21 26.51 o
2 -1 3 2431.72 2511.12 62.39 o
3 -1 3 262.62 265.64 8.94 o
4 -1 3 359.99 363.97 14.14 o
5 -1 3 959.26 929.77 35.71 o
6 -1 3 145.33 156.16 8.52 o
7 -1 3 48.79 43.80 5.79 o
8 -1 3 96.38 99.97 9.49 o
-10 0 3 97.11 97.61 10.25 o
-9 0 3 8.94 10.35 5.05 o
-8 0 3 8.71 3.14 2.97 o
-7 0 3 279.75 282.57 14.21 o
-6 0 3 452.00 430.69 14.77 o
-5 0 3 9.33 9.05 1.70 o
-4 0 3 491.01 562.88 15.83 o
-3 0 3 1160.55 1119.36 31.25 o
-2 0 3 137.64 142.22 4.07 o
-1 0 3 150.62 145.77 4.48 o
0 0 3 576.60 578.10 17.11 o
1 0 3 1301.91 1318.98 34.99 o
2 0 3 30.51 26.23 1.75 o
3 0 3 14.58 15.84 1.71 o
4 0 3 34.24 33.59 2.41 o
5 0 3 33.47 29.19 4.48 o
6 0 3 260.91 245.50 13.47 o
7 0 3 20.15 15.43 4.66 o
8 0 3 42.87 41.87 5.76 o
-10 1 3 31.27 29.03 6.63 o
-9 1 3 5.04 4.40 4.16 o
-8 1 3 22.06 21.12 3.81 o
-7 1 3 38.02 36.67 4.13 o
-6 1 3 481.33 478.39 14.27 o
-5 1 3 266.41 273.18 9.06 o
-4 1 3 605.15 616.87 15.10 o
-3 1 3 265.00 293.90 7.88 o
-2 1 3 2075.70 2053.51 59.79 o
-1 1 3 296.97 276.87 7.65 o
0 1 3 1356.00 1352.02 35.98 o
1 1 3 1216.72 1173.05 32.49 o
2 1 3 2429.30 2503.70 65.27 o
3 1 3 259.11 265.40 8.21 o
4 1 3 350.81 356.93 11.76 o
5 1 3 965.56 960.30 35.83 o
6 1 3 142.67 145.42 8.58 o
7 1 3 50.53 51.16 4.88 o
8 1 3 94.88 97.03 10.22 o
-10 2 3 34.71 27.62 5.85 o
-9 2 3 33.99 32.57 5.50 o
-8 2 3 216.30 219.74 11.43 o
-7 2 3 140.59 138.36 8.02 o
-6 2 3 286.04 280.09 10.17 o
-5 2 3 97.43 96.73 3.65 o
-4 2 3 894.18 879.83 17.59 o
-3 2 3 1148.09 1235.81 38.04 o
-2 2 3 387.14 391.62 10.56 o
-1 2 3 105.11 102.51 3.30 o
0 2 3 1278.85 1260.95 31.05 o
1 2 3 666.94 650.07 17.01 o
2 2 3 176.57 179.37 4.37 o
3 2 3 544.37 545.44 12.12 o
4 2 3 129.64 120.98 4.57 o
5 2 3 199.32 208.25 9.20 o
6 2 3 30.63 25.25 4.54 o
7 2 3 283.16 325.99 22.22 o
8 2 3 43.33 42.54 5.80 o
-10 3 3 76.51 77.66 9.01 o
-9 3 3 6.34 11.22 5.16 o
-8 3 3 65.86 74.82 7.95 o
-7 3 3 56.26 49.68 4.81 o
-6 3 3 180.85 180.57 6.17 o
-5 3 3 327.55 336.24 9.51 o
-4 3 3 60.30 55.37 2.54 o
-3 3 3 425.82 478.07 15.56 o
-2 3 3 47.98 52.12 2.36 o
-1 3 3 908.75 822.75 19.13 o
0 3 3 1027.69 989.46 23.78 o
1 3 3 1210.78 1227.49 41.55 o
2 3 3 1459.96 1507.22 35.68 o
3 3 3 416.55 413.03 10.25 o
4 3 3 440.32 434.08 11.12 o
5 3 3 27.07 24.37 1.83 o
6 3 3 276.08 285.83 11.78 o
7 3 3 16.20 19.84 4.03 o
8 3 3 9.83 16.68 4.72 o
-9 4 3 60.77 44.60 5.25 o
-8 4 3 249.56 272.70 16.16 o
-7 4 3 26.14 25.70 3.53 o
-6 4 3 240.94 230.64 8.33 o
-5 4 3 28.14 28.71 1.67 o
-4 4 3 526.31 545.78 14.55 o
-3 4 3 88.60 105.99 3.51 o
-2 4 3 349.95 360.30 8.44 o
-1 4 3 670.08 691.53 18.32 o
0 4 3 121.51 121.63 3.10 o
1 4 3 345.11 322.52 10.11 o
2 4 3 248.45 251.11 5.87 o
3 4 3 872.92 850.62 21.62 o
4 4 3 16.82 14.68 1.19 o
5 4 3 51.76 45.39 2.90 o
6 4 3 94.32 77.66 4.57 o
7 4 3 129.08 129.44 10.29 o
8 4 3 25.21 21.67 5.59 o
-9 5 3 12.01 15.90 3.02 o
-8 5 3 3.44 2.59 3.41 o
-7 5 3 67.04 63.72 3.67 o
-6 5 3 99.74 94.99 4.63 o
-5 5 3 50.11 49.37 2.19 o
-4 5 3 243.85 238.81 7.33 o
-3 5 3 8.19 6.20 0.70 o
-2 5 3 285.36 282.08 6.72 o
-1 5 3 121.57 121.96 3.11 o
0 5 3 42.23 41.67 1.53 o
1 5 3 712.92 721.48 19.11 o
2 5 3 6.11 8.75 1.27 o
3 5 3 241.29 229.96 6.07 o
4 5 3 85.49 72.15 3.02 o
5 5 3 270.76 279.84 11.40 o
6 5 3 8.97 10.64 3.19 o
7 5 3 21.36 22.15 4.67 o
8 5 3 7.24 11.22 4.32 o
-8 6 3 67.32 78.58 6.04 o
-7 6 3 95.93 97.03 7.59 o
-6 6 3 79.23 68.91 3.57 o
-5 6 3 4.00 3.74 1.03 o
-4 6 3 152.10 138.88 4.89 o
-3 6 3 370.66 365.67 9.92 o
-2 6 3 136.24 142.40 7.08 o
-1 6 3 38.71 38.03 1.46 o
0 6 3 138.21 128.77 4.04 o
1 6 3 137.77 129.78 4.22 o
2 6 3 300.95 303.63 10.33 o
3 6 3 60.17 58.40 2.60 o
4 6 3 109.49 117.90 4.35 o
5 6 3 9.53 4.85 3.62 o
6 6 3 40.52 45.99 4.93 o
7 6 3 14.18 24.07 5.46 o
-7 7 3 32.14 25.63 3.08 o
-6 7 3 12.49 12.87 1.59 o
-5 7 3 148.80 147.93 5.59 o
-4 7 3 104.29 107.98 5.24 o
-1 7 3 120.36 99.67 6.21 o
0 7 3 68.18 58.28 2.15 o
1 7 3 184.17 196.02 5.81 o
2 7 3 40.86 43.41 2.25 o
3 7 3 5.61 5.70 0.99 o
4 7 3 72.66 67.68 3.42 o
5 7 3 145.34 143.28 9.05 o
6 7 3 111.16 117.74 9.97 o
7 7 3 20.05 24.22 4.96 o
1 8 3 30.48 32.07 1.59 o
2 8 3 5.07 5.17 0.88 o
3 8 3 264.83 263.47 12.27 o
4 8 3 104.86 100.71 6.55 o
5 8 3 15.62 14.68 3.81 o
6 8 3 8.89 9.19 3.69 o
2 9 3 40.17 35.60 3.36 o
3 9 3 14.92 16.14 2.80 o
4 9 3 57.64 60.91 4.98 o
5 9 3 56.70 55.15 5.28 o
-1 -12 4 57.35 52.87 5.93 o
-4 -11 4 18.80 26.76 3.83 o
-3 -11 4 32.98 44.89 6.16 o
-2 -11 4 5.56 6.54 3.30 o
-1 -11 4 22.44 25.78 4.59 o
0 -11 4 64.07 56.48 5.35 o
2 -11 4 40.18 35.42 6.35 o
-6 -10 4 1.12 1.09 2.46 o
-5 -10 4 15.57 12.45 2.56 o
-4 -10 4 68.07 72.78 4.43 o
-3 -10 4 48.85 43.80 5.59 o
-2 -10 4 126.53 126.92 9.35 o
-1 -10 4 84.93 83.25 6.36 o
0 -10 4 10.10 14.23 3.08 o
1 -10 4 84.57 84.19 4.76 o
2 -10 4 47.24 44.60 4.95 o
3 -10 4 134.43 147.21 10.97 o
4 -10 4 52.61 56.93 6.82 o
-7 -9 4 8.84 9.32 3.08 o
-6 -9 4 109.59 118.38 8.55 o
-5 -9 4 1.53 0.87 2.30 o
-4 -9 4 148.24 163.46 8.72 o
-3 -9 4 76.58 83.79 4.07 o
-2 -9 4 21.71 24.07 2.04 o
-1 -9 4 30.07 24.81 1.99 o
0 -9 4 62.10 65.39 3.60 o
1 -9 4 113.54 113.12 3.47 o
2 -9 4 3.03 -0.27 2.37 o
3 -9 4 18.57 18.55 3.19 o
4 -9 4 22.27 25.40 3.74 o
5 -9 4 102.66 101.01 9.68 o
-7 -8 4 131.97 127.76 11.56 o
-6 -8 4 42.77 40.92 5.21 o
-5 -8 4 1.02 6.92 3.08 o
-4 -8 4 25.08 30.57 2.21 o
-3 -8 4 524.05 520.79 19.28 o
-2 -8 4 30.31 27.46 1.71 o
-1 -8 4 102.38 105.23 3.04 o
0 -8 4 132.21 133.00 5.30 o
1 -8 4 30.90 32.99 1.28 o
2 -8 4 92.77 85.56 3.29 o
3 -8 4 46.79 46.70 2.74 o
4 -8 4 429.89 448.09 20.08 o
5 -8 4 47.22 44.89 4.87 o
-8 -7 4 30.46 26.23 4.63 o
-7 -7 4 24.71 34.54 5.23 o
-6 -7 4 26.71 25.85 4.22 o
-5 -7 4 186.07 188.62 10.18 o
-4 -7 4 237.83 228.17 7.84 o
-3 -7 4 152.83 152.11 5.12 o
-2 -7 4 17.40 14.29 1.35 o
-1 -7 4 290.92 277.37 6.91 o
0 -7 4 43.99 40.92 1.90 o
1 -7 4 86.12 88.32 2.65 o
2 -7 4 28.93 28.71 1.59 o
3 -7 4 4.07 3.41 1.26 o
4 -7 4 41.17 41.20 2.66 o
5 -7 4 65.25 61.96 3.97 o
6 -7 4 69.16 75.20 4.88 o
-9 -6 4 165.57 171.52 13.39 o
-8 -6 4 142.61 165.36 10.49 o
-7 -6 4 16.67 13.95 3.32 o
-6 -6 4 91.85 96.88 6.56 o
-5 -6 4 7.54 7.69 2.51 o
-4 -6 4 691.06 704.46 22.82 o
-3 -6 4 39.15 35.77 1.95 o
-2 -6 4 443.07 439.97 13.99 o
-1 -6 4 697.73 696.61 17.61 o
0 -6 4 85.87 82.84 2.43 o
1 -6 4 26.59 26.15 1.21 o
2 -6 4 14.03 14.29 1.23 o
3 -6 4 519.98 526.22 15.64 o
4 -6 4 61.69 64.91 3.35 o
5 -6 4 50.80 55.70 3.21 o
6 -6 4 70.54 67.32 4.62 o
7 -6 4 60.42 61.84 6.18 o
-9 -5 4 129.87 125.09 12.93 o
-8 -5 4 29.89 29.03 4.15 o
-7 -5 4 14.35 17.41 3.53 o
-6 -5 4 79.33 80.30 5.71 o
-5 -5 4 575.50 550.29 22.95 o
-4 -5 4 41.28 43.41 2.54 o
-3 -5 4 103.94 107.06 4.45 o
-2 -5 4 76.99 89.44 2.66 o
-1 -5 4 549.41 557.62 15.75 o
0 -5 4 85.35 94.27 3.02 o
1 -5 4 160.98 165.36 4.00 o
2 -5 4 233.30 237.44 6.63 o
3 -5 4 135.71 133.52 4.11 o
4 -5 4 103.34 101.01 4.47 o
5 -5 4 30.58 26.99 2.01 o
6 -5 4 177.36 195.19 9.32 o
7 -5 4 34.93 28.80 5.41 o
-9 -4 4 115.72 126.09 10.49 o
-8 -4 4 206.52 203.78 13.33 o
-7 -4 4 117.16 119.36 9.07 o
-6 -4 4 77.40 74.82 6.28 o
-5 -4 4 11.80 12.71 1.80 o
-4 -4 4 209.90 211.69 7.12 o
-3 -4 4 651.58 656.51 18.23 o
-2 -4 4 195.03 199.78 7.13 o
-1 -4 4 185.03 190.87 5.94 o
0 -4 4 981.42 945.66 21.42 o
1 -4 4 52.10 52.65 1.51 o
2 -4 4 265.28 265.88 6.77 o
3 -4 4 96.32 99.82 2.96 o
4 -4 4 500.07 492.10 17.75 o
5 -4 4 33.74 32.24 4.71 o
6 -4 4 24.77 22.08 3.69 o
7 -4 4 53.60 58.51 6.58 o
-10 -3 4 134.09 129.10 14.32 o
-9 -3 4 16.49 13.08 4.45 o
-7 -3 4 64.27 59.19 5.36 o
-6 -3 4 300.01 284.32 14.50 o
-5 -3 4 59.27 55.70 3.10 o
-4 -3 4 557.87 562.53 15.82 o
-3 -3 4 280.42 280.34 7.70 o
-2 -3 4 61.64 64.91 2.63 o
-1 -3 4 154.01 165.18 4.96 o
0 -3 4 986.88 1021.89 27.96 o
1 -3 4 1474.76 1495.16 28.66 o
2 -3 4 221.67 224.16 6.21 o
3 -3 4 37.78 42.25 1.74 o
4 -3 4 10.97 13.79 2.97 o
5 -3 4 226.92 235.85 12.52 o
6 -3 4 90.72 80.69 6.13 o
7 -3 4 19.03 18.55 4.28 o
8 -3 4 156.99 147.75 14.23 o
-10 -2 4 25.86 20.24 5.33 o
-8 -2 4 106.80 104.32 7.72 o
-6 -2 4 56.96 65.03 4.19 o
-5 -2 4 35.46 30.74 2.05 o
-4 -2 4 249.84 250.40 7.04 o
-3 -2 4 415.92 421.51 12.48 o
-2 -2 4 726.57 800.79 22.23 o
-1 -2 4 335.12 355.53 9.78 o
0 -2 4 1065.40 1091.76 30.37 o
1 -2 4 92.72 110.92 3.12 o
2 -2 4 295.61 339.51 9.01 o
3 -2 4 392.48 383.74 11.90 o
4 -2 4 377.64 401.36 15.44 o
5 -2 4 77.91 73.16 4.69 o
6 -2 4 141.33 142.75 9.74 o
7 -2 4 2.51 -1.27 3.14 o
8 -2 4 31.11 35.87 6.66 o
-9 -1 4 17.25 17.97 4.02 o
-8 -1 4 5.99 0.82 2.68 o
-7 -1 4 34.07 40.25 4.23 o
-5 -1 4 1266.26 1249.40 34.06 o
-4 -1 4 292.66 290.10 7.58 o
-3 -1 4 639.90 700.53 16.87 o
-2 -1 4 569.76 574.90 19.55 o
-1 -1 4 1354.47 1332.47 36.80 o
0 -1 4 646.39 668.73 17.63 o
1 -1 4 1216.55 1275.20 37.59 o
2 -1 4 419.51 424.56 9.77 o
3 -1 4 42.30 44.00 2.65 o
4 -1 4 55.04 54.93 4.07 o
5 -1 4 98.99 104.46 6.36 o
6 -1 4 118.50 118.22 8.38 o
7 -1 4 91.77 96.01 8.43 o
8 -1 4 71.84 79.77 9.93 o
-9 0 4 78.03 85.84 7.14 o
-8 0 4 4.12 3.46 2.92 o
-7 0 4 1.78 -1.92 2.53 o
-6 0 4 127.78 117.74 7.08 o
-5 0 4 5.59 4.19 1.48 o
-4 0 4 440.07 410.92 11.72 o
-3 0 4 72.11 86.25 2.89 o
-2 0 4 396.39 445.27 12.51 o
-1 0 4 32.77 22.50 1.62 o
0 0 4 1270.30 1281.78 26.24 o
1 0 4 810.83 879.39 26.81 o
2 0 4 505.09 603.69 15.66 o
3 0 4 941.41 918.05 24.70 o
4 0 4 12.03 11.07 1.63 o
5 0 4 0.46 -1.82 2.58 o
6 0 4 200.31 212.55 12.10 o
7 0 4 48.10 39.78 5.14 o
8 0 4 92.83 100.86 10.42 o
-10 1 4 38.10 34.98 6.31 o
-9 1 4 17.73 15.26 4.17 o
-8 1 4 5.38 1.98 2.63 o
-7 1 4 35.47 24.51 3.67 o
-6 1 4 549.68 554.47 19.90 o
-5 1 4 1268.36 1267.80 34.83 o
-4 1 4 293.22 301.06 9.26 o
-3 1 4 643.01 712.74 17.81 o
-2 1 4 586.08 612.83 17.61 o
-1 1 4 1341.51 1321.13 37.72 o
0 1 4 629.45 643.29 14.29 o
1 1 4 1221.69 1284.75 41.44 o
2 1 4 415.02 414.84 11.47 o
3 1 4 43.00 49.89 1.78 o
4 1 4 55.14 48.54 2.79 o
5 1 4 102.06 103.26 6.63 o
6 1 4 118.39 123.60 8.24 o
7 1 4 90.33 87.63 6.25 o
8 1 4 70.97 73.79 9.17 o
-10 2 4 27.10 18.55 5.04 o
-9 2 4 26.96 25.85 4.37 o
-8 2 4 104.18 116.94 8.17 o
-7 2 4 150.87 145.42 8.40 o
-6 2 4 59.22 59.99 3.21 o
-5 2 4 35.78 30.98 1.90 o
-4 2 4 252.49 257.97 7.62 o
-3 2 4 424.41 418.47 10.61 o
-2 2 4 743.88 836.84 22.30 o
-1 2 4 332.61 355.81 9.51 o
0 2 4 1049.85 1041.41 25.35 o
1 2 4 98.23 120.49 3.74 o
2 2 4 289.86 332.71 10.82 o
3 2 4 397.74 393.68 9.41 o
4 2 4 382.74 401.66 11.59 o
5 2 4 79.07 84.33 3.95 o
6 2 4 140.59 140.63 9.49 o
7 2 4 2.78 -1.82 4.52 o
8 2 4 32.34 35.60 6.54 o
-10 3 4 133.51 120.00 12.18 o
-9 3 4 16.32 12.82 3.71 o
-8 3 4 23.45 24.73 3.76 o
-7 3 4 61.66 66.23 4.94 o
-6 3 4 298.94 295.17 11.21 o
-5 3 4 58.11 52.22 2.57 o
-4 3 4 559.59 599.69 19.24 o
-3 3 4 287.18 276.62 8.88 o
-2 3 4 62.55 59.76 2.29 o
-1 3 4 155.89 165.94 4.97 o
0 3 4 974.75 1019.05 26.50 o
1 3 4 1458.86 1491.15 39.50 o
2 3 4 224.48 227.05 7.15 o
3 3 4 39.65 50.63 2.11 o
4 3 4 10.66 10.39 1.10 o
5 3 4 228.00 229.74 10.11 o
6 3 4 89.15 97.90 7.48 o
7 3 4 19.99 19.58 4.79 o
8 3 4 156.30 163.28 14.59 o
-9 4 4 115.18 118.07 10.31 o
-8 4 4 208.69 213.41 16.24 o
-7 4 4 122.06 117.10 7.06 o
-6 4 4 76.16 79.50 3.70 o
-5 4 4 11.88 12.71 1.64 o
-4 4 4 210.75 213.41 7.58 o
-3 4 4 665.36 686.86 19.03 o
-2 4 4 191.51 196.85 4.58 o
-1 4 4 190.35 195.19 4.76 o
0 4 4 975.51 960.30 21.59 o
1 4 4 49.09 51.05 2.01 o
2 4 4 273.27 279.59 8.18 o
3 4 4 94.09 96.01 3.20 o
4 4 4 509.53 521.81 17.27 o
5 4 4 35.88 37.30 2.63 o
6 4 4 25.43 27.23 3.64 o
7 4 4 52.86 60.33 7.25 o
-9 5 4 130.56 145.96 12.54 o
-8 5 4 29.58 34.37 4.43 o
-7 5 4 14.84 28.16 3.77 o
-6 5 4 78.10 81.09 3.47 o
-5 5 4 567.57 550.64 16.69 o
-4 5 4 43.81 41.77 1.72 o
-3 5 4 102.18 104.32 2.88 o
-2 5 4 73.91 90.57 3.95 o
-1 5 4 542.32 543.70 13.48 o
0 5 4 84.24 93.99 2.59 o
1 5 4 155.92 165.36 4.96 o
2 5 4 233.21 256.78 7.84 o
3 5 4 136.71 127.09 5.18 o
4 5 4 102.25 106.90 3.68 o
5 5 4 29.22 26.00 2.49 o
6 5 4 178.28 210.17 12.46 o
7 5 4 32.70 33.51 5.32 o
-8 6 4 146.01 137.66 11.65 o
-7 6 4 15.96 10.54 2.07 o
-6 6 4 91.30 98.94 4.42 o
-5 6 4 7.52 5.84 0.93 o
-4 6 4 696.84 717.11 23.02 o
-3 6 4 38.64 37.48 1.36 o
-2 6 4 450.95 458.82 11.75 o
-1 6 4 698.14 735.08 19.69 o
0 6 4 83.73 82.84 2.97 o
1 6 4 25.89 26.00 1.51 o
2 6 4 13.80 11.88 1.53 o
3 6 4 518.50 529.28 16.71 o
4 6 4 59.41 58.05 3.50 o
5 6 4 49.95 53.30 5.20 o
6 6 4 70.55 79.24 7.52 o
7 6 4 59.72 56.48 7.47 o
-7 7 4 23.59 19.91 2.58 o
-6 7 4 26.02 16.80 2.01 o
-5 7 4 185.61 184.57 7.25 o
-4 7 4 232.17 221.50 9.49 o
-3 7 4 152.90 143.46 4.61 o
-1 7 4 285.38 272.94 11.51 o
0 7 4 40.94 35.60 1.77 o
1 7 4 87.72 95.43 3.91 o
2 7 4 28.83 30.25 1.79 o
3 7 4 3.91 3.14 1.15 o
4 7 4 40.08 40.34 4.05 o
5 7 4 65.33 65.75 5.53 o
6 7 4 69.26 73.16 6.47 o
0 8 4 130.85 130.96 6.78 o
1 8 4 28.60 27.54 1.79 o
2 8 4 90.87 80.69 4.39 o
3 8 4 46.37 43.22 3.99 o
4 8 4 428.15 444.95 23.76 o
5 8 4 47.55 54.39 6.12 o
6 8 4 1.24 -3.46 4.27 o
1 9 4 111.75 112.34 8.95 o
2 9 4 3.39 3.24 1.81 o
3 9 4 19.27 19.84 2.51 o
4 9 4 22.44 19.32 3.46 o
5 9 4 100.04 102.66 8.56 o
-4 -11 5 46.50 48.64 6.41 o
-3 -11 5 41.82 41.39 6.58 o
-2 -11 5 3.08 -2.64 4.88 o
-1 -11 5 12.22 9.10 4.29 o
0 -11 5 118.15 121.96 10.64 o
-5 -10 5 72.57 64.55 6.08 o
-4 -10 5 6.49 15.96 3.55 o
-3 -10 5 139.45 139.23 8.92 o
-2 -10 5 46.20 39.69 5.60 o
-1 -10 5 81.63 91.70 7.24 o
0 -10 5 94.86 82.97 7.16 o
1 -10 5 59.62 60.68 6.12 o
2 -10 5 11.24 19.58 3.87 o
3 -10 5 26.36 19.51 3.93 o
-7 -9 5 12.53 26.38 6.02 o
-6 -9 5 10.54 7.72 3.75 o
-5 -9 5 110.50 124.93 9.61 o
-4 -9 5 51.44 47.62 4.09 o
-3 -9 5 20.36 20.44 2.21 o
-2 -9 5 3.20 4.49 1.82 o
-1 -9 5 99.62 88.05 5.01 o
0 -9 5 36.82 36.13 2.49 o
1 -9 5 14.08 15.32 1.63 o
2 -9 5 77.14 80.17 7.03 o
3 -9 5 39.03 47.62 5.93 o
4 -9 5 0.39 2.31 2.79 o
-7 -8 5 24.44 26.99 4.70 o
-6 -8 5 113.51 114.23 8.24 o
-5 -8 5 20.90 14.68 3.13 o
-4 -8 5 87.25 93.41 5.59 o
-3 -8 5 37.84 37.75 2.27 o
-2 -8 5 197.02 192.30 6.58 o
-1 -8 5 167.46 165.75 4.96 o
0 -8 5 9.12 7.08 0.87 o
1 -8 5 51.93 48.75 2.27 o
2 -8 5 17.50 14.85 1.83 o
3 -8 5 186.73 212.76 7.35 o
4 -8 5 17.75 17.91 2.26 o
5 -8 5 64.16 60.57 5.77 o
-8 -7 5 32.48 37.21 5.25 o
-7 -7 5 27.29 37.66 4.46 o
-6 -7 5 11.52 13.84 3.81 o
-5 -7 5 110.79 115.82 7.02 o
-4 -7 5 78.04 78.71 3.68 o
-3 -7 5 151.60 155.23 6.09 o
-2 -7 5 7.46 10.16 1.27 o
-1 -7 5 103.56 103.86 3.32 o
0 -7 5 35.88 34.63 1.66 o
1 -7 5 121.45 121.14 3.92 o
2 -7 5 2.65 4.34 1.14 o
3 -7 5 80.10 74.43 3.97 o
4 -7 5 20.02 24.37 2.71 o
5 -7 5 115.75 112.65 5.98 o
6 -7 5 43.92 49.89 5.86 o
-9 -6 5 25.11 26.15 6.90 o
-8 -6 5 3.95 5.17 3.24 o
-7 -6 5 235.76 233.80 14.51 o
-6 -6 5 12.22 4.49 2.64 o
-5 -6 5 55.76 51.90 4.38 o
-4 -6 5 10.59 5.98 1.63 o
-3 -6 5 1060.23 1053.41 35.12 o
-2 -6 5 155.60 161.57 5.09 o
-1 -6 5 433.22 452.18 11.35 o
0 -6 5 480.03 481.32 13.66 o
1 -6 5 90.75 85.15 2.74 o
2 -6 5 20.96 17.47 1.36 o
3 -6 5 51.64 49.68 3.14 o
4 -6 5 358.13 376.23 14.66 o
5 -6 5 124.06 117.10 6.90 o
6 -6 5 5.70 3.41 3.01 o
-9 -5 5 9.37 3.03 5.73 o
-8 -5 5 48.88 39.97 5.34 o
-7 -5 5 38.76 45.59 5.60 o
-6 -5 5 165.35 152.11 9.87 o
-5 -5 5 10.59 10.21 1.87 o
-4 -5 5 65.69 67.68 3.29 o
-3 -5 5 509.87 534.42 16.11 o
-2 -5 5 200.03 206.75 7.25 o
-1 -5 5 40.70 44.10 2.07 o
0 -5 5 71.16 62.43 1.99 o
1 -5 5 343.82 345.54 8.27 o
2 -5 5 98.56 97.90 3.08 o
3 -5 5 56.62 48.85 2.59 o
4 -5 5 71.89 77.79 3.92 o
5 -5 5 185.12 193.13 7.83 o
6 -5 5 10.87 6.92 2.92 o
7 -5 5 4.50 12.71 3.86 o
-9 -4 5 27.38 25.63 5.25 o
-8 -4 5 142.69 162.71 11.16 o
-7 -4 5 97.56 98.49 8.38 o
-6 -4 5 134.06 151.56 7.30 o
-5 -4 5 103.22 94.13 4.17 o
-4 -4 5 232.05 233.35 8.60 o
-3 -4 5 373.74 385.20 9.60 o
-2 -4 5 632.57 638.41 17.98 o
-1 -4 5 1160.66 1214.54 36.68 o
0 -4 5 252.20 249.94 6.09 o
1 -4 5 121.71 113.91 3.32 o
2 -4 5 72.20 83.38 2.57 o
3 -4 5 354.52 334.07 10.56 o
4 -4 5 151.67 160.63 6.39 o
5 -4 5 40.53 42.06 2.79 o
6 -4 5 109.49 121.63 8.34 o
7 -4 5 13.43 22.08 5.64 o
-10 -3 5 107.00 98.34 10.73 o
-9 -3 5 52.23 54.39 7.10 o
-8 -3 5 66.97 65.15 5.38 o
-7 -3 5 14.62 8.75 3.20 o
-6 -3 5 81.83 76.88 5.07 o
-5 -3 5 324.90 324.65 10.68 o
-4 -3 5 2.37 0.99 1.43 o
-3 -3 5 117.34 115.02 5.09 o
-2 -3 5 550.65 545.44 14.20 o
-1 -3 5 364.41 349.13 9.97 o
0 -3 5 194.24 199.78 5.87 o
1 -3 5 31.88 30.25 1.38 o
2 -3 5 231.73 221.06 6.17 o
3 -3 5 76.76 75.33 2.70 o
4 -3 5 62.12 62.78 3.17 o
5 -3 5 58.97 57.26 3.14 o
6 -3 5 116.56 106.14 9.16 o
7 -3 5 44.52 36.94 6.13 o
-10 -2 5 5.81 12.92 4.10 o
-9 -2 5 17.50 15.78 5.42 o
-8 -2 5 136.38 132.83 8.71 o
-7 -2 5 232.13 241.57 11.98 o
-6 -2 5 228.28 228.17 11.87 o
-5 -2 5 171.80 176.02 6.49 o
-4 -2 5 29.00 32.07 2.27 o
-3 -2 5 1355.89 1414.32 34.56 o
-2 -2 5 367.78 358.05 10.66 o
-1 -2 5 574.57 582.03 16.09 o
0 -2 5 119.23 119.52 4.21 o
1 -2 5 230.59 218.86 5.48 o
2 -2 5 22.56 27.77 1.87 o
3 -2 5 448.69 451.23 11.34 o
4 -2 5 192.21 181.77 5.99 o
5 -2 5 77.95 74.17 6.13 o
6 -2 5 127.48 121.80 7.69 o
7 -2 5 36.34 41.67 5.65 o
-10 -1 5 12.72 11.83 4.23 o
-9 -1 5 12.22 11.47 4.72 o
-8 -1 5 111.80 107.67 7.08 o
-7 -1 5 66.19 65.03 4.90 o
-6 -1 5 396.69 369.08 15.10 o
-5 -1 5 260.55 236.76 7.76 o
-4 -1 5 305.20 315.37 10.27 o
-3 -1 5 511.10 520.46 12.51 o
-2 -1 5 1438.99 1515.87 36.94 o
-1 -1 5 622.14 635.79 16.07 o
0 -1 5 55.61 58.62 2.50 o
1 -1 5 798.43 792.42 21.28 o
2 -1 5 318.24 311.96 9.95 o
3 -1 5 131.85 119.68 3.41 o
4 -1 5 168.71 151.38 9.48 o
5 -1 5 116.87 114.23 7.76 o
6 -1 5 58.80 61.14 5.10 o
7 -1 5 72.87 73.79 9.17 o
-10 0 5 0.39 3.57 4.79 o
-9 0 5 37.43 30.65 5.09 o
-8 0 5 66.63 69.90 6.32 o
-7 0 5 753.42 786.59 35.34 o
-6 0 5 0.00 1.70 2.24 o
-5 0 5 1386.58 1479.15 40.48 o
-4 0 5 66.03 77.66 2.87 o
-3 0 5 1837.85 1832.10 45.05 o
-2 0 5 383.58 443.39 11.55 o
-1 0 5 108.64 86.52 2.90 o
0 0 5 363.52 329.48 8.88 o
1 0 5 254.08 261.55 8.39 o
2 0 5 3.42 2.13 1.10 o
3 0 5 11.49 10.54 1.54 o
4 0 5 457.65 448.09 14.12 o
5 0 5 254.00 252.99 14.85 o
6 0 5 48.12 56.26 5.78 o
7 0 5 1.17 4.00 3.74 o
8 0 5 115.57 121.47 13.72 o
-10 1 5 12.76 19.91 5.03 o
-9 1 5 12.07 10.49 4.94 o
-8 1 5 114.16 125.26 8.96 o
-7 1 5 65.20 56.04 4.55 o
-6 1 5 397.26 375.65 12.93 o
-5 1 5 263.07 255.35 8.05 o
-4 1 5 304.79 319.33 10.33 o
-3 1 5 518.52 526.22 17.00 o
-2 1 5 1429.54 1544.86 40.20 o
-1 1 5 626.58 634.30 16.80 o
0 1 5 56.71 62.66 1.88 o
1 1 5 790.09 758.58 20.41 o
2 1 5 328.96 317.21 10.29 o
3 1 5 130.79 113.28 4.58 o
4 1 5 166.22 152.29 5.67 o
5 1 5 117.92 117.42 4.50 o
6 1 5 58.13 60.22 5.64 o
7 1 5 74.51 76.36 8.68 o
-10 2 5 5.64 6.96 4.07 o
-9 2 5 16.85 15.96 4.20 o
-8 2 5 137.05 138.88 10.31 o
-7 2 5 236.19 216.24 13.08 o
-6 2 5 225.07 222.16 8.62 o
-5 2 5 174.66 170.36 6.38 o
-4 2 5 26.06 28.71 1.51 o
-3 2 5 1363.27 1427.73 38.09 o
-2 2 5 351.85 354.14 9.21 o
-1 2 5 570.62 580.25 16.07 o
0 2 5 113.18 119.19 2.91 o
1 2 5 226.60 208.46 7.49 o
2 2 5 22.64 22.22 1.88 o
3 2 5 451.61 451.86 13.87 o
4 2 5 192.13 186.79 7.09 o
5 2 5 82.60 73.79 4.08 o
6 2 5 129.01 127.93 10.39 o
7 2 5 37.67 34.28 6.60 o
-10 3 5 103.83 114.38 11.10 o
-9 3 5 53.46 44.89 5.36 o
-8 3 5 66.22 72.78 5.44 o
-7 3 5 14.17 10.11 2.64 o
-6 3 5 80.82 82.84 4.45 o
-5 3 5 322.99 323.58 10.40 o
-4 3 5 2.79 1.42 0.99 o
-3 3 5 112.96 113.12 3.63 o
-2 3 5 549.70 559.72 15.08 o
-1 3 5 363.07 355.53 7.83 o
0 3 5 186.42 185.99 4.25 o
1 3 5 31.68 28.87 1.51 o
2 3 5 227.54 218.20 7.01 o
3 3 5 78.21 70.52 3.48 o
4 3 5 60.18 53.19 3.03 o
5 3 5 59.26 60.22 5.64 o
6 3 5 116.24 133.69 9.77 o
7 3 5 44.55 50.31 5.99 o
-9 4 5 27.20 33.16 4.70 o
-8 4 5 146.30 139.23 10.32 o
-7 4 5 93.27 96.30 6.55 o
-6 4 5 131.96 139.93 5.44 o
-5 4 5 101.46 100.27 3.86 o
-4 4 5 228.98 246.43 7.91 o
-3 4 5 366.36 374.51 19.51 o
-2 4 5 630.70 634.67 14.56 o
-1 4 5 1148.13 1219.19 28.47 o
0 4 5 258.10 260.35 6.22 o
1 4 5 122.50 126.26 4.83 o
2 4 5 73.70 75.72 3.35 o
3 4 5 354.19 328.67 12.36 o
4 4 5 154.40 152.66 8.24 o
5 4 5 39.47 43.32 5.76 o
6 4 5 112.15 119.68 9.89 o
7 4 5 14.22 16.62 4.47 o
-9 5 5 9.42 18.61 4.48 o
-8 5 5 47.93 46.80 5.37 o
-7 5 5 37.42 29.03 3.27 o
-6 5 5 165.32 153.58 6.61 o
-5 5 5 9.32 8.19 1.27 o
-4 5 5 59.13 63.13 2.59 o
-3 5 5 510.64 527.58 12.60 o
-2 5 5 195.74 187.00 5.27 o
-1 5 5 43.33 48.75 1.86 o
0 5 5 71.08 65.75 2.16 o
1 5 5 340.52 343.07 10.98 o
2 5 5 95.31 97.76 4.10 o
3 5 5 56.85 50.00 2.83 o
4 5 5 69.83 75.46 6.05 o
5 5 5 186.22 183.17 11.44 o
6 5 5 10.62 11.62 5.05 o
7 5 5 4.65 2.13 5.54 o
-8 6 5 3.24 1.27 2.20 o
-7 6 5 233.02 222.38 15.48 o
-6 6 5 11.91 8.66 1.31 o
-5 6 5 55.32 52.44 2.69 o
-4 6 5 9.71 7.08 0.94 o
-3 6 5 1056.36 1099.12 33.91 o
-2 6 5 157.92 163.28 4.55 o
-1 6 5 437.79 459.46 12.71 o
0 6 5 482.26 470.97 16.41 o
1 6 5 90.48 90.43 3.81 o
2 6 5 21.43 18.41 1.53 o
3 6 5 52.57 43.02 3.02 o
4 6 5 360.52 370.79 21.41 o
5 6 5 124.14 129.44 10.96 o
6 6 5 5.66 10.35 3.86 o
-7 7 5 27.79 25.40 2.91 o
-6 7 5 11.85 13.95 2.38 o
-5 7 5 111.60 105.68 5.49 o
-4 7 5 73.52 76.75 2.99 o
-3 7 5 154.82 165.94 8.02 o
-2 7 5 6.67 5.55 0.59 o
-1 7 5 104.89 104.92 4.55 o
0 7 5 37.12 31.48 1.91 o
1 7 5 123.76 120.49 5.21 o
2 7 5 3.97 5.28 1.64 o
3 7 5 76.88 67.44 3.65 o
4 7 5 19.19 19.19 4.09 o
5 7 5 118.22 103.86 8.91 o
6 7 5 44.99 50.42 6.10 o
-1 8 5 169.52 177.00 10.85 o
0 8 5 9.45 9.88 1.16 o
1 8 5 53.29 54.50 2.63 o
2 8 5 17.06 17.91 2.51 o
3 8 5 187.73 224.16 14.65 o
4 8 5 16.95 15.96 2.72 o
5 8 5 64.95 63.37 6.61 o
1 9 5 15.08 14.97 1.90 o
2 9 5 73.73 70.27 6.09 o
3 9 5 40.51 35.60 4.16 o
4 9 5 0.50 1.04 2.37 o
-3 -11 6 49.25 43.71 6.37 o
-2 -11 6 175.55 196.65 11.43 o
-1 -11 6 6.28 14.01 4.77 o
0 -11 6 63.26 83.79 6.92 o
-5 -10 6 60.20 53.84 5.33 o
-4 -10 6 11.70 5.28 1.77 o
-3 -10 6 19.34 29.27 4.73 o
-2 -10 6 58.52 62.54 7.03 o
-1 -10 6 99.84 94.71 8.37 o
0 -10 6 104.26 104.77 8.80 o
1 -10 6 73.96 71.52 6.89 o
-6 -9 6 64.09 63.25 6.13 o
-5 -9 6 8.02 4.62 3.79 o
-4 -9 6 103.62 112.18 7.69 o
-3 -9 6 29.50 35.16 2.81 o
-2 -9 6 116.64 127.42 5.36 o
-1 -9 6 88.10 93.84 4.45 o
0 -9 6 54.04 51.79 3.20 o
1 -9 6 73.59 76.10 4.01 o
3 -9 6 76.43 70.15 6.45 o
-7 -8 6 84.73 86.25 8.81 o
-6 -8 6 12.00 11.98 3.23 o
-5 -8 6 36.53 43.71 4.70 o
-4 -8 6 2.07 2.81 1.99 o
-3 -8 6 340.11 302.86 13.16 o
-2 -8 6 3.04 3.41 1.15 o
-1 -8 6 81.39 79.77 3.71 o
0 -8 6 209.67 214.28 8.89 o
1 -8 6 59.08 56.04 3.66 o
2 -8 6 49.35 46.50 4.55 o
3 -8 6 13.79 12.18 1.76 o
4 -8 6 62.11 53.08 4.21 o
-8 -7 6 45.22 44.50 7.02 o
-7 -7 6 60.26 55.70 6.53 o
-6 -7 6 17.84 25.55 4.94 o
-5 -7 6 165.36 175.82 10.03 o
-4 -7 6 99.81 113.59 6.64 o
-3 -7 6 142.35 137.31 5.56 o
-2 -7 6 173.14 171.91 7.00 o
-1 -7 6 59.85 62.19 2.69 o
0 -7 6 88.86 85.56 3.29 o
1 -7 6 79.79 77.53 3.13 o
2 -7 6 63.58 55.15 3.63 o
3 -7 6 127.97 129.61 6.41 o
4 -7 6 94.69 88.74 5.31 o
5 -7 6 40.42 30.49 4.18 o
-9 -6 6 5.79 3.24 3.79 o
-8 -6 6 20.52 23.42 5.24 o
-7 -6 6 57.81 67.08 6.31 o
-6 -6 6 109.72 86.25 6.61 o
-5 -6 6 15.58 21.94 4.44 o
-4 -6 6 89.27 93.84 6.03 o
-3 -6 6 55.58 50.52 2.95 o
-2 -6 6 223.29 220.84 8.59 o
-1 -6 6 132.35 130.45 3.55 o
0 -6 6 2.46 3.14 1.00 o
1 -6 6 234.02 234.93 7.50 o
2 -6 6 58.09 51.69 3.30 o
3 -6 6 74.36 70.27 4.10 o
4 -6 6 65.26 69.03 3.82 o
5 -6 6 117.29 131.30 12.23 o
6 -6 6 104.01 113.91 9.49 o
-9 -5 6 22.00 16.98 4.70 o
-8 -5 6 27.66 32.99 4.18 o
-7 -5 6 47.53 44.10 4.72 o
-6 -5 6 19.26 17.54 3.48 o
-5 -5 6 395.59 363.68 16.96 o
-4 -5 6 12.30 8.40 1.93 o
-3 -5 6 836.46 869.75 28.42 o
-2 -5 6 792.32 761.43 22.50 o
-1 -5 6 66.42 69.90 3.10 o
0 -5 6 14.71 12.24 1.04 o
1 -5 6 25.44 19.64 1.25 o
2 -5 6 389.61 372.50 15.73 o
3 -5 6 48.27 45.19 2.99 o
4 -5 6 13.34 14.46 1.58 o
5 -5 6 58.71 59.99 5.51 o
6 -5 6 11.05 13.57 3.93 o
-9 -4 6 5.85 2.91 3.41 o
-8 -4 6 26.65 33.77 5.08 o
-7 -4 6 173.05 187.61 10.96 o
-6 -4 6 62.67 53.52 4.23 o
-5 -4 6 22.82 21.53 2.96 o
-4 -4 6 82.93 75.58 3.48 o
-3 -4 6 292.34 298.23 9.73 o
-2 -4 6 98.88 111.71 3.76 o
-1 -4 6 202.51 194.37 5.99 o
0 -4 6 476.97 473.87 11.62 o
1 -4 6 283.45 266.13 7.50 o
2 -4 6 31.10 36.85 2.43 o
3 -4 6 22.39 21.32 1.58 o
4 -4 6 84.15 98.34 4.85 o
5 -4 6 29.52 32.74 3.99 o
6 -4 6 90.76 100.27 9.20 o
-10 -3 6 30.78 36.22 7.32 o
-9 -3 6 15.33 13.19 6.14 o
-8 -3 6 94.83 98.20 8.67 o
-7 -3 6 70.39 68.42 6.13 o
-6 -3 6 441.86 387.23 17.21 o
-5 -3 6 104.87 97.90 6.60 o
-4 -3 6 510.22 525.88 15.30 o
-3 -3 6 753.09 752.46 20.33 o
-2 -3 6 18.05 17.47 1.80 o
-1 -3 6 220.63 222.38 7.30 o
0 -3 6 13.58 12.66 1.42 o
1 -3 6 588.76 581.68 15.73 o
2 -3 6 67.95 78.18 3.67 o
3 -3 6 93.57 77.79 4.97 o
4 -3 6 84.82 73.03 3.04 o
5 -3 6 25.06 24.00 3.85 o
6 -3 6 29.13 26.15 3.94 o
7 -3 6 7.45 2.31 4.24 o
-10 -2 6 5.35 9.01 4.27 o
-9 -2 6 3.43 5.31 3.72 o
-8 -2 6 94.11 84.19 6.80 o
-7 -2 6 96.86 96.59 6.99 o
-6 -2 6 62.60 56.71 4.69 o
-5 -2 6 326.88 345.26 11.57 o
-4 -2 6 301.98 306.74 9.61 o
-3 -2 6 83.17 83.65 3.12 o
-2 -2 6 34.14 37.48 2.09 o
-1 -2 6 422.74 428.53 13.20 o
0 -2 6 535.92 521.81 14.22 o
1 -2 6 336.81 333.52 9.21 o
2 -2 6 56.72 54.71 3.18 o
3 -2 6 78.89 85.97 5.77 o
4 -2 6 58.04 44.60 4.46 o
5 -2 6 10.05 11.72 3.25 o
6 -2 6 12.05 13.13 3.87 o
7 -2 6 168.90 181.56 17.38 o
-10 -1 6 10.32 9.10 4.03 o
-9 -1 6 69.59 64.08 6.53 o
-8 -1 6 24.03 19.45 3.99 o
-7 -1 6 49.52 49.58 4.38 o
-6 -1 6 801.99 784.93 33.64 o
-5 -1 6 821.93 818.50 24.17 o
-4 -1 6 325.33 328.67 9.14 o
-3 -1 6 190.21 166.32 5.35 o
-2 -1 6 1058.55 1139.28 33.02 o
-1 -1 6 276.17 276.38 7.15 o
0 -1 6 173.31 196.44 5.61 o
1 -1 6 396.03 381.14 11.57 o
2 -1 6 1030.96 984.80 30.70 o
3 -1 6 264.50 267.82 12.13 o
4 -1 6 18.66 17.66 3.99 o
5 -1 6 4.27 2.20 2.97 o
6 -1 6 69.17 81.50 8.16 o
7 -1 6 150.57 149.38 14.85 o
-10 0 6 51.23 52.33 7.29 o
-9 0 6 1.73 3.35 3.58 o
-8 0 6 22.79 24.81 3.62 o
-7 0 6 62.07 64.55 5.36 o
-6 0 6 343.19 340.05 15.58 o
-5 0 6 781.83 751.65 23.98 o
-4 0 6 6.76 10.64 2.37 o
-3 0 6 0.92 0.99 1.15 o
-2 0 6 100.60 125.26 3.98 o
-1 0 6 936.41 989.92 26.12 o
0 0 6 7.01 14.81 2.18 o
1 0 6 451.81 423.95 12.82 o
2 0 6 316.44 302.86 10.83 o
3 0 6 159.31 156.90 7.61 o
4 0 6 25.04 15.49 2.98 o
5 0 6 12.01 21.32 4.86 o
6 0 6 74.79 78.71 8.42 o
7 0 6 159.40 164.61 15.60 o
-10 1 6 9.80 11.78 4.32 o
-9 1 6 70.49 70.15 6.33 o
-8 1 6 23.00 17.97 4.59 o
-7 1 6 48.60 60.10 5.05 o
-6 1 6 798.46 741.12 33.49 o
-5 1 6 824.63 813.42 24.52 o
-4 1 6 318.86 308.04 8.84 o
-3 1 6 190.83 180.77 5.38 o
-2 1 6 1062.78 1122.34 29.80 o
-1 1 6 273.11 281.08 8.45 o
0 1 6 173.25 192.72 5.35 o
1 1 6 403.85 390.16 12.30 o
2 1 6 1023.52 1004.44 31.01 o
3 1 6 266.92 277.86 12.35 o
4 1 6 19.99 18.16 2.84 o
5 1 6 5.15 6.54 3.03 o
6 1 6 66.84 65.87 6.50 o
7 1 6 152.26 162.14 14.54 o
-10 2 6 5.33 2.59 3.79 o
-9 2 6 3.50 7.20 3.74 o
-8 2 6 93.72 103.41 8.29 o
-7 2 6 95.66 103.41 6.78 o
-6 2 6 62.81 79.37 4.75 o
-5 2 6 331.90 337.05 10.34 o
-4 2 6 297.83 291.36 8.86 o
-3 2 6 86.83 90.15 3.52 o
-2 2 6 32.34 30.90 1.73 o
-1 2 6 424.26 415.14 12.99 o
0 2 6 544.61 538.19 11.69 o
1 2 6 342.46 330.01 10.23 o
2 2 6 56.28 56.37 2.79 o
3 2 6 79.10 79.63 5.42 o
4 2 6 63.13 57.94 4.40 o
5 2 6 11.22 6.96 3.17 o
6 2 6 13.37 20.71 4.32 o
7 2 6 166.84 180.57 16.13 o
-10 3 6 29.89 42.64 6.58 o
-9 3 6 16.13 15.72 5.23 o
-8 3 6 96.12 103.86 7.70 o
-7 3 6 70.49 81.09 5.61 o
-6 3 6 439.05 398.69 14.21 o
-5 3 6 104.41 100.86 4.17 o
-4 3 6 514.07 528.60 16.36 o
-3 3 6 742.41 739.51 20.96 o
-2 3 6 18.19 15.96 1.54 o
-1 3 6 225.22 229.29 5.16 o
0 3 6 14.49 14.34 1.01 o
1 3 6 586.59 579.53 17.49 o
2 3 6 68.48 82.57 3.50 o
3 3 6 96.73 93.13 5.15 o
4 3 6 82.09 80.30 6.24 o
5 3 6 25.77 25.18 3.87 o
6 3 6 29.58 32.74 4.66 o
7 3 6 6.71 15.96 5.92 o
-9 4 6 5.35 7.69 3.74 o
-8 4 6 27.87 39.04 4.91 o
-7 4 6 167.21 182.37 10.41 o
-6 4 6 60.28 57.49 3.15 o
-5 4 6 23.14 27.30 1.78 o
-4 4 6 81.16 80.17 2.92 o
-3 4 6 290.89 301.32 9.78 o
-2 4 6 102.25 116.46 3.36 o
-1 4 6 212.09 206.75 5.54 o
0 4 6 482.84 480.99 12.68 o
1 4 6 276.66 267.58 8.97 o
2 4 6 30.17 31.40 1.99 o
3 4 6 25.08 27.85 3.91 o
4 4 6 82.60 90.15 6.48 o
5 4 6 28.36 39.50 4.94 o
6 4 6 91.43 86.66 9.66 o
-9 5 6 21.92 18.48 3.76 o
-8 5 6 27.04 22.92 3.76 o
-7 5 6 49.01 53.08 4.10 o
-6 5 6 19.42 18.86 1.80 o
-5 5 6 390.39 384.32 12.79 o
-4 5 6 13.63 16.68 1.21 o
-3 5 6 837.84 853.65 22.09 o
-2 5 6 800.39 769.23 20.14 o
-1 5 6 65.98 66.95 2.43 o
0 5 6 14.62 13.57 1.20 o
1 5 6 26.26 19.25 1.88 o
2 5 6 389.07 416.05 14.21 o
3 5 6 45.30 33.59 4.30 o
4 5 6 12.53 11.22 3.72 o
5 5 6 59.89 80.96 6.27 o
6 5 6 10.01 -1.27 5.06 o
-8 6 6 19.63 21.73 4.15 o
-7 6 6 58.81 76.88 4.94 o
-6 6 6 108.42 104.01 5.14 o
-5 6 6 14.72 13.62 1.53 o
-4 6 6 87.59 81.50 3.21 o
-3 6 6 58.13 56.15 2.66 o
-2 6 6 227.43 223.49 7.09 o
-1 6 6 134.30 124.43 4.14 o
0 6 6 2.12 0.32 0.98 o
1 6 6 237.66 221.50 9.05 o
2 6 6 56.50 53.41 3.25 o
3 6 6 75.66 75.58 4.77 o
4 6 6 66.95 68.29 6.00 o
5 6 6 117.15 125.09 10.94 o
6 6 6 106.05 115.18 11.93 o
-6 7 6 18.19 13.68 1.86 o
-5 7 6 164.63 192.10 8.42 o
-4 7 6 98.39 98.05 3.82 o
-3 7 6 148.52 157.27 5.21 o
-2 7 6 176.30 164.22 7.79 o
-1 7 6 59.95 66.47 2.90 o
0 7 6 88.55 85.70 3.70 o
1 7 6 77.62 78.45 3.68 o
2 7 6 63.61 51.16 4.24 o
3 7 6 126.14 120.65 7.49 o
4 7 6 95.37 97.61 8.79 o
5 7 6 40.81 45.29 4.99 o
-3 8 6 343.46 333.79 23.02 o
-2 8 6 3.69 4.00 0.83 o
-1 8 6 79.82 79.37 3.30 o
0 8 6 207.51 205.69 9.99 o
1 8 6 60.34 59.08 4.56 o
2 8 6 48.52 46.90 3.65 o
3 8 6 13.29 15.72 2.70 o
4 8 6 61.27 75.84 6.33 o
-2 -11 7 13.17 4.27 3.34 o
-4 -10 7 25.84 21.53 4.40 o
-3 -10 7 32.71 38.67 4.61 o
-2 -10 7 1.45 2.03 3.12 o
-1 -10 7 147.90 156.53 11.50 o
0 -10 7 64.69 71.39 6.26 o
-6 -9 7 26.62 31.90 5.36 o
-5 -9 7 65.42 53.62 5.32 o
-4 -9 7 6.68 5.45 2.42 o
-3 -9 7 56.99 52.33 3.75 o
-2 -9 7 350.29 351.35 14.17 o
-1 -9 7 10.56 6.69 1.69 o
0 -9 7 13.83 16.26 1.79 o
1 -9 7 20.05 19.06 2.52 o
-7 -8 7 31.40 32.57 4.65 o
-6 -8 7 60.97 65.39 6.47 o
-5 -8 7 133.15 126.76 8.68 o
-4 -8 7 68.52 58.51 4.88 o
-3 -8 7 53.12 51.16 4.03 o
-2 -8 7 92.94 97.32 4.09 o
-1 -8 7 170.88 168.62 6.93 o
0 -8 7 65.71 60.57 3.92 o
1 -8 7 104.04 99.82 4.89 o
2 -8 7 73.87 84.60 5.32 o
3 -8 7 18.11 16.86 3.22 o
-8 -7 7 45.62 44.89 5.16 o
-7 -7 7 111.26 116.94 9.46 o
-6 -7 7 6.77 1.37 2.41 o
-5 -7 7 130.05 128.93 8.92 o
-4 -7 7 26.38 29.36 3.53 o
-3 -7 7 177.74 165.36 9.34 o
-2 -7 7 414.09 418.77 17.29 o
-1 -7 7 196.39 191.49 6.15 o
0 -7 7 64.01 62.89 2.47 o
1 -7 7 122.31 104.32 4.85 o
2 -7 7 256.72 257.73 16.90 o
3 -7 7 105.47 116.30 8.47 o
4 -7 7 117.37 116.62 8.97 o
-8 -6 7 18.60 13.40 3.85 o
-7 -6 7 93.64 114.70 8.26 o
-6 -6 7 34.47 30.90 3.71 o
-5 -6 7 54.05 61.84 5.01 o
-4 -6 7 404.51 430.07 22.44 o
-3 -6 7 96.76 90.15 4.22 o
-2 -6 7 151.60 148.29 5.95 o
-1 -6 7 17.05 17.97 1.38 o
0 -6 7 529.35 548.90 15.28 o
1 -6 7 31.28 38.58 2.11 o
2 -6 7 100.68 107.98 7.09 o
3 -6 7 3.68 4.40 2.80 o
4 -6 7 122.28 128.93 10.60 o
5 -6 7 85.63 103.56 8.75 o
-9 -5 7 6.97 6.54 4.17 o
-8 -5 7 68.64 65.15 6.82 o
-7 -5 7 11.42 18.23 3.29 o
-6 -5 7 2.35 -2.36 2.36 o
-5 -5 7 48.10 49.27 4.68 o
-4 -5 7 129.71 132.15 7.16 o
-3 -5 7 461.81 459.46 16.84 o
-2 -5 7 128.16 126.09 4.99 o
-1 -5 7 382.53 401.07 13.36 o
0 -5 7 7.39 7.56 1.14 o
1 -5 7 314.99 301.83 10.04 o
2 -5 7 34.62 29.36 3.05 o
3 -5 7 210.44 216.02 12.63 o
4 -5 7 180.10 198.52 13.57 o
5 -5 7 106.10 90.85 7.63 o
-9 -4 7 11.51 5.28 3.85 o
-8 -4 7 38.71 39.41 4.84 o
-7 -4 7 16.34 19.38 3.33 o
-6 -4 7 36.56 38.49 3.77 o
-5 -4 7 177.29 176.02 9.64 o
-4 -4 7 687.07 684.15 27.53 o
-3 -4 7 90.38 98.05 4.55 o
-2 -4 7 414.07 402.55 13.68 o
-1 -4 7 187.06 189.03 6.93 o
0 -4 7 517.50 530.31 15.02 o
1 -4 7 137.67 130.62 4.75 o
2 -4 7 3.92 8.88 2.56 o
3 -4 7 62.88 61.72 4.77 o
4 -4 7 73.86 75.97 6.72 o
5 -4 7 44.16 37.84 6.02 o
6 -4 7 71.31 64.20 8.31 o
-9 -3 7 174.29 165.94 14.13 o
-8 -3 7 8.08 2.59 4.84 o
-7 -3 7 234.54 253.94 14.88 o
-6 -3 7 22.24 13.79 4.07 o
-5 -3 7 308.92 300.80 13.88 o
-4 -3 7 27.53 22.50 1.90 o
-3 -3 7 163.38 162.90 6.62 o
-2 -3 7 1035.66 992.72 34.56 o
-1 -3 7 200.49 194.16 5.99 o
0 -3 7 101.09 96.01 3.34 o
1 -3 7 159.27 168.43 4.61 o
2 -3 7 892.49 923.90 49.56 o
3 -3 7 12.95 14.06 3.50 o
4 -3 7 4.94 6.43 4.06 o
5 -3 7 82.13 80.56 7.59 o
6 -3 7 17.03 29.84 6.08 o
-10 -2 7 51.28 54.61 7.34 o
-9 -2 7 28.10 23.42 5.60 o
-8 -2 7 17.31 12.66 3.53 o
-7 -2 7 71.72 81.90 6.04 o
-6 -2 7 113.47 111.40 7.04 o
-5 -2 7 857.32 817.23 30.51 o
-4 -2 7 24.96 27.54 2.49 o
-3 -2 7 505.05 506.01 16.01 o
-2 -2 7 38.00 35.51 2.56 o
-1 -2 7 383.60 388.40 10.81 o
0 -2 7 28.74 28.64 2.38 o
1 -2 7 161.76 135.75 5.70 o
2 -2 7 268.60 241.57 11.98 o
3 -2 7 7.63 3.46 4.00 o
4 -2 7 30.74 33.16 4.87 o
5 -2 7 60.94 56.71 5.47 o
6 -2 7 98.30 100.27 9.50 o
-10 -1 7 13.69 11.03 5.22 o
-9 -1 7 68.47 69.28 9.62 o
-8 -1 7 180.15 181.77 11.99 o
-7 -1 7 105.45 90.43 7.19 o
-6 -1 7 20.97 18.23 3.54 o
-5 -1 7 295.62 293.64 11.68 o
-4 -1 7 175.29 187.81 7.52 o
-3 -1 7 165.28 170.17 5.99 o
-2 -1 7 283.74 271.72 8.31 o
-1 -1 7 218.59 220.40 6.38 o
0 -1 7 20.25 18.10 1.76 o
1 -1 7 80.66 78.45 3.81 o
2 -1 7 334.13 329.75 18.30 o
3 -1 7 138.10 136.96 8.50 o
4 -1 7 71.75 71.27 6.13 o
5 -1 7 6.15 7.52 4.80 o
6 -1 7 3.45 7.69 5.75 o
-10 0 7 36.62 39.69 7.56 o
-9 0 7 62.79 72.15 6.67 o
-8 0 7 2.68 -0.43 2.85 o
-7 0 7 125.58 121.80 7.85 o
-6 0 7 214.15 196.65 9.77 o
-5 0 7 16.50 15.90 1.95 o
-4 0 7 339.75 311.96 9.95 o
-3 0 7 220.07 209.75 6.65 o
-2 0 7 109.38 115.02 4.29 o
-1 0 7 6.05 8.61 2.09 o
0 0 7 471.27 471.61 12.55 o
1 0 7 118.13 111.71 5.17 o
2 0 7 468.86 455.33 20.24 o
3 0 7 268.22 274.90 17.69 o
4 0 7 66.93 71.65 6.40 o
5 0 7 1.59 0.55 2.97 o
6 0 7 29.25 24.96 5.04 o
-10 1 7 13.23 18.99 6.46 o
-9 1 7 69.05 64.91 8.00 o
-8 1 7 182.68 166.89 12.45 o
-7 1 7 107.10 102.80 7.21 o
-6 1 7 21.51 23.57 3.31 o
-5 1 7 305.53 297.98 9.98 o
-4 1 7 176.68 181.77 6.39 o
-3 1 7 163.11 168.43 5.77 o
-2 1 7 276.93 256.30 9.02 o
-1 1 7 232.09 227.50 7.82 o
0 1 7 20.29 19.58 1.12 o
1 1 7 73.44 69.40 3.46 o
2 1 7 329.80 292.63 13.95 o
3 1 7 140.63 126.92 7.18 o
4 1 7 72.93 75.20 6.81 o
5 1 7 5.86 4.69 4.08 o
6 1 7 3.83 -0.05 5.11 o
-10 2 7 53.06 59.53 7.66 o
-9 2 7 27.15 24.22 5.03 o
-8 2 7 16.79 18.10 2.90 o
-7 2 7 69.79 63.25 5.89 o
-6 2 7 119.52 112.50 6.29 o
-5 2 7 848.17 815.96 25.83 o
-4 2 7 23.68 19.78 1.91 o
-3 2 7 497.44 497.71 20.84 o
-2 2 7 38.24 37.84 2.55 o
-1 2 7 390.36 382.87 11.02 o
0 2 7 25.75 19.58 1.05 o
1 2 7 161.11 145.60 5.54 o
2 2 7 274.51 248.53 12.62 o
3 2 7 7.26 10.73 3.74 o
4 2 7 32.43 27.23 4.02 o
5 2 7 59.81 56.71 5.81 o
6 2 7 100.79 110.46 10.75 o
-9 3 7 179.02 184.37 16.10 o
-8 3 7 8.51 5.04 2.57 o
-7 3 7 241.22 247.83 15.87 o
-6 3 7 24.15 24.81 3.18 o
-5 3 7 317.58 322.52 12.51 o
-4 3 7 27.55 28.56 1.90 o
-3 3 7 162.96 172.69 6.82 o
-2 3 7 1041.43 1042.37 31.11 o
-1 3 7 200.69 204.41 5.51 o
0 3 7 101.93 99.67 3.11 o
1 3 7 162.33 158.20 6.53 o
2 3 7 884.49 888.21 34.46 o
3 3 7 11.29 6.88 2.76 o
4 3 7 4.58 1.32 2.64 o
5 3 7 81.01 98.94 9.44 o
6 3 7 16.13 10.21 4.26 o
-9 4 7 12.01 10.35 4.96 o
-8 4 7 38.52 43.51 5.48 o
-7 4 7 16.40 24.37 3.81 o
-6 4 7 39.82 37.66 3.37 o
-5 4 7 182.09 176.80 7.10 o
-4 4 7 685.83 691.14 28.84 o
-3 4 7 85.26 90.00 3.52 o
-2 4 7 420.77 418.47 10.92 o
-1 4 7 193.42 181.37 5.99 o
0 4 7 520.41 531.67 13.67 o
1 4 7 131.33 117.58 5.47 o
2 4 7 3.54 8.75 2.37 o
3 4 7 65.96 59.76 5.27 o
4 4 7 75.03 82.70 7.28 o
5 4 7 44.62 40.25 6.21 o
6 4 7 71.14 75.58 8.76 o
-9 5 7 7.60 4.62 3.31 o
-8 5 7 70.38 60.10 6.21 o
-7 5 7 12.58 16.86 3.47 o
-6 5 7 2.11 2.59 1.21 o
-5 5 7 50.48 45.69 2.60 o
-4 5 7 132.36 144.88 5.89 o
-3 5 7 462.22 449.97 12.58 o
-2 5 7 131.29 122.45 4.26 o
-1 5 7 386.73 388.70 11.11 o
0 5 7 7.32 7.24 0.92 o
1 5 7 313.90 306.74 13.24 o
2 5 7 35.66 34.81 4.20 o
3 5 7 206.39 213.20 13.85 o
4 5 7 180.73 202.51 11.60 o
5 5 7 104.68 102.80 9.92 o
-8 6 7 18.85 21.80 4.29 o
-7 6 7 93.39 93.99 7.33 o
-6 6 7 33.04 29.60 2.74 o
-5 6 7 50.55 48.13 2.47 o
-4 6 7 406.93 420.29 16.11 o
-3 6 7 96.33 97.61 6.59 o
-2 6 7 150.48 141.16 5.81 o
-1 6 7 16.42 18.93 1.48 o
0 6 7 529.68 532.36 18.81 o
1 6 7 31.19 36.85 3.42 o
2 6 7 99.50 111.86 7.05 o
3 6 7 4.40 1.42 2.64 o
4 6 7 121.52 138.36 9.42 o
5 6 7 85.03 89.86 9.42 o
-6 7 7 7.07 9.42 2.09 o
-5 7 7 131.01 131.30 6.97 o
-4 7 7 26.02 28.48 2.69 o
-3 7 7 180.73 183.57 6.43 o
-2 7 7 411.84 430.69 19.38 o
-1 7 7 198.71 214.93 10.21 o
0 7 7 64.34 67.44 4.50 o
1 7 7 123.27 131.64 7.99 o
2 7 7 255.90 277.12 16.29 o
3 7 7 106.87 101.01 8.20 o
4 7 7 120.15 118.22 9.35 o
-2 8 7 92.29 87.63 5.14 o
-1 8 7 168.45 165.56 11.25 o
0 8 7 65.63 66.95 4.49 o
1 8 7 101.66 98.20 6.61 o
2 8 7 74.00 78.97 6.19 o
3 8 7 18.71 17.66 3.05 o
4 8 7 54.27 52.65 5.92 o
-4 -10 8 49.99 62.19 7.25 o
-3 -10 8 27.27 25.63 5.03 o
-2 -10 8 5.25 3.52 3.47 o
-1 -10 8 83.78 91.27 7.93 o
0 -10 8 28.64 17.66 4.30 o
-6 -9 8 10.41 4.69 3.40 o
-5 -9 8 1.88 -0.55 3.24 o
-4 -9 8 4.89 4.07 2.75 o
-3 -9 8 135.26 134.21 7.04 o
-2 -9 8 61.79 60.57 4.15 o
-1 -9 8 98.30 101.46 5.82 o
0 -9 8 93.95 93.70 5.46 o
-7 -8 8 71.99 71.65 8.03 o
-6 -8 8 9.63 8.40 3.48 o
-5 -8 8 95.97 97.76 8.50 o
-4 -8 8 84.74 85.01 6.42 o
-3 -8 8 12.80 18.74 3.59 o
-2 -8 8 21.78 13.95 2.05 o
-1 -8 8 14.13 14.46 2.14 o
0 -8 8 168.71 185.78 6.67 o
1 -8 8 31.66 36.40 2.77 o
2 -8 8 42.02 48.85 4.97 o
3 -8 8 0.47 1.27 3.96 o
-8 -7 8 67.47 49.89 6.28 o
-7 -7 8 113.32 91.98 9.67 o
-6 -7 8 126.08 126.92 8.85 o
-5 -7 8 11.72 9.69 4.02 o
-4 -7 8 6.37 7.48 3.04 o
-3 -7 8 175.65 189.85 11.44 o
-2 -7 8 204.66 203.99 12.70 o
-1 -7 8 129.77 126.09 5.66 o
0 -7 8 50.12 52.97 3.56 o
1 -7 8 10.37 9.42 1.59 o
2 -7 8 58.77 56.82 6.26 o
3 -7 8 32.45 36.04 4.36 o
4 -7 8 31.89 25.63 3.98 o
-8 -6 8 47.49 45.19 5.58 o
-7 -6 8 39.81 48.44 6.39 o
-6 -6 8 128.47 137.66 8.87 o
-5 -6 8 126.09 110.77 8.11 o
-4 -6 8 56.76 57.71 4.61 o
-3 -6 8 9.92 10.01 1.50 o
-2 -6 8 18.61 15.49 2.16 o
-1 -6 8 319.24 327.06 10.99 o
0 -6 8 21.91 27.38 1.79 o
1 -6 8 43.02 41.87 2.97 o
2 -6 8 42.27 38.86 4.89 o
3 -6 8 12.01 14.46 3.21 o
4 -6 8 6.91 10.01 3.52 o
-9 -5 8 36.23 37.94 5.48 o
-8 -5 8 25.32 17.91 3.89 o
-7 -5 8 127.96 121.63 9.32 o
-6 -5 8 98.53 103.11 7.98 o
-5 -5 8 85.24 73.16 6.59 o
-4 -5 8 17.32 14.01 1.77 o
-3 -5 8 28.28 25.70 2.18 o
-2 -5 8 219.92 220.84 8.81 o
-1 -5 8 238.37 240.19 9.42 o
0 -5 8 15.75 14.57 1.25 o
1 -5 8 42.21 51.69 2.98 o
2 -5 8 88.90 82.84 6.21 o
3 -5 8 37.10 34.37 4.43 o
4 -5 8 53.22 52.12 7.17 o
5 -5 8 89.84 80.30 9.97 o
-9 -4 8 71.99 67.08 7.28 o
-8 -4 8 14.50 22.71 5.02 o
-7 -4 8 25.57 15.61 3.34 o
-6 -4 8 133.42 147.57 9.00 o
-5 -4 8 476.46 493.42 25.68 o
-4 -4 8 224.97 214.28 9.11 o
-3 -4 8 39.01 35.77 2.57 o
-2 -4 8 16.38 14.51 1.81 o
-1 -4 8 467.24 462.64 16.26 o
0 -4 8 479.22 465.19 13.11 o
1 -4 8 18.70 24.29 1.83 o
2 -4 8 8.94 4.62 2.71 o
3 -4 8 106.33 100.12 8.01 o
4 -4 8 84.68 75.72 7.35 o
5 -4 8 51.24 54.71 5.70 o
-9 -3 8 16.82 20.38 4.48 o
-8 -3 8 19.39 19.25 3.77 o
-7 -3 8 24.67 26.00 5.37 o
-6 -3 8 68.31 74.30 6.77 o
-5 -3 8 153.98 150.83 7.65 o
-4 -3 8 26.71 21.59 2.20 o
-3 -3 8 186.03 180.37 7.17 o
-2 -3 8 84.75 72.90 3.42 o
-1 -3 8 713.31 699.35 21.95 o
0 -3 8 196.92 195.81 6.02 o
1 -3 8 156.39 155.60 8.32 o
2 -3 8 53.72 61.26 5.22 o
3 -3 8 126.91 120.65 8.31 o
4 -3 8 127.04 125.92 9.32 o
5 -3 8 5.83 7.98 3.81 o
-10 -2 8 27.50 44.79 7.04 o
-9 -2 8 123.83 128.26 10.91 o
-8 -2 8 24.23 17.41 3.83 o
-7 -2 8 134.72 133.52 8.05 o
-6 -2 8 17.41 16.98 3.11 o
-5 -2 8 446.48 462.00 21.03 o
-4 -2 8 639.72 641.79 22.16 o
-3 -2 8 34.12 33.85 2.33 o
-2 -2 8 3.52 3.69 1.71 o
-1 -2 8 67.24 54.61 2.85 o
0 -2 8 1380.00 1433.34 56.12 o
1 -2 8 218.53 205.48 10.20 o
2 -2 8 157.84 149.92 8.89 o
3 -2 8 329.77 358.05 17.11 o
4 -2 8 112.14 110.62 9.36 o
5 -2 8 70.47 67.32 6.93 o
6 -2 8 76.74 72.02 8.81 o
-10 -1 8 10.84 26.23 7.44 o
-9 -1 8 17.28 20.91 4.00 o
-8 -1 8 5.34 4.78 3.08 o
-7 -1 8 65.37 72.27 6.30 o
-6 -1 8 32.77 30.25 3.67 o
-5 -1 8 263.56 264.68 13.03 o
-4 -1 8 151.16 146.14 6.45 o
-3 -1 8 13.83 9.88 1.72 o
-2 -1 8 337.55 310.13 10.18 o
-1 -1 8 221.57 217.99 7.88 o
0 -1 8 870.57 880.27 28.59 o
1 -1 8 298.44 313.01 18.36 o
2 -1 8 313.36 313.26 18.36 o
3 -1 8 42.09 42.83 4.37 o
4 -1 8 68.99 69.65 7.92 o
5 -1 8 99.88 105.07 9.42 o
6 -1 8 49.70 46.10 7.15 o
-10 0 8 90.89 89.72 10.39 o
-9 0 8 0.14 -0.05 3.56 o
-8 0 8 0.00 -2.92 2.92 o
-7 0 8 0.06 1.27 3.91 o
-6 0 8 161.59 167.08 10.16 o
-5 0 8 23.39 25.48 3.89 o
-4 0 8 14.61 12.24 1.71 o
-3 0 8 329.03 330.28 11.59 o
-2 0 8 110.40 115.66 4.78 o
-1 0 8 395.97 397.22 15.37 o
0 0 8 109.17 100.71 4.31 o
1 0 8 1025.50 996.00 41.63 o
2 0 8 311.05 318.80 17.47 o
3 0 8 111.38 72.15 7.43 o
4 0 8 42.89 26.00 4.54 o
5 0 8 76.30 76.36 8.29 o
6 0 8 142.59 170.55 12.59 o
-10 1 8 10.93 10.64 4.88 o
-9 1 8 17.34 23.00 5.54 o
-8 1 8 4.66 0.93 4.60 o
-7 1 8 67.42 72.27 5.92 o
-6 1 8 29.66 25.63 3.68 o
-5 1 8 260.37 260.83 11.25 o
-4 1 8 146.99 144.88 7.14 o
-3 1 8 12.60 8.44 1.47 o
-2 1 8 336.08 308.30 9.63 o
-1 1 8 213.90 202.93 7.39 o
0 1 8 877.26 884.68 21.61 o
1 1 8 295.02 293.64 13.72 o
2 1 8 310.64 310.65 18.55 o
3 1 8 42.45 37.12 4.15 o
4 1 8 70.65 66.71 6.90 o
5 1 8 98.92 91.84 8.81 o
6 1 8 48.59 48.33 6.28 o
-10 2 8 27.49 46.19 7.45 o
-9 2 8 122.23 110.15 9.80 o
-8 2 8 24.60 24.81 3.76 o
-7 2 8 135.56 117.42 7.87 o
-6 2 8 16.62 17.60 2.61 o
-5 2 8 435.57 428.84 21.79 o
-4 2 8 635.37 676.42 37.39 o
-3 2 8 32.35 27.77 2.35 o
-2 2 8 4.13 8.19 1.48 o
-1 2 8 69.95 59.87 2.52 o
0 2 8 1375.51 1435.58 41.56 o
1 2 8 219.66 200.62 9.66 o
2 2 8 157.60 150.10 7.99 o
3 2 8 325.95 305.45 20.47 o
4 2 8 114.36 95.43 6.81 o
5 2 8 71.91 70.52 8.34 o
6 2 8 76.77 87.08 8.99 o
-9 3 8 17.11 16.62 4.41 o
-8 3 8 20.85 16.80 3.71 o
-7 3 8 24.16 16.56 2.83 o
-6 3 8 68.39 68.29 6.98 o
-5 3 8 151.65 135.24 8.79 o
-4 3 8 23.71 29.36 2.89 o
-3 3 8 188.58 193.95 9.50 o
-2 3 8 86.14 82.30 3.90 o
-1 3 8 719.02 717.11 19.45 o
0 3 8 201.75 210.61 7.75 o
1 3 8 151.04 153.21 8.08 o
2 3 8 51.94 52.33 4.82 o
3 3 8 126.99 131.13 13.41 o
4 3 8 128.92 130.45 8.47 o
5 3 8 5.95 5.01 3.85 o
-9 4 8 71.45 91.70 9.65 o
-8 4 8 15.09 14.97 4.25 o
-7 4 8 25.63 25.40 4.03 o
-6 4 8 130.23 130.45 9.14 o
-5 4 8 471.44 450.91 17.31 o
-4 4 8 219.19 222.61 13.05 o
-3 4 8 39.05 33.68 3.18 o
-2 4 8 15.42 12.60 1.37 o
-1 4 8 467.62 469.68 16.06 o
0 4 8 477.62 474.51 16.15 o
1 4 8 18.70 22.22 3.49 o
2 4 8 9.05 8.97 2.71 o
3 4 8 104.41 98.94 7.52 o
4 4 8 85.41 75.58 6.83 o
5 4 8 53.55 53.62 6.84 o
-9 5 8 37.80 40.63 5.76 o
-8 5 8 24.00 24.29 4.67 o
-7 5 8 129.22 136.45 8.66 o
-6 5 8 99.11 100.56 7.43 o
-5 5 8 83.85 72.65 4.17 o
-4 5 8 16.38 13.24 2.64 o
-3 5 8 30.70 32.82 3.48 o
-2 5 8 222.09 223.94 8.21 o
-1 5 8 242.72 227.50 9.17 o
0 5 8 15.46 15.49 2.80 o
1 5 8 41.21 51.27 4.14 o
2 5 8 85.19 83.25 6.49 o
3 5 8 38.81 32.82 4.16 o
4 5 8 52.85 57.49 6.86 o
5 5 8 91.15 99.53 9.76 o
-8 6 8 46.84 50.42 6.10 o
-7 6 8 40.69 38.67 4.33 o
-6 6 8 125.29 139.40 9.98 o
-5 6 8 125.92 121.63 6.87 o
-4 6 8 56.75 53.30 2.92 o
-3 6 8 11.27 7.81 2.36 o
-2 6 8 18.06 23.93 2.25 o
-1 6 8 322.04 314.32 13.67 o
0 6 8 22.16 19.38 2.81 o
1 6 8 39.17 33.85 3.80 o
2 6 8 40.15 45.89 4.52 o
3 6 8 11.26 10.93 3.24 o
4 6 8 7.42 10.35 3.53 o
-5 7 8 10.65 9.42 1.59 o
-4 7 8 7.29 8.06 1.93 o
-3 7 8 172.81 160.26 11.07 o
-2 7 8 202.52 196.85 13.31 o
-1 7 8 127.57 129.94 9.63 o
0 7 8 48.93 58.51 4.08 o
1 7 8 9.48 8.79 2.51 o
2 7 8 58.45 59.08 4.67 o
3 7 8 32.02 41.29 5.91 o
4 7 8 33.12 30.41 4.82 o
-2 8 8 22.14 18.23 2.28 o
-1 8 8 14.64 12.76 2.22 o
0 8 8 169.71 202.93 10.35 o
1 8 8 30.69 27.46 4.04 o
2 8 8 43.02 42.16 4.52 o
3 8 8 0.75 -1.82 2.26 o
-5 -9 9 14.04 7.08 3.31 o
-4 -9 9 6.17 5.38 4.58 o
-3 -9 9 58.68 67.08 4.86 o
-2 -9 9 87.69 88.05 5.84 o
-1 -9 9 47.77 50.42 3.69 o
0 -9 9 69.99 66.59 4.48 o
-6 -8 9 13.44 6.77 3.86 o
-5 -8 9 1.78 -4.77 4.77 o
-4 -8 9 2.95 7.52 2.93 o
-3 -8 9 40.58 39.60 4.57 o
-2 -8 9 84.83 91.84 4.41 o
-1 -8 9 30.40 32.99 3.32 o
0 -8 9 35.98 37.75 2.82 o
1 -8 9 75.87 78.71 6.97 o
2 -8 9 88.74 84.06 7.20 o
-7 -7 9 26.76 30.32 4.49 o
-6 -7 9 100.16 101.76 9.12 o
-5 -7 9 12.56 14.40 3.21 o
-4 -7 9 0.86 0.22 3.77 o
-3 -7 9 9.82 7.85 2.87 o
-2 -7 9 52.98 52.97 3.35 o
-1 -7 9 140.63 141.34 7.40 o
0 -7 9 156.58 161.20 8.28 o
1 -7 9 85.70 85.15 6.02 o
2 -7 9 69.70 74.05 6.38 o
3 -7 9 55.60 50.73 6.44 o
-8 -6 9 0.59 9.69 5.81 o
-7 -6 9 22.00 22.15 4.47 o
-6 -6 9 36.16 52.87 5.60 o
-5 -6 9 36.75 41.77 5.17 o
-4 -6 9 44.56 41.87 4.70 o
-3 -6 9 37.31 31.07 2.56 o
-2 -6 9 59.55 57.15 3.70 o
-1 -6 9 67.05 67.81 4.03 o
0 -6 9 135.12 139.23 7.00 o
1 -6 9 35.60 39.04 5.09 o
2 -6 9 61.79 51.05 5.61 o
3 -6 9 170.56 186.59 14.38 o
4 -6 9 13.25 14.34 5.61 o
-8 -5 9 93.36 98.34 9.11 o
-7 -5 9 98.11 100.42 8.32 o
-6 -5 9 67.27 69.40 7.53 o
-5 -5 9 38.68 40.92 4.83 o
-4 -5 9 8.74 7.89 1.87 o
-3 -5 9 10.07 8.83 2.07 o
-2 -5 9 274.47 253.23 11.56 o
-1 -5 9 187.75 197.69 7.92 o
0 -5 9 143.36 142.04 5.83 o
1 -5 9 45.30 40.25 4.04 o
2 -5 9 51.79 51.16 4.35 o
3 -5 9 175.41 199.78 16.76 o
4 -5 9 19.03 20.17 4.59 o
-9 -4 9 31.70 36.94 6.31 o
-8 -4 9 40.25 39.13 5.47 o
-7 -4 9 60.40 56.82 6.26 o
-6 -4 9 2.50 5.17 3.41 o
-5 -4 9 43.60 35.51 4.86 o
-4 -4 9 51.13 43.80 4.42 o
-3 -4 9 253.91 257.02 11.65 o
-2 -4 9 12.53 12.14 1.91 o
-1 -4 9 70.77 70.15 5.83 o
0 -4 9 148.95 144.88 6.42 o
1 -4 9 87.94 82.84 6.75 o
2 -4 9 175.28 175.03 12.16 o
3 -4 9 196.69 216.67 15.93 o
4 -4 9 27.52 36.22 5.98 o
-9 -3 9 14.88 15.78 5.18 o
-8 -3 9 26.98 23.93 5.00 o
-7 -3 9 158.01 173.47 11.32 o
-6 -3 9 295.02 293.64 17.02 o
-5 -3 9 6.83 8.53 2.86 o
-4 -3 9 107.17 120.65 8.31 o
-3 -3 9 127.63 124.43 6.28 o
-2 -3 9 490.24 485.23 20.57 o
-1 -3 9 74.16 59.08 4.78 o
0 -3 9 4.62 2.35 1.09 o
1 -3 9 336.45 344.71 17.89 o
2 -3 9 111.79 119.68 8.27 o
3 -3 9 6.41 7.40 4.39 o
4 -3 9 28.38 36.13 5.26 o
5 -3 9 144.19 160.63 14.84 o
-9 -2 9 59.11 53.19 7.78 o
-8 -2 9 47.22 44.89 5.66 o
-7 -2 9 16.40 12.82 3.87 o
-6 -2 9 53.23 61.14 4.98 o
-5 -2 9 104.76 104.32 6.97 o
-4 -2 9 260.67 258.45 15.01 o
-3 -2 9 575.57 599.69 29.40 o
-2 -2 9 31.07 36.13 4.10 o
-1 -2 9 159.74 133.17 7.87 o
0 -2 9 177.90 155.97 6.48 o
1 -2 9 410.99 405.24 21.48 o
2 -2 9 176.37 178.78 11.70 o
3 -2 9 6.91 10.16 4.82 o
4 -2 9 132.25 134.38 12.37 o
5 -2 9 21.59 12.18 6.63 o
-9 -1 9 8.42 2.96 4.99 o
-8 -1 9 94.12 100.27 7.42 o
-7 -1 9 78.15 70.02 5.95 o
-6 -1 9 108.56 112.34 7.70 o
-5 -1 9 58.78 51.58 4.37 o
-4 -1 9 64.20 67.08 5.46 o
-3 -1 9 108.88 90.57 5.64 o
-2 -1 9 91.23 90.85 6.64 o
-1 -1 9 130.49 109.52 6.67 o
0 -1 9 363.72 345.82 19.57 o
1 -1 9 353.03 360.58 20.55 o
2 -1 9 29.32 24.81 4.21 o
3 -1 9 57.81 60.10 5.63 o
4 -1 9 86.87 100.42 7.72 o
5 -1 9 49.63 49.58 6.47 o
-9 0 9 192.17 187.20 17.65 o
-8 0 9 63.07 70.52 6.60 o
-7 0 9 88.40 98.94 7.82 o
-6 0 9 0.46 1.92 2.26 o
-5 0 9 305.38 314.32 14.72 o
-4 0 9 1324.75 1274.68 49.75 o
-3 0 9 56.00 53.19 4.76 o
-2 0 9 102.72 79.50 5.55 o
-1 0 9 213.22 193.34 9.27 o
0 0 9 830.66 822.33 25.08 o
1 0 9 25.05 21.18 3.27 o
2 0 9 0.24 3.46 3.61 o
3 0 9 226.92 257.73 18.33 o
4 0 9 24.25 22.50 4.01 o
5 0 9 4.08 5.84 3.80 o
-9 1 9 7.84 7.72 3.46 o
-8 1 9 96.92 90.85 8.20 o
-7 1 9 78.59 87.35 6.10 o
-6 1 9 109.10 110.77 7.80 o
-5 1 9 56.30 57.60 5.63 o
-4 1 9 65.33 66.47 5.44 o
-3 1 9 108.96 98.49 7.21 o
-2 1 9 96.02 94.27 6.19 o
-1 1 9 126.01 117.42 6.10 o
0 1 9 370.96 364.25 13.29 o
1 1 9 348.13 361.99 16.92 o
2 1 9 32.39 37.75 5.19 o
3 1 9 57.86 56.37 7.90 o
4 1 9 86.45 80.56 9.05 o
5 1 9 48.24 50.31 6.63 o
-9 2 9 60.50 58.16 7.01 o
-8 2 9 48.04 42.16 6.35 o
-7 2 9 16.07 10.25 2.94 o
-6 2 9 52.94 50.95 4.65 o
-5 2 9 106.18 102.80 7.52 o
-4 2 9 262.30 271.23 11.72 o
-3 2 9 573.11 600.05 27.23 o
-2 2 9 30.17 32.07 3.36 o
-1 2 9 157.91 159.51 6.37 o
0 2 9 179.30 170.36 5.81 o
1 2 9 408.87 385.20 18.62 o
2 2 9 169.35 174.84 9.80 o
3 2 9 6.82 11.37 3.70 o
4 2 9 131.80 171.33 12.22 o
5 2 9 22.00 28.17 6.69 o
-9 3 9 13.78 10.64 4.21 o
-8 3 9 26.70 24.59 3.97 o
-7 3 9 159.48 156.90 12.81 o
-6 3 9 295.48 290.86 17.44 o
-5 3 9 7.06 3.24 2.19 o
-4 3 9 105.53 109.37 6.36 o
-3 3 9 129.54 131.30 7.64 o
-2 3 9 490.02 477.74 19.44 o
-1 3 9 75.47 76.62 4.02 o
0 3 9 5.92 3.89 0.93 o
1 3 9 332.95 317.74 17.44 o
2 3 9 112.42 108.75 8.04 o
3 3 9 5.97 7.56 3.50 o
4 3 9 29.00 28.08 5.89 o
5 3 9 144.47 149.38 13.77 o
-9 4 9 30.72 33.59 4.72 o
-8 4 9 42.26 59.65 6.53 o
-7 4 9 60.76 63.60 6.03 o
-6 4 9 2.56 8.61 3.31 o
-5 4 9 41.74 43.22 3.99 o
-4 4 9 51.25 51.79 3.95 o
-3 4 9 258.65 272.94 14.70 o
-2 4 9 13.01 11.03 1.63 o
-1 4 9 69.19 64.08 3.44 o
0 4 9 148.49 155.79 8.70 o
1 4 9 92.36 93.84 6.75 o
2 4 9 171.05 181.77 10.39 o
3 4 9 195.98 217.99 17.07 o
4 4 9 27.30 20.17 4.53 o
-8 5 9 92.30 94.56 8.36 o
-7 5 9 98.58 113.91 10.12 o
-6 5 9 68.01 68.42 7.36 o
-5 5 9 40.31 44.40 4.35 o
-4 5 9 8.05 11.22 2.24 o
-3 5 9 11.35 13.35 2.76 o
-2 5 9 272.24 263.47 8.90 o
-1 5 9 189.07 178.38 8.51 o
0 5 9 140.96 136.10 8.48 o
1 5 9 44.69 45.89 4.62 o
2 5 9 51.48 53.62 5.32 o
3 5 9 174.15 201.67 13.26 o
4 5 9 17.91 25.63 5.33 o
-7 6 9 21.05 25.48 3.44 o
-6 6 9 36.01 40.92 4.17 o
-5 6 9 38.11 45.19 4.19 o
-4 6 9 45.38 47.82 3.89 o
-3 6 9 36.23 30.65 3.86 o
-2 6 9 56.94 60.91 4.63 o
-1 6 9 64.79 62.89 5.41 o
0 6 9 137.62 143.10 9.75 o
1 6 9 34.04 35.60 4.96 o
2 6 9 61.93 55.37 5.74 o
3 6 9 170.56 205.05 12.31 o
4 6 9 13.33 12.87 3.77 o
-5 7 9 13.52 12.87 2.82 o
-4 7 9 0.98 -0.66 1.44 o
-3 7 9 9.03 7.89 2.37 o
-2 7 9 54.55 52.55 4.83 o
-1 7 9 138.15 130.79 9.32 o
0 7 9 156.32 145.77 11.28 o
1 7 9 87.10 82.84 7.69 o
2 7 9 69.44 77.40 8.09 o
3 7 9 56.76 59.19 6.73 o
-1 8 9 29.59 31.73 3.76 o
0 8 9 36.47 36.13 3.83 o
1 8 9 77.22 74.82 6.54 o
2 8 9 92.77 88.19 7.66 o
-3 -9 10 7.72 4.78 2.46 o
-2 -9 10 15.68 14.06 2.94 o
-1 -9 10 91.53 89.86 5.48 o
-5 -8 10 5.20 4.85 3.46 o
-4 -8 10 27.35 30.90 4.61 o
-3 -8 10 19.24 20.85 2.71 o
-2 -8 10 162.01 170.36 8.71 o
-1 -8 10 71.55 69.65 5.44 o
0 -8 10 32.26 35.25 4.14 o
1 -8 10 9.45 8.14 3.51 o
-7 -7 10 25.94 27.30 6.43 o
-6 -7 10 100.93 115.98 10.06 o
-5 -7 10 6.33 13.19 4.74 o
-4 -7 10 38.07 38.58 4.70 o
-3 -7 10 1.49 2.24 3.07 o
-2 -7 10 253.72 243.42 11.56 o
-1 -7 10 65.41 61.96 4.55 o
0 -7 10 103.39 89.86 7.45 o
1 -7 10 110.08 108.29 9.56 o
2 -7 10 31.11 28.96 5.58 o
-7 -6 10 109.58 110.92 11.55 o
-6 -6 10 1.25 -3.23 3.23 o
-5 -6 10 3.69 8.23 4.47 o
-4 -6 10 47.26 42.54 5.51 o
-3 -6 10 163.74 165.18 11.62 o
-2 -6 10 135.09 144.35 9.98 o
-1 -6 10 7.89 6.58 2.02 o
0 -6 10 29.41 21.12 2.25 o
1 -6 10 51.95 62.08 6.08 o
2 -6 10 175.49 174.05 14.87 o
3 -6 10 53.60 52.44 6.01 o
-8 -5 10 52.52 55.48 8.06 o
-7 -5 10 75.05 83.92 7.33 o
-6 -5 10 158.51 175.03 14.51 o
-5 -5 10 54.29 50.00 5.45 o
-4 -5 10 87.25 88.88 6.99 o
-3 -5 10 58.62 67.08 7.04 o
-2 -5 10 602.27 644.80 31.99 o
-1 -5 10 76.54 73.92 4.71 o
0 -5 10 51.75 44.20 3.05 o
1 -5 10 151.94 179.77 10.14 o
2 -5 10 74.65 82.97 8.51 o
3 -5 10 0.99 5.98 3.66 o
-8 -4 10 70.62 77.27 10.55 o
-7 -4 10 89.32 86.52 8.69 o
-6 -4 10 116.15 116.62 7.69 o
-5 -4 10 20.72 19.32 3.97 o
-4 -4 10 129.75 135.58 8.63 o
-3 -4 10 270.02 259.64 14.33 o
-2 -4 10 21.34 16.74 3.03 o
-1 -4 10 38.33 36.76 4.49 o
0 -4 10 12.21 16.86 2.01 o
1 -4 10 138.11 138.70 9.95 o
2 -4 10 131.37 126.76 10.85 o
3 -4 10 161.14 158.57 13.82 o
4 -4 10 57.17 78.97 8.56 o
-9 -3 10 28.58 43.41 5.86 o
-8 -3 10 95.65 73.79 8.78 o
-7 -3 10 6.69 6.81 3.79 o
-6 -3 10 31.89 34.81 4.11 o
-5 -3 10 160.37 168.24 10.77 o
-4 -3 10 10.23 9.01 2.85 o
-3 -3 10 55.94 55.26 5.95 o
-2 -3 10 87.30 88.32 5.99 o
-1 -3 10 79.68 74.94 7.19 o
0 -3 10 58.10 53.30 2.71 o
1 -3 10 7.51 9.28 3.07 o
2 -3 10 149.25 135.24 9.65 o
3 -3 10 3.57 4.88 3.67 o
4 -3 10 95.77 102.21 10.19 o
-9 -2 10 58.82 61.03 7.30 o
-8 -2 10 31.58 34.81 5.42 o
-7 -2 10 12.90 6.43 3.57 o
-6 -2 10 142.74 148.47 11.56 o
-5 -2 10 44.29 49.06 4.57 o
-4 -2 10 281.87 280.58 17.63 o
-3 -2 10 8.85 8.79 2.99 o
-2 -2 10 229.91 214.93 12.39 o
-1 -2 10 71.27 69.28 5.67 o
0 -2 10 98.75 98.05 5.58 o
1 -2 10 1.93 0.71 3.13 o
2 -2 10 77.57 75.20 6.69 o
3 -2 10 302.76 340.88 29.29 o
4 -2 10 24.51 25.25 5.29 o
-9 -1 10 49.09 42.83 6.99 o
-8 -1 10 22.80 26.46 4.73 o
-7 -1 10 111.00 122.94 10.03 o
-6 -1 10 111.50 106.60 7.65 o
-5 -1 10 33.45 41.67 4.31 o
-4 -1 10 66.99 83.79 6.10 o
-3 -1 10 141.75 122.29 8.20 o
-2 -1 10 113.29 123.77 8.58 o
-1 -1 10 2.81 1.64 2.80 o
0 -1 10 27.68 23.50 3.81 o
1 -1 10 86.95 77.92 6.81 o
2 -1 10 67.51 56.48 5.57 o
3 -1 10 9.98 15.49 3.91 o
4 -1 10 19.28 27.15 6.41 o
-9 0 10 15.80 14.18 4.69 o
-8 0 10 80.60 90.15 9.15 o
-7 0 10 1.75 1.59 3.07 o
-6 0 10 244.58 241.11 17.95 o
-5 0 10 38.91 42.16 5.20 o
-4 0 10 72.67 65.62 5.64 o
-3 0 10 264.92 291.62 18.48 o
-2 0 10 66.62 64.67 5.00 o
-1 0 10 133.51 117.90 9.66 o
0 0 10 9.19 5.64 1.92 o
1 0 10 200.05 192.30 13.36 o
2 0 10 404.55 405.83 26.28 o
3 0 10 61.93 61.61 7.80 o
4 0 10 173.70 182.97 15.84 o
-9 1 10 48.50 55.48 9.27 o
-8 1 10 22.76 23.71 4.48 o
-7 1 10 112.38 119.68 7.94 o
-6 1 10 110.37 106.90 8.12 o
-5 1 10 31.48 34.89 3.76 o
-4 1 10 65.38 79.77 6.62 o
-3 1 10 141.19 125.42 7.97 o
-2 1 10 117.36 132.49 8.36 o
-1 1 10 2.08 0.99 3.34 o
0 1 10 26.14 26.08 3.71 o
1 1 10 88.33 94.13 6.19 o
2 1 10 67.80 66.35 6.28 o
3 1 10 10.25 7.48 4.14 o
4 1 10 19.66 16.98 6.17 o
-9 2 10 58.70 61.61 8.03 o
-8 2 10 33.09 33.42 4.37 o
-7 2 10 14.00 15.78 3.65 o
-6 2 10 141.29 156.16 10.93 o
-5 2 10 43.82 37.03 3.97 o
-4 2 10 283.22 329.48 18.57 o
-3 2 10 7.37 4.13 2.98 o
-2 2 10 233.20 234.71 13.40 o
-1 2 10 75.43 71.89 3.52 o
0 2 10 99.44 102.35 7.65 o
1 2 10 1.53 1.27 2.97 o
2 2 10 79.41 84.33 8.17 o
3 2 10 305.77 328.13 24.17 o
4 2 10 24.47 20.11 5.38 o
-9 3 10 28.08 23.28 5.00 o
-8 3 10 98.20 97.76 8.50 o
-7 3 10 6.83 8.44 2.80 o
-6 3 10 31.89 34.46 4.96 o
-5 3 10 153.28 163.84 10.62 o
-4 3 10 10.22 14.80 3.08 o
-3 3 10 55.61 48.95 4.04 o
-2 3 10 88.33 76.88 4.29 o
-1 3 10 76.88 77.27 4.17 o
0 3 10 60.46 61.49 5.81 o
1 3 10 7.51 2.86 3.91 o
2 3 10 150.98 157.64 11.17 o
3 3 10 3.87 1.20 4.76 o
4 3 10 100.71 128.09 10.40 o
-8 4 10 68.54 75.20 7.84 o
-7 4 10 90.26 95.14 7.09 o
-6 4 10 114.08 111.24 8.60 o
-5 4 10 20.58 29.27 4.49 o
-4 4 10 125.34 129.61 7.26 o
-3 4 10 271.66 272.70 15.42 o
-2 4 10 21.82 22.78 2.19 o
-1 4 10 38.28 32.07 2.35 o
0 4 10 11.98 11.57 2.52 o
1 4 10 138.00 154.49 11.61 o
2 4 10 126.97 154.31 11.05 o
3 4 10 163.74 150.10 12.89 o
4 4 10 57.04 56.82 8.60 o
-8 5 10 53.41 56.15 5.55 o
-7 5 10 76.20 83.38 7.04 o
-6 5 10 157.52 149.56 9.97 o
-5 5 10 53.92 60.80 5.09 o
-4 5 10 85.67 88.05 6.95 o
-3 5 10 57.82 65.39 5.15 o
-2 5 10 606.24 616.87 38.66 o
-1 5 10 75.34 81.09 5.21 o
0 5 10 51.02 62.19 5.73 o
1 5 10 153.94 164.79 11.23 o
2 5 10 75.29 82.30 8.34 o
3 5 10 1.04 -1.27 3.14 o
-7 6 10 109.92 115.18 10.34 o
-6 6 10 1.22 1.04 2.14 o
-5 6 10 3.75 8.79 2.90 o
-4 6 10 48.08 46.29 4.54 o
-3 6 10 163.09 166.89 11.30 o
-2 6 10 132.81 145.96 10.39 o
-1 6 10 7.98 8.53 2.51 o
0 6 10 30.52 29.84 3.64 o
1 6 10 50.94 62.54 5.86 o
2 6 10 174.73 163.84 13.85 o
3 6 10 52.37 66.59 7.14 o
-4 7 10 38.67 45.69 4.71 o
-3 7 10 1.38 -1.20 2.47 o
-2 7 10 255.85 274.90 15.24 o
-1 7 10 66.55 60.80 5.78 o
0 7 10 104.13 98.34 9.11 o
1 7 10 110.80 108.59 9.58 o
2 7 10 30.27 33.16 5.89 o
-4 -8 11 20.14 11.27 4.08 o
-3 -8 11 35.03 33.51 3.95 o
-2 -8 11 23.02 25.18 3.27 o
-1 -8 11 11.56 12.71 4.12 o
-6 -7 11 29.33 32.32 5.65 o
-5 -7 11 29.29 30.41 4.58 o
-4 -7 11 71.36 70.89 7.24 o
-3 -7 11 16.90 16.38 3.90 o
-2 -7 11 16.89 16.74 2.91 o
-1 -7 11 22.50 18.74 3.85 o
0 -7 11 74.97 69.65 6.93 o
-7 -6 11 2.85 3.41 4.13 o
-6 -6 11 76.90 69.28 7.89 o
-5 -6 11 0.25 -0.55 4.01 o
-4 -6 11 50.69 47.11 5.70 o
-3 -6 11 10.95 14.18 3.63 o
-2 -6 11 66.07 65.03 4.78 o
-1 -6 11 226.42 226.16 14.27 o
0 -6 11 6.09 3.09 3.62 o
1 -6 11 11.57 11.83 3.42 o
-7 -5 11 12.83 18.86 5.47 o
-6 -5 11 30.82 41.39 6.01 o
-5 -5 11 154.35 149.38 10.69 o
-4 -5 11 12.09 8.19 3.77 o
-3 -5 11 24.39 21.67 3.66 o
-2 -5 11 21.16 21.67 4.21 o
-1 -5 11 60.72 58.05 4.41 o
0 -5 11 61.63 55.15 7.27 o
1 -5 11 32.06 32.65 4.66 o
2 -5 11 116.87 101.46 12.10 o
-8 -4 11 52.45 65.51 8.52 o
-7 -4 11 102.70 107.83 10.00 o
-6 -4 11 25.96 41.67 5.26 o
-5 -4 11 35.21 28.56 5.78 o
-4 -4 11 49.06 47.51 4.49 o
-3 -4 11 104.10 106.14 7.79 o
-2 -4 11 55.74 61.61 5.70 o
-1 -4 11 61.01 65.75 3.25 o
0 -4 11 84.57 74.05 7.53 o
1 -4 11 0.82 6.54 3.68 o
2 -4 11 3.18 2.76 3.96 o
3 -4 11 12.42 9.92 4.39 o
-8 -3 11 97.30 101.46 9.26 o
-7 -3 11 36.99 47.31 6.42 o
-6 -3 11 77.62 69.53 6.80 o
-5 -3 11 10.46 -0.99 4.67 o
-4 -3 11 210.59 225.27 14.24 o
-3 -3 11 33.62 39.97 4.69 o
-2 -3 11 42.00 50.63 4.96 o
-1 -3 11 10.00 8.40 3.00 o
0 -3 11 44.18 40.72 4.92 o
1 -3 11 247.36 261.79 21.35 o
2 -3 11 18.81 18.23 5.00 o
3 -3 11 31.56 31.57 5.08 o
-9 -2 11 15.46 22.15 5.23 o
-8 -2 11 28.98 23.71 6.28 o
-7 -2 11 116.98 116.46 10.72 o
-6 -2 11 74.25 70.65 6.98 o
-5 -2 11 37.02 40.72 4.82 o
-4 -2 11 80.92 94.85 8.23 o
-3 -2 11 150.65 145.60 10.37 o
-2 -2 11 58.19 52.97 5.50 o
-1 -2 11 63.45 60.91 5.90 o
0 -2 11 60.31 58.74 5.46 o
1 -2 11 37.56 41.10 5.22 o
2 -2 11 41.18 43.61 6.36 o
3 -2 11 59.73 56.93 8.05 o
-9 -1 11 47.59 52.44 6.76 o
-8 -1 11 36.62 28.96 5.58 o
-7 -1 11 18.61 31.07 6.11 o
-6 -1 11 53.17 52.97 5.07 o
-5 -1 11 327.25 338.14 24.53 o
-4 -1 11 137.13 146.31 9.68 o
-3 -1 11 220.86 212.55 11.89 o
-2 -1 11 78.42 72.90 6.20 o
-1 -1 11 101.79 99.08 7.97 o
0 -1 11 113.91 106.90 8.89 o
1 -1 11 121.26 134.21 10.31 o
2 -1 11 180.80 182.56 15.82 o
3 -1 11 2.81 -4.27 5.33 o
-8 0 11 133.72 145.60 13.42 o
-7 0 11 75.90 62.08 5.84 o
-6 0 11 145.62 151.56 11.86 o
-5 0 11 0.42 5.55 3.18 o
-4 0 11 66.84 85.84 6.45 o
-3 0 11 1.30 -2.53 2.53 o
-2 0 11 291.45 271.47 15.15 o
-1 0 11 157.35 180.77 12.76 o
0 0 11 154.59 152.84 12.10 o
1 0 11 23.11 23.42 3.59 o
2 0 11 222.52 254.88 13.73 o
3 0 11 144.07 129.94 13.18 o
-9 1 11 47.83 43.12 6.04 o
-8 1 11 36.84 43.90 6.78 o
-7 1 11 17.80 26.69 5.44 o
-6 1 11 54.12 55.15 6.94 o
-5 1 11 328.29 335.69 20.64 o
-4 1 11 139.91 131.81 12.09 o
-3 1 11 223.05 202.93 12.46 o
-2 1 11 76.49 73.54 7.12 o
-1 1 11 102.46 100.56 8.47 o
0 1 11 116.37 106.14 7.79 o
1 1 11 122.28 122.45 11.48 o
2 1 11 180.89 193.54 18.35 o
3 1 11 2.85 11.37 5.70 o
-9 2 11 14.75 18.10 4.54 o
-8 2 11 30.79 33.59 4.81 o
-7 2 11 114.99 125.59 10.63 o
-6 2 11 75.59 73.16 7.23 o
-5 2 11 37.17 36.22 4.02 o
-4 2 11 78.00 67.08 5.34 o
-3 2 11 150.38 147.03 10.43 o
-2 2 11 60.75 55.26 6.61 o
-1 2 11 65.31 65.87 5.17 o
0 2 11 56.78 56.71 6.03 o
1 2 11 38.72 43.22 5.94 o
2 2 11 44.10 40.82 6.82 o
3 2 11 58.46 71.77 7.54 o
-8 3 11 95.20 112.02 8.63 o
-7 3 11 37.50 47.31 6.73 o
-6 3 11 76.97 64.67 5.25 o
-5 3 11 10.02 16.08 3.80 o
-4 3 11 210.52 184.98 14.32 o
-3 3 11 34.88 26.99 4.47 o
-2 3 11 43.02 37.48 2.81 o
-1 3 11 9.57 9.23 3.97 o
0 3 11 44.40 33.16 4.27 o
1 3 11 249.06 267.82 17.95 o
2 3 11 19.22 21.80 4.08 o
3 3 11 30.16 31.15 6.29 o
-8 4 11 51.18 45.79 5.42 o
-7 4 11 104.48 109.22 10.54 o
-6 4 11 27.10 29.76 3.72 o
-5 4 11 35.62 31.73 4.51 o
-4 4 11 50.99 40.44 5.19 o
-3 4 11 101.08 88.19 7.66 o
-2 4 11 56.06 58.28 5.32 o
-1 4 11 60.32 64.20 5.94 o
0 4 11 83.30 77.40 7.95 o
1 4 11 0.73 3.19 4.24 o
2 4 11 2.85 7.89 3.75 o
3 4 11 12.43 10.59 4.82 o
-7 5 11 13.39 15.09 4.03 o
-6 5 11 30.52 28.08 4.64 o
-5 5 11 153.42 131.64 10.88 o
-4 5 11 12.98 13.24 2.97 o
-3 5 11 23.52 24.59 4.11 o
-2 5 11 20.32 15.67 3.58 o
-1 5 11 62.22 68.91 7.14 o
0 5 11 61.96 61.96 7.70 o
1 5 11 31.11 30.32 4.74 o
2 5 11 118.05 115.66 11.64 o
-6 6 11 79.74 72.78 7.21 o
-5 6 11 0.24 4.00 2.40 o
-4 6 11 48.47 48.85 4.46 o
-3 6 11 11.53 11.78 2.80 o
-2 6 11 67.13 61.26 6.03 o
-1 6 11 229.76 231.76 22.79 o
0 6 11 5.49 -0.82 2.74 o
1 6 11 11.68 12.87 3.88 o
-4 7 11 69.24 63.48 6.03 o
-3 7 11 16.92 24.37 4.17 o
-2 7 11 18.11 21.53 3.51 o
-1 7 11 22.61 30.65 4.35 o
0 7 11 75.25 68.05 7.21 o
-4 -7 12 65.53 81.90 8.72 o
-3 -7 12 46.16 35.33 5.55 o
-2 -7 12 4.98 9.88 5.82 o
-6 -6 12 1.54 8.31 6.71 o
-5 -6 12 38.60 33.25 6.07 o
-4 -6 12 26.38 24.59 5.15 o
-3 -6 12 139.50 135.58 10.70 o
-2 -6 12 29.25 26.31 4.49 o
-1 -6 12 61.74 67.32 9.37 o
0 -6 12 112.22 108.13 9.87 o
-7 -5 12 3.71 3.30 6.38 o
-6 -5 12 60.30 50.73 6.33 o
-5 -5 12 23.92 32.65 5.42 o
-4 -5 12 178.14 179.37 14.89 o
-3 -5 12 13.40 13.08 5.25 o
-2 -5 12 0.17 6.88 3.42 o
-1 -5 12 38.06 42.93 4.86 o
0 -5 12 19.10 29.92 6.00 o
1 -5 12 77.38 88.47 10.18 o
-7 -4 12 31.38 26.99 4.93 o
-6 -4 12 106.13 102.80 10.07 o
-5 -4 12 9.04 7.08 3.75 o
-4 -4 12 69.87 62.19 7.13 o
-3 -4 12 92.22 93.55 8.46 o
-2 -4 12 61.73 60.68 6.35 o
-1 -4 12 99.86 120.65 9.61 o
0 -4 12 27.50 28.87 4.94 o
1 -4 12 32.22 32.57 4.91 o
-8 -3 12 30.40 36.85 5.67 o
-7 -3 12 1.83 -3.37 3.37 o
-6 -3 12 27.76 28.01 5.02 o
-5 -3 12 334.37 358.05 27.21 o
-4 -3 12 30.11 37.12 4.25 o
-3 -3 12 75.50 73.03 6.21 o
-2 -3 12 16.18 10.49 3.36 o
-1 -3 12 153.11 151.93 13.70 o
0 -3 12 19.43 23.00 4.55 o
1 -3 12 2.36 -2.68 3.23 o
2 -3 12 110.04 125.42 12.78 o
-8 -2 12 55.75 59.76 7.22 o
-7 -2 12 16.13 13.19 3.88 o
-6 -2 12 95.53 99.82 8.89 o
-5 -2 12 35.25 37.94 5.30 o
-4 -2 12 115.60 133.00 11.11 o
-3 -2 12 17.59 18.67 3.65 o
-2 -2 12 78.06 63.25 5.89 o
-1 -2 12 47.99 52.55 6.45 o
0 -2 12 23.40 25.78 4.07 o
1 -2 12 3.24 2.86 3.73 o
2 -2 12 10.31 14.85 3.88 o
-8 -1 12 8.81 14.68 4.26 o
-7 -1 12 0.86 5.66 3.74 o
-6 -1 12 74.49 64.31 7.02 o
-5 -1 12 145.15 145.42 11.62 o
-4 -1 12 151.87 154.68 9.77 o
-3 -1 12 84.08 98.79 7.07 o
-2 -1 12 19.00 17.97 3.71 o
-1 -1 12 61.64 57.49 6.07 o
0 -1 12 66.82 94.71 7.65 o
1 -1 12 246.88 252.52 21.67 o
2 -1 12 56.78 62.54 8.32 o
-8 0 12 2.93 4.88 5.60 o
-7 0 12 48.15 56.59 6.80 o
-6 0 12 0.51 4.34 3.61 o
-5 0 12 113.35 119.52 8.59 o
-4 0 12 62.02 63.01 6.71 o
-3 0 12 73.06 79.37 6.87 o
-2 0 12 1.17 1.27 3.02 o
-1 0 12 51.82 52.01 5.56 o
0 0 12 28.43 29.36 4.42 o
1 0 12 0.18 8.31 4.83 o
2 0 12 35.68 40.63 5.95 o
-8 1 12 7.45 12.82 4.41 o
-7 1 12 0.90 -1.98 3.36 o
-6 1 12 73.98 67.68 7.20 o
-5 1 12 143.95 142.93 10.64 o
-4 1 12 150.48 156.16 10.93 o
-3 1 12 82.69 96.73 8.31 o
-2 1 12 19.06 26.46 5.34 o
-1 1 12 62.59 72.02 6.80 o
0 1 12 67.32 68.54 6.38 o
1 1 12 248.85 269.28 23.11 o
2 1 12 56.39 53.08 7.45 o
-8 2 12 55.71 52.97 6.80 o
-7 2 12 16.70 16.86 4.14 o
-6 2 12 97.94 105.53 8.53 o
-5 2 12 36.38 35.07 4.92 o
-4 2 12 115.09 135.75 8.81 o
-3 2 12 18.84 17.66 3.49 o
-2 2 12 78.07 81.63 8.17 o
-1 2 12 49.49 53.19 5.30 o
0 2 12 21.91 20.91 5.09 o
1 2 12 3.21 2.03 4.01 o
2 2 12 10.46 14.91 4.64 o
-8 3 12 30.86 30.82 5.52 o
-7 3 12 1.88 -1.76 3.40 o
-6 3 12 27.73 22.71 5.37 o
-5 3 12 334.10 343.89 27.76 o
-4 3 12 29.32 19.97 3.77 o
-3 3 12 74.98 75.97 7.37 o
-2 3 12 14.35 9.23 3.15 o
-1 3 12 155.11 151.38 13.13 o
0 3 12 20.58 16.86 3.83 o
1 3 12 2.17 8.61 4.74 o
2 3 12 110.70 126.92 14.03 o
-7 4 12 32.73 39.13 6.49 o
-6 4 12 108.24 123.77 12.37 o
-5 4 12 8.89 8.61 2.87 o
-4 4 12 69.80 82.17 6.85 o
-3 4 12 93.00 93.55 8.32 o
-2 4 12 62.40 51.90 6.62 o
-1 4 12 98.23 101.46 8.36 o
0 4 12 28.69 32.99 6.22 o
1 4 12 30.94 28.08 5.03 o
-7 5 12 3.69 8.36 4.54 o
-6 5 12 61.02 64.55 7.74 o
-5 5 12 25.08 31.57 4.41 o
-4 5 12 176.85 174.64 14.11 o
-3 5 12 13.16 10.16 3.49 o
-2 5 12 0.06 7.72 4.45 o
-1 5 12 38.24 44.50 5.04 o
0 5 12 17.85 15.49 4.55 o
1 5 12 77.47 85.42 10.27 o
-6 6 12 1.74 -0.82 4.21 o
-5 6 12 38.17 39.41 5.58 o
-4 6 12 26.31 25.70 3.61 o
-3 6 12 142.52 178.19 11.28 o
-2 6 12 29.86 19.91 3.90 o
-1 6 12 61.92 61.26 6.26 o
0 6 12 111.19 115.82 9.09 o
-2 7 12 4.24 1.42 3.73 o
-3 -6 13 34.17 22.50 5.42 o
-5 -5 13 25.19 37.66 7.19 o
-4 -5 13 12.79 -10.62 10.62 o
-3 -5 13 21.10 14.06 5.89 o
-2 -5 13 111.36 113.28 10.42 o
-1 -5 13 11.41 9.05 4.06 o
-6 -4 13 27.70 16.50 6.56 o
-5 -4 13 29.61 24.73 4.94 o
-4 -4 13 70.89 67.08 7.41 o
-3 -4 13 106.19 126.26 12.66 o
-2 -4 13 2.80 1.27 5.44 o
-1 -4 13 10.52 14.40 4.44 o
0 -4 13 168.14 175.23 15.30 o
-7 -3 13 26.45 28.32 6.08 o
-6 -3 13 24.25 26.23 5.24 o
-5 -3 13 11.17 10.21 4.17 o
-4 -3 13 149.61 146.85 13.11 o
-3 -3 13 50.29 45.49 5.30 o
-2 -3 13 40.70 30.57 5.49 o
-1 -3 13 119.25 111.08 10.62 o
0 -3 13 7.86 5.87 4.27 o
-7 -2 13 73.40 83.11 9.05 o
-6 -2 13 47.25 44.99 5.87 o
-5 -2 13 52.48 52.55 6.34 o
-4 -2 13 67.42 67.08 6.92 o
-3 -2 13 111.98 113.75 11.22 o
-2 -2 13 79.25 84.06 9.92 o
-1 -2 13 85.99 73.67 8.78 o
0 -2 13 127.05 132.49 12.45 o
1 -2 13 26.52 25.25 5.14 o
-7 -1 13 52.10 48.13 6.58 o
-6 -1 13 18.68 18.41 5.72 o
-5 -1 13 25.16 28.64 5.24 o
-4 -1 13 66.11 57.83 6.54 o
-3 -1 13 99.73 109.06 9.29 o
-2 -1 13 100.28 93.13 8.15 o
-1 -1 13 118.15 104.46 10.61 o
0 -1 13 1.75 -2.76 5.22 o
1 -1 13 14.68 8.97 5.59 o
-7 0 13 0.02 -1.42 3.68 o
-6 0 13 160.93 188.01 16.67 o
-5 0 13 15.28 16.26 4.13 o
-4 0 13 36.69 37.21 6.33 o
-3 0 13 50.59 49.58 5.43 o
-2 0 13 157.51 155.05 14.03 o
-1 0 13 74.60 72.40 7.32 o
0 0 13 9.25 0.97 1.99 o
1 0 13 33.51 45.89 7.13 o
-7 1 13 51.89 62.19 9.00 o
-6 1 13 19.05 11.07 3.89 o
-5 1 13 23.88 36.85 5.76 o
-4 1 13 63.64 63.84 6.39 o
-3 1 13 99.94 88.05 9.88 o
-2 1 13 101.08 107.21 8.75 o
-1 1 13 117.68 145.60 11.62 o
0 1 13 1.57 5.01 3.75 o
1 1 13 15.50 14.23 4.59 o
-7 2 13 74.14 67.20 8.50 o
-6 2 13 47.91 60.57 6.46 o
-5 2 13 52.54 59.53 6.86 o
-4 2 13 66.71 76.49 7.52 o
-3 2 13 111.86 121.96 11.13 o
-2 2 13 80.54 73.79 8.92 o
-1 2 13 85.23 76.10 7.37 o
0 2 13 125.95 144.88 14.81 o
1 2 13 26.75 20.31 4.48 o
-7 3 13 26.74 37.48 6.63 o
-6 3 13 24.25 24.29 4.24 o
-5 3 13 11.64 8.01 3.61 o
-4 3 13 146.49 141.51 10.05 o
-3 3 13 51.22 44.20 5.42 o
-2 3 13 41.04 42.54 5.70 o
-1 3 13 117.53 133.86 11.66 o
0 3 13 8.32 11.57 4.39 o
-6 4 13 28.18 28.87 6.29 o
-5 4 13 29.35 32.91 5.53 o
-4 4 13 72.22 77.92 8.77 o
-3 4 13 105.86 117.58 11.57 o
-2 4 13 2.33 3.89 3.25 o
-1 4 13 11.57 11.53 3.72 o
0 4 13 168.67 184.78 15.11 o
-5 5 13 24.84 18.10 4.16 o
-4 5 13 12.96 6.09 3.62 o
-3 5 13 19.44 16.98 4.76 o
-2 5 13 111.66 123.27 11.68 o
-1 5 13 10.63 5.77 4.02 o
-3 6 13 34.13 31.07 4.87 o
-4 -4 14 1.04 0.00 0.55 o
-3 -4 14 63.84 68.91 7.88 o
-5 -3 14 77.08 91.98 9.38 o
-4 -3 14 20.15 18.74 5.32 o
-3 -3 14 5.98 -0.27 3.81 o
-2 -3 14 253.60 285.83 24.56 o
-6 -2 14 93.13 95.43 11.15 o
-5 -2 14 22.97 20.57 4.98 o
-4 -2 14 28.50 27.38 5.74 o
-3 -2 14 93.55 89.58 9.40 o
-2 -2 14 1.95 -3.46 4.16 o
-1 -2 14 32.18 38.12 6.41 o
-6 -1 14 30.39 45.19 7.17 o
-5 -1 14 104.29 125.26 12.11 o
-4 -1 14 72.34 57.94 8.58 o
-3 -1 14 217.78 241.34 20.03 o
-2 -1 14 112.05 119.52 12.15 o
-1 -1 14 80.89 92.55 10.27 o
-6 0 14 46.66 65.99 8.19 o
-5 0 14 14.32 21.12 4.91 o
-4 0 14 43.24 62.66 8.69 o
-3 0 14 39.06 48.54 7.23 o
-2 0 14 0.36 5.98 3.85 o
-1 0 14 2.43 7.72 4.49 o
-6 1 14 29.76 34.98 6.75 o
-5 1 14 103.68 146.49 11.48 o
-4 1 14 72.57 74.05 7.14 o
-3 1 14 219.35 211.04 21.11 o
-2 1 14 110.68 121.47 11.60 o
-1 1 14 80.24 81.90 8.59 o
-6 2 14 89.44 106.60 11.17 o
-5 2 14 22.24 26.69 6.74 o
-4 2 14 27.97 34.46 5.22 o
-3 2 14 91.81 86.11 9.49 o
-2 2 14 2.31 9.55 5.50 o
-1 2 14 32.61 40.92 6.35 o
-5 3 14 75.08 73.79 8.92 o
-4 3 14 19.93 26.84 6.22 o
-3 3 14 6.19 4.00 5.43 o
-2 3 14 253.04 264.68 23.15 o
-4 4 14 0.69 2.64 3.08 o
-3 4 14 62.56 66.71 6.78 o
