#------------------------------------------------------------------------------
#$Date: 2016-03-21 04:32:49 +0200 (Mon, 21 Mar 2016) $
#$Revision: 178472 $
#$URL: svn://www.crystallography.net/cod/cif/4/02/93/4029316.cif $
#------------------------------------------------------------------------------
#
# This file is available in the Crystallography Open Database (COD),
# http://www.crystallography.net/
#
# All data on this site have been placed in the public domain by the
# contributors.
#
data_4029316
loop_
_publ_author_name
'Fontenelle, Cl\'ement Q'
'Conroy, Matthew'
'Light, Mark'
'Poisson, Thomas'
'Pannecoucke, Xavier'
'Linclau, Bruno'
_publ_section_title
;
 Stereoselectivity of the Honda-Reformatsky Reaction in Reactions with
 Ethyl Bromodifluoroacetate with \a-Oxygenated Sulfinylimines.
;
_journal_issue                   9
_journal_name_full               'The Journal of organic chemistry'
_journal_page_first              4186
_journal_page_last               4195
_journal_paper_doi               10.1021/jo500396p
_journal_volume                  79
_journal_year                    2014
_chemical_absolute_configuration ad
_chemical_compound_source        'Clement Fontenelle'
_chemical_formula_moiety         'C9 H17 F2 N O3 S'
_chemical_formula_sum            'C9 H17 F2 N O3 S'
_chemical_formula_weight         257.29
_chemical_name_systematic
;
 ?
;
_space_group_crystal_system      monoclinic
_space_group_IT_number           4
_space_group_name_Hall           'P 2yb'
_space_group_name_H-M_alt        'P 1 21 1'
_symmetry_space_group_name_Hall  'P 2yb'
_symmetry_space_group_name_H-M   'P 1 21 1'
_atom_sites_solution_hydrogens   mixed
_audit_creation_method           SHELXL-2013
_cell_angle_alpha                90
_cell_angle_beta                 100.655(14)
_cell_angle_gamma                90
_cell_formula_units_Z            2
_cell_length_a                   5.742(4)
_cell_length_b                   17.689(11)
_cell_length_c                   6.193(4)
_cell_measurement_reflns_used    1683
_cell_measurement_temperature    100(2)
_cell_measurement_theta_max      27.5
_cell_measurement_theta_min      2.3
_cell_volume                     618.2(7)
_computing_cell_refinement
;
CrystalClear-SM Expert 3.1 (Rigaku, 2013)
;
_computing_data_collection
;
CrystalClear-SM Expert 3.1 (Rigaku, 2013)
;
_computing_data_reduction
;
CrystalClear-SM Expert 3.1 (Rigaku, 2013)
;
_computing_molecular_graphics
;
Images generated using CrystalMaker: a crystal and molecular 
structures program for Mac and Windows. CrystalMaker Software Ltd, 
Oxford, England (www.crystalmaker.com)
;
_computing_publication_material  'WINGX (Farrugia, 2013)'
_computing_structure_refinement  'SHELXL-2013 (Sheldrick, 2013)'
_computing_structure_solution    'SHELXS-2013 (Sheldrick, 2013)'
_diffrn_ambient_temperature      100(2)
_diffrn_detector                 'CCD plate'
_diffrn_detector_area_resol_mean 28.5714
_diffrn_detector_type            'Rigaku HG Saturn724+ (2x2 bin mode)'
_diffrn_measured_fraction_theta_full 0.997
_diffrn_measured_fraction_theta_max 0.998
_diffrn_measurement_device       'four-circle \k diffractometer'
_diffrn_measurement_device_type  'Rigaku AFC12 (Right)'
_diffrn_measurement_method       'profile data from \w-scans'
_diffrn_measurement_specimen_support 'MiTeGen MicroMesh'
_diffrn_radiation_collimation    'Confocal mirrors, VHF Varimax '
_diffrn_radiation_type           MoK\a
_diffrn_radiation_wavelength     0.71073
_diffrn_reflns_av_R_equivalents  0.0360
_diffrn_reflns_av_unetI/netI     0.0410
_diffrn_reflns_Laue_measured_fraction_full 0.997
_diffrn_reflns_Laue_measured_fraction_max 0.998
_diffrn_reflns_limit_h_max       7
_diffrn_reflns_limit_h_min       -7
_diffrn_reflns_limit_k_max       14
_diffrn_reflns_limit_k_min       -22
_diffrn_reflns_limit_l_max       7
_diffrn_reflns_limit_l_min       -8
_diffrn_reflns_number            5534
_diffrn_reflns_point_group_measured_fraction_full 0.763
_diffrn_reflns_point_group_measured_fraction_max 0.736
_diffrn_reflns_theta_full        25.242
_diffrn_reflns_theta_max         27.420
_diffrn_reflns_theta_min         3.540
_diffrn_source                   'Rotating Anode'
_diffrn_source_current           55.0
_diffrn_source_power             2.475
_diffrn_source_voltage           45.0
_exptl_absorpt_coefficient_mu    0.280
_exptl_absorpt_correction_T_max  1.000
_exptl_absorpt_correction_T_min  0.694
_exptl_absorpt_correction_type   multi-scan
_exptl_absorpt_process_details
;
Jacobson, R. (1998). REQAB. Private communication to the 
Rigaku Corporation, Tokyo, Japan.
;
_exptl_crystal_colour            Colourless
_exptl_crystal_density_diffrn    1.382
_exptl_crystal_description       Prism
_exptl_crystal_F_000             272
_exptl_crystal_size_max          0.120
_exptl_crystal_size_mid          0.070
_exptl_crystal_size_min          0.020
_refine_diff_density_max         0.317
_refine_diff_density_min         -0.207
_refine_diff_density_rms         0.040
_refine_ls_abs_structure_details
;
 Flack x determined using 604 quotients [(I+)-(I-)]/[(I+)+(I-)]
 (Parsons and Flack (2004), Acta Cryst. A60, s61).
;
_refine_ls_abs_structure_Flack   0.02(4)
_refine_ls_extinction_method     none
_refine_ls_goodness_of_fit_ref   1.032
_refine_ls_hydrogen_treatment    mixed
_refine_ls_matrix_type           full
_refine_ls_number_parameters     155
_refine_ls_number_reflns         2056
_refine_ls_number_restraints     3
_refine_ls_restrained_S_all      1.033
_refine_ls_R_factor_all          0.0246
_refine_ls_R_factor_gt           0.0244
_refine_ls_shift/su_max          0.001
_refine_ls_shift/su_mean         0.000
_refine_ls_structure_factor_coef Fsqd
_refine_ls_weighting_details
'w=1/[\s^2^(Fo^2^)+(0.0335P)^2^+0.1677P] where P=(Fo^2^+2Fc^2^)/3'
_refine_ls_weighting_scheme      calc
_refine_ls_wR_factor_gt          0.0659
_refine_ls_wR_factor_ref         0.0662
_reflns_Friedel_coverage         0.428
_reflns_Friedel_fraction_full    0.513
_reflns_Friedel_fraction_max     0.456
_reflns_number_gt                2040
_reflns_number_total             2056
_reflns_threshold_expression     'I > 2\s(I)'
_cod_data_source_file            jo500396p_si_004.cif
_cod_data_source_block           2013sot0098
_cod_depositor_comments
;
The following automatic conversions were performed:

'_exptl_absorpt_correction_type' value 'Multi-scan' changed to
'multi-scan' according to
/usr/data/users/saulius/crontab/automatic-downloads/rss-feeds/ACS/lib/dictionaries/cif_core.dic
dictionary named 'cif_core.dic' version 2.4.2 from 2011-04-26.

Automatic conversion script
Id: cif_fix_values 2281 2013-09-26 08:29:07Z andrius 

 Adding full bibliography for 4029315--4029317.cif.
;
_cod_original_cell_volume        618.1(7)
_cod_database_code               4029316
#BEGIN Tags that were not found in dictionaries:
_shelx_space_group_comment
;
The symmetry employed for this shelxl refinement is uniquely defined
by the following loop, which should always be used as a source of
symmetry information in preference to the above space-group names.
They are only intended as comments.
;
_shelx_estimated_absorpt_t_min   0.967
_shelx_estimated_absorpt_t_max   0.994
_shelxl_version_number           2013-3
_shelx_res_file
;
TITL 2013sot0098 in P2(1)
CELL  0.71073   5.7418  17.6891   6.1925   90.000  100.655   90.000
ZERR     2.00   0.0040   0.0114   0.0040    0.000    0.014    0.000
LATT  -1
SYMM  - X, 1/2 + Y, - Z
SFAC  C    H    N    O    F    S
UNIT  18   34   2    6    4    2
MERG   2
SHEL 7 0.77
DFIX 0.9 N1 H901 O1 H902
SIZE 0.12 0.07 0.02

TEMP -173
HTAB
EQIV $1 x-1, y, z
HTAB C3 F2_$1
EQIV $2 x, y, z-1
HTAB N1 O2_$2
EQIV $3 x+1, y, z+1
HTAB O1 S1_$3
HTAB O1 O3_$3
FMAP   2
PLAN   20
ACTA
BOND
L.S.   4
WGHT    0.033500    0.167700
FVAR       0.76261
S1    6    0.551625    0.570084    0.402433    11.00000    0.01150    0.01287 =
         0.01359    0.00151    0.00181   -0.00026
F1    5    0.997468    0.784078    0.718205    11.00000    0.03228    0.01574 =
         0.02371   -0.00374   -0.00511   -0.00514
F2    5    1.180988    0.714938    0.509412    11.00000    0.01356    0.03943 =
         0.02295    0.00897    0.00555   -0.00284
O1    4    1.238489    0.623301    0.831528    11.00000    0.01449    0.02414 =
         0.01951    0.00245    0.00073    0.00300
O2    4    0.876939    0.647145    0.909173    11.00000    0.01777    0.02819 =
         0.01775    0.00501    0.00522    0.00168
H902  2    1.261855    0.600139    0.955975    11.00000   -1.20000
O3    4    0.336150    0.570490    0.221164    11.00000    0.01333    0.02143 =
         0.02229    0.00442   -0.00466   -0.00157
N1    3    0.756084    0.630176    0.356969    11.00000    0.01638    0.01271 =
         0.01502   -0.00034    0.00559   -0.00241
H901  2    0.800550    0.627333    0.232173    11.00000   -1.20000

C1    1    1.031689    0.655963    0.803102    11.00000    0.01477    0.01628 =
         0.01218   -0.00394   -0.00089   -0.00195
C2    1    0.993403    0.714843    0.615849    11.00000    0.01199    0.01687 =
         0.01699    0.00088    0.00279   -0.00207
C3    1    0.761437    0.706356    0.452412    11.00000    0.01155    0.01340 =
         0.01424    0.00025    0.00108   -0.00030
AFIX  13
H3    2    0.626918    0.711150    0.533585    11.00000   -1.20000
AFIX   0
C4    1    0.740478    0.769547    0.280059    11.00000    0.01885    0.01350 =
         0.01738    0.00184    0.00034   -0.00071
AFIX  23
H4A   2    0.764493    0.818862    0.356532    11.00000   -1.20000
H4B   2    0.868326    0.763326    0.193944    11.00000   -1.20000
AFIX   0
C5    1    0.502702    0.770713    0.122720    11.00000    0.02405    0.02435 =
         0.02221    0.00576   -0.00189   -0.00026
AFIX 137
H5A   2    0.375049    0.777714    0.206260    11.00000   -1.50000
H5B   2    0.479705    0.722736    0.042464    11.00000   -1.50000
H5C   2    0.500426    0.812439    0.018244    11.00000   -1.50000
AFIX   0
C6    1    0.703017    0.480469    0.363295    11.00000    0.01627    0.01308 =
         0.01736   -0.00012    0.00409    0.00048
C7    1    0.757446    0.475323    0.131378    11.00000    0.02784    0.02029 =
         0.02126   -0.00338    0.01011   -0.00225
AFIX 137
H7A   2    0.816540    0.424610    0.107455    11.00000   -1.50000
H7B   2    0.878044    0.512917    0.114150    11.00000   -1.50000
H7C   2    0.612665    0.485142    0.023774    11.00000   -1.50000
AFIX   0
C8    1    0.525544    0.419380    0.401105    11.00000    0.02414    0.01401 =
         0.03168    0.00004    0.01025   -0.00273
AFIX 137
H8A   2    0.483991    0.426330    0.546353    11.00000   -1.50000
H8B   2    0.596882    0.369357    0.393316    11.00000   -1.50000
H8C   2    0.382283    0.423394    0.287822    11.00000   -1.50000
AFIX   0
C9    1    0.926301    0.476191    0.539105    11.00000    0.01805    0.01991 =
         0.02505    0.00283    0.00179    0.00626
AFIX 137
H9A   2    0.993483    0.425204    0.541426    11.00000   -1.50000
H9B   2    0.886708    0.487620    0.682908    11.00000   -1.50000
H9C   2    1.042419    0.512995    0.506133    11.00000   -1.50000

AFIX   0
HKLF    4

REM  2013sot0098 in P2(1)
REM R1 =  0.0244 for    2040 Fo > 4sig(Fo)  and  0.0246 for all    2056 data
REM    155 parameters refined using      3 restraints

END

WGHT      0.0253      0.1787

REM Instructions for potential hydrogen bonds
HTAB O1 S1_$3
HTAB O1 O3_$3
HTAB N1 O2_$2
HTAB C3 F2_$1

REM Highest difference peak  0.317,  deepest hole -0.207,  1-sigma level  0.040
Q1    1   0.6342  0.5283  0.3687  11.00000  0.05    0.32
Q2    1   0.6323  0.6106  0.3541  11.00000  0.05    0.24
Q3    1   0.8681  0.7089  0.5298  11.00000  0.05    0.23
Q4    1   1.0160  0.6842  0.7037  11.00000  0.05    0.23
Q5    1   0.7472  0.7363  0.3688  11.00000  0.05    0.20
Q6    1   0.7715  0.6675  0.4072  11.00000  0.05    0.18
Q7    1   0.6011  0.4588  0.4001  11.00000  0.05    0.17
Q8    1   0.6252  0.7698  0.2156  11.00000  0.05    0.17
Q9    1   0.4667  0.5709  0.2129  11.00000  0.05    0.16
Q10   1   0.3883  0.5581  0.0873  11.00000  0.05    0.16
Q11   1   1.1660  0.7707  0.4385  11.00000  0.05    0.14
Q12   1   0.8929  0.6777  0.9262  11.00000  0.05    0.14
Q13   1   0.7194  0.4848  0.2632  11.00000  0.05    0.14
Q14   1   0.8216  0.4788  0.4432  11.00000  0.05    0.14
Q15   1   0.7652  0.6087  0.4529  11.00000  0.05    0.13
Q16   1   0.9928  0.4584  0.7221  11.00000  0.05    0.12
Q17   1   1.0261  0.7538  0.6662  11.00000  0.05    0.12
Q18   1   0.4054  0.5706  0.3183  11.00000  0.05    0.12
Q19   1   0.2916  0.5878  0.2373  11.00000  0.05    0.11
Q20   1   1.0332  0.7958  0.8867  11.00000  0.05    0.11
;
_shelx_res_checksum              15404
_shelx_hkl_file
;
   0   0   2    0.12    0.20
   0   0   2    0.11    0.13
   0   0   2    0.07    0.15
   0   0  -2    0.02    0.17
   0   0  -2    0.20    0.24
   0   0  -2    0.07    0.10
   0   0   3  127.38    5.28
   0   0   3  133.45    5.63
   0   0   3  137.15    5.48
   0   0  -3  133.91    5.36
   0   0  -3  127.58    5.08
   0   0  -3  131.15    5.40
   0   0  -3  147.17    5.93
   0   0   4  148.36    6.12
   0   0  -4  144.24    6.45
   0   0  -4  144.31    6.24
   0   0  -4  147.63    6.32
   0   0   5   34.07    1.10
   0   0  -5   40.95    1.67
   0   0  -5   38.76    1.41
   0   0  -6   39.03    1.42
   0   0  -6   34.35    1.46
   0   0  -7   -0.27    0.28
   0   0  -7    0.43    0.26
   0  -1   1  719.16   55.43
   0   1   1  812.25   63.15
   0  -1   1  751.77   58.04
   0   1   1  668.32   52.20
   0   1   1  840.95   64.79
   0   1   1  834.91   64.19
   0  -1  -1  802.79   61.67
   0   1  -1  808.36   62.30
   0   1  -1  836.77   64.43
   0  -1  -1  758.48   59.09
   0  -1  -1  799.98   62.13
   0  -1   2 1071.50   95.44
   0  -1   2  983.90   88.45
   0   1   2 1079.66   97.19
   0   1   2 1118.70  100.09
   0   1   2 1128.20  100.45
   0  -1   2 1086.12   97.14
   0  -1   2 1084.02   96.82
   0   1  -2 1082.96   96.40
   0  -1  -2 1084.15   97.33
   0   1  -2 1088.34   97.05
   0  -1  -2 1068.97   95.02
   0  -1  -2 1151.72  102.77
   0   1  -2 1016.37   91.12
   0  -1  -2 1020.37   91.76
   0  -1   3  117.78    4.65
   0   1   3  119.00    4.67
   0   1   3  113.61    4.44
   0   1   3  113.27    4.71
   0  -1   3  120.19    4.84
   0   1   3  115.61    4.40
   0  -1   3  115.33    4.43
   0  -1   3  115.88    4.72
   0  -1  -3  114.60    4.85
   0  -1  -3  118.77    4.82
   0   1  -3  108.85    4.30
   0  -1  -3  124.91    4.83
   0   1  -3  112.28    4.41
   0   1   4   24.91    0.73
   0  -1   4   23.03    0.80
   0   1   4   25.97    0.91
   0  -1   4   23.14    0.67
   0  -1  -4   24.07    0.96
   0   1  -4   26.76    1.05
   0   1  -4   24.43    0.86
   0  -1  -4   22.42    0.85
   0   1   5   10.81    0.47
   0  -1   5    8.72    0.34
   0   1   5    8.46    0.34
   0   1  -5   11.39    0.68
   0  -1  -5   10.04    0.60
   0  -1  -5   10.47    0.73
   0   1  -5   10.37    0.54
   0  -1  -6   66.77    2.72
   0   1  -6   63.42    2.61
   0  -1  -6   61.90    2.49
   0   1  -6   58.81    2.36
   0   1  -7  115.64    5.10
   0  -1  -7  113.43    5.10
   0   1  -7   96.07    4.35
   0  -1  -7  101.30    4.62
   0   2   1   20.23    0.68
   0  -2   1   18.65    0.53
   0   2   1   18.29    0.67
   0   2   1   19.63    0.76
   0  -2   1   17.97    0.47
   0  -2  -1   18.91    0.65
   0  -2  -1   20.77    0.63
   0   2  -1   18.53    0.58
   0  -2  -1   19.97    0.94
   0   2  -1   17.03    0.49
   0  -2   2   24.22    0.79
   0   2   2   26.99    0.86
   0   2   2   25.33    0.79
   0  -2   2   25.39    0.80
   0   2   2   24.72    0.80
   0   2   2   24.44    0.99
   0  -2  -2   25.34    0.79
   0  -2  -2   24.51    0.84
   0   2  -2   23.70    0.72
   0   2  -2   23.08    0.70
   0   2  -2   24.13    0.76
   0  -2  -2   25.75    1.11
   0   2   3  143.40    6.41
   0  -2   3  145.17    6.25
   0   2   3  154.09    6.35
   0   2   3  145.26    6.14
   0  -2   3  144.38    5.99
   0  -2   3  144.24    6.08
   0   2  -3  149.13    6.32
   0   2  -3  154.40    6.38
   0  -2  -3  151.94    6.30
   0   2  -3  146.63    6.28
   0  -2  -3  153.43    6.93
   0  -2  -3  146.49    6.40
   0  -2   4  272.07   14.53
   0   2   4  295.32   15.52
   0   2   4  276.69   14.71
   0  -2   4  284.44   15.35
   0   2  -4  278.72   15.01
   0  -2  -4  291.99   15.76
   0  -2  -4  277.71   15.07
   0   2  -4  294.78   15.88
   0   2   5  379.17   22.10
   0  -2   5  338.16   20.46
   0   2   5  357.72   20.96
   0  -2  -5  380.84   22.47
   0  -2  -5  295.73   18.55
   0   2  -5  377.89   22.41
   0   2  -5  369.71   21.54
   0  -2  -5  359.65   21.38
   0   2  -6   22.12    1.02
   0   2  -6   21.32    0.84
   0  -2  -6   23.09    1.15
   0  -2  -6   19.44    0.94
   0   2  -7   20.39    0.97
   0   2  -7   26.76    1.22
   0  -2  -7   28.82    1.34
   0  -3   0    0.12    0.13
   0  -3   0   -0.10    0.18
   0   3   0    0.05    0.14
   0   3   0   -0.02    0.13
   0   3   1  796.53   61.62
   0  -3   1  678.70   50.85
   0  -3   1  722.43   54.51
   0   3   1  770.99   59.26
   0   3   1  738.56   56.08
   0  -3  -1  681.48   52.74
   0  -3  -1  788.65   61.10
   0  -3  -1  759.77   57.79
   0  -3   2 1622.77  533.81
   0   3   2 1881.85  206.64
   0  -3   2 1713.34  188.39
   0   3   2 1655.78  183.22
   0   3   2 1756.26  195.18
   0  -3  -2 1776.72  196.70
   0  -3  -2 1556.91  173.01
   0   3  -2 1803.76  198.67
   0  -3  -2 1753.40  192.58
   0   3  -2 1607.59  176.35
   0   3   3  125.47    4.88
   0  -3   3  121.05    4.89
   0  -3   3  122.99    4.83
   0   3   3  117.70    4.74
   0   3  -3  121.27    4.95
   0  -3  -3  123.28    5.05
   0  -3  -3  125.70    5.49
   0  -3  -3  130.50    5.15
   0   3  -3  121.99    4.90
   0   3  -3  125.69    4.95
   0   3   4   49.70    1.67
   0   3   4   49.84    1.56
   0  -3   4   45.17    1.47
   0  -3   4   49.91    1.68
   0  -3  -4   47.93    1.53
   0   3  -4   44.54    1.53
   0  -3  -4   49.15    2.05
   0   3  -4   47.96    1.71
   0  -3  -4   48.49    1.92
   0   3   5   79.99    2.91
   0  -3   5   69.65    2.64
   0   3   5   78.41    2.82
   0   3  -5   76.35    3.00
   0  -3  -5   81.68    3.62
   0   3  -5   85.45    3.48
   0  -3  -5   80.11    3.46
   0   3   6   91.92    3.57
   0  -3  -6   93.59    3.87
   0  -3  -6  101.17    4.44
   0   3  -6   91.14    3.82
   0   3  -6  101.61    4.24
   0  -3  -7   51.83    2.46
   0  -3  -7   59.27    2.41
   0   3  -7   58.87    2.52
   0   4   0  246.76   12.35
   0  -4   0  247.71   12.35
   0  -4   0  258.89   13.01
   0   4   0  244.08   12.26
   0   4   1  438.21   27.24
   0   4   1  433.75   26.52
   0  -4  -1  421.48   26.01
   0  -4  -1  441.80   27.25
   0  -4  -1  415.59   25.95
   0   4   2  802.08   62.10
   0  -4   2  758.99   58.61
   0  -4   2  689.55   65.03
   0   4   2  800.65   63.03
   0   4   2  765.83   60.30
   0  -4  -2  779.44   60.64
   0   4  -2  767.72   59.27
   0   4  -2  813.22   63.26
   0  -4  -2  789.83   62.82
   0  -4  -2  718.87   56.25
   0  -4   3  155.97    6.81
   0   4   3  172.90    7.48
   0  -4   3  163.08    6.96
   0   4   3  171.33    7.29
   0   4  -3  151.01    6.47
   0   4  -3  165.89    7.30
   0  -4  -3  169.35    7.77
   0  -4  -3  162.27    6.93
   0   4  -3  164.24    7.13
   0  -4  -3  164.35    7.76
   0  -4   4  107.60    4.29
   0   4   4  115.19    4.35
   0  -4   4  101.74    4.00
   0   4  -4  111.35    4.54
   0  -4  -4  106.97    4.12
   0   4  -4  113.16    4.52
   0  -4  -4  101.19    4.12
   0  -4  -4  109.46    4.57
   0  -4   5  189.52    9.84
   0   4   5  205.50    9.94
   0   4   5  222.06   10.67
   0   4  -5  221.15   10.99
   0   4  -5  204.50    9.97
   0  -4  -5  224.85   11.75
   0  -4  -5  212.74   10.85
   0   4   6   83.33    3.09
   0   4  -6   80.00    3.10
   0  -4  -6   88.10    4.01
   0   4  -6   71.33    3.15
   0  -4  -6   79.30    3.56
   0  -4  -7   56.21    2.74
   0  -4  -7   47.99    2.38
   0   4  -7   59.90    2.48
   0  -5   0   -0.16    0.30
   0  -5   0   -0.02    0.18
   0   5   0   -0.18    0.18
   0   5   0    0.07    0.20
   0   5   1  555.44   38.16
   0  -5   1  542.00   37.09
   0  -5   1  584.19   40.54
   0   5   1  588.41   40.82
   0  -5  -1  566.83   39.92
   0  -5  -1  567.59   39.28
   0  -5  -1  587.69   41.03
   0   5   2  711.39   52.48
   0   5   2  702.18   50.64
   0  -5   2  607.61   43.42
   0   5   2  567.17   41.52
   0  -5   2  605.12   52.62
   0  -5  -2  689.45   49.87
   0  -5  -2  625.63   46.50
   0  -5  -2  669.79   48.81
   0  -5   3  145.89    5.98
   0   5   3  155.06    6.49
   0   5   3  160.52    6.64
   0  -5   3  135.27    5.67
   0  -5  -3  149.65    6.22
   0  -5  -3  156.67    6.92
   0   5  -3  143.76    6.06
   0   5  -3  137.08    6.02
   0  -5  -3  137.57    5.96
   0   5   4  209.41    9.69
   0  -5   4  192.93    9.12
   0  -5  -4  194.04    9.58
   0   5  -4  206.03    9.86
   0  -5  -4  192.46    9.43
   0   5  -4  185.80    8.96
   0  -5  -4  202.43    9.32
   0  -5   5   30.32    1.18
   0   5   5   36.21    1.15
   0   5   5   32.98    1.04
   0   5  -5   31.99    1.16
   0  -5  -5   34.93    1.65
   0   5  -5   36.48    1.41
   0  -5  -5   32.45    1.25
   0  -5  -5   32.82    1.05
   0   5   6   54.99    1.96
   0  -5  -6   55.14    2.55
   0  -5  -6   50.16    2.01
   0   5  -6   57.91    2.33
   0   5  -6   51.08    2.15
   0  -5  -7   46.07    2.10
   0  -5  -7   49.43    2.35
   0  -6   0 1001.85   88.02
   0  -6   0 1059.25   93.49
   0   6   0  989.40   86.89
   0   6   1 1137.38  104.46
   0   6   1 1188.32  108.26
   0  -6   1 1052.35   95.50
   0  -6   1 1061.85   97.01
   0  -6  -1 1076.73   99.73
   0  -6  -1 1175.82  108.12
   0  -6  -1 1099.76  100.82
   0   6   2  724.46   54.43
   0  -6   2  636.71   46.68
   0  -6   2  651.93   47.96
   0   6   2  714.74   53.08
   0  -6  -2  674.68   50.65
   0  -6  -2  726.98   55.38
   0  -6  -2  704.84   52.55
   0  -6   3   26.87    0.80
   0   6   3   28.58    0.82
   0  -6   3   25.74    0.72
   0  -6  -3   26.05    0.96
   0   6  -3   24.87    0.81
   0  -6  -3   26.67    1.26
   0  -6  -3   28.26    0.96
   0  -6   4   35.98    1.20
   0   6   4   42.13    1.27
   0   6   4   41.42    1.51
   0  -6  -4   36.16    1.51
   0   6  -4   39.34    1.39
   0  -6  -4   38.69    1.74
   0  -6  -4   38.89    1.30
   0  -6  -5  164.39    7.48
   0  -6  -5  155.28    7.21
   0  -6  -5  159.31    6.85
   0   6  -5  141.32    6.21
   0  -6   6   98.55    4.13
   0  -6  -6   94.48    3.93
   0  -6  -6  102.78    4.72
   0  -6  -7   33.63    1.62
   0  -6  -7   32.08    1.48
   0  -7   0   -0.00    0.20
   0  -7   0    0.06    0.26
   0   7   0    0.06    0.22
   0   7   1  526.15   36.18
   0   7   1  603.75   41.24
   0  -7   1  541.57   37.67
   0  -7   1  512.66   34.96
   0  -7  -1  586.58   40.82
   0  -7  -1  589.90   41.40
   0  -7  -1  556.08   38.63
   0  -7   2   11.57    0.59
   0   7   2    9.12    0.50
   0  -7   2   10.00    0.35
   0   7   2    9.16    0.37
   0  -7   2    8.92    0.24
   0  -7  -2    9.86    0.50
   0  -7  -2    9.03    0.54
   0  -7  -2   10.18    0.72
   0  -7   3   19.23    0.62
   0   7   3   20.19    0.60
   0  -7   3   17.71    0.46
   0  -7  -3   20.76    0.77
   0  -7  -3   20.16    0.95
   0  -7  -3   18.55    0.80
   0   7   4  190.95    8.82
   0  -7   4  182.36    8.43
   0   7   4  189.21    8.77
   0   7  -4  160.73    7.44
   0  -7  -4  195.02    9.27
   0  -7  -4  207.05   10.37
   0  -7  -4  192.51    8.85
   0  -7  -5  117.05    5.62
   0  -7  -5  109.65    4.46
   0   7  -5  111.88    4.61
   0  -7  -5  114.34    4.97
   0  -7   6    6.64    0.51
   0  -7  -6    6.07    0.46
   0  -7  -6    7.16    0.56
   0  -7  -7   18.17    0.82
   0  -7  -7   16.50    0.92
   0  -8   0   26.46    0.97
   0   8   0   28.31    0.95
   0  -8   0   26.16    0.94
   0   8   1  927.25   80.32
   0   8   1  950.09   81.62
   0  -8   1  931.35   80.63
   0  -8   1  928.14   79.26
   0  -8  -1  959.68   82.34
   0  -8  -1  999.78   86.16
   0  -8  -1  945.77   82.19
   0  -8   2  538.05   36.69
   0  -8   2  527.55   35.28
   0  -8   2  518.98   34.62
   0   8   2  574.20   39.00
   0  -8   2  535.75   35.80
   0  -8  -2  530.46   37.01
   0  -8  -2  563.92   38.51
   0  -8  -2  548.13   37.47
   0  -8   3   58.50    1.96
   0   8   3   56.18    1.87
   0  -8   3   55.79    2.16
   0  -8   3   54.35    1.64
   0  -8  -3   51.53    2.20
   0  -8  -3   59.38    2.59
   0  -8  -3   57.89    2.02
   0  -8   4    7.02    0.49
   0  -8   4    6.53    0.25
   0   8   4    7.71    0.37
   0   8   4    7.30    0.29
   0  -8  -4    6.56    0.40
   0  -8  -4    6.33    0.66
   0  -8  -4    5.81    0.52
   0   8   5  126.00    5.40
   0  -8   5  164.00    7.41
   0  -8  -5  154.29    6.59
   0  -8  -5  173.38    8.22
   0  -8  -5  162.09    7.57
   0   8  -5  131.89    5.64
   0  -8   6   99.42    4.34
   0  -8  -6  110.41    5.06
   0  -8  -6  102.12    4.64
   0  -8  -7    8.44    0.54
   0  -8  -7    7.86    0.59
   0   9   0    0.09    0.15
   0  -9   0   -0.07    0.18
   0  -9   0   -0.11    0.18
   0  -9   1  151.87    6.55
   0  -9   1  142.89    6.65
   0   9   1  155.27    6.66
   0   9   1  160.17    7.04
   0  -9  -1  149.38    6.82
   0  -9  -1  134.66    5.98
   0  -9  -1  146.70    6.82
   0   9   2   79.90    2.92
   0  -9   2   79.86    2.79
   0  -9   2   87.56    3.54
   0  -9   2   77.17    2.61
   0  -9  -2   87.06    3.73
   0  -9  -2   84.59    3.30
   0  -9  -2   80.92    3.19
   0   9   3  148.19    6.38
   0  -9   3  136.47    5.94
   0  -9   3  131.07    5.48
   0  -9   3  137.34    5.34
   0  -9  -3  146.25    6.25
   0  -9  -3  135.71    5.96
   0  -9  -3  143.61    6.77
   0  -9   4  199.79    9.79
   0   9   4  194.13    9.50
   0  -9   4  175.25    8.11
   0  -9  -4  195.93    9.48
   0  -9  -4  187.21    9.20
   0  -9  -4  198.21    9.25
   0   9   5    1.66    0.23
   0  -9   5    1.21    0.31
   0  -9  -5    1.46    0.17
   0  -9  -5    1.69    0.30
   0  -9  -5    1.52    0.46
   0  -9   6   18.24    0.83
   0  -9  -6   19.47    0.93
   0  -9  -6   17.21    0.82
   0  -9  -7   34.23    1.39
   0  -9  -7   31.13    1.46
   0 -10   0  269.40   13.84
   0 -10   0  244.24   12.65
   0  10   0  249.17   12.82
   0 -10   1  166.69    7.42
   0  10   1  178.56    8.21
   0 -10   1  166.47    8.04
   0 -10  -1  163.18    7.80
   0 -10  -1  174.42    8.17
   0 -10  -1  172.58    8.15
   0 -10   2  165.53    7.16
   0 -10   2  166.79    7.26
   0 -10   2  177.53    8.41
   0 -10  -2  185.20    8.75
   0 -10  -2  164.14    7.68
   0 -10  -2  160.73    7.28
   0 -10   3   14.32    0.50
   0 -10   3   14.94    0.83
   0 -10  -3   15.89    0.95
   0 -10  -3   15.66    0.91
   0 -10  -3   15.79    0.68
   0 -10   4   37.39    1.37
   0 -10  -4   38.65    1.34
   0 -10  -4   38.39    1.50
   0 -10  -4   37.13    1.48
   0 -10   5   23.19    1.01
   0  10   5   22.38    0.86
   0 -10  -5   23.22    1.11
   0 -10  -5   21.94    0.80
   0 -10  -5   23.24    1.21
   0 -10   6  101.10    4.48
   0 -10  -6  100.84    4.38
   0 -10  -6   99.56    4.60
   0 -10  -7   35.49    1.73
   0 -10  -7   32.62    1.57
   0 -11   0   -0.03    0.28
   0 -11   0    0.06    0.19
   0  11   0    0.02    0.16
   0 -11   1  350.24   20.03
   0 -11   1  369.61   22.05
   0 -11  -1  337.78   20.14
   0 -11  -1  329.29   19.75
   0 -11  -1  376.80   22.27
   0 -11   2  111.89    4.39
   0 -11   2  125.46    5.58
   0 -11   2  119.27    4.66
   0 -11  -2  125.61    5.64
   0 -11  -2  121.50    5.15
   0 -11  -2  122.34    5.29
   0 -11   3   52.25    1.77
   0 -11   3   60.31    2.47
   0 -11  -3   63.45    2.63
   0 -11  -3   61.70    2.33
   0 -11  -3   59.79    2.61
   0 -11   4   39.21    1.49
   0 -11  -4   41.20    1.45
   0 -11  -4   43.29    2.02
   0 -11  -4   40.26    1.56
   0  11   5   17.98    0.78
   0 -11   5   19.45    0.92
   0 -11  -5   17.52    0.71
   0 -11  -5   18.12    1.06
   0 -11  -5   16.92    1.02
   0 -11   6   24.29    1.13
   0 -11  -6   24.15    1.27
   0 -11  -6   26.00    1.41
   0 -12   0  571.73   41.24
   0 -12   0  587.47   41.66
   0 -12   1  109.87    4.42
   0 -12   1  100.23    4.22
   0 -12  -1  107.45    4.68
   0 -12  -1  107.21    4.66
   0 -12  -1  101.63    4.36
   0 -12   2   76.45    3.25
   0 -12   2   69.99    2.42
   0 -12  -2   73.66    3.16
   0 -12  -2   75.07    3.17
   0 -12  -2   65.22    2.51
   0 -12   3   12.50    0.78
   0 -12  -3   12.97    0.64
   0 -12  -3   12.93    0.87
   0 -12  -3   13.13    0.62
   0 -12   4  107.20    4.86
   0 -12  -4  110.91    4.87
   0 -12  -4  108.38    4.64
   0 -12  -4  113.17    4.65
   0 -12   5  167.38    8.29
   0  12   5  169.28    7.77
   0 -12  -5  167.01    7.73
   0 -12  -5  172.38    8.57
   0 -12  -5  161.11    7.78
   0 -12   6   72.79    3.16
   0 -12  -6   67.83    2.80
   0 -12  -6   69.11    3.16
   0 -13   0   -0.19    0.41
   0 -13   0   -0.04    0.27
   0 -13   1   18.03    1.08
   0 -13   1   20.44    0.81
   0 -13  -1   20.49    1.01
   0 -13  -1   18.73    0.92
   0 -13  -1   18.30    0.81
   0 -13   2  156.49    6.83
   0 -13   2  163.59    7.64
   0 -13  -2  166.33    8.09
   0 -13  -2  168.46    8.03
   0 -13  -2  154.89    7.07
   0 -13   3   52.89    2.06
   0 -13  -3   54.60    2.41
   0 -13  -3   56.91    2.42
   0 -13  -3   53.11    2.05
   0 -13   4   74.17    3.20
   0 -13  -4   73.59    2.85
   0 -13  -4   73.45    3.25
   0 -13  -4   74.18    3.40
   0 -13   5   16.90    0.94
   0  13   5   16.31    0.65
   0 -13  -5   17.54    1.08
   0 -13  -5   16.00    0.98
   0 -13   6   55.82    2.50
   0 -13  -6   60.90    2.76
   0 -13  -6   57.31    2.33
   0 -14   0 1386.98  143.10
   0 -14   0 1394.25  143.42
   0 -14   1  287.16   14.96
   0 -14   1  243.66   13.35
   0 -14  -1  242.36   13.48
   0 -14  -1  288.41   15.61
   0 -14  -1  263.18   14.60
   0 -14   2    5.93    0.27
   0 -14   2    5.74    0.63
   0 -14  -2    6.00    0.55
   0 -14  -2    5.73    0.44
   0 -14  -2    5.17    0.39
   0 -14   3    2.32    0.33
   0 -14  -3    2.88    0.47
   0 -14  -3    2.29    0.31
   0 -14  -3    2.11    0.35
   0 -14   4   52.39    2.32
   0 -14  -4   52.16    2.06
   0 -14  -4   50.66    1.96
   0 -14  -4   52.79    2.46
   0 -14   5   40.43    1.79
   0 -14  -5   38.71    1.59
   0 -14  -5   41.31    1.95
   0 -14   6   59.23    2.65
   0 -14  -6   58.77    2.40
   0 -14  -6   60.76    2.70
   0 -15   0    0.17    0.39
   0 -15   0    0.19    0.24
   0 -15   1  220.32   11.84
   0 -15   1  221.52   11.11
   0 -15  -1  229.45   11.87
   0 -15  -1  223.58   11.86
   0 -15  -1  208.91   10.97
   0 -15   2  161.18    7.18
   0 -15   2  165.56    8.25
   0 -15  -2  161.53    7.89
   0 -15  -2  160.92    7.73
   0 -15  -2  163.97    7.92
   0 -15   3   41.40    1.87
   0 -15  -3   41.65    1.73
   0 -15  -3   40.21    1.80
   0 -15  -3   39.25    1.61
   0 -15   4   75.99    3.48
   0 -15  -4   80.25    3.59
   0 -15  -4   75.37    3.08
   0 -15  -4   76.31    3.47
   0 -15   5   26.38    1.11
   0 -15  -5   28.21    1.36
   0 -15  -5   28.28    1.41
   0 -16   0  139.82    6.81
   0 -16   0  141.44    6.38
   0 -16   1   11.74    0.68
   0 -16   1   13.39    0.52
   0 -16  -1   13.42    0.83
   0 -16  -1   12.31    0.73
   0 -16  -1   11.00    0.52
   0 -16   2    1.65    0.37
   0 -16   2    1.78    0.18
   0 -16  -2    2.41    0.40
   0 -16  -2    1.76    0.41
   0 -16  -2    2.16    0.40
   0 -16   3   16.23    0.95
   0 -16  -3   13.82    0.82
   0 -16  -3   14.64    0.87
   0 -16  -3   12.98    0.71
   0 -16   4   36.16    1.47
   0 -16  -4   37.16    1.46
   0 -16  -4   32.23    1.30
   0 -16  -4   36.61    1.72
   0 -16   5   86.14    4.06
   0 -16  -5   85.30    3.62
   0 -16  -5   88.31    4.14
   0 -17   0    0.16    0.19
   0 -17   0   -0.30    0.35
   0 -17   1   89.63    4.07
   0 -17   1   82.06    3.42
   0 -17  -1   86.64    3.76
   0 -17  -1   90.89    3.99
   0 -17  -1   85.63    3.63
   0 -17   2  119.35    5.66
   0 -17  -2  104.86    4.82
   0 -17  -2  118.87    5.36
   0 -17  -2  118.21    5.34
   0 -17   3   21.17    0.94
   0 -17  -3   20.03    1.07
   0 -17  -3   20.19    0.97
   0 -17  -3   22.24    1.10
   0 -17   4   28.58    1.40
   0 -17  -4   26.38    1.08
   0 -17  -4   28.48    1.36
   0 -17  -4   26.87    1.12
   0 -17   5   16.60    1.05
   0 -17  -5   16.04    1.00
   0 -17  -5   18.71    1.06
   0 -18   0    5.04    0.47
   0 -18   0    5.57    0.39
   0 -18   0    5.45    0.46
   0 -18   1   12.67    0.52
   0 -18   1   12.09    0.71
   0 -18  -1   13.29    0.85
   0 -18  -1   12.71    0.68
   0 -18  -1   10.64    0.69
   0 -18   2   35.77    1.52
   0 -18  -2   34.63    1.31
   0 -18  -2   35.59    1.38
   0 -18  -2   34.64    1.53
   0 -18   3   17.35    1.10
   0 -18  -3   18.02    1.03
   0 -18  -3   19.01    0.96
   0 -18  -3   17.57    0.90
   0 -18   4   37.13    1.78
   0 -18  -4   35.53    1.61
   0 -18  -4   34.91    1.46
   0 -18  -4   37.69    1.78
   0 -19   0   -0.12    0.39
   0 -19   0    0.11    0.20
   0 -19   0    0.16    0.26
   0 -19   1   49.11    2.32
   0 -19  -1   46.36    1.99
   0 -19  -1   43.22    1.78
   0 -19  -1   47.82    2.15
   0 -19   2   33.91    1.71
   0 -19  -2   32.26    1.50
   0 -19  -2   33.97    1.45
   0 -19  -2   31.85    1.41
   0 -19   3   74.98    3.58
   0 -19  -3   72.48    3.09
   0 -19  -3   69.58    2.92
   0 -19  -3   72.96    3.25
   0 -19   4   13.68    0.95
   0 -19  -4   13.70    0.88
   0 -19  -4   12.89    0.70
   0 -19  -4   15.11    0.85
   0 -20   0  404.24   26.25
   0 -20   0  361.18   23.21
   0 -20   0  382.25   24.24
   0 -20   1   97.02    4.33
   0 -20  -1   97.35    4.58
   0 -20  -1   92.91    4.08
   0 -20  -1   89.95    4.05
   0 -20   2   17.37    1.08
   0 -20  -2   14.34    0.87
   0 -20  -2   15.03    0.84
   0 -20  -2   14.55    0.80
   0 -20   3   19.40    1.19
   0 -20  -3   19.60    1.01
   0 -20  -3   17.13    0.92
   0 -20  -3   18.34    0.93
   0 -21   0    0.14    0.41
   0 -21   1  108.12    5.24
   0 -21  -1  101.36    4.86
   0 -21  -1   94.17    4.48
   0 -21  -1   98.69    4.52
   0 -21   2   35.63    1.81
   0 -21  -2   31.68    1.44
   0 -21  -2   30.64    1.36
   0 -21  -2   32.48    1.54
   0 -21   3   23.99    1.40
   0 -21  -3   23.86    1.18
   0 -21  -3   24.17    1.17
   0 -21  -3   24.06    1.17
   0 -22   0  135.35    6.55
   0 -22   1   66.09    3.10
   0 -22  -1   55.13    2.41
   0 -22  -1   62.56    2.95
   0 -22   2   14.55    1.01
   0 -22  -2   11.05    0.66
   0 -22  -2   11.42    0.75
   0 -22  -2   14.36    0.84
   1   0  -8   39.28    1.55
   1   0  -7   26.87    1.19
   1   0  -7   29.85    1.16
   1   0  -6   76.50    3.09
   1   0  -6   82.46    3.52
   1   0  -5   65.53    2.61
   1   0  -5   55.75    1.97
   1   0  -5   60.14    2.21
   1   0  -4  493.22   32.33
   1   0  -4  493.31   32.84
   1   0  -4  492.94   32.06
  -1   0   4  475.51   31.91
   1   0  -3  494.07   31.16
   1   0  -3  453.53   28.37
   1   0  -3  465.86   28.32
  -1   0   3  494.66   31.14
  -1   0   3  460.24   29.05
  -1   0   3  349.01   20.89
   1   0  -2  114.01    4.71
   1   0  -2  112.58    4.64
  -1   0   2  106.62    3.89
  -1   0   2  123.28    4.93
  -1   0   2  129.38    5.27
   1   0  -1  712.79   53.42
  -1   0   1  727.01   54.40
   1   0   0   12.29    0.41
   1   0   0   11.61    0.45
  -1   0   0   11.84    0.57
  -1   0   0   13.20    0.75
   1   0   1 1157.82  103.85
   1   0   1 1128.16  101.57
   1   0   1  964.08   87.73
   1   0   1 1067.42   95.62
  -1   0  -1 1085.48   98.04
  -1   0  -1 1169.36  105.81
  -1   0  -1 1093.54   97.98
   1   0   2  461.31   29.27
   1   0   2  485.77   31.09
   1   0   2  471.46   29.95
  -1   0  -2  479.48   30.83
  -1   0  -2  473.01   30.05
  -1   0  -2  487.75   31.04
  -1   0  -2  471.69   30.21
   1   0   3   33.42    1.21
   1   0   3   26.92    0.94
   1   0   3   29.65    0.99
  -1   0  -3   30.84    1.16
  -1   0  -3   31.45    1.10
  -1   0  -3   34.13    1.14
  -1   0  -3   35.03    1.13
   1   0   4   69.55    2.73
   1   0   4   66.09    2.39
  -1   0  -4   74.16    2.92
  -1   0  -4   76.77    3.11
   1   0   5  510.82   34.11
  -1   0  -5  487.44   32.45
  -1   0  -5  475.51   32.00
   1   0   6   39.15    1.46
  -1   0  -6   33.54    1.55
  -1   0  -6   41.04    1.73
  -1   0  -7    4.09    0.40
  -1   0  -7    5.98    0.41
   1   1  -8    9.03    0.63
   1  -1  -8    7.81    0.49
   1   1  -7   93.71    3.99
   1   1  -7   81.78    3.45
   1  -1  -7   90.43    4.04
   1  -1  -7   79.35    3.51
   1   1  -6  151.43    7.02
   1  -1  -6  142.12    6.50
   1   1  -6  144.22    6.45
   1  -1  -6  149.75    7.09
   1  -1  -5   17.59    0.76
   1   1  -5   17.16    0.81
   1  -1  -5   17.09    0.90
   1   1  -5   16.77    0.69
   1   1  -4   56.95    2.20
   1   1  -4   54.19    1.92
   1  -1  -4   55.12    2.10
   1  -1  -4   60.28    1.98
   1  -1  -4   64.33    2.53
  -1  -1   4   56.55    1.72
  -1  -1   4   62.65    2.19
  -1  -1   4   53.98    1.69
   1  -1  -3  236.85   11.10
   1  -1  -3  213.61   10.53
   1   1  -3  224.06   11.01
   1   1  -3  214.93   10.39
   1  -1  -3  236.11   11.68
   1   1  -3  207.40    9.69
  -1  -1   3  205.02    9.59
  -1  -1   3  222.41   11.01
  -1   1   3  220.73   11.08
  -1  -1   3  225.52   10.96
  -1   1   3  221.71   10.99
   1   1  -2 1096.80   99.88
   1  -1  -2 1091.59   99.75
   1  -1  -2 1099.47  100.98
   1   1  -2 1131.84  102.83
  -1   1   2 1111.88  101.25
  -1  -1   2 1073.83   96.75
  -1  -1   2 1105.49  100.92
   1  -1   0  484.75   30.39
   1   1   0  469.92   29.31
   1   1   0  454.95   28.57
   1  -1   0  472.40   29.58
  -1   1   0  482.22   30.17
  -1  -1   0  468.24   29.43
  -1  -1   0  448.66   28.31
  -1   1   0  462.43   29.06
   1  -1   1 1079.81   94.87
   1   1   1 1114.19   97.12
   1  -1   1 1036.74   90.56
   1   1   1 1051.66   92.33
   1  -1   1  913.53   79.62
   1   1   1 1032.14   90.23
  -1   1  -1  998.35   87.54
  -1  -1  -1 1008.73   88.20
  -1   1  -1  964.13   84.37
  -1  -1  -1 1087.33   95.20
  -1   1  -1  959.23   84.04
  -1  -1  -1 1049.18   92.39
   1   1   2   20.28    0.84
   1  -1   2   17.83    0.60
   1   1   2   17.98    0.65
   1   1   2   18.51    0.65
   1  -1   2   18.24    0.54
   1  -1   2   20.30    0.69
   1  -1   2   19.35    0.59
   1   1   2   17.23    0.50
  -1   1  -2   18.07    0.63
  -1  -1  -2   16.82    0.58
  -1   1  -2   17.43    0.59
  -1  -1  -2   20.57    0.79
  -1   1  -2   19.62    0.75
  -1   1  -2   22.49    0.73
  -1  -1  -2   21.29    0.78
   1   1   3 1073.22   99.05
   1   1   3 1125.84  103.02
   1  -1   3 1093.70  100.46
   1  -1   3 1178.43  107.76
   1  -1   3 1081.14   99.20
  -1  -1  -3 1084.13   98.62
  -1  -1  -3 1149.32  105.10
  -1  -1  -3 1075.63   98.06
  -1   1  -3 1120.78  102.35
  -1   1  -3 1056.89   96.32
   1  -1   4  617.57   45.25
   1   1   4  643.60   47.36
   1   1   4  615.60   44.40
   1  -1   4  676.61   48.81
  -1  -1  -4  646.44   46.74
  -1  -1  -4  492.93   35.46
  -1  -1  -4  625.05   44.95
  -1   1  -4  647.88   46.72
  -1   1  -4  640.89   46.49
   1   1   5    6.18    0.46
  -1   1  -5   10.06    0.69
  -1   1  -5    9.16    0.60
  -1  -1  -5    6.88    0.46
   1   1   6   48.39    1.77
  -1   1  -6   42.27    1.82
  -1  -1  -6   40.22    1.65
  -1  -1  -6   48.62    1.84
  -1   1  -6   50.83    2.12
  -1   1  -7   31.23    1.17
  -1  -1  -7   29.95    1.16
  -1   1  -7   24.89    1.17
  -1  -1  -7   25.56    1.24
   1   2  -7   85.22    3.60
   1  -2  -7   95.50    4.25
   1  -2  -7   88.67    3.85
   1   2  -7   96.05    4.08
   1  -2  -6   11.51    0.68
   1  -2  -6   10.73    0.72
   1   2  -6   12.40    0.67
   1   2  -6   13.26    0.70
   1   2  -5    0.79    0.17
   1  -2  -5    0.28    0.18
   1  -2  -5    0.20    0.35
   1   2  -5    0.57    0.25
  -1  -2   5    0.32    0.11
  -1  -2   5    0.34    0.09
   1   2  -4   46.20    1.46
   1   2  -4   43.78    1.54
   1   2  -4   44.35    1.36
   1  -2  -4   40.74    1.56
   1  -2  -4   40.41    1.68
  -1  -2   4   41.98    1.38
  -1  -2   4   37.30    1.14
  -1  -2   4   37.38    1.16
   1   2  -3  558.74   38.68
   1   2  -3  595.84   40.95
   1   2  -3  558.41   38.39
   1  -2  -3  566.15   40.39
   1  -2  -3  562.57   39.20
   1  -2  -3  659.27   46.20
  -1  -2   3  577.61   40.38
  -1  -2   3  549.08   37.63
  -1   2   3  555.90   38.99
  -1  -2   3  586.73   41.40
   1   2  -2  209.05    9.83
   1   2  -2  205.95    9.61
   1  -2  -2  206.32    9.29
   1  -2  -2  251.30   12.00
   1  -2  -2  210.15   10.60
   1  -2  -2  213.91   10.52
   1  -2  -2  210.62    9.42
   1   2  -2  207.60    9.92
  -1  -2   2  212.89   10.21
  -1  -2   2  208.69    9.85
  -1   2   2  229.53   11.22
   1   2  -1  673.51   49.33
   1  -2  -1  755.77   55.71
   1  -2  -1  615.79   44.53
   1   2  -1  651.22   47.48
  -1  -2   1  680.59   50.29
   1   2   0 1023.14   90.39
   1  -2   0 1063.27   93.58
  -1  -2   0 1011.93   89.46
  -1   2   0 1072.41   96.09
   1   2   1  650.59   46.63
   1   2   1  676.59   48.75
   1  -2   1  558.55   40.40
   1  -2   1  693.00   50.09
   1   2   1  668.65   47.76
   1  -2   1  710.51   51.12
  -1  -2  -1  628.62   44.95
  -1  -2  -1  663.77   47.97
  -1  -2  -1  642.70   46.81
  -1   2  -1  587.95   42.87
  -1   2  -1  672.52   49.03
   1   2   2  238.37   11.48
   1   2   2  204.48    9.59
   1   2   2  232.30   10.89
   1  -2   2  217.03   10.27
   1  -2   2  216.52   10.04
   1  -2   2  222.68   10.67
   1  -2   2  200.99    9.30
   1   2   2  220.16   10.34
  -1  -2  -2  189.53    8.98
  -1  -2  -2  202.42    9.48
  -1  -2  -2  220.54   10.51
  -1   2  -2  223.22   10.63
  -1   2  -2  176.59    8.41
   1   2   3    2.65    0.28
   1   2   3    2.82    0.23
   1  -2   3    3.85    0.36
  -1  -2  -3    3.46    0.33
  -1   2  -3    4.52    0.35
  -1   2  -3    5.03    0.41
   1   2   4   90.60    3.51
   1  -2   4   98.80    4.07
   1  -2   4   91.05    3.56
  -1  -2  -4   97.15    3.84
  -1   2  -4   94.85    4.01
  -1   2  -4   96.01    3.98
  -1  -2  -4  102.93    4.37
  -1  -2  -4   95.74    3.80
   1   2   5  331.92   19.76
   1  -2   5  369.02   22.03
  -1  -2  -5  365.47   21.99
  -1   2  -5  362.19   21.71
  -1   2  -5  356.69   21.29
  -1  -2  -5  355.86   21.05
   1   2   6  131.49    5.61
  -1  -2  -6  116.29    5.84
  -1   2  -6  115.20    5.42
  -1   2  -6  133.41    6.10
  -1  -2  -6  131.84    6.07
  -1  -2  -7   15.74    0.75
  -1  -2  -7   11.97    0.85
  -1   2  -7   12.51    0.78
  -1   2  -7   19.30    0.93
   1   3  -7    6.20    0.54
   1  -3  -7    7.09    0.55
   1  -3  -7    6.35    0.69
   1   3  -6  113.79    4.95
   1   3  -6  135.03    5.82
   1  -3  -6  122.44    5.49
   1   3  -5   12.76    0.58
   1   3  -5   12.16    0.46
   1  -3  -5   13.56    0.82
   1  -3  -5   12.00    0.67
  -1  -3   5   11.72    0.48
  -1  -3   5   12.41    0.43
  -1  -3   5   11.03    0.36
   1  -3  -4   35.07    1.21
   1   3  -4   34.30    1.15
   1  -3  -4   33.22    1.33
   1  -3  -4   33.23    1.52
   1   3  -4   34.20    1.04
   1   3  -4   32.75    0.97
  -1  -3   4   32.38    1.13
  -1  -3   4   32.03    1.03
  -1  -3   4   32.30    1.10
   1   3  -3   33.58    1.07
   1   3  -3   33.49    1.08
   1  -3  -3   35.66    1.47
   1  -3  -3   41.18    1.35
   1  -3  -3   37.37    1.61
  -1   3   3   31.17    1.07
  -1  -3   3   35.52    1.16
  -1  -3   3   35.19    1.15
  -1  -3   3   34.02    1.07
   1   3  -2  404.00   24.69
   1   3  -2  445.67   27.18
   1  -3  -2  452.35   28.73
   1  -3  -2  432.98   26.10
   1  -3  -2  445.95   28.18
   1   3  -2  410.14   25.03
  -1  -3   2  444.48   27.48
  -1   3   2  476.12   29.58
  -1  -3   2  425.25   26.09
   1   3  -1   78.22    2.62
   1   3  -1   76.09    2.66
   1   3  -1   76.87    2.47
   1  -3  -1   82.99    3.51
  -1  -3   1   77.07    2.98
  -1   3   1   75.75    2.49
   1   3   0  481.69   30.49
   1   3   0  499.02   31.08
   1   3   0  446.92   27.73
   1  -3   0  467.55   29.54
   1  -3   0  497.95   32.19
  -1  -3   0  475.76   29.35
  -1  -3   0  528.15   33.11
  -1  -3   0  388.97   25.02
  -1   3   0  462.69   28.80
   1   3   1  308.55   16.19
   1  -3   1  275.00   14.25
   1  -3   1  286.83   14.89
   1   3   1  280.45   14.32
   1   3   1  292.82   15.19
  -1  -3  -1  290.34   14.91
  -1  -3  -1  277.95   14.54
  -1   3  -1  223.95   11.99
  -1  -3  -1  283.85   14.83
  -1   3  -1  297.92   15.38
   1  -3   2  450.08   27.75
   1  -3   2  437.37   27.24
   1   3   2  473.05   29.59
   1   3   2  489.31   30.52
   1  -3   2  429.00   26.81
   1  -3   2  408.40   25.23
   1   3   2  407.58   25.56
  -1  -3  -2  463.32   29.13
  -1  -3  -2  483.82   30.48
  -1   3  -2  460.64   29.01
  -1  -3  -2  449.05   27.88
   1   3   3  234.05   11.17
   1  -3   3  201.75    9.75
   1  -3   3  205.59   10.18
   1  -3   3  222.85   10.67
   1   3   3  227.32   11.08
  -1  -3  -3  203.96    9.87
  -1  -3  -3  215.89   10.42
  -1   3  -3  216.37   10.51
  -1  -3  -3  216.30   10.67
   1   3   4  148.33    6.56
   1  -3   4  153.49    6.99
  -1  -3  -4  149.92    6.93
  -1  -3  -4  152.24    7.19
  -1   3  -4  143.39    6.38
  -1  -3  -4  149.22    6.67
  -1   3  -4  152.90    6.90
   1   3   5    7.74    0.47
  -1  -3  -5   10.07    0.70
  -1  -3  -5    7.54    0.41
  -1  -3  -5   11.36    0.76
  -1   3  -5   10.18    0.69
  -1   3  -5    7.52    0.55
   1   3   6   44.24    1.65
  -1  -3  -6   38.30    1.91
  -1   3  -6   41.34    1.76
  -1  -3  -6   49.43    1.86
  -1   3  -6   44.28    1.70
  -1  -3  -7   31.03    1.50
  -1   3  -7   30.40    1.38
  -1  -3  -7   39.49    1.71
   1  -4  -7   50.16    2.10
   1  -4  -7   48.11    2.19
   1   4  -7   53.10    2.18
   1   4  -6   39.00    1.47
   1   4  -6   31.31    1.13
   1  -4  -6   37.82    1.58
   1  -4  -6   39.76    1.51
   1   4  -5  118.10    4.76
   1   4  -5  122.33    5.11
   1  -4  -5  127.54    5.88
   1  -4  -5  123.96    5.51
  -1  -4   5  114.17    4.67
  -1  -4   5  118.52    4.86
  -1  -4   5  111.22    4.88
   1   4  -4   11.07    0.48
   1  -4  -4   12.65    0.50
   1  -4  -4   12.64    0.68
   1   4  -4   11.49    0.37
   1  -4  -4   11.87    0.80
   1   4  -4   11.16    0.34
  -1  -4   4   11.01    0.47
  -1  -4   4   10.59    0.42
  -1  -4   4   12.10    0.46
  -1  -4   4   11.72    0.42
   1   4  -3   25.31    0.71
   1  -4  -3   25.28    0.92
   1  -4  -3   23.78    0.62
   1  -4  -3   25.22    1.25
   1   4  -3   26.05    0.77
  -1  -4   3   24.64    0.82
  -1  -4   3   25.73    0.81
  -1   4   3   26.37    0.62
   1   4  -2   45.20    1.34
   1   4  -2   46.67    1.33
   1  -4  -2   41.34    1.66
   1  -4  -2   41.87    1.57
   1  -4  -2   43.99    1.38
  -1  -4   2   43.33    1.50
  -1  -4   2   44.55    1.41
  -1   4   2   46.56    1.59
   1   4  -1 1090.55   96.55
   1  -4  -1  915.37   82.01
  -1  -4   1 1144.32  100.18
  -1  -4   1 1046.46   92.57
   1   4   0 1062.93   93.34
   1   4   0 1045.60   90.95
   1   4   0  989.17   86.40
  -1  -4   0  994.36   87.61
  -1   4   0 1009.91   88.30
   1   4   1  654.90   47.01
   1   4   1  605.50   43.03
   1  -4   1  555.58   40.23
   1  -4   1  671.00   48.09
   1  -4   1  624.24   44.71
   1   4   1  711.00   51.08
  -1  -4  -1  623.64   44.85
  -1  -4  -1  663.43   47.13
  -1  -4  -1  619.38   44.43
  -1   4  -1  626.28   44.54
   1   4   2  203.62    9.71
   1   4   2  226.12   10.53
   1   4   2  209.66    9.82
   1  -4   2  183.98    8.36
   1  -4   2  191.01    9.00
   1  -4   2  190.58    8.68
  -1  -4  -2  205.34    9.79
  -1  -4  -2  200.68    9.64
  -1  -4  -2  195.86    9.14
  -1   4  -2  209.76   10.02
  -1   4  -2  195.69    8.96
   1   4   3  181.77    8.38
   1   4   3  185.93    8.34
   1  -4   3  178.29    8.34
   1  -4   3  168.28    7.42
   1  -4   3  177.84    8.08
  -1  -4  -3  172.72    7.88
  -1  -4  -3  171.37    7.77
  -1   4  -3  178.30    8.18
  -1  -4  -3  175.38    7.95
   1   4   4  244.87   12.98
   1   4   4  280.38   15.17
  -1   4  -4  281.60   15.07
  -1  -4  -4  284.30   15.36
  -1  -4  -4  274.11   14.37
  -1  -4  -4  264.57   14.08
   1   4   5  163.66    7.32
  -1  -4  -5  158.20    7.57
  -1  -4  -5  152.99    6.86
  -1  -4  -5  168.00    8.15
  -1   4  -5  162.71    7.68
   1   4   6   72.63    2.73
  -1  -4  -6   64.49    2.65
  -1  -4  -6   67.29    2.72
  -1   4  -6   71.17    3.09
  -1  -4  -7    1.68    0.44
  -1  -4  -7    1.73    0.41
   1   5  -7  183.87    9.54
   1  -5  -7  185.42    9.19
   1  -5  -7  192.24   10.07
   1   5  -6    6.33    0.45
   1   5  -6    5.29    0.29
   1  -5  -6    7.11    0.73
   1  -5  -6    5.88    0.56
   1   5  -5   42.85    1.47
   1  -5  -5   50.46    2.36
   1  -5  -5   48.52    2.16
   1   5  -5   52.06    1.89
  -1  -5   5   43.38    1.63
  -1  -5   5   50.03    1.82
   1   5  -4   37.46    1.11
   1  -5  -4   36.94    1.34
   1  -5  -4   42.71    1.91
   1  -5  -4   35.13    0.95
   1   5  -4   38.11    1.26
  -1  -5   4   37.66    1.20
  -1   5   4   39.21    1.06
  -1  -5   4   37.66    1.26
  -1  -5   4   37.86    1.27
   1   5  -3   42.74    1.34
   1  -5  -3   49.77    2.17
   1  -5  -3   46.64    1.41
   1  -5  -3   44.85    1.64
  -1  -5   3   46.78    1.56
  -1  -5   3   44.99    1.57
  -1   5   3   46.69    1.40
   1  -5  -2  154.97    6.53
   1  -5  -2  162.11    7.59
   1  -5  -2  156.69    7.21
  -1  -5   2  148.79    6.31
  -1   5   2  168.94    7.41
  -1  -5   2  154.44    6.84
   1   5  -1  930.87   77.31
   1  -5  -1  913.13   76.23
   1   5  -1  868.70   70.77
  -1  -5   1  906.61   75.66
  -1  -5   1  838.10   69.69
   1   5   0  332.54   17.77
   1   5   0  314.93   17.40
   1   5   0  292.08   15.92
  -1  -5   0  325.27   17.42
  -1  -5   0  310.94   17.12
  -1   5   0  327.57   17.67
  -1  -5   0  292.91   15.74
   1   5   1  110.39    4.23
   1   5   1  103.24    4.06
   1  -5   1  106.28    4.17
   1   5   1  106.57    4.22
  -1  -5  -1  102.63    4.05
  -1  -5  -1  107.72    4.21
  -1  -5  -1  104.23    4.10
  -1   5  -1   99.80    3.71
   1   5   2  304.78   16.52
   1   5   2  320.33   17.53
   1   5   2  310.93   16.80
   1  -5   2  283.40   14.99
   1  -5   2  296.69   15.66
  -1  -5  -2  299.36   16.33
  -1  -5  -2  292.71   15.79
  -1  -5  -2  317.38   17.27
  -1   5  -2  282.02   15.07
   1   5   3   60.29    2.01
   1  -5   3   52.75    1.69
  -1  -5  -3   55.54    1.97
  -1  -5  -3   56.10    2.20
  -1   5  -3   57.04    2.11
  -1  -5  -3   52.84    1.89
   1   5   4    5.68    0.44
   1   5   4    4.84    0.26
   1  -5   4    4.37    0.24
  -1  -5  -4    5.64    0.44
  -1  -5  -4    4.63    0.54
  -1  -5  -4    6.26    0.35
  -1   5  -4    3.95    0.39
  -1  -5  -5   16.67    1.02
  -1  -5  -5   19.29    0.74
  -1   5  -5   16.26    0.78
  -1  -5  -5   14.84    0.94
   1   5   6    4.55    0.32
  -1  -5  -6    3.23    0.46
  -1  -5  -6    2.96    0.53
  -1   5  -6    3.09    0.36
  -1  -5  -7   36.56    1.63
  -1  -5  -7   31.84    1.51
   1   6  -7    7.40    0.54
   1  -6  -7    5.83    0.61
   1  -6  -7    6.63    0.49
   1   6  -6  217.37   11.54
   1  -6  -6  214.32   11.13
   1  -6  -6  217.42   11.51
  -1  -6   6  196.74    9.96
   1   6  -5  325.82   18.13
   1   6  -5  284.93   15.58
   1  -6  -5  309.57   17.61
   1  -6  -5  309.19   17.83
  -1  -6   5  326.33   18.50
   1   6  -4   73.49    2.66
   1   6  -4   63.47    2.10
   1  -6  -4   65.49    2.11
   1  -6  -4   71.13    2.83
   1  -6  -4   68.07    2.83
  -1  -6   4   63.70    2.31
  -1  -6   4   66.49    2.46
  -1   6   4   68.51    2.12
   1  -6  -3   98.69    4.19
   1  -6  -3  105.25    3.93
   1  -6  -3  104.42    4.52
  -1  -6   3  100.80    4.02
  -1  -6   3  100.91    3.83
   1  -6  -2  158.58    6.97
   1  -6  -2  157.49    7.55
   1  -6  -2  166.85    7.78
  -1  -6   2  150.24    6.34
  -1  -6   2  151.66    6.93
  -1   6   2  174.25    7.89
   1   6  -1  542.90   37.33
   1   6  -1  587.29   39.63
   1  -6  -1  612.46   43.06
  -1  -6   1  546.19   36.86
  -1  -6   1  557.45   39.01
   1   6   0 1375.63  138.23
   1   6   0 1426.93  144.25
  -1  -6   0 1393.05  140.03
  -1  -6   0 1384.52  140.27
  -1   6   0 1299.49  130.86
  -1  -6   0 1533.97  153.63
   1   6   1  337.00   18.61
   1   6   1  299.33   16.75
   1   6   1  346.50   19.26
  -1  -6  -1  316.58   17.31
  -1  -6  -1  336.66   19.07
  -1  -6  -1  313.08   17.47
  -1   6  -1  312.03   17.23
   1   6   2   57.60    1.91
   1   6   2   48.10    1.61
   1  -6   2   51.46    1.68
   1  -6   2   45.84    1.42
  -1  -6  -2   51.07    1.89
  -1  -6  -2   48.73    1.73
  -1  -6  -2   53.54    1.82
   1   6   3  140.64    5.83
   1  -6   3  122.88    4.91
  -1  -6  -3  129.91    5.54
  -1  -6  -3  128.89    5.46
  -1   6  -3  140.27    5.97
  -1  -6  -3  131.17    5.76
   1   6   4  116.37    4.83
   1  -6   4  102.85    4.15
  -1  -6  -4  113.47    4.58
  -1  -6  -4  107.39    4.49
  -1  -6  -4  108.09    4.55
  -1   6  -4  111.46    4.64
  -1  -6  -5   93.06    4.02
  -1  -6  -5   90.12    3.48
  -1  -6  -5   90.83    3.78
  -1   6  -5   99.04    4.02
   1   6   6   21.38    0.79
  -1  -6  -6   17.53    0.79
  -1  -6  -6   19.19    0.89
  -1   6  -6   17.44    0.99
  -1  -6  -7    7.40    0.48
  -1  -6  -7    8.44    0.52
   1  -7  -7  193.19   10.13
   1  -7  -6  164.21    7.87
   1  -7  -6  162.15    8.42
  -1  -7   6  155.70    7.39
   1  -7  -5   91.65    4.06
   1  -7  -5   99.72    4.57
   1  -7  -5   74.72    2.53
  -1  -7   5   94.04    3.69
  -1   7   5   78.43    2.78
   1  -7  -4   59.57    2.50
   1  -7  -4   61.24    2.72
   1  -7  -4   56.42    1.82
  -1  -7   4   57.88    2.15
  -1   7   4   62.46    1.99
  -1  -7   4   56.32    2.09
   1  -7  -3  297.99   15.76
   1  -7  -3  302.34   16.91
   1  -7  -3  294.38   16.31
  -1  -7   3  277.09   15.13
  -1  -7   3  269.08   14.24
   1  -7  -2  671.57   49.75
   1  -7  -2  733.62   55.66
  -1  -7   2  632.97   62.73
  -1  -7   2  657.98   49.49
   1   7  -1   27.01    0.79
   1   7  -1   24.93    0.78
   1  -7  -1   23.06    0.77
   1  -7  -1   25.51    1.21
  -1  -7   1   24.04    0.68
  -1  -7   1   23.14    1.14
   1   7   0  482.19   31.03
   1   7   0  486.04   31.51
   1  -7   0  504.04   33.36
  -1  -7   0  452.46   29.07
  -1  -7   0  474.43   31.44
  -1  -7   0  515.39   33.24
   1   7   1   26.52    0.92
   1   7   1   23.95    0.75
   1   7   1   22.23    0.68
  -1  -7  -1   23.02    0.86
  -1  -7  -1   23.81    0.86
  -1   7  -1   22.77    0.75
  -1  -7  -1   24.38    0.78
   1   7   2  282.55   15.76
   1   7   2  328.65   18.17
   1  -7   2  306.43   16.54
  -1  -7  -2  307.88   17.25
  -1  -7  -2  318.29   17.79
  -1  -7  -2  330.73   18.38
   1   7   3  188.45    8.65
   1  -7   3  171.80    7.63
  -1  -7  -3  164.12    7.64
  -1  -7  -3  185.92    8.83
  -1  -7  -3  173.25    8.02
   1   7   4  243.71   12.41
   1  -7   4  198.20   10.30
  -1  -7  -4  237.72   11.97
  -1  -7  -4  229.37   11.63
  -1  -7  -4  239.33   12.61
  -1   7  -4  250.06   12.99
   1   7   5   50.45    1.73
  -1  -7  -5   56.66    2.37
  -1  -7  -5   48.82    2.11
  -1  -7  -5   51.27    1.88
  -1   7  -5   43.10    1.97
   1   7   6   66.85    2.44
  -1  -7  -6   74.37    3.25
  -1  -7  -6   65.81    2.65
  -1  -7  -7    2.03    0.40
  -1  -7  -7    1.23    0.27
   1  -8  -7    0.40    0.34
   1  -8  -7   -0.11    0.29
   1  -8  -6  125.91    6.03
   1  -8  -6  123.41    6.09
  -1  -8   6  127.45    5.89
   1  -8  -5  257.28   14.15
   1  -8  -5  206.45   10.03
   1  -8  -5  249.27   13.44
  -1  -8   5  252.82   13.33
   1  -8  -4   39.20    1.24
   1  -8  -4   39.66    1.71
   1  -8  -4   34.73    1.77
  -1  -8   4   35.08    1.18
  -1  -8   4   39.73    1.63
  -1   8   4   39.48    1.23
   1  -8  -3  353.04   20.04
   1  -8  -3  365.56   21.77
   1  -8  -3  329.33   19.63
  -1  -8   3  325.44   18.61
  -1  -8   3  345.79   20.19
   1  -8  -2   96.90    3.93
   1  -8  -2   94.71    3.64
  -1  -8   2   90.44    3.79
  -1  -8   2   86.97    3.00
   1   8  -1  817.98   65.22
   1   8  -1  831.21   67.71
   1  -8  -1  810.11   65.61
   1  -8  -1  780.98   63.74
  -1  -8   1  893.00   70.72
  -1  -8   1  812.01   66.49
   1  -8   0  404.38   24.83
   1   8   0  393.15   23.61
   1   8   0  408.25   24.30
  -1  -8   0  385.05   23.03
  -1  -8   0  397.96   23.53
  -1  -8   0  379.81   23.07
   1   8   1   73.61    2.68
   1   8   1   66.76    2.33
  -1  -8  -1   75.72    2.99
  -1  -8  -1   74.10    2.73
  -1  -8  -1   71.10    2.70
  -1   8  -1   67.49    2.42
   1  -8   2  253.30   12.92
  -1  -8  -2  262.17   13.85
  -1  -8  -2  255.58   13.49
  -1  -8  -2  262.11   13.89
   1  -8   3   90.87    3.35
  -1  -8  -3  100.86    4.23
  -1  -8  -3   99.13    4.27
  -1  -8  -3   90.89    3.66
   1  -8   4   41.19    1.41
   1   8   4   44.85    1.73
  -1  -8  -4   45.89    1.69
  -1  -8  -4   43.56    1.69
  -1  -8  -4   48.68    2.15
   1   8   5   29.83    1.14
  -1  -8  -5   27.47    1.30
  -1  -8  -5   27.59    0.96
  -1  -8  -5   26.83    1.12
  -1  -8  -6   19.85    1.10
  -1  -8  -6   18.66    0.83
  -1  -8  -7    8.80    0.49
  -1  -8  -7    9.76    0.67
   1  -9  -7   91.29    4.22
   1  -9  -7   91.60    4.01
   1  -9  -6    0.74    0.37
   1  -9  -6    0.50    0.45
  -1  -9   6    0.40    0.25
   1  -9  -5   28.26    1.40
   1  -9  -5   27.44    1.29
  -1  -9   5   27.52    1.13
   1  -9  -4   16.83    0.83
   1  -9  -4   14.63    0.71
   1  -9  -4   14.83    0.50
  -1   9   4   14.43    0.51
  -1  -9   4   13.88    0.53
  -1  -9   4   15.09    0.71
   1  -9  -3   69.14    2.49
   1  -9  -3   72.47    2.83
   1  -9  -3   69.79    3.21
  -1  -9   3   67.77    2.30
  -1  -9   3   66.62    2.50
   1  -9  -2  337.17   18.95
   1  -9  -2  311.64   17.87
  -1  -9   2  340.30   19.57
  -1  -9   2  317.09   17.20
   1  -9  -1  429.76   26.73
   1  -9  -1  404.83   24.77
   1   9  -1  376.19   22.46
  -1  -9   1  379.91   54.57
  -1  -9   1  396.13   24.75
   1   9   0   37.83    1.22
   1  -9   0   36.18    1.46
  -1  -9   0   34.11    1.29
  -1  -9   0   35.74    1.27
  -1  -9   0   37.79    1.24
   1   9   1  313.33   17.32
  -1  -9  -1  307.22   17.31
  -1  -9  -1  319.89   17.56
  -1  -9  -1  283.82   15.78
   1  -9   2  110.57    4.27
  -1  -9  -2  108.02    4.56
  -1  -9  -2  106.11    4.46
  -1  -9  -2  101.38    4.35
   1  -9   3   14.46    0.45
  -1  -9  -3   16.11    0.84
  -1  -9  -3   15.61    0.71
  -1  -9  -3   14.24    0.68
   1  -9   4   76.26    2.94
  -1  -9  -4   84.58    3.30
  -1  -9  -4   83.69    3.63
  -1  -9  -4   86.11    3.78
   1   9   5   34.43    1.28
  -1  -9  -5   31.60    1.29
  -1  -9  -5   32.91    1.50
  -1  -9  -5   32.39    1.15
  -1  -9  -6    6.42    0.59
  -1  -9  -6    8.67    0.62
   1 -10  -7   34.80    1.46
   1 -10  -7   37.30    1.82
   1 -10  -6   37.43    1.57
   1 -10  -6   37.04    1.68
  -1 -10   6   35.69    1.42
   1 -10  -5   55.41    2.28
   1 -10  -5   54.53    2.42
  -1 -10   5   55.79    2.24
   1 -10  -4   35.25    1.73
   1 -10  -4   35.55    1.20
   1 -10  -4   32.57    1.54
  -1 -10   4   32.22    1.10
  -1 -10   4   33.48    1.36
   1 -10  -3    4.85    0.60
   1 -10  -3    4.79    0.32
   1 -10  -3    4.63    0.65
  -1 -10   3    4.25    0.19
  -1 -10   3    3.95    0.47
   1 -10  -2   23.83    0.92
   1 -10  -2   25.66    1.22
  -1 -10   2   23.10    1.10
  -1 -10   2   22.05    0.58
   1 -10  -1  194.44    9.55
   1 -10  -1  203.08   10.30
   1  10  -1  189.73    8.89
  -1 -10   1  216.73    9.89
  -1 -10   1  200.14   10.13
   1  10   0  154.39    6.74
   1 -10   0  151.36    6.87
   1 -10   0  151.12    6.82
  -1 -10   0  151.70    7.02
  -1 -10   0  150.42    6.37
  -1 -10   0  134.10    5.80
   1 -10   1   70.16    2.67
  -1 -10  -1   70.65    2.52
  -1 -10  -1   64.52    2.48
  -1 -10  -1   72.72    2.74
   1 -10   2   83.05    3.11
  -1 -10  -2   87.78    3.59
  -1 -10  -2   91.84    3.78
  -1 -10  -2   89.82    3.48
   1 -10   3   63.03    2.16
  -1 -10  -3   68.27    2.57
  -1 -10  -3   70.07    2.73
  -1 -10  -3   66.23    2.76
  -1 -10  -4  254.85   13.75
  -1 -10  -4  262.37   14.56
  -1 -10  -4  263.44   14.16
   1  10   5   86.19    3.41
  -1 -10  -5   82.69    3.35
  -1 -10  -5   84.69    3.33
  -1 -10  -5   82.82    3.35
  -1 -10  -6   18.70    0.94
  -1 -10  -6   17.87    0.97
   1 -11  -7   33.46    1.66
   1 -11  -7   30.22    1.27
   1 -11  -6   22.09    1.19
   1 -11  -6   24.62    1.35
  -1 -11   6   22.39    0.99
   1 -11  -5   15.07    0.94
   1 -11  -5   16.27    1.05
  -1 -11   5   16.23    0.81
   1 -11  -4   22.38    0.76
   1 -11  -4   23.27    1.02
   1 -11  -4   19.69    1.11
  -1 -11   4   22.44    1.00
   1 -11  -3  164.56    7.44
   1 -11  -3  154.97    7.62
   1 -11  -3  151.03    7.19
  -1 -11   3  154.00    6.69
  -1 -11   3  162.44    7.74
   1 -11  -2   53.10    1.98
   1 -11  -2   52.15    2.01
  -1 -11   2   48.60    1.48
  -1 -11   2   52.70    2.20
   1 -11  -1  112.96    5.10
   1 -11  -1  115.59    5.01
   1  11  -1  117.83    4.70
  -1 -11   1  116.63    5.00
  -1 -11   1  124.05    4.76
   1 -11   0  143.60    6.41
   1  11   0  136.34    5.90
   1 -11   0  124.05    5.63
  -1 -11   0  145.47    6.23
  -1 -11   0  134.42    5.64
  -1 -11   0  125.20    5.55
   1 -11   1   61.53    2.45
  -1 -11  -1   52.55    2.04
  -1 -11  -1   58.79    2.38
  -1 -11  -1   58.51    2.20
   1 -11   2   16.16    0.56
  -1 -11  -2   16.45    0.79
  -1 -11  -2   17.86    0.86
  -1 -11  -2   18.10    0.87
   1 -11   3   92.06    3.59
  -1 -11  -3  101.96    4.36
  -1 -11  -3   94.89    4.14
  -1 -11  -3  103.15    4.26
  -1 -11  -4  240.71   12.69
  -1 -11  -4  228.94   12.65
  -1 -11  -4  252.02   13.67
   1  11   5    0.26    0.24
  -1 -11  -5    0.31    0.35
  -1 -11  -5    0.40    0.25
  -1 -11  -5    0.56    0.34
   1 -11   6   34.77    1.49
  -1 -11  -6   32.29    1.55
  -1 -11  -6   36.92    1.71
   1 -12  -6   21.80    1.01
   1 -12  -6   19.26    1.12
  -1 -12   6   20.46    0.97
   1 -12  -5   24.18    1.36
   1 -12  -5   24.02    1.01
  -1 -12   5   23.69    1.09
   1 -12  -4   10.24    0.44
   1 -12  -4    9.93    0.84
   1 -12  -4    9.96    0.77
  -1 -12   4   10.05    0.64
   1 -12  -3  214.31   10.70
   1 -12  -3  222.44   11.85
   1 -12  -3  225.98   11.95
  -1 -12   3  220.40   11.51
  -1 -12   3  195.17    9.43
   1 -12  -2   97.89    4.31
   1 -12  -2   99.68    4.53
   1 -12  -2   96.11    3.96
  -1 -12   2   89.00    3.22
  -1 -12   2   92.16    3.83
   1 -12  -1  445.03   29.10
   1 -12  -1  449.64   29.60
   1  12  -1  451.02   29.09
  -1 -12   1  485.76   32.28
  -1 -12   1  436.04   27.91
  -1 -12   1  500.12   31.52
   1 -12   0  289.82   16.30
   1 -12   0  305.15   17.07
   1  12   0  284.67   15.77
  -1 -12   0  307.39   16.52
  -1 -12   0  287.10   15.59
  -1 -12   0  269.50   15.03
   1 -12   1   63.69    2.47
   1 -12   1   62.74    2.42
  -1 -12  -1   65.39    2.53
  -1 -12  -1   69.21    2.80
  -1 -12  -1   62.77    2.67
   1 -12   2   16.45    0.59
   1 -12   2   18.72    0.73
  -1 -12  -2   20.08    0.98
  -1 -12  -2   20.63    0.94
  -1 -12  -2   20.61    0.95
   1 -12   3   15.58    0.54
  -1 -12  -3   17.45    0.86
  -1 -12  -3   17.86    0.94
  -1 -12  -3   16.96    0.71
  -1 -12  -4   30.43    1.31
  -1 -12  -4   31.25    1.60
  -1 -12  -4   31.14    1.43
   1  12   5  160.37    7.51
  -1 -12  -5  153.35    7.62
  -1 -12  -5  170.84    8.47
  -1 -12  -5  159.56    7.44
   1 -12   6   68.92    3.09
  -1 -12  -6   74.76    3.04
  -1 -12  -6   67.11    2.79
   1 -13  -6   77.88    3.52
   1 -13  -6   77.75    3.70
  -1 -13   6   76.33    3.46
   1 -13  -5    2.27    0.48
   1 -13  -5    1.74    0.39
  -1 -13   5    1.63    0.39
   1 -13  -4   34.00    1.24
   1 -13  -4   34.31    1.75
   1 -13  -4   33.03    1.36
  -1 -13   4   34.06    1.51
   1 -13  -3   79.38    3.55
   1 -13  -3   76.54    3.25
   1 -13  -3   77.61    3.56
  -1 -13   3   77.53    3.41
   1 -13  -2  257.77   13.88
   1 -13  -2  265.93   14.31
   1 -13  -2  244.62   13.45
  -1 -13   2  270.53   13.96
  -1 -13   2  181.50   84.29
  -1 -13   2  264.70   14.30
   1  13  -1  265.16   14.67
   1 -13  -1  287.71   16.26
   1 -13  -1  302.96   17.14
  -1 -13   1  285.86   15.47
  -1 -13   1  299.97   15.80
  -1 -13   1  274.39   15.41
   1 -13   0   64.28    2.51
   1 -13   0   70.06    2.87
  -1 -13   0   72.93    3.08
  -1 -13   0   68.98    2.56
  -1 -13   0   63.69    2.39
   1 -13   1  197.15    9.89
   1 -13   1  179.31    8.71
  -1 -13  -1  196.68    9.85
  -1 -13  -1  191.48    9.26
  -1 -13  -1  185.94    9.03
   1 -13   2   66.22    2.89
   1 -13   2   54.05    2.12
   1 -13   2   63.47    2.39
  -1 -13  -2   67.39    2.82
  -1 -13  -2   69.45    2.79
  -1 -13  -2   72.78    2.91
   1 -13   3  212.12   11.21
   1 -13   3  208.78   10.41
  -1 -13  -3  212.95   10.93
  -1 -13  -3  209.20   10.84
  -1 -13  -3  218.02   11.30
   1 -13   4  266.02   15.21
  -1 -13  -4  264.31   14.73
  -1 -13  -4  283.63   16.11
  -1 -13  -4  276.86   15.73
   1  13   5   18.15    0.82
   1 -13   5   20.33    1.03
  -1 -13  -5   17.97    0.87
  -1 -13  -5   17.26    0.89
  -1 -13  -5   16.30    1.04
   1 -13   6   35.88    1.62
  -1 -13  -6   39.52    1.80
  -1 -13  -6   34.14    1.64
   1 -14  -6   30.96    1.57
   1 -14  -6   27.88    1.24
  -1 -14   6   29.23    1.41
   1 -14  -5  125.56    5.75
   1 -14  -5  123.75    5.79
  -1 -14   5  134.02    6.33
   1 -14  -4   93.10    3.95
   1 -14  -4   89.84    3.64
   1 -14  -4   92.09    4.36
  -1 -14   4   93.16    4.15
   1 -14  -3   23.71    0.98
   1 -14  -3   23.31    1.05
   1 -14  -3   23.76    1.29
  -1 -14   3   24.56    1.21
   1 -14  -2   27.34    1.20
   1 -14  -2   25.49    1.16
   1 -14  -2   28.74    1.37
  -1 -14   2   27.63    1.41
   1 -14  -1  248.77   13.54
   1 -14  -1  250.21   13.71
  -1 -14   1  261.15   13.23
  -1 -14   1  243.84   13.58
  -1 -14   1  234.89   12.26
   1 -14   0   42.81    1.79
   1 -14   0   43.00    1.69
  -1 -14   0   42.96    1.55
  -1 -14   0   45.53    1.61
  -1 -14   0   45.95    2.06
   1 -14   1  104.22    4.40
   1 -14   1  107.83    4.94
  -1 -14  -1  105.43    4.45
  -1 -14  -1   95.81    4.17
  -1 -14  -1  114.52    4.83
   1 -14   2  166.78    7.84
   1 -14   2  147.65    7.27
   1 -14   2  166.55    7.54
  -1 -14  -2  168.47    7.95
  -1 -14  -2  161.09    7.56
  -1 -14  -2  158.22    7.20
   1 -14   3   28.06    1.06
   1 -14   3   29.68    1.25
  -1 -14  -3   31.72    1.41
  -1 -14  -3   29.52    1.17
  -1 -14  -3   31.34    1.38
   1 -14   4   39.74    1.64
  -1 -14  -4   44.56    1.96
  -1 -14  -4   41.04    1.66
  -1 -14  -4   44.24    1.76
   1 -14   5  103.97    4.88
  -1 -14  -5   99.57    4.44
  -1 -14  -5  104.78    4.83
  -1 -14  -5  100.72    4.68
   1 -15  -6   38.99    1.88
   1 -15  -6   39.36    1.92
  -1 -15   6   38.93    1.87
   1 -15  -5    1.09    0.45
   1 -15  -5    1.31    0.34
  -1 -15   5    1.34    0.39
   1 -15  -4    3.85    0.42
   1 -15  -4    5.20    0.48
   1 -15  -4    4.55    0.60
  -1 -15   4    4.55    0.54
   1 -15  -3    6.43    0.48
   1 -15  -3    6.58    0.70
   1 -15  -3    6.39    0.52
  -1 -15   3    7.88    0.65
   1 -15  -2   61.22    2.52
   1 -15  -2   62.67    2.87
   1 -15  -2   60.87    2.39
  -1 -15   2   65.86    2.87
  -1 -15   2   59.76    1.94
   1 -15  -1  169.45    8.19
   1 -15  -1  184.65    9.20
  -1 -15   1  177.43    8.70
  -1 -15   1  183.21    8.62
  -1 -15   1  196.42    8.86
   1 -15   0   18.06    0.91
   1 -15   0   17.95    0.85
  -1 -15   0   18.89    0.78
  -1 -15   0   18.72    0.89
  -1 -15   0   18.51    0.80
   1 -15   1  159.78    7.54
   1 -15   1  163.13    7.78
  -1 -15  -1  172.93    8.12
  -1 -15  -1  153.87    7.37
  -1 -15  -1  182.87    8.77
   1 -15   2   13.76    0.88
   1 -15   2   10.88    0.52
  -1 -15  -2   12.53    0.76
  -1 -15  -2   12.25    0.68
  -1 -15  -2   12.75    0.69
   1 -15   3  189.13    9.52
  -1 -15  -3  183.10    9.06
  -1 -15  -3  199.94   10.12
  -1 -15  -3  202.45   10.18
   1 -15   4   30.05    1.42
  -1 -15  -4   27.65    1.29
  -1 -15  -4   27.21    1.35
  -1 -15  -4   27.87    1.18
   1 -15   5    0.90    0.39
  -1 -15  -5    1.40    0.38
  -1 -15  -5    1.39    0.40
   1 -16  -5   32.43    1.55
   1 -16  -5   31.56    1.37
  -1 -16   5   34.47    1.54
   1 -16  -4    5.99    0.56
   1 -16  -4    5.00    0.38
   1 -16  -4    6.32    0.67
  -1 -16   4    4.71    0.58
   1 -16  -3   19.29    1.02
   1 -16  -3   18.14    0.88
   1 -16  -3   18.36    0.83
  -1 -16   3   19.21    1.09
   1 -16  -2   43.77    2.03
   1 -16  -2   42.53    1.92
   1 -16  -2   39.61    1.52
  -1 -16   2   43.29    2.04
   1 -16  -1   50.82    2.18
   1 -16  -1   50.66    2.14
  -1 -16   1   48.79    1.81
  -1 -16   1   51.12    1.85
  -1 -16   1   51.56    2.06
   1 -16   0  279.43   15.77
   1 -16   0  294.68   16.70
  -1 -16   0  283.51   16.72
  -1 -16   0  286.31   15.90
  -1 -16   0  292.97   17.01
   1 -16   1   86.19    3.62
   1 -16   1   90.48    3.84
  -1 -16  -1   83.66    3.44
  -1 -16  -1   85.32    3.50
  -1 -16  -1   87.15    3.92
   1 -16   2   29.09    1.05
   1 -16   2   29.13    1.49
  -1 -16  -2   30.43    1.25
  -1 -16  -2   30.81    1.36
  -1 -16  -2   29.72    1.29
   1 -16   3    8.83    0.74
  -1 -16  -3    7.85    0.60
  -1 -16  -3    8.50    0.63
  -1 -16  -3    7.30    0.62
   1 -16   4    1.42    0.42
  -1 -16  -4    1.47    0.31
  -1 -16  -4    1.03    0.25
  -1 -16  -4    0.65    0.38
   1 -16   5   47.92    2.19
  -1 -16  -5   48.68    2.15
  -1 -16  -5   45.63    2.02
   1 -17  -5    0.86    0.43
   1 -17  -5    0.95    0.28
  -1 -17   5    0.89    0.39
   1 -17  -4    4.49    0.36
   1 -17  -4    4.59    0.61
   1 -17  -4    4.26    0.53
  -1 -17   4    4.89    0.41
   1 -17  -3   40.30    1.96
   1 -17  -3   45.28    2.02
   1 -17  -3   40.62    1.71
  -1 -17   3   46.76    2.15
   1 -17  -2   86.13    3.83
   1 -17  -2   83.88    3.59
   1 -17  -2   75.42    3.29
  -1 -17   2   83.48    3.85
   1 -17  -1    6.00    0.59
   1 -17  -1    5.54    0.53
  -1 -17   1    5.42    0.66
  -1 -17   1    5.23    0.32
  -1 -17   1    5.36    0.36
   1 -17   0   69.38    2.92
   1 -17   0   73.02    3.01
  -1 -17   0   70.81    2.85
  -1 -17   0   68.88    2.90
  -1 -17   0   71.82    3.04
   1 -17   1   51.53    2.10
   1 -17   1   49.66    1.98
  -1 -17  -1   51.49    2.01
  -1 -17  -1   49.62    2.28
  -1 -17  -1   50.80    2.19
   1 -17   2    3.46    0.60
  -1 -17  -2    4.41    0.49
  -1 -17  -2    4.45    0.41
  -1 -17  -2    4.31    0.43
   1 -17   3   38.45    1.88
  -1 -17  -3   40.56    1.71
  -1 -17  -3   40.29    1.74
  -1 -17  -3   39.11    1.71
   1 -17   4   21.25    1.13
  -1 -17  -4   21.65    0.96
  -1 -17  -4   20.85    1.01
  -1 -17  -4   20.21    1.03
   1 -18  -4   20.82    1.08
   1 -18  -4   18.47    0.97
   1 -18  -4   19.39    1.14
  -1 -18   4   20.66    1.14
   1 -18  -3   40.37    1.90
   1 -18  -3   37.36    1.58
   1 -18  -3   39.24    1.79
  -1 -18   3   37.97    1.61
   1 -18  -2   25.79    1.39
   1 -18  -2   23.19    0.98
   1 -18  -2   25.96    1.21
  -1 -18   2   28.05    1.44
   1 -18  -1   57.37    2.53
   1 -18  -1   58.88    2.46
  -1 -18   1   53.33    2.60
   1 -18   0  108.61    4.81
   1 -18   0  113.59    5.34
  -1 -18   0  109.61    4.60
  -1 -18   0  110.91    4.96
  -1 -18   0  109.49    5.26
   1 -18   1   53.69    2.23
   1 -18   1   52.04    1.99
  -1 -18  -1   52.86    2.11
  -1 -18  -1   55.45    2.14
  -1 -18  -1   51.91    2.10
   1 -18   2   15.19    0.97
  -1 -18  -2   13.68    0.83
  -1 -18  -2   14.34    0.72
  -1 -18  -2   14.33    0.72
   1 -18   3   29.45    1.48
  -1 -18  -3   26.13    1.04
  -1 -18  -3   27.75    1.28
  -1 -18  -3   28.38    1.25
   1 -18   4   16.23    1.01
  -1 -18  -4   14.40    0.68
  -1 -18  -4   14.13    0.79
  -1 -18  -4   16.09    0.89
   1 -19  -4   21.76    0.95
   1 -19  -4   21.23    0.97
  -1 -19   4   22.98    1.28
   1 -19  -3    1.06    0.43
   1 -19  -3    1.16    0.35
   1 -19  -3    0.45    0.31
  -1 -19   3    0.70    0.30
   1 -19  -2  122.53    5.76
   1 -19  -2  118.93    5.70
   1 -19  -2  125.56    6.14
  -1 -19   2  127.29    6.25
   1 -19  -1  112.50    5.21
   1 -19  -1  105.29    4.79
  -1 -19   1  100.88    4.91
   1 -19   0   26.71    1.38
   1 -19   0   23.33    1.02
  -1 -19   0   24.41    1.30
  -1 -19   0   21.47    0.88
   1 -19   1   20.97    1.00
   1 -19   1   20.03    0.81
  -1 -19  -1   19.05    0.87
  -1 -19  -1   19.74    0.83
  -1 -19  -1   21.71    1.14
   1 -19   2   68.44    3.19
  -1 -19  -2   66.16    2.82
  -1 -19  -2   64.32    2.86
  -1 -19  -2   61.24    2.52
   1 -19   3   78.85    3.72
  -1 -19  -3   68.66    3.24
  -1 -19  -3   74.07    3.14
  -1 -19  -3   70.71    2.91
   1 -19   4   48.65    2.43
  -1 -19  -4   47.30    2.14
  -1 -19  -4   47.61    2.05
  -1 -19  -4   47.49    2.12
   1 -20  -3   27.81    1.23
   1 -20  -3   26.49    1.30
   1 -20  -3   23.04    1.33
  -1 -20   3   30.32    1.54
   1 -20  -2    0.57    0.39
   1 -20  -2    0.41    0.34
   1 -20  -2    0.47    0.24
  -1 -20   2    0.33    0.31
   1 -20  -1   18.17    0.99
   1 -20  -1   15.16    0.85
   1 -20  -1   18.30    1.02
  -1 -20   1   17.91    1.15
   1 -20   0  111.45    5.34
   1 -20   0  101.12    4.54
  -1 -20   0  110.06    5.26
   1 -20   1   68.70    3.17
  -1 -20  -1   62.16    2.71
  -1 -20  -1   64.24    2.67
   1 -20   2    4.80    0.62
  -1 -20  -2    3.59    0.38
  -1 -20  -2    3.09    0.37
  -1 -20  -2    3.55    0.40
   1 -20   3   13.02    0.98
  -1 -20  -3   11.59    0.72
  -1 -20  -3   10.47    0.64
  -1 -20  -3   12.44    0.80
   1 -21  -3   58.37    2.70
   1 -21  -3   56.04    2.68
   1 -21  -3   54.36    2.45
  -1 -21   3   59.50    2.88
   1 -21  -2  109.57    5.14
   1 -21  -2   98.83    5.06
   1 -21  -2  105.31    4.96
  -1 -21   2  106.80    4.87
   1 -21  -1   66.66    2.84
   1 -21  -1   71.07    3.22
   1 -21  -1   68.29    3.23
  -1 -21   1   67.28    3.30
   1 -21   0    8.86    0.52
   1 -21   0    8.68    0.59
  -1 -21   0    9.85    0.80
   1 -21   1    5.04    0.67
  -1 -21  -1    4.55    0.38
  -1 -21  -1    5.11    0.44
   1 -21   2   41.42    1.97
  -1 -21  -2   37.59    1.75
  -1 -21  -2   30.81    1.40
   1 -22  -2   11.97    0.74
   1 -22  -2   10.74    0.81
   1 -22  -2   11.18    0.81
  -1 -22   2   11.38    0.75
   1 -22  -1   41.27    1.83
   1 -22  -1   45.02    1.86
   1 -22  -1   40.31    1.96
  -1 -22   1   46.95    2.31
   1 -22   0   15.97    0.99
  -1 -22   0   13.60    0.77
   1 -22   1   26.83    1.43
  -1 -22  -1   23.62    1.30
   2   0  -7    3.94    0.43
   2   0  -7    4.03    0.45
   2   0  -6  139.95    6.49
   2   0  -6  146.90    6.83
   2   0  -5   95.60    3.71
   2   0  -5  105.20    4.45
   2   0  -5   96.69    3.91
   2   0  -4    5.13    0.44
   2   0  -4    4.04    0.14
   2   0  -4    3.80    0.35
   2   0  -3 1084.00   97.49
   2   0  -3 1009.34   88.83
   2   0  -3  978.34   88.18
  -2   0   3 1054.95   92.98
  -2   0   3 1098.39   99.45
   2   0  -2   84.37    2.99
  -2   0   2   84.25    2.98
   2   0  -1   48.12    1.61
  -2   0   1   47.87    1.66
   2   0   0    5.52    0.35
   2   0   0    5.31    0.34
  -2   0   0    4.15    0.32
  -2   0   0    4.79    0.43
   2   0   1   89.38    3.14
   2   0   1   70.87    2.71
   2   0   1   87.20    3.16
   2   0   1   80.78    2.92
  -2   0  -1   82.49    3.37
  -2   0  -1   73.97    2.87
   2   0   2  259.86   13.48
   2   0   2  259.46   13.52
   2   0   2  260.67   13.73
  -2   0  -2  269.84   14.44
  -2   0  -2  292.87   15.72
  -2   0  -3   92.46    3.56
  -2   0  -3   78.18    3.05
  -2   0  -3   91.82    3.65
   2   0   4   76.03    3.08
  -2   0  -4   77.64    3.28
  -2   0  -4   74.05    3.16
   2   0   5   79.34    3.17
  -2   0  -5   79.53    3.38
  -2   0  -5   73.30    3.13
   2   0   6  110.92    4.67
  -2   0  -6  118.69    5.42
  -2   0  -6  116.72    5.05
   2   0   7   83.28    3.48
  -2   0  -7   72.08    3.54
   2  -1  -7   44.11    1.73
   2  -1  -7   45.26    1.89
   2   1  -7   44.00    1.62
   2   1  -7   43.72    1.77
   2   1  -6   20.81    0.86
   2   1  -6   23.53    1.07
   2  -1  -6   25.07    1.20
   2  -1  -6   21.82    1.01
   2  -1  -5   63.74    2.51
   2  -1  -5   58.49    1.99
   2   1  -5   66.57    2.58
   2  -1  -5   62.22    2.56
   2   1  -5   63.01    2.32
   2   1  -4  108.78    3.99
   2  -1  -4  108.74    3.94
   2   1  -4  112.05    4.58
   2   1  -4  110.47    4.40
   2  -1  -4  111.96    4.77
   2  -1  -4  108.03    4.45
  -2  -1   4   76.22    5.35
  -2  -1   4  105.03    4.19
   2   1  -3  258.39   13.50
   2  -1  -3  282.26   14.93
   2   1  -3  270.84   14.15
   2   1  -3  249.64   12.41
   2  -1  -3  244.08   11.94
   2  -1  -3  265.83   14.19
  -2  -1   3  252.52   12.62
  -2   1   3  242.99   12.82
   2   1  -2  323.62   17.80
   2  -1  -2  324.26   17.62
  -2  -1   2  336.65   18.53
  -2   1   2  318.36   17.33
   2   1  -1  133.76    5.58
   2   1  -1  123.77    5.00
   2  -1  -1  129.76    5.19
  -2  -1   1  121.73    5.05
  -2   1   1  118.96    4.88
   2  -1   0    3.75    0.33
   2   1   0    4.36    0.25
   2   1   0    4.56    0.24
   2  -1   0    3.85    0.38
   2  -1   0    3.54    0.32
  -2  -1   0    3.64    0.35
  -2  -1   0    3.28    0.30
  -2   1   0    5.93    0.44
   2   1   1 1256.69  121.65
   2   1   1 1377.08  133.78
   2   1   1 1290.39  124.08
   2   1   1 1267.39  122.46
   2  -1   1 1234.07  120.31
   2  -1   1 1296.90  126.13
   2  -1   1 1263.47  121.87
  -2  -1  -1 1200.31  116.32
  -2  -1  -1 1307.21  127.13
  -2   1  -1 1266.77  122.61
  -2   1  -1 1161.67  113.93
   2  -1   2  616.79   43.05
   2   1   2  595.53   41.75
   2   1   2  600.11   41.90
   2  -1   2  577.56   40.07
  -2  -1  -2  528.23   36.49
  -2  -1  -2  585.88   40.72
  -2  -1  -2  547.27   38.07
  -2   1  -2  554.41   39.03
  -2   1  -2  527.89   36.81
   2  -1   3  156.38    7.06
  -2  -1  -3  158.64    7.11
  -2  -1  -3  151.13    6.61
  -2  -1  -3  158.30    7.20
  -2   1  -3  140.63    6.27
  -2   1  -3  150.76    6.64
   2  -1   4  120.38    5.25
  -2  -1  -4  126.17    5.60
  -2  -1  -4  112.03    4.75
  -2  -1  -4  118.43    5.17
  -2   1  -4  118.05    5.32
   2   1   5   84.41    3.44
   2  -1   5   84.30    3.47
  -2  -1  -5   77.47    3.58
  -2  -1  -5   90.75    3.81
  -2   1  -5   79.94    3.49
   2   1   6    7.28    0.50
   2  -1   6    9.64    0.58
  -2  -1  -6    9.39    0.54
  -2  -1  -6    8.75    0.67
  -2   1  -6    5.88    0.63
   2   1   7    4.87    0.39
  -2  -1  -7    2.58    0.53
  -2   1  -7    2.15    0.50
   2   2  -7   16.61    0.81
   2  -2  -7   15.13    0.77
   2  -2  -7   15.48    0.93
   2   2  -6   55.95    2.16
   2   2  -6   52.83    1.91
   2  -2  -6   52.46    2.05
   2  -2  -6   51.71    2.14
   2   2  -5   42.45    1.54
   2   2  -5   36.32    1.12
   2   2  -5   40.16    1.37
   2  -2  -5   43.88    1.70
   2  -2  -5   41.84    1.81
   2  -2  -4    0.52    0.29
   2   2  -4    0.92    0.28
   2   2  -4    0.39    0.19
   2  -2  -4    0.44    0.35
  -2  -2   4    0.28    0.11
  -2  -2   4    0.67    0.26
   2   2  -3  341.42   19.13
   2   2  -3  359.57   20.66
   2   2  -3  356.45   20.68
   2  -2  -3  308.99   17.04
   2  -2  -3  353.53   21.01
   2  -2  -3  374.71   22.01
  -2  -2   3  361.29   20.46
   2   2  -2   39.33    1.29
   2  -2  -2   39.29    1.19
   2  -2  -2   38.42    1.00
  -2  -2   2   37.15    1.24
  -2   2   2   38.84    1.52
   2   2  -1  624.11   45.62
   2   2  -1  650.82   47.42
   2  -2  -1  687.49   49.31
   2  -2  -1  659.40   47.88
  -2  -2   1  622.66   45.67
  -2   2   1  669.71   48.69
   2   2   0  288.41   14.90
   2   2   0  284.66   14.92
   2  -2   0  305.00   16.21
   2  -2   0  263.07   13.55
  -2  -2   0  252.90   13.58
  -2  -2   0  269.81   14.13
  -2   2   0  256.01   13.35
   2  -2   1  779.91   61.38
   2   2   1  727.39   56.61
   2   2   1  782.98   62.10
   2   2   1  776.25   60.60
   2  -2   1  774.95   60.80
  -2   2  -1  770.67   60.79
  -2  -2  -1  810.34   63.62
  -2   2  -1  815.43   64.84
  -2   2  -1  798.69   64.26
  -2  -2  -1  766.74   61.01
   2   2   2 1058.64   94.11
   2  -2   2 1024.37   90.50
   2   2   2  961.96   85.04
   2  -2   2 1024.26   91.29
   2  -2   2  983.37   86.60
  -2  -2  -2  986.55   86.89
  -2  -2  -2 1008.96   89.66
  -2  -2  -2 1034.27   91.25
  -2   2  -2 1020.64   90.41
   2   2   3  215.50   10.56
   2  -2   3  209.15   10.18
  -2  -2  -3  212.58   10.57
  -2  -2  -3  205.74   10.06
  -2  -2  -3  218.34   10.84
  -2   2  -3  216.03   10.88
   2  -2   4  166.90    7.85
  -2  -2  -4  159.46    7.42
  -2  -2  -4  165.41    7.87
  -2  -2  -4  157.31    7.63
  -2   2  -4  167.12    8.00
   2   2   5   43.44    1.68
   2  -2   5   44.23    1.81
  -2  -2  -5   45.01    1.91
  -2  -2  -5   43.62    1.63
  -2   2  -5   45.21    1.94
  -2  -2  -5   38.76    1.38
   2   2   6   39.00    1.48
   2  -2   6   39.26    1.62
  -2  -2  -6   38.58    1.45
  -2  -2  -6   33.75    1.70
  -2   2  -6   37.05    1.63
   2   2   7   29.05    1.15
  -2  -2  -7   25.28    1.26
  -2  -2  -7   31.10    1.43
  -2   2  -7   24.43    1.21
   2   3  -7   64.50    2.64
   2  -3  -7   68.84    2.84
   2  -3  -7   67.51    2.71
   2   3  -6  126.89    5.52
   2   3  -6  123.76    5.18
   2  -3  -6  125.67    5.71
   2  -3  -6  136.20    6.40
   2   3  -5   17.39    0.58
   2   3  -5   17.44    0.66
   2   3  -5   14.61    0.45
   2  -3  -5   17.06    0.85
   2  -3  -5   15.05    0.95
  -2  -3   5   15.64    0.45
   2   3  -4   49.56    1.76
   2  -3  -4   45.98    1.71
   2  -3  -4   47.95    2.05
   2   3  -4   50.40    1.74
  -2  -3   4   46.88    1.52
   2   3  -3   10.01    0.44
   2   3  -3   11.72    0.46
   2   3  -3   10.22    0.36
   2  -3  -3    8.85    0.56
   2  -3  -3    8.77    0.68
  -2  -3   3    9.60    0.44
   2   3  -2  296.57   15.80
   2  -3  -2  303.03   15.62
   2  -3  -2  304.60   16.03
   2  -3  -2  305.73   16.84
   2   3  -2  276.73   14.82
  -2  -3   2  296.21   15.92
   2   3  -1  724.73   55.83
   2   3  -1  799.86   61.01
   2  -3  -1  699.72   53.11
   2  -3  -1  720.63   55.09
  -2  -3   1  718.16   55.65
  -2   3   1  782.64   61.57
   2   3   0   17.81    0.49
   2   3   0   19.14    0.61
   2   3   0   18.17    0.60
   2  -3   0   17.34    0.65
   2  -3   0   17.69    0.58
  -2  -3   0   19.73    0.86
  -2   3   0   19.23    0.61
  -2   3   0   17.73    0.85
  -2  -3   0   18.37    0.87
   2   3   1  163.31    6.92
   2   3   1  152.52    6.40
   2   3   1  151.21    6.48
   2  -3   1  143.81    6.20
   2  -3   1  157.88    6.84
   2  -3   1  157.12    6.86
  -2  -3  -1  143.87    6.33
  -2  -3  -1  153.94    6.62
  -2  -3  -1  155.80    6.97
  -2   3  -1  150.24    6.34
   2   3   2  139.91    5.95
   2  -3   2  125.47    5.26
   2  -3   2  135.66    5.98
  -2  -3  -2  130.70    5.44
  -2  -3  -2  133.34    5.92
  -2  -3  -2  142.31    6.29
  -2   3  -2  126.07    5.56
  -2   3  -2  141.95    6.45
   2   3   3  260.33   13.96
   2  -3   3  268.27   14.23
  -2  -3  -3  273.74   14.41
  -2  -3  -3  269.71   13.92
  -2  -3  -3  291.93   15.51
  -2   3  -3  247.42   13.35
  -2   3  -3  216.51   11.29
   2  -3   4  226.23   11.72
  -2  -3  -4  246.40   12.82
  -2  -3  -4  247.75   12.74
  -2  -3  -4  244.15   12.68
  -2   3  -4  249.67   13.36
   2  -3   5   62.68    2.41
  -2  -3  -5   68.13    2.63
  -2  -3  -5   65.22    2.52
  -2  -3  -5   68.30    2.89
  -2   3  -5   64.88    2.70
   2   3   6   20.84    0.81
   2  -3   6   20.50    0.79
  -2  -3  -6   19.80    0.86
  -2  -3  -6   15.64    1.03
  -2   3  -6   19.79    1.02
  -2  -3  -7    2.62    0.53
  -2  -3  -7    2.61    0.39
  -2   3  -7    2.59    0.43
   2   4  -7   10.04    0.53
   2  -4  -7    8.75    0.66
   2  -4  -7    8.20    0.73
   2   4  -6   23.12    0.91
   2   4  -6   22.54    0.77
   2  -4  -6   24.02    1.05
   2  -4  -6   21.84    1.11
   2   4  -5   13.92    0.52
   2   4  -5   13.81    0.54
   2  -4  -5   12.49    0.61
   2  -4  -5   14.16    0.94
  -2  -4   5   12.70    0.45
  -2  -4   5   11.87    0.59
   2   4  -4  102.55    3.99
   2   4  -4  103.26    4.04
   2  -4  -4   97.04    4.02
   2  -4  -4  103.80    4.41
  -2  -4   4  100.31    3.90
   2   4  -3   60.06    2.04
   2   4  -3   59.00    2.06
   2   4  -3   58.50    1.96
   2  -4  -3   55.61    2.42
   2  -4  -3   58.34    2.64
   2  -4  -3   57.15    1.76
   2  -4  -3   56.60    1.74
  -2  -4   3   60.57    2.11
   2   4  -2  169.82    7.66
   2   4  -2  189.56    8.44
   2  -4  -2  175.17    7.69
   2  -4  -2  186.85    9.15
   2   4  -2  169.60    7.52
  -2  -4   2  182.25    8.37
   2   4  -1  279.51   14.84
   2   4  -1  302.02   15.56
   2  -4  -1  277.63   14.48
   2  -4  -1  271.34   14.18
  -2  -4   1  304.38   16.21
  -2  -4   1  267.56   14.18
  -2   4   1  274.01   14.00
   2   4   0  303.02   15.75
   2   4   0  298.30   16.00
   2  -4   0  285.26   15.36
   2  -4   0  294.97   15.85
   2   4   0  322.69   16.99
  -2  -4   0  271.59   14.74
  -2  -4   0  324.69   17.54
  -2   4   0  280.68   14.77
   2   4   1   81.87    2.84
   2   4   1   86.34    2.97
   2   4   1   86.32    3.16
   2  -4   1   69.15    2.45
   2  -4   1   72.73    2.62
   2  -4   1   74.67    2.67
  -2  -4  -1   81.82    3.13
  -2  -4  -1   73.23    2.63
  -2   4  -1   70.88    2.46
  -2  -4  -1   71.45    2.71
   2  -4   2  300.59   16.53
   2  -4   2  300.92   16.51
  -2  -4  -2  318.16   17.82
  -2  -4  -2  314.58   17.35
  -2  -4  -2  289.98   16.38
  -2   4  -2  338.49   19.29
   2   4   3   88.65    3.81
   2  -4   3   84.79    3.37
  -2  -4  -3   88.03    3.88
  -2  -4  -3   85.33    3.36
  -2  -4  -3   88.42    3.62
  -2   4  -3   85.14    3.47
   2   4   4    4.91    0.55
   2  -4   4    2.91    0.53
  -2  -4  -4    2.33    0.43
  -2  -4  -4    4.14    0.42
  -2  -4  -4    4.86    0.58
  -2   4  -4    2.15    0.54
   2  -4   5    0.96    0.23
  -2  -4  -5    0.64    0.23
  -2  -4  -5    0.17    0.37
  -2  -4  -5    0.91    0.38
  -2   4  -5    0.45    0.32
   2   4   6   12.54    0.55
  -2  -4  -6   11.41    0.74
  -2  -4  -6    8.46    0.74
  -2   4  -6   10.05    0.65
  -2  -4  -7   43.10    1.69
  -2  -4  -7   38.77    1.92
   2   5  -7   77.36    3.13
   2  -5  -7   82.78    3.73
   2  -5  -7   73.52    3.20
   2   5  -6  132.88    5.79
   2  -5  -6  115.22    5.39
   2  -5  -6  125.62    6.00
   2   5  -5   78.46    2.87
   2   5  -5   75.82    2.67
   2  -5  -5   88.38    3.86
   2  -5  -5   78.90    3.40
  -2  -5   5   74.19    2.67
   2   5  -4   41.85    1.41
   2   5  -4   45.08    1.49
   2  -5  -4   43.79    2.08
   2  -5  -4   46.52    2.35
  -2  -5   4   44.90    1.65
   2   5  -3  576.33   40.24
   2   5  -3  569.37   40.08
   2  -5  -3  601.21   43.88
   2  -5  -3  572.72   83.49
   2  -5  -3  576.67   39.79
   2  -5  -3  607.25   43.99
   2   5  -3  588.36   41.19
  -2  -5   3  601.38   42.62
   2   5  -2  443.04   27.46
   2   5  -2  435.21   27.94
   2   5  -2  469.40   29.56
   2  -5  -2  458.16   28.83
   2  -5  -2  525.89   34.47
   2  -5  -2  483.49   32.07
  -2  -5   2  455.13   29.40
   2   5  -1  228.60   10.54
   2   5  -1  207.46    9.30
   2   5  -1  217.43   10.52
   2  -5  -1  213.23   10.04
   2  -5  -1  194.56    9.72
  -2  -5   1  205.79   10.00
  -2  -5   1  223.06   10.69
   2   5   0  170.09    7.24
   2   5   0  161.40    6.96
   2   5   0  170.28    7.73
   2  -5   0  168.25    7.54
   2  -5   0  165.82    7.28
  -2  -5   0  181.35    8.13
  -2  -5   0  167.68    7.61
   2   5   1   32.84    1.04
   2   5   1   29.97    0.95
   2   5   1   33.21    1.03
   2  -5   1   29.55    0.93
   2  -5   1   31.38    1.05
   2  -5   1   30.74    0.98
  -2  -5  -1   30.55    1.10
  -2  -5  -1   33.89    1.06
  -2  -5  -1   32.10    1.05
   2  -5   2   49.79    1.86
   2  -5   2   59.89    2.04
  -2  -5  -2   60.22    2.18
  -2  -5  -2   60.60    2.35
  -2  -5  -2   59.65    2.12
   2   5   3  698.33   54.34
   2  -5   3  706.86   55.13
  -2  -5  -3  748.94   58.55
  -2  -5  -3  785.11   61.58
  -2  -5  -3  719.80   56.42
  -2   5  -3  750.55   59.17
   2   5   4  466.23   30.58
   2  -5   4  490.86   32.33
  -2  -5  -4  453.70   29.78
  -2  -5  -4  444.40   28.94
  -2  -5  -4  434.02   28.15
  -2   5  -4  423.10   28.00
  -2  -5  -5   44.28    1.64
  -2  -5  -5   42.29    1.94
  -2   5  -5   40.34    1.81
  -2  -5  -5   47.95    2.03
   2   5   6    1.10    0.24
  -2  -5  -6    0.91    0.23
  -2  -5  -6    0.88    0.28
  -2  -5  -6    0.73    0.28
  -2   5  -6    0.95    0.32
  -2  -5  -7    1.41    0.33
   2   6  -7    5.67    0.37
   2  -6  -7    6.29    0.67
   2  -6  -7    5.95    0.56
   2   6  -6   23.96    0.85
   2  -6  -6   21.08    0.99
   2  -6  -6   22.57    1.18
   2   6  -5   66.34    2.40
   2   6  -5   57.64    1.88
   2  -6  -5   64.94    2.67
   2  -6  -5   64.96    2.79
  -2  -6   5   65.81    2.42
   2   6  -4  908.14   76.18
   2   6  -4  801.36  229.75
   2  -6  -4  926.79   80.83
   2  -6  -4  898.24   77.85
  -2  -6   4  869.36   74.33
   2   6  -3  196.38    9.14
   2   6  -3  190.33    8.98
   2   6  -3  190.89    8.65
   2   6  -3  199.67    9.03
   2  -6  -3  204.71   10.66
   2  -6  -3  210.51   10.78
   2  -6  -3  201.54    9.17
  -2  -6   3  202.58    9.75
   2   6  -2  112.62    4.21
   2  -6  -2  112.36    4.81
   2   6  -2  107.30    4.32
  -2  -6   2  110.71    4.73
   2   6  -1  307.24   16.25
   2   6  -1  294.51   16.31
   2  -6  -1  333.26   18.93
  -2  -6   1  287.57   15.93
  -2  -6   1  310.89   16.91
   2   6   0  244.09   12.39
   2   6   0  255.80   12.43
   2   6   0  241.76   11.73
   2  -6   0  216.59   11.22
   2  -6   0  239.63   12.05
  -2  -6   0  242.01   11.56
  -2  -6   0  231.98   11.75
  -2  -6   0  248.32   12.34
  -2   6   0  226.16   11.02
   2   6   1   71.88    2.50
   2   6   1   70.65    2.42
   2  -6   1   64.41    2.53
   2  -6   1   68.18    2.51
  -2  -6  -1   67.26    2.51
  -2  -6  -1   65.64    2.27
  -2  -6  -1   67.37    2.75
   2  -6   2  247.85   12.95
   2  -6   2  229.65   11.64
  -2  -6  -2  260.03   13.35
  -2  -6  -2  229.76   11.75
  -2  -6  -2  251.18   12.67
   2  -6   3   70.24    2.78
  -2  -6  -3   71.98    2.90
  -2  -6  -3   71.21    3.15
  -2  -6  -3   74.67    3.08
   2   6   4  304.54   17.16
   2  -6   4  247.95   14.12
  -2  -6  -4  311.65   17.97
  -2  -6  -4  300.57   17.13
  -2  -6  -4  294.38   16.38
  -2   6  -4  292.83   16.98
  -2  -6  -5  187.97    9.31
  -2  -6  -5  196.49    9.54
  -2  -6  -5  191.48    9.31
  -2   6  -5  185.47    9.37
  -2  -6  -6   49.12    2.10
  -2  -6  -6   54.23    2.25
  -2   6  -6   42.24    2.06
   2  -7  -7   53.46    2.38
   2  -7  -7   58.35    2.64
   2   7  -6   50.57    1.93
   2  -7  -6   58.99    2.39
   2  -7  -6   56.94    2.46
   2   7  -5   10.74    0.41
   2  -7  -5   12.47    0.71
   2  -7  -5   11.86    0.83
  -2  -7   5   11.95    0.49
   2   7  -4   63.24    2.25
   2  -7  -4   65.11    2.15
   2  -7  -4   65.85    2.11
   2  -7  -4   67.12    3.46
   2  -7  -4   71.05    3.39
  -2  -7   4   67.90    2.67
   2   7  -3   40.07    1.36
   2   7  -3   41.66    1.14
   2  -7  -3   44.54    1.41
   2  -7  -3   44.48    1.78
   2  -7  -3   45.19    1.84
  -2  -7   3   44.33    1.67
   2   7  -2 1438.64  625.57
   2   7  -2 1383.44  140.93
   2  -7  -2 1178.25  120.06
  -2  -7   2 1464.14  147.61
  -2   7   2 1473.50  146.61
   2   7  -1  739.84   55.87
   2   7  -1  694.36   53.70
  -2  -7   1  707.30   54.57
  -2  -7   1  767.24   58.50
  -2   7   1  713.80   54.15
   2   7   0  167.72    7.18
   2   7   0  162.54    7.05
   2  -7   0  153.51    7.07
  -2  -7   0  157.30    7.49
  -2  -7   0  165.12    6.87
  -2  -7   0  162.73    7.19
  -2   7   0  170.38    7.37
   2   7   1   33.50    1.12
   2  -7   1   36.29    1.33
   2  -7   1   37.54    1.35
  -2  -7  -1   35.95    1.15
  -2  -7  -1   33.37    1.07
  -2  -7  -1   33.75    1.25
   2  -7   2   84.35    3.18
  -2  -7  -2   86.41    3.36
  -2  -7  -2   78.91    3.07
  -2  -7  -2   88.98    3.35
  -2  -7  -3    3.75    0.36
  -2  -7  -3    3.29    0.41
  -2  -7  -3    3.44    0.42
   2   7   4   40.83    1.65
  -2  -7  -4   35.66    1.38
  -2  -7  -4   36.06    1.47
  -2  -7  -4   36.27    1.49
   2   7   5    0.56    0.34
  -2  -7  -5    0.22    0.29
  -2  -7  -5    0.32    0.26
  -2  -7  -5   -0.01    0.39
  -2   7  -5    0.66    0.32
  -2  -7  -6    2.37    0.45
  -2  -7  -6    2.20    0.46
   2  -8  -7    1.15    0.40
   2  -8  -7    1.29    0.47
   2  -8  -6    1.91    0.39
   2  -8  -6    1.78    0.46
   2  -8  -5   68.94    2.79
   2  -8  -5   66.44    2.83
  -2  -8   5   68.30    2.74
   2  -8  -4  309.15   18.02
   2  -8  -4  306.58   16.62
  -2  -8   4  315.26   17.89
   2  -8  -3  275.16   15.30
   2  -8  -3  262.54   14.46
   2  -8  -3  283.63   14.80
  -2  -8   3  273.33   14.91
   2   8  -2  157.95    6.43
   2  -8  -2  153.20    7.47
  -2  -8   2  142.95    6.71
  -2   8   2  149.99    6.25
   2   8  -1  118.01    4.53
   2  -8  -1  129.26    5.95
  -2  -8   1  117.26    4.94
  -2  -8   1  132.20    5.33
  -2   8   1  119.19    4.67
   2   8   0  803.80   62.98
   2   8   0  772.99   60.38
  -2  -8   0  778.38   59.92
  -2  -8   0  704.99   56.01
  -2  -8   0  823.55   64.27
  -2   8   0  729.14   57.64
   2   8   1   45.22    1.55
   2  -8   1   44.44    1.56
   2  -8   1   50.45    1.83
  -2  -8  -1   48.06    1.57
  -2  -8  -1   48.97    1.78
  -2  -8  -1   52.20    1.86
   2  -8   2  111.11    4.71
  -2  -8  -2  125.59    5.33
  -2  -8  -2  118.16    4.89
  -2  -8  -2  108.10    4.52
  -2  -8  -3   64.06    2.51
  -2  -8  -3   63.95    2.67
  -2  -8  -3   63.85    2.63
   2   8   4   59.06    2.19
  -2  -8  -4   62.86    2.44
  -2  -8  -4   61.72    2.37
  -2  -8  -4   60.00    2.49
   2   8   5  135.08    5.99
  -2  -8  -5  121.09    5.63
  -2  -8  -5  124.15    5.34
  -2  -8  -5  118.56    5.21
  -2  -8  -6   30.52    1.46
  -2  -8  -6   32.33    1.22
   2  -9  -7  111.59    5.33
   2  -9  -7   98.35    4.71
   2  -9  -6  129.54    6.26
   2  -9  -6  136.26    6.77
   2  -9  -5   92.87    4.27
   2  -9  -5   94.70    4.51
  -2  -9   5   90.44    3.88
   2  -9  -4   83.54    3.98
   2  -9  -4   77.30    2.76
   2  -9  -4   83.98    3.88
  -2  -9   4   80.91    3.30
   2  -9  -3  214.57   10.37
   2  -9  -3  215.66   11.33
   2  -9  -3  196.46   10.25
  -2  -9   3  203.96   10.31
  -2   9   3  199.39    9.19
   2   9  -2  284.11   15.15
   2  -9  -2  326.61   18.87
   2  -9  -2  309.49   17.07
  -2  -9   2  305.25   17.37
  -2   9   2  303.74   16.41
   2   9  -1   20.03    0.57
   2  -9  -1   21.55    1.11
  -2  -9   1   19.03    0.79
  -2  -9   1   21.95    0.75
  -2   9   1   18.67    0.57
   2   9   0   50.94    1.66
  -2  -9   0   51.52    1.77
  -2  -9   0   46.47    1.46
  -2  -9   0   48.46    2.11
   2   9   1   84.52    3.26
  -2  -9  -1   83.41    3.24
  -2  -9  -1   79.59    3.01
  -2  -9  -1   80.73    3.42
  -2  -9  -2  132.84    5.72
  -2  -9  -2  130.42    5.70
  -2  -9  -2  138.85    5.89
  -2  -9  -3  531.45   36.53
  -2  -9  -3  502.29   34.36
  -2  -9  -3  545.93   38.08
  -2  -9  -4   90.05    3.77
  -2  -9  -4  103.23    4.44
  -2  -9  -4   99.29    4.15
   2   9   5    0.45    0.28
  -2  -9  -5    0.79    0.26
  -2  -9  -5    0.87    0.23
  -2  -9  -5    1.00    0.24
  -2  -9  -6    5.36    0.55
  -2  -9  -6    5.03    0.40
   2 -10  -7   11.60    0.81
   2 -10  -7   12.26    0.96
   2 -10  -6    0.36    0.40
   2 -10  -6    0.32    0.45
   2 -10  -5   18.13    0.98
   2 -10  -5   17.87    0.87
  -2 -10   5   17.87    0.78
   2 -10  -4   26.15    1.41
   2 -10  -4   26.46    1.22
   2 -10  -4   26.80    0.91
  -2 -10   4   26.56    1.13
  -2  10   4   24.71    0.65
   2 -10  -3   32.66    1.37
   2 -10  -3   31.43    1.44
   2 -10  -3   31.66    1.13
  -2 -10   3   33.46    1.42
  -2  10   3   32.83    0.95
   2  10  -2  121.72    4.72
   2 -10  -2  122.10    5.18
   2 -10  -2  124.72    5.98
  -2 -10   2  123.04    5.57
  -2  10   2  125.66    5.08
   2  10  -1   25.28    0.79
   2 -10  -1   27.65    1.36
  -2 -10   1   26.32    1.02
  -2 -10   1   27.42    0.91
  -2  10   1   26.19    0.86
   2  10   0  272.97   14.60
  -2 -10   0  297.23   15.63
  -2 -10   0  269.54   13.79
  -2 -10   0  271.16   14.75
   2  10   1   96.75    3.87
  -2 -10  -1   95.02    3.69
  -2 -10  -1  104.31    4.01
  -2 -10  -1  107.68    4.63
  -2 -10  -2  176.20    8.67
  -2 -10  -2  176.14    8.14
  -2 -10  -2  168.55    7.93
  -2 -10  -3  317.50   18.66
  -2 -10  -3  318.29   18.86
  -2 -10  -3  321.18   18.58
  -2 -10  -4    4.63    0.40
  -2 -10  -4    4.35    0.36
  -2 -10  -4    4.85    0.43
   2  10   5    5.84    0.45
  -2 -10  -5    3.97    0.41
  -2 -10  -5    4.78    0.36
  -2 -10  -5    4.90    0.38
  -2 -10  -6    1.46    0.42
  -2 -10  -6    2.33    0.39
   2 -11  -6   58.36    2.41
   2 -11  -6   61.21    2.86
   2 -11  -5   35.19    1.84
   2 -11  -5   33.72    1.66
  -2 -11   5   33.38    1.52
   2 -11  -4   73.69    3.14
   2 -11  -4   74.09    3.37
   2 -11  -4   74.61    2.82
  -2 -11   4   73.76    3.07
   2 -11  -3   52.19    1.90
   2 -11  -3   56.28    2.62
   2 -11  -3   57.99    2.76
  -2 -11   3   52.76    2.24
  -2  11   3   54.27    1.78
   2  11  -2  218.99   11.15
   2 -11  -2  262.77   14.45
   2 -11  -2  240.35   12.60
  -2 -11   2  251.29   13.62
  -2 -11   2  284.05   14.21
  -2  11   2  244.83   12.78
   2  11  -1   28.45    0.90
   2 -11  -1   33.19    1.54
  -2 -11   1   31.52    0.99
  -2 -11   1   29.58    1.18
   2  11   0    5.89    0.29
   2 -11   0    5.30    0.61
  -2 -11   0    5.53    0.36
  -2 -11   0    5.68    0.26
  -2 -11   0    5.24    0.60
  -2 -11  -1   20.06    1.10
  -2 -11  -1   20.20    0.70
  -2 -11  -1   20.93    0.75
  -2 -11  -2  279.05   15.30
  -2 -11  -2  266.31   14.95
  -2 -11  -2  262.58   14.22
  -2 -11  -3  368.74   22.48
  -2 -11  -3  345.36   21.31
  -2 -11  -3  362.21   22.26
  -2 -11  -4   72.79    3.01
  -2 -11  -4   70.14    2.87
  -2 -11  -4   70.63    3.06
   2  11   5  118.30    5.19
  -2 -11  -5  111.80    5.24
  -2 -11  -5  107.16    4.63
  -2 -11  -5  117.85    5.12
   2  11   6    7.77    0.47
  -2 -11  -6    5.76    0.45
  -2 -11  -6    7.08    0.55
   2 -12  -6   22.45    1.06
   2 -12  -6   20.45    1.11
   2 -12  -5   78.68    3.41
   2 -12  -5   87.21    4.09
  -2 -12   5   80.05    3.42
   2 -12  -4   44.82    1.56
   2 -12  -4   42.61    2.08
   2 -12  -4   44.34    1.93
  -2 -12   4   46.92    1.94
   2 -12  -3  150.24    7.23
   2 -12  -3  156.84    7.04
   2 -12  -3  153.24    7.59
  -2 -12   3  152.78    7.26
  -2  12   3  138.68    6.22
   2  12  -2    7.59    0.27
   2 -12  -2    9.11    0.82
   2 -12  -2    9.52    0.55
  -2 -12   2    9.13    0.35
  -2 -12   2    9.17    0.74
  -2  12   2    7.51    0.31
   2  12  -1   55.82    1.90
   2 -12  -1   47.14    1.97
   2 -12  -1   55.30    2.24
  -2 -12   1   59.09    2.53
  -2 -12   1   61.11    2.05
   2 -12   0  165.51    7.98
  -2 -12   0  190.61    8.70
  -2 -12   0  175.43    7.80
  -2 -12   0  172.45    8.23
  -2 -12  -1  137.29    6.48
  -2 -12  -1  145.68    6.38
  -2 -12  -1  126.48    5.42
  -2 -12  -2  172.73    8.20
  -2 -12  -2  184.80    8.91
  -2 -12  -2  164.46    7.91
  -2 -12  -3  204.90   10.23
  -2 -12  -3  203.30   10.57
  -2 -12  -3  210.58   10.71
  -2 -12  -4   14.37    0.67
  -2 -12  -4   14.97    0.77
  -2 -12  -4   13.43    0.70
   2  12   5   83.10    3.59
  -2 -12  -5   82.61    3.53
  -2 -12  -5   78.43    3.34
  -2 -12  -5   84.42    3.83
   2 -13  -6    3.62    0.40
   2 -13  -6    3.79    0.62
   2 -13  -5    5.00    0.68
   2 -13  -5    4.26    0.46
  -2 -13   5    3.75    0.44
   2 -13  -4   14.04    1.05
   2 -13  -4   12.07    0.52
   2 -13  -4   13.94    0.93
  -2 -13   4   13.01    0.76
   2 -13  -3   42.99    2.25
   2 -13  -3   39.98    1.53
   2 -13  -3   43.60    2.10
  -2 -13   3   41.16    1.86
   2 -13  -2  397.92   24.99
   2  13  -2  330.57   19.85
   2 -13  -2  390.39   23.80
  -2 -13   2  377.93   23.01
  -2 -13   2  375.05   21.77
   2  13  -1  141.51    6.48
   2 -13  -1  153.74    7.47
   2 -13  -1  147.21    6.91
  -2 -13   1  142.74    6.62
  -2 -13   1  158.88    6.78
   2 -13   0    6.56    0.58
  -2 -13   0    4.61    0.46
  -2 -13   0    4.55    0.28
  -2 -13   0    4.90    0.38
   2 -13   1  167.99    8.32
  -2 -13  -1  172.77    8.16
  -2 -13  -1  174.41    8.79
  -2 -13  -1  171.16    7.90
  -2 -13  -2  164.86    7.72
  -2 -13  -2  151.07    6.94
  -2 -13  -2  153.05    7.50
  -2 -13  -3   50.27    2.01
  -2 -13  -3   52.31    2.19
  -2 -13  -3   48.28    1.86
  -2 -13  -4   40.04    1.67
  -2 -13  -4   40.68    1.60
  -2 -13  -4   44.08    1.78
   2  13   5   70.28    2.94
  -2 -13  -5   68.96    2.85
  -2 -13  -5   68.70    2.94
  -2 -13  -5   70.65    3.09
   2 -14  -6   38.29    1.92
   2 -14  -6   35.42    1.75
   2 -14  -5   42.55    1.98
   2 -14  -5   42.45    2.13
  -2 -14   5   41.89    1.81
   2 -14  -4   80.80    3.94
   2 -14  -4   86.64    3.91
   2 -14  -4   80.09    3.12
  -2 -14   4   81.31    3.62
   2 -14  -3  200.53   10.65
   2 -14  -3  187.81    9.82
   2 -14  -3  194.72    9.68
  -2 -14   3  191.73   10.01
   2 -14  -2   43.75    2.06
   2 -14  -2   39.92    1.66
  -2 -14   2   44.64    2.03
  -2 -14   2   42.47    1.38
   2  14  -1    6.04    0.33
   2 -14  -1    7.57    0.68
   2 -14  -1    6.98    0.57
  -2 -14   1    6.64    0.34
  -2 -14   1    5.26    0.49
   2 -14   0  229.73   12.24
   2 -14   0  216.31   11.14
  -2 -14   0  223.50   11.12
  -2 -14   0  212.18   11.46
  -2 -14   0  243.68   12.11
   2 -14   1   35.54    1.59
  -2 -14  -1   38.00    1.50
  -2 -14  -1   37.35    1.78
  -2 -14  -1   36.39    1.31
  -2 -14  -2   75.52    3.02
  -2 -14  -2   74.04    3.25
  -2 -14  -2   78.15    3.25
  -2 -14  -3    8.25    0.62
  -2 -14  -3    8.18    0.53
  -2 -14  -3    9.08    0.64
  -2 -14  -4   87.26    3.73
  -2 -14  -4   87.57    3.77
  -2 -14  -4   81.89    3.69
   2  14   5   64.81    2.67
  -2 -14  -5   62.64    2.74
  -2 -14  -5   59.92    2.50
  -2 -14  -5   60.17    2.73
   2 -15  -5   36.04    1.77
   2 -15  -5   38.68    1.95
  -2 -15   5   35.06    1.62
   2 -15  -4    9.59    0.68
   2 -15  -4    9.41    0.56
   2 -15  -4    7.82    0.60
  -2 -15   4    9.75    0.69
   2 -15  -3  109.60    4.80
   2 -15  -3  109.76    5.24
   2 -15  -3  113.82    5.27
  -2 -15   3  111.65    5.28
   2 -15  -2   26.41    1.37
   2 -15  -2   24.35    1.10
  -2 -15   2   26.60    1.35
   2 -15  -1   93.97    4.11
   2 -15  -1   87.82    4.13
  -2 -15   1   91.11    3.93
  -2 -15   1  107.78    4.14
   2 -15   0   10.22    0.72
   2 -15   0    8.98    0.70
  -2 -15   0    8.74    0.48
  -2 -15   0    9.09    0.37
  -2 -15   0   10.04    0.76
   2 -15   1  119.14    5.39
   2 -15   1  117.86    5.20
  -2 -15  -1  125.68    5.37
  -2 -15  -1  114.68    5.10
  -2 -15  -1  116.17    5.04
   2 -15   2   32.09    1.50
  -2 -15  -2   31.79    1.39
  -2 -15  -2   30.21    1.21
  -2 -15  -2   29.95    1.24
  -2 -15  -3   96.13    4.18
  -2 -15  -3   88.87    3.78
  -2 -15  -3   95.54    4.27
  -2 -15  -4   74.35    3.31
  -2 -15  -4   75.21    3.36
  -2 -15  -4   80.99    3.50
  -2 -15  -5    2.30    0.44
  -2 -15  -5    3.12    0.29
  -2 -15  -5    1.96    0.34
   2 -16  -5   15.26    0.99
   2 -16  -5   15.97    0.87
  -2 -16   5   15.07    0.86
   2 -16  -4   79.89    3.25
   2 -16  -4   83.62    4.03
   2 -16  -4   80.89    3.49
  -2 -16   4   84.08    3.80
   2 -16  -3   27.32    1.14
   2 -16  -3   27.94    1.48
   2 -16  -3   28.74    1.68
  -2 -16   3   28.20    1.43
   2 -16  -2   18.83    0.93
   2 -16  -2   19.38    1.11
  -2 -16   2   18.56    1.13
   2 -16  -1   30.26    1.44
   2 -16  -1   27.23    1.12
  -2 -16   1   27.74    1.23
  -2 -16   1   31.06    1.09
   2 -16   0   13.30    0.69
   2 -16   0   13.55    0.68
  -2 -16   0   13.82    0.61
  -2 -16   0   14.24    0.90
  -2 -16   0   13.56    0.50
   2 -16   1   19.63    1.08
   2 -16   1   16.69    0.90
  -2 -16  -1   17.45    0.82
  -2 -16  -1   18.69    0.85
  -2 -16  -1   17.31    0.66
   2 -16   2  129.57    5.98
   2 -16   2  138.69    6.77
  -2 -16  -2  136.48    6.29
  -2 -16  -2  132.00    5.99
  -2 -16  -2  141.59    6.76
   2 -16   3   14.64    0.66
  -2 -16  -3   14.76    0.80
  -2 -16  -3   14.01    0.70
  -2 -16  -3   15.45    0.86
   2 -16   4   72.54    3.38
  -2 -16  -4   67.67    2.93
  -2 -16  -4   65.74    2.94
  -2 -16  -4   67.69    2.97
   2 -17  -5    2.88    0.59
   2 -17  -5    3.27    0.53
  -2 -17   5    2.01    0.45
   2 -17  -4    7.95    0.75
   2 -17  -4    8.95    0.82
  -2 -17   4    8.05    0.66
   2 -17  -3   13.52    0.71
   2 -17  -3   14.54    1.06
   2 -17  -3   13.58    0.95
  -2 -17   3   13.53    0.73
   2 -17  -2   90.28    4.26
   2 -17  -2   86.86    3.78
  -2 -17   2   86.91    3.74
   2 -17  -1  135.28    6.57
   2 -17  -1  126.88    5.85
  -2 -17   1  136.71    6.30
  -2 -17   1  144.71    6.98
   2 -17   0    6.49    0.60
   2 -17   0    5.89    0.57
  -2 -17   0    5.19    0.44
  -2 -17   0    5.26    0.65
   2 -17   1   50.33    2.08
   2 -17   1   51.90    2.09
  -2 -17  -1   48.57    2.06
  -2 -17  -1   52.23    2.39
  -2 -17  -1   48.42    1.93
   2 -17   2    4.24    0.49
   2 -17   2    5.97    0.45
  -2 -17  -2    3.54    0.44
  -2 -17  -2    4.34    0.36
  -2 -17  -2    3.73    0.41
   2 -17   3   34.53    1.68
  -2 -17  -3   30.27    1.32
  -2 -17  -3   29.09    1.19
  -2 -17  -3   31.86    1.26
   2 -17   4   92.43    4.40
  -2 -17  -4   84.38    3.62
  -2 -17  -4   84.60    3.83
  -2 -17  -4   89.18    3.96
   2 -18  -4   11.23    0.88
   2 -18  -4   11.50    0.72
  -2 -18   4   11.05    0.80
   2 -18  -3   47.47    2.00
   2 -18  -3   49.45    2.43
   2 -18  -3   46.85    1.96
  -2 -18   3   50.50    2.33
   2 -18  -2   10.30    0.74
   2 -18  -2    9.28    0.65
  -2 -18   2    8.51    0.84
   2 -18  -1   70.90    3.36
   2 -18  -1   79.65    3.51
  -2 -18   1   73.05    3.49
   2 -18   0   32.72    1.46
   2 -18   0   37.65    1.70
  -2 -18   0   30.71    1.32
  -2 -18   0   34.97    1.70
   2 -18   1   67.74    2.91
   2 -18   1   76.29    3.47
  -2 -18  -1   63.12    2.90
  -2 -18  -1   72.32    3.30
   2 -18   2   89.74    4.13
  -2 -18  -2   78.34    3.30
  -2 -18  -2   85.86    3.82
  -2 -18  -2   77.80    3.56
   2 -18   3   14.96    1.01
  -2 -18  -3   13.82    0.82
  -2 -18  -3   14.24    0.67
  -2 -18  -3   16.15    0.89
   2 -18   4   27.24    1.49
  -2 -18  -4   23.33    1.34
  -2 -18  -4   25.98    1.23
  -2 -18  -4   26.53    1.28
   2 -19  -4   13.10    0.89
   2 -19  -4   13.07    1.03
  -2 -19   4   12.01    0.91
   2 -19  -3   77.05    3.64
   2 -19  -3   77.28    3.79
   2 -19  -3   72.41    3.14
  -2 -19   3   76.49    3.63
   2 -19  -2   58.98    2.76
   2 -19  -2   59.15    2.62
  -2 -19   2   63.08    2.92
   2 -19  -1   35.28    1.70
   2 -19  -1   35.73    1.68
  -2 -19   1   34.48    1.52
   2 -19   0   21.58    1.06
   2 -19   0   22.01    1.19
  -2 -19   0   18.96    0.87
  -2 -19   0   22.08    0.98
   2 -19   1    0.10    0.25
   2 -19   1   -0.20    0.38
  -2 -19  -1    0.34    0.21
  -2 -19  -1   -0.02    0.36
   2 -19   2    6.65    0.71
  -2 -19  -2    7.09    0.65
  -2 -19  -2    6.09    0.50
   2 -19   3  107.40    4.89
  -2 -19  -3  100.31    4.59
  -2 -19  -3   98.47    4.44
  -2 -19  -3  108.38    5.10
   2 -20  -3   53.87    2.58
   2 -20  -3   49.14    2.17
   2 -20  -3   49.95    2.26
  -2 -20   3   50.22    2.18
   2 -20  -2    2.80    0.47
   2 -20  -2    2.27    0.42
   2 -20  -2    2.59    0.42
  -2 -20   2    2.00    0.39
   2 -20  -1   33.89    1.57
   2 -20  -1   34.06    1.44
  -2 -20   1   36.63    1.84
   2 -20   0   13.90    0.77
   2 -20   0   12.73    0.90
  -2 -20   0   14.24    0.92
   2 -20   1   55.29    2.57
  -2 -20  -1   46.02    2.12
  -2 -20  -1   52.80    2.16
   2 -20   2  151.04    7.42
  -2 -20  -2  135.83    7.45
  -2 -20  -2  162.29    8.18
   2 -21  -2   72.72    3.51
   2 -21  -2   67.84    3.14
   2 -21  -2   67.29    3.22
  -2 -21   2   71.07    3.41
   2 -21  -1   25.07    1.12
   2 -21  -1   25.28    1.27
  -2 -21   1   30.47    1.51
   2 -21   0   18.74    1.07
   2 -21   0   15.91    0.85
  -2 -21   0   17.03    1.06
   2 -21   1    1.06    0.34
  -2 -21  -1    2.19    0.48
   2 -22  -1   13.54    0.78
   2 -22  -1   14.11    0.73
   2 -22   0   43.51    2.10
  -2 -22   0   42.75    2.10
   3   0  -7   18.45    0.90
   3   0  -7   18.97    0.81
   3   0  -6   40.80    1.76
   3   0  -6   43.72    1.79
   3   0  -5    0.76    0.34
   3   0  -5    0.85    0.31
   3   0  -4  214.00   10.91
   3   0  -4  204.56   10.19
   3   0  -4  186.97    8.66
  -3   0   4  225.14   11.52
  -3   0   4  206.43    9.54
   3   0  -3   84.96    3.09
  -3   0   3   91.11    3.39
   3   0  -2  277.01   14.70
  -3   0   2  275.27   14.59
   3   0  -1  395.30   23.57
   3   0  -1  377.00   22.65
  -3   0   1  372.37   22.37
   3   0   0   32.16    1.20
   3   0   0   32.30    1.13
  -3   0   0   31.08    1.13
   3   0   1   87.98    3.41
  -3   0  -1   96.10    4.23
  -3   0  -1   93.17    3.94
   3   0   2 1015.00   89.26
  -3   0  -2  920.99   80.39
  -3   0  -2  970.09   85.19
  -3   0  -3   70.47    2.92
  -3   0  -3   66.59    2.67
   3   0   4   14.80    0.75
  -3   0  -4   12.49    0.61
  -3   0  -4   12.72    0.68
   3   0   5   13.47    0.70
  -3   0  -5   11.93    0.85
   3   0   6   88.63    3.80
  -3   0  -6   81.57    3.88
   3  -1  -7   42.28    1.90
   3   1  -7   47.03    1.88
   3  -1  -7   47.47    2.04
   3   1  -6   71.44    2.79
   3   1  -6   74.61    3.05
   3  -1  -6   74.59    3.14
   3  -1  -6   76.12    3.06
   3  -1  -5   54.22    2.24
   3   1  -5   54.33    2.08
   3   1  -5   56.02    2.13
   3  -1  -5   53.59    2.13
   3   1  -4   39.49    1.57
   3   1  -4   42.58    1.61
   3   1  -4   36.58    1.11
   3  -1  -4   38.15    1.61
   3  -1  -4   37.91    1.59
  -3  -1   4   46.06    1.95
  -3  -1   4   40.07    1.21
   3   1  -3  185.91    8.54
   3  -1  -3  175.31    8.06
   3  -1  -3  193.48    9.62
  -3  -1   3  191.75    8.81
  -3   1   3  211.56   10.63
  -3   1   3  186.55    8.45
   3   1  -2  489.80   32.08
   3  -1  -2  493.68   32.43
  -3  -1   2  499.93   32.67
  -3   1   2  477.15   31.15
   3   1  -1   27.19    0.93
   3   1  -1   27.83    1.02
   3  -1  -1   28.32    0.95
   3  -1  -1   29.47    1.17
   3  -1  -1   26.16    0.91
  -3  -1   1   27.47    1.11
  -3   1   1   27.75    1.07
   3  -1   0  176.83    8.10
   3  -1   0  176.82    8.09
  -3  -1   0  168.26    7.72
  -3  -1   0  182.69    8.66
  -3   1   0  172.17    8.15
   3   1   1  335.54   19.59
   3  -1   1  360.29   20.99
  -3  -1  -1  336.95   19.42
  -3  -1  -1  350.81   20.89
  -3   1  -1  335.52   19.36
  -3   1  -1  338.30   19.97
   3   1   2    8.74    0.53
  -3  -1  -2   12.38    0.64
  -3  -1  -2    9.99    0.73
  -3   1  -2   10.02    0.84
  -3   1  -2    8.82    0.52
  -3   1  -3   53.72    2.25
  -3  -1  -3   51.57    1.98
  -3   1  -3   51.19    2.26
  -3  -1  -3   50.65    1.89
   3  -1   4   81.42    3.44
  -3  -1  -4   87.70    3.67
  -3  -1  -4   86.60    3.85
  -3   1  -4   79.60    3.30
   3   1   5   26.42    1.16
   3  -1   5   28.74    1.22
  -3  -1  -5   27.79    1.15
  -3   1  -5   25.54    1.36
   3   1   6   22.20    1.03
   3  -1   6   25.65    1.13
  -3  -1  -6   17.36    1.03
  -3   1  -6   22.22    1.22
   3   2  -7   10.78    0.55
   3  -2  -7    9.30    0.57
   3  -2  -7   11.97    0.68
   3   2  -6   21.93    0.86
   3   2  -6   23.30    0.91
   3  -2  -6   23.92    1.07
   3  -2  -6   26.10    1.24
   3   2  -5  131.46    5.73
   3   2  -5  128.24    5.76
   3  -2  -5  133.17    6.09
   3  -2  -5  137.83    6.47
  -3  -2   5  139.88    6.56
   3   2  -4   93.18    3.87
   3  -2  -4   86.09    3.73
   3   2  -4   92.67    3.85
   3   2  -4   82.26    3.01
   3  -2  -4   91.11    3.89
  -3  -2   4   87.92    3.23
   3   2  -3  263.27   13.74
   3   2  -3  242.35   12.97
   3  -2  -3  275.71   14.76
   3  -2  -3  260.28   12.80
   3  -2  -3  267.56   13.83
  -3  -2   3  267.71   13.89
  -3   2   3  300.30   16.61
   3  -2  -2  414.38   25.44
   3   2  -2  401.18   24.70
   3   2  -2  449.66   28.02
   3  -2  -2  403.29   24.19
  -3  -2   2  394.82   24.30
  -3   2   2  406.03   24.76
  -3   2   2  433.36   27.40
   3  -2  -1   92.14    3.39
   3   2  -1   91.69    3.42
   3   2  -1   93.34    3.58
   3  -2  -1   98.49    3.75
  -3  -2   1   89.66    3.44
  -3   2   1   91.73    3.64
   3  -2   0   36.93    1.31
  -3  -2   0   33.69    1.32
  -3   2   0   37.44    1.47
  -3  -2   0   34.13    1.25
  -3  -2  -1   58.75    2.19
  -3  -2  -1   60.17    2.28
  -3   2  -1   56.47    2.36
   3   2   2  223.12   11.30
  -3  -2  -2  225.02   11.76
  -3  -2  -2  231.05   12.16
  -3   2  -2  242.23   12.65
  -3   2  -2  234.75   12.60
   3   2   3   35.25    1.54
   3  -2   3   29.59    1.14
  -3  -2  -3   33.76    1.61
  -3   2  -3   30.77    1.54
  -3  -2  -3   28.90    1.14
   3  -2   4    6.67    0.41
  -3  -2  -4    7.66    0.55
  -3  -2  -4    6.63    0.50
  -3   2  -4    6.21    0.53
   3   2   5   40.63    1.50
   3  -2   5   47.88    1.91
  -3  -2  -5   38.66    1.68
  -3  -2  -5   45.78    1.81
  -3   2  -5   38.50    1.84
   3   2   6   34.94    1.43
   3  -2   6   36.36    1.57
  -3  -2  -6   30.98    1.54
  -3   2  -6   30.36    1.52
   3   3  -7   28.12    1.17
   3  -3  -7   26.40    1.12
   3  -3  -7   27.67    1.26
   3   3  -6   89.47    3.69
   3   3  -6   99.37    4.08
   3  -3  -6   93.05    4.20
   3  -3  -6   82.48    3.71
   3   3  -5   34.87    1.22
   3  -3  -5   31.75    1.29
   3  -3  -5   33.85    1.37
   3   3  -5   31.93    1.29
  -3  -3   5   32.38    0.95
  -3  -3   5   35.16    1.47
   3   3  -4   14.94    0.67
   3   3  -4   14.98    0.49
   3  -3  -4   14.96    0.95
   3  -3  -4   14.65    0.99
   3   3  -4   15.88    0.68
  -3  -3   4   15.35    0.51
   3  -3  -3   40.90    2.00
   3   3  -3   41.04    1.41
   3   3  -3   40.86    1.49
   3  -3  -3   41.45    1.32
   3  -3  -3   41.21    1.18
  -3  -3   3   42.40    1.44
   3   3  -2   54.03    1.86
   3   3  -2   59.82    2.11
   3  -3  -2   55.42    1.92
  -3  -3   2   54.20    2.03
  -3   3   2   64.29    2.89
   3   3  -1  306.61   17.31
   3   3  -1  324.32   18.12
   3  -3  -1  319.60   17.79
  -3  -3   1  299.00   16.71
  -3   3   1  360.66   21.27
   3   3   0  281.90   14.51
  -3  -3   0  257.83   14.12
  -3  -3   0  281.30   15.45
  -3   3   0  278.20   14.75
   3   3   1  273.11   14.56
  -3  -3  -1  315.76   17.48
  -3  -3  -1  281.09   15.23
   3  -3   2  113.18    4.83
   3   3   2   95.52    4.04
  -3  -3  -2  114.55    4.96
  -3  -3  -2  111.47    4.70
  -3   3  -2  118.85    5.49
   3   3   3   54.90    2.33
   3  -3   3   56.17    2.33
  -3  -3  -3   53.38    2.22
  -3  -3  -3   56.24    2.47
  -3   3  -3   52.37    2.23
  -3   3  -3   53.99    2.51
   3  -3   4  100.77    4.29
  -3  -3  -4   89.43    3.80
  -3  -3  -4   93.86    4.27
  -3   3  -4   93.57    4.27
   3  -3   5   57.26    2.22
  -3  -3  -5   63.01    2.53
  -3  -3  -5   54.95    2.39
  -3   3  -5   56.02    2.64
   3   3   6   50.12    2.00
   3  -3   6   54.81    2.33
  -3  -3  -6   43.59    1.96
  -3   3  -6   43.98    2.24
   3  -4  -7    6.01    0.40
   3  -4  -7    6.15    0.47
   3   4  -6   63.26    2.32
   3  -4  -6   56.42    2.26
   3  -4  -6   64.02    2.80
   3   4  -5  175.26    7.98
   3   4  -5  168.02    7.87
   3  -4  -5  174.84    8.75
   3  -4  -5  177.85    9.05
  -3  -4   5  167.22    7.53
   3   4  -4  418.63   26.18
   3   4  -4  447.26   27.58
   3   4  -4  416.29   26.43
   3  -4  -4  330.70   19.98
   3  -4  -4  458.02   29.49
   3  -4  -4  457.57   29.55
   3  -4  -4  403.00   23.83
  -3  -4   4  438.40   26.93
   3   4  -3  627.46   47.17
   3   4  -3  723.46   54.72
   3  -4  -3  645.17   47.95
   3  -4  -3  643.92   49.49
   3   4  -3  648.39   48.05
  -3  -4   3  663.99   49.39
   3   4  -2  219.58   10.79
   3   4  -2  228.83   11.06
   3  -4  -2  213.82   10.05
   3  -4  -2  219.55   10.54
  -3  -4   2  209.79   10.42
   3  -4  -1   47.28    1.58
   3  -4  -1   44.59    1.52
   3   4  -1   51.64    1.70
  -3  -4   1   45.79    1.84
  -3   4   1   44.32    1.89
   3   4   0   83.49    2.88
   3  -4   0   81.59    3.15
  -3  -4   0   78.19    3.31
  -3  -4   0   84.34    3.52
  -3   4   0   90.05    4.01
   3   4   1   78.90    2.80
   3  -4   1   79.31    3.15
  -3  -4  -1   76.79    3.22
  -3  -4  -1   78.36    3.30
  -3   4  -1   79.10    3.43
   3  -4   2  164.02    7.51
  -3  -4  -2  179.76    8.61
  -3   4  -2  178.78    8.77
  -3  -4  -2  155.45    7.21
   3   4   3  175.37    8.71
   3  -4   3  179.96    8.83
  -3  -4  -3  166.21    7.91
  -3  -4  -3  168.48    7.90
  -3  -4  -3  196.42    9.81
  -3   4  -3  190.16    9.78
   3   4   4   28.91    1.11
   3  -4   4   31.32    1.36
  -3  -4  -4   27.66    1.10
  -3  -4  -4   29.54    1.45
  -3   4  -4   26.09    1.14
  -3  -4  -4   29.66    1.25
   3  -4   5   51.14    1.96
  -3  -4  -5   55.22    2.37
  -3  -4  -5   48.10    1.80
  -3  -4  -5   45.72    2.16
  -3   4  -5   49.44    2.38
   3   4   6    4.06    0.39
   3  -4   6    2.36    0.52
  -3  -4  -6    2.34    0.38
  -3  -4  -6    1.95    0.58
  -3   4  -6    3.35    0.51
   3  -5  -7   51.90    2.29
   3  -5  -7   52.47    2.40
   3   5  -6    3.63    0.25
   3  -5  -6    3.00    0.46
   3  -5  -6    3.13    0.57
   3   5  -5  184.77    8.53
   3   5  -5  181.73    8.61
   3  -5  -5  184.16    9.56
   3  -5  -5  188.60    9.70
  -3  -5   5  166.46    7.71
   3   5  -4  314.36   16.56
   3   5  -4  289.62   15.61
   3   5  -4  253.80   14.00
   3   5  -4  256.22   14.24
   3  -5  -4  307.84   17.92
   3  -5  -4  234.22   12.22
   3  -5  -4  316.01   18.12
   3  -5  -4  269.45   13.76
  -3  -5   4  295.59   15.83
   3   5  -3   95.78    3.58
   3   5  -3   89.93    3.56
   3   5  -3   96.36    3.72
   3  -5  -3  105.07    4.41
   3  -5  -3   97.52    3.70
  -3  -5   3   98.88    3.96
   3   5  -2  116.31    4.49
   3  -5  -2  108.52    4.25
   3  -5  -2  106.57    4.08
  -3  -5   2  110.83    4.64
   3   5  -1  228.59   10.77
   3   5  -1  238.83   11.66
   3  -5  -1  214.78   10.67
   3  -5  -1  218.00   10.68
  -3  -5   1  224.33   11.49
  -3  -5   1  245.96   12.53
   3   5   0  130.87    5.08
   3  -5   0  120.54    5.10
  -3  -5   0  126.89    5.49
  -3   5   0  122.76    4.96
  -3  -5   0  125.33    5.59
   3   5   1   51.68    1.75
   3  -5   1   56.10    2.21
  -3  -5  -1   56.62    2.38
  -3  -5  -1   59.06    2.19
   3  -5   2   38.80    1.68
  -3  -5  -2   37.57    1.54
  -3  -5  -2   39.46    1.73
   3   5   3  213.08   11.14
   3  -5   3  228.11   11.76
  -3  -5  -3  213.07   11.05
  -3  -5  -3  205.84   10.25
  -3  -5  -3  222.26   11.72
  -3   5  -3  191.49   10.05
   3   5   4   34.70    1.54
   3  -5   4   32.42    1.48
  -3  -5  -4   31.20    1.45
  -3  -5  -4   30.06    1.55
  -3   5  -4   32.53    1.67
  -3  -5  -4   30.12    1.34
   3  -5   5   68.71    3.05
  -3  -5  -5   63.55    2.56
  -3  -5  -5   67.58    2.67
  -3  -5  -5   60.07    3.03
  -3   5  -5   60.05    2.89
   3   5   6   29.08    1.15
  -3  -5  -6   28.57    1.17
  -3  -5  -6   23.57    1.33
  -3   5  -6   24.34    1.34
  -3  -5  -6   32.21    1.42
   3  -6  -7   27.30    1.33
   3  -6  -7   26.29    1.38
   3  -6  -6   11.67    0.81
   3  -6  -6   15.14    0.99
   3   6  -5  109.40    4.39
   3   6  -5  106.59    4.26
   3  -6  -5  108.93    4.85
   3  -6  -5  110.56    5.02
  -3  -6   5  108.16    4.50
   3   6  -4  213.66    9.97
   3   6  -4  195.24    9.34
   3   6  -4  189.04    9.23
   3  -6  -4  214.99   11.39
   3  -6  -4  207.40   11.19
   3  -6  -4  193.22    8.93
  -3  -6   4  199.00    9.65
   3   6  -3  284.28   14.93
   3   6  -3  281.98   15.47
   3  -6  -3  324.36   18.82
   3  -6  -3  304.00   16.71
  -3  -6   3  299.47   16.62
   3   6  -2    5.13    0.19
   3   6  -2    5.69    0.27
   3  -6  -2    4.99    0.28
  -3  -6   2    5.40    0.45
   3   6  -1   25.59    0.77
   3   6  -1   25.75    0.68
   3  -6  -1   23.49    0.80
  -3  -6   1   24.38    1.11
  -3  -6   1   27.53    1.11
  -3   6   1   23.37    0.75
   3   6   0   89.04    3.21
   3  -6   0   87.11    3.44
  -3  -6   0   88.97    3.77
  -3  -6   0   98.11    3.96
  -3   6   0   86.48    3.23
   3   6   1  889.38   77.68
   3  -6   1  968.22   83.88
  -3  -6  -1  913.40   79.16
  -3  -6  -1 1002.03   86.95
   3  -6   2  239.82   12.73
  -3  -6  -2  240.38   12.35
  -3  -6  -2  239.85   12.38
  -3  -6  -2  234.14   12.47
   3   6   3  232.81   12.43
   3  -6   3  216.38   11.17
  -3  -6  -3  208.19   10.78
  -3  -6  -3  235.27   12.28
  -3  -6  -3  222.63   12.21
   3   6   4   49.84    2.12
   3  -6   4   49.45    1.93
  -3  -6  -4   50.64    2.07
  -3  -6  -4   49.83    2.11
  -3  -6  -4   48.92    1.99
   3  -6   5   38.14    1.74
  -3  -6  -5   33.84    1.37
  -3  -6  -5   37.00    1.68
  -3  -6  -5   29.50    1.69
  -3   6  -5   32.68    1.73
  -3  -6  -6    4.38    0.36
  -3  -6  -6    3.41    0.55
  -3   6  -6    3.65    0.57
  -3  -6  -6    4.60    0.38
   3  -7  -7   45.12    1.98
   3  -7  -7   43.60    2.06
   3  -7  -6   81.96    3.78
   3  -7  -6   91.17    4.30
   3   7  -5  128.26    5.48
   3  -7  -5  149.57    7.30
   3  -7  -5  148.96    7.47
  -3  -7   5  140.68    6.14
   3   7  -4   37.21    1.12
   3   7  -4   39.48    1.24
   3   7  -4   35.92    1.13
   3  -7  -4   43.29    2.14
   3  -7  -4   38.98    1.76
   3  -7  -4   37.41    1.17
   3  -7  -4   34.27    1.04
  -3  -7   4   39.21    1.49
   3   7  -3  145.77    6.18
   3  -7  -3  141.64    6.19
   3  -7  -3  166.14    8.17
  -3  -7   3  153.72    7.06
   3   7  -2  116.59    4.48
   3  -7  -2  107.18    4.39
   3  -7  -2  114.92    5.00
  -3  -7   2  107.11    4.64
   3   7  -1  134.20    5.37
   3   7  -1  126.87    4.88
   3  -7  -1  115.93    4.82
  -3  -7   1  134.06    5.75
  -3  -7   1  124.64    5.33
  -3   7   1  125.75    5.08
   3   7   0  107.05    4.14
   3  -7   0  106.23    4.41
  -3  -7   0  112.02    4.91
  -3  -7   0  111.44    4.70
   3   7   1  254.50   13.78
   3  -7   1  273.26   14.98
  -3  -7  -1  263.72   14.89
  -3  -7  -1  283.08   15.71
   3  -7   2  170.82    8.45
  -3  -7  -2  181.25    8.52
  -3  -7  -2  178.48    8.45
  -3  -7  -2  176.31    8.71
   3  -7   3  645.58   47.79
  -3  -7  -3  622.43   45.43
  -3  -7  -3  572.02   41.79
  -3  -7  -3  582.31   43.27
   3   7   4   84.68    3.64
   3  -7   4   83.81    3.44
  -3  -7  -4   85.57    3.59
  -3  -7  -4   82.24    3.25
  -3  -7  -4   81.17    3.67
   3   7   5   27.99    1.21
  -3  -7  -5   20.73    0.94
  -3  -7  -5   21.67    1.29
  -3  -7  -5   22.85    0.88
  -3  -7  -6    2.20    0.43
  -3  -7  -6    2.41    0.36
   3  -8  -7   15.06    0.89
   3  -8  -7   16.94    1.05
   3  -8  -6   27.00    1.19
   3  -8  -6   31.29    1.60
   3  -8  -5    5.02    0.50
   3  -8  -5    6.57    0.74
  -3  -8   5    4.91    0.35
   3   8  -4  327.52   19.01
   3  -8  -4  387.43   24.44
   3  -8  -4  375.32   23.25
   3  -8  -4  369.44   21.56
  -3  -8   4  369.48   22.34
   3   8  -3  214.91   10.50
   3  -8  -3  215.60   11.02
   3  -8  -3  232.05   12.14
  -3  -8   3  232.35   11.94
   3   8  -2    6.13    0.22
   3  -8  -2    5.42    0.72
  -3  -8   2    4.58    0.38
  -3   8   2    5.34    0.20
   3   8  -1   66.52    2.23
   3   8  -1   62.82    1.99
  -3  -8   1   62.08    2.41
  -3  -8   1   66.80    2.55
   3   8   0   10.16    0.34
   3  -8   0    8.12    0.41
  -3  -8   0   11.10    0.62
  -3  -8   0    9.84    0.75
   3   8   1  559.79   41.22
   3  -8   1  610.55   44.51
  -3  -8  -1  610.73   44.94
  -3  -8  -1  590.34   42.03
  -3  -8  -1  628.77   45.52
   3  -8   2  204.72   10.70
  -3  -8  -2  208.27   10.27
  -3  -8  -2  223.78   11.51
  -3  -8  -2  207.46   10.82
   3  -8   3   21.28    1.00
  -3  -8  -3   22.08    0.96
  -3  -8  -3   23.00    1.07
  -3  -8  -3   22.36    1.30
   3   8   4   11.69    0.56
  -3  -8  -4   12.43    0.67
  -3  -8  -4    8.96    0.79
  -3  -8  -4   10.00    0.67
   3   8   5   61.61    2.57
  -3  -8  -5   58.64    2.39
  -3  -8  -5   56.80    2.21
  -3  -8  -5   51.70    2.46
  -3  -8  -6   22.63    1.08
  -3  -8  -6   22.23    1.23
   3  -9  -7    1.40    0.29
   3  -9  -7    1.05    0.47
   3  -9  -6    9.89    0.82
   3  -9  -6   11.34    0.68
   3  -9  -5   31.74    1.70
   3  -9  -5   32.42    1.61
  -3  -9   5   29.73    1.28
   3  -9  -4   32.78    1.89
   3  -9  -4   33.50    2.04
   3  -9  -4   31.45    1.05
  -3  -9   4   34.81    1.47
   3   9  -3   16.22    0.45
   3  -9  -3   15.38    0.52
   3  -9  -3   15.34    0.89
  -3  -9   3   16.01    0.86
   3   9  -2   89.74    3.32
   3  -9  -2  103.27    4.78
  -3  -9   2   93.66    4.05
   3   9  -1  298.63   16.54
  -3  -9   1  283.57   15.95
  -3  -9   1  321.66   17.77
   3   9   0   20.63    0.69
  -3  -9   0   21.80    0.93
  -3  -9   0   21.63    0.93
   3   9   1  119.97    5.29
  -3  -9  -1  128.10    5.70
  -3  -9  -1  139.63    5.78
  -3  -9  -1  143.56    6.42
  -3  -9  -2   14.64    0.66
  -3  -9  -2   14.32    0.69
  -3  -9  -2   14.92    0.73
  -3  -9  -3  140.54    6.59
  -3  -9  -3  138.56    6.28
  -3  -9  -3  141.55    6.74
   3   9   4   54.72    2.16
  -3  -9  -4   65.18    2.63
  -3  -9  -4   60.94    2.67
  -3  -9  -4   61.96    2.50
   3   9   5   39.86    1.65
  -3  -9  -5   35.91    1.47
  -3  -9  -5   33.87    1.56
  -3  -9  -5   32.17    1.65
   3 -10  -6   20.41    1.28
   3 -10  -6   20.87    0.96
   3 -10  -5    2.63    0.60
   3 -10  -5    3.02    0.48
  -3 -10   5    4.06    0.35
   3 -10  -4  408.28   27.13
   3 -10  -4  416.86   27.88
   3 -10  -4  390.16   24.47
  -3 -10   4  411.86   26.27
   3 -10  -3  169.69    8.83
   3 -10  -3  167.88    7.72
  -3 -10   3  166.30    8.13
   3  10  -2   23.10    0.67
   3 -10  -2   24.78    1.16
  -3 -10   2   24.37    0.97
   3  10  -1   46.99    1.56
  -3 -10   1   49.04    1.78
  -3 -10   1   48.94    1.88
   3  10   0   75.04    2.74
  -3 -10   0   89.04    3.47
  -3 -10   0   80.48    3.26
  -3 -10  -1   21.84    0.96
  -3 -10  -1   21.46    0.73
  -3 -10  -1   22.21    1.07
  -3 -10  -2  136.58    6.58
  -3 -10  -2  140.49    6.13
  -3 -10  -2  143.15    6.64
  -3 -10  -3   35.20    1.36
  -3 -10  -3   39.11    1.73
  -3 -10  -3   36.50    1.28
   3  10   4   13.93    0.67
  -3 -10  -4   13.36    0.74
  -3 -10  -4   12.75    0.89
  -3 -10  -4   14.27    0.61
   3  10   5   39.11    1.70
  -3 -10  -5   39.66    1.59
  -3 -10  -5   36.31    1.74
  -3 -10  -5   36.10    1.63
   3 -11  -6   78.42    3.65
   3 -11  -6   75.05    3.37
   3 -11  -5   26.40    1.39
   3 -11  -5   27.18    1.25
  -3 -11   5   24.43    1.02
   3 -11  -4   19.99    1.04
   3 -11  -4   19.32    1.15
   3 -11  -4   17.51    0.68
  -3 -11   4   18.62    1.01
   3 -11  -3    0.40    0.43
   3 -11  -3    0.25    0.20
  -3 -11   3   -0.49    0.32
   3  11  -2   77.46    2.83
   3 -11  -2   87.06    4.05
  -3 -11   2   84.35    3.67
   3  11  -1   93.59    3.74
   3 -11  -1   98.07    4.36
  -3 -11   1  103.58    4.63
  -3 -11   1  108.60    4.32
  -3 -11   0   38.27    1.78
  -3 -11   0   40.29    1.58
  -3 -11  -1  225.80   11.92
  -3 -11  -1  232.20   11.51
  -3 -11  -1  244.91   12.47
  -3 -11  -2   94.75    4.10
  -3 -11  -2   91.96    4.19
  -3 -11  -2   93.27    3.75
  -3 -11  -3   76.61    3.05
  -3 -11  -3   74.29    2.96
  -3 -11  -3   79.57    3.44
  -3 -11  -4   53.55    2.25
  -3 -11  -4   56.42    2.27
  -3 -11  -4   52.53    2.36
   3  11   5   24.95    0.94
  -3 -11  -5   22.65    1.01
  -3 -11  -5   21.39    0.88
  -3 -11  -5   20.53    0.96
   3 -12  -6   19.32    1.00
   3 -12  -6   20.77    1.08
   3 -12  -5    3.06    0.55
   3 -12  -5    3.18    0.47
  -3 -12   5    3.18    0.34
   3 -12  -4  211.08   11.50
   3 -12  -4  218.34   12.06
   3 -12  -4  191.17    9.71
  -3 -12   4  197.65   10.30
   3 -12  -3  238.31   12.98
   3 -12  -3  242.03   12.82
  -3 -12   3  245.28   13.33
   3 -12  -2   37.01    1.91
  -3 -12   2   33.80    1.63
   3 -12  -1   44.83    1.92
  -3 -12   1   44.66    1.78
  -3 -12   1   49.73    1.79
  -3 -12   0    6.29    0.52
  -3 -12   0    9.91    0.57
  -3 -12  -1  189.34    9.72
  -3 -12  -1  187.56    8.62
  -3 -12  -1  177.80    8.46
  -3 -12  -2  118.30    4.85
  -3 -12  -2  110.60    4.89
  -3 -12  -2  115.90    4.88
  -3 -12  -3   12.66    0.64
  -3 -12  -3   12.87    0.63
  -3 -12  -3   12.86    0.69
  -3 -12  -4   14.05    0.75
  -3 -12  -4   15.31    0.83
  -3 -12  -4   15.03    0.75
   3  12   5   23.06    1.06
  -3 -12  -5   21.20    0.96
  -3 -12  -5   19.43    1.01
  -3 -12  -5   19.15    1.09
   3 -13  -6  142.18    7.51
   3 -13  -6  135.61    6.70
   3 -13  -5   15.36    0.86
   3 -13  -5   13.53    1.00
  -3 -13   5   13.87    0.72
   3 -13  -4    2.92    0.65
   3 -13  -4    3.06    0.71
   3 -13  -4    2.93    0.28
  -3 -13   4    2.71    0.45
   3 -13  -3   27.79    1.63
   3 -13  -3   27.82    1.10
  -3 -13   3   26.60    1.33
   3 -13  -2  205.96   11.20
   3 -13  -2  199.57   10.00
  -3 -13   2  205.95   10.74
  -3 -13   2  194.04    9.30
   3 -13  -1   79.79    3.81
  -3 -13   1   80.31    3.63
  -3 -13   1   83.44    3.19
   3 -13   0   96.48    4.50
  -3 -13   0  104.60    4.28
  -3 -13   0   87.05    4.07
  -3 -13  -1   42.23    1.73
  -3 -13  -1   44.77    1.84
  -3 -13  -1   40.77    1.57
  -3 -13  -2   32.23    1.26
  -3 -13  -2   34.95    1.68
  -3 -13  -2   34.91    1.58
  -3 -13  -3   81.44    3.62
  -3 -13  -3   79.18    3.36
  -3 -13  -3   86.82    3.84
  -3 -13  -4   61.82    2.50
  -3 -13  -4   64.12    2.83
  -3 -13  -4   71.29    2.96
   3  13   5    7.73    0.42
  -3 -13  -5    8.54    0.53
  -3 -13  -5    7.23    0.53
  -3 -13  -5    7.51    0.48
   3 -14  -5   18.12    1.16
   3 -14  -5   19.62    1.31
  -3 -14   5   16.28    0.87
   3 -14  -4  109.43    5.09
   3 -14  -4  112.31    5.27
  -3 -14   4  105.61    4.67
   3 -14  -3   23.36    1.37
   3 -14  -3   20.42    0.87
  -3 -14   3   20.75    0.93
   3 -14  -2   25.35    1.25
   3 -14  -2   28.69    1.22
  -3 -14   2   32.00    1.57
  -3 -14   2   29.53    1.13
   3 -14  -1   62.89    2.96
  -3 -14   1   62.78    2.89
  -3 -14   1   66.64    2.48
   3 -14   0   13.66    0.75
  -3 -14   0   14.50    0.42
  -3 -14   0   15.65    0.73
  -3 -14   0   14.00    0.73
  -3 -14  -1  134.45    6.35
  -3 -14  -1  139.44    6.47
  -3 -14  -1  154.16    6.98
  -3 -14  -2  202.42   11.35
  -3 -14  -2  228.92   12.44
  -3 -14  -2  239.12   12.60
  -3 -14  -3   45.61    1.98
  -3 -14  -3   45.59    1.79
  -3 -14  -3   43.99    1.76
  -3 -14  -4   15.85    0.93
  -3 -14  -4   15.96    0.78
  -3 -14  -4   17.12    0.91
   3 -15  -5   57.49    2.82
   3 -15  -5   55.53    2.91
  -3 -15   5   54.68    2.43
   3 -15  -4   45.49    2.56
   3 -15  -4   49.03    2.45
  -3 -15   4   44.35    2.04
   3 -15  -3  138.09    7.08
   3 -15  -3  135.24    6.33
  -3 -15   3  133.73    6.52
   3 -15  -2   93.06    4.39
   3 -15  -2   85.49    3.69
  -3 -15   2   83.55    3.97
   3 -15  -1   19.76    1.01
   3 -15  -1   21.96    0.90
  -3 -15   1   24.17    1.04
  -3 -15   1   26.67    1.05
   3 -15   0   16.31    1.00
  -3 -15   0   15.18    0.75
  -3 -15   0   14.62    0.76
   3 -15   1   26.99    1.31
  -3 -15  -1   27.25    1.38
  -3 -15  -1   26.15    1.15
  -3 -15  -1   22.15    0.84
  -3 -15  -2   20.62    1.04
  -3 -15  -2   19.77    0.80
  -3 -15  -2   24.59    1.28
  -3 -15  -3   43.13    1.62
  -3 -15  -3   41.01    1.66
  -3 -15  -3   41.92    1.66
  -3 -15  -4   67.33    2.99
  -3 -15  -4   66.41    2.88
  -3 -15  -4   71.98    3.13
   3 -16  -5   80.78    3.97
   3 -16  -5   82.89    3.82
  -3 -16   5   76.58    3.55
   3 -16  -4   70.78    3.09
   3 -16  -4   67.78    3.44
  -3 -16   4   67.42    3.04
   3 -16  -3  144.59    7.30
   3 -16  -3  158.12    7.59
  -3 -16   3  155.46    7.82
   3 -16  -2   73.16    3.45
   3 -16  -2   63.77    2.76
  -3 -16   2   68.76    3.17
   3 -16  -1    7.08    0.66
   3 -16  -1    5.52    0.53
  -3 -16   1    4.60    0.65
  -3 -16   1    5.49    0.44
   3 -16   0   48.31    2.24
  -3 -16   0   44.44    2.06
  -3 -16   0   49.69    2.25
   3 -16   1   33.81    1.58
  -3 -16  -1   33.82    1.64
  -3 -16  -1   32.60    1.46
   3 -16   2   27.65    1.27
  -3 -16  -2   23.90    1.19
  -3 -16  -2   23.61    0.97
  -3 -16  -2   30.80    1.42
  -3 -16  -3   10.60    0.54
  -3 -16  -3   10.06    0.51
  -3 -16  -3   11.47    0.58
  -3 -16  -4    2.83    0.44
  -3 -16  -4    2.63    0.25
  -3 -16  -4    2.92    0.42
   3 -17  -4   39.82    2.04
   3 -17  -4   41.09    2.27
  -3 -17   4   38.90    1.85
   3 -17  -3   33.24    1.43
   3 -17  -3   32.59    1.50
  -3 -17   3   33.99    1.71
   3 -17  -2   15.21    1.08
   3 -17  -2   15.32    0.85
  -3 -17   2   15.72    1.04
   3 -17  -1    5.11    0.60
   3 -17  -1    4.27    0.54
  -3 -17   1    5.68    0.65
   3 -17   0   70.48    3.28
   3 -17   0   77.55    3.44
  -3 -17   0   62.05    3.13
  -3 -17   0   75.05    3.41
   3 -17   1   25.72    1.27
  -3 -17  -1   27.37    1.16
  -3 -17  -1   24.84    1.21
   3 -17   2   48.19    2.11
  -3 -17  -2   43.64    1.96
  -3 -17  -2   50.24    2.25
  -3 -17  -3   17.76    0.81
  -3 -17  -3   19.07    0.79
  -3 -17  -3   20.15    0.84
   3 -18  -4   60.05    2.74
   3 -18  -4   62.71    2.86
  -3 -18   4   61.33    2.82
   3 -18  -3  117.49    6.01
   3 -18  -3  119.76    5.59
  -3 -18   3  119.56    5.89
   3 -18  -2   39.78    2.06
   3 -18  -2   45.31    1.92
  -3 -18   2   44.31    2.16
   3 -18  -1    7.01    0.67
   3 -18  -1    6.18    0.59
  -3 -18   1    6.90    0.73
   3 -18   0   10.76    0.78
   3 -18   0   11.04    0.80
  -3 -18   0    9.62    0.57
  -3 -18   0   10.08    0.64
   3 -18   1   50.65    2.32
   3 -18   1   54.15    2.20
  -3 -18  -1   52.17    2.36
  -3 -18  -1   44.06    2.14
  -3 -18  -2   65.55    2.97
  -3 -18  -2   57.42    2.67
  -3 -18  -3   29.97    1.46
  -3 -18  -3   33.69    1.58
   3 -19  -3   49.25    2.51
   3 -19  -3   46.72    2.27
   3 -19  -3   49.20    2.15
  -3 -19   3   49.32    2.13
   3 -19  -2   54.11    2.35
   3 -19  -2   53.64    2.40
  -3 -19   2   57.26    2.68
   3 -19  -1   84.00    4.13
   3 -19  -1   89.55    4.12
  -3 -19   1   92.34    4.40
   3 -19   0   51.06    2.45
   3 -19   0   58.37    2.63
  -3 -19   0   52.55    2.26
   3 -19   1   18.45    1.10
   3 -19   1   17.86    0.95
  -3 -19  -1   18.64    1.05
  -3 -19  -1   14.71    0.85
   3 -19   2    5.90    0.54
  -3 -19  -2    7.68    0.65
  -3 -19  -2    6.13    0.51
   3 -20  -2    5.70    0.66
   3 -20  -2    5.27    0.53
  -3 -20   2    4.96    0.50
   3 -20  -1   17.78    0.91
   3 -20  -1   19.46    1.10
  -3 -20   1   22.18    1.22
   3 -20   0   21.53    1.18
   3 -20   0   23.05    1.23
  -3 -20   0   22.05    1.03
   3 -20   1   37.42    1.64
  -3 -20  -1   38.21    1.80
  -3 -20  -1   30.15    1.50
   4   0  -7    0.33    0.25
   4   0  -6    5.12    0.43
   4   0  -6    4.60    0.43
   4   0  -5  110.61    4.98
   4   0  -5  107.06    4.79
   4   0  -4  438.32   28.77
   4   0  -4  379.09   25.12
   4   0  -4  432.13   28.28
  -4   0   4  489.42   32.62
  -4   0   4  447.31   27.92
   4   0  -3  244.59   13.19
  -4   0   3  271.70   14.09
  -4   0   2  315.56   17.79
  -4   0   1    2.30    0.38
   4   0   0  606.77   43.66
  -4   0   0  611.81   44.30
   4   0   1  364.34   21.83
  -4   0  -1  339.85   21.40
  -4   0  -1  358.18   21.68
   4   0   2    8.65    0.35
  -4   0  -2   10.11    0.56
  -4   0  -2   11.41    0.92
  -4   0  -3   64.10    2.71
  -4   0  -3   69.13    3.04
   4   0   4    6.90    0.43
  -4   0  -4    7.61    0.44
  -4   0  -4    5.86    0.54
   4   0   5   10.15    0.71
  -4   0  -5    5.54    0.82
   4   1  -7   48.96    1.97
   4  -1  -7   49.30    2.10
   4  -1  -7   44.91    1.95
   4   1  -6   42.90    1.82
   4   1  -6   44.96    1.72
   4  -1  -6   43.79    1.90
   4  -1  -6   46.15    1.75
   4   1  -5  156.68    7.59
   4   1  -5  160.24    7.66
   4  -1  -5  158.13    7.80
   4  -1  -5  165.02    8.05
  -4  -1   5  167.67    8.57
   4   1  -4  150.26    7.20
   4   1  -4  127.26    5.84
   4   1  -4  145.07    6.82
   4  -1  -4  152.81    7.45
   4  -1  -4  152.57    7.30
  -4   1   4  173.37    8.52
  -4  -1   4  145.68    6.36
   4  -1  -3   93.40    3.78
   4   1  -3   98.82    4.12
  -4  -1   3  107.86    4.28
  -4   1   3  105.10    4.07
   4  -1  -2   46.87    1.65
  -4  -1   2   50.57    1.87
  -4   1   2   45.31    1.74
   4  -1  -1   57.13    2.06
  -4  -1   1   57.83    2.09
  -4   1   1   54.21    2.17
   4   1   0   97.88    3.97
   4  -1   0  106.80    4.44
  -4  -1   0  104.35    4.35
  -4   1   0  103.24    4.56
   4   1   1    5.59    0.57
   4  -1   1    4.95    0.40
  -4  -1  -1    7.31    0.63
  -4  -1  -1    5.81    0.85
  -4   1  -1    4.35    0.43
   4   1   2   85.36    3.50
  -4  -1  -2   89.65    3.88
  -4  -1  -2   86.70    3.78
  -4   1  -2   86.04    3.50
  -4   1  -2   94.31    4.54
  -4  -1  -3  180.07    8.81
  -4  -1  -3  191.31   10.09
  -4   1  -3  187.59   10.02
  -4   1  -3  197.93    9.65
   4  -1   4    4.95    0.37
  -4  -1  -4    6.15    0.55
  -4  -1  -4    4.71    0.60
  -4   1  -4    4.77    0.63
   4   1   5  145.92    6.74
   4  -1   5  141.93    6.65
  -4  -1  -5  119.07    5.73
  -4   1  -5  128.06    6.52
   4  -2  -7   49.83    2.17
   4  -2  -7   50.30    1.94
   4  -2  -6   67.35    2.97
   4   2  -6   60.79    2.58
   4   2  -6   72.90    2.87
   4  -2  -6   75.79    3.22
   4   2  -5   89.37    3.89
   4   2  -5   95.25    3.96
   4  -2  -5   89.70    4.11
   4  -2  -5   93.93    4.14
  -4  -2   5  103.69    4.68
   4   2  -4  185.08    9.35
   4   2  -4  185.48    9.22
   4  -2  -4  200.94   10.40
   4  -2  -4  186.56    9.60
  -4  -2   4  199.51    9.41
   4  -2  -3   24.74    0.72
   4  -2  -3   22.06    0.73
  -4  -2   3   23.32    0.86
  -4   2   3   28.83    1.54
   4  -2  -2   85.61    3.16
  -4  -2   2   81.55    3.29
  -4   2   2   84.87    3.32
   4  -2  -1   60.15    2.19
  -4  -2   1   62.34    2.52
  -4   2   1   61.58    2.44
  -4  -2   0   89.97    3.97
  -4   2   0   93.69    4.05
   4   2   1  163.48    7.70
  -4  -2  -1  139.37    6.90
  -4  -2  -1  156.96    7.47
  -4   2  -1  167.70    7.65
   4   2   2  118.26    5.45
  -4  -2  -2  120.96    5.58
  -4  -2  -2  126.92    6.08
  -4   2  -2  119.43    6.06
  -4   2  -2  122.42    5.37
   4   2   3   63.28    2.47
   4  -2   3   62.93    2.41
  -4  -2  -3   64.61    2.73
  -4  -2  -3   56.73    2.40
  -4   2  -3   64.91    3.05
   4  -2   4    2.61    0.45
  -4  -2  -4    2.95    0.55
  -4   2  -4    2.92    0.57
  -4  -2  -4    2.81    0.44
   4   2   5   35.60    1.59
   4  -2   5   43.29    1.81
  -4  -2  -5   29.78    1.56
  -4   2  -5   34.15    1.86
  -4  -2  -5   32.91    1.34
   4  -3  -7    5.46    0.53
   4  -3  -7    5.32    0.55
   4   3  -6   74.30    3.05
   4  -3  -6   73.51    3.40
   4  -3  -6   79.09    3.59
   4   3  -5   62.69    2.50
   4   3  -5   62.88    2.41
   4  -3  -5   67.21    3.00
   4  -3  -5   60.93    2.49
   4   3  -4   70.91    2.87
   4   3  -4   71.39    2.77
   4  -3  -4   66.26    3.09
   4  -3  -4   62.66    1.97
  -4  -3   4   75.80    2.68
  -4  -3   3    9.91    0.49
  -4   3   3   11.97    0.96
  -4  -3   2  176.25    8.56
  -4   3   2  209.69   11.01
  -4  -3   1  143.28    6.62
  -4   3   1  148.00    6.72
  -4  -3   0  364.99   22.44
  -4  -3   0  356.96   22.03
  -4   3   0  396.23   24.15
  -4  -3  -1  226.05   12.10
  -4  -3  -1  244.53   13.40
  -4   3  -1  229.78   11.94
   4   3   2   52.79    2.28
   4  -3   2   55.68    2.29
  -4  -3  -2   53.56    2.25
  -4  -3  -2   49.90    1.97
   4   3   3    6.69    0.45
   4  -3   3    4.70    0.57
  -4  -3  -3    5.10    0.49
  -4  -3  -3    6.13    0.57
  -4   3  -3    6.68    0.77
   4  -3   4   32.79    1.43
  -4  -3  -4   34.45    1.77
  -4   3  -4   27.29    1.29
  -4  -3  -4   35.10    1.51
   4  -3   5   48.24    2.12
  -4  -3  -5   47.99    2.06
  -4  -3  -5   39.20    2.56
  -4   3  -5   41.53    2.19
   4  -4  -7   50.62    2.30
   4  -4  -7   55.68    2.49
   4  -4  -6  118.99    5.61
   4  -4  -6  124.98    5.92
  -4  -4   6   96.07    5.19
   4   4  -5   65.93    2.41
   4   4  -5   61.54    2.45
   4  -4  -5   64.25    3.04
   4  -4  -5   67.52    3.10
   4   4  -4   17.14    0.72
   4   4  -4   15.76    0.73
   4  -4  -4   17.74    0.84
  -4  -4   4   17.75    0.65
   4  -4  -3   40.17    1.37
   4  -4  -3   45.98    1.41
  -4  -4   3   45.62    1.64
   4  -4  -2   45.33    1.50
  -4  -4   2   46.97    1.86
  -4   4   2   54.11    2.67
  -4  -4   1  152.11    7.27
  -4   4   1  171.44    8.80
  -4  -4   0   23.05    1.39
  -4  -4   0   21.41    1.16
  -4   4   0   21.30    1.43
   4  -4   1   89.90    3.77
  -4  -4  -1   85.51    3.54
  -4  -4  -1   87.11    3.70
  -4   4  -1   80.58    3.50
   4   4   2   43.86    1.95
   4  -4   2   46.72    1.90
  -4  -4  -2   43.14    1.92
  -4  -4  -2   41.52    1.74
  -4   4  -2   45.28    2.03
   4   4   3   11.76    0.60
   4  -4   3    9.83    0.72
  -4  -4  -3   10.31    0.73
  -4  -4  -3   11.31    0.65
  -4   4  -3   11.95    0.79
   4   4   4   33.42    1.35
   4  -4   4   36.74    1.64
  -4  -4  -4   29.72    1.89
  -4   4  -4   32.09    1.48
  -4  -4  -4   37.14    1.57
   4  -4   5   98.46    4.22
  -4  -4  -5   97.76    4.33
  -4  -4  -5   92.64    4.74
  -4   4  -5   96.47    4.88
   4  -5  -7    7.32    0.61
   4  -5  -7    8.72    0.68
   4  -5  -6   71.61    3.01
   4  -5  -6   76.11    3.45
  -4  -5   6   61.92    3.15
   4   5  -5   85.70    3.25
   4   5  -5   80.73    3.41
   4  -5  -5   83.65    4.02
   4  -5  -5   88.23    4.10
  -4  -5   5   84.07    3.27
   4   5  -4   20.60    0.71
   4   5  -4   21.06    0.84
   4  -5  -4   22.88    1.30
  -4  -5   4   21.62    0.87
   4   5  -3   71.81    2.57
   4  -5  -3   65.65    2.43
   4  -5  -3   76.14    3.59
   4  -5  -3   74.40    2.54
  -4  -5   3   71.90    2.78
   4  -5  -2  158.74    6.89
  -4  -5   2  156.30    7.26
   4   5  -1  120.85    4.73
   4  -5  -1  113.76    4.74
  -4  -5   1  121.56    5.46
  -4   5   1  124.47    5.71
   4  -5   0  333.44   19.35
   4   5   0  308.46   17.91
  -4  -5   0  316.46   18.45
  -4  -5   0  332.93   19.51
  -4   5   0  383.75   23.20
   4  -5   1  291.19   16.39
  -4  -5  -1  312.26   18.10
  -4  -5  -1  302.59   17.38
  -4   5  -1  264.77   15.21
   4  -5   2   11.74    0.60
  -4  -5  -2   14.36    0.87
  -4  -5  -2   11.93    0.74
  -4   5  -2   11.41    0.82
   4   5   3   19.35    1.00
   4  -5   3   16.90    0.75
  -4  -5  -3   19.62    0.98
  -4  -5  -3   14.95    0.81
   4   5   4   92.96    4.11
   4  -5   4   87.77    3.96
  -4  -5  -4   87.24    3.87
  -4  -5  -4   79.62    3.66
   4  -5   5   35.53    1.78
  -4  -5  -5   37.39    1.56
  -4  -5  -5   29.75    1.53
  -4   5  -5   26.77    1.36
   4  -6  -7   22.58    0.99
   4  -6  -7   23.83    1.26
   4  -6  -6    6.57    0.70
   4  -6  -6    7.39    0.73
   4  -6  -5   12.10    0.73
   4  -6  -5   12.17    0.77
  -4  -6   5   12.74    0.50
   4   6  -4  136.68    5.74
   4   6  -4  132.31    5.98
   4  -6  -4  147.53    7.27
  -4  -6   4  137.94    6.04
   4   6  -3  129.41    5.39
   4  -6  -3  142.31    7.12
  -4  -6   3  134.01    6.00
   4  -6  -2   40.99    1.35
  -4  -6   2   42.36    1.71
   4   6  -1   86.33    3.05
   4  -6  -1   82.49    3.17
  -4  -6   1   82.61    3.29
   4   6   0  125.28    5.38
   4  -6   0  130.99    5.85
  -4  -6   0  131.53    6.23
  -4  -6   0  143.07    6.78
   4  -6   1  199.63    9.90
  -4  -6  -1  220.03   11.48
  -4  -6  -1  202.43   10.70
   4  -6   2  385.30   24.11
  -4  -6  -2  389.99   24.63
  -4  -6  -2  369.09   22.96
   4   6   3   12.03    0.63
   4  -6   3   13.68    0.82
  -4  -6  -3   13.10    0.82
  -4  -6  -3   12.42    0.96
   4   6   4   18.66    0.86
   4  -6   4   18.24    1.10
  -4  -6  -4   18.89    1.06
  -4  -6  -4   16.80    1.52
   4  -6   5    8.12    0.59
  -4  -6  -5   11.14    0.69
  -4  -6  -5    5.71    1.05
   4  -7  -6   65.14    3.00
   4  -7  -6   63.55    3.04
   4  -7  -5   45.83    2.01
   4  -7  -5   46.71    2.34
  -4  -7   5   45.58    1.63
   4   7  -4    3.99    0.30
   4  -7  -4    4.05    0.72
  -4  -7   4    4.63    0.37
   4   7  -3   61.10    2.00
   4  -7  -3   77.98    3.61
  -4  -7   3   69.82    2.76
   4   7  -2    4.97    0.15
   4  -7  -2    5.26    0.29
  -4  -7   2    4.90    0.37
   4   7  -1   26.62    0.78
   4  -7  -1   26.00    0.98
  -4  -7   1   28.15    1.11
  -4  -7   1   27.56    1.31
   4   7   0  167.15    7.92
   4  -7   0  179.27    8.54
  -4  -7   0  171.74    8.62
  -4  -7   0  182.42    9.10
   4  -7   1   97.44    4.29
  -4  -7  -1   98.29    4.54
  -4  -7  -1   97.15    4.49
   4  -7   2   25.41    1.32
  -4  -7  -2   24.71    1.54
  -4  -7  -2   23.12    1.09
   4   7   3    7.97    0.65
   4  -7   3    7.21    0.68
  -4  -7  -3    9.18    0.65
  -4  -7  -3    6.75    0.58
   4   7   4  157.80    7.68
   4  -7   4  187.89    9.43
  -4  -7  -4  176.82    8.79
  -4  -7  -4  150.86    7.52
   4  -7   5  161.00    8.04
  -4  -7  -5  152.62    7.49
  -4  -7  -5  142.15    7.49
   4  -8  -6    9.39    0.76
   4  -8  -6    7.34    0.59
   4  -8  -5   31.59    1.70
   4  -8  -5   30.29    1.47
  -4  -8   5   30.81    1.22
   4   8  -4  191.94    9.39
   4  -8  -4  194.56   10.08
  -4  -8   4  203.14    9.98
   4  -8  -3   70.24    3.13
  -4  -8   3   73.00    2.98
   4   8  -2   30.31    0.80
  -4  -8   2   43.25    1.64
   4   8  -1   52.08    1.69
   4  -8  -1   52.49    1.97
  -4  -8   1   56.75    2.34
  -4  -8   1   49.60    1.95
   4   8   0    9.95    0.36
   4  -8   0   13.39    0.67
  -4  -8   0   11.44    0.67
  -4  -8   0   12.03    0.84
   4  -8   1  160.88    7.63
  -4  -8  -1  150.05    7.08
  -4  -8  -1  161.78    7.55
   4  -8   2  293.56   16.85
  -4  -8  -2  318.40   18.92
  -4  -8  -2  316.32   18.25
   4  -8   3   22.26    1.20
  -4  -8  -3   23.35    1.13
  -4  -8  -3   21.90    1.19
   4   8   4   19.73    0.91
   4  -8   4   22.54    1.26
  -4  -8  -4   19.07    0.88
  -4  -8  -4   17.91    0.99
   4   8   5    0.93    0.31
  -4  -8  -5    1.21    0.27
  -4  -8  -5    1.14    0.52
   4  -9  -6   15.17    1.03
   4  -9  -6   14.04    1.02
   4  -9  -5  103.90    5.16
   4  -9  -5  106.00    5.28
  -4  -9   5  102.72    4.35
   4  -9  -4   19.79    1.41
   4  -9  -4   19.36    0.74
  -4  -9   4   21.36    0.92
   4  -9  -3   90.42    3.98
  -4  -9   3   85.28    3.66
  -4  -9   2   13.87    0.83
   4   9  -1   70.87    2.55
  -4  -9   1   79.05    3.43
  -4  -9   1   92.94    3.83
   4  -9   0  204.06   10.28
   4   9   0  188.19    9.48
  -4  -9   0  211.25   11.07
  -4  -9   0  237.01   12.08
   4  -9   1   60.19    2.52
  -4  -9  -1   58.88    2.59
  -4  -9  -1   57.02    2.50
   4  -9   2   18.41    1.05
  -4  -9  -2   18.03    0.84
  -4  -9  -2   17.40    1.04
   4  -9   3   13.46    0.67
  -4  -9  -3   11.83    0.62
  -4  -9  -3   11.83    0.90
   4   9   4   81.21    3.37
  -4  -9  -4   83.01    3.67
  -4  -9  -4   79.07    3.48
   4   9   5   29.28    1.39
  -4  -9  -5   26.36    1.26
  -4  -9  -5   22.35    1.45
   4 -10  -6   18.29    1.17
   4 -10  -6   18.62    1.11
   4 -10  -5    8.49    0.91
   4 -10  -5   11.20    0.96
  -4 -10   5    9.51    0.53
   4 -10  -4   19.24    1.05
  -4 -10   4   20.82    0.94
   4 -10  -3   40.11    1.76
  -4 -10   3   37.99    1.64
   4 -10  -2   71.64    3.52
  -4 -10   2   69.34    3.00
  -4 -10   1   39.52    1.78
  -4 -10   1   42.00    1.69
  -4 -10   0   27.17    1.39
  -4 -10   0   27.04    1.22
  -4 -10  -1    1.29    0.38
  -4 -10  -1    1.17    0.43
  -4 -10  -2    5.04    0.43
  -4 -10  -2    5.17    0.56
  -4 -10  -3   24.96    1.27
  -4 -10  -3   21.75    0.91
   4  10   4   37.69    1.73
  -4 -10  -4   35.95    1.60
  -4 -10  -4   35.45    1.53
   4 -11  -6    5.79    0.66
   4 -11  -6    5.89    0.53
   4 -11  -5  106.00    4.84
   4 -11  -5  102.02    5.17
  -4 -11   5   94.21    4.20
   4 -11  -4   41.26    2.20
  -4 -11   4   40.59    1.69
   4 -11  -3   53.47    2.79
  -4 -11   3   57.04    2.21
   4 -11  -2    8.87    0.65
  -4 -11   2    7.72    0.51
  -4 -11   1  107.15    4.66
  -4 -11   1  113.45    4.94
  -4 -11   0  126.12    6.10
  -4 -11   0  136.89    6.29
  -4 -11  -1    4.62    0.58
  -4 -11  -1    4.33    0.53
  -4 -11  -2   11.94    0.64
  -4 -11  -2   12.12    0.84
  -4 -11  -3    2.19    0.33
  -4 -11  -3    2.83    0.51
   4  11   4    7.53    0.45
  -4 -11  -4    5.21    0.35
  -4 -11  -4    6.10    0.68
  -4 -11  -4    6.16    0.54
   4 -12  -6    3.96    0.46
   4 -12  -5  100.86    4.74
   4 -12  -5  107.60    5.07
  -4 -12   5   98.25    4.51
   4 -12  -4  108.58    5.11
  -4 -12   4  107.86    4.84
   4 -12  -3   75.60    3.73
  -4 -12   3   73.77    3.18
   4 -12  -2   26.04    1.60
  -4 -12   2   26.89    1.31
  -4 -12   1    3.32    0.55
  -4 -12   1    3.17    0.51
  -4 -12   0   63.77    2.75
  -4 -12   0   60.30    2.79
  -4 -12  -1   61.08    2.53
  -4 -12  -1   68.92    3.01
  -4 -12  -2  112.05    5.31
  -4 -12  -2  114.48    5.32
  -4 -12  -3   24.20    1.23
  -4 -12  -3   21.87    0.81
  -4 -12  -3   26.57    1.10
   4  12   4    4.05    0.49
  -4 -12  -4    3.25    0.35
  -4 -12  -4    4.05    0.37
  -4 -12  -4    3.13    0.50
   4 -13  -5   99.63    4.74
   4 -13  -5  105.79    5.04
  -4 -13   5  100.37    4.63
   4 -13  -4   23.75    1.54
  -4 -13   4   22.18    1.12
   4 -13  -3   38.72    2.11
   4 -13  -3   37.39    1.59
  -4 -13   3   36.50    1.66
   4 -13  -2    0.93    0.51
  -4 -13   2    0.63    0.40
   4 -13  -1   16.56    0.90
  -4 -13   1   15.37    0.78
  -4 -13   1   16.68    0.87
  -4 -13   0  109.91    5.07
  -4 -13   0  128.96    5.87
  -4 -13  -1   39.80    1.98
  -4 -13  -1   42.77    1.88
  -4 -13  -2   12.09    0.66
  -4 -13  -2   11.17    0.86
  -4 -13  -3   59.71    2.62
  -4 -13  -3   66.21    2.88
  -4 -13  -3   70.09    2.78
  -4 -13  -4   21.47    1.05
  -4 -13  -4   26.38    1.19
  -4 -13  -4   22.63    0.99
   4 -14  -5   30.30    1.77
   4 -14  -5   28.92    1.85
  -4 -14   5   27.96    1.29
   4 -14  -4  124.87    5.92
  -4 -14   4  119.53    5.81
   4 -14  -3  124.03    6.42
   4 -14  -3  117.47    5.30
  -4 -14   3  124.69    5.90
   4 -14  -2   68.39    3.04
  -4 -14   2   69.43    3.13
   4 -14  -1    5.67    0.73
  -4 -14   1    5.53    0.48
  -4 -14   1    4.95    0.44
  -4 -14   0  156.94    7.99
  -4 -14   0  146.28    7.90
  -4 -14  -1  222.17   11.54
  -4 -14  -1  218.88   12.03
  -4 -14  -2   65.89    3.10
  -4 -14  -2   70.46    3.11
  -4 -14  -3    5.74    0.42
  -4 -14  -3    5.87    0.45
  -4 -14  -3    8.79    0.61
   4 -15  -4   35.68    1.95
   4 -15  -4   35.88    1.74
  -4 -15   4   35.61    1.65
   4 -15  -3    2.34    0.62
   4 -15  -3    2.09    0.32
  -4 -15   3    2.58    0.47
   4 -15  -2   95.55    4.45
  -4 -15   2  104.10    4.83
   4 -15  -1  125.39    6.66
  -4 -15   1  135.70    6.68
  -4 -15   1  140.06    6.88
   4 -15   0  108.40    5.38
  -4 -15   0  106.86    4.87
  -4 -15   0  113.64    5.56
  -4 -15  -1   29.54    1.57
  -4 -15  -1   28.26    1.48
  -4 -15  -2   14.73    0.95
  -4 -15  -2   17.36    1.00
  -4 -15  -3   24.82    1.18
  -4 -15  -3   20.95    1.12
   4 -16  -4   24.27    1.24
   4 -16  -4   25.37    1.32
  -4 -16   4   24.44    1.25
   4 -16  -3   23.07    1.13
   4 -16  -3   20.92    0.95
  -4 -16   3   22.24    0.99
   4 -16  -2   12.58    1.04
   4 -16  -2   12.79    0.73
  -4 -16   2   12.07    0.69
   4 -16  -1   24.90    1.44
  -4 -16   1   23.41    1.37
   4 -16   0    6.35    0.75
  -4 -16   0    6.92    0.54
  -4 -16   0    6.12    0.71
  -4 -16  -1   81.82    3.70
  -4 -16  -1   67.93    3.75
  -4 -16  -2   70.85    3.24
  -4 -16  -2   64.81    3.37
   4 -17  -3    9.45    0.63
   4 -17  -3    7.94    0.53
  -4 -17   3    9.40    0.70
   4 -17  -2   91.36    4.68
   4 -17  -2   94.82    4.23
  -4 -17   2   94.61    4.47
   4 -17  -1   94.56    4.71
  -4 -17   1   91.74    4.08
   4 -17   0  110.99    5.55
  -4 -17   0  106.87    5.22
  -4 -17   0  105.46    5.95
   4 -17   1  117.81    6.18
  -4 -17  -1  119.62    5.80
  -4 -17  -1  106.04    6.22
  -4 -17  -2    5.81    0.60
  -4 -17  -2    4.20    0.56
   4 -18  -3   27.72    1.35
  -4 -18   3   29.35    1.44
   4 -18  -2   31.42    1.46
   4 -18  -2   32.24    1.45
  -4 -18   2   31.65    1.34
   4 -18  -1   56.52    2.55
   4 -18  -1   59.44    2.44
  -4 -18   1   64.28    2.97
   4 -18   0    4.22    0.56
  -4 -18   0    2.96    0.44
   4 -18   1   41.38    2.12
  -4 -18  -1   45.21    2.16
  -4 -18  -1   39.22    2.07
   4 -19  -2   27.14    1.32
  -4 -19   2   30.13    1.30
   4 -19  -1   20.26    1.25
   4 -19  -1   19.36    1.06
  -4 -19   1   21.32    1.21
   4 -19   0   43.88    2.25
   4 -19   0   49.26    2.31
  -4 -19   0   46.06    2.31
   5   0  -6    0.81    0.40
   5   0  -6    0.74    0.39
   5   0  -5    5.25    0.53
   5   0  -5    4.91    0.48
  -5   0   5    7.89    0.74
   5   0  -4  161.40    8.15
  -5   0   4  170.65    8.59
  -5   0   4  165.91    7.53
  -5   0   3  161.29    7.41
   5   0  -2   22.07    0.83
  -5   0   2   23.27    0.99
   5   0  -1  704.21   55.20
  -5   0   1  712.64   56.62
   5   0   0    7.94    0.59
  -5   0   0    7.00    0.69
   5   0   1  183.78    9.20
  -5   0  -1  179.84    8.76
  -5   0  -2   34.02    1.60
  -5   0  -2   34.75    1.37
  -5   0  -3   46.69    2.06
  -5   0  -3   42.82    2.05
   5   0   4   13.85    0.64
  -5   0  -4   11.60    0.80
   5   1  -6   91.51    4.20
   5  -1  -6   90.46    4.32
   5  -1  -6  104.14    4.69
   5   1  -5   89.03    4.23
   5   1  -5   99.59    4.41
   5  -1  -5  103.49    4.70
   5  -1  -5  106.89    4.79
  -5  -1   5  107.03    5.20
   5  -1  -4   25.77    1.34
  -5  -1   4   26.78    0.92
  -5   1   4   25.62    1.58
   5  -1  -3   60.27    2.17
  -5  -1   3   65.02    2.50
  -5   1   3   61.95    2.34
   5  -1  -2   52.43    1.83
  -5  -1   2   55.39    2.17
  -5   1   2   52.06    2.06
   5   1  -1  567.32   40.90
   5  -1  -1  566.19   40.62
  -5  -1   1  590.04   43.10
  -5   1   1  572.03   41.71
   5   1   0  239.11   12.80
   5  -1   0  243.41   12.97
  -5  -1   0  241.69   12.76
  -5   1   0  244.55   13.29
   5   1   1  123.63    5.78
  -5  -1  -1  124.99    5.97
  -5   1  -1  127.79    6.04
   5   1   2   10.19    0.55
  -5  -1  -2    9.96    0.73
  -5  -1  -2    8.60    0.73
  -5   1  -2    9.75    0.59
  -5  -1  -3    0.95    0.41
  -5  -1  -3    1.10    0.55
  -5   1  -3    0.93    0.32
  -5   1  -3    0.90    0.42
   5  -1   4   35.82    1.61
  -5  -1  -4   40.68    1.80
  -5  -1  -4   32.73    1.60
  -5   1  -4   30.20    1.63
   5  -2  -6   35.81    1.80
   5  -2  -6   41.72    1.81
   5   2  -5   16.85    0.95
   5   2  -5   18.42    0.95
   5  -2  -5   19.69    1.01
   5  -2  -5   19.28    1.09
  -5  -2   5   20.72    1.29
   5  -2  -4   29.80    1.63
   5   2  -4   30.26    1.44
  -5  -2   4   32.78    1.12
  -5   2   4   35.02    1.88
  -5  -2   3  118.10    5.18
  -5   2   3  125.37    6.51
   5  -2  -2   28.48    0.91
  -5  -2   2   29.09    1.06
  -5   2   2   32.67    1.28
  -5   2   1  437.59   28.11
  -5  -2   1  395.77   25.83
   5   2   0  109.18    4.91
  -5  -2   0  116.21    5.42
  -5   2   0  122.33    5.60
   5   2   1  214.01   11.31
  -5  -2  -1  220.72   11.36
  -5   2  -1  231.16   11.84
  -5  -2  -1  202.41   10.95
   5   2   2   11.36    0.61
  -5  -2  -2   11.23    0.81
  -5  -2  -2   12.37    1.00
  -5   2  -2   12.50    0.66
   5  -2   3   26.22    1.26
  -5  -2  -3   26.00    1.08
  -5  -2  -3   27.49    1.55
   5  -2   4   92.89    3.96
  -5  -2  -4   90.60    4.30
  -5   2  -4   93.19    4.99
   5  -3  -6   30.89    1.59
   5  -3  -6   34.59    1.56
  -5  -3   6   30.52    1.68
   5   3  -5   72.45    3.14
   5  -3  -5   68.05    3.28
   5  -3  -5   80.77    3.48
   5   3  -4   72.05    3.10
   5  -3  -4   75.96    3.61
  -5  -3   4   78.76    2.99
  -5  -3   3  136.00    6.10
  -5   3   3  141.98    6.82
  -5  -3   2   34.09    1.42
  -5   3   2   33.02    1.61
  -5  -3   1    6.74    0.66
  -5   3   1    8.19    0.49
  -5  -3   0   64.00    2.52
  -5   3   0   60.18    2.41
   5   3   1  135.42    6.42
  -5  -3  -1  132.58    6.11
  -5  -3  -1  140.48    7.27
   5   3   2   21.77    0.91
   5  -3   2   20.51    0.86
  -5  -3  -2   24.35    1.44
  -5  -3  -2   23.22    1.21
   5   3   3   17.47    1.01
   5  -3   3   15.46    0.88
  -5  -3  -3   15.65    1.14
  -5   3  -3   12.87    0.84
  -5  -3  -3   14.49    0.93
   5  -3   4   73.52    3.26
  -5  -3  -4   62.98    3.47
   5  -4  -6   43.75    2.06
   5  -4  -6   44.64    2.05
  -5  -4   6   41.38    2.07
   5   4  -5   18.79    0.90
   5  -4  -5   21.42    1.23
   5  -4  -5   19.47    1.19
   5  -4  -4    6.29    0.72
   5   4  -4    5.91    0.43
  -5  -4   4    6.27    0.38
   5  -4  -3   21.19    0.74
  -5  -4   3   22.60    0.94
  -5  -4   2   50.64    1.89
  -5   4   2   56.00    2.85
  -5  -4   1   38.69    1.71
  -5   4   1   36.87    1.79
  -5  -4   0    7.00    0.64
  -5   4   0    4.83    0.85
   5   4   1   80.24    3.53
   5  -4   1   78.67    3.39
  -5  -4  -1   78.65    3.26
  -5  -4  -1   84.74    4.11
  -5   4  -1   78.95    3.84
   5   4   2   83.21    3.68
   5  -4   2   87.63    3.74
  -5  -4  -2   82.28    3.44
  -5  -4  -2   81.25    3.60
  -5   4  -2   86.74    4.01
   5   4   3   69.03    3.02
   5  -4   3   65.09    2.83
  -5  -4  -3   64.75    2.81
  -5  -4  -3   56.70    2.55
  -5   4  -3   60.55    2.70
   5  -4   4   58.85    2.65
  -5  -4  -4   52.26    2.36
  -5  -4  -4   51.20    2.78
   5  -5  -6    4.90    0.45
   5  -5  -6    5.39    0.47
  -5  -5   6    5.04    0.59
   5  -5  -5   28.51    1.53
   5  -5  -5   27.85    1.54
   5  -5  -4   21.61    1.13
  -5  -5   4   23.41    0.88
   5  -5  -3  136.22    5.78
  -5  -5   3  146.17    6.60
   5  -5  -2   64.23    2.36
  -5  -5   2   67.09    2.87
   5  -5  -1   62.17    2.39
  -5  -5   1   64.76    2.53
  -5   5   1   66.48    2.97
   5  -5   0  181.03    8.28
  -5  -5   0  144.96    7.42
  -5  -5   0  189.82    9.41
  -5   5   0  186.27    9.86
   5  -5   1    1.25    0.38
  -5  -5  -1    1.10    0.33
  -5  -5  -1    1.21    0.54
  -5   5  -1    1.38    0.53
   5   5   2    0.05    0.28
   5  -5   2    0.71    0.37
  -5  -5  -2    0.97    0.41
  -5  -5  -2    0.59    0.36
  -5   5  -2    0.30    0.41
   5   5   3   20.26    0.93
   5  -5   3   22.40    1.16
  -5  -5  -3   18.39    1.38
  -5  -5  -3   18.91    0.89
   5   5   4    8.47    0.42
   5  -5   4   12.86    0.62
  -5  -5  -4   11.75    0.78
  -5  -5  -4    6.53    0.86
   5  -6  -6    5.37    0.66
   5  -6  -6    5.70    0.68
   5  -6  -5   91.32    4.50
   5  -6  -5   89.81    4.44
   5  -6  -4   27.40    1.62
  -5  -6   4   28.83    1.09
   5  -6  -3   27.73    0.88
  -5  -6   3   29.93    1.23
   5  -6  -2  412.02   25.98
  -5  -6   2  437.30   28.46
   5  -6  -1   63.38    2.41
  -5  -6   1   64.14    2.53
   5  -6   0   36.25    1.50
  -5  -6   0   34.80    1.64
  -5  -6   0   37.00    1.52
   5  -6   1   71.56    2.85
  -5  -6  -1   77.91    3.46
  -5  -6  -1   76.96    3.63
   5   6   2   50.47    2.25
   5  -6   2   51.53    1.96
  -5  -6  -2   52.08    2.32
  -5  -6  -2   52.58    2.53
   5   6   3   38.41    1.81
   5  -6   3   42.24    1.89
  -5  -6  -3   41.72    1.86
  -5  -6  -3   40.37    1.86
   5   6   4   65.72    2.75
   5  -6   4   69.39    3.11
  -5  -6  -4   63.56    2.57
  -5  -6  -4   58.03    3.05
   5  -7  -6   63.44    2.89
   5  -7  -6   72.49    3.49
   5  -7  -5   71.11    3.61
   5  -7  -5   74.83    3.40
   5  -7  -4    7.85    0.88
  -5  -7   4   10.08    0.51
   5  -7  -3   97.60    4.58
  -5  -7   3   99.76    4.29
   5  -7  -2   32.17    1.20
  -5  -7   2   34.53    1.62
   5  -7  -1   34.51    1.30
  -5  -7   1   36.96    1.64
   5  -7   0  266.33   14.94
  -5  -7   0  285.74   16.49
  -5  -7   0  289.04   17.10
   5  -7   1   74.11    3.13
  -5  -7  -1   78.98    3.59
  -5  -7  -1   62.32    2.66
   5  -7   2    8.16    0.63
  -5  -7  -2    7.06    0.65
  -5  -7  -2    6.74    0.70
   5   7   3    3.20    0.51
   5  -7   3    2.22    0.50
  -5  -7  -3    2.36    0.51
  -5  -7  -3    2.67    0.58
   5   7   4   23.39    1.11
   5  -7   4   25.62    1.39
  -5  -7  -4   17.36    1.59
  -5  -7  -4   26.86    1.35
   5  -8  -6   10.68    0.91
   5  -8  -6   11.70    0.73
   5  -8  -5   66.49    3.35
   5  -8  -5   69.86    3.46
   5  -8  -4   45.78    2.04
  -5  -8   4   48.27    1.88
   5  -8  -3   68.04    3.10
  -5  -8   3   68.15    2.86
   5  -8  -2  177.19    8.37
  -5  -8   2  184.63    9.29
   5  -8  -1    9.93    0.52
  -5  -8   1   10.33    0.76
   5  -8   0   14.23    0.75
  -5  -8   0   13.18    0.99
  -5  -8   0   13.92    1.01
   5  -8   1    2.61    0.43
  -5  -8  -1    2.65    0.52
  -5  -8  -1    2.01    0.52
   5  -8   2   61.11    2.63
  -5  -8  -2   58.54    2.35
  -5  -8  -2   54.57    2.29
   5   8   3   40.95    1.69
   5  -8   3   44.33    2.00
  -5  -8  -3   45.19    1.99
  -5  -8  -3   40.54    2.13
   5   8   4   92.58    4.25
   5  -8   4   82.02    3.62
  -5  -8  -4   83.39    3.90
  -5  -8  -4   85.44    4.31
   5  -9  -5   36.57    2.04
   5  -9  -5   41.21    2.12
   5  -9  -4   60.30    3.07
  -5  -9   4   60.57    2.47
   5  -9  -3   77.38    4.03
  -5  -9   3   84.63    3.61
  -5  -9   2   39.76    1.79
   5  -9  -1   28.88    1.12
  -5  -9   1   30.79    1.47
   5  -9   0  185.24    9.24
  -5  -9   0  186.76    9.74
  -5  -9   0  189.50    9.93
   5  -9   1    3.88    0.36
  -5  -9  -1    3.47    0.57
  -5  -9  -1    3.90    0.59
   5  -9   2    4.67    0.57
  -5  -9  -2    5.06    0.59
  -5  -9  -2    3.51    0.43
   5   9   3   46.28    1.95
   5  -9   3   53.64    2.46
  -5  -9  -3   50.18    2.33
  -5  -9  -3   48.04    2.43
   5 -10  -5   21.52    1.44
   5 -10  -5   23.70    1.51
   5 -10  -4   16.30    0.93
  -5 -10   4   16.20    0.80
   5 -10  -3    0.59    0.52
  -5 -10   3    0.33    0.22
  -5 -10   2    6.81    0.63
  -5 -10   1   18.73    1.07
   5 -10   0   49.35    1.91
  -5 -10   0   58.06    2.65
  -5 -10   0   60.99    2.78
   5 -10   1   96.10    4.35
  -5 -10  -1   96.48    4.48
  -5 -10  -1   97.14    4.64
   5 -10   2   41.67    1.62
  -5 -10  -2   39.11    1.87
  -5 -10  -2   38.35    1.57
   5  10   3   16.88    1.00
  -5 -10  -3   15.72    1.11
  -5 -10  -3   15.66    0.96
   5 -11  -5   53.67    2.51
   5 -11  -5   56.59    2.62
   5 -11  -4   36.98    1.99
  -5 -11   4   33.10    1.42
   5 -11  -3   11.62    1.01
  -5 -11   3   10.49    0.54
   5 -11  -2    9.97    1.02
  -5 -11   2   11.43    0.74
  -5 -11   1    7.83    0.68
  -5 -11   1    5.58    0.45
  -5 -11   0   70.86    2.97
  -5 -11   0   73.72    3.48
  -5 -11  -1   49.58    2.10
  -5 -11  -1   54.17    2.62
  -5 -11  -2    0.92    0.40
  -5 -11  -2    0.60    0.41
  -5 -11  -3    5.70    0.57
  -5 -11  -3    5.31    0.62
   5 -12  -5   15.01    0.89
   5 -12  -5   14.79    1.28
   5 -12  -4   14.92    0.89
  -5 -12   4   15.00    0.78
   5 -12  -3   71.93    3.63
  -5 -12   3   72.45    3.16
   5 -12  -2   15.37    1.24
  -5 -12   2   16.97    0.96
  -5 -12   1   39.70    1.66
  -5 -12   1   38.74    1.93
  -5 -12   0   62.27    2.95
  -5 -12   0   62.93    2.96
  -5 -12  -1   71.21    3.36
  -5 -12  -1   65.87    3.06
  -5 -12  -2   12.82    0.67
  -5 -12  -2   12.26    0.69
  -5 -12  -3   12.45    0.63
  -5 -12  -3   11.36    0.65
   5 -13  -4   16.27    1.17
  -5 -13   4   14.24    0.76
   5 -13  -3    1.81    0.41
  -5 -13   3    1.30    0.28
   5 -13  -2   69.11    3.63
  -5 -13   2   72.96    3.28
  -5 -13   1  173.20    9.15
  -5 -13   1  173.56   10.44
  -5 -13   0  147.28    7.01
  -5 -13   0  136.95    7.33
  -5 -13  -1   52.45    2.20
  -5 -13  -1   53.53    2.18
  -5 -13  -2    1.88    0.46
  -5 -13  -2    1.76    0.47
   5 -14  -4   52.25    2.70
  -5 -14   4   53.36    2.32
   5 -14  -3   53.36    2.41
  -5 -14   3   52.81    2.33
   5 -14  -2   81.03    3.90
  -5 -14   2   86.26    4.00
   5 -14  -1  162.86    8.66
  -5 -14   1  169.10    9.09
  -5 -14   1  185.06   10.78
  -5 -14   0   21.06    1.29
  -5 -14   0   19.71    1.20
  -5 -14  -1   44.43    2.12
  -5 -14  -1   42.89    2.03
  -5 -14  -2   37.64    1.72
  -5 -14  -2   30.94    1.34
   5 -15  -3   16.13    0.98
  -5 -15   3   18.10    0.97
   5 -15  -2    2.20    0.48
  -5 -15   2    3.19    0.51
   5 -15  -1   93.42    4.99
  -5 -15   1   98.00    4.78
  -5 -15   0  106.52    5.21
  -5 -15   0  107.71    5.69
  -5 -15  -1   42.34    1.98
  -5 -15  -1   35.76    1.95
   5 -16  -2  117.91    6.36
  -5 -16   2  118.65    5.82
   5 -16  -1  105.14    5.34
  -5 -16   1  119.81    5.77
   5 -16   0    3.01    0.67
  -5 -16   0    3.45    0.61
  -5 -16   0    5.11    0.58
   6   0  -5    2.91    0.46
  -6   0   5    2.76    0.43
  -6   0   4    1.87    0.66
  -6   0   3   35.66    1.40
   6   0  -2  245.27   13.26
  -6   0   2  261.12   14.35
   6   0  -1   21.57    0.95
  -6   0   1   22.01    0.91
   6   0   0    1.24    0.38
  -6   0   0    1.21    0.51
  -6   0  -1    2.14    0.49
  -6   0  -2   97.48    4.31
  -6   0  -3   36.74    1.55
   6   1  -5   23.68    1.17
   6  -1  -5   23.53    1.13
   6  -1  -5   24.25    1.19
  -6  -1   5   24.79    1.50
  -6   1   4   37.71    2.11
   6   1  -3   42.23    1.66
  -6   1   3   47.83    1.86
  -6   1   3   46.86    2.68
  -6  -1   3   46.84    1.85
   6  -1  -2   99.41    4.17
   6   1  -2   94.36    4.06
  -6  -1   2  100.15    4.50
  -6   1   2  108.76    4.78
   6   1  -1   58.95    2.41
   6  -1  -1   57.49    2.11
  -6   1   1   61.08    2.60
  -6  -1   1   64.54    2.70
   6   1   0  181.16    9.14
  -6  -1   0  185.29    9.52
  -6   1   0  181.67    8.93
   6   1   1   36.84    1.64
  -6  -1  -1   37.04    1.71
  -6   1  -1   40.14    1.82
  -6  -1  -2  116.47    5.65
  -6   1  -2  119.83    5.44
   6  -1   3   21.72    0.93
  -6  -1  -3   22.01    1.00
   6  -2  -5    7.05    0.67
   6  -2  -5    8.28    0.63
   6   2  -5    7.18    0.63
  -6  -2   5    8.88    0.63
  -6  -2   4   14.85    0.64
  -6   2   4   15.15    1.17
  -6  -2   3  102.32    4.36
  -6   2   3   97.81    4.72
   6   2  -2  168.57    8.18
  -6   2   2  180.69    8.56
  -6  -2   2  177.31    8.44
  -6   2   2  164.66    8.93
   6   2  -1   52.08    2.18
  -6  -2   1   58.40    2.51
  -6   2   1   54.47    2.14
   6   2   0   59.64    2.57
  -6  -2   0   60.96    2.77
  -6   2   0   64.27    2.90
   6   2   1   13.74    0.84
  -6  -2  -1   13.26    0.70
  -6   2  -1   13.21    0.71
   6   2   2   26.45    1.22
   6  -2   2   31.09    1.23
  -6  -2  -2   34.99    1.43
   6  -2   3   37.62    1.78
  -6  -2  -3   40.89    1.93
  -6  -2  -3   44.89    2.42
  -6   2  -3   29.96    1.75
   6  -3  -5   14.63    0.98
   6  -3  -5   15.35    0.87
   6  -3  -4   23.20    1.46
  -6  -3   4   27.21    1.05
  -6  -3   3   48.67    1.92
  -6   3   3   45.86    2.23
  -6  -3   2   22.35    1.12
  -6   3   2   23.58    1.31
   6   3  -1   73.72    3.14
  -6  -3   1   75.26    3.08
  -6   3   1   73.56    3.51
   6   3   0   45.71    1.94
  -6  -3   0   45.26    2.09
  -6   3   0   43.42    2.09
   6   3   1   17.11    0.96
   6  -3   1   17.22    0.72
  -6   3  -1   15.40    0.94
  -6  -3  -1   19.93    0.87
   6   3   2   29.65    1.45
   6  -3   2   29.17    1.38
  -6  -3  -2   30.42    1.45
  -6  -3  -2   22.97    1.33
  -6   3  -2   30.03    1.63
   6  -3   3   88.94    3.78
  -6  -3  -3   89.43    4.91
  -6  -3  -3   85.96    3.78
   6  -4  -5    1.60    0.49
   6  -4  -5    1.21    0.41
   6  -4  -4    6.33    0.75
  -6  -4   4    6.53    0.41
  -6  -4   3   12.32    0.63
  -6   4   3    7.31    0.48
   6  -4  -2   49.18    1.80
  -6  -4   2   51.04    2.12
  -6   4   2   46.24    2.25
   6  -4  -1  118.53    5.26
  -6  -4   1  119.59    5.36
  -6   4   1  126.28    6.65
   6   4   0   19.62    1.04
   6  -4   0   20.52    0.94
  -6  -4   0   20.29    0.94
  -6   4   0   24.97    1.57
   6  -4   1   18.14    0.77
   6   4   1   18.34    0.81
  -6  -4  -1   21.86    1.20
  -6   4  -1   17.99    1.30
   6   4   2    8.12    0.52
   6  -4   2    7.68    0.63
  -6  -4  -2    8.45    0.70
  -6   4  -2    7.81    0.76
  -6  -4  -2    5.83    0.54
   6  -4   3   60.08    2.70
  -6  -4  -3   54.98    2.55
  -6  -4  -3   56.55    3.18
   6  -5  -5   59.81    2.99
   6  -5  -5   62.24    2.93
   6  -5  -4    9.93    0.71
  -6  -5   4   10.88    0.54
  -6  -5   3   25.91    1.10
   6  -5  -2   18.58    0.74
  -6  -5   2   17.02    0.94
   6  -5  -1   47.20    1.88
  -6  -5   1   52.29    2.34
  -6   5   1   51.49    2.82
   6  -5   0   27.55    1.02
  -6  -5   0   29.02    1.49
  -6   5   0   31.84    1.78
   6   5   1   58.04    2.59
   6  -5   1   59.90    2.53
  -6  -5  -1   60.70    2.47
  -6   5  -1   53.30    2.40
   6   5   2   86.13    4.05
   6  -5   2   89.47    4.04
  -6  -5  -2   91.83    4.26
  -6  -5  -2   91.48    4.67
   6   5   3    1.70    0.57
   6  -5   3    4.49    0.51
  -6  -5  -3    1.21    0.78
  -6  -5  -3    1.40    0.59
   6  -6  -5    3.18    0.62
   6  -6  -5    2.84    0.58
   6  -6  -4   17.90    1.30
  -6  -6   4   18.69    0.80
  -6  -6   3   15.04    0.77
   6  -6  -2   10.69    0.56
  -6  -6   2   10.64    0.68
   6  -6  -1   50.67    2.00
  -6  -6   1   52.85    2.40
   6  -6   0   37.95    1.54
  -6  -6   0   38.29    1.85
   6   6   1   43.07    1.98
   6  -6   1   43.11    1.86
  -6  -6  -1   42.58    2.17
  -6  -6  -1   44.12    2.45
   6   6   2    9.93    0.80
   6  -6   2   11.21    0.76
  -6  -6  -2    9.21    0.86
  -6  -6  -2    8.39    0.79
   6  -7  -5   31.38    1.79
   6  -7  -5   33.17    1.79
   6  -7  -4   68.00    3.50
  -6  -7   4   66.58    2.76
  -6  -7   3  105.18    4.78
   6  -7  -2    8.98    0.44
  -6  -7   2    9.93    0.70
   6  -7  -1  123.31    5.51
  -6  -7   1  126.06    6.08
   6  -7   0   18.47    0.87
  -6  -7   0   16.92    1.07
   6  -7   1   44.60    1.71
  -6  -7  -1   44.28    2.21
  -6  -7  -1   46.56    2.47
   6   7   2   33.18    1.53
   6  -7   2   30.50    1.49
  -6  -7  -2   34.56    1.65
  -6  -7  -2   28.89    1.68
   6  -8  -4    8.02    0.71
  -6  -8   4    9.48    0.55
  -6  -8   3   61.97    2.42
   6  -8  -2   76.08    3.07
  -6  -8   2   82.88    3.62
   6  -8  -1   42.07    1.68
  -6  -8   1   41.72    1.73
   6  -8   0   22.61    0.88
  -6  -8   0   25.47    1.31
   6  -8   1   28.59    1.35
  -6  -8  -1   27.60    1.57
  -6  -8  -1   28.86    1.75
   6   8   2    0.33    0.35
   6  -8   2    0.44    0.33
  -6  -8  -2    0.44    0.38
  -6  -8  -2   -0.34    0.44
   6  -9  -4   31.62    1.82
  -6  -9   4   32.77    1.38
   6  -9  -3   72.84    3.85
  -6  -9   3   75.30    3.32
  -6  -9   2    3.58    0.52
   6  -9  -1   23.66    1.07
  -6  -9   1   25.92    1.13
   6  -9   0   41.99    1.77
  -6  -9   0   47.36    2.15
   6  -9   1   52.26    2.29
  -6  -9  -1   55.79    2.56
  -6  -9  -1   54.94    2.86
   6   9   2    1.11    0.28
   6  -9   2    1.58    0.40
  -6  -9  -2    1.30    0.42
  -6  -9  -2    0.92    0.50
   6 -10  -4    5.16    0.54
  -6 -10   4    4.81    0.46
   6 -10  -3   38.93    1.84
  -6 -10   3   39.85    1.74
  -6 -10   2  185.96    9.74
  -6 -10   1  125.21    5.77
   6 -10   0    5.40    0.49
  -6 -10   0    5.18    0.52
  -6 -10   0    5.24    0.67
   6 -10   1   12.68    0.79
  -6 -10  -1   12.07    0.95
  -6 -10  -1   13.25    0.94
   6 -11  -3   21.56    1.60
  -6 -11   3   26.44    1.22
  -6 -11   2    9.53    0.81
  -6 -11   1   35.85    1.79
  -6 -11   0   79.70    3.41
  -6 -11   0   72.84    3.86
  -6 -11  -1   14.56    1.04
  -6 -11  -1   16.82    1.00
   6 -12  -3   30.49    1.81
  -6 -12   3   29.83    1.21
   6 -12  -2  157.74    8.72
  -6 -12   2  155.07    7.80
  -6 -12   1   24.20    1.30
  -6 -12   0    6.33    0.73
  -6 -12   0    6.75    0.58
   6 -13  -2   20.51    1.48
  -6 -13   2   22.94    1.28
  -6 -13   1   20.92    1.16
  -6 -13   0   76.20    3.34
  -6 -13   0   77.70    4.17
  -7   0   4   12.66    1.22
  -7   0   3    0.08    0.24
  -7   0   2   15.37    0.83
  -7   0   1   12.73    0.81
  -7   0   0   10.96    0.65
  -7   0  -1   15.98    1.04
  -7  -1   4   74.37    3.75
  -7   1   4   76.51    3.71
  -7  -1   3   50.44    2.09
  -7   1   3   51.30    2.91
  -7   1   2   16.08    0.85
  -7  -1   2   15.69    0.88
   7   1  -1    7.92    0.55
  -7  -1   1   10.01    0.67
  -7   1   1    9.43    0.70
  -7   1   0   31.99    1.57
  -7  -1   0   34.11    1.60
  -7  -1  -1   56.40    2.20
  -7   1  -1   39.87    1.48
  -7  -2   3   13.83    0.72
  -7   2   3   12.29    0.95
   7   2  -2  110.47    5.26
  -7  -2   2  122.19    5.64
  -7   2   2  118.46    6.56
   7   2  -1   14.81    0.76
  -7  -2   1   15.51    0.89
  -7   2   1   14.98    1.33
   7   2   0    7.83    0.65
  -7  -2   0    7.53    0.71
  -7   2   0    7.65    0.76
   7  -2   1    4.72    0.39
  -7  -2  -1    6.90    0.67
  -7   2  -1    1.72    0.89
  -7  -3   3   34.20    1.47
  -7   3   3   35.10    2.15
   7   3  -2    1.32    0.32
  -7  -3   2    2.30    0.42
  -7   3   2    1.43    0.53
   7   3  -1    6.33    0.51
  -7  -3   1    6.51    0.62
  -7   3   1    7.28    0.95
   7   3   0   57.17    2.50
   7  -3   0   57.73    2.45
  -7  -3   0   59.76    2.43
  -7   3   0   53.20    3.13
   7   3   1   93.31    4.44
   7  -3   1   94.58    4.29
  -7  -3  -1   92.33    4.09
  -7   3  -1   82.86    4.81
  -7  -4   3   52.14    2.23
   7   4  -2   69.24    2.94
   7  -4  -2   71.49    2.92
  -7  -4   2   72.50    3.18
  -7   4   2   71.73    3.97
   7   4  -1   24.47    1.14
   7  -4  -1   26.25    1.08
  -7  -4   1   27.29    1.32
  -7   4   1   27.06    1.78
   7   4   0   12.25    0.79
   7  -4   0   12.67    0.58
  -7  -4   0   11.77    0.89
  -7   4   0    9.25    1.30
  -7  -5   3   34.32    1.52
  -7  -5   2   11.78    0.80
   7   5  -1   17.11    0.91
   7  -5  -1   16.93    0.80
  -7  -5   1   17.69    1.03
   7   5   0   49.93    2.14
   7  -5   0   49.40    2.06
  -7  -5   0   50.73    2.29
  -7   5   0   41.23    2.10
  -7  -6   3   34.82    1.37
  -7  -6   2   78.67    3.57
   7  -6  -1   37.11    1.56
  -7  -6   1   40.64    1.82
   7   6   0    6.54    0.46
   7  -6   0    7.04    0.53
  -7  -6   0    6.98    0.68
  -7  -7   2    1.93    0.46
   7  -7  -1    5.59    0.44
  -7  -7   1    6.05    0.60
   0   0   0    0.00    0.00
;
_shelx_hkl_checksum              1432
#END Tags that were not found in dictionaries
loop_
_space_group_symop_operation_xyz
'x, y, z'
'-x, y+1/2, -z'
loop_
_atom_site_label
_atom_site_type_symbol
_atom_site_fract_x
_atom_site_fract_y
_atom_site_fract_z
_atom_site_U_iso_or_equiv
_atom_site_adp_type
_atom_site_occupancy
_atom_site_site_symmetry_order
_atom_site_calc_flag
_atom_site_refinement_flags_posn
_atom_site_refinement_flags_adp
S1 S 0.55162(7) 0.57008(3) 0.40243(6) 0.01272(12) Uani 1 1 d . .
F1 F 0.9975(2) 0.78408(8) 0.7182(2) 0.0252(3) Uani 1 1 d . .
F2 F 1.1810(2) 0.71494(9) 0.5094(2) 0.0250(3) Uani 1 1 d . .
O1 O 1.2385(3) 0.62330(10) 0.8315(2) 0.0197(3) Uani 1 1 d D .
O2 O 0.8769(3) 0.64715(10) 0.9092(2) 0.0210(3) Uani 1 1 d . .
H902 H 1.262(5) 0.6001(15) 0.956(4) 0.025 Uiso 1 1 d D U
O3 O 0.3362(2) 0.57049(11) 0.2212(2) 0.0200(3) Uani 1 1 d . .
N1 N 0.7561(3) 0.63018(10) 0.3570(3) 0.0144(3) Uani 1 1 d D .
H901 H 0.801(4) 0.6273(16) 0.232(3) 0.017 Uiso 1 1 d D U
C1 C 1.0317(3) 0.65596(12) 0.8031(3) 0.0148(4) Uani 1 1 d . .
C2 C 0.9934(3) 0.71484(13) 0.6158(3) 0.0153(4) Uani 1 1 d . .
C3 C 0.7614(3) 0.70636(12) 0.4524(3) 0.0132(4) Uani 1 1 d . .
H3 H 0.6269 0.7111 0.5336 0.016 Uiso 1 1 calc R U
C4 C 0.7405(4) 0.76955(12) 0.2801(3) 0.0170(4) Uani 1 1 d . .
H4A H 0.7645 0.8189 0.3565 0.020 Uiso 1 1 calc R U
H4B H 0.8683 0.7633 0.1939 0.020 Uiso 1 1 calc R U
C5 C 0.5027(4) 0.77071(15) 0.1227(4) 0.0243(5) Uani 1 1 d . .
H5A H 0.3750 0.7777 0.2063 0.036 Uiso 1 1 calc R U
H5B H 0.4797 0.7227 0.0425 0.036 Uiso 1 1 calc R U
H5C H 0.5004 0.8124 0.0182 0.036 Uiso 1 1 calc R U
C6 C 0.7030(3) 0.48047(12) 0.3633(3) 0.0154(4) Uani 1 1 d . .
C7 C 0.7574(4) 0.47532(14) 0.1314(3) 0.0224(4) Uani 1 1 d . .
H7A H 0.8165 0.4246 0.1075 0.034 Uiso 1 1 calc R U
H7B H 0.8780 0.5129 0.1142 0.034 Uiso 1 1 calc R U
H7C H 0.6127 0.4851 0.0238 0.034 Uiso 1 1 calc R U
C8 C 0.5255(4) 0.41938(14) 0.4011(4) 0.0226(5) Uani 1 1 d . .
H8A H 0.4840 0.4263 0.5464 0.034 Uiso 1 1 calc R U
H8B H 0.5969 0.3694 0.3933 0.034 Uiso 1 1 calc R U
H8C H 0.3823 0.4234 0.2878 0.034 Uiso 1 1 calc R U
C9 C 0.9263(4) 0.47619(13) 0.5391(4) 0.0213(4) Uani 1 1 d . .
H9A H 0.9935 0.4252 0.5414 0.032 Uiso 1 1 calc R U
H9B H 0.8867 0.4876 0.6829 0.032 Uiso 1 1 calc R U
H9C H 1.0424 0.5130 0.5061 0.032 Uiso 1 1 calc R U
loop_
_atom_site_aniso_label
_atom_site_aniso_U_11
_atom_site_aniso_U_22
_atom_site_aniso_U_33
_atom_site_aniso_U_23
_atom_site_aniso_U_13
_atom_site_aniso_U_12
S1 0.01150(19) 0.0129(2) 0.0136(2) 0.00151(18) 0.00181(14) -0.00026(19)
F1 0.0323(7) 0.0157(6) 0.0237(6) -0.0037(5) -0.0051(5) -0.0051(6)
F2 0.0136(5) 0.0394(8) 0.0229(6) 0.0090(6) 0.0055(5) -0.0028(6)
O1 0.0145(6) 0.0241(8) 0.0195(7) 0.0024(6) 0.0007(5) 0.0030(6)
O2 0.0178(7) 0.0282(9) 0.0177(7) 0.0050(6) 0.0052(5) 0.0017(6)
O3 0.0133(6) 0.0214(7) 0.0223(6) 0.0044(7) -0.0047(5) -0.0016(7)
N1 0.0164(8) 0.0127(8) 0.0150(7) -0.0003(7) 0.0056(6) -0.0024(7)
C1 0.0148(8) 0.0163(10) 0.0122(8) -0.0039(7) -0.0009(7) -0.0019(8)
C2 0.0120(8) 0.0169(10) 0.0170(9) 0.0009(8) 0.0028(7) -0.0021(8)
C3 0.0116(8) 0.0134(9) 0.0142(8) 0.0002(7) 0.0011(7) -0.0003(7)
C4 0.0189(10) 0.0135(10) 0.0174(9) 0.0018(7) 0.0003(7) -0.0007(8)
C5 0.0240(10) 0.0243(12) 0.0222(11) 0.0058(9) -0.0019(8) -0.0003(10)
C6 0.0163(9) 0.0131(10) 0.0174(9) -0.0001(7) 0.0041(7) 0.0005(8)
C7 0.0278(10) 0.0203(11) 0.0213(10) -0.0034(8) 0.0101(8) -0.0022(9)
C8 0.0241(10) 0.0140(11) 0.0317(12) 0.0000(8) 0.0102(9) -0.0027(9)
C9 0.0180(9) 0.0199(11) 0.0251(10) 0.0028(9) 0.0018(8) 0.0063(9)
loop_
_atom_type_symbol
_atom_type_description
_atom_type_scat_dispersion_real
_atom_type_scat_dispersion_imag
_atom_type_scat_source
C C 0.0033 0.0016 'International Tables Vol C Tables 4.2.6.8 and 6.1.1.4'
H H 0.0000 0.0000 'International Tables Vol C Tables 4.2.6.8 and 6.1.1.4'
N N 0.0061 0.0033 'International Tables Vol C Tables 4.2.6.8 and 6.1.1.4'
O O 0.0106 0.0060 'International Tables Vol C Tables 4.2.6.8 and 6.1.1.4'
F F 0.0171 0.0103 'International Tables Vol C Tables 4.2.6.8 and 6.1.1.4'
S S 0.1246 0.1234 'International Tables Vol C Tables 4.2.6.8 and 6.1.1.4'
loop_
_geom_angle_atom_site_label_1
_geom_angle_atom_site_label_2
_geom_angle_atom_site_label_3
_geom_angle
O3 S1 N1 112.47(9)
O3 S1 C6 104.34(10)
N1 S1 C6 99.45(11)
C3 N1 S1 119.07(14)
O2 C1 O1 127.8(2)
O2 C1 C2 118.58(18)
O1 C1 C2 113.60(17)
F2 C2 F1 105.89(16)
F2 C2 C3 110.54(15)
F1 C2 C3 109.37(16)
F2 C2 C1 110.40(17)
F1 C2 C1 105.44(15)
C3 C2 C1 114.71(16)
N1 C3 C2 107.95(16)
N1 C3 C4 113.27(16)
C2 C3 C4 109.67(16)
C5 C4 C3 113.60(17)
C9 C6 C7 112.18(18)
C9 C6 C8 110.57(18)
C7 C6 C8 111.03(18)
C9 C6 S1 107.67(14)
C7 C6 S1 110.97(15)
C8 C6 S1 104.06(15)
loop_
_geom_bond_atom_site_label_1
_geom_bond_atom_site_label_2
_geom_bond_distance
S1 O3 1.5090(14)
S1 N1 1.646(2)
S1 C6 1.845(2)
F1 C2 1.377(3)
F2 C2 1.363(2)
O1 C1 1.303(3)
O2 C1 1.209(3)
N1 C3 1.470(3)
C1 C2 1.544(3)
C2 C3 1.524(3)
C3 C4 1.535(3)
C4 C5 1.524(3)
C6 C9 1.523(3)
C6 C7 1.528(3)
C6 C8 1.533(3)
loop_
_geom_hbond_atom_site_label_D
_geom_hbond_atom_site_label_H
_geom_hbond_atom_site_label_A
_geom_hbond_distance_DH
_geom_hbond_distance_HA
_geom_hbond_distance_DA
_geom_hbond_angle_DHA
_geom_hbond_site_symmetry_A
C3 H3 F2 1.00 2.54 3.419(3) 146.8 1_455
N1 H901 O2 0.859(18) 2.15(2) 2.995(3) 166(3) 1_554
O1 H902 S1 0.861(19) 3.00(2) 3.777(3) 151(2) 1_656
O1 H902 O3 0.861(19) 1.70(2) 2.551(2) 169(3) 1_656
