#------------------------------------------------------------------------------
#$Date: 2016-03-21 05:34:46 +0200 (Mon, 21 Mar 2016) $
#$Revision: 178485 $
#$URL: svn://www.crystallography.net/cod/cif/4/03/06/4030695.cif $
#------------------------------------------------------------------------------
#
# This file is available in the Crystallography Open Database (COD),
# http://www.crystallography.net/
#
# All data on this site have been placed in the public domain by the
# contributors.
#
data_4030695
loop_
_publ_author_name
'Yu, Wesley Zongrong'
'Chen, Feng'
'Cheng, Yi An'
'Yeung, Ying-Yeung'
_publ_section_title
;
 Catalyst-free and metal-free electrophilic bromoamidation of unactivated
 olefins using the N-bromosuccinimide/sulfonamide protocol.
;
_journal_issue                   5
_journal_name_full               'The Journal of organic chemistry'
_journal_page_first              2815
_journal_page_last               2821
_journal_paper_doi               10.1021/jo502416r
_journal_volume                  80
_journal_year                    2015
_chemical_formula_sum            'C16 H15 Br F3 N O3 S'
_chemical_formula_weight         438.26
_chemical_name_systematic
; 
 ? 
;
_space_group_crystal_system      triclinic
_space_group_IT_number           2
_space_group_name_Hall           '-P 1'
_space_group_name_H-M_alt        'P -1'
_symmetry_space_group_name_Hall  '-P 1'
_symmetry_space_group_name_H-M   'P -1'
_atom_sites_solution_hydrogens   mixed
_audit_creation_method           SHELXL-2013
_cell_angle_alpha                82.569(6)
_cell_angle_beta                 72.550(6)
_cell_angle_gamma                70.601(6)
_cell_formula_units_Z            2
_cell_length_a                   8.112(3)
_cell_length_b                   10.284(4)
_cell_length_c                   11.166(4)
_cell_measurement_reflns_used    944
_cell_measurement_temperature    100(2)
_cell_measurement_theta_max      27.45
_cell_measurement_theta_min      2.89
_cell_volume                     837.7(5)
_computing_cell_refinement       'Bruker SMART'
_computing_data_collection       'Bruker SMART'
_computing_data_reduction        'Bruker SAINT'
_computing_molecular_graphics    'Bruker SHELXTL'
_computing_publication_material  'Bruker SHELXTL'
_computing_structure_refinement  'SHELXL-2013 (Sheldrick, 2013)'
_computing_structure_solution    'Bruker SHELXTL'
_diffrn_ambient_temperature      100(2)
_diffrn_measured_fraction_theta_full 1.000
_diffrn_measured_fraction_theta_max 0.998
_diffrn_measurement_device_type  'CCD area detector'
_diffrn_measurement_method       'phi and omega scans'
_diffrn_radiation_type           MoK\a
_diffrn_radiation_wavelength     0.71073
_diffrn_reflns_av_R_equivalents  0.0257
_diffrn_reflns_av_unetI/netI     0.0271
_diffrn_reflns_Laue_measured_fraction_full 1.000
_diffrn_reflns_Laue_measured_fraction_max 0.998
_diffrn_reflns_limit_h_max       10
_diffrn_reflns_limit_h_min       -10
_diffrn_reflns_limit_k_max       13
_diffrn_reflns_limit_k_min       -13
_diffrn_reflns_limit_l_max       14
_diffrn_reflns_limit_l_min       -14
_diffrn_reflns_number            10955
_diffrn_reflns_point_group_measured_fraction_full 1.000
_diffrn_reflns_point_group_measured_fraction_max 0.998
_diffrn_reflns_theta_full        25.242
_diffrn_reflns_theta_max         27.483
_diffrn_reflns_theta_min         1.913
_exptl_absorpt_coefficient_mu    2.625
_exptl_absorpt_correction_T_max  0.7456
_exptl_absorpt_correction_T_min  0.5319
_exptl_absorpt_correction_type   multi-scan
_exptl_absorpt_process_details   'Sadabs, (Sheldrick 2012)'
_exptl_crystal_colour            Colourless
_exptl_crystal_density_diffrn    1.737
_exptl_crystal_density_meas      ?
_exptl_crystal_density_method    'Not Measured'
_exptl_crystal_description       Block
_exptl_crystal_F_000             440
_exptl_crystal_size_max          0.560
_exptl_crystal_size_mid          0.360
_exptl_crystal_size_min          0.200
_refine_diff_density_max         0.373
_refine_diff_density_min         -0.513
_refine_diff_density_rms         0.107
_refine_ls_extinction_method     none
_refine_ls_goodness_of_fit_ref   1.072
_refine_ls_hydrogen_treatment    mixed
_refine_ls_matrix_type           full
_refine_ls_number_parameters     231
_refine_ls_number_reflns         3834
_refine_ls_number_restraints     0
_refine_ls_restrained_S_all      1.072
_refine_ls_R_factor_all          0.0260
_refine_ls_R_factor_gt           0.0246
_refine_ls_shift/su_max          0.001
_refine_ls_shift/su_mean         0.000
_refine_ls_structure_factor_coef Fsqd
_refine_ls_weighting_details
'w=1/[\s^2^(Fo^2^)+(0.0365P)^2^+0.3364P] where P=(Fo^2^+2Fc^2^)/3'
_refine_ls_weighting_scheme      calc
_refine_ls_wR_factor_gt          0.0653
_refine_ls_wR_factor_ref         0.0660
_reflns_Friedel_coverage         0.000
_reflns_number_gt                3641
_reflns_number_total             3834
_reflns_threshold_expression     'I > 2\s(I)'
_cod_data_source_file            jo502416r_si_001.cif
_cod_data_source_block           E194
_cod_depositor_comments
;
The following automatic conversions were performed:

'_exptl_absorpt_correction_type' value 'Multi-scan' changed to
'multi-scan' according to
/usr/data/users/saulius/crontab/automatic-downloads/rss-feeds/ACS/lib/dictionaries/cif_core.dic
dictionary named 'cif_core.dic' version 2.4.2 from 2011-04-26.

'_exptl_crystal_density_meas' value 'Not Measured' was changed to '?'
- the value is perceived as not measured.

Automatic conversion script
Id: cif_fix_values 3008 2015-01-20 13:52:24Z robertas 

 Adding full bibliography for 4030691--4030696.cif.
;
_cod_original_cell_volume        837.8(5)
_cod_database_code               4030695
#BEGIN Tags that were not found in dictionaries:
_shelx_space_group_comment
; 
The symmetry employed for this shelxl refinement is uniquely defined 
by the following loop, which should always be used as a source of 
symmetry information in preference to the above space-group names. 
They are only intended as comments. 
;
_shelx_estimated_absorpt_t_min   0.321
_shelx_estimated_absorpt_t_max   0.622
_shelxl_version_number           2013-4
_shelx_res_file
; 
TITL E194 in P-1 
CELL 0.71073   8.1118  10.2845  11.1662  82.569  72.550  70.601 
ZERR    2.00   0.0028   0.0036   0.0039   0.006   0.006   0.006 
LATT 1 
SFAC C  H  O  N  F  S  Br 
UNIT 32 30 6 2 6 2 2 
OMIT  -1.00  55.00 
L.S. 4 
ACTA 
BOND 
FMAP 2 
PLAN 20 
EQIV $1  -x+1, -y+1, -z+2 
HTAB N1 O3_$1 
SIZE 0.56 0.36 0.20 
TEMP -173 
WGHT    0.036500    0.336400 
FVAR       0.17736 
BR1   7    0.049958    0.570639    0.806943    11.00000    0.01146    0.03063 = 
         0.02238    0.00109   -0.00233    0.00144 
S1    6    0.465302    0.293737    0.988510    11.00000    0.00797    0.01295 = 
         0.01140   -0.00081    0.00022   -0.00295 
F1    5    1.288971   -0.149777    0.755374    11.00000    0.01384    0.01636 = 
         0.02665   -0.00399   -0.00051    0.00014 
F2    5    1.300252    0.037399    0.646876    11.00000    0.01586    0.02986 = 
         0.01487    0.00253    0.00178   -0.00592 
F3    5    1.367377    0.001452    0.823080    11.00000    0.01000    0.03400 = 
         0.02371   -0.00839   -0.00472   -0.00310 
O1    3    1.112324    0.170449    0.419363    11.00000    0.01301    0.01869 = 
         0.01895   -0.00208    0.00379   -0.00246 
O2    3    0.358423    0.204948    0.997509    11.00000    0.01077    0.01720 = 
         0.01946   -0.00051   -0.00098   -0.00671 
O3    3    0.445228    0.365160    1.097609    11.00000    0.01372    0.01797 = 
         0.01280   -0.00250    0.00083   -0.00468 
N1    4    0.418852    0.414282    0.883570    11.00000    0.01204    0.01254 = 
         0.01277   -0.00029   -0.00085   -0.00326 
H1N   2    0.461184    0.475713    0.883413    11.00000    0.02101 
C1    1    0.301861    0.511747    0.704246    11.00000    0.01227    0.02300 = 
         0.01594    0.00175   -0.00086   -0.00066 
AFIX  23 
H1A   2    0.304997    0.493172    0.618649    11.00000   -1.20000 
H1B   2    0.355208    0.587059    0.697272    11.00000   -1.20000 
AFIX   0 
C2    1    0.415709    0.382329    0.760045    11.00000    0.01097    0.01698 = 
         0.01282   -0.00063   -0.00148   -0.00405 
AFIX  13 
H2    2    0.355140    0.309436    0.772279    11.00000   -1.20000 
AFIX   0 
C3    1    0.602676    0.330886    0.668133    11.00000    0.01196    0.01426 = 
         0.01130    0.00042   -0.00073   -0.00304 
C4    1    0.644159    0.218975    0.593950    11.00000    0.01476    0.01884 = 
         0.01477   -0.00045   -0.00328   -0.00699 
AFIX  43 
H4    2    0.553819    0.176872    0.600025    11.00000   -1.20000 
AFIX   0 
C5    1    0.814842    0.168369    0.511672    11.00000    0.01752    0.01443 = 
         0.01440   -0.00270   -0.00219   -0.00400 
AFIX  43 
H5    2    0.841136    0.091951    0.461906    11.00000   -1.20000 
AFIX   0 
C6    1    0.948415    0.229743    0.501862    11.00000    0.01208    0.01498 = 
         0.01165    0.00149   -0.00003   -0.00132 
C7    1    0.909629    0.341415    0.574996    11.00000    0.01477    0.01885 = 
         0.01635   -0.00024   -0.00107   -0.00759 
AFIX  43 
H7    2    0.999942    0.383578    0.568823    11.00000   -1.20000 
AFIX   0 
C8    1    0.737294    0.390805    0.657296    11.00000    0.01698    0.01564 = 
         0.01588   -0.00327    0.00041   -0.00642 
AFIX  43 
H8    2    0.710959    0.467126    0.707191    11.00000   -1.20000 
AFIX   0 
C9    1    1.248418    0.236659    0.396722    11.00000    0.01203    0.02723 = 
         0.02425    0.00265    0.00211   -0.00522 
AFIX 137 
H9A   2    1.201385    0.332299    0.367713    11.00000   -1.50000 
H9B   2    1.356263    0.187625    0.332303    11.00000   -1.50000 
H9C   2    1.281129    0.235550    0.474593    11.00000   -1.50000 
AFIX   0 
C10   1    0.697051    0.196604    0.933623    11.00000    0.00953    0.01350 = 
         0.01161    0.00045   -0.00145   -0.00274 
C11   1    0.741917    0.074773    0.872725    11.00000    0.01178    0.01626 = 
         0.01628   -0.00081   -0.00392   -0.00559 
AFIX  43 
H11   2    0.649543    0.040176    0.867188    11.00000   -1.20000 
AFIX   0 
C12   1    0.923911    0.004530    0.820152    11.00000    0.01361    0.01362 = 
         0.01575   -0.00288   -0.00316   -0.00261 
AFIX  43 
H12   2    0.957413   -0.078483    0.777545    11.00000   -1.20000 
AFIX   0 
C13   1    1.056905    0.056606    0.830321    11.00000    0.01026    0.01598 = 
         0.01081    0.00111   -0.00138   -0.00291 
C14   1    1.011537    0.176197    0.894732    11.00000    0.01142    0.01821 = 
         0.01688   -0.00125   -0.00294   -0.00579 
AFIX  43 
H14   2    1.104106    0.208510    0.903543    11.00000   -1.20000 
AFIX   0 
C15   1    0.829780    0.247860    0.946000    11.00000    0.01275    0.01481 = 
         0.01598   -0.00274   -0.00209   -0.00431 
AFIX  43 
H15   2    0.796339    0.330662    0.988911    11.00000   -1.20000 
AFIX   0 
C16   1    1.252073   -0.014198    0.765625    11.00000    0.01077    0.01805 = 
         0.01503   -0.00135   -0.00269   -0.00330 
  
HKLF 4 
  
REM  E194 in P-1 
REM R1 =  0.0246 for    3641 Fo > 4sig(Fo)  and  0.0260 for all    3834 data 
REM    231 parameters refined using      0 restraints 
  
END 
  
WGHT      0.0365      0.3364 
  
REM Highest difference peak  0.373,  deepest hole -0.513,  1-sigma level  0.107 
Q1    1   0.2801  0.4782  0.5766  11.00000  0.05    0.37 
Q2    1   0.4219  0.3628  0.9267  11.00000  0.05    0.35 
Q3    1   0.3741  0.6231  0.6552  11.00000  0.05    0.34 
Q4    1   0.4213  0.3931  0.8233  11.00000  0.05    0.30 
Q5    1   0.0285  0.4986  0.8025  11.00000  0.05    0.29 
Q6    1   0.6281  0.2610  0.6518  11.00000  0.05    0.28 
Q7    1   0.7285  0.2038  0.5465  11.00000  0.05    0.28 
Q8    1  -0.0510  0.5184  0.9791  11.00000  0.05    0.27 
Q9    1   0.0216  0.4964  0.8739  11.00000  0.05    0.26 
Q10   1   0.8677  0.2138  0.4843  11.00000  0.05    0.25 
Q11   1   0.0121  0.5466  0.7652  11.00000  0.05    0.25 
Q12   1   1.0409  0.2762  0.2982  11.00000  0.05    0.25 
Q13   1   0.9967  0.0231  0.8372  11.00000  0.05    0.24 
Q14   1   0.9204 -0.1424  0.8541  11.00000  0.05    0.24 
Q15   1   0.2717  0.3126  0.8322  11.00000  0.05    0.23 
Q16   1  -0.0031  0.6518  0.7435  11.00000  0.05    0.23 
Q17   1   0.0987  0.6484  0.7177  11.00000  0.05    0.22 
Q18   1   0.9057  0.0005  0.4200  11.00000  0.05    0.22 
Q19   1   0.0723  0.5787  0.8822  11.00000  0.05    0.22 
Q20   1   0.6770  0.3399  0.6837  11.00000  0.05    0.22 
;
_shelx_res_checksum              48584
_shelx_hkl_file
; 
  -1   0   0    6.70    0.28 
  -1   0   0    7.74    0.26 
   1   0   0    7.33    0.26 
   1   0   0    6.63    0.25 
  -2   0   0   35.75    1.36 
  -2   0   0   32.35    1.27 
   2   0   0   38.22    1.26 
   2   0   0   36.50    1.20 
  -3   0   0  147.40    5.68 
  -3   0   0  164.60    6.08 
   3   0   0  160.80    5.35 
   3   0   0  174.13    5.62 
  -4   0   0    9.94    0.42 
  -4   0   0    9.26    0.37 
   4   0   0    9.93    0.38 
   4   0   0    9.40    0.36 
  -5   0   0    9.56    0.38 
  -5   0   0    8.66    0.42 
   5   0   0   10.22    0.38 
   5   0   0    9.46    0.37 
  -6   0   0   15.97    0.62 
  -6   0   0   16.41    0.69 
   6   0   0   15.42    0.61 
   6   0   0   16.38    0.60 
  -7   0   0    3.42    0.24 
   7   0   0    3.49    0.20 
   7   0   0    3.63    0.20 
  -8   0   0   21.51    0.92 
   8   0   0   21.37    0.82 
   8   0   0   20.94    0.79 
  -9   0   0   22.47    0.99 
   9   0   0   22.94    0.86 
   9  -1   0   16.14    0.67 
  -9   1   0   17.43    0.79 
   8  -1   0    0.10    0.10 
  -8   1   0    0.37    0.14 
   7  -1   0    0.15    0.08 
   7  -1   0    0.05    0.08 
  -7   1   0    0.28    0.12 
   6  -1   0    5.55    0.27 
   6  -1   0    5.94    0.27 
  -6   1   0    5.74    0.31 
   5  -1   0    4.66    0.22 
   5  -1   0    4.48    0.21 
  -5   1   0    4.84    0.25 
  -5   1   0    4.64    0.21 
   4  -1   0  110.65    3.80 
   4  -1   0  101.68    3.63 
  -4   1   0  108.19    4.12 
  -4   1   0  115.07    3.85 
   3  -1   0   19.13    0.68 
   3  -1   0   20.41    0.71 
  -3   1   0   20.24    0.71 
  -3   1   0   18.45    0.77 
   2  -1   0  390.91   13.01 
   2  -1   0  399.24   13.62 
  -2   1   0  391.41   13.78 
  -2   1   0  384.07   14.72 
   1  -1   0   48.66    1.71 
   1  -1   0   48.18    1.63 
  -1   1   0   47.96    1.85 
  -1   1   0   50.53    1.73 
   0  -1   0    8.75    0.32 
   0   1   0    9.35    0.30 
   0   1   0    8.69    0.34 
   0   1   0    9.01    0.32 
   0   1   0    8.73    0.32 
  -1  -1   0   15.27    0.59 
  -1  -1   0   15.13    0.52 
   1   1   0   15.94    0.56 
   1   1   0   15.28    0.55 
   1   1   0   15.02    0.52 
  -2  -1   0   55.15    2.09 
  -2  -1   0   55.36    1.95 
   2   1   0   55.68    1.93 
   2   1   0   54.04    1.83 
  -3  -1   0    7.72    0.33 
  -3  -1   0    7.69    0.30 
   3   1   0    7.87    0.31 
   3   1   0    7.55    0.29 
  -4  -1   0   30.03    1.16 
  -4  -1   0   29.08    1.08 
   4   1   0   29.35    1.02 
   4   1   0   30.59    1.07 
  -5  -1   0    5.04    0.23 
  -5  -1   0    5.70    0.26 
   5   1   0    4.95    0.22 
   5   1   0    5.26    0.24 
  -6  -1   0   58.41    2.21 
  -6  -1   0   64.12    2.39 
   6   1   0   62.96    2.20 
   6   1   0   61.74    2.09 
  -7  -1   0    3.24    0.22 
   7   1   0    3.39    0.18 
   7   1   0    3.00    0.19 
  -8  -1   0   80.69    3.17 
   8   1   0   82.57    2.78 
   8   1   0   82.69    2.92 
  -9  -1   0    0.35    0.15 
   9   1   0    0.38    0.11 
   8  -2   0    0.40    0.12 
  -8   2   0    0.25    0.14 
   7  -2   0    0.57    0.11 
  -7   2   0    0.62    0.14 
   6  -2   0   13.62    0.53 
   6  -2   0   13.79    0.53 
  -6   2   0   13.48    0.61 
   5  -2   0    2.89    0.16 
   5  -2   0    2.74    0.17 
  -5   2   0    2.69    0.15 
  -5   2   0    2.77    0.20 
   4  -2   0  152.92    5.17 
   4  -2   0  143.87    4.94 
  -4   2   0  151.57    5.24 
  -4   2   0  145.89    5.61 
   3  -2   0  185.97    6.33 
   3  -2   0  196.04    6.63 
  -3   2   0  189.35    7.19 
  -3   2   0  192.78    6.72 
   2  -2   0  127.57    4.44 
   2  -2   0  128.61    4.25 
  -2   2   0  126.52    4.82 
  -2   2   0  129.14    4.51 
   1  -2   0   58.50    2.02 
   1  -2   0   58.59    1.93 
  -1   2   0   56.64    2.19 
   0   2   0    0.95    0.05 
   0   2   0    1.02    0.05 
   0   2   0    0.97    0.05 
   0   2   0    0.97    0.06 
  -1  -2   0   54.92    2.07 
   1   2   0   55.08    1.94 
   1   2   0   52.89    1.91 
   1   2   0   56.41    1.85 
  -2  -2   0  125.73    4.29 
  -2  -2   0  121.80    4.57 
   2   2   0  126.56    4.29 
   2   2   0  119.02    4.23 
   2   2   0  115.25    4.03 
  -3  -2   0    6.01    0.24 
  -3  -2   0    6.44    0.27 
   3   2   0    6.43    0.22 
   3   2   0    5.81    0.25 
  -4  -2   0  117.46    4.41 
  -4  -2   0  116.40    4.13 
   4   2   0  120.53    4.09 
   4   2   0  113.68    3.88 
  -5  -2   0    6.47    0.30 
  -5  -2   0    6.44    0.28 
   5   2   0    6.56    0.28 
   5   2   0    6.50    0.26 
  -6  -2   0  124.21    4.42 
  -6  -2   0  128.29    4.73 
   6   2   0  121.64    4.15 
   6   2   0  124.89    4.37 
  -7  -2   0    4.94    0.25 
  -7  -2   0    4.79    0.27 
   7   2   0    4.97    0.23 
   7   2   0    4.24    0.24 
  -8  -2   0   18.47    0.82 
   8   2   0   19.17    0.76 
   8   2   0   20.10    0.72 
  -9  -2   0   24.19    1.02 
   9   2   0   23.96    0.88 
   9   2   0   23.38    0.93 
   8  -3   0    0.36    0.13 
  -8   3   0    0.09    0.14 
   7  -3   0   11.11    0.48 
  -7   3   0   11.31    0.55 
   6  -3   0   30.29    1.10 
  -6   3   0   30.71    1.25 
   5  -3   0   46.18    1.58 
   5  -3   0   47.24    1.62 
  -5   3   0   44.14    1.64 
  -5   3   0   44.60    1.79 
   4  -3   0   44.45    1.54 
   4  -3   0   44.19    1.50 
  -4   3   0   42.75    1.70 
  -4   3   0   42.24    1.56 
   3  -3   0   32.71    1.12 
   3  -3   0   31.41    1.09 
  -3   3   0   30.61    1.14 
  -3   3   0   31.17    1.24 
   2  -3   0    1.13    0.06 
   2  -3   0    1.03    0.07 
  -2   3   0    0.90    0.08 
  -2   3   0    0.99    0.08 
   1  -3   0  156.56    5.26 
   1  -3   0  149.51    5.02 
  -1   3   0  147.53    5.70 
  -1   3   0  152.37    5.33 
   0   3   0    1.89    0.09 
   0   3   0    1.82    0.10 
   0   3   0    2.27    0.11 
   0   3   0    2.02    0.09 
  -1  -3   0   24.54    0.96 
   1   3   0   26.00    0.83 
   1   3   0   23.94    0.88 
   1   3   0   25.04    0.90 
  -2  -3   0   95.27    3.34 
  -2  -3   0   98.99    3.78 
   2   3   0  101.12    3.50 
   2   3   0  104.30    3.55 
   2   3   0  102.03    3.35 
  -3  -3   0   17.49    0.64 
  -3  -3   0   17.57    0.68 
   3   3   0   18.14    0.64 
   3   3   0   16.37    0.58 
  -4  -3   0   47.87    1.70 
  -4  -3   0   47.95    1.82 
   4   3   0   47.27    1.69 
   4   3   0   46.94    1.59 
  -5  -3   0   84.97    3.28 
  -5  -3   0   86.88    3.06 
   5   3   0   84.86    2.87 
   5   3   0   88.59    3.04 
  -6  -3   0    0.62    0.09 
  -6  -3   0    0.51    0.09 
   6   3   0    0.67    0.09 
   6   3   0    0.55    0.07 
  -7  -3   0    3.70    0.23 
   7   3   0    3.45    0.18 
   7   3   0    3.56    0.21 
  -8  -3   0    0.57    0.13 
   8   3   0    0.65    0.12 
   8   3   0    0.57    0.10 
  -9  -3   0   25.29    1.07 
   9   3   0   25.87    0.99 
 -10  -3   0    6.04    0.37 
  10   3   0    5.69    0.34 
   8  -4   0    4.44    0.30 
  -8   4   0    4.83    0.36 
   7  -4   0   38.11    1.36 
  -7   4   0   37.04    1.55 
   6  -4   0   18.13    0.70 
  -6   4   0   17.81    0.80 
   5  -4   0   43.15    1.50 
  -5   4   0   42.70    1.71 
   4  -4   0   33.97    1.24 
   4  -4   0   37.92    1.26 
  -4   4   0   35.03    1.29 
  -4   4   0   34.11    1.40 
   3  -4   0   27.00    0.89 
   3  -4   0   24.11    0.88 
  -3   4   0   26.36    0.92 
  -3   4   0   21.32    0.99 
   2  -4   0    0.19    0.04 
   2  -4   0    0.17    0.05 
  -2   4   0    0.16    0.05 
  -2   4   0    0.25    0.06 
   1  -4   0    6.06    0.24 
  -1   4   0    6.42    0.24 
  -1   4   0    5.97    0.26 
  -1   4   0    6.14    0.29 
   0  -4   0    4.35    0.17 
   0   4   0    4.31    0.18 
   0   4   0    4.32    0.19 
   0   4   0    4.27    0.21 
  -1  -4   0   33.09    1.30 
   1   4   0   35.03    1.13 
   1   4   0   33.85    1.22 
   1   4   0   32.51    1.19 
  -2  -4   0   48.03    1.83 
   2   4   0   49.53    1.60 
   2   4   0   46.11    1.69 
   2   4   0   48.69    1.72 
  -3  -4   0    1.07    0.09 
   3   4   0    1.08    0.05 
   3   4   0    1.12    0.09 
   3   4   0    1.02    0.08 
  -4  -4   0   74.80    2.83 
  -4  -4   0   73.27    2.65 
   4   4   0   72.47    2.47 
   4   4   0   77.79    2.63 
  -5  -4   0  114.36    4.07 
  -5  -4   0  115.77    4.35 
   5   4   0  116.99    3.81 
   5   4   0  112.58    4.03 
  -6  -4   0    1.80    0.14 
  -6  -4   0    1.83    0.15 
   6   4   0    1.66    0.11 
   6   4   0    1.88    0.15 
  -7  -4   0  167.45    6.50 
  -7  -4   0  179.13    6.08 
   7   4   0  168.94    6.02 
  -8  -4   0    0.34    0.11 
   8   4   0    0.31    0.11 
  -9  -4   0    2.10    0.20 
   9   4   0    1.89    0.19 
 -10  -4   0    0.25    0.15 
  10   4   0    0.34    0.15 
   7  -5   0   17.74    0.71 
  -7   5   0   17.28    0.82 
   6  -5   0   32.82    1.21 
  -6   5   0   33.89    1.39 
   5  -5   0    3.29    0.21 
  -5   5   0    3.14    0.24 
   4  -5   0   22.57    0.83 
  -4   5   0   22.50    0.86 
  -4   5   0   22.78    0.95 
   3  -5   0    1.05    0.08 
   3  -5   0    0.69    0.09 
  -3   5   0    0.96    0.12 
  -3   5   0    0.80    0.09 
   2  -5   0   17.47    0.62 
   2  -5   0   16.86    0.62 
  -2   5   0   16.91    0.65 
  -2   5   0   16.73    0.71 
   1  -5   0   33.53    1.13 
  -1   5   0   33.69    1.17 
  -1   5   0   31.71    1.29 
  -1   5   0   32.57    1.20 
   0  -5   0  179.98    5.64 
   0   5   0  161.20    6.41 
   0   5   0  165.60    5.91 
   0   5   0  173.51    6.00 
  -1  -5   0   19.16    0.78 
  -1  -5   0   20.08    0.67 
   1   5   0   19.55    0.73 
   1   5   0   18.79    0.70 
  -2  -5   0   43.04    1.64 
   2   5   0   43.30    1.54 
   2   5   0   43.34    1.42 
   2   5   0   41.15    1.51 
  -3  -5   0  254.97    9.52 
   3   5   0  260.39    8.93 
   3   5   0  245.69    8.80 
  -4  -5   0    0.99    0.09 
  -4  -5   0    1.19    0.11 
   4   5   0    1.35    0.10 
  -5  -5   0   35.38    1.27 
  -5  -5   0   33.97    1.35 
   5   5   0   35.00    1.26 
   5   5   0   34.00    1.16 
  -6  -5   0    6.67    0.30 
  -6  -5   0    6.35    0.32 
   6   5   0    6.92    0.32 
  -7  -5   0    0.80    0.11 
  -7  -5   0    0.72    0.12 
   7   5   0    0.68    0.12 
  -8  -5   0    0.46    0.11 
  -8  -5   0    0.39    0.12 
   8   5   0    0.38    0.12 
  -9  -5   0    0.00    0.12 
   9   5   0    0.17    0.12 
 -10  -5   0    0.27    0.15 
  10   5   0    0.52    0.16 
   7  -6   0    4.53    0.31 
  -7   6   0    4.67    0.36 
   6  -6   0   20.27    0.80 
  -6   6   0   20.56    0.92 
   5  -6   0    1.10    0.13 
  -5   6   0    0.98    0.17 
   4  -6   0    1.14    0.13 
  -4   6   0    1.07    0.15 
  -4   6   0    1.08    0.12 
   3  -6   0    0.11    0.08 
  -3   6   0    0.12    0.10 
  -3   6   0    0.19    0.07 
   2  -6   0   16.17    0.59 
   2  -6   0   16.28    0.60 
  -2   6   0   15.57    0.62 
  -2   6   0   15.95    0.69 
   1  -6   0    9.42    0.37 
  -1   6   0    9.28    0.44 
  -1   6   0   10.21    0.37 
  -1   6   0    8.96    0.39 
   0  -6   0    0.47    0.06 
   0   6   0    0.49    0.09 
   0   6   0    0.39    0.06 
   0   6   0    0.46    0.07 
  -1  -6   0   67.23    2.16 
  -1  -6   0   63.44    2.48 
   1   6   0   64.24    2.32 
   1   6   0   63.63    2.27 
  -2  -6   0   24.00    0.81 
  -2  -6   0   24.59    0.96 
   2   6   0   24.23    0.88 
   2   6   0   23.52    0.90 
  -3  -6   0   14.80    0.59 
   3   6   0   14.23    0.56 
   3   6   0   13.34    0.54 
  -4  -6   0   64.15    2.37 
   4   6   0   66.80    2.21 
   4   6   0   55.06    2.22 
  -5  -6   0    8.20    0.38 
  -5  -6   0    8.60    0.36 
  -6  -6   0    1.45    0.14 
  -6  -6   0    1.43    0.13 
   6   6   0    1.30    0.13 
  -7  -6   0    3.01    0.21 
  -7  -6   0    3.01    0.21 
   7   6   0    2.93    0.21 
  -8  -6   0    0.64    0.12 
  -8  -6   0    0.44    0.12 
   8   6   0    0.66    0.14 
  -9  -6   0   28.08    1.19 
   9   6   0   29.37    1.12 
   6  -7   0    1.23    0.18 
  -6   7   0    1.38    0.22 
   5  -7   0    0.78    0.14 
  -5   7   0    0.88    0.17 
   4  -7   0   11.88    0.50 
  -4   7   0   11.68    0.58 
   3  -7   0    0.59    0.10 
  -3   7   0    0.65    0.11 
  -3   7   0    0.70    0.14 
   2  -7   0   49.71    1.72 
  -2   7   0   50.57    1.82 
  -2   7   0   49.05    1.97 
   1  -7   0   12.44    0.47 
  -1   7   0   12.59    0.47 
  -1   7   0   12.38    0.56 
  -1   7   0   11.69    0.50 
   0  -7   0   32.84    1.08 
   0   7   0   28.67    1.15 
   0   7   0   30.73    1.25 
   0   7   0   32.23    1.13 
  -1  -7   0   10.52    0.47 
  -1  -7   0   10.94    0.39 
   1   7   0   10.57    0.42 
   1   7   0   10.39    0.44 
  -2  -7   0   18.75    0.65 
  -2  -7   0   18.97    0.77 
   2   7   0   18.10    0.70 
   2   7   0   19.63    0.73 
  -3  -7   0    0.10    0.07 
   3   7   0    0.42    0.07 
   3   7   0    0.23    0.08 
  -4  -7   0    0.96    0.11 
   4   7   0    1.28    0.11 
   4   7   0    0.99    0.11 
  -5  -7   0    0.12    0.07 
  -5  -7   0    0.04    0.07 
   5   7   0    0.04    0.08 
  -6  -7   0    0.04    0.08 
  -6  -7   0    0.03    0.08 
   6   7   0    0.08    0.09 
  -7  -7   0   12.19    0.50 
  -7  -7   0   11.63    0.53 
   7   7   0   11.62    0.51 
  -8  -7   0    1.93    0.18 
  -8  -7   0    2.04    0.18 
   8   7   0    1.81    0.18 
  -9  -7   0   19.67    0.85 
   9   7   0   19.94    0.81 
   5  -8   0    0.04    0.11 
  -5   8   0    0.02    0.16 
   4  -8   0    8.90    0.42 
  -4   8   0    9.25    0.50 
   3  -8   0    0.39    0.10 
  -3   8   0    0.27    0.14 
  -3   8   0    0.25    0.10 
   2  -8   0   45.80    1.58 
  -2   8   0   46.44    1.67 
  -2   8   0   43.46    1.81 
   1  -8   0   13.05    0.50 
  -1   8   0   12.67    0.53 
  -1   8   0   12.86    0.60 
   0  -8   0   23.92    0.81 
   0   8   0   22.17    0.84 
   0   8   0   21.86    0.86 
   0   8   0   22.02    0.94 
  -1  -8   0   21.39    0.91 
  -1  -8   0   22.22    0.77 
   1   8   0   22.33    0.82 
   1   8   0   21.68    0.85 
  -2  -8   0   11.59    0.52 
   2   8   0   12.34    0.50 
   2   8   0   11.53    0.47 
  -3  -8   0   24.63    0.99 
   3   8   0   24.41    0.91 
   3   8   0   24.56    0.94 
  -4  -8   0    0.00    0.07 
   4   8   0   -0.02    0.08 
   4   8   0    0.15    0.08 
  -5  -8   0    0.93    0.11 
  -5  -8   0    0.97    0.12 
   5   8   0    0.83    0.12 
  -6  -8   0    6.42    0.32 
  -6  -8   0    6.34    0.33 
   6   8   0    6.56    0.32 
  -7  -8   0    2.84    0.22 
  -7  -8   0    2.81    0.22 
   7   8   0    3.01    0.22 
  -8  -8   0   12.01    0.57 
  -8  -8   0   12.62    0.54 
   8   8   0   12.21    0.55 
  -9  -8   0    3.11    0.23 
  -9  -8   0    2.38    0.22 
   9   8   0    2.42    0.23 
   4  -9   0    2.62    0.22 
  -4   9   0    2.46    0.26 
   3  -9   0   10.39    0.46 
  -3   9   0   10.98    0.56 
   2  -9   0    9.32    0.41 
  -2   9   0    8.98    0.50 
  -2   9   0    9.67    0.44 
   1  -9   0   10.19    0.42 
  -1   9   0   10.05    0.51 
  -1   9   0   10.15    0.45 
   0  -9   0    0.75    0.14 
   0  -9   0    0.74    0.10 
   0   9   0    0.70    0.11 
   0   9   0    0.58    0.12 
  -1  -9   0    9.84    0.47 
   1   9   0    9.59    0.44 
   1   9   0    9.93    0.42 
  -2  -9   0   -0.06    0.08 
   2   9   0    0.04    0.09 
   2   9   0    0.13    0.08 
  -3  -9   0   10.75    0.49 
   3   9   0   10.81    0.47 
   3   9   0   10.98    0.45 
  -4  -9   0   35.26    1.41 
   4   9   0   36.08    1.31 
   4   9   0   35.57    1.34 
  -5  -9   0    0.73    0.12 
   5   9   0    0.45    0.12 
   5   9   0    0.68    0.12 
  -6  -9   0   13.99    0.61 
  -6  -9   0   13.59    0.58 
   6   9   0   13.39    0.58 
  -7  -9   0   20.48    0.82 
  -7  -9   0   19.66    0.86 
   7   9   0   21.20    0.83 
  -8  -9   0    4.47    0.29 
  -8  -9   0    4.70    0.29 
   8   9   0    5.09    0.31 
  -9  -9   0    1.44    0.20 
  -9  -9   0    1.73    0.20 
   9   9   0    2.07    0.22 
   3 -10   0   32.58    1.18 
  -3  10   0   31.70    1.39 
   2 -10   0    1.92    0.17 
  -2  10   0    1.67    0.23 
  -2  10   0    2.25    0.19 
   1 -10   0   21.90    0.80 
  -1  10   0   21.25    0.96 
  -1  10   0   21.35    0.86 
   0 -10   0    0.99    0.16 
   0  10   0    1.12    0.14 
  -1 -10   0   10.59    0.55 
   1  10   0   11.65    0.52 
   1  10   0   13.14    0.51 
  -2 -10   0    8.92    0.44 
   2  10   0    9.38    0.40 
   2  10   0    8.48    0.41 
  -3 -10   0   39.60    1.59 
   3  10   0   41.35    1.47 
   3  10   0   39.19    1.50 
  -4 -10   0    5.14    0.30 
   4  10   0    5.02    0.30 
   4  10   0    5.66    0.28 
  -5 -10   0   13.48    0.58 
   5  10   0   11.76    0.54 
   5  10   0   13.50    0.57 
  -6 -10   0   10.86    0.51 
  -6 -10   0   10.67    0.49 
   6  10   0   10.81    0.49 
  -7 -10   0    3.03    0.25 
  -7 -10   0    3.57    0.26 
   7  10   0    3.81    0.27 
  -8 -10   0    2.52    0.23 
  -8 -10   0    2.54    0.23 
   8  10   0    3.01    0.24 
   2 -11   0    0.66    0.14 
  -2  11   0    0.70    0.21 
   1 -11   0    2.44    0.26 
  -1  11   0    3.20    0.25 
   0 -11   0    0.16    0.14 
   0  11   0    0.20    0.12 
  -1 -11   0    4.29    0.30 
   1  11   0    4.07    0.27 
  -2 -11   0    0.21    0.12 
   2  11   0    0.10    0.11 
   2  11   0    0.25    0.12 
  -3 -11   0   30.81    1.29 
   3  11   0   32.40    1.19 
   3  11   0   31.75    1.22 
  -4 -11   0    0.13    0.11 
   4  11   0    0.13    0.12 
   4  11   0    0.11    0.11 
  -5 -11   0    6.79    0.37 
   5  11   0    6.78    0.37 
   5  11   0    7.06    0.36 
  -6 -11   0    0.41    0.13 
  -6 -11   0    0.56    0.14 
   6  11   0    0.41    0.13 
  -7 -11   0   11.60    0.55 
  -7 -11   0   10.98    0.53 
   7  11   0   11.56    0.53 
   1 -12   0   13.89    0.73 
  -1  12   0   15.73    0.66 
   0 -12   0    2.82    0.27 
   0  12   0    2.40    0.22 
  -1 -12   0   15.54    0.72 
   1  12   0   15.01    0.67 
  -2 -12   0    1.65    0.19 
   2  12   0    1.30    0.18 
  -3 -12   0    8.85    0.45 
   3  12   0    7.70    0.42 
   3  12   0    8.90    0.41 
  -4 -12   0   -0.03    0.12 
   4  12   0    0.15    0.13 
   4  12   0   -0.04    0.12 
  -5 -12   0    9.88    0.50 
   5  12   0   11.13    0.49 
   5  12   0   10.18    0.50 
  -6 -12   0    0.03    0.12 
  -6 -12   0    0.18    0.15 
   6  12   0    0.06    0.14 
  -2 -13   0    5.50    0.36 
   2  13   0    5.24    0.34 
  -3 -13   0    1.04    0.18 
   3  13   0    1.21    0.19 
  -4 -13   0    2.55    0.24 
   4  13   0    2.49    0.23 
   3  13  -1    0.22    0.15 
   2  13  -1    0.08    0.16 
  -2 -13   1    0.09    0.15 
   6  12  -1    4.65    0.31 
  -6 -12   1    4.53    0.31 
   5  12  -1    4.89    0.30 
  -5 -12   1    4.27    0.30 
   4  12  -1    0.52    0.14 
   4  12  -1    0.57    0.15 
  -4 -12   1    0.65    0.15 
  -4 -12   1    0.36    0.13 
   3  12  -1    9.07    0.43 
   3  12  -1    8.50    0.44 
  -3 -12   1    8.35    0.44 
   2  12  -1    1.42    0.18 
  -2 -12   1    1.17    0.17 
   1  12  -1   13.15    0.60 
  -1 -12   1   13.78    0.65 
   0  12  -1    0.36    0.14 
   0 -12   1    0.38    0.16 
  -1  12  -1    7.89    0.41 
   1 -12   1    7.28    0.46 
   7  11  -1    0.09    0.15 
  -7 -11   1   -0.05    0.15 
   6  11  -1   -0.03    0.13 
  -6 -11   1    0.12    0.13 
   5  11  -1   -0.08    0.12 
  -5 -11   1   -0.08    0.11 
  -5 -11   1    0.01    0.10 
   4  11  -1    5.15    0.32 
   4  11  -1    5.39    0.30 
  -4 -11   1    5.63    0.31 
   3  11  -1    1.11    0.16 
   3  11  -1    1.18    0.15 
  -3 -11   1    1.08    0.15 
   2  11  -1    0.31    0.12 
   2  11  -1    0.27    0.12 
  -2 -11   1    0.26    0.12 
   1  11  -1    8.74    0.44 
  -1 -11   1    9.77    0.48 
   0  11  -1    1.85    0.18 
   0 -11   1    1.71    0.21 
  -1  11  -1    3.78    0.26 
   1 -11   1    3.91    0.32 
  -2  11  -1    6.29    0.44 
   2 -11   1    7.12    0.35 
   8  10  -1    0.24    0.16 
  -8 -10   1    0.18    0.14 
   7  10  -1    3.55    0.27 
  -7 -10   1    3.67    0.28 
   6  10  -1    1.34    0.17 
  -6 -10   1    1.49    0.16 
  -6 -10   1    1.48    0.17 
   5  10  -1    6.37    0.32 
  -5 -10   1    5.70    0.31 
  -5 -10   1    5.60    0.32 
   4  10  -1   28.18    1.05 
   4  10  -1   26.64    1.07 
  -4 -10   1   27.64    1.11 
   3  10  -1    0.57    0.11 
   3  10  -1    0.65    0.13 
  -3 -10   1    0.68    0.12 
   2  10  -1   21.73    0.89 
   2  10  -1   23.69    0.87 
  -2 -10   1   22.04    0.94 
   1  10  -1    3.72    0.23 
   1  10  -1    3.34    0.23 
  -1 -10   1    3.46    0.25 
   0  10  -1   31.59    1.20 
   0 -10   1   31.19    1.30 
  -1  10  -1    0.48    0.13 
  -1  10  -1    0.58    0.16 
   1 -10   1    0.45    0.11 
  -2  10  -1    1.89    0.18 
  -2  10  -1    1.79    0.23 
   2 -10   1    1.60    0.16 
  -3  10  -1    1.38    0.23 
   3 -10   1    1.41    0.17 
   8   9  -1   -0.11    0.13 
  -8  -9   1    0.04    0.13 
   7   9  -1    5.06    0.31 
  -7  -9   1    5.24    0.31 
  -7  -9   1    5.09    0.31 
   6   9  -1    9.10    0.42 
  -6  -9   1    8.12    0.42 
  -6  -9   1    9.18    0.42 
   5   9  -1    4.18    0.24 
  -5  -9   1    4.37    0.26 
  -5  -9   1    4.23    0.25 
   4   9  -1   19.62    0.78 
   4   9  -1   18.29    0.75 
  -4  -9   1   20.27    0.81 
   3   9  -1    0.50    0.11 
   3   9  -1    0.62    0.10 
  -3  -9   1    0.77    0.11 
   2   9  -1   84.39    2.89 
   2   9  -1   79.73    2.93 
  -2  -9   1   80.15    3.12 
   1   9  -1    1.11    0.13 
   1   9  -1    1.30    0.13 
  -1  -9   1    1.40    0.15 
   0   9  -1    1.68    0.15 
   0   9  -1    1.78    0.15 
   0  -9   1    1.73    0.13 
   0  -9   1    1.61    0.17 
  -1   9  -1    6.40    0.33 
  -1   9  -1    6.24    0.37 
   1  -9   1    6.76    0.30 
  -2   9  -1    1.60    0.16 
  -2   9  -1    1.56    0.20 
   2  -9   1    1.72    0.15 
  -3   9  -1    0.21    0.16 
   3  -9   1   -0.05    0.10 
  -4   9  -1    8.36    0.49 
   4  -9   1    7.70    0.39 
   9   8  -1    0.72    0.17 
  -9  -8   1    0.35    0.15 
   8   8  -1    2.19    0.20 
  -8  -8   1    2.25    0.20 
  -8  -8   1    2.53    0.21 
   7   8  -1    2.29    0.19 
  -7  -8   1    2.12    0.19 
  -7  -8   1    2.49    0.20 
   6   8  -1   22.04    0.86 
  -6  -8   1   21.81    0.90 
  -6  -8   1   22.24    0.86 
   5   8  -1    7.99    0.37 
  -5  -8   1    7.61    0.37 
  -5  -8   1    8.10    0.37 
   4   8  -1   17.48    0.67 
  -4  -8   1   17.10    0.71 
   3   8  -1   18.67    0.73 
   3   8  -1   19.35    0.75 
  -3  -8   1   19.30    0.78 
   2   8  -1   13.57    0.57 
   2   8  -1   13.67    0.55 
  -2  -8   1   14.40    0.60 
   1   8  -1    4.05    0.24 
   1   8  -1    5.21    0.26 
  -1  -8   1    5.18    0.27 
  -1  -8   1    4.91    0.21 
   0   8  -1    1.68    0.14 
   0   8  -1    1.55    0.16 
   0   8  -1    1.60    0.14 
   0  -8   1    1.61    0.12 
  -1   8  -1    1.21    0.12 
  -1   8  -1    1.08    0.13 
  -1   8  -1    1.33    0.15 
   1  -8   1    1.31    0.12 
  -2   8  -1   39.30    1.43 
  -2   8  -1   36.90    1.56 
   2  -8   1   39.01    1.36 
  -3   8  -1   30.61    1.32 
  -3   8  -1   32.67    1.20 
   3  -8   1   32.37    1.16 
  -4   8  -1   73.22    2.93 
   4  -8   1   75.74    2.57 
  -5   8  -1    5.10    0.36 
   5  -8   1    4.69    0.30 
   9   7  -1   15.67    0.67 
  -9  -7   1   14.69    0.68 
  -9  -7   1   15.34    0.66 
   8   7  -1    2.89    0.24 
  -8  -7   1    3.09    0.23 
  -8  -7   1    3.42    0.24 
   7   7  -1   13.02    0.54 
  -7  -7   1   11.71    0.56 
  -7  -7   1   13.13    0.54 
   6   7  -1   34.05    1.26 
  -6  -7   1   33.79    1.27 
  -6  -7   1   33.67    1.34 
   5   7  -1   28.45    1.04 
  -5  -7   1   27.38    1.10 
  -5  -7   1   27.56    1.05 
   4   7  -1    0.19    0.08 
  -4  -7   1    0.22    0.08 
  -4  -7   1    0.15    0.07 
   3   7  -1   18.63    0.72 
   3   7  -1   19.31    0.74 
  -3  -7   1   19.59    0.78 
   2   7  -1   10.58    0.38 
   2   7  -1   10.38    0.42 
   2   7  -1   10.56    0.44 
  -2  -7   1   10.85    0.46 
   1   7  -1   22.91    0.79 
   1   7  -1   22.84    0.86 
   1   7  -1   21.87    0.84 
  -1  -7   1   23.10    0.92 
   0   7  -1   18.14    0.63 
   0   7  -1   14.66    0.63 
   0   7  -1   14.80    0.68 
   0  -7   1   17.22    0.59 
  -1   7  -1   19.69    0.70 
  -1   7  -1   17.55    0.71 
   1  -7   1   18.39    0.68 
  -2   7  -1   11.71    0.55 
  -2   7  -1   13.86    0.63 
   2  -7   1   15.22    0.54 
   2  -7   1   14.92    0.54 
  -3   7  -1    4.95    0.31 
  -3   7  -1    5.24    0.26 
   3  -7   1    5.00    0.26 
  -4   7  -1    9.26    0.49 
   4  -7   1    9.21    0.42 
  -5   7  -1   11.25    0.58 
   5  -7   1   11.29    0.50 
  -6   7  -1    5.59    0.37 
   6  -7   1    4.75    0.31 
   9   6  -1    5.62    0.33 
  -9  -6   1    5.40    0.33 
   8   6  -1   12.40    0.53 
  -8  -6   1   10.92    0.54 
  -8  -6   1   12.24    0.52 
   7   6  -1   17.22    0.70 
  -7  -6   1   18.04    0.70 
  -7  -6   1   16.67    0.73 
   6   6  -1    1.62    0.14 
  -6  -6   1    1.53    0.14 
  -6  -6   1    1.53    0.14 
   5   6  -1   53.19    1.90 
  -5  -6   1   53.65    1.92 
  -5  -6   1   51.81    2.03 
   4   6  -1    1.29    0.11 
  -4  -6   1    1.25    0.11 
  -4  -6   1    1.25    0.11 
   3   6  -1   19.52    0.74 
   3   6  -1   18.45    0.72 
   3   6  -1   19.58    0.65 
  -3  -6   1   19.29    0.77 
   2   6  -1   12.86    0.44 
   2   6  -1   12.88    0.50 
   2   6  -1   11.19    0.47 
  -2  -6   1   12.63    0.52 
   1   6  -1   53.74    1.78 
   1   6  -1   52.21    1.88 
   1   6  -1   51.77    1.91 
  -1  -6   1   54.34    2.04 
   0   6  -1   97.77    3.44 
   0   6  -1   98.79    3.48 
   0   6  -1   94.88    3.73 
   0   6  -1  100.55    3.27 
  -1   6  -1   16.82    0.66 
  -1   6  -1   17.24    0.73 
  -1   6  -1   17.67    0.65 
   1  -6   1   18.03    0.63 
  -2   6  -1   25.70    1.03 
  -2   6  -1   24.37    0.94 
   2  -6   1   24.82    0.92 
   2  -6   1   26.03    0.90 
  -3   6  -1   80.22    3.03 
  -3   6  -1   76.10    2.80 
   3  -6   1   78.59    2.75 
   3  -6   1   78.69    2.66 
  -4   6  -1    0.26    0.12 
   4  -6   1    0.42    0.10 
  -5   6  -1   15.25    0.70 
   5  -6   1   14.90    0.61 
  -6   6  -1    2.20    0.24 
   6  -6   1    1.97    0.19 
  -7   6  -1    7.38    0.47 
   7  -6   1    7.97    0.41 
   9   5  -1   17.19    0.70 
  -9  -5   1   15.99    0.73 
   8   5  -1    5.12    0.30 
  -8  -5   1    6.21    0.31 
  -8  -5   1    4.99    0.30 
   7   5  -1    6.10    0.32 
  -7  -5   1    6.19    0.32 
  -7  -5   1    6.62    0.31 
   6   5  -1   32.85    1.19 
  -6  -5   1   32.04    1.19 
  -6  -5   1   31.08    1.26 
   5   5  -1   16.42    0.66 
   5   5  -1   17.29    0.61 
  -5  -5   1   17.84    0.71 
  -5  -5   1   17.77    0.67 
   4   5  -1   12.25    0.44 
   4   5  -1   12.70    0.50 
  -4  -5   1   12.77    0.52 
  -4  -5   1   12.91    0.50 
   3   5  -1    5.61    0.20 
   3   5  -1    5.16    0.24 
  -3  -5   1    5.46    0.25 
  -3  -5   1    5.49    0.25 
   2   5  -1   54.28    2.00 
   2   5  -1   57.14    2.03 
   2   5  -1   56.70    1.88 
  -2  -5   1   58.44    2.16 
   1   5  -1   83.50    2.73 
   1   5  -1   78.68    2.87 
   1   5  -1   81.90    2.92 
  -1  -5   1   84.12    3.11 
   0   5  -1    5.76    0.25 
   0   5  -1    5.59    0.24 
   0   5  -1    5.62    0.23 
   0   5  -1    5.58    0.27 
  -1   5  -1   38.18    1.37 
  -1   5  -1   38.02    1.30 
  -1   5  -1   36.21    1.48 
  -1   5  -1   39.12    1.35 
  -2   5  -1   18.67    0.72 
   2  -5   1   19.56    0.70 
  -3   5  -1  109.97    4.29 
  -3   5  -1  110.86    3.98 
   3  -5   1  114.77    3.78 
   3  -5   1  114.53    3.93 
  -4   5  -1    0.11    0.07 
  -4   5  -1    0.16    0.09 
   4  -5   1    0.23    0.08 
   4  -5   1    0.18    0.06 
  -5   5  -1   19.23    0.83 
   5  -5   1   18.37    0.72 
  -6   5  -1    0.92    0.17 
   6  -5   1    0.81    0.13 
  -7   5  -1    6.31    0.41 
   7  -5   1    6.58    0.35 
   9   4  -1    4.22    0.27 
  -9  -4   1    4.10    0.28 
   8   4  -1   41.79    1.59 
  -8  -4   1   41.28    1.71 
  -8  -4   1   46.67    1.61 
   7   4  -1    0.12    0.09 
  -7  -4   1    0.11    0.09 
  -7  -4   1    0.12    0.09 
   6   4  -1   52.31    1.81 
   6   4  -1   52.51    1.93 
  -6  -4   1   54.91    2.08 
  -6  -4   1   55.78    1.95 
   5   4  -1    1.32    0.09 
   5   4  -1    1.33    0.11 
  -5  -4   1    1.38    0.11 
  -5  -4   1    1.43    0.12 
   4   4  -1   16.70    0.59 
   4   4  -1   17.16    0.64 
  -4  -4   1   17.57    0.68 
  -4  -4   1   16.57    0.64 
   3   4  -1  148.77    5.14 
   3   4  -1  143.33    4.88 
  -3  -4   1  149.11    5.55 
  -3  -4   1  149.60    5.21 
   2   4  -1   29.55    1.10 
   2   4  -1   30.68    1.03 
   2   4  -1   30.90    1.12 
  -2  -4   1   31.67    1.18 
   1   4  -1   76.20    2.44 
   1   4  -1   73.27    2.61 
   1   4  -1   70.38    2.57 
  -1  -4   1   74.33    2.78 
   0   4  -1  104.38    3.36 
   0   4  -1  102.96    3.57 
   0   4  -1   98.49    3.52 
   0   4  -1   98.21    3.81 
  -1   4  -1   44.83    1.60 
  -1   4  -1   46.14    1.62 
  -1   4  -1   46.14    1.53 
  -1   4  -1   44.03    1.74 
  -2   4  -1    9.97    0.39 
  -2   4  -1    9.36    0.43 
   2  -4   1   10.35    0.38 
   2  -4   1    9.98    0.38 
  -3   4  -1   17.56    0.75 
  -3   4  -1   17.88    0.68 
   3  -4   1   18.74    0.67 
   3  -4   1   18.84    0.67 
  -4   4  -1    9.95    0.47 
  -4   4  -1   10.16    0.40 
   4  -4   1   10.46    0.40 
   4  -4   1    9.79    0.41 
  -5   4  -1   20.78    0.88 
   5  -4   1   21.11    0.77 
   5  -4   1   19.97    0.77 
  -6   4  -1    0.24    0.12 
   6  -4   1    0.40    0.11 
  -7   4  -1    9.21    0.50 
   7  -4   1    9.49    0.43 
  -8   4  -1    3.13    0.29 
   8  -4   1    3.40    0.26 
   9   3  -1    0.14    0.12 
  -9  -3   1    0.28    0.13 
   8   3  -1   12.79    0.53 
   8   3  -1   12.08    0.48 
  -8  -3   1   12.28    0.56 
   7   3  -1    0.79    0.10 
   7   3  -1    0.75    0.11 
  -7  -3   1    0.81    0.12 
  -7  -3   1    0.64    0.11 
   6   3  -1    4.44    0.20 
   6   3  -1    4.53    0.23 
  -6  -3   1    4.39    0.23 
  -6  -3   1    4.46    0.24 
   5   3  -1   28.60    0.96 
   5   3  -1   28.75    1.03 
  -5  -3   1   27.50    1.03 
  -5  -3   1   27.31    1.10 
   4   3  -1   55.71    1.88 
   4   3  -1   56.62    1.99 
  -4  -3   1   57.17    2.14 
  -4  -3   1   55.27    2.01 
   3   3  -1    3.71    0.15 
   3   3  -1    3.63    0.18 
  -3  -3   1    3.98    0.18 
  -3  -3   1    4.83    0.19 
   2   3  -1  138.47    5.15 
   2   3  -1  147.48    4.91 
  -2  -3   1  155.47    5.23 
  -2  -3   1  152.09    5.57 
   1   3  -1   32.74    1.23 
   1   3  -1   35.01    1.25 
   1   3  -1   35.98    1.16 
  -1  -3   1   35.50    1.33 
   0   3  -1   92.11    2.94 
   0   3  -1   88.44    3.08 
   0   3  -1   88.51    3.12 
   0   3  -1   84.82    3.33 
  -1   3  -1   18.87    0.64 
  -1   3  -1   18.40    0.68 
  -1   3  -1   18.63    0.67 
  -1   3  -1   18.33    0.73 
  -2   3  -1   57.43    2.22 
  -2   3  -1   58.17    1.96 
  -2   3  -1   58.49    2.07 
   2  -3   1   58.88    2.04 
  -3   3  -1   41.18    1.44 
  -3   3  -1   39.23    1.56 
   3  -3   1   39.93    1.43 
   3  -3   1   40.77    1.38 
  -4   3  -1   18.90    0.71 
  -4   3  -1   20.03    0.80 
   4  -3   1   19.15    0.70 
   4  -3   1   19.13    0.71 
  -5   3  -1   38.54    1.53 
   5  -3   1   37.79    1.38 
   5  -3   1   39.22    1.35 
  -6   3  -1    1.61    0.17 
   6  -3   1    1.18    0.11 
   6  -3   1    1.44    0.14 
  -7   3  -1   58.05    2.31 
   7  -3   1   58.92    2.03 
  -8   3  -1   13.82    0.69 
   8  -3   1   14.29    0.60 
   9   2  -1    0.98    0.15 
  -9  -2   1    0.78    0.15 
   8   2  -1    0.02    0.09 
   8   2  -1   -0.01    0.10 
  -8  -2   1    0.41    0.12 
   7   2  -1    8.72    0.35 
   7   2  -1    8.30    0.38 
  -7  -2   1    7.87    0.40 
  -7  -2   1    8.92    0.39 
   6   2  -1  220.73    7.18 
   6   2  -1  217.61    7.55 
  -6  -2   1  213.89    8.16 
  -6  -2   1  214.32    7.64 
   5   2  -1    0.50    0.07 
   5   2  -1    0.49    0.07 
  -5  -2   1    0.47    0.08 
  -5  -2   1    0.61    0.08 
   4   2  -1  210.08    7.20 
   4   2  -1  203.06    6.84 
  -4  -2   1  209.34    7.78 
  -4  -2   1  205.70    7.28 
   3   2  -1   24.20    0.87 
   3   2  -1   23.43    0.82 
  -3  -2   1   24.69    0.93 
  -3  -2   1   23.98    0.88 
   2   2  -1   72.36    2.59 
   2   2  -1   74.95    2.46 
  -2  -2   1   74.39    2.80 
  -2  -2   1   74.71    2.63 
   1   2  -1   73.54    2.37 
   1   2  -1   67.33    2.49 
  -1  -2   1   74.38    2.70 
  -1  -2   1   71.04    2.53 
   0   2  -1    2.81    0.12 
   0   2  -1    3.01    0.13 
   0   2  -1    3.18    0.13 
   0   2  -1    3.05    0.12 
  -1   2  -1   28.32    1.09 
  -1   2  -1   28.00    0.96 
  -1   2  -1   28.20    1.01 
   1  -2   1   28.62    1.00 
  -2   2  -1    9.57    0.36 
  -2   2  -1    9.37    0.40 
  -2   2  -1    9.40    0.36 
   2  -2   1    9.72    0.36 
  -3   2  -1    5.72    0.28 
  -3   2  -1    6.07    0.24 
   3  -2   1    6.32    0.24 
  -4   2  -1   14.87    0.53 
  -4   2  -1   14.17    0.60 
   4  -2   1   13.74    0.52 
   4  -2   1   13.59    0.53 
  -5   2  -1    7.85    0.40 
  -5   2  -1    8.78    0.34 
   5  -2   1    8.67    0.35 
   5  -2   1    8.88    0.36 
  -6   2  -1   27.25    1.11 
   6  -2   1   26.66    1.00 
   6  -2   1   27.29    0.98 
  -7   2  -1   21.62    0.92 
   7  -2   1   21.63    0.82 
   7  -2   1   21.24    0.80 
  -8   2  -1   45.21    1.83 
   8  -2   1   45.14    1.60 
  -9   2  -1    2.86    0.29 
   9  -2   1    2.86    0.23 
   9   1  -1    7.94    0.38 
  -9  -1   1    8.23    0.45 
   8   1  -1   32.81    1.17 
   8   1  -1   33.11    1.22 
  -8  -1   1   32.59    1.34 
   7   1  -1    0.44    0.09 
   7   1  -1    0.26    0.09 
  -7  -1   1    0.29    0.10 
  -7  -1   1    0.22    0.09 
   6   1  -1   21.82    0.82 
   6   1  -1   22.28    0.78 
  -6  -1   1   21.37    0.88 
  -6  -1   1   21.42    0.83 
   5   1  -1    4.95    0.21 
   5   1  -1    4.70    0.22 
  -5  -1   1    4.41    0.23 
  -5  -1   1    4.69    0.24 
   4   1  -1   94.06    3.15 
   4   1  -1   96.10    3.31 
  -4  -1   1   95.57    3.58 
  -4  -1   1   92.83    3.35 
   3   1  -1   23.31    0.82 
   3   1  -1   25.11    0.87 
  -3  -1   1   24.16    0.88 
  -3  -1   1   23.89    0.93 
   2   1  -1  110.03    3.87 
   2   1  -1  109.60    3.69 
  -2  -1   1  112.86    3.92 
  -2  -1   1  113.33    4.19 
   1   1  -1   12.73    0.44 
   1   1  -1   13.00    0.46 
  -1  -1   1   12.56    0.47 
  -1  -1   1   13.07    0.50 
   0   1  -1   12.91    0.47 
   0   1  -1   11.80    0.50 
   0   1  -1   12.58    0.53 
   0  -1   1   13.22    0.50 
   0  -1   1   13.33    0.53 
  -1   1  -1   79.58    3.05 
  -1   1  -1   81.93    2.86 
  -1   1  -1   78.03    2.68 
   1  -1   1   83.76    2.82 
  -2   1  -1  302.97   12.05 
  -2   1  -1  320.84   11.28 
  -2   1  -1  330.97   10.57 
   2  -1   1  324.58   11.14 
  -3   1  -1    4.62    0.18 
  -3   1  -1    4.34    0.21 
   3  -1   1    4.78    0.19 
   3  -1   1    4.32    0.19 
  -4   1  -1   50.80    1.77 
  -4   1  -1   48.22    1.92 
   4  -1   1   50.99    1.76 
   4  -1   1   49.31    1.69 
  -5   1  -1   37.33    1.30 
  -5   1  -1   37.01    1.43 
   5  -1   1   32.58    1.25 
   5  -1   1   38.16    1.31 
  -6   1  -1   32.82    1.28 
   6  -1   1   32.20    1.12 
   6  -1   1   30.08    1.16 
  -7   1  -1    8.00    0.42 
   7  -1   1    8.14    0.36 
   7  -1   1    8.31    0.36 
  -8   1  -1   14.68    0.69 
   8  -1   1   15.03    0.60 
  -9   1  -1    1.61    0.22 
   9  -1   1    1.67    0.17 
   9   0  -1    0.88    0.15 
  -9   0   1    1.08    0.19 
   8   0  -1   35.47    1.27 
  -8   0   1   36.13    1.46 
   7   0  -1   36.88    1.27 
   7   0  -1   35.35    1.31 
  -7   0   1   35.59    1.44 
   6   0  -1   15.33    0.59 
   6   0  -1   16.02    0.61 
  -6   0   1   15.90    0.63 
  -6   0   1   16.48    0.68 
   5   0  -1   21.80    0.76 
   5   0  -1   22.23    0.79 
  -5   0   1   20.98    0.87 
  -5   0   1   20.77    0.80 
   4   0  -1   48.46    1.66 
   4   0  -1   50.39    1.74 
  -4   0   1   47.33    1.76 
  -4   0   1   50.52    1.89 
   3   0  -1   26.77    0.93 
   3   0  -1   27.83    0.97 
  -3   0   1   26.32    0.98 
  -3   0   1   27.47    1.05 
   2   0  -1  150.26    4.97 
   2   0  -1  142.29    4.74 
  -2   0   1  137.51    5.04 
  -2   0   1  142.51    5.37 
   1   0  -1  178.63    6.29 
   1   0  -1  177.30    6.00 
  -1   0   1  176.27    6.35 
  -1   0   1  190.88    6.82 
   0   0  -1   86.79    3.44 
   0   0  -1   91.54    3.44 
   0   0  -1   85.44    3.08 
   0   0   1   88.78    3.12 
  -1   0  -1    1.03    0.06 
  -1   0  -1    1.19    0.05 
   1   0   1    1.23    0.05 
  -2   0  -1   90.63    3.46 
  -2   0  -1   95.24    3.05 
  -2   0  -1   86.04    3.25 
   2   0   1   97.16    3.26 
   2   0   1   91.08    3.20 
  -3   0  -1   42.39    1.58 
  -3   0  -1   40.07    1.46 
   3   0   1   40.64    1.39 
   3   0   1   41.31    1.46 
  -4   0  -1  170.24    6.05 
  -4   0  -1  173.19    6.49 
   4   0   1  167.57    5.71 
   4   0   1  178.07    5.99 
  -5   0  -1   65.12    2.65 
  -5   0  -1   72.62    2.46 
   5   0   1   68.05    2.34 
   5   0   1   71.75    2.45 
  -6   0  -1   37.21    1.45 
   6   0   1   37.70    1.27 
   6   0   1   35.05    1.33 
  -7   0  -1   25.42    1.05 
   7   0   1   24.93    0.91 
   7   0   1   25.82    0.96 
  -8   0  -1    5.97    0.34 
   8   0   1    5.77    0.28 
   8   0   1    4.90    0.28 
  -9   0  -1    0.10    0.15 
   9   0   1   -0.02    0.10 
   9  -1  -1    6.36    0.34 
  -9   1   1    6.31    0.41 
   8  -1  -1    7.39    0.36 
  -8   1   1    7.78    0.43 
   7  -1  -1   41.95    1.48 
  -7   1   1   42.54    1.69 
   6  -1  -1   22.50    0.84 
   6  -1  -1   22.54    0.86 
  -6   1   1   24.02    0.88 
  -6   1   1   24.11    0.96 
   5  -1  -1   91.84    3.06 
   5  -1  -1   88.84    3.19 
  -5   1   1   91.46    3.47 
  -5   1   1   91.77    3.24 
   4  -1  -1    4.92    0.22 
   4  -1  -1    5.33    0.22 
  -4   1   1    5.15    0.23 
  -4   1   1    5.16    0.26 
   3  -1  -1  295.89    9.82 
   3  -1  -1  305.17   10.32 
  -3   1   1  295.44   11.14 
  -3   1   1  291.96   10.43 
   2  -1  -1   24.16    0.81 
   2  -1  -1   22.39    0.78 
  -2   1   1   22.48    0.83 
  -2   1   1   22.53    0.89 
   1  -1  -1   19.29    0.66 
   1  -1  -1   18.11    0.64 
  -1   1   1   19.78    0.68 
  -1   1   1   18.26    0.73 
   0  -1  -1    8.52    0.30 
   0  -1  -1    8.52    0.31 
   0   1   1    8.31    0.32 
   0   1   1    8.66    0.32 
   0   1   1    8.57    0.34 
   1   1   1   28.96    1.03 
   1   1   1   30.00    1.04 
   1   1   1   29.02    0.98 
  -2  -1  -1   42.71    1.42 
  -2  -1  -1   40.24    1.62 
   2   1   1   42.61    1.51 
   2   1   1   45.35    1.50 
  -3  -1  -1  215.34    8.24 
  -3  -1  -1  214.36    7.72 
   3   1   1  217.81    7.27 
   3   1   1  230.96    7.62 
  -4  -1  -1   18.82    0.68 
  -4  -1  -1   18.12    0.74 
   4   1   1   19.60    0.69 
   4   1   1   17.85    0.65 
  -5  -1  -1   29.85    1.16 
  -5  -1  -1   28.17    1.06 
   5   1   1   28.39    1.01 
   5   1   1   31.36    1.07 
  -6  -1  -1   10.86    0.44 
  -6  -1  -1   10.96    0.49 
   6   1   1   11.67    0.46 
   6   1   1   11.18    0.43 
  -7  -1  -1   31.14    1.25 
   7   1   1   31.65    1.09 
   7   1   1   29.82    1.14 
  -8  -1  -1   24.44    1.05 
   8   1   1   25.26    0.96 
   8   1   1   25.63    0.91 
  -9  -1  -1    0.30    0.15 
   9   1   1    0.20    0.11 
   9   1   1    0.45    0.12 
   8  -2  -1   10.50    0.47 
  -8   2   1   10.69    0.55 
   7  -2  -1   31.16    1.16 
  -7   2   1   33.69    1.33 
   6  -2  -1    0.50    0.10 
  -6   2   1    0.54    0.11 
   5  -2  -1    6.51    0.28 
   5  -2  -1    6.66    0.29 
  -5   2   1    6.84    0.30 
  -5   2   1    6.76    0.34 
   4  -2  -1    1.28    0.09 
   4  -2  -1    0.98    0.10 
  -4   2   1    1.52    0.11 
  -4   2   1    1.31    0.12 
   3  -2  -1    1.04    0.09 
   3  -2  -1    1.19    0.07 
  -3   2   1    1.33    0.11 
  -3   2   1    1.26    0.09 
   2  -2  -1  200.99    6.65 
   2  -2  -1  185.03    6.34 
  -2   2   1  194.54    6.74 
  -2   2   1  185.99    7.20 
   1  -2  -1   15.99    0.55 
   1  -2  -1   15.24    0.54 
  -1   2   1   16.02    0.62 
  -1   2   1   15.53    0.58 
   0  -2  -1   31.63    1.03 
   0   2   1   32.34    1.10 
   0   2   1   28.99    1.08 
   0   2   1   30.28    1.18 
  -1  -2  -1  766.47   33.06 
   1   2   1 1000.00   31.08 
  -2  -2  -1    5.78    0.26 
  -2  -2  -1    6.19    0.22 
   2   2   1    6.24    0.24 
   2   2   1    5.96    0.24 
  -3  -2  -1  156.17    6.05 
  -3  -2  -1  159.63    5.66 
   3   2   1  168.26    5.60 
   3   2   1  160.06    5.32 
  -4  -2  -1   14.47    0.59 
  -4  -2  -1   14.52    0.53 
   4   2   1   14.56    0.55 
   4   2   1   14.28    0.50 
  -5  -2  -1   50.48    1.79 
  -5  -2  -1   51.98    1.94 
   5   2   1   50.25    1.79 
   5   2   1   47.84    1.69 
  -6  -2  -1   35.68    1.42 
  -6  -2  -1   36.08    1.30 
   6   2   1   34.37    1.23 
   6   2   1   37.75    1.31 
  -7  -2  -1   31.60    1.28 
   7   2   1   31.91    1.11 
   7   2   1   31.91    1.18 
  -8  -2  -1    5.61    0.33 
   8   2   1    5.88    0.27 
   8   2   1    5.38    0.29 
  -9  -2  -1   10.32    0.52 
   9   2   1   10.92    0.48 
   9   2   1   10.63    0.44 
 -10  -2  -1   20.83    0.93 
  10   2   1   20.92    0.85 
   8  -3  -1   23.01    0.89 
  -8   3   1   22.89    1.01 
   7  -3  -1    1.48    0.16 
  -7   3   1    1.26    0.18 
   6  -3  -1    2.81    0.20 
  -6   3   1    3.11    0.24 
   5  -3  -1    0.06    0.07 
  -5   3   1    0.04    0.07 
  -5   3   1   -0.05    0.09 
   4  -3  -1    5.04    0.24 
   4  -3  -1    5.47    0.23 
  -4   3   1    5.71    0.25 
  -4   3   1    5.48    0.29 
   3  -3  -1  124.79    4.19 
   3  -3  -1  130.79    4.38 
  -3   3   1  120.96    4.76 
  -3   3   1  126.87    4.45 
   2  -3  -1    3.85    0.17 
   2  -3  -1    4.00    0.16 
  -2   3   1    4.10    0.21 
  -2   3   1    3.89    0.18 
   1  -3  -1  144.58    4.81 
   1  -3  -1  146.17    5.05 
  -1   3   1  145.10    5.12 
  -1   3   1  145.21    5.47 
   0  -3  -1    1.32    0.07 
   0   3   1    1.34    0.08 
   0   3   1    1.21    0.06 
   0   3   1    1.52    0.09 
  -1  -3  -1  137.67    5.33 
  -1  -3  -1  146.56    4.69 
   1   3   1  146.62    5.00 
   1   3   1  136.18    4.92 
  -2  -3  -1   79.20    3.00 
   2   3   1   78.06    2.77 
   2   3   1   81.18    2.81 
  -3  -3  -1   65.93    2.53 
   3   3   1   66.08    2.21 
   3   3   1   65.55    2.34 
   3   3   1   68.95    2.37 
  -4  -3  -1    1.65    0.12 
  -4  -3  -1    1.50    0.10 
   4   3   1    1.59    0.10 
   4   3   1    1.67    0.08 
  -5  -3  -1    2.64    0.14 
  -5  -3  -1    2.71    0.17 
   5   3   1    2.62    0.13 
   5   3   1    2.79    0.16 
  -6  -3  -1    0.84    0.09 
  -6  -3  -1    0.81    0.11 
   6   3   1    0.86    0.10 
   6   3   1    0.79    0.07 
  -7  -3  -1   17.37    0.76 
  -7  -3  -1   18.86    0.70 
   7   3   1   17.63    0.65 
   7   3   1   18.52    0.71 
  -8  -3  -1    0.17    0.11 
   8   3   1    0.39    0.10 
   8   3   1    0.25    0.08 
  -9  -3  -1   55.19    2.15 
   9   3   1   53.53    1.98 
 -10  -3  -1    0.44    0.16 
  10   3   1    0.26    0.13 
   7  -4  -1    0.18    0.12 
  -7   4   1    0.12    0.14 
   6  -4  -1    1.70    0.16 
  -6   4   1    1.99    0.20 
   5  -4  -1    8.96    0.39 
  -5   4   1    8.48    0.39 
  -5   4   1    9.45    0.45 
   4  -4  -1    2.45    0.15 
  -4   4   1    2.18    0.18 
  -4   4   1    2.20    0.16 
   3  -4  -1   77.34    2.59 
   3  -4  -1   73.67    2.50 
  -3   4   1   74.20    2.85 
  -3   4   1   71.60    2.65 
   2  -4  -1   86.75    2.93 
   2  -4  -1   91.91    3.05 
  -2   4   1   86.05    3.11 
  -2   4   1   85.30    3.33 
   1  -4  -1   37.24    1.24 
   1  -4  -1   34.42    1.20 
  -1   4   1   35.23    1.38 
  -1   4   1   33.95    1.28 
   0  -4  -1  181.08    5.80 
   0   4   1  169.60    6.08 
   0   4   1  168.91    6.59 
   0   4   1  181.82    6.18 
  -1  -4  -1  126.12    5.06 
  -1  -4  -1  141.18    4.45 
   1   4   1  132.12    4.67 
   1   4   1  138.18    4.74 
  -2  -4  -1    9.90    0.41 
   2   4   1    9.82    0.38 
   2   4   1    9.51    0.37 
  -3  -4  -1   26.05    1.03 
   3   4   1   26.62    0.95 
   3   4   1   26.67    0.97 
  -4  -4  -1    8.75    0.38 
   4   4   1    8.65    0.30 
   4   4   1    8.95    0.36 
   4   4   1    8.77    0.35 
  -5  -4  -1   98.88    3.68 
  -5  -4  -1   94.91    3.43 
   5   4   1   95.87    3.21 
   5   4   1   98.03    3.41 
  -6  -4  -1    0.25    0.07 
  -6  -4  -1    0.24    0.08 
   6   4   1    0.26    0.05 
   6   4   1    0.26    0.08 
  -7  -4  -1   61.16    2.15 
  -7  -4  -1   59.96    2.32 
   7   4   1   58.02    2.14 
  -8  -4  -1    6.85    0.35 
   8   4   1    6.14    0.32 
  -9  -4  -1   17.52    0.76 
   9   4   1   16.15    0.69 
 -10  -4  -1    2.93    0.26 
  10   4   1    2.70    0.23 
   7  -5  -1    0.56    0.15 
  -7   5   1    0.58    0.17 
   6  -5  -1   12.85    0.54 
  -6   5   1   12.66    0.62 
   5  -5  -1   18.02    0.69 
  -5   5   1   17.87    0.79 
   4  -5  -1   27.53    0.98 
  -4   5   1   26.65    1.12 
  -4   5   1   27.68    1.03 
   3  -5  -1    0.85    0.10 
  -3   5   1    0.75    0.12 
  -3   5   1    0.94    0.11 
   2  -5  -1   41.27    1.39 
   2  -5  -1   41.43    1.42 
  -2   5   1   38.77    1.58 
  -2   5   1   39.96    1.47 
   1  -5  -1   76.22    2.53 
   1  -5  -1   74.67    2.44 
  -1   5   1   66.85    2.77 
  -1   5   1   72.37    2.59 
   0  -5  -1    1.99    0.10 
   0   5   1    1.94    0.14 
   0   5   1    1.72    0.12 
   0   5   1    1.90    0.10 
  -1  -5  -1    1.31    0.07 
  -1  -5  -1    1.38    0.10 
   1   5   1    1.16    0.10 
   1   5   1    1.15    0.08 
  -2  -5  -1   31.35    1.07 
  -2  -5  -1   32.39    1.25 
   2   5   1   31.95    1.14 
   2   5   1   32.65    1.17 
  -3  -5  -1   50.91    1.96 
   3   5   1   51.10    1.81 
   3   5   1   51.68    1.84 
  -4  -5  -1   13.28    0.55 
   4   5   1   13.40    0.52 
   4   5   1   13.05    0.51 
  -5  -5  -1   22.09    0.82 
  -5  -5  -1   22.79    0.88 
   5   5   1   20.66    0.73 
  -6  -5  -1   46.07    1.75 
  -6  -5  -1   44.80    1.62 
   6   5   1   43.41    1.62 
  -7  -5  -1   16.67    0.64 
  -7  -5  -1   15.91    0.69 
   7   5   1   16.04    0.65 
  -8  -5  -1   18.68    0.69 
  -8  -5  -1   17.07    0.74 
   8   5   1   15.70    0.69 
  -9  -5  -1    2.28    0.21 
   9   5   1    2.29    0.20 
 -10  -5  -1    7.33    0.42 
  10   5   1    7.57    0.40 
   6  -6  -1   52.28    1.87 
  -6   6   1   54.19    2.15 
   5  -6  -1    3.77    0.23 
  -5   6   1    3.63    0.29 
   4  -6  -1   44.48    1.57 
  -4   6   1   46.56    1.66 
  -4   6   1   43.94    1.80 
   3  -6  -1  206.91    6.54 
  -3   6   1  205.90    7.44 
  -3   6   1  176.35    6.93 
   2  -6  -1   31.26    1.10 
  -2   6   1   31.50    1.17 
  -2   6   1   31.60    1.27 
   1  -6  -1    1.13    0.08 
   1  -6  -1    1.15    0.09 
  -1   6   1    1.39    0.13 
  -1   6   1    1.03    0.11 
   0  -6  -1   13.39    0.47 
   0   6   1   12.36    0.56 
   0   6   1   13.29    0.49 
   0   6   1   12.84    0.52 
  -1  -6  -1    1.53    0.13 
  -1  -6  -1    1.40    0.08 
   1   6   1    1.39    0.09 
   1   6   1    1.21    0.11 
  -2  -6  -1   44.58    1.51 
  -2  -6  -1   44.64    1.76 
   2   6   1   47.16    1.61 
   2   6   1   45.62    1.65 
  -3  -6  -1   32.99    1.29 
   3   6   1   33.53    1.21 
   3   6   1   31.85    1.18 
  -4  -6  -1    4.85    0.25 
   4   6   1    4.86    0.24 
   4   6   1    4.91    0.23 
  -5  -6  -1   21.40    0.88 
   5   6   1   21.61    0.82 
   5   6   1   21.90    0.82 
  -6  -6  -1   76.36    2.87 
  -6  -6  -1   74.10    2.68 
   6   6   1   73.81    2.66 
  -7  -6  -1    1.84    0.17 
  -7  -6  -1    2.19    0.17 
   7   6   1    2.04    0.17 
  -8  -6  -1    8.02    0.36 
  -8  -6  -1    7.22    0.38 
   8   6   1    7.05    0.37 
  -9  -6  -1    0.27    0.14 
   9   6   1    0.27    0.13 
 -10  -6  -1    5.24    0.35 
  10   6   1    5.91    0.35 
   6  -7  -1    3.75    0.27 
  -6   7   1    3.23    0.31 
   5  -7  -1   19.80    0.78 
  -5   7   1   20.20    0.90 
   4  -7  -1   13.52    0.57 
  -4   7   1   14.66    0.67 
   3  -7  -1    2.68    0.18 
  -3   7   1    2.99    0.24 
  -3   7   1    2.54    0.19 
   2  -7  -1   24.25    0.86 
  -2   7   1   24.23    1.00 
  -2   7   1   22.89    0.91 
   1  -7  -1   13.05    0.54 
  -1   7   1   15.61    0.59 
  -1   7   1   15.20    0.65 
   0  -7  -1   20.38    0.71 
   0   7   1   18.60    0.73 
   0   7   1   20.98    0.77 
  -1  -7  -1   32.25    1.03 
  -1  -7  -1   26.28    1.20 
   1   7   1   30.51    1.09 
   1   7   1   31.70    1.13 
  -2  -7  -1   19.40    0.79 
  -2  -7  -1   19.74    0.66 
   2   7   1   17.91    0.71 
   2   7   1   20.23    0.75 
  -3  -7  -1   17.29    0.69 
   3   7   1   15.94    0.63 
   3   7   1   16.66    0.65 
  -4  -7  -1   65.75    2.57 
   4   7   1   67.16    2.41 
   4   7   1   67.74    2.37 
  -5  -7  -1   14.07    0.62 
   5   7   1   14.79    0.58 
   5   7   1   14.57    0.58 
  -6  -7  -1    6.36    0.33 
  -6  -7  -1    6.31    0.30 
   6   7   1    6.36    0.31 
  -7  -7  -1    1.65    0.16 
  -7  -7  -1    1.60    0.14 
   7   7   1    1.55    0.16 
  -8  -7  -1    2.06    0.17 
  -8  -7  -1    1.82    0.18 
   8   7   1    2.00    0.18 
  -9  -7  -1    0.27    0.14 
   9   7   1    0.57    0.15 
   5  -8  -1   39.54    1.41 
  -5   8   1   38.15    1.62 
   4  -8  -1    5.57    0.30 
  -4   8   1    5.60    0.38 
   3  -8  -1    0.56    0.11 
  -3   8   1    0.62    0.16 
  -3   8   1    0.61    0.12 
   2  -8  -1    0.75    0.11 
  -2   8   1    0.93    0.13 
  -2   8   1    0.61    0.14 
   1  -8  -1    7.81    0.32 
  -1   8   1    6.86    0.34 
  -1   8   1    7.26    0.40 
   0  -8  -1   21.91    0.78 
   0   8   1   21.99    0.82 
   0   8   1   22.30    0.94 
   0   8   1   21.93    0.85 
  -1  -8  -1    3.13    0.22 
  -1  -8  -1    2.95    0.15 
   1   8   1    3.08    0.17 
   1   8   1    3.25    0.20 
  -2  -8  -1   33.47    1.34 
   2   8   1   34.57    1.26 
   2   8   1   33.28    1.22 
  -3  -8  -1   34.81    1.33 
   3   8   1   32.31    1.25 
   3   8   1   33.31    1.22 
  -4  -8  -1    6.54    0.33 
   4   8   1    5.98    0.31 
   4   8   1    6.78    0.30 
  -5  -8  -1   26.01    1.08 
   5   8   1   27.41    1.02 
   5   8   1   26.73    1.00 
  -6  -8  -1    0.09    0.10 
  -6  -8  -1    0.00    0.08 
   6   8   1    0.14    0.10 
  -7  -8  -1    8.61    0.43 
  -7  -8  -1    8.76    0.40 
   7   8   1    8.46    0.41 
  -8  -8  -1    0.33    0.12 
  -8  -8  -1    0.36    0.13 
   8   8   1    0.33    0.13 
  -9  -8  -1    0.09    0.13 
   9   8   1   -0.14    0.12 
   4  -9  -1   -0.06    0.11 
  -4   9   1    0.19    0.18 
   3  -9  -1    0.66    0.13 
  -3   9   1    0.72    0.15 
  -3   9   1    0.69    0.17 
   2  -9  -1    0.76    0.12 
  -2   9   1    0.83    0.13 
  -2   9   1    0.83    0.18 
   1  -9  -1   22.56    0.81 
  -1   9   1   22.61    0.88 
  -1   9   1   21.32    0.96 
   0  -9  -1    0.79    0.09 
   0  -9  -1    0.54    0.13 
   0   9   1    0.55    0.11 
  -1  -9  -1   39.06    1.61 
  -1  -9  -1   40.35    1.37 
   1   9   1   39.04    1.49 
   1   9   1   42.14    1.46 
  -2  -9  -1    1.30    0.14 
   2   9   1    1.31    0.12 
   2   9   1    1.16    0.14 
  -3  -9  -1    5.97    0.32 
   3   9   1    6.09    0.28 
   3   9   1    5.90    0.30 
  -4  -9  -1   15.65    0.66 
   4   9   1   15.34    0.62 
   4   9   1   14.23    0.59 
  -5  -9  -1    0.57    0.12 
   5   9   1    0.47    0.12 
   5   9   1    0.50    0.11 
  -6  -9  -1    1.67    0.16 
  -6  -9  -1    1.99    0.17 
   6   9   1    1.69    0.17 
   6   9   1    1.99    0.17 
  -7  -9  -1    1.66    0.16 
  -7  -9  -1    1.32    0.16 
   7   9   1    1.36    0.16 
  -8  -9  -1   10.22    0.48 
  -8  -9  -1    9.95    0.50 
   8   9   1   10.74    0.49 
  -9  -9  -1    2.15    0.21 
  -9  -9  -1    1.96    0.21 
   9   9   1    2.09    0.22 
   3 -10  -1    3.97    0.26 
  -3  10   1    3.86    0.33 
   2 -10  -1    0.11    0.10 
  -2  10   1    0.11    0.12 
  -2  10   1    0.21    0.15 
   1 -10  -1   28.93    1.04 
  -1  10   1   29.45    1.24 
  -1  10   1   28.67    1.13 
   0 -10  -1    0.11    0.12 
   0  10   1    0.31    0.11 
  -1 -10  -1   32.94    1.35 
   1  10   1   32.59    1.25 
  -2 -10  -1    2.24    0.20 
   2  10   1    2.63    0.18 
   2  10   1    2.15    0.18 
  -3 -10  -1    2.15    0.19 
   3  10   1    2.38    0.19 
   3  10   1    2.30    0.18 
  -4 -10  -1   39.40    1.58 
   4  10   1   40.40    1.45 
   4  10   1   38.68    1.48 
  -5 -10  -1    1.38    0.16 
   5  10   1    1.25    0.14 
   5  10   1    0.95    0.14 
  -6 -10  -1    1.19    0.16 
   6  10   1    1.23    0.16 
   6  10   1    1.15    0.15 
  -7 -10  -1    3.29    0.25 
  -7 -10  -1    3.26    0.25 
   7  10   1    3.04    0.24 
  -8 -10  -1    0.01    0.12 
  -8 -10  -1    0.18    0.14 
   8  10   1    0.12    0.14 
   2 -11  -1    3.66    0.24 
  -2  11   1    3.30    0.27 
  -2  11   1    3.35    0.32 
   1 -11  -1    7.88    0.47 
  -1  11   1    8.32    0.42 
   0 -11  -1   17.48    0.81 
   0  11   1   17.42    0.73 
  -1 -11  -1    0.90    0.17 
   1  11   1    0.76    0.14 
  -2 -11  -1    2.33    0.21 
   2  11   1    2.58    0.21 
  -3 -11  -1    1.02    0.16 
   3  11   1    1.10    0.14 
   3  11   1    1.00    0.15 
  -4 -11  -1    1.58    0.17 
   4  11   1    1.69    0.17 
   4  11   1    1.63    0.18 
  -5 -11  -1   16.58    0.74 
   5  11   1   16.76    0.68 
   5  11   1   16.88    0.71 
  -6 -11  -1    2.13    0.20 
   6  11   1    2.54    0.21 
   6  11   1    2.25    0.22 
  -7 -11  -1    9.79    0.50 
  -7 -11  -1    9.63    0.47 
   7  11   1   10.06    0.48 
  -8 -11  -1    0.24    0.15 
  -8 -11  -1    0.13    0.14 
   8  11   1    0.03    0.15 
   1 -12  -1    0.11    0.17 
  -1  12   1    0.02    0.14 
   0 -12  -1   10.92    0.59 
   0  12   1   11.40    0.53 
  -1 -12  -1    1.83    0.22 
   1  12   1    1.90    0.21 
  -2 -12  -1    8.69    0.47 
   2  12   1    8.66    0.44 
  -3 -12  -1    6.11    0.36 
   3  12   1    6.30    0.35 
  -4 -12  -1    3.32    0.27 
   4  12   1    3.60    0.24 
   4  12   1    3.24    0.26 
  -5 -12  -1    3.32    0.26 
   5  12   1    3.42    0.27 
   5  12   1    3.60    0.26 
  -6 -12  -1    5.44    0.35 
   6  12   1    5.90    0.36 
   6  12   1    6.40    0.34 
  -7 -12  -1   13.33    0.65 
  -7 -12  -1   14.08    0.63 
   7  12   1   14.64    0.63 
  -2 -13  -1    0.79    0.19 
   2  13   1    0.83    0.18 
  -3 -13  -1    0.04    0.15 
   3  13   1    0.21    0.15 
  -4 -13  -1    7.00    0.41 
   4  13   1    6.74    0.40 
  -5 -13  -1    1.75    0.21 
   5  13   1    1.93    0.22 
   5  13   1    2.16    0.22 
   5  12  -2    1.22    0.18 
  -5 -12   2    1.14    0.18 
   4  12  -2    3.80    0.28 
  -4 -12   2    3.80    0.28 
   3  12  -2   19.22    0.79 
  -3 -12   2   18.92    0.80 
   2  12  -2    3.51    0.27 
   2  12  -2    3.86    0.28 
   1  12  -2    2.69    0.23 
  -1 -12   2    2.62    0.23 
   0  12  -2    1.33    0.19 
   0 -12   2    1.36    0.20 
   7  11  -2    1.16    0.18 
  -7 -11   2    1.01    0.18 
   6  11  -2    9.32    0.45 
  -6 -11   2    8.50    0.44 
   5  11  -2    3.39    0.25 
  -5 -11   2    3.14    0.25 
   4  11  -2   11.84    0.51 
  -4 -11   2   10.85    0.52 
   3  11  -2    0.61    0.13 
  -3 -11   2    0.63    0.13 
  -3 -11   2    0.75    0.14 
   2  11  -2    4.25    0.28 
   2  11  -2    4.87    0.29 
  -2 -11   2    4.13    0.27 
   1  11  -2    0.56    0.15 
   1  11  -2    0.83    0.16 
  -1 -11   2    0.69    0.14 
   0  11  -2    0.02    0.12 
   0 -11   2   -0.06    0.13 
  -1  11  -2    2.84    0.23 
   1 -11   2    2.61    0.25 
  -2  11  -2    7.50    0.46 
   2 -11   2    6.98    0.37 
   7  10  -2    2.18    0.22 
  -7 -10   2    1.92    0.21 
   6  10  -2    1.21    0.17 
  -6 -10   2    1.16    0.17 
   5  10  -2    7.24    0.37 
  -5 -10   2    6.92    0.37 
   4  10  -2    6.68    0.34 
  -4 -10   2    6.63    0.34 
  -4 -10   2    6.66    0.35 
   3  10  -2    5.95    0.31 
  -3 -10   2    5.96    0.31 
  -3 -10   2    5.48    0.31 
   2  10  -2   15.72    0.66 
   2  10  -2   16.18    0.67 
  -2 -10   2   16.82    0.70 
   1  10  -2   -0.07    0.10 
   1  10  -2    0.12    0.11 
  -1 -10   2    0.18    0.11 
   0  10  -2   30.68    1.17 
   0  10  -2   30.53    1.18 
   0 -10   2   31.58    1.28 
  -1  10  -2    3.65    0.25 
  -1  10  -2    4.08    0.30 
   1 -10   2    3.56    0.23 
  -2  10  -2    6.06    0.38 
   2 -10   2    6.03    0.32 
  -3  10  -2    9.26    0.54 
   3 -10   2   10.02    0.45 
   8   9  -2    0.56    0.17 
  -8  -9   2    0.67    0.16 
   7   9  -2   30.86    1.20 
  -7  -9   2   31.14    1.20 
   6   9  -2    0.16    0.11 
  -6  -9   2    0.24    0.13 
   5   9  -2    0.36    0.12 
  -5  -9   2    0.67    0.11 
  -5  -9   2    0.48    0.12 
   4   9  -2    4.84    0.27 
  -4  -9   2    5.37    0.27 
  -4  -9   2    4.65    0.27 
   3   9  -2   21.95    0.84 
  -3  -9   2   21.97    0.89 
  -3  -9   2   21.72    0.86 
   2   9  -2    2.13    0.17 
   2   9  -2    2.05    0.17 
  -2  -9   2    2.06    0.17 
   1   9  -2   24.03    0.95 
   1   9  -2   25.50    0.95 
   1   9  -2   23.55    0.87 
  -1  -9   2   25.79    1.02 
   0   9  -2    3.97    0.24 
   0   9  -2    3.41    0.22 
   0  -9   2    3.60    0.20 
   0  -9   2    3.75    0.25 
  -1   9  -2    8.75    0.46 
  -1   9  -2    9.67    0.41 
  -1   9  -2    8.74    0.40 
   1  -9   2    8.48    0.38 
  -2   9  -2   32.53    1.21 
  -2   9  -2   29.99    1.33 
   2  -9   2   33.23    1.16 
  -3   9  -2    6.04    0.39 
   3  -9   2    6.57    0.34 
  -4   9  -2    0.19    0.16 
   4  -9   2    0.03    0.12 
   8   8  -2    1.05    0.18 
  -8  -8   2    1.01    0.17 
   7   8  -2    0.03    0.12 
  -7  -8   2   -0.08    0.11 
   6   8  -2    7.86    0.38 
  -6  -8   2    8.49    0.39 
  -6  -8   2    7.89    0.39 
   5   8  -2    1.46    0.15 
  -5  -8   2    1.49    0.15 
  -5  -8   2    1.46    0.13 
   4   8  -2   10.94    0.46 
  -4  -8   2   10.37    0.46 
  -4  -8   2   10.87    0.46 
   3   8  -2   44.76    1.61 
  -3  -8   2   43.73    1.63 
  -3  -8   2   44.78    1.72 
   2   8  -2    3.60    0.22 
   2   8  -2    3.51    0.17 
   2   8  -2    3.71    0.21 
  -2  -8   2    3.70    0.21 
   1   8  -2   32.56    1.14 
   1   8  -2   33.44    1.24 
   1   8  -2   32.82    1.22 
  -1  -8   2   33.80    1.32 
   0   8  -2    0.49    0.10 
   0   8  -2    0.54    0.09 
   0   8  -2    0.52    0.08 
   0  -8   2    0.57    0.11 
  -1   8  -2   54.65    1.97 
  -1   8  -2   54.30    1.99 
  -1   8  -2   55.86    2.16 
   1  -8   2   54.71    1.89 
  -2   8  -2    1.70    0.14 
  -2   8  -2    1.72    0.19 
   2  -8   2    1.63    0.14 
   2  -8   2    1.62    0.14 
  -3   8  -2    0.30    0.14 
   3  -8   2    0.34    0.10 
  -4   8  -2    5.73    0.37 
   4  -8   2    5.80    0.31 
  -5   8  -2    0.52    0.18 
   5  -8   2    0.43    0.14 
   9   7  -2   -0.02    0.15 
  -9  -7   2    0.04    0.14 
   8   7  -2    2.16    0.21 
  -8  -7   2    2.70    0.22 
   7   7  -2    0.01    0.10 
  -7  -7   2    0.05    0.11 
  -7  -7   2    0.11    0.09 
   6   7  -2    0.53    0.12 
  -6  -7   2    0.50    0.10 
  -6  -7   2    0.69    0.13 
   5   7  -2   12.37    0.52 
  -5  -7   2   12.99    0.53 
  -5  -7   2   12.21    0.53 
   4   7  -2    0.59    0.10 
  -4  -7   2    0.79    0.09 
  -4  -7   2    0.32    0.09 
   3   7  -2  124.96    4.12 
   3   7  -2  123.70    4.35 
  -3  -7   2  123.53    4.41 
  -3  -7   2  124.42    4.69 
   2   7  -2    0.50    0.06 
   2   7  -2    0.41    0.08 
   2   7  -2    0.41    0.08 
  -2  -7   2    0.54    0.08 
   1   7  -2  113.97    3.80 
   1   7  -2  116.28    4.05 
   1   7  -2  110.89    4.00 
  -1  -7   2  114.69    4.32 
   0   7  -2   30.13    1.09 
   0   7  -2   29.23    1.17 
   0   7  -2   28.48    1.08 
   0   7  -2   29.05    1.02 
  -1   7  -2   11.30    0.48 
  -1   7  -2   11.97    0.49 
  -1   7  -2   12.78    0.47 
  -2   7  -2    4.00    0.22 
  -2   7  -2    4.45    0.26 
   2  -7   2    4.09    0.22 
   2  -7   2    4.22    0.22 
  -3   7  -2    3.42    0.20 
  -3   7  -2    3.24    0.25 
   3  -7   2    3.43    0.19 
   3  -7   2    3.24    0.20 
  -4   7  -2    0.74    0.15 
   4  -7   2    0.84    0.13 
  -5   7  -2   20.00    0.89 
   5  -7   2   19.02    0.77 
  -6   7  -2    2.53    0.27 
   6  -7   2    2.75    0.23 
   9   6  -2    0.53    0.16 
   8   6  -2    0.14    0.13 
  -8  -6   2    0.15    0.12 
  -8  -6   2    0.03    0.10 
   7   6  -2   40.55    1.46 
  -7  -6   2   37.18    1.54 
  -7  -6   2   39.89    1.46 
   6   6  -2    0.30    0.10 
  -6  -6   2    0.41    0.10 
  -6  -6   2    0.31    0.09 
   5   6  -2   80.24    2.86 
  -5  -6   2   81.42    3.07 
  -5  -6   2   80.31    2.89 
   4   6  -2   27.69    1.00 
   4   6  -2   26.16    0.91 
  -4  -6   2   27.61    1.01 
  -4  -6   2   26.24    1.05 
   3   6  -2   14.21    0.50 
  -3  -6   2   14.29    0.57 
  -3  -6   2   14.64    0.58 
   2   6  -2   18.25    0.69 
   2   6  -2   18.52    0.70 
   2   6  -2   18.43    0.64 
  -2  -6   2   18.15    0.73 
   1   6  -2   10.59    0.45 
   1   6  -2   11.28    0.41 
   1   6  -2   11.01    0.44 
  -1  -6   2   11.30    0.47 
   0   6  -2    2.55    0.15 
   0   6  -2    2.46    0.13 
   0   6  -2    2.32    0.15 
   0   6  -2    2.85    0.17 
  -1   6  -2    3.52    0.18 
  -1   6  -2    3.31    0.19 
  -1   6  -2    3.71    0.18 
  -1   6  -2    3.83    0.22 
  -2   6  -2    4.20    0.26 
  -2   6  -2    4.25    0.22 
  -2   6  -2    4.41    0.21 
   2  -6   2    4.65    0.22 
  -3   6  -2   33.67    1.26 
  -3   6  -2   35.23    1.40 
   3  -6   2   34.05    1.25 
   3  -6   2   35.46    1.23 
  -4   6  -2   15.65    0.69 
   4  -6   2   15.39    0.60 
   4  -6   2   14.45    0.58 
  -5   6  -2   73.27    2.85 
   5  -6   2   71.95    2.50 
  -6   6  -2    0.95    0.19 
   6  -6   2    0.84    0.15 
  -7   6  -2   41.02    1.70 
   7  -6   2   39.96    1.48 
   9   5  -2    5.73    0.34 
   8   5  -2    1.98    0.18 
  -8  -5   2    2.00    0.19 
  -8  -5   2    1.68    0.17 
   7   5  -2    1.24    0.14 
  -7  -5   2    1.30    0.14 
  -7  -5   2    1.10    0.13 
   6   5  -2    5.04    0.27 
  -6  -5   2    5.59    0.28 
  -6  -5   2    5.14    0.27 
   5   5  -2   27.27    0.97 
   5   5  -2   28.89    1.05 
  -5  -5   2   28.79    1.05 
  -5  -5   2   27.75    1.11 
   4   5  -2   36.60    1.33 
  -4  -5   2   40.10    1.52 
  -4  -5   2   41.70    1.44 
   3   5  -2    2.87    0.13 
   3   5  -2    2.71    0.15 
  -3  -5   2    3.04    0.16 
  -3  -5   2    2.96    0.15 
   2   5  -2   33.64    1.25 
   2   5  -2   36.00    1.17 
  -2  -5   2   33.82    1.27 
  -2  -5   2   35.69    1.34 
   1   5  -2    1.83    0.11 
   1   5  -2    1.82    0.10 
   1   5  -2    1.84    0.12 
  -1  -5   2    1.70    0.11 
   0   5  -2   13.03    0.50 
   0   5  -2   13.23    0.54 
   0   5  -2   12.18    0.50 
   0   5  -2   13.27    0.47 
  -1   5  -2   60.94    2.21 
  -1   5  -2   63.33    2.24 
  -1   5  -2   64.32    2.11 
  -1   5  -2   61.93    2.40 
  -2   5  -2    0.34    0.06 
  -2   5  -2    0.43    0.09 
  -2   5  -2    0.27    0.06 
   2  -5   2    0.35    0.06 
  -3   5  -2   82.64    3.16 
  -3   5  -2   80.63    2.92 
   3  -5   2   81.33    2.89 
   3  -5   2   84.27    2.78 
  -4   5  -2    2.34    0.20 
   4  -5   2    2.15    0.14 
   4  -5   2    2.11    0.16 
  -5   5  -2   18.62    0.82 
   5  -5   2   18.73    0.72 
  -6   5  -2   66.48    2.63 
   6  -5   2   66.83    2.31 
  -7   5  -2    2.35    0.24 
   7  -5   2    2.79    0.22 
   9   4  -2    0.42    0.14 
  -9  -4   2    0.43    0.13 
   8   4  -2   27.91    1.07 
  -8  -4   2   26.25    1.13 
  -8  -4   2   29.45    1.09 
   7   4  -2   24.31    0.94 
  -7  -4   2   23.28    0.99 
  -7  -4   2   26.01    0.95 
   6   4  -2   28.87    1.04 
   6   4  -2   32.27    1.12 
  -6  -4   2   28.72    1.18 
  -6  -4   2   30.55    1.13 
   5   4  -2    3.66    0.17 
   5   4  -2    4.55    0.22 
  -5  -4   2    3.97    0.21 
  -5  -4   2    3.71    0.20 
   4   4  -2  106.98    3.73 
   4   4  -2  115.49    3.94 
  -4  -4   2  114.37    3.98 
  -4  -4   2  112.39    4.23 
   3   4  -2    7.65    0.31 
   3   4  -2    6.75    0.27 
  -3  -4   2    7.44    0.31 
  -3  -4   2    7.69    0.31 
   2   4  -2   39.99    1.44 
   2   4  -2   41.65    1.36 
  -2  -4   2   39.64    1.46 
  -2  -4   2   40.38    1.54 
   1   4  -2    1.90    0.10 
   1   4  -2    2.14    0.11 
   1   4  -2    1.84    0.11 
  -1  -4   2    2.10    0.11 
  -1  -4   2    2.00    0.11 
   0   4  -2    6.37    0.26 
   0   4  -2    5.94    0.26 
   0   4  -2    6.38    0.24 
   0   4  -2    6.44    0.28 
  -1   4  -2  119.92    4.70 
  -1   4  -2  126.82    4.15 
  -1   4  -2  122.39    4.35 
  -1   4  -2  129.60    4.40 
  -2   4  -2   72.07    2.82 
  -2   4  -2   74.63    2.62 
  -2   4  -2   73.54    2.48 
   2  -4   2   75.39    2.60 
  -3   4  -2   22.80    0.94 
  -3   4  -2   22.91    0.83 
  -3   4  -2   23.39    0.85 
   3  -4   2   23.55    0.85 
  -4   4  -2  148.35    5.48 
  -4   4  -2  142.72    5.08 
   4  -4   2  142.83    5.03 
   4  -4   2  143.38    4.83 
  -5   4  -2   10.33    0.49 
   5  -4   2    9.95    0.41 
   5  -4   2    9.78    0.42 
  -6   4  -2   11.65    0.57 
   6  -4   2   11.85    0.50 
  -7   4  -2    6.70    0.39 
   7  -4   2    6.27    0.34 
  -8   4  -2   10.86    0.59 
   8  -4   2   11.69    0.51 
   9   3  -2    0.92    0.16 
  -9  -3   2    1.06    0.18 
   8   3  -2   61.31    2.17 
  -8  -3   2   58.52    2.33 
   7   3  -2    0.49    0.09 
   7   3  -2    0.49    0.10 
  -7  -3   2    0.82    0.13 
  -7  -3   2    0.64    0.11 
   6   3  -2   30.21    1.14 
   6   3  -2   30.41    1.07 
  -6  -3   2   32.87    1.16 
  -6  -3   2   30.31    1.22 
   5   3  -2   44.78    1.48 
   5   3  -2   44.82    1.57 
  -5  -3   2   43.30    1.59 
  -5  -3   2   42.08    1.68 
   4   3  -2    7.69    0.29 
   4   3  -2    7.12    0.31 
  -4  -3   2    7.36    0.32 
  -4  -3   2    7.61    0.32 
   3   3  -2    0.06    0.04 
   3   3  -2    0.06    0.05 
  -3  -3   2    0.03    0.04 
  -3  -3   2    0.03    0.05 
   2   3  -2    4.49    0.19 
   2   3  -2    4.38    0.18 
  -2  -3   2    4.77    0.20 
  -2  -3   2    4.53    0.20 
   1   3  -2    6.01    0.22 
   1   3  -2    6.09    0.24 
  -1  -3   2    6.18    0.25 
  -1  -3   2    5.94    0.25 
   0   3  -2   25.47    0.99 
   0   3  -2   26.29    0.88 
   0   3  -2   25.19    0.93 
   0   3  -2   26.38    0.93 
  -1   3  -2   49.00    1.77 
  -1   3  -2   51.58    1.69 
  -1   3  -2   51.86    1.78 
  -1   3  -2   48.05    1.91 
  -2   3  -2   63.59    2.26 
  -2   3  -2   63.28    2.15 
  -2   3  -2   61.95    2.44 
   2  -3   2   66.53    2.25 
  -3   3  -2    1.10    0.08 
  -3   3  -2    1.14    0.09 
  -3   3  -2    1.20    0.11 
   3  -3   2    1.28    0.09 
  -4   3  -2  172.46    6.21 
  -4   3  -2  181.51    6.68 
   4  -3   2  176.27    6.15 
  -5   3  -2    5.03    0.29 
   5  -3   2    5.34    0.25 
   5  -3   2    5.30    0.26 
  -6   3  -2   26.65    1.09 
   6  -3   2   25.52    0.97 
   6  -3   2   26.10    0.96 
  -7   3  -2    1.69    0.19 
   7  -3   2    1.42    0.16 
  -8   3  -2    0.32    0.16 
   8  -3   2    0.32    0.13 
  -9  -2   2   20.77    0.90 
   8   2  -2    3.85    0.24 
   8   2  -2    3.61    0.23 
  -8  -2   2    3.93    0.27 
   7   2  -2   42.73    1.49 
   7   2  -2   41.90    1.57 
  -7  -2   2   41.82    1.69 
  -7  -2   2   46.16    1.61 
   6   2  -2    2.07    0.15 
   6   2  -2    2.27    0.15 
  -6  -2   2    2.15    0.16 
  -6  -2   2    2.15    0.17 
   5   2  -2   40.87    1.47 
   5   2  -2   40.43    1.39 
  -5  -2   2   40.18    1.58 
  -5  -2   2   41.95    1.50 
   4   2  -2    4.81    0.19 
   4   2  -2    4.27    0.21 
  -4  -2   2    4.44    0.22 
  -4  -2   2    4.53    0.22 
   3   2  -2   29.83    1.06 
   3   2  -2   29.39    1.00 
  -3  -2   2   29.68    1.14 
  -3  -2   2   29.53    1.08 
   2   2  -2   62.75    2.26 
   2   2  -2   63.43    2.15 
  -2  -2   2   65.62    2.43 
  -2  -2   2   66.52    2.29 
   1   2  -2   47.62    1.65 
   1   2  -2   49.65    1.74 
  -1  -2   2   50.10    1.87 
  -1  -2   2   49.57    1.76 
  -1  -2   2   50.10    1.87 
   0   2  -2  829.40   26.21 
   0   2  -2  874.80   27.59 
   0   2  -2  675.87   29.68 
  -1   2  -2  250.39    8.35 
  -1   2  -2  239.10    7.86 
  -1   2  -2  232.84    8.23 
  -1   2  -2  227.07    8.93 
  -2   2  -2  114.38    4.39 
  -2   2  -2  119.68    3.87 
  -2   2  -2  118.61    4.10 
   2  -2   2  113.19    4.05 
  -3   2  -2   40.33    1.57 
  -3   2  -2   40.46    1.38 
  -3   2  -2   41.08    1.44 
   3  -2   2   40.13    1.44 
  -4   2  -2   22.65    0.79 
  -4   2  -2   22.02    0.89 
  -4   2  -2   21.58    0.79 
   4  -2   2   21.68    0.80 
  -5   2  -2    1.67    0.15 
   5  -2   2    1.76    0.12 
   5  -2   2    1.59    0.13 
  -6   2  -2   12.08    0.54 
   6  -2   2   11.18    0.47 
   6  -2   2   11.31    0.47 
  -7   2  -2    2.04    0.19 
   7  -2   2    1.84    0.16 
   7  -2   2    2.23    0.17 
  -8   2  -2   17.40    0.78 
   8  -2   2   16.53    0.67 
  -9   2  -2    7.23    0.45 
   9  -2   2    7.17    0.38 
   9   1  -2   48.76    1.68 
  -9  -1   2   46.57    1.91 
   8   1  -2    0.23    0.11 
  -8  -1   2    0.16    0.12 
   7   1  -2    9.27    0.40 
   7   1  -2   10.30    0.42 
  -7  -1   2   10.10    0.44 
  -7  -1   2    9.69    0.46 
   6   1  -2    5.54    0.26 
   6   1  -2    5.61    0.26 
  -6  -1   2    5.46    0.29 
  -6  -1   2    5.46    0.28 
   5   1  -2    9.21    0.36 
   5   1  -2    9.02    0.35 
  -5  -1   2    8.61    0.38 
  -5  -1   2    8.53    0.39 
   4   1  -2    9.19    0.36 
   4   1  -2    9.33    0.35 
  -4  -1   2    9.05    0.38 
  -4  -1   2    9.10    0.39 
   3   1  -2   14.48    0.54 
   3   1  -2   14.05    0.51 
  -3  -1   2   14.85    0.55 
  -3  -1   2   14.68    0.58 
   2   1  -2  211.27    7.23 
   2   1  -2  215.51    7.59 
  -2  -1   2  226.48    7.70 
  -2  -1   2  223.08    8.21 
   1   1  -2   55.51    1.91 
   1   1  -2   54.46    1.82 
  -1  -1   2   54.56    1.94 
  -1  -1   2   54.04    2.06 
   0   1  -2   14.46    0.58 
   0   1  -2   15.14    0.54 
   0   1  -2   15.00    0.51 
   0  -1   2   15.32    0.54 
   0  -1   2   15.25    0.58 
  -1   1  -2    8.18    0.33 
  -1   1  -2    8.41    0.30 
   1  -1   2    8.62    0.31 
   1  -1   2    8.24    0.30 
  -2   1  -2    0.33    0.04 
  -2   1  -2    0.27    0.04 
   2  -1   2    0.38    0.04 
  -3   1  -2   46.25    1.55 
  -3   1  -2   44.94    1.76 
   3  -1   2   46.54    1.62 
  -4   1  -2   19.55    0.68 
  -4   1  -2   18.48    0.77 
   4  -1   2   19.00    0.70 
  -5   1  -2    0.01    0.07 
   5  -1   2    0.11    0.06 
   5  -1   2    0.08    0.05 
  -6   1  -2   24.58    1.02 
   6  -1   2   24.67    0.92 
   6  -1   2   25.24    0.90 
  -7   1  -2    9.08    0.45 
   7  -1   2    9.05    0.39 
   7  -1   2    9.22    0.40 
  -8   1  -2   66.26    2.65 
   8  -1   2   69.16    2.43 
   8  -1   2   67.37    2.33 
  -9   1  -2    0.37    0.16 
   9  -1   2    0.34    0.13 
   9   0  -2    3.19    0.24 
  -9   0   2    3.02    0.27 
   8   0  -2    0.87    0.13 
  -8   0   2    0.83    0.16 
   7   0  -2    0.43    0.10 
  -7   0   2    0.48    0.11 
   6   0  -2    6.35    0.28 
   6   0  -2    6.06    0.27 
  -6   0   2    6.20    0.31 
  -6   0   2    4.76    0.28 
   5   0  -2   16.35    0.60 
   5   0  -2   16.62    0.59 
  -5   0   2   16.36    0.67 
  -5   0   2   14.86    0.62 
   4   0  -2   35.98    1.27 
   4   0  -2   35.38    1.22 
  -4   0   2   34.58    1.30 
  -4   0   2   36.65    1.38 
   3   0  -2  455.64   15.03 
   3   0  -2  458.44   15.82 
  -3   0   2  460.17   17.16 
  -3   0   2  448.71   16.04 
   2   0  -2    9.62    0.35 
   2   0  -2    9.41    0.34 
  -2   0   2    9.90    0.39 
  -2   0   2    9.23    0.37 
   1   0  -2  151.47    5.31 
   1   0  -2  154.17    5.05 
  -1   0   2  149.16    5.37 
  -1   0   2  155.98    5.74 
   0   0  -2   16.21    0.57 
   0   0  -2   14.64    0.57 
   0   0  -2   14.60    0.53 
   0   0  -2   14.09    0.51 
   0   0   2   14.71    0.54 
  -1   0  -2    2.70    0.10 
  -1   0  -2    2.30    0.11 
   1   0   2    2.57    0.11 
   1   0   2    2.47    0.10 
  -2   0  -2   22.11    0.87 
  -2   0  -2   23.12    0.77 
   2   0   2   22.87    0.81 
  -3   0  -2    0.08    0.04 
  -3   0  -2    0.06    0.03 
   3   0   2    0.00    0.03 
  -4   0  -2    2.39    0.15 
  -4   0  -2    2.68    0.13 
   4   0   2    2.58    0.14 
  -5   0  -2   23.33    0.95 
  -5   0  -2   24.49    0.84 
   5   0   2   22.46    0.83 
   5   0   2   23.85    0.87 
  -6   0  -2  140.17    5.43 
   6   0   2  145.94    5.01 
   6   0   2  143.56    4.78 
  -7   0  -2    1.13    0.15 
   7   0   2    1.24    0.13 
   7   0   2    1.37    0.12 
  -8   0  -2   10.60    0.52 
   8   0   2   11.36    0.47 
   8   0   2   10.43    0.45 
  -9   0  -2   56.02    2.26 
   9   0   2   56.05    1.98 
   9   0   2   58.23    2.07 
   8  -1  -2    0.08    0.11 
  -8   1   2    0.07    0.13 
   7  -1  -2   13.88    0.55 
  -7   1   2   13.73    0.63 
   6  -1  -2    0.54    0.10 
   6  -1  -2    0.41    0.08 
  -6   1   2    0.84    0.12 
  -6   1   2    0.57    0.12 
   5  -1  -2  115.76    3.84 
   5  -1  -2  117.26    4.01 
  -5   1   2  111.76    4.08 
  -5   1   2  114.02    4.35 
   4  -1  -2   44.69    1.57 
   4  -1  -2   42.74    1.51 
  -4   1   2   45.03    1.61 
  -4   1   2   45.15    1.72 
   3  -1  -2   29.06    1.05 
   3  -1  -2   29.74    1.02 
  -3   1   2   29.31    1.08 
  -3   1   2   30.07    1.15 
   2  -1  -2    0.52    0.04 
   2  -1  -2    0.60    0.05 
  -2   1   2    0.52    0.06 
  -2   1   2    0.52    0.05 
   1  -1  -2  237.02    8.37 
   1  -1  -2  244.29    7.95 
  -1   1   2  245.47    8.46 
  -1   1   2  236.27    9.05 
   0  -1  -2   21.22    0.72 
   0   1   2   20.45    0.82 
   0   1   2   21.54    0.75 
   0   1   2   22.08    0.78 
  -1  -1  -2    0.83    0.05 
  -1  -1  -2    0.82    0.05 
   1   1   2    0.82    0.05 
   1   1   2    0.88    0.05 
  -2  -1  -2    6.69    0.30 
  -2  -1  -2    7.69    0.26 
   2   1   2    7.53    0.27 
   2   1   2    7.13    0.28 
  -3  -1  -2   16.33    0.67 
  -3  -1  -2   17.82    0.59 
   3   1   2   16.71    0.62 
  -4  -1  -2   43.05    1.40 
  -4  -1  -2   39.94    1.59 
  -4  -1  -2   40.36    1.46 
   4   1   2   41.47    1.47 
  -5  -1  -2   97.58    3.52 
  -5  -1  -2   87.73    3.26 
   5   1   2   90.96    3.09 
   5   1   2   93.75    3.25 
  -6  -1  -2    0.97    0.11 
  -6  -1  -2    0.99    0.07 
   6   1   2    0.93    0.10 
   6   1   2    0.96    0.09 
  -7  -1  -2   10.73    0.50 
   7   1   2   10.78    0.46 
   7   1   2   10.71    0.43 
  -8  -1  -2    6.13    0.35 
   8   1   2    5.98    0.29 
   8   1   2    6.02    0.31 
  -9  -1  -2   12.06    0.59 
   9   1   2   12.35    0.53 
   9   1   2   12.49    0.51 
 -10  -1  -2    1.48    0.22 
   8  -2  -2    0.59    0.14 
  -8   2   2    0.77    0.18 
   7  -2  -2   24.27    0.92 
  -7   2   2   25.64    1.06 
   6  -2  -2   65.87    2.34 
  -6   2   2   68.83    2.66 
  -6   2   2   71.06    2.48 
   5  -2  -2   35.21    1.24 
   5  -2  -2   35.19    1.27 
  -5   2   2   36.37    1.41 
  -5   2   2   35.10    1.31 
   4  -2  -2    3.33    0.15 
  -4   2   2    2.79    0.19 
  -4   2   2    3.22    0.18 
   3  -2  -2   73.57    2.56 
   3  -2  -2   77.98    2.66 
  -3   2   2   77.34    2.90 
  -3   2   2   76.12    2.72 
   2  -2  -2   17.16    0.61 
   2  -2  -2   16.89    0.61 
  -2   2   2   17.92    0.65 
  -2   2   2   17.40    0.69 
   1  -2  -2   60.45    2.05 
  -1   2   2   63.01    2.34 
  -1   2   2   61.31    2.19 
   0  -2  -2  116.97    3.89 
   0  -2  -2  124.84    4.12 
   0   2   2  116.41    4.15 
   0   2   2  113.06    4.11 
   0   2   2  117.15    4.43 
  -1  -2  -2   13.87    0.46 
  -1  -2  -2   12.51    0.53 
   1   2   2   13.98    0.48 
   1   2   2   13.38    0.50 
  -2  -2  -2   43.39    1.73 
  -2  -2  -2   45.67    1.51 
   2   2   2   47.01    1.62 
   2   2   2   46.12    1.60 
  -3  -2  -2   86.00    2.76 
   3   2   2   79.23    2.91 
   3   2   2   84.32    2.94 
  -4  -2  -2    5.00    0.20 
  -4  -2  -2    5.37    0.20 
  -4  -2  -2    5.20    0.25 
   4   2   2    4.77    0.22 
  -5  -2  -2   72.04    2.54 
  -5  -2  -2   71.48    2.75 
   5   2   2   71.29    2.41 
   5   2   2   72.83    2.54 
  -6  -2  -2   26.89    1.09 
  -6  -2  -2   27.31    0.99 
   6   2   2   26.15    0.94 
   6   2   2   28.01    1.01 
  -7  -2  -2   97.05    3.65 
   7   2   2   93.42    3.36 
   7   2   2   94.94    3.19 
  -8  -2  -2   15.71    0.69 
   8   2   2   15.88    0.58 
   8   2   2   14.63    0.62 
  -9  -2  -2    5.65    0.35 
   9   2   2    5.48    0.31 
   9   2   2    6.30    0.29 
 -10  -2  -2    0.16    0.16 
  10   2   2    0.06    0.13 
   8  -3  -2   13.38    0.59 
  -8   3   2   13.95    0.68 
   7  -3  -2   23.63    0.88 
  -7   3   2   22.84    1.00 
   6  -3  -2   22.44    0.85 
  -6   3   2   23.47    0.97 
   5  -3  -2   11.93    0.47 
  -5   3   2   11.58    0.53 
  -5   3   2   11.47    0.49 
   4  -3  -2   66.70    2.28 
  -4   3   2   68.07    2.42 
  -4   3   2   66.76    2.58 
   3  -3  -2    0.27    0.03 
   3  -3  -2    0.17    0.06 
  -3   3   2    0.29    0.07 
  -3   3   2    0.28    0.07 
   2  -3  -2   89.00    2.95 
  -2   3   2   87.08    3.35 
  -2   3   2   88.45    3.14 
   1  -3  -2   13.27    0.47 
  -1   3   2   12.02    0.53 
  -1   3   2   12.71    0.50 
   0  -3  -2  120.70    3.87 
   0   3   2  118.74    4.12 
   0   3   2  117.99    4.40 
   0   3   2  109.78    4.06 
  -1  -3  -2  117.14    4.71 
  -1  -3  -2  124.32    4.14 
   1   3   2  125.69    4.35 
   1   3   2  134.37    4.43 
  -2  -3  -2   70.57    2.74 
  -2  -3  -2   74.62    2.40 
   2   3   2   74.46    2.57 
   2   3   2   69.72    2.53 
  -3  -3  -2   67.12    2.66 
  -3  -3  -2   71.47    2.33 
   3   3   2   70.82    2.47 
   3   3   2   71.53    2.49 
  -4  -3  -2   55.49    2.13 
   4   3   2   56.03    1.97 
   4   3   2   55.17    1.86 
   4   3   2   56.11    1.98 
  -5  -3  -2   69.16    2.41 
  -5  -3  -2   66.37    2.59 
   5   3   2   68.61    2.40 
   5   3   2   66.91    2.26 
  -6  -3  -2   11.43    0.44 
  -6  -3  -2   11.54    0.50 
   6   3   2   10.70    0.41 
   6   3   2   11.07    0.46 
  -7  -3  -2    3.70    0.24 
   7   3   2    3.59    0.21 
   7   3   2    3.47    0.18 
  -8  -3  -2   13.20    0.61 
   8   3   2   13.90    0.51 
   8   3   2   13.43    0.56 
  -9  -3  -2    5.24    0.33 
   9   3   2    5.09    0.29 
 -10  -3  -2    0.12    0.15 
  10   3   2    0.07    0.14 
   7  -4  -2    8.04    0.39 
  -7   4   2    7.89    0.46 
   6  -4  -2   28.29    1.05 
  -6   4   2   29.28    1.20 
   5  -4  -2    0.71    0.11 
  -5   4   2    0.98    0.13 
  -5   4   2    0.79    0.13 
  -4   4   2    3.54    0.22 
  -4   4   2    4.94    0.27 
   3  -4  -2    0.41    0.07 
  -3   4   2    0.34    0.08 
  -3   4   2    0.30    0.08 
   2  -4  -2   15.95    0.57 
  -2   4   2   15.10    0.61 
  -2   4   2   15.99    0.66 
   1  -4  -2    6.18    0.25 
  -1   4   2    6.01    0.29 
  -1   4   2    6.59    0.28 
   0  -4  -2   19.26    0.64 
   0   4   2   18.60    0.69 
   0   4   2   17.99    0.74 
   0   4   2   17.92    0.65 
  -1  -4  -2   28.24    1.15 
  -1  -4  -2   30.14    1.00 
   1   4   2   31.10    1.08 
   1   4   2   29.26    1.05 
  -2  -4  -2   28.31    0.95 
  -2  -4  -2   27.87    1.11 
   2   4   2   29.32    1.04 
   2   4   2   28.25    1.02 
  -3  -4  -2   27.58    1.09 
   3   4   2   27.75    1.00 
   3   4   2   28.33    1.02 
  -4  -4  -2  145.82    5.55 
   4   4   2  147.80    5.19 
   4   4   2  148.59    5.13 
   4   4   2  146.02    4.86 
  -5  -4  -2    3.16    0.16 
  -5  -4  -2    3.12    0.19 
   5   4   2    3.54    0.18 
   5   4   2    3.29    0.16 
   5   4   2    3.10    0.13 
  -6  -4  -2   31.88    1.28 
  -6  -4  -2   32.66    1.18 
   6   4   2   32.26    1.19 
   6   4   2   32.59    1.10 
  -7  -4  -2   15.36    0.59 
  -7  -4  -2   14.99    0.66 
   7   4   2   15.33    0.61 
   7   4   2   15.07    0.55 
  -8  -4  -2    2.66    0.22 
   8   4   2    2.97    0.21 
  -9  -4  -2    4.18    0.29 
   9   4   2    4.63    0.28 
 -10  -4  -2   19.43    0.88 
  10   4   2   20.36    0.82 
   7  -5  -2   12.79    0.56 
  -7   5   2   12.91    0.65 
   6  -5  -2    0.69    0.13 
  -6   5   2    0.61    0.16 
   5  -5  -2    7.84    0.36 
  -5   5   2    7.90    0.42 
   4  -5  -2   12.73    0.51 
  -4   5   2   12.64    0.59 
  -4   5   2   13.20    0.54 
   3  -5  -2    0.59    0.09 
  -3   5   2    0.57    0.09 
  -3   5   2    0.70    0.12 
   2  -5  -2   20.93    0.84 
  -2   5   2   25.13    0.91 
  -2   5   2   25.90    0.98 
   1  -5  -2   69.39    2.35 
   1  -5  -2   67.78    2.27 
  -1   5   2   65.70    2.42 
  -1   5   2   67.44    2.60 
   0  -5  -2   25.10    0.85 
   0   5   2   25.03    0.92 
   0   5   2   24.40    0.99 
   0   5   2   24.00    0.87 
  -1  -5  -2    1.06    0.07 
  -1  -5  -2    0.96    0.10 
   1   5   2    0.96    0.09 
   1   5   2    1.39    0.07 
  -2  -5  -2   96.88    3.70 
  -2  -5  -2   96.55    3.23 
   2   5   2   94.80    3.40 
   2   5   2  102.63    3.47 
  -3  -5  -2   13.36    0.57 
   3   5   2   13.87    0.52 
   3   5   2   13.85    0.53 
  -4  -5  -2    8.95    0.40 
   4   5   2    9.00    0.37 
   4   5   2    9.01    0.37 
  -5  -5  -2    0.08    0.07 
   5   5   2    0.19    0.06 
   5   5   2    0.16    0.03 
   5   5   2    0.15    0.07 
  -6  -5  -2   -0.01    0.07 
  -6  -5  -2    0.30    0.07 
   6   5   2    0.08    0.07 
  -7  -5  -2    0.12    0.10 
  -7  -5  -2    0.02    0.07 
   7   5   2    0.36    0.10 
  -8  -5  -2   13.50    0.62 
   8   5   2   13.57    0.57 
  -9  -5  -2    9.94    0.50 
   9   5   2    9.76    0.46 
 -10  -5  -2    8.59    0.47 
  10   5   2    8.49    0.43 
   6  -6  -2    2.10    0.20 
  -6   6   2    1.79    0.22 
   5  -6  -2    1.28    0.15 
  -5   6   2    0.58    0.16 
   4  -6  -2    7.62    0.35 
  -4   6   2    7.89    0.37 
  -4   6   2    7.57    0.41 
   3  -6  -2    0.28    0.09 
  -3   6   2    0.36    0.10 
  -3   6   2    0.22    0.10 
   2  -6  -2   49.64    1.70 
  -2   6   2   49.42    1.95 
  -2   6   2   49.68    1.81 
   1  -6  -2   49.14    1.68 
   1  -6  -2   50.48    1.73 
  -1   6   2   48.29    1.93 
  -1   6   2   50.02    1.81 
   0  -6  -2    5.14    0.21 
   0   6   2    4.94    0.27 
   0   6   2    4.64    0.20 
   0   6   2    4.82    0.24 
  -1  -6  -2  156.44    4.96 
  -1  -6  -2  145.75    5.67 
   1   6   2  151.18    5.21 
   1   6   2  145.97    5.30 
  -2  -6  -2   49.90    1.91 
  -2  -6  -2   49.73    1.65 
   2   6   2   47.63    1.74 
   2   6   2   50.75    1.79 
  -3  -6  -2    6.06    0.29 
   3   6   2    6.35    0.28 
   3   6   2    5.94    0.26 
  -4  -6  -2    1.81    0.14 
   4   6   2    1.57    0.12 
   4   6   2    1.39    0.12 
  -5  -6  -2    1.27    0.13 
   5   6   2    1.09    0.11 
   5   6   2    1.27    0.12 
  -6  -6  -2   23.64    0.98 
   6   6   2   24.07    0.91 
  -7  -6  -2    4.45    0.23 
  -7  -6  -2    4.20    0.26 
   7   6   2    3.66    0.24 
  -8  -6  -2   14.40    0.67 
  -8  -6  -2   16.21    0.62 
   8   6   2   14.88    0.63 
  -9  -6  -2    1.60    0.20 
   9   6   2    1.56    0.18 
 -10  -6  -2    9.93    0.51 
  10   6   2    9.53    0.48 
   6  -7  -2    1.08    0.18 
  -6   7   2    1.08    0.22 
   5  -7  -2    8.03    0.39 
  -5   7   2    8.19    0.46 
   4  -7  -2    1.37    0.15 
  -4   7   2    1.53    0.20 
  -4   7   2    1.30    0.16 
   3  -7  -2   29.99    1.08 
  -3   7   2   29.46    1.25 
  -3   7   2   31.17    1.16 
   2  -7  -2    0.63    0.10 
  -2   7   2    0.74    0.12 
  -2   7   2    0.47    0.13 
   1  -7  -2   30.47    1.04 
  -1   7   2   30.23    1.21 
  -1   7   2   28.41    1.12 
   0  -7  -2   31.50    1.09 
   0   7   2   31.83    1.13 
   0   7   2   30.99    1.27 
   0   7   2   31.92    1.18 
  -1  -7  -2    5.55    0.29 
  -1  -7  -2    5.50    0.22 
   1   7   2    5.45    0.23 
   1   7   2    5.92    0.28 
  -2  -7  -2    3.57    0.15 
  -2  -7  -2    3.82    0.22 
   2   7   2    3.76    0.18 
  -3  -7  -2   37.22    1.46 
   3   7   2   36.87    1.34 
   3   7   2   37.50    1.37 
  -4  -7  -2   10.27    0.46 
   4   7   2   10.73    0.42 
   4   7   2    9.98    0.44 
  -5  -7  -2    6.02    0.32 
   5   7   2    6.39    0.31 
   5   7   2    6.86    0.30 
  -6  -7  -2   13.82    0.61 
   6   7   2   13.96    0.56 
   6   7   2   13.70    0.56 
  -7  -7  -2   21.04    0.90 
  -7  -7  -2   22.20    0.83 
   7   7   2   20.82    0.83 
  -8  -7  -2   12.83    0.52 
  -8  -7  -2   11.51    0.56 
   8   7   2   11.99    0.53 
  -9  -7  -2   15.21    0.69 
   9   7   2   14.69    0.64 
 -10  -7  -2    5.16    0.35 
  10   7   2    4.82    0.33 
   5  -8  -2   51.02    1.80 
  -5   8   2   49.88    2.06 
   4  -8  -2    1.12    0.15 
  -4   8   2    1.16    0.20 
   3  -8  -2   43.38    1.54 
  -3   8   2   43.69    1.78 
  -3   8   2   43.97    1.64 
   2  -8  -2   67.49    2.27 
  -2   8   2   64.41    2.61 
  -2   8   2   67.46    2.42 
   1  -8  -2   31.54    1.10 
  -1   8   2   31.18    1.18 
  -1   8   2   30.75    1.28 
   0  -8  -2    0.40    0.10 
   0  -8  -2    0.35    0.07 
   0   8   2    0.50    0.12 
   0   8   2    0.41    0.10 
  -1  -8  -2    4.05    0.18 
  -1  -8  -2    4.12    0.25 
   1   8   2    4.32    0.24 
   1   8   2    4.05    0.20 
  -2  -8  -2    0.92    0.07 
  -2  -8  -2    0.90    0.12 
   2   8   2    0.80    0.08 
   2   8   2    0.97    0.11 
  -3  -8  -2   55.91    2.14 
   3   8   2   53.93    2.00 
   3   8   2   54.75    1.95 
  -4  -8  -2   30.55    1.21 
   4   8   2   30.34    1.14 
   4   8   2   29.28    1.10 
  -5  -8  -2   21.68    0.91 
   5   8   2   22.46    0.84 
   5   8   2   22.15    0.86 
  -6  -8  -2    1.59    0.16 
   6   8   2    1.44    0.15 
   6   8   2    1.44    0.14 
  -7  -8  -2   39.25    1.61 
  -7  -8  -2   41.13    1.50 
   7   8   2   40.87    1.50 
  -8  -8  -2    2.33    0.19 
  -8  -8  -2    2.55    0.22 
   8   8   2    2.57    0.21 
  -9  -8  -2    3.01    0.26 
   9   8   2    3.02    0.24 
   4  -9  -2    3.97    0.27 
  -4   9   2    3.98    0.33 
   3  -9  -2    6.88    0.35 
  -3   9   2    6.99    0.42 
  -3   9   2    7.40    0.38 
   2  -9  -2    2.44    0.18 
  -2   9   2    2.27    0.20 
  -2   9   2    2.33    0.23 
   1  -9  -2   -0.02    0.08 
  -1   9   2    0.17    0.10 
  -1   9   2    0.29    0.14 
   0  -9  -2    6.64    0.38 
   0  -9  -2    7.34    0.30 
   0   9   2    7.02    0.35 
  -1  -9  -2   15.42    0.57 
  -1  -9  -2   16.13    0.71 
   1   9   2   15.97    0.65 
  -2  -9  -2    5.34    0.31 
   2   9   2    5.80    0.30 
   2   9   2    5.28    0.25 
  -3  -9  -2   54.98    2.15 
   3   9   2   53.79    2.01 
   3   9   2   56.08    1.96 
  -4  -9  -2    0.15    0.10 
   4   9   2    0.38    0.09 
   4   9   2    0.35    0.10 
  -5  -9  -2    6.18    0.33 
   5   9   2    5.92    0.31 
   5   9   2    6.00    0.30 
  -6  -9  -2   14.94    0.65 
   6   9   2   14.75    0.60 
   6   9   2   13.99    0.61 
  -7  -9  -2    3.80    0.24 
  -7  -9  -2    3.93    0.27 
   7   9   2    3.98    0.26 
  -8  -9  -2    0.13    0.13 
  -8  -9  -2    0.27    0.13 
   8   9   2    0.30    0.13 
  -9  -9  -2    0.92    0.17 
  -9  -9  -2    0.85    0.16 
   9   9   2    0.91    0.16 
   3 -10  -2    0.02    0.12 
  -3  10   2    0.24    0.18 
   2 -10  -2    8.22    0.38 
  -2  10   2    8.35    0.48 
  -2  10   2    8.07    0.42 
   1 -10  -2   14.04    0.55 
  -1  10   2   13.75    0.61 
  -1  10   2   14.20    0.69 
   0 -10  -2    1.91    0.21 
   0  10   2    2.26    0.20 
  -1 -10  -2   25.54    1.13 
   1  10   2   28.40    1.06 
  -2 -10  -2    7.77    0.41 
   2  10   2    8.21    0.39 
  -3 -10  -2   14.01    0.65 
   3  10   2   15.29    0.58 
   3  10   2   14.32    0.62 
  -4 -10  -2    5.21    0.30 
   4  10   2    5.30    0.30 
   4  10   2    5.21    0.27 
  -5 -10  -2    9.34    0.46 
   5  10   2    9.17    0.42 
   5  10   2    9.49    0.44 
  -6 -10  -2    7.46    0.39 
   6  10   2    7.09    0.37 
   6  10   2    7.47    0.36 
  -7 -10  -2    0.54    0.13 
  -7 -10  -2    0.72    0.15 
   7  10   2    0.42    0.13 
  -8 -10  -2    4.73    0.33 
  -8 -10  -2    5.36    0.31 
   8  10   2    5.14    0.30 
  -9 -10  -2    8.64    0.44 
  -9 -10  -2    8.59    0.47 
   9  10   2    8.33    0.44 
   2 -11  -2    0.79    0.14 
  -2  11   2    0.71    0.16 
  -2  11   2    0.53    0.20 
   1 -11  -2    2.61    0.27 
  -1  11   2    3.32    0.26 
   0 -11  -2    2.75    0.25 
   0  11   2    2.61    0.22 
  -1 -11  -2    0.15    0.13 
   1  11   2    0.30    0.12 
  -2 -11  -2   11.95    0.60 
   2  11   2   13.43    0.57 
  -3 -11  -2    0.20    0.13 
   3  11   2    0.22    0.12 
  -4 -11  -2   15.05    0.67 
   4  11   2   15.62    0.61 
   4  11   2   13.35    0.63 
  -5 -11  -2    4.90    0.31 
   5  11   2    4.65    0.27 
   5  11   2    4.90    0.30 
  -6 -11  -2    4.19    0.28 
   6  11   2    4.00    0.26 
   6  11   2    3.94    0.27 
  -7 -11  -2    0.73    0.16 
  -7 -11  -2    0.69    0.14 
   7  11   2    0.72    0.15 
   7  11   2    0.80    0.16 
  -8 -11  -2    0.11    0.15 
  -8 -11  -2    0.18    0.13 
   8  11   2    0.18    0.15 
   0 -12  -2   15.77    0.77 
   0  12   2   15.77    0.69 
  -1 -12  -2    2.27    0.23 
   1  12   2    2.39    0.23 
  -2 -12  -2   22.54    0.98 
   2  12   2   22.24    0.92 
  -3 -12  -2    2.15    0.22 
   3  12   2    2.09    0.20 
  -4 -12  -2    5.00    0.32 
   4  12   2    5.14    0.32 
  -5 -12  -2    1.10    0.17 
   5  12   2    0.60    0.16 
   5  12   2    0.62    0.14 
  -6 -12  -2    1.60    0.20 
   6  12   2    1.61    0.20 
   6  12   2    1.88    0.20 
  -7 -12  -2    1.11    0.18 
  -7 -12  -2    1.32    0.19 
   7  12   2    1.12    0.19 
   7  12   2    1.41    0.19 
  -2 -13  -2    1.64    0.23 
   2  13   2    1.50    0.21 
  -3 -13  -2    0.98    0.19 
   3  13   2    0.83    0.17 
  -4 -13  -2    1.24    0.20 
   4  13   2    1.14    0.19 
  -5 -13  -2   -0.01    0.14 
   5  13   2   -0.09    0.14 
   5  12  -3    0.05    0.15 
  -5 -12   3    0.02    0.15 
   4  12  -3    6.53    0.37 
  -4 -12   3    6.33    0.38 
   3  12  -3    4.06    0.29 
  -3 -12   3    4.24    0.29 
   2  12  -3    1.97    0.21 
  -2 -12   3    1.65    0.21 
  -1 -12   3    1.45    0.19 
   0  12  -3   20.50    0.85 
   0 -12   3   20.84    0.86 
   6  11  -3    0.48    0.16 
  -6 -11   3    0.09    0.14 
   5  11  -3    6.11    0.33 
  -5 -11   3    5.55    0.34 
   4  11  -3    3.97    0.28 
  -4 -11   3    4.49    0.29 
   3  11  -3    0.29    0.13 
  -3 -11   3    0.07    0.12 
   2  11  -3   24.88    0.99 
  -2 -11   3   25.40    1.00 
   1  11  -3    9.84    0.46 
   1  11  -3    9.28    0.45 
  -1 -11   3    9.68    0.46 
   0  11  -3    0.52    0.15 
   0  11  -3    0.44    0.14 
   0 -11   3    0.48    0.15 
  -1  11  -3    2.97    0.24 
   1 -11   3    2.49    0.24 
  -2  11  -3    0.85    0.20 
   7  10  -3    4.52    0.32 
  -7 -10   3    4.69    0.32 
   6  10  -3    0.21    0.14 
  -6 -10   3    0.20    0.14 
   5  10  -3   22.96    0.89 
  -5 -10   3   21.32    0.89 
   4  10  -3    0.78    0.14 
  -4 -10   3    0.75    0.14 
   3  10  -3   14.54    0.60 
  -3 -10   3   14.21    0.61 
   2  10  -3    9.27    0.43 
  -2 -10   3    8.94    0.43 
   1  10  -3    8.51    0.40 
   1  10  -3    8.47    0.42 
  -1 -10   3    8.23    0.40 
  -1 -10   3    9.06    0.43 
   0  10  -3    0.02    0.11 
   0  10  -3    0.02    0.10 
   0 -10   3    0.27    0.12 
  -1  10  -3    0.24    0.14 
  -1  10  -3    0.07    0.11 
   1 -10   3    0.10    0.12 
   1 -10   3    0.06    0.09 
  -2  10  -3    9.37    0.50 
   2 -10   3    8.80    0.41 
  -3  10  -3    4.30    0.34 
   3 -10   3    4.17    0.27 
   8   9  -3    0.95    0.19 
  -8  -9   3    0.95    0.18 
   7   9  -3   19.96    0.80 
  -7  -9   3   18.41    0.79 
   6   9  -3    5.22    0.31 
  -6  -9   3    4.62    0.29 
   5   9  -3   45.22    1.65 
  -5  -9   3   44.11    1.67 
   4   9  -3    0.31    0.12 
  -4  -9   3    0.51    0.12 
   3   9  -3    9.42    0.42 
  -3  -9   3    9.65    0.43 
  -3  -9   3    9.22    0.43 
   2   9  -3    2.20    0.18 
  -2  -9   3    1.61    0.16 
  -2  -9   3    1.85    0.15 
   1   9  -3    0.12    0.10 
   1   9  -3    0.08    0.07 
   1   9  -3   -0.07    0.09 
  -1  -9   3    0.03    0.08 
   0   9  -3    1.42    0.15 
   0   9  -3    1.36    0.14 
   0   9  -3    1.44    0.12 
   0  -9   3    1.49    0.15 
  -1   9  -3    7.18    0.34 
  -1   9  -3    7.13    0.32 
  -1   9  -3    6.79    0.34 
  -1   9  -3    7.02    0.38 
   1  -9   3    6.01    0.31 
  -2   9  -3    1.52    0.15 
  -2   9  -3    1.83    0.20 
   2  -9   3    1.21    0.14 
  -3   9  -3   11.16    0.57 
   3  -9   3   10.71    0.48 
  -4   9  -3    6.55    0.42 
   4  -9   3    6.31    0.35 
   8   8  -3    0.23    0.14 
  -8  -8   3    0.27    0.16 
   7   8  -3   23.35    0.91 
  -7  -8   3   22.25    0.91 
   6   8  -3    1.02    0.15 
  -6  -8   3    1.01    0.15 
   5   8  -3    5.26    0.29 
  -5  -8   3    5.04    0.28 
   4   8  -3   13.76    0.55 
  -4  -8   3   13.55    0.55 
  -4  -8   3   11.96    0.54 
   3   8  -3    1.35    0.14 
  -3  -8   3    1.52    0.14 
  -3  -8   3    1.51    0.13 
   2   8  -3    3.56    0.18 
   2   8  -3    3.64    0.21 
  -2  -8   3    3.75    0.23 
  -2  -8   3    3.62    0.20 
   1   8  -3   38.22    1.41 
   1   8  -3   36.51    1.32 
   1   8  -3   39.16    1.42 
  -1  -8   3   37.45    1.42 
  -1  -8   3   40.44    1.51 
   0   8  -3    0.18    0.08 
   0   8  -3    0.07    0.09 
   0   8  -3    0.10    0.07 
   0  -8   3    0.26    0.09 
  -1   8  -3   50.82    1.74 
  -1   8  -3   49.21    1.82 
  -1   8  -3   50.73    1.98 
  -1   8  -3   50.78    1.84 
  -2   8  -3    8.24    0.37 
  -2   8  -3    8.55    0.37 
  -2   8  -3    8.40    0.43 
   2  -8   3    8.13    0.38 
  -3   8  -3   15.87    0.71 
   3  -8   3   14.70    0.61 
  -4   8  -3    6.14    0.39 
   4  -8   3    5.99    0.32 
  -5   8  -3    4.99    0.35 
   5  -8   3    4.03    0.28 
   8   7  -3   13.68    0.59 
  -8  -7   3   12.48    0.58 
   7   7  -3    1.16    0.15 
  -7  -7   3    0.86    0.15 
   6   7  -3   24.76    0.95 
  -6  -7   3   23.84    0.95 
   5   7  -3    0.18    0.10 
  -5  -7   3    0.28    0.10 
  -5  -7   3    0.17    0.08 
   4   7  -3   16.76    0.65 
  -4  -7   3   15.95    0.66 
  -4  -7   3   16.34    0.65 
   3   7  -3   43.95    1.65 
   3   7  -3   47.54    1.55 
  -3  -7   3   47.63    1.75 
  -3  -7   3   43.18    1.67 
   2   7  -3   14.19    0.49 
   2   7  -3   12.50    0.52 
  -2  -7   3   12.88    0.54 
  -2  -7   3   13.44    0.55 
   1   7  -3   35.48    1.27 
   1   7  -3   38.45    1.35 
  -1  -7   3   36.16    1.36 
  -1  -7   3   37.88    1.44 
   0   7  -3   50.45    1.78 
   0   7  -3   47.79    1.67 
   0   7  -3   47.51    1.90 
   0   7  -3   49.94    1.77 
  -1   7  -3    3.52    0.23 
  -1   7  -3    3.35    0.20 
  -1   7  -3    3.51    0.19 
  -1   7  -3    3.45    0.19 
  -2   7  -3   12.38    0.56 
  -2   7  -3   12.28    0.48 
  -2   7  -3   11.58    0.48 
  -3   7  -3   50.48    1.98 
   3  -7   3   49.99    1.80 
   3  -7   3   49.09    1.74 
  -4   7  -3   15.20    0.71 
   4  -7   3   15.31    0.62 
  -5   7  -3    2.92    0.26 
   5  -7   3    2.66    0.21 
  -6   7  -3    3.09    0.28 
   6  -7   3    2.84    0.24 
   8   6  -3   32.36    1.24 
  -8  -6   3   32.31    1.25 
   7   6  -3    0.48    0.12 
  -7  -6   3    0.56    0.13 
   6   6  -3   57.45    1.99 
  -6  -6   3   53.30    2.11 
  -6  -6   3   53.86    2.00 
   5   6  -3    9.83    0.43 
  -5  -6   3    9.84    0.43 
  -5  -6   3    9.56    0.42 
   4   6  -3    0.24    0.05 
   4   6  -3    0.09    0.08 
  -4  -6   3    0.29    0.07 
  -4  -6   3    0.21    0.08 
   3   6  -3   27.38    1.02 
   3   6  -3   27.02    0.95 
  -3  -6   3   27.89    1.07 
  -3  -6   3   28.34    1.04 
   2   6  -3   54.37    1.86 
  -2  -6   3   54.33    2.00 
  -2  -6   3   57.41    2.11 
   1   6  -3   14.35    0.52 
   1   6  -3   13.17    0.55 
  -1  -6   3   15.34    0.59 
  -1  -6   3   14.24    0.56 
   0   6  -3   40.10    1.45 
   0   6  -3   40.34    1.46 
   0   6  -3   39.63    1.56 
   0   6  -3   40.10    1.37 
  -1   6  -3    4.12    0.20 
  -1   6  -3    4.04    0.20 
  -1   6  -3    3.93    0.23 
  -1   6  -3    3.80    0.21 
  -2   6  -3   52.79    1.81 
  -2   6  -3   53.64    2.06 
  -2   6  -3   51.94    1.90 
   2  -6   3   53.37    1.90 
  -3   6  -3    0.25    0.08 
  -3   6  -3    0.31    0.07 
  -3   6  -3    0.25    0.10 
   3  -6   3    0.18    0.07 
  -4   6  -3   17.06    0.77 
   4  -6   3   18.15    0.68 
   4  -6   3   17.24    0.68 
  -5   6  -3    7.98    0.42 
   5  -6   3    7.27    0.37 
  -6   6  -3    0.42    0.16 
   6  -6   3    0.38    0.12 
  -7   6  -3    2.10    0.24 
   7  -6   3    1.94    0.21 
   9   5  -3    2.02    0.21 
   8   5  -3    6.05    0.33 
  -8  -5   3    5.80    0.34 
   7   5  -3    1.04    0.15 
  -7  -5   3    1.05    0.14 
  -7  -5   3    1.22    0.14 
   6   5  -3    0.10    0.10 
  -6  -5   3    0.02    0.08 
  -6  -5   3    0.11    0.09 
   5   5  -3   17.92    0.66 
   5   5  -3   20.07    0.73 
  -5  -5   3   18.65    0.72 
  -5  -5   3   17.70    0.74 
   4   5  -3   15.13    0.55 
  -4  -5   3   14.98    0.61 
  -4  -5   3   15.77    0.60 
   3   5  -3    0.42    0.06 
   3   5  -3    0.43    0.07 
  -3  -5   3    0.30    0.07 
  -3  -5   3    0.21    0.05 
   2   5  -3  124.22    4.47 
   2   5  -3  127.96    4.25 
  -2  -5   3  129.84    4.53 
  -2  -5   3  130.25    4.82 
   1   5  -3    2.64    0.13 
   1   5  -3    2.60    0.15 
  -1  -5   3    2.62    0.15 
  -1  -5   3    2.82    0.14 
   0   5  -3  155.70    5.66 
   0   5  -3  163.80    6.11 
   0   5  -3  161.40    5.38 
   0  -5   3  168.12    5.73 
  -1   5  -3    2.78    0.17 
  -1   5  -3    2.73    0.15 
  -1   5  -3    2.88    0.17 
  -1   5  -3    2.92    0.15 
  -2   5  -3   95.87    3.27 
  -2   5  -3   93.86    3.71 
  -2   5  -3   98.96    3.46 
   2  -5   3  101.77    3.44 
  -3   5  -3    4.03    0.21 
  -3   5  -3    4.21    0.25 
  -3   5  -3    4.11    0.19 
   3  -5   3    4.44    0.21 
  -4   5  -3    9.10    0.38 
  -4   5  -3    9.25    0.44 
   4  -5   3    8.51    0.38 
  -5   5  -3    5.27    0.31 
   5  -5   3    5.17    0.27 
   5  -5   3    5.02    0.26 
  -6   5  -3    9.64    0.49 
   6  -5   3    8.86    0.42 
  -7   5  -3    9.47    0.51 
   7  -5   3    9.03    0.45 
   9   4  -3    0.12    0.15 
   8   4  -3    0.95    0.15 
  -8  -4   3    1.19    0.17 
   7   4  -3    4.17    0.25 
  -7  -4   3    4.79    0.28 
  -7  -4   3    4.27    0.25 
   6   4  -3  163.85    5.66 
   6   4  -3  174.51    5.97 
  -6  -4   3  172.42    6.04 
  -6  -4   3  170.90    6.43 
   5   4  -3    0.37    0.07 
   5   4  -3    0.46    0.09 
  -5  -4   3    0.41    0.07 
  -5  -4   3    0.65    0.10 
   4   4  -3   78.62    2.78 
   4   4  -3   77.15    2.63 
  -4  -4   3   81.02    2.81 
  -4  -4   3   77.85    2.98 
   3   4  -3   40.52    1.43 
   3   4  -3   42.15    1.51 
  -3  -4   3   43.63    1.61 
  -3  -4   3   42.55    1.53 
   2   4  -3   73.40    2.60 
   2   4  -3   73.25    2.46 
  -2  -4   3   73.59    2.78 
  -2  -4   3   75.12    2.63 
   1   4  -3    0.67    0.06 
   1   4  -3    0.52    0.07 
  -1  -4   3    0.62    0.06 
  -1  -4   3    0.43    0.06 
   0   4  -3   60.12    2.26 
   0   4  -3   58.01    2.10 
   0   4  -3   59.33    1.99 
   0  -4   3   60.21    2.12 
  -1   4  -3    0.96    0.08 
  -1   4  -3    0.42    0.06 
  -1   4  -3    0.48    0.06 
  -2   4  -3    5.06    0.21 
  -2   4  -3    4.79    0.25 
  -2   4  -3    4.55    0.22 
   2  -4   3    5.40    0.23 
  -3   4  -3    0.07    0.04 
  -3   4  -3    0.02    0.07 
  -3   4  -3    0.06    0.06 
   3  -4   3    0.11    0.05 
  -4   4  -3    7.03    0.35 
  -4   4  -3    6.60    0.30 
   4  -4   3    7.17    0.30 
  -5   4  -3    0.38    0.11 
   5  -4   3    0.38    0.08 
   5  -4   3    0.30    0.09 
  -6   4  -3   64.40    2.50 
   6  -4   3   63.08    2.20 
   6  -4   3   63.45    2.28 
  -7   4  -3    0.59    0.16 
   7  -4   3    0.64    0.14 
  -8   4  -3   50.54    2.11 
   8  -4   3   53.25    1.86 
   8   3  -3   19.48    0.79 
  -8  -3   3   21.16    0.83 
  -8  -3   3   19.62    0.85 
   7   3  -3    0.93    0.12 
   7   3  -3    1.46    0.15 
  -7  -3   3    1.25    0.16 
  -7  -3   3    1.16    0.13 
   6   3  -3    0.61    0.09 
   6   3  -3    0.50    0.10 
  -6  -3   3    0.47    0.09 
  -6  -3   3    0.50    0.11 
   5   3  -3    0.72    0.10 
   5   3  -3    0.73    0.08 
  -5  -3   3    0.83    0.09 
  -5  -3   3    0.64    0.10 
   4   3  -3   82.46    2.84 
   4   3  -3   80.29    2.70 
  -4  -3   3   79.11    3.05 
  -4  -3   3   80.91    2.88 
   3   3  -3   39.53    1.37 
   3   3  -3   37.00    1.30 
  -3  -3   3   38.50    1.46 
  -3  -3   3   37.91    1.39 
   2   3  -3   14.13    0.51 
   2   3  -3   12.50    0.48 
  -2  -3   3   14.10    0.53 
  -2  -3   3   13.30    0.52 
   1   3  -3   68.02    2.46 
   1   3  -3   68.66    2.34 
  -1  -3   3   74.04    2.64 
  -1  -3   3   70.09    2.49 
   0   3  -3    3.40    0.15 
   0   3  -3    3.13    0.16 
   0   3  -3    3.13    0.14 
   0  -3   3    3.45    0.15 
  -1   3  -3    0.25    0.05 
  -1   3  -3    0.16    0.04 
  -1   3  -3    0.15    0.04 
   1  -3   3    0.20    0.04 
  -2   3  -3   65.15    2.66 
  -2   3  -3   70.85    2.36 
   2  -3   3   72.52    2.48 
   2  -3   3   71.96    2.47 
  -3   3  -3   44.02    1.71 
  -3   3  -3   44.71    1.57 
  -3   3  -3   43.59    1.51 
   3  -3   3   44.42    1.58 
  -4   3  -3  123.37    4.64 
  -4   3  -3  122.22    4.09 
  -4   3  -3  121.36    4.29 
   4  -3   3  121.71    4.27 
  -5   3  -3    6.72    0.33 
   5  -3   3    6.13    0.29 
  -6   3  -3   33.48    1.37 
   6  -3   3   33.01    1.24 
   6  -3   3   35.14    1.22 
  -7   3  -3   30.21    1.27 
   7  -3   3   31.18    1.13 
   7  -3   3   30.47    1.15 
  -8   3  -3    9.52    0.53 
   8  -3   3    9.95    0.46 
  -9  -2   3   15.61    0.71 
   8   2  -3    0.55    0.12 
  -8  -2   3    0.47    0.13 
   7   2  -3   46.73    1.60 
   7   2  -3   44.57    1.67 
  -7  -2   3   49.39    1.72 
  -7  -2   3   43.94    1.80 
   6   2  -3   21.90    0.85 
   6   2  -3   22.79    0.81 
  -6  -2   3   24.18    0.89 
  -6  -2   3   21.63    0.91 
   5   2  -3   34.37    1.36 
   5   2  -3   38.27    1.30 
  -5  -2   3   37.97    1.47 
  -5  -2   3   41.16    1.41 
   4   2  -3   17.22    0.62 
   4   2  -3   17.21    0.65 
  -4  -2   3   17.32    0.69 
  -4  -2   3   17.42    0.67 
   3   2  -3   22.67    0.82 
   3   2  -3   22.20    0.78 
  -3  -2   3   23.07    0.87 
  -3  -2   3   22.39    0.84 
   2   2  -3   17.69    0.62 
   2   2  -3   18.05    0.65 
  -2  -2   3   17.94    0.67 
  -2  -2   3   17.70    0.69 
   1   2  -3    0.33    0.04 
  -1  -2   3    0.20    0.04 
  -1  -2   3    0.22    0.02 
   0   2  -3  211.57    7.97 
   0   2  -3  211.97    7.01 
   0   2  -3  210.18    7.37 
   0  -2   3  215.39    7.46 
  -1   2  -3  222.35    8.08 
  -1   2  -3  224.24    8.76 
  -1   2  -3  243.50    7.71 
   1  -2   3  242.07    8.18 
  -2   2  -3  114.94    4.43 
  -2   2  -3  117.39    3.92 
   2  -2   3  119.16    4.11 
   2  -2   3  119.43    4.14 
  -3   2  -3   95.75    3.14 
  -3   2  -3   89.99    3.55 
   3  -2   3   95.40    3.29 
   3  -2   3   94.53    3.31 
  -4   2  -3   52.16    2.04 
  -4   2  -3   54.07    1.80 
   4  -2   3   52.26    1.88 
  -5   2  -3  109.90    4.12 
  -5   2  -3  106.85    3.63 
   5  -2   3  107.57    3.79 
  -6   2  -3   23.18    0.97 
   6  -2   3   23.15    0.85 
   6  -2   3   23.05    0.87 
  -7   2  -3   23.28    0.98 
   7  -2   3   22.14    0.85 
   7  -2   3   23.21    0.88 
  -8   2  -3    0.45    0.15 
   8  -2   3    0.63    0.12 
   8  -2   3    0.94    0.14 
  -9   2  -3    4.54    0.33 
   9  -2   3    4.12    0.28 
   8   1  -3    0.97    0.14 
  -8  -1   3    1.17    0.16 
   7   1  -3   51.50    1.90 
   7   1  -3   52.55    1.82 
  -7  -1   3   55.02    1.95 
  -7  -1   3   52.24    2.06 
   6   1  -3   28.24    1.01 
   6   1  -3   28.35    1.04 
  -6  -1   3   29.00    1.09 
  -6  -1   3   27.76    1.13 
   5   1  -3   37.19    1.28 
   5   1  -3   37.38    1.34 
  -5  -1   3   38.39    1.38 
  -5  -1   3   35.79    1.45 
   4   1  -3   23.39    0.84 
   4   1  -3   22.08    0.80 
  -4  -1   3   22.69    0.90 
  -4  -1   3   23.22    0.87 
   3   1  -3   91.66    3.11 
   3   1  -3   94.88    3.26 
  -3  -1   3   93.80    3.32 
  -3  -1   3   93.33    3.52 
   2   1  -3    3.03    0.14 
   2   1  -3    2.92    0.14 
  -2  -1   3    3.25    0.16 
  -2  -1   3    3.30    0.14 
   1   1  -3    2.19    0.10 
   1   1  -3    2.03    0.10 
  -1  -1   3    2.06    0.11 
  -1  -1   3    2.10    0.09 
   0   1  -3   71.16    2.49 
   0   1  -3   69.06    2.36 
   0  -1   3   72.96    2.51 
  -1   1  -3   20.28    0.69 
  -1   1  -3   18.99    0.77 
   1  -1   3   20.03    0.72 
   1  -1   3   20.83    0.73 
  -2   1  -3  121.30    4.66 
  -2   1  -3  129.05    4.12 
   2  -1   3  124.44    4.37 
   2  -1   3  121.06    4.32 
  -3   1  -3   58.96    1.98 
  -3   1  -3   58.92    2.25 
   3  -1   3   58.82    2.08 
  -4   1  -3   26.99    0.92 
  -4   1  -3   25.46    1.04 
   4  -1   3   26.22    0.96 
  -5   1  -3   63.11    2.32 
  -5   1  -3   55.02    2.03 
   5  -1   3   61.72    2.13 
  -6   1  -3    1.84    0.16 
   6  -1   3    1.65    0.14 
   6  -1   3    1.79    0.14 
  -7   1  -3   49.45    1.91 
   7  -1   3   47.07    1.74 
   7  -1   3   47.43    1.67 
  -8   1  -3    8.87    0.47 
   8  -1   3    8.68    0.41 
   8  -1   3    9.39    0.42 
  -9   1  -3    3.12    0.28 
   9  -1   3    3.87    0.25 
   8   0  -3   21.62    0.82 
  -8   0   3   21.31    0.93 
   7   0  -3   16.93    0.67 
  -7   0   3   17.51    0.76 
  -7   0   3   17.95    0.73 
   6   0  -3   15.05    0.65 
   6   0  -3   18.18    0.66 
  -6   0   3   18.10    0.74 
  -6   0   3   18.53    0.71 
   5   0  -3    0.67    0.08 
   5   0  -3    0.65    0.09 
  -5   0   3    0.58    0.10 
  -5   0   3    0.71    0.10 
   4   0  -3   22.77    0.81 
   4   0  -3   23.54    0.83 
  -4   0   3   23.61    0.91 
  -4   0   3   21.81    0.87 
   3   0  -3    8.74    0.32 
   3   0  -3    8.41    0.32 
  -3   0   3    7.69    0.35 
  -3   0   3    8.57    0.35 
   2   0  -3   70.03    2.46 
   2   0  -3   69.63    2.35 
  -2   0   3   71.43    2.66 
  -2   0   3   70.80    2.51 
   1   0  -3   15.71    0.57 
   1   0  -3   16.04    0.55 
  -1   0   3   14.97    0.59 
  -1   0   3   16.37    0.61 
   0   0  -3   44.38    1.54 
   0   0  -3   47.19    1.61 
   0   0  -3   45.13    1.74 
   0   0   3   47.08    1.64 
  -1   0  -3  994.70   31.26 
   1   0   3  893.51   32.78 
   1   0   3  946.80   33.20 
  -2   0  -3  168.97    5.50 
  -2   0  -3  157.79    6.24 
   2   0   3  168.02    5.78 
   2   0   3  170.38    5.86 
  -3   0  -3   54.45    1.78 
  -3   0  -3   51.43    2.02 
   3   0   3   53.24    1.87 
  -4   0  -3   29.79    0.99 
  -4   0  -3   27.57    1.12 
   4   0   3   28.71    1.04 
  -5   0  -3   55.22    1.84 
  -5   0  -3   52.50    2.09 
   5   0   3   54.71    1.93 
  -6   0  -3   11.73    0.53 
   6   0   3   11.81    0.48 
   6   0   3   11.69    0.46 
  -7   0  -3   17.32    0.74 
   7   0   3   16.78    0.65 
   7   0   3   17.31    0.68 
  -8   0  -3    4.07    0.28 
   8   0   3    3.81    0.24 
   8   0   3    3.95    0.23 
  -9   0  -3   16.36    0.77 
   9   0   3   16.94    0.66 
   9   0   3   16.06    0.68 
   8  -1  -3   46.42    1.64 
  -8   1   3   45.84    1.85 
   7  -1  -3    0.08    0.11 
  -7   1   3    0.30    0.12 
   6  -1  -3    1.14    0.13 
  -6   1   3    1.01    0.13 
  -6   1   3    1.03    0.14 
   5  -1  -3    0.18    0.08 
   5  -1  -3    0.26    0.06 
  -5   1   3    0.30    0.10 
  -5   1   3    0.33    0.09 
   4  -1  -3    5.65    0.23 
   4  -1  -3    6.23    0.26 
  -4   1   3    5.50    0.27 
  -4   1   3    5.22    0.27 
   3  -1  -3   32.16    1.12 
   3  -1  -3   32.98    1.15 
  -3   1   3   31.11    1.19 
  -3   1   3   33.35    1.26 
   2  -1  -3   16.93    0.60 
   2  -1  -3   16.73    0.59 
  -2   1   3   16.29    0.64 
  -2   1   3   17.15    0.66 
   1  -1  -3  150.25    5.24 
   1  -1  -3  152.11    5.00 
  -1   1   3  149.57    5.67 
  -1   1   3  152.62    5.33 
   0  -1  -3   62.17    2.42 
   0  -1  -3   65.70    2.14 
   0   1   3   63.62    2.28 
   0   1   3   64.97    2.24 
  -1  -1  -3   11.20    0.48 
  -1  -1  -3   12.34    0.43 
   1   1   3   12.91    0.46 
   1   1   3   12.23    0.45 
  -2  -1  -3   52.04    1.71 
  -2  -1  -3   47.46    1.94 
   2   1   3   52.14    1.80 
   2   1   3   53.60    1.82 
  -3  -1  -3  113.45    4.39 
  -3  -1  -3  116.91    3.87 
   3   1   3  117.22    4.07 
   3   1   3  118.78    4.10 
  -4  -1  -3   17.66    0.64 
  -4  -1  -3   18.58    0.63 
  -4  -1  -3   16.86    0.72 
   4   1   3   18.33    0.67 
  -5  -1  -3    6.96    0.33 
  -5  -1  -3    7.32    0.29 
  -5  -1  -3    6.64    0.26 
   5   1   3    7.46    0.31 
  -6  -1  -3    8.99    0.42 
   6   1   3    8.84    0.36 
   6   1   3    9.52    0.39 
  -7  -1  -3    3.74    0.24 
   7   1   3    3.72    0.22 
   7   1   3    4.23    0.21 
  -8  -1  -3    6.37    0.38 
   8   1   3    6.70    0.34 
   8   1   3    7.54    0.33 
  -9  -1  -3   46.44    1.86 
   9   1   3   44.75    1.70 
   9   1   3   47.52    1.62 
 -10  -1  -3    0.51    0.18 
  10   1   3    0.59    0.14 
  10   1   3    0.46    0.15 
   8  -2  -3    3.59    0.26 
  -8   2   3    3.12    0.27 
   7  -2  -3    8.46    0.39 
  -7   2   3    8.43    0.45 
   6  -2  -3    2.45    0.18 
  -6   2   3    3.12    0.23 
  -6   2   3    2.92    0.22 
   5  -2  -3    6.47    0.30 
  -5   2   3    6.26    0.33 
  -5   2   3    6.88    0.32 
   4  -2  -3    1.26    0.09 
   4  -2  -3    1.25    0.11 
  -4   2   3    1.29    0.12 
  -4   2   3    1.24    0.12 
   3  -2  -3   21.59    0.78 
   3  -2  -3   22.61    0.78 
  -3   2   3   21.73    0.83 
  -3   2   3   21.61    0.87 
   2  -2  -3  299.66    9.74 
   2  -2  -3  290.35   10.21 
  -2   2   3  290.36   11.05 
  -2   2   3  298.56   10.37 
   1  -2  -3   39.71    1.34 
   1  -2  -3   37.91    1.39 
  -1   2   3   40.39    1.52 
  -1   2   3   39.55    1.43 
   0  -2  -3  165.98    5.31 
   0   2   3  167.32    5.66 
   0   2   3  156.44    5.57 
   0   2   3  151.73    6.02 
  -1  -2  -3   60.40    2.50 
  -1  -2  -3   67.97    2.20 
   1   2   3   69.95    2.35 
   1   2   3   66.43    2.31 
  -2  -2  -3   55.57    1.82 
  -2  -2  -3   48.75    2.07 
   2   2   3   58.34    1.92 
   2   2   3   56.55    1.95 
  -3  -2  -3   37.18    1.52 
  -3  -2  -3   41.23    1.33 
   3   2   3   40.81    1.41 
   3   2   3   39.36    1.41 
  -4  -2  -3   71.36    2.33 
  -4  -2  -3   69.16    2.66 
   4   2   3   68.80    2.47 
   4   2   3   69.75    2.46 
  -5  -2  -3    1.75    0.11 
  -5  -2  -3    1.69    0.14 
  -5  -2  -3    1.85    0.10 
   5   2   3    1.88    0.13 
  -6  -2  -3   11.49    0.43 
   6   2   3   11.05    0.43 
   6   2   3   11.94    0.47 
  -7  -2  -3  135.99    5.25 
   7   2   3  137.75    4.86 
   7   2   3  140.83    4.61 
  -8  -2  -3    0.51    0.13 
   8   2   3    0.59    0.12 
   8   2   3    0.52    0.10 
  -9  -2  -3    9.04    0.48 
   9   2   3    9.30    0.40 
   9   2   3    9.37    0.44 
 -10  -2  -3   23.92    1.06 
  10   2   3   24.58    0.97 
   7  -3  -3    0.58    0.13 
  -7   3   3    0.32    0.15 
   6  -3  -3   11.46    0.49 
  -6   3   3   12.03    0.56 
   5  -3  -3    2.90    0.19 
  -5   3   3    3.38    0.22 
  -5   3   3    3.27    0.23 
   4  -3  -3   77.88    2.50 
  -4   3   3   78.93    2.84 
  -4   3   3   64.73    2.65 
   3  -3  -3    7.10    0.26 
  -3   3   3    7.22    0.34 
  -3   3   3    7.04    0.32 
   2  -3  -3   59.36    2.00 
  -2   3   3   59.20    2.27 
  -2   3   3   58.92    2.13 
   1  -3  -3   13.02    0.47 
  -1   3   3   12.92    0.54 
  -1   3   3   13.27    0.51 
   0  -3  -3   38.62    1.28 
   0   3   3   37.70    1.46 
   0   3   3   39.17    1.38 
   0   3   3   36.44    1.33 
  -1  -3  -3   71.78    2.38 
  -1  -3  -3   67.12    2.71 
   1   3   3   74.15    2.50 
   1   3   3   73.10    2.54 
  -2  -3  -3    9.55    0.34 
  -2  -3  -3    8.99    0.41 
   2   3   3    9.66    0.38 
   2   3   3    9.99    0.37 
  -3  -3  -3    7.89    0.35 
  -3  -3  -3    8.08    0.28 
   3   3   3    8.02    0.32 
   3   3   3    8.04    0.32 
  -4  -3  -3   42.80    1.41 
  -4  -3  -3   39.76    1.62 
   4   3   3   42.69    1.50 
   4   3   3   42.17    1.50 
  -5  -3  -3   21.33    0.88 
  -5  -3  -3   21.86    0.75 
   5   3   3   22.26    0.81 
   5   3   3   21.40    0.79 
  -6  -3  -3   85.73    3.03 
   6   3   3   88.05    3.03 
   6   3   3   83.23    2.86 
  -7  -3  -3    0.40    0.11 
   7   3   3    0.30    0.07 
   7   3   3    0.34    0.09 
  -8  -3  -3   28.71    1.22 
   8   3   3   29.34    1.13 
   8   3   3   31.06    1.05 
  -9  -3  -3    6.27    0.37 
   9   3   3    6.26    0.33 
 -10  -3  -3    6.45    0.41 
  10   3   3    6.56    0.36 
   7  -4  -3    0.72    0.15 
  -7   4   3    0.55    0.17 
   6  -4  -3   30.83    1.14 
  -6   4   3   31.69    1.30 
   5  -4  -3   29.39    1.08 
  -5   4   3   31.12    1.15 
  -5   4   3   29.53    1.23 
   4  -4  -3   34.12    1.21 
  -4   4   3   35.02    1.29 
  -4   4   3   34.23    1.38 
   3  -4  -3  165.63    5.44 
  -3   4   3  161.01    6.18 
  -3   4   3  163.47    5.79 
   2  -4  -3   52.44    1.79 
  -2   4   3   52.69    2.04 
  -2   4   3   53.31    1.92 
   1  -4  -3   18.03    0.65 
  -1   4   3   17.78    0.70 
  -1   4   3   19.63    0.76 
   0  -4  -3    5.06    0.20 
   0   4   3    5.12    0.23 
   0   4   3    4.62    0.18 
   0   4   3    5.19    0.25 
  -1  -4  -3    2.44    0.11 
  -1  -4  -3    2.49    0.14 
   1   4   3    2.39    0.14 
   1   4   3    2.36    0.11 
  -2  -4  -3   11.79    0.40 
  -2  -4  -3   10.96    0.48 
   2   4   3   11.40    0.43 
   2   4   3   11.80    0.45 
  -3  -4  -3   12.49    0.55 
  -3  -4  -3   13.33    0.45 
   3   4   3   13.78    0.50 
   3   4   3   13.60    0.51 
  -4  -4  -3   65.86    2.63 
  -4  -4  -3   74.40    2.29 
   4   4   3   65.63    2.43 
   4   4   3   69.78    2.46 
  -5  -4  -3    2.79    0.18 
   5   4   3    2.90    0.17 
   5   4   3    2.98    0.15 
   5   4   3    2.65    0.12 
  -6  -4  -3   70.15    2.47 
  -6  -4  -3   70.12    2.66 
   6   4   3   67.91    2.31 
   6   4   3   68.67    2.46 
  -7  -4  -3   20.40    0.86 
  -7  -4  -3   21.00    0.77 
   7   4   3   19.96    0.72 
   7   4   3   20.99    0.80 
  -8  -4  -3   15.67    0.68 
   8   4   3   14.70    0.62 
  -9  -4  -3    1.34    0.18 
   9   4   3    1.39    0.16 
 -10  -4  -3    1.83    0.22 
  10   4   3    1.50    0.19 
   6  -5  -3    5.63    0.31 
  -6   5   3    5.77    0.37 
   5  -5  -3   40.40    1.45 
  -5   5   3   41.46    1.54 
  -5   5   3   41.22    1.66 
   4  -5  -3    7.80    0.34 
  -4   5   3    7.76    0.37 
  -4   5   3    7.14    0.39 
   3  -5  -3   24.45    0.88 
  -3   5   3   24.22    0.94 
  -3   5   3   24.57    1.01 
  -2   5   3    9.73    0.44 
  -2   5   3   10.83    0.47 
   1  -5  -3   24.76    0.87 
  -1   5   3   24.71    1.00 
  -1   5   3   24.88    0.94 
   0  -5  -3   14.41    0.50 
   0   5   3   13.21    0.50 
   0   5   3   14.59    0.60 
   0   5   3   14.26    0.56 
  -1  -5  -3   56.09    1.84 
  -1  -5  -3   53.89    2.11 
   1   5   3   54.64    1.98 
   1   5   3   54.96    1.92 
  -2  -5  -3   22.11    0.96 
  -2  -5  -3   25.23    0.82 
   2   5   3   23.80    0.87 
   2   5   3   25.74    0.91 
  -3  -5  -3   35.87    1.17 
  -3  -5  -3   35.16    1.37 
   3   5   3   34.40    1.28 
   3   5   3   34.33    1.25 
  -4  -5  -3   75.91    3.05 
   4   5   3   83.20    2.82 
   4   5   3   81.21    2.86 
  -5  -5  -3   53.88    2.02 
   5   5   3   51.91    1.87 
   5   5   3   52.29    1.86 
   5   5   3   50.14    1.73 
   6   5   3    6.44    0.30 
   6   5   3    6.39    0.28 
  -7  -5  -3    4.13    0.26 
  -7  -5  -3    3.68    0.21 
   7   5   3    3.92    0.23 
  -8  -5  -3    0.41    0.13 
   8   5   3    0.11    0.09 
  -9  -5  -3    4.75    0.32 
   9   5   3    5.06    0.29 
 -10  -5  -3    0.26    0.16 
  10   5   3    0.20    0.14 
   6  -6  -3   11.04    0.49 
  -6   6   3   10.37    0.57 
   5  -6  -3   34.95    1.27 
  -5   6   3   35.69    1.46 
   4  -6  -3    0.45    0.11 
  -4   6   3    0.68    0.13 
  -4   6   3    0.29    0.13 
   3  -6  -3    0.12    0.08 
  -3   6   3    0.19    0.11 
  -3   6   3    0.06    0.09 
   2  -6  -3    1.22    0.11 
  -2   6   3    1.07    0.12 
  -2   6   3    1.06    0.14 
   1  -6  -3   23.88    0.88 
  -1   6   3   26.17    0.96 
  -1   6   3   25.32    1.03 
   0  -6  -3    5.37    0.22 
   0   6   3    5.06    0.20 
   0   6   3    4.65    0.25 
   0   6   3    4.78    0.27 
  -1  -6  -3    5.71    0.22 
  -1  -6  -3    5.68    0.29 
   1   6   3    5.76    0.23 
   1   6   3    5.63    0.27 
  -2  -6  -3   27.38    0.92 
  -2  -6  -3   26.45    1.08 
   2   6   3   27.29    0.98 
   2   6   3   27.71    1.02 
  -3  -6  -3   84.75    3.35 
  -3  -6  -3   91.83    2.92 
   3   6   3   88.97    3.14 
   3   6   3   86.52    3.09 
  -4  -6  -3    0.84    0.10 
   4   6   3    0.99    0.09 
   4   6   3    1.04    0.10 
  -5  -6  -3   45.24    1.78 
   5   6   3   46.32    1.67 
   5   6   3   45.62    1.65 
  -6  -6  -3    8.45    0.39 
   6   6   3    7.19    0.34 
   6   6   3    7.96    0.35 
  -7  -6  -3   18.72    0.71 
  -7  -6  -3   18.34    0.78 
   7   6   3   17.65    0.72 
  -8  -6  -3    1.03    0.15 
   8   6   3    1.06    0.14 
  -9  -6  -3    2.81    0.24 
   9   6   3    3.05    0.23 
 -10  -6  -3    6.79    0.40 
  10   6   3    6.08    0.36 
   5  -7  -3    0.19    0.12 
  -5   7   3    0.17    0.15 
   4  -7  -3   23.34    0.88 
  -4   7   3   23.32    0.94 
  -4   7   3   24.00    1.02 
   3  -7  -3   16.33    0.64 
  -3   7   3   16.41    0.74 
  -3   7   3   16.52    0.68 
   2  -7  -3    1.53    0.13 
  -2   7   3    1.54    0.16 
  -2   7   3    1.65    0.18 
   1  -7  -3   12.77    0.48 
  -1   7   3   12.66    0.53 
  -1   7   3   12.13    0.57 
   0  -7  -3    8.87    0.34 
   0   7   3    8.74    0.39 
   0   7   3    8.39    0.42 
  -1  -7  -3   56.82    1.97 
  -1  -7  -3   58.96    2.28 
   1   7   3   60.96    2.14 
   1   7   3   58.48    2.06 
  -2  -7  -3    6.61    0.25 
   2   7   3    6.83    0.28 
   2   7   3    6.78    0.31 
  -3  -7  -3    9.95    0.45 
   3   7   3   10.49    0.43 
   3   7   3    9.61    0.40 
  -4  -7  -3    6.54    0.32 
   4   7   3    6.48    0.30 
   4   7   3    5.93    0.28 
  -5  -7  -3    9.89    0.45 
   5   7   3    9.66    0.42 
   5   7   3    9.43    0.41 
  -6  -7  -3    0.24    0.11 
   6   7   3    0.18    0.09 
   6   7   3    0.09    0.09 
  -7  -7  -3    3.21    0.24 
   7   7   3    3.21    0.22 
  -8  -7  -3    0.04    0.12 
  -8  -7  -3    0.10    0.10 
   8   7   3    0.25    0.12 
  -9  -7  -3    4.91    0.33 
   9   7   3    5.64    0.31 
 -10  -7  -3    5.55    0.37 
  10   7   3    5.29    0.34 
   5  -8  -3    3.26    0.25 
  -5   8   3    3.22    0.31 
   4  -8  -3    0.87    0.14 
  -4   8   3    0.57    0.18 
   3  -8  -3    5.17    0.28 
  -3   8   3    5.49    0.36 
  -3   8   3    5.37    0.31 
   2  -8  -3    1.73    0.15 
  -2   8   3    1.87    0.20 
  -2   8   3    2.05    0.18 
   1  -8  -3   48.63    1.66 
  -1   8   3   48.85    1.79 
  -1   8   3   47.46    1.92 
   0  -8  -3   11.53    0.44 
   0   8   3   11.41    0.50 
  -1  -8  -3   11.31    0.42 
  -1  -8  -3   11.52    0.53 
   1   8   3   11.20    0.49 
  -2  -8  -3   13.61    0.49 
  -2  -8  -3   13.92    0.61 
   2   8   3   13.92    0.57 
   2   8   3   13.97    0.53 
  -3  -8  -3    3.66    0.24 
   3   8   3    3.61    0.19 
   3   8   3    3.87    0.22 
  -4  -8  -3   91.10    3.51 
   4   8   3   89.63    3.29 
   4   8   3   94.29    3.23 
  -5  -8  -3    0.47    0.11 
   5   8   3    0.52    0.10 
   5   8   3    0.59    0.11 
  -6  -8  -3    2.37    0.20 
   6   8   3    2.65    0.20 
   6   8   3    2.36    0.18 
  -7  -8  -3    2.10    0.19 
   7   8   3    2.44    0.19 
   7   8   3    2.03    0.17 
  -8  -8  -3    5.76    0.36 
  -8  -8  -3    6.41    0.32 
   8   8   3    6.01    0.33 
  -9  -8  -3   11.64    0.58 
   9   8   3   11.85    0.54 
  10   8   3    1.20    0.18 
   4  -9  -3    2.45    0.21 
  -4   9   3    2.47    0.28 
   3  -9  -3   11.02    0.47 
  -3   9   3   10.73    0.51 
  -3   9   3   10.35    0.56 
   2  -9  -3   25.24    0.90 
  -2   9   3   24.50    1.07 
  -2   9   3   23.57    0.97 
   1  -9  -3    2.91    0.18 
  -1   9   3    2.90    0.25 
  -1   9   3    2.84    0.23 
   0  -9  -3   30.83    1.29 
   0  -9  -3   32.10    1.10 
   0   9   3   30.68    1.20 
  -1  -9  -3    0.23    0.11 
  -1  -9  -3    0.18    0.07 
   1   9   3    0.14    0.10 
  -2  -9  -3   24.21    1.06 
   2   9   3   26.50    0.95 
   2   9   3   26.76    1.01 
  -3  -9  -3    0.09    0.10 
   3   9   3    0.29    0.10 
   3   9   3    0.25    0.08 
  -4  -9  -3   14.29    0.63 
   4   9   3   15.20    0.57 
   4   9   3   13.09    0.59 
  -5  -9  -3    8.30    0.42 
   5   9   3    8.79    0.39 
   5   9   3    8.33    0.40 
  -6  -9  -3    0.64    0.13 
   6   9   3    0.66    0.13 
   6   9   3    0.69    0.12 
  -7  -9  -3    9.90    0.48 
   7   9   3    9.30    0.44 
   7   9   3    9.55    0.44 
  -8  -9  -3    3.20    0.26 
  -8  -9  -3    2.88    0.22 
   8   9   3    2.56    0.22 
  -9  -9  -3    3.05    0.26 
   9   9   3    2.83    0.23 
   3 -10  -3    0.34    0.13 
  -3  10   3    0.31    0.19 
  -3  10   3    0.35    0.15 
   2 -10  -3   16.64    0.66 
  -2  10   3   17.09    0.80 
  -2  10   3   16.57    0.72 
   1 -10  -3    0.26    0.10 
   1 -10  -3    0.17    0.13 
  -1  10   3   -0.01    0.11 
  -1  10   3    0.17    0.16 
   0 -10  -3   24.77    1.06 
   0  10   3   24.69    0.99 
  -1 -10  -3    0.19    0.13 
   1  10   3    0.21    0.11 
  -2 -10  -3    6.82    0.38 
   2  10   3    6.98    0.36 
  -3 -10  -3    0.36    0.13 
   3  10   3    0.31    0.11 
   3  10   3    0.40    0.09 
  -4 -10  -3   24.81    1.03 
   4  10   3   25.05    0.93 
   4  10   3   24.00    0.97 
  -5 -10  -3    8.40    0.43 
   5  10   3    8.07    0.40 
   5  10   3    8.77    0.39 
  -6 -10  -3   13.05    0.61 
   6  10   3   13.42    0.58 
   6  10   3   13.27    0.56 
  -7 -10  -3    6.06    0.35 
   7  10   3    5.85    0.33 
   7  10   3    5.96    0.33 
  -8 -10  -3   14.24    0.68 
  -8 -10  -3   14.18    0.63 
   8  10   3   15.17    0.64 
  -9 -10  -3    0.21    0.14 
  -9 -10  -3    0.03    0.15 
   9  10   3    0.27    0.15 
   2 -11  -3    4.23    0.28 
  -2  11   3    4.87    0.39 
  -2  11   3    5.03    0.33 
   1 -11  -3    1.44    0.22 
  -1  11   3    1.72    0.19 
   0 -11  -3    4.46    0.33 
   0  11   3    3.97    0.28 
  -1 -11  -3    0.32    0.15 
   1  11   3    0.31    0.13 
  -2 -11  -3    9.05    0.48 
   2  11   3    9.22    0.46 
  -3 -11  -3    4.92    0.32 
   3  11   3    5.16    0.31 
  -4 -11  -3   24.23    1.06 
   4  11   3   24.46    1.00 
   4  11   3   26.64    0.96 
  -5 -11  -3    0.09    0.12 
   5  11   3    0.26    0.12 
   5  11   3    0.15    0.12 
  -6 -11  -3   17.11    0.76 
   6  11   3   16.80    0.72 
   6  11   3   17.17    0.70 
  -7 -11  -3    0.15    0.13 
   7  11   3    0.03    0.13 
   7  11   3    0.21    0.13 
  -8 -11  -3    7.65    0.42 
  -8 -11  -3    9.43    0.48 
   8  11   3    8.35    0.43 
   0 -12  -3   11.92    0.62 
   0  12   3   11.14    0.55 
  -1 -12  -3   -0.05    0.15 
   1  12   3   -0.13    0.14 
  -2 -12  -3   10.89    0.57 
   2  12   3   11.11    0.53 
  -3 -12  -3    0.08    0.15 
   3  12   3    0.15    0.13 
  -4 -12  -3   11.44    0.57 
   4  12   3   11.10    0.53 
  -5 -12  -3    0.06    0.13 
   5  12   3   -0.05    0.13 
   5  12   3    0.26    0.12 
  -6 -12  -3    2.87    0.25 
   6  12   3    3.34    0.24 
   6  12   3    3.40    0.27 
  -7 -12  -3    0.37    0.16 
   7  12   3    0.20    0.14 
   7  12   3    0.12    0.15 
  -2 -13  -3    2.70    0.27 
   2  13   3    3.18    0.27 
  -3 -13  -3    2.44    0.26 
   3  13   3    2.05    0.23 
  -4 -13  -3    4.61    0.34 
   4  13   3    4.84    0.32 
  -5 -13  -3    5.88    0.38 
   5  13   3    6.06    0.37 
   3  12  -4    0.11    0.15 
  -3 -12   4    0.17    0.16 
   2  12  -4   16.52    0.71 
  -2 -12   4   15.50    0.70 
   1  12  -4    0.33    0.17 
  -1 -12   4    0.47    0.15 
   5  11  -4    0.06    0.15 
  -5 -11   4    0.12    0.14 
   4  11  -4   -0.14    0.13 
  -4 -11   4    0.13    0.14 
   3  11  -4    4.51    0.31 
  -3 -11   4    5.42    0.32 
   2  11  -4    0.22    0.14 
  -2 -11   4    0.13    0.13 
   1  11  -4    0.17    0.15 
  -1 -11   4    0.29    0.14 
   0  11  -4    6.59    0.37 
   0 -11   4    6.13    0.35 
   6  10  -4   -0.03    0.14 
  -6 -10   4    0.24    0.14 
   5  10  -4   -0.04    0.12 
  -5 -10   4    0.19    0.13 
   4  10  -4    0.04    0.12 
  -4 -10   4    0.01    0.12 
   3  10  -4   23.27    0.91 
  -3 -10   4   22.92    0.92 
   2  10  -4    2.15    0.20 
  -2 -10   4    2.42    0.20 
   1  10  -4    8.10    0.40 
  -1 -10   4    7.72    0.38 
   0  10  -4    1.80    0.19 
   0 -10   4    1.79    0.17 
  -1  10  -4   22.45    0.84 
   1 -10   4   23.09    0.96 
   1 -10   4   20.01    0.88 
   1 -10   4   22.72    0.88 
  -2  10  -4    0.67    0.17 
   2 -10   4    0.71    0.14 
  -3  10  -4    0.96    0.20 
   3 -10   4    0.73    0.14 
   7   9  -4    3.67    0.28 
  -7  -9   4    3.85    0.29 
   6   9  -4    7.63    0.39 
  -6  -9   4    7.36    0.40 
   5   9  -4    2.17    0.20 
  -5  -9   4    1.89    0.19 
   4   9  -4    4.19    0.26 
  -4  -9   4    4.03    0.26 
   3   9  -4   17.02    0.69 
  -3  -9   4   16.84    0.69 
   2   9  -4    2.47    0.20 
  -2  -9   4    2.62    0.20 
   1   9  -4   68.16    2.44 
  -1  -9   4   67.15    2.46 
   0   9  -4   12.42    0.49 
   0   9  -4   11.69    0.53 
   0  -9   4   12.56    0.55 
   0  -9   4   11.84    0.52 
  -1   9  -4    0.89    0.15 
  -1   9  -4    0.93    0.12 
  -1   9  -4    0.87    0.15 
   1  -9   4    1.10    0.13 
  -2   9  -4   18.53    0.79 
  -2   9  -4   16.92    0.68 
   2  -9   4   16.69    0.71 
  -3   9  -4    6.53    0.39 
   3  -9   4    6.04    0.33 
  -4   9  -4    0.24    0.16 
   4  -9   4    0.02    0.11 
   7   8  -4    3.19    0.26 
  -7  -8   4    2.64    0.23 
   6   8  -4    4.88    0.30 
  -6  -8   4    4.51    0.29 
   5   8  -4   14.22    0.58 
  -5  -8   4   12.64    0.57 
   4   8  -4   16.18    0.64 
  -4  -8   4   14.61    0.63 
   3   8  -4    9.00    0.40 
  -3  -8   4    8.62    0.40 
   2   8  -4   34.92    1.22 
   2   8  -4   35.72    1.30 
  -2  -8   4   34.71    1.31 
   1   8  -4    2.85    0.18 
   1   8  -4    3.28    0.22 
  -1  -8   4    3.21    0.20 
  -1  -8   4    3.39    0.19 
   0   8  -4   14.65    0.58 
   0   8  -4   15.83    0.63 
   0  -8   4   15.82    0.66 
   0  -8   4   15.41    0.62 
  -1   8  -4    2.19    0.18 
  -1   8  -4    2.74    0.18 
  -1   8  -4    2.46    0.19 
   1  -8   4    2.43    0.18 
  -2   8  -4    0.13    0.09 
  -2   8  -4    0.14    0.11 
   2  -8   4   -0.02    0.09 
   2  -8   4    0.07    0.08 
  -3   8  -4   15.17    0.62 
  -3   8  -4   15.72    0.71 
   3  -8   4   15.05    0.63 
  -4   8  -4    5.19    0.36 
   4  -8   4    5.51    0.31 
  -5   8  -4   41.96    1.72 
   5  -8   4   41.14    1.51 
   8   7  -4    4.63    0.32 
  -8  -7   4    4.86    0.31 
   7   7  -4    0.20    0.14 
  -7  -7   4    0.41    0.14 
   6   7  -4   11.85    0.51 
  -6  -7   4   10.53    0.50 
   5   7  -4    0.25    0.11 
  -5  -7   4    0.39    0.11 
   4   7  -4  116.26    4.05 
  -4  -7   4  112.92    4.09 
   3   7  -4    7.68    0.34 
   3   7  -4    7.23    0.30 
  -3  -7   4    7.29    0.34 
   2   7  -4    3.47    0.18 
   2   7  -4    3.26    0.20 
  -2  -7   4    3.49    0.18 
  -2  -7   4    3.23    0.20 
   1   7  -4    8.12    0.34 
   1   7  -4    7.93    0.37 
  -1  -7   4    8.66    0.37 
  -1  -7   4    8.43    0.37 
   0   7  -4   10.71    0.45 
   0   7  -4    9.51    0.40 
   0  -7   4   10.17    0.43 
   0  -7   4   10.72    0.46 
  -1   7  -4   14.64    0.58 
  -1   7  -4   14.42    0.55 
  -1   7  -4   13.30    0.61 
   1  -7   4   14.61    0.57 
  -2   7  -4    9.31    0.39 
  -2   7  -4    9.65    0.45 
   2  -7   4    8.61    0.41 
   2  -7   4    9.04    0.39 
  -3   7  -4    8.13    0.42 
  -3   7  -4    7.73    0.36 
  -4   7  -4    6.85    0.37 
   4  -7   4    5.78    0.30 
   4  -7   4    5.65    0.31 
  -5   7  -4   11.57    0.58 
   5  -7   4   11.09    0.50 
  -6   7  -4   16.06    0.78 
   6  -7   4   16.37    0.68 
   8   6  -4   13.23    0.57 
  -8  -6   4   11.80    0.57 
   7   6  -4    3.29    0.24 
  -7  -6   4    3.32    0.25 
   6   6  -4   43.20    1.58 
  -6  -6   4   42.45    1.59 
   5   6  -4    0.44    0.11 
  -5  -6   4    0.28    0.10 
   4   6  -4   29.95    1.04 
   4   6  -4   30.43    1.12 
  -4  -6   4   29.37    1.12 
   3   6  -4   12.30    0.52 
   3   6  -4   13.59    0.48 
  -3  -6   4   13.37    0.53 
  -3  -6   4   13.05    0.53 
   2   6  -4   34.02    1.21 
   2   6  -4   35.94    1.29 
  -2  -6   4   35.74    1.35 
  -2  -6   4   35.51    1.30 
   1   6  -4    8.21    0.34 
  -1  -6   4    9.25    0.37 
  -1  -6   4    8.23    0.36 
   0   6  -4   16.40    0.61 
   0  -6   4   16.12    0.64 
   0  -6   4   17.59    0.68 
  -1   6  -4    3.20    0.18 
  -1   6  -4    3.40    0.20 
  -1   6  -4    3.66    0.20 
   1  -6   4    3.46    0.18 
  -2   6  -4   46.68    2.01 
  -2   6  -4   54.48    1.79 
   2  -6   4   54.77    1.87 
  -3   6  -4    9.14    0.43 
  -3   6  -4    8.19    0.37 
   3  -6   4    8.40    0.38 
  -4   6  -4   69.95    2.74 
  -4   6  -4   70.96    2.42 
   4  -6   4   70.29    2.52 
  -5   6  -4    3.72    0.29 
   5  -6   4    4.27    0.25 
   5  -6   4    3.91    0.24 
  -6   6  -4    8.78    0.49 
   6  -6   4    8.89    0.43 
  -7   6  -4    0.16    0.17 
   7  -6   4    0.29    0.14 
   8   5  -4   29.09    1.14 
  -8  -5   4   29.92    1.16 
   7   5  -4    4.30    0.27 
  -7  -5   4    4.26    0.28 
   6   5  -4    5.95    0.31 
  -6  -5   4    5.98    0.31 
   5   5  -4   39.67    1.40 
   5   5  -4   36.41    1.31 
  -5  -5   4   38.46    1.42 
   4   5  -4    0.46    0.09 
   4   5  -4    0.37    0.07 
  -4  -5   4    0.43    0.07 
  -4  -5   4    0.34    0.09 
   3   5  -4    8.96    0.36 
   3   5  -4    9.35    0.39 
  -3  -5   4    9.96    0.40 
  -3  -5   4    9.55    0.39 
   2   5  -4   31.48    1.08 
   2   5  -4   30.95    1.15 
  -2  -5   4   31.49    1.16 
  -2  -5   4   32.20    1.20 
   1   5  -4    2.67    0.15 
   1   5  -4    2.72    0.16 
  -1  -5   4    3.54    0.15 
  -1  -5   4    2.87    0.17 
   0   5  -4   71.25    2.66 
   0   5  -4   69.10    2.35 
   0   5  -4   69.90    2.48 
   0  -5   4   69.45    2.49 
  -1   5  -4    8.48    0.36 
  -1   5  -4    8.15    0.33 
  -1   5  -4    8.26    0.37 
   1  -5   4    7.92    0.33 
  -2   5  -4   36.50    1.25 
  -2   5  -4   35.97    1.41 
   2  -5   4   34.60    1.31 
   2  -5   4   36.55    1.30 
  -3   5  -4    4.77    0.26 
  -3   5  -4    4.54    0.23 
   3  -5   4    4.66    0.21 
   3  -5   4    4.57    0.24 
  -4   5  -4   56.14    1.95 
  -4   5  -4   56.88    2.21 
   4  -5   4   56.73    2.03 
  -5   5  -4   10.13    0.48 
  -5   5  -4    9.79    0.42 
   5  -5   4    8.96    0.42 
   5  -5   4    9.32    0.42 
  -6   5  -4    8.13    0.44 
   6  -5   4    7.75    0.38 
   6  -5   4    7.70    0.37 
  -7   5  -4    2.92    0.27 
   7  -5   4    2.95    0.23 
   8   4  -4    8.08    0.40 
  -8  -4   4    8.19    0.43 
   7   4  -4   22.96    0.90 
  -7  -4   4   23.20    0.93 
   6   4  -4    0.89    0.11 
   6   4  -4    0.68    0.12 
  -6  -4   4    0.88    0.13 
   5   4  -4   77.44    2.64 
   5   4  -4   71.22    2.50 
  -5  -4   4   73.45    2.67 
  -5  -4   4   74.21    2.81 
   4   4  -4    7.43    0.31 
   4   4  -4    7.32    0.33 
  -4  -4   4    7.60    0.32 
  -4  -4   4    7.89    0.34 
   3   4  -4    0.76    0.09 
   3   4  -4    0.63    0.07 
  -3  -4   4    0.59    0.09 
  -3  -4   4    0.74    0.06 
   2   4  -4   76.75    2.67 
   2   4  -4   73.58    2.53 
  -2  -4   4   75.83    2.85 
  -2  -4   4   76.65    2.70 
   1   4  -4   43.84    1.51 
   1   4  -4   43.48    1.59 
  -1  -4   4   46.27    1.69 
  -1  -4   4   44.86    1.61 
   0   4  -4  111.82    4.01 
   0   4  -4  112.12    3.81 
   0   4  -4  117.65    4.30 
   0  -4   4  115.53    4.04 
  -1   4  -4  141.17    4.78 
  -1   4  -4  147.02    5.41 
  -1   4  -4  141.06    5.02 
   1  -4   4  145.58    5.07 
  -2   4  -4   92.02    3.11 
  -2   4  -4   93.93    3.52 
   2  -4   4   93.83    3.27 
   2  -4   4   90.76    3.26 
  -3   4  -4   24.44    1.02 
  -3   4  -4   25.93    0.91 
   3  -4   4   25.72    0.94 
   3  -4   4   25.50    0.92 
  -4   4  -4    6.65    0.34 
  -4   4  -4    6.89    0.31 
   4  -4   4    6.56    0.31 
  -5   4  -4   34.52    1.40 
  -5   4  -4   35.38    1.24 
   5  -4   4   34.10    1.27 
  -6   4  -4   20.37    0.87 
   6  -4   4   19.62    0.77 
   6  -4   4   19.95    0.78 
  -7   4  -4    0.12    0.14 
   7  -4   4    0.01    0.10 
   7  -4   4    0.06    0.11 
  -8   4  -4    6.62    0.43 
   8  -4   4    7.03    0.38 
   8   3  -4    4.88    0.30 
  -8  -3   4    5.14    0.33 
   7   3  -4   10.22    0.46 
   7   3  -4   10.66    0.44 
  -7  -3   4   10.39    0.48 
   6   3  -4    0.42    0.09 
   6   3  -4    0.49    0.10 
  -6  -3   4    0.27    0.09 
  -6  -3   4    0.48    0.12 
   5   3  -4    1.98    0.15 
  -5  -3   4    1.85    0.15 
  -5  -3   4    1.71    0.13 
   4   3  -4    9.04    0.38 
   4   3  -4    9.05    0.36 
  -4  -3   4    9.16    0.38 
  -4  -3   4    9.43    0.40 
   3   3  -4   24.83    0.87 
   3   3  -4   25.60    0.91 
  -3  -3   4   24.49    0.96 
  -3  -3   4   24.83    0.93 
   2   3  -4   48.38    1.66 
   2   3  -4   48.83    1.74 
  -2  -3   4   49.58    1.76 
  -2  -3   4   49.11    1.85 
   1   3  -4    7.68    0.31 
   1   3  -4    8.33    0.33 
  -1  -3   4    8.28    0.33 
  -1  -3   4    8.21    0.32 
   0   3  -4   63.48    2.17 
   0   3  -4   67.92    2.45 
   0   3  -4   61.91    2.29 
   0  -3   4   65.73    2.30 
  -1   3  -4  112.75    3.72 
  -1   3  -4  110.36    4.20 
  -1   3  -4  107.84    3.90 
   1  -3   4  115.50    3.94 
  -2   3  -4   47.18    1.64 
  -2   3  -4   46.62    1.84 
   2  -3   4   49.83    1.73 
   2  -3   4   49.20    1.71 
  -3   3  -4  155.83    5.15 
  -3   3  -4  150.94    5.83 
   3  -3   4  157.82    5.43 
   3  -3   4  153.82    5.40 
  -4   3  -4    6.46    0.35 
  -4   3  -4    7.99    0.33 
   4  -3   4    8.24    0.33 
  -5   3  -4    6.11    0.29 
  -5   3  -4    6.38    0.32 
   5  -3   4    5.94    0.29 
  -6   3  -4    7.18    0.38 
   6  -3   4    7.41    0.34 
  -7   3  -4    4.89    0.32 
   7  -3   4    5.78    0.30 
   7  -3   4    5.18    0.28 
  -8   3  -4   25.34    1.12 
   8  -3   4   26.40    0.99 
   8   2  -4    0.32    0.12 
  -8  -2   4    0.51    0.16 
   7   2  -4    0.82    0.13 
   7   2  -4    0.83    0.12 
  -7  -2   4    0.75    0.15 
  -7  -2   4    0.90    0.13 
   6   2  -4    0.15    0.08 
   6   2  -4    0.10    0.09 
  -6  -2   4    0.07    0.11 
  -6  -2   4    0.09    0.09 
   5   2  -4   68.87    2.23 
   5   2  -4   64.59    2.33 
  -5  -2   4   66.15    2.39 
  -5  -2   4   63.55    2.51 
   4   2  -4   31.16    1.13 
   4   2  -4   29.94    1.07 
  -4  -2   4   30.84    1.20 
  -4  -2   4   32.19    1.16 
   3   2  -4   67.60    2.37 
   3   2  -4   66.89    2.26 
  -3  -2   4   66.60    2.54 
  -3  -2   4   67.43    2.41 
   2   2  -4   48.63    1.68 
   2   2  -4   47.45    1.61 
  -2  -2   4   46.12    1.71 
  -2  -2   4   47.86    1.79 
   1   2  -4  185.26    6.28 
   1   2  -4  169.75    5.98 
  -1  -2   4  186.89    6.36 
   0   2  -4    3.54    0.17 
   0   2  -4    3.59    0.16 
   0  -2   4    3.83    0.17 
  -1   2  -4   19.64    0.74 
  -1   2  -4   19.86    0.78 
  -1   2  -4   21.08    0.71 
   1  -2   4   20.44    0.74 
  -2   2  -4    0.32    0.05 
  -2   2  -4    0.38    0.05 
   2  -2   4    0.19    0.05 
   2  -2   4    0.27    0.04 
  -3   2  -4    0.64    0.08 
  -3   2  -4    0.82    0.08 
   3  -2   4    0.87    0.08 
   3  -2   4    0.81    0.06 
  -4   2  -4    3.79    0.20 
  -4   2  -4    3.85    0.22 
   4  -2   4    4.51    0.21 
  -5   2  -4    2.96    0.18 
  -5   2  -4    3.18    0.21 
   5  -2   4    2.94    0.18 
  -6   2  -4   27.98    1.02 
  -6   2  -4   28.62    1.16 
   6  -2   4   27.82    1.05 
  -7   2  -4   25.00    1.07 
   7  -2   4   25.79    0.95 
   7  -2   4   25.28    0.97 
  -8   2  -4    1.63    0.21 
   8  -2   4    1.41    0.15 
   8  -2   4    1.23    0.16 
  -9   2  -4   43.02    1.83 
   9  -2   4   45.97    1.61 
   8   1  -4    3.31    0.23 
  -8  -1   4    2.96    0.26 
   7   1  -4    8.28    0.37 
  -7  -1   4    8.87    0.43 
  -7  -1   4    8.12    0.42 
   6   1  -4    7.87    0.34 
   6   1  -4    7.81    0.34 
  -6  -1   4    7.61    0.38 
  -6  -1   4    7.23    0.37 
   5   1  -4   12.88    0.49 
   5   1  -4   12.65    0.48 
  -5  -1   4   11.67    0.52 
  -5  -1   4   12.44    0.52 
   4   1  -4   20.06    0.77 
   4   1  -4   22.22    0.80 
  -4  -1   4   22.78    0.84 
  -4  -1   4   21.89    0.86 
   3   1  -4  109.66    3.77 
   3   1  -4  114.42    3.95 
  -3  -1   4  114.30    4.03 
  -3  -1   4  114.16    4.26 
   2   1  -4    8.21    0.32 
   2   1  -4    7.97    0.31 
  -2  -1   4    8.24    0.33 
  -2  -1   4    8.16    0.34 
   1   1  -4   33.66    1.19 
   1   1  -4   35.67    1.24 
  -1  -1   4   34.88    1.27 
  -1  -1   4   35.59    1.32 
   0   1  -4  100.17    3.46 
   0   1  -4  103.44    3.63 
   0  -1   4  108.71    3.68 
  -1   1  -4   25.27    1.05 
  -1   1  -4   28.61    0.94 
   1  -1   4   27.78    1.00 
   1  -1   4   28.84    1.00 
  -2   1  -4    2.53    0.12 
  -2   1  -4    2.17    0.12 
   2  -1   4    2.25    0.11 
   2  -1   4    2.70    0.13 
  -3   1  -4   21.24    0.73 
  -3   1  -4   20.00    0.82 
   3  -1   4   20.78    0.76 
  -4   1  -4    0.87    0.09 
  -4   1  -4    1.15    0.09 
   4  -1   4    0.96    0.09 
  -5   1  -4   69.43    2.35 
  -5   1  -4   71.76    2.67 
   5  -1   4   66.94    2.46 
  -6   1  -4    6.35    0.32 
  -6   1  -4    5.48    0.27 
   6  -1   4    5.33    0.27 
  -7   1  -4   15.51    0.71 
   7  -1   4   15.86    0.62 
   7  -1   4   16.47    0.65 
  -8   1  -4    1.55    0.19 
   8  -1   4    1.48    0.15 
   8  -1   4    1.52    0.16 
  -9   1  -4   23.67    1.04 
   9  -1   4   22.24    0.93 
   9  -1   4   24.55    0.91 
   8   0  -4    5.44    0.31 
  -8   0   4    5.60    0.34 
   7   0  -4    4.04    0.25 
  -7   0   4    4.43    0.28 
  -7   0   4    4.98    0.31 
   6   0  -4   72.61    2.49 
  -6   0   4   69.83    2.81 
  -6   0   4   76.91    2.67 
   5   0  -4   20.07    0.73 
   5   0  -4   19.45    0.72 
  -5   0   4   19.40    0.80 
  -5   0   4   19.35    0.78 
   4   0  -4   32.30    1.16 
   4   0  -4   33.72    1.13 
  -4   0   4   31.46    1.21 
  -4   0   4   32.01    1.26 
   3   0  -4   11.59    0.40 
   3   0  -4   10.16    0.39 
  -3   0   4    9.93    0.43 
  -3   0   4    9.86    0.43 
   2   0  -4    7.54    0.29 
   2   0  -4    7.41    0.29 
  -2   0   4    7.84    0.31 
  -2   0   4    7.20    0.32 
   1   0  -4    5.03    0.21 
   1   0  -4    5.25    0.21 
  -1   0   4    4.91    0.23 
  -1   0   4    5.10    0.21 
   0   0  -4    0.70    0.06 
   0   0  -4    0.63    0.06 
   0   0  -4    0.57    0.04 
   0   0   4    0.67    0.06 
  -1   0  -4   21.05    0.71 
  -1   0  -4   18.67    0.79 
   1   0   4   22.37    0.76 
   1   0   4   20.32    0.75 
  -2   0  -4    1.09    0.08 
  -2   0  -4    1.17    0.08 
   2   0   4    1.18    0.07 
   2   0   4    1.23    0.09 
  -3   0  -4   63.04    2.51 
  -3   0  -4   66.81    2.22 
   3   0   4   69.02    2.34 
   3   0   4   66.09    2.33 
  -4   0  -4    9.90    0.37 
  -4   0  -4    9.83    0.42 
   4   0   4    9.27    0.39 
  -5   0  -4   48.54    1.59 
  -5   0  -4   41.48    1.80 
   5   0   4   49.17    1.67 
  -6   0  -4   36.71    1.44 
  -6   0  -4   35.81    1.26 
   6   0   4   36.16    1.33 
  -7   0  -4   33.42    1.32 
   7   0   4   31.38    1.21 
   7   0   4   32.83    1.16 
  -8   0  -4   47.48    1.86 
   8   0   4   46.84    1.62 
   8   0   4   44.60    1.70 
  -9   0  -4    6.91    0.41 
   9   0   4    7.02    0.37 
   9   0   4    6.65    0.34 
   8  -1  -4   24.37    0.91 
  -8   1   4   23.22    1.02 
   7  -1  -4    2.44    0.20 
  -7   1   4    2.72    0.23 
   6  -1  -4   32.02    1.14 
  -6   1   4   31.28    1.28 
  -6   1   4   31.80    1.22 
   5  -1  -4   36.96    1.28 
  -5   1   4   36.28    1.44 
  -5   1   4   35.94    1.37 
   4  -1  -4   33.95    1.22 
   4  -1  -4   35.85    1.20 
  -4   1   4   33.16    1.28 
  -4   1   4   34.02    1.34 
   3  -1  -4   14.20    0.53 
   3  -1  -4   14.74    0.53 
  -3   1   4   14.52    0.58 
  -3   1   4   13.67    0.57 
   2  -1  -4  126.59    4.24 
   2  -1  -4  126.90    4.43 
  -2   1   4  124.27    4.52 
  -2   1   4  132.28    4.80 
   1  -1  -4    2.05    0.11 
   1  -1  -4    2.12    0.11 
  -1   1   4    2.15    0.14 
  -1   1   4    2.28    0.12 
   0  -1  -4   42.87    1.64 
   0  -1  -4   45.36    1.46 
   0   1   4   41.68    1.52 
   0   1   4   42.74    1.56 
  -1  -1  -4   32.19    1.13 
  -1  -1  -4   30.68    1.26 
   1   1   4   37.00    1.21 
   1   1   4   33.00    1.18 
  -2  -1  -4  144.33    5.84 
  -2  -1  -4  159.11    5.16 
   2   1   4  163.81    5.48 
   2   1   4  155.79    5.41 
  -3  -1  -4    3.95    0.21 
  -3  -1  -4    4.86    0.19 
   3   1   4    4.46    0.20 
   3   1   4    4.69    0.18 
  -4  -1  -4   95.86    3.18 
  -4  -1  -4   94.75    3.62 
   4   1   4   95.34    3.35 
   4   1   4   95.60    3.36 
  -5  -1  -4   87.25    3.45 
  -5  -1  -4   92.73    3.04 
   5   1   4   92.33    3.20 
  -6  -1  -4   11.34    0.45 
  -6  -1  -4   12.03    0.52 
  -7  -1  -4   18.41    0.80 
   7   1   4   18.22    0.73 
   7   1   4   19.72    0.70 
  -8  -1  -4   28.27    1.20 
   8   1   4   29.71    1.05 
   8   1   4   29.09    1.11 
  -9  -1  -4   11.48    0.57 
   9   1   4   11.52    0.52 
   9   1   4   11.64    0.49 
 -10  -1  -4    2.43    0.25 
  10   1   4    1.73    0.17 
  10   1   4    1.75    0.21 
   7  -2  -4   12.13    0.51 
  -7   2   4   11.55    0.57 
   6  -2  -4   35.24    1.25 
  -6   2   4   34.23    1.33 
  -6   2   4   34.97    1.41 
   5  -2  -4    7.87    0.36 
  -5   2   4    8.13    0.39 
  -5   2   4    8.11    0.39 
   4  -2  -4    0.31    0.08 
  -4   2   4    0.30    0.09 
  -4   2   4    0.31    0.10 
   3  -2  -4   16.78    0.60 
   3  -2  -4   17.50    0.61 
  -3   2   4   16.21    0.68 
  -3   2   4   16.10    0.66 
   2  -2  -4   16.69    0.59 
   2  -2  -4   16.76    0.59 
  -2   2   4   15.91    0.65 
  -2   2   4   16.50    0.66 
   1  -2  -4    1.65    0.08 
   1  -2  -4    1.65    0.10 
  -1   2   4    1.84    0.13 
  -1   2   4    1.83    0.11 
   0  -2  -4  100.37    3.36 
   0  -2  -4   96.09    3.80 
   0   2   4  106.50    3.59 
   0   2   4  101.15    3.51 
  -1  -2  -4    3.55    0.16 
  -1  -2  -4    3.52    0.17 
   1   2   4    3.89    0.18 
   1   2   4    3.62    0.15 
  -2  -2  -4   58.71    2.41 
  -2  -2  -4   66.84    2.13 
   2   2   4   66.59    2.26 
   2   2   4   62.01    2.23 
  -3  -2  -4  132.55    5.16 
  -3  -2  -4  134.88    4.54 
   3   2   4  140.57    4.83 
   3   2   4  140.06    4.78 
  -4  -2  -4   29.78    1.21 
  -4  -2  -4   31.71    1.06 
   4   2   4   31.84    1.11 
   4   2   4   30.55    1.12 
  -5  -2  -4   17.55    0.59 
  -5  -2  -4   16.45    0.69 
   5   2   4   16.06    0.60 
   5   2   4   16.15    0.63 
  -6  -2  -4   64.22    2.52 
  -6  -2  -4   65.30    2.20 
   6   2   4   66.14    2.33 
  -7  -2  -4   10.59    0.49 
   7   2   4   10.22    0.45 
  -8  -2  -4   21.62    0.92 
   8   2   4   22.02    0.79 
   8   2   4   20.71    0.84 
  -9  -2  -4    0.51    0.16 
   9   2   4    0.30    0.10 
   9   2   4    0.27    0.12 
 -10  -2  -4   12.67    0.63 
  10   2   4   11.86    0.56 
   7  -3  -4   40.56    1.44 
  -7   3   4   39.19    1.63 
   6  -3  -4    0.15    0.11 
  -6   3   4    0.08    0.12 
  -6   3   4    0.14    0.13 
   5  -3  -4    7.07    0.33 
  -5   3   4    7.33    0.37 
  -5   3   4    6.68    0.36 
   4  -3  -4    1.06    0.12 
  -4   3   4    0.83    0.13 
  -4   3   4    0.88    0.12 
   3  -3  -4    1.23    0.11 
  -3   3   4    1.35    0.12 
  -3   3   4    1.43    0.13 
   2  -3  -4   76.21    2.49 
  -2   3   4   72.76    2.66 
  -2   3   4   72.80    2.82 
   1  -3  -4   44.42    1.53 
  -1   3   4   46.02    1.74 
  -1   3   4   44.75    1.64 
   0  -3  -4    3.06    0.14 
   0   3   4    3.15    0.17 
   0   3   4    3.01    0.17 
   0   3   4    2.98    0.12 
  -1  -3  -4   37.83    1.51 
  -1  -3  -4   41.19    1.33 
   1   3   4   37.83    1.38 
   1   3   4   40.67    1.43 
  -2  -3  -4   73.30    3.04 
  -2  -3  -4   81.21    2.68 
   2   3   4   83.15    2.82 
   2   3   4   84.62    2.86 
  -3  -3  -4   28.41    1.18 
  -3  -3  -4   30.91    1.02 
   3   3   4   31.72    1.10 
   3   3   4   29.98    1.09 
  -4  -3  -4   53.09    2.08 
  -4  -3  -4   55.85    1.82 
   4   3   4   52.53    1.92 
   4   3   4   55.31    1.93 
  -5  -3  -4   16.66    0.70 
  -5  -3  -4   17.04    0.60 
   5   3   4   17.06    0.63 
   5   3   4   16.82    0.65 
  -6  -3  -4   18.16    0.63 
  -6  -3  -4   17.79    0.65 
   6   3   4   16.91    0.68 
  -7  -3  -4    8.02    0.40 
   7   3   4    8.66    0.38 
   7   3   4    7.64    0.32 
  -8  -3  -4    4.72    0.29 
   8   3   4    5.06    0.24 
   8   3   4    4.59    0.27 
  -9  -3  -4    4.32    0.30 
   9   3   4    4.00    0.27 
 -10  -3  -4   22.44    1.00 
  10   3   4   22.42    0.91 
   7  -4  -4    6.95    0.37 
  -7   4   4    6.42    0.41 
   6  -4  -4    0.49    0.13 
  -6   4   4    0.37    0.14 
   5  -4  -4    1.88    0.17 
  -5   4   4    2.02    0.19 
  -5   4   4    1.90    0.18 
   4  -4  -4   12.18    0.48 
  -4   4   4   11.51    0.51 
  -4   4   4   11.34    0.53 
   3  -4  -4   12.81    0.50 
  -3   4   4   13.29    0.57 
  -3   4   4   12.66    0.54 
   2  -4  -4    0.87    0.09 
  -2   4   4    0.68    0.10 
  -2   4   4    0.81    0.11 
   1  -4  -4   99.39    3.32 
  -1   4   4  100.65    3.78 
  -1   4   4   98.08    3.55 
   0  -4  -4   51.61    1.73 
   0   4   4   51.68    1.98 
   0   4   4   50.67    1.86 
  -1  -4  -4  165.72    6.32 
  -1  -4  -4  169.94    5.56 
   1   4   4  170.57    5.93 
   1   4   4  165.79    5.83 
  -2  -4  -4   29.84    1.24 
  -2  -4  -4   32.81    1.09 
   2   4   4   32.91    1.17 
   2   4   4   32.40    1.14 
  -3  -4  -4   89.96    2.97 
  -3  -4  -4   85.25    3.40 
   3   4   4   91.68    3.18 
   3   4   4   91.34    3.14 
  -4  -4  -4   14.22    0.64 
  -4  -4  -4   15.98    0.54 
   4   4   4   15.87    0.59 
   4   4   4   16.24    0.60 
  -5  -4  -4    3.05    0.19 
  -5  -4  -4    3.22    0.14 
   5   4   4    2.97    0.18 
   5   4   4    3.28    0.16 
  -6  -4  -4    8.28    0.31 
   6   4   4    8.61    0.36 
   6   4   4    7.69    0.33 
  -7  -4  -4    5.18    0.30 
   7   4   4    5.02    0.22 
   7   4   4    4.75    0.26 
  -8  -4  -4   18.35    0.81 
   8   4   4   18.66    0.75 
  -9  -4  -4    6.48    0.38 
   9   4   4    6.43    0.34 
 -10  -4  -4    5.36    0.37 
  10   4   4    4.94    0.32 
   6  -5  -4    3.82    0.27 
  -6   5   4    4.58    0.32 
   5  -5  -4   12.05    0.51 
  -5   5   4   12.02    0.58 
  -5   5   4   12.64    0.56 
   4  -5  -4    2.76    0.19 
  -4   5   4    2.74    0.22 
  -4   5   4    2.68    0.22 
   3  -5  -4   11.30    0.46 
  -3   5   4   11.42    0.53 
  -3   5   4   12.27    0.52 
   2  -5  -4    0.53    0.08 
  -2   5   4    0.55    0.10 
  -2   5   4    0.50    0.10 
   1  -5  -4   93.98    3.06 
  -1   5   4   85.39    3.48 
  -1   5   4   94.53    3.28 
   0  -5  -4    7.82    0.31 
   0   5   4    7.44    0.35 
   0   5   4    8.57    0.38 
  -1  -5  -4   19.19    0.77 
  -1  -5  -4   19.45    0.66 
   1   5   4   17.89    0.67 
   1   5   4   19.20    0.73 
  -2  -5  -4    3.28    0.15 
  -2  -5  -4    3.17    0.18 
   2   5   4    3.44    0.15 
   2   5   4    3.42    0.18 
  -3  -5  -4    6.57    0.24 
  -3  -5  -4    5.81    0.30 
   3   5   4    7.01    0.27 
   3   5   4    6.33    0.29 
  -4  -5  -4    0.33    0.07 
  -4  -5  -4    0.32    0.04 
   4   5   4    0.46    0.07 
   4   5   4    0.22    0.06 
  -5  -5  -4    0.43    0.09 
  -5  -5  -4    0.45    0.05 
   5   5   4    0.34    0.07 
   5   5   4    0.40    0.08 
  -6  -5  -4    3.80    0.23 
   6   5   4    3.62    0.19 
   6   5   4    3.87    0.22 
  -7  -5  -4   43.45    1.59 
  -7  -5  -4   43.96    1.74 
   7   5   4   44.66    1.61 
  -8  -5  -4    9.51    0.46 
   8   5   4    8.75    0.42 
  -9  -5  -4   39.60    1.55 
   9   5   4   36.19    1.42 
 -10  -5  -4    2.27    0.23 
  10   5   4    2.14    0.21 
   6  -6  -4   -0.17    0.13 
  -6   6   4    0.17    0.17 
   5  -6  -4   50.04    1.80 
  -5   6   4   51.97    2.05 
   4  -6  -4    1.89    0.16 
  -4   6   4    2.30    0.21 
  -4   6   4    2.16    0.20 
   3  -6  -4   35.30    1.25 
  -3   6   4   34.84    1.43 
  -3   6   4   35.72    1.34 
   2  -6  -4  242.83    8.07 
  -2   6   4  241.59    9.17 
  -2   6   4  244.73    8.60 
   1  -6  -4   27.04    0.97 
  -1   6   4   27.56    1.06 
  -1   6   4   28.50    1.13 
   0  -6  -4    4.96    0.22 
   0   6   4    5.43    0.27 
   0   6   4    5.06    0.28 
  -1  -6  -4    7.64    0.37 
  -1  -6  -4    7.98    0.30 
   1   6   4    8.02    0.35 
   1   6   4    7.66    0.30 
  -2  -6  -4    2.02    0.10 
  -2  -6  -4    1.86    0.14 
   2   6   4    1.94    0.15 
   2   6   4    1.88    0.11 
  -3  -6  -4   26.58    1.21 
  -3  -6  -4   31.35    1.04 
   3   6   4   31.50    1.11 
   3   6   4   33.05    1.15 
  -4  -6  -4   28.93    1.15 
  -4  -6  -4   28.45    0.96 
   4   6   4   29.03    1.08 
   4   6   4   28.94    1.05 
  -5  -6  -4   53.32    2.14 
   5   6   4   55.75    1.98 
   5   6   4   56.70    2.00 
  -6  -6  -4    1.67    0.15 
   6   6   4    1.36    0.13 
   6   6   4    1.48    0.12 
  -7  -6  -4  102.08    3.92 
   7   6   4  105.37    3.63 
   7   6   4   99.51    3.64 
  -8  -6  -4    3.98    0.27 
   8   6   4    3.67    0.24 
  -9  -6  -4    1.69    0.21 
   9   6   4    1.60    0.18 
 -10  -6  -4    0.80    0.19 
  10   6   4    0.74    0.16 
   5  -7  -4    0.50    0.14 
  -5   7   4    0.34    0.17 
   4  -7  -4   34.26    1.23 
  -4   7   4   34.55    1.41 
  -4   7   4   32.68    1.31 
   3  -7  -4    9.10    0.40 
  -3   7   4    8.82    0.43 
  -3   7   4    8.99    0.47 
   2  -7  -4    5.13    0.25 
  -2   7   4    4.94    0.29 
  -2   7   4    5.07    0.31 
   1  -7  -4    4.19    0.21 
  -1   7   4    4.04    0.25 
  -1   7   4    4.10    0.26 
   0  -7  -4   22.48    0.83 
   0   7   4   25.07    0.93 
  -1  -7  -4   10.08    0.45 
  -1  -7  -4    8.72    0.35 
   1   7   4   10.02    0.43 
   1   7   4    9.43    0.36 
  -3  -7  -4   30.54    1.02 
  -3  -7  -4   29.02    1.21 
   3   7   4   30.12    1.13 
   3   7   4   30.99    1.09 
  -4  -7  -4    0.17    0.08 
   4   7   4    0.18    0.08 
   4   7   4    0.24    0.07 
  -5  -7  -4   27.41    1.11 
   5   7   4   26.48    1.02 
   5   7   4   28.41    1.04 
  -6  -7  -4   36.90    1.46 
   6   7   4   36.01    1.35 
   6   7   4   36.02    1.34 
  -7  -7  -4    0.33    0.13 
   7   7   4    0.37    0.11 
   7   7   4    0.31    0.09 
  -8  -7  -4    0.20    0.13 
   8   7   4    0.24    0.11 
  -9  -7  -4    2.91    0.26 
   9   7   4    2.81    0.23 
 -10  -7  -4    0.16    0.17 
  10   7   4    0.04    0.14 
   4  -8  -4   32.86    1.20 
  -4   8   4   31.50    1.28 
  -4   8   4   33.18    1.38 
   3  -8  -4    0.72    0.13 
  -3   8   4    0.94    0.17 
  -3   8   4    0.97    0.18 
   2  -8  -4    2.90    0.19 
  -2   8   4    3.35    0.26 
  -2   8   4    2.88    0.23 
   1  -8  -4   -0.02    0.07 
  -1   8   4    0.18    0.11 
  -1   8   4    0.01    0.10 
   0  -8  -4    7.97    0.42 
   0  -8  -4    8.64    0.34 
   0   8   4    8.62    0.41 
  -1  -8  -4   32.85    1.30 
  -1  -8  -4   30.43    1.10 
   1   8   4   33.13    1.22 
  -2  -8  -4    4.44    0.19 
  -2  -8  -4    4.52    0.27 
   2   8   4    4.14    0.20 
   2   8   4    4.00    0.24 
  -3  -8  -4   12.55    0.57 
   3   8   4   12.70    0.53 
   3   8   4   12.77    0.49 
  -4  -8  -4   87.79    3.35 
   4   8   4   83.89    3.13 
   4   8   4   89.64    3.07 
  -5  -8  -4    0.26    0.10 
   5   8   4    0.17    0.09 
   5   8   4    0.55    0.10 
  -6  -8  -4    8.93    0.44 
   6   8   4    9.10    0.40 
   6   8   4    8.45    0.40 
  -7  -8  -4    4.72    0.30 
   7   8   4    4.25    0.25 
   7   8   4    4.37    0.26 
  -8  -8  -4   11.20    0.49 
  -8  -8  -4   11.54    0.56 
   8   8   4   11.35    0.51 
  -9  -8  -4    8.94    0.48 
   9   8   4    8.86    0.44 
 -10  -8  -4    2.05    0.25 
  10   8   4    2.25    0.23 
   3  -9  -4    5.68    0.31 
  -3   9   4    5.04    0.37 
  -3   9   4    5.29    0.34 
   2  -9  -4    2.04    0.17 
  -2   9   4    2.10    0.20 
  -2   9   4    2.35    0.23 
   1  -9  -4    0.31    0.10 
  -1   9   4    0.21    0.12 
  -1   9   4    0.35    0.15 
   0  -9  -4   18.47    0.67 
   0  -9  -4   18.69    0.81 
   0   9   4   17.77    0.76 
  -1  -9  -4    4.43    0.20 
  -1  -9  -4    4.32    0.28 
   1   9   4    4.31    0.27 
  -2  -9  -4   39.27    1.55 
   2   9   4   37.81    1.45 
  -3  -9  -4    7.78    0.41 
   3   9   4    7.94    0.38 
   3   9   4    7.94    0.34 
  -4  -9  -4    1.52    0.16 
   4   9   4    1.52    0.13 
   4   9   4    1.57    0.16 
  -5  -9  -4    3.41    0.24 
   5   9   4    3.27    0.22 
   5   9   4    3.07    0.20 
  -6  -9  -4   11.53    0.55 
   6   9   4   11.85    0.49 
   6   9   4   11.08    0.50 
  -7  -9  -4    0.37    0.13 
   7   9   4    0.69    0.13 
   7   9   4    0.43    0.12 
  -8  -9  -4    0.07    0.14 
  -8  -9  -4    0.07    0.10 
   8   9   4   -0.04    0.11 
   8   9   4    0.05    0.11 
  -9  -9  -4    2.11    0.24 
   9   9   4    2.54    0.22 
   2 -10  -4    7.36    0.36 
  -2  10   4    7.13    0.40 
  -2  10   4    7.38    0.46 
   1 -10  -4    0.71    0.16 
   1 -10  -4    0.99    0.13 
  -1  10   4    0.93    0.16 
   0 -10  -4   19.99    0.89 
   0  10   4   20.32    0.83 
  -1 -10  -4    0.34    0.13 
   1  10   4    0.26    0.12 
  -2 -10  -4   17.72    0.78 
   2  10   4   17.00    0.72 
  -3 -10  -4    3.19    0.25 
   3  10   4    3.90    0.25 
  -4 -10  -4    3.07    0.24 
   4  10   4    3.17    0.23 
   4  10   4    2.78    0.19 
  -5 -10  -4   19.41    0.87 
   5  10   4   20.59    0.79 
   5  10   4   20.31    0.82 
  -6 -10  -4    1.15    0.16 
   6  10   4    0.99    0.15 
   6  10   4    0.95    0.14 
  -7 -10  -4    0.17    0.14 
   7  10   4    0.22    0.12 
   7  10   4    0.09    0.11 
  -8 -10  -4    1.53    0.21 
   8  10   4    1.65    0.19 
   8  10   4    1.61    0.18 
  -9 -10  -4    0.47    0.18 
   9  10   4    0.36    0.15 
   1 -11  -4    3.15    0.29 
  -1  11   4    2.39    0.23 
   0 -11  -4    4.74    0.35 
   0  11   4    4.55    0.31 
  -1 -11  -4   28.45    1.20 
   1  11   4   27.47    1.11 
  -2 -11  -4    0.28    0.14 
   2  11   4    0.49    0.15 
  -3 -11  -4    6.83    0.40 
   3  11   4    7.22    0.38 
  -4 -11  -4    3.13    0.26 
   4  11   4    3.72    0.26 
  -5 -11  -4    0.82    0.16 
   5  11   4    0.81    0.15 
   5  11   4    0.86    0.14 
  -6 -11  -4    1.37    0.19 
   6  11   4    1.14    0.17 
   6  11   4    1.44    0.16 
  -7 -11  -4    3.04    0.27 
   7  11   4    3.41    0.26 
   7  11   4    3.32    0.24 
  -8 -11  -4    5.67    0.38 
   8  11   4    5.47    0.34 
   8  11   4    5.73    0.34 
   0 -12  -4    0.14    0.18 
   0  12   4   -0.05    0.15 
  -1 -12  -4   12.54    0.63 
   1  12   4   12.52    0.59 
  -2 -12  -4    0.33    0.16 
   2  12   4    0.55    0.16 
  -3 -12  -4    3.24    0.27 
   3  12   4    3.43    0.27 
  -4 -12  -4    0.18    0.14 
   4  12   4    0.30    0.15 
  -5 -12  -4    0.14    0.13 
   5  12   4    0.05    0.13 
  -6 -12  -4    0.88    0.18 
   6  12   4    1.16    0.16 
   6  12   4    1.06    0.17 
  -7 -12  -4    5.62    0.36 
   7  12   4    4.61    0.30 
   7  12   4    4.63    0.33 
  -3 -13  -4    1.10    0.21 
   3  13   4    0.78    0.18 
  -4 -13  -4    0.22    0.15 
   4  13   4    0.46    0.16 
  -5 -13  -4    5.78    0.39 
   5  13   4    5.95    0.37 
   4  11  -5    5.70    0.35 
  -4 -11   5    5.48    0.34 
   3  11  -5   13.03    0.57 
  -3 -11   5   11.58    0.56 
   2  11  -5    0.03    0.15 
  -2 -11   5    0.25    0.14 
   1  11  -5    0.17    0.15 
  -1 -11   5    0.36    0.14 
   0  11  -5    0.31    0.16 
   0 -11   5    0.29    0.14 
   6  10  -5    4.27    0.32 
  -6 -10   5    4.73    0.32 
   5  10  -5    3.11    0.25 
  -5 -10   5    2.99    0.25 
   4  10  -5    2.18    0.21 
  -4 -10   5    2.21    0.21 
   3  10  -5    0.35    0.14 
  -3 -10   5    0.20    0.13 
   2  10  -5    1.27    0.18 
  -2 -10   5    1.51    0.17 
   1  10  -5   11.12    0.51 
  -1 -10   5   10.64    0.49 
   0  10  -5    1.08    0.17 
   0 -10   5    1.09    0.16 
  -1  10  -5   33.11    1.18 
   1 -10   5   31.63    1.25 
  -2  10  -5    0.47    0.14 
   3 -10   5    8.33    0.42 
   6   9  -5   11.40    0.53 
  -6  -9   5   10.93    0.52 
   5   9  -5    1.56    0.19 
  -5  -9   5    1.45    0.18 
   4   9  -5    2.41    0.21 
  -4  -9   5    2.77    0.22 
   3   9  -5    9.54    0.44 
  -3  -9   5    9.30    0.44 
   2   9  -5   13.69    0.59 
  -2  -9   5   13.90    0.58 
   1   9  -5    6.59    0.35 
  -1  -9   5    6.43    0.33 
   0   9  -5   18.54    0.77 
   0   9  -5   18.50    0.72 
   0  -9   5   19.58    0.76 
  -1   9  -5    3.73    0.26 
  -1   9  -5    3.68    0.23 
   1  -9   5    3.39    0.23 
  -2   9  -5    7.27    0.38 
  -2   9  -5    6.45    0.33 
   2  -9   5    5.64    0.34 
  -3   9  -5   24.79    0.94 
  -3   9  -5   24.11    1.05 
  -4   9  -5   17.91    0.79 
   4  -9   5   15.21    0.68 
   7   8  -5    3.31    0.27 
  -7  -8   5    3.37    0.27 
   6   8  -5    6.22    0.35 
  -6  -8   5    6.08    0.35 
   5   8  -5    1.36    0.17 
  -5  -8   5    1.62    0.17 
   4   8  -5    0.16    0.11 
  -4  -8   5    0.24    0.11 
   3   8  -5    0.09    0.10 
  -3  -8   5    0.09    0.10 
   2   8  -5   51.16    1.89 
   2   8  -5   53.33    1.79 
  -2  -8   5   51.63    1.91 
   1   8  -5    4.93    0.24 
   1   8  -5    4.34    0.26 
  -1  -8   5    4.24    0.25 
   0   8  -5    7.05    0.34 
   0   8  -5    7.23    0.32 
   0  -8   5    6.65    0.33 
  -1   8  -5    2.22    0.18 
  -1   8  -5    2.03    0.16 
  -1   8  -5    2.07    0.18 
   1  -8   5    1.88    0.16 
  -2   8  -5   37.48    1.33 
  -2   8  -5   39.04    1.50 
   2  -8   5   35.08    1.39 
  -3   8  -5    0.74    0.13 
  -3   8  -5    0.99    0.16 
   3  -8   5    0.77    0.14 
  -4   8  -5    2.98    0.23 
  -4   8  -5    3.37    0.28 
  -5   8  -5    0.24    0.16 
   5  -8   5    0.15    0.13 
   7   7  -5    3.02    0.24 
  -7  -7   5    2.71    0.23 
   6   7  -5    3.97    0.26 
  -6  -7   5    3.16    0.26 
   5   7  -5    2.57    0.21 
  -5  -7   5    1.90    0.18 
   4   7  -5    9.99    0.45 
  -4  -7   5   10.03    0.45 
   3   7  -5    1.04    0.13 
   3   7  -5    1.10    0.11 
  -3  -7   5    1.32    0.14 
   2   7  -5   39.94    1.39 
   2   7  -5   41.30    1.48 
  -2  -7   5   39.42    1.48 
   1   7  -5    1.52    0.15 
   1   7  -5    1.58    0.12 
  -1  -7   5    1.35    0.13 
   0   7  -5   88.18    3.01 
   0   7  -5   88.93    3.17 
   0  -7   5   90.70    3.19 
  -1   7  -5   17.31    0.74 
  -1   7  -5   17.87    0.67 
  -1   7  -5   17.82    0.71 
   1  -7   5   17.68    0.69 
  -2   7  -5   14.80    0.59 
  -2   7  -5   16.08    0.66 
   2  -7   5   15.43    0.60 
   2  -7   5   14.11    0.62 
  -3   7  -5    2.70    0.22 
  -3   7  -5    2.64    0.20 
   3  -7   5    2.85    0.21 
  -4   7  -5    3.16    0.23 
  -4   7  -5    3.86    0.28 
   4  -7   5    3.60    0.24 
  -5   7  -5    3.27    0.28 
   5  -7   5    3.22    0.24 
  -6   7  -5   17.48    0.82 
   6  -7   5   16.86    0.72 
   8   6  -5    2.99    0.25 
  -8  -6   5    2.79    0.25 
   7   6  -5    0.01    0.13 
  -7  -6   5    0.09    0.13 
   6   6  -5   38.96    1.46 
  -6  -6   5   39.32    1.48 
   5   6  -5   11.45    0.49 
  -5  -6   5   11.32    0.50 
   4   6  -5   36.50    1.30 
   4   6  -5   33.18    1.21 
  -4  -6   5   35.07    1.31 
   3   6  -5   13.88    0.56 
   3   6  -5   13.68    0.51 
  -3  -6   5   13.72    0.56 
   2   6  -5   27.02    0.99 
   2   6  -5   26.36    0.93 
  -2  -6   5   25.97    1.00 
   1   6  -5   25.63    0.96 
  -1  -6   5   25.05    0.95 
   0   6  -5    2.09    0.17 
   0   6  -5    2.19    0.14 
   0  -6   5    2.09    0.14 
   0  -6   5    2.13    0.15 
  -1   6  -5    3.43    0.20 
  -1   6  -5    4.15    0.22 
  -1   6  -5    3.64    0.22 
   1  -6   5    3.81    0.20 
  -2   6  -5    0.14    0.08 
  -2   6  -5    0.27    0.09 
   2  -6   5    0.21    0.09 
   2  -6   5    0.19    0.07 
  -3   6  -5    2.86    0.22 
  -3   6  -5    3.32    0.20 
   3  -6   5    3.02    0.21 
  -4   6  -5   14.29    0.65 
  -4   6  -5   14.28    0.57 
   4  -6   5   13.68    0.58 
  -5   6  -5    0.06    0.12 
  -5   6  -5    0.24    0.11 
   5  -6   5    0.06    0.10 
  -6   6  -5   15.59    0.74 
   6  -6   5   15.90    0.66 
  -7   6  -5    1.72    0.24 
   7  -6   5    1.27    0.19 
   8   5  -5    2.50    0.23 
  -8  -5   5    2.77    0.26 
   7   5  -5    0.02    0.12 
  -7  -5   5    0.07    0.13 
   6   5  -5    1.44    0.16 
  -6  -5   5    1.31    0.16 
   5   5  -5    0.21    0.10 
   5   5  -5    0.41    0.09 
  -5  -5   5    0.18    0.11 
   4   5  -5    1.01    0.12 
   4   5  -5    0.79    0.10 
  -4  -5   5    0.89    0.12 
   3   5  -5   98.07    3.44 
   3   5  -5  107.58    3.63 
  -3  -5   5  103.17    3.67 
   2   5  -5    0.70    0.08 
   2   5  -5    0.62    0.09 
  -2  -5   5    0.55    0.09 
   1   5  -5   35.22    1.26 
   1   5  -5   37.18    1.34 
  -1  -5   5   37.61    1.39 
  -1  -5   5   36.47    1.34 
   0   5  -5    6.37    0.29 
   0   5  -5    5.76    0.27 
   0  -5   5    6.49    0.27 
   0  -5   5    6.16    0.28 
  -1   5  -5    2.33    0.16 
  -1   5  -5    3.09    0.17 
  -1   5  -5    2.97    0.19 
   1  -5   5    3.03    0.16 
  -2   5  -5   10.16    0.45 
  -2   5  -5   10.38    0.42 
   2  -5   5   10.18    0.41 
  -3   5  -5    0.45    0.09 
  -3   5  -5    0.50    0.10 
   3  -5   5    0.63    0.10 
  -4   5  -5   27.09    1.09 
  -4   5  -5   25.61    0.96 
   4  -5   5   26.34    1.00 
  -5   5  -5    2.43    0.21 
  -5   5  -5    2.23    0.18 
   5  -5   5    2.26    0.18 
  -6   5  -5   29.28    1.24 
   6  -5   5   29.60    1.12 
  -7   5  -5   33.16    1.37 
   7  -5   5   31.47    1.20 
   8   4  -5    0.73    0.15 
  -8  -4   5    0.61    0.18 
   7   4  -5   26.48    1.02 
  -7  -4   5   26.02    1.05 
   6   4  -5   10.93    0.48 
   6   4  -5   11.37    0.45 
  -6  -4   5   11.01    0.50 
   5   4  -5   43.75    1.61 
   5   4  -5   46.13    1.54 
  -5  -4   5   43.11    1.64 
   4   4  -5    3.42    0.19 
   4   4  -5    3.77    0.21 
  -4  -4   5    3.43    0.22 
   3   4  -5   31.89    1.11 
   3   4  -5   33.19    1.18 
  -3  -4   5   31.29    1.19 
   2   4  -5   22.67    0.82 
   2   4  -5   23.60    0.87 
  -2  -4   5   23.24    0.89 
  -2  -4   5   23.69    0.88 
   1   4  -5    3.78    0.20 
   1   4  -5    3.83    0.18 
  -1  -4   5    3.79    0.19 
  -1  -4   5    3.58    0.15 
   0   4  -5   36.49    1.31 
   0   4  -5   37.76    1.39 
   0  -4   5   40.15    1.46 
   0  -4   5   38.40    1.39 
  -1   4  -5   34.74    1.21 
  -1   4  -5   33.89    1.27 
  -1   4  -5   36.17    1.34 
   1  -4   5   34.18    1.26 
  -2   4  -5    9.51    0.36 
  -2   4  -5    9.22    0.39 
   2  -4   5    8.86    0.35 
   2  -4   5    7.12    0.37 
  -3   4  -5   90.87    3.02 
  -3   4  -5   89.98    3.40 
   3  -4   5   88.29    3.15 
   3  -4   5   87.91    3.16 
  -4   4  -5    9.47    0.45 
  -4   4  -5   10.06    0.41 
   4  -4   5    9.16    0.41 
  -5   4  -5  106.88    4.08 
  -5   4  -5  105.42    3.60 
   5  -4   5  106.98    3.76 
  -6   4  -5    9.53    0.48 
  -6   4  -5    9.40    0.43 
   6  -4   5    9.91    0.43 
  -7   4  -5   12.16    0.59 
   7  -4   5   12.14    0.53 
   7  -4   5   11.90    0.53 
  -8   4  -5    0.45    0.18 
   8  -4   5    0.49    0.15 
  -8  -3   5    0.29    0.16 
   7   3  -5   36.31    1.38 
   7   3  -5   38.19    1.32 
  -7  -3   5   37.15    1.43 
   6   3  -5   16.38    0.65 
   6   3  -5   16.37    0.62 
  -6  -3   5   16.41    0.69 
   5   3  -5   12.03    0.49 
   5   3  -5   12.43    0.48 
  -5  -3   5   11.65    0.52 
   4   3  -5   75.67    2.52 
   4   3  -5   73.04    2.64 
  -4  -3   5   75.22    2.69 
   3   3  -5   20.14    0.72 
   3   3  -5   17.91    0.74 
  -3  -3   5   20.68    0.77 
  -3  -3   5   21.29    0.77 
   2   3  -5    4.93    0.23 
   2   3  -5    5.48    0.24 
  -2  -3   5    5.14    0.21 
  -2  -3   5    4.95    0.25 
   1   3  -5    1.02    0.09 
   1   3  -5    1.08    0.09 
  -1  -3   5    1.40    0.11 
   0   3  -5   51.42    1.84 
   0   3  -5   49.76    1.74 
   0  -3   5   49.14    1.84 
   0  -3   5   55.41    1.94 
  -1   3  -5   34.59    1.31 
  -1   3  -5   33.83    1.18 
  -1   3  -5   34.64    1.24 
   1  -3   5   33.89    1.24 
  -2   3  -5   22.82    0.81 
  -2   3  -5   22.47    0.89 
   2  -3   5   22.88    0.86 
   2  -3   5   22.84    0.83 
  -3   3  -5   54.52    1.83 
  -3   3  -5   53.04    2.05 
   3  -3   5   53.99    1.92 
   3  -3   5   52.25    1.89 
  -4   3  -5    5.17    0.28 
  -4   3  -5    5.77    0.26 
   4  -3   5    5.88    0.27 
  -5   3  -5   66.02    2.32 
  -5   3  -5   70.02    2.63 
   5  -3   5   67.83    2.43 
  -6   3  -5    2.37    0.19 
  -6   3  -5    2.81    0.22 
   6  -3   5    2.41    0.18 
  -7   3  -5   12.82    0.61 
   7  -3   5   12.89    0.55 
   7  -3   5   12.79    0.55 
  -8   3  -5    2.43    0.25 
   8  -3   5    2.41    0.21 
   8  -3   5    2.54    0.21 
   8   2  -5   25.26    0.96 
  -8  -2   5   26.12    1.05 
   7   2  -5    4.52    0.26 
  -7  -2   5    4.60    0.31 
   6   2  -5   27.13    0.99 
   6   2  -5   27.70    1.03 
  -6  -2   5   27.57    1.07 
   5   2  -5    9.47    0.38 
   5   2  -5    8.99    0.39 
  -5  -2   5    8.80    0.40 
  -5  -2   5    9.36    0.42 
   4   2  -5    3.88    0.20 
   4   2  -5    3.54    0.20 
  -4  -2   5    3.70    0.23 
  -4  -2   5    3.80    0.19 
   3   2  -5    3.66    0.19 
   3   2  -5    3.74    0.19 
  -3  -2   5    3.73    0.17 
  -3  -2   5    3.88    0.21 
   2   2  -5    9.22    0.37 
   2   2  -5    9.21    0.36 
  -2  -2   5    9.11    0.36 
  -2  -2   5    9.21    0.39 
   1   2  -5   63.25    2.32 
   1   2  -5   65.01    2.21 
  -1  -2   5   68.98    2.35 
   0   2  -5   56.05    1.94 
   0   2  -5   58.81    2.05 
   0  -2   5   58.33    2.06 
  -1   2  -5  274.91    9.81 
  -1   2  -5  279.65   10.59 
  -1   2  -5  283.25    9.35 
   1  -2   5  292.85    9.93 
  -2   2  -5  192.92    6.42 
  -2   2  -5  188.97    7.26 
   2  -2   5  191.29    6.74 
   2  -2   5  201.12    6.81 
  -3   2  -5   86.56    3.46 
  -3   2  -5   91.90    3.07 
   3  -2   5   95.38    3.23 
   3  -2   5   92.11    3.23 
  -4   2  -5   25.28    1.04 
  -4   2  -5   26.39    0.93 
   4  -2   5   27.03    0.98 
  -5   2  -5    9.89    0.45 
  -5   2  -5    9.76    0.41 
   5  -2   5    9.73    0.42 
  -6   2  -5    1.90    0.17 
  -6   2  -5    1.83    0.15 
   6  -2   5    1.92    0.15 
  -7   2  -5    1.98    0.17 
  -7   2  -5    2.23    0.21 
   7  -2   5    2.23    0.18 
   7  -2   5    2.02    0.17 
  -8   2  -5    2.73    0.24 
   8  -2   5    2.88    0.22 
   8  -2   5    2.56    0.21 
  -9   2  -5   24.01    1.09 
   9  -2   5   23.75    0.97 
   9  -2   5   26.00    0.96 
   8   1  -5   30.24    1.12 
   7   1  -5   10.48    0.46 
  -7  -1   5   11.08    0.52 
   6   1  -5    1.55    0.15 
  -6  -1   5    1.50    0.18 
  -6  -1   5    1.87    0.16 
   5   1  -5    4.23    0.23 
   5   1  -5    4.07    0.22 
  -5  -1   5    4.23    0.23 
  -5  -1   5    4.31    0.26 
   4   1  -5    0.61    0.09 
   4   1  -5    0.61    0.08 
  -4  -1   5    0.69    0.11 
  -4  -1   5    0.83    0.08 
   3   1  -5    3.89    0.19 
   3   1  -5    3.98    0.19 
  -3  -1   5    4.20    0.19 
   2   1  -5   78.08    2.72 
   2   1  -5   75.35    2.61 
  -2  -1   5   78.62    2.79 
  -2  -1   5   78.49    2.92 
   1   1  -5  113.82    4.03 
   1   1  -5  113.65    3.84 
  -1  -1   5  118.61    4.09 
   0   1  -5    6.03    0.25 
   0   1  -5    5.60    0.24 
   0  -1   5    5.59    0.25 
  -1   1  -5   58.06    2.28 
  -1   1  -5   62.21    2.03 
   1  -1   5   58.14    2.14 
   1  -1   5   63.24    2.16 
  -2   1  -5   39.21    1.53 
  -2   1  -5   42.02    1.37 
   2  -1   5   39.75    1.44 
   2  -1   5   39.68    1.44 
  -3   1  -5    3.01    0.16 
  -3   1  -5    3.16    0.16 
   3  -1   5    2.97    0.14 
   3  -1   5    3.38    0.17 
  -4   1  -5   44.62    1.54 
  -4   1  -5   45.09    1.74 
   4  -1   5   45.44    1.62 
  -5   1  -5    0.11    0.06 
  -5   1  -5    0.09    0.08 
   5  -1   5    0.05    0.07 
  -6   1  -5   13.16    0.59 
  -6   1  -5   12.90    0.52 
   6  -1   5   13.30    0.54 
  -7   1  -5    7.69    0.41 
  -7   1  -5    7.92    0.36 
   7  -1   5    7.89    0.37 
  -8   1  -5    4.74    0.31 
   8  -1   5    4.78    0.27 
   8  -1   5    4.43    0.27 
  -9   1  -5   18.39    0.83 
   9  -1   5   18.45    0.73 
   9  -1   5   17.45    0.75 
   8   0  -5    0.70    0.15 
   7   0  -5   10.10    0.45 
  -7   0   5   10.70    0.52 
   6   0  -5    0.12    0.10 
  -6   0   5    0.28    0.14 
  -6   0   5    0.19    0.11 
   5   0  -5   15.75    0.60 
   5   0  -5   15.61    0.60 
  -5   0   5   16.23    0.66 
  -5   0   5   15.45    0.66 
   4   0  -5    9.59    0.38 
   4   0  -5    9.48    0.37 
  -4   0   5    8.91    0.42 
  -4   0   5    9.17    0.40 
   3   0  -5   42.69    1.43 
   3   0  -5   40.70    1.48 
  -3   0   5   42.97    1.54 
  -3   0   5   40.85    1.60 
   2   0  -5  102.90    3.48 
   2   0  -5  103.46    3.63 
  -2   0   5  103.64    3.71 
  -2   0   5  106.34    3.92 
   1   0  -5   43.11    1.49 
   1   0  -5   41.55    1.43 
  -1   0   5   41.17    1.53 
  -1   0   5   41.70    1.59 
   0   0  -5  141.61    5.55 
   0   0  -5  152.05    5.15 
   0   0  -5  145.84    4.92 
   0   0   5  152.56    5.23 
  -1   0  -5   26.88    0.90 
  -1   0  -5   24.09    0.98 
   1   0   5   26.54    0.94 
   1   0   5   26.02    0.95 
  -2   0  -5   14.09    0.59 
  -2   0  -5   15.60    0.54 
   2   0   5   15.04    0.56 
   2   0   5   15.35    0.57 
  -3   0  -5    0.12    0.05 
  -3   0  -5    0.07    0.04 
   3   0   5    0.12    0.04 
   3   0   5    0.06    0.05 
  -4   0  -5   16.09    0.57 
  -4   0  -5   14.76    0.63 
  -5   0  -5    0.12    0.08 
  -5   0  -5    0.28    0.07 
   5   0   5    0.40    0.08 
  -6   0  -5   15.93    0.60 
  -6   0  -5   16.27    0.68 
   6   0   5   14.82    0.62 
  -7   0  -5   93.58    3.53 
  -7   0  -5   89.15    3.10 
   7   0   5   91.96    3.25 
  -8   0  -5    3.26    0.25 
   8   0   5    3.36    0.23 
   8   0   5    3.04    0.22 
  -9   0  -5    3.16    0.27 
   9   0   5    3.34    0.23 
   9   0   5    3.02    0.24 
   7  -1  -5    0.67    0.14 
  -7   1   5    1.08    0.19 
  -7   1   5    1.19    0.17 
   6  -1  -5    5.14    0.27 
  -6   1   5    4.45    0.28 
  -6   1   5    4.84    0.32 
   5  -1  -5    5.65    0.28 
  -5   1   5    5.30    0.29 
  -5   1   5    5.29    0.32 
   4  -1  -5   58.25    1.97 
   4  -1  -5   57.64    2.03 
  -4   1   5   56.54    2.21 
  -4   1   5   57.66    2.11 
   3  -1  -5   20.84    0.76 
   3  -1  -5   22.22    0.77 
  -3   1   5   20.84    0.83 
  -3   1   5   20.86    0.84 
   2  -1  -5   57.65    2.00 
   2  -1  -5   56.26    1.92 
  -2   1   5   58.52    2.16 
  -2   1   5   54.64    2.06 
   1  -1  -5   21.67    0.76 
   1  -1  -5   21.86    0.78 
  -1   1   5   21.99    0.84 
  -1   1   5   20.94    0.82 
   0  -1  -5    1.69    0.09 
   0  -1  -5    1.87    0.11 
   0   1   5    1.54    0.09 
   0   1   5    1.57    0.12 
  -1  -1  -5  179.47    7.05 
  -1  -1  -5  193.04    6.24 
   1   1   5  193.83    6.54 
   1   1   5  186.84    6.63 
  -2  -1  -5    3.02    0.16 
  -2  -1  -5    3.44    0.15 
   2   1   5    3.61    0.16 
   2   1   5    3.36    0.16 
  -3  -1  -5    3.67    0.19 
  -3  -1  -5    3.88    0.17 
   3   1   5    3.92    0.19 
   3   1   5    3.93    0.17 
  -4  -1  -5    2.21    0.13 
  -4  -1  -5    2.19    0.15 
   4   1   5    2.29    0.11 
   4   1   5    2.02    0.14 
  -5  -1  -5   20.18    0.85 
  -5  -1  -5   21.71    0.75 
  -6  -1  -5   33.79    1.32 
  -6  -1  -5   32.61    1.15 
   6   1   5   32.23    1.21 
  -7  -1  -5    1.70    0.17 
  -7  -1  -5    1.44    0.13 
   7   1   5    1.59    0.15 
  -8  -1  -5   18.58    0.79 
   8   1   5   16.33    0.70 
   8   1   5   17.41    0.67 
  -9  -1  -5    4.95    0.34 
   9   1   5    5.13    0.28 
   9   1   5    5.51    0.32 
 -10  -1  -5   13.56    0.67 
  10   1   5   13.55    0.56 
  10   1   5   12.41    0.59 
   7  -2  -5    1.00    0.17 
  -7   2   5    1.33    0.19 
   6  -2  -5   11.76    0.49 
  -6   2   5   11.36    0.54 
  -6   2   5   11.34    0.54 
   5  -2  -5   61.07    2.07 
  -5   2   5   58.98    2.22 
  -5   2   5   60.34    2.34 
   4  -2  -5   23.32    0.82 
  -4   2   5   21.37    0.89 
  -4   2   5   22.61    0.91 
   3  -2  -5  106.81    3.47 
  -3   2   5  103.21    3.71 
  -3   2   5  100.35    3.92 
   2  -2  -5   15.86    0.62 
   2  -2  -5   17.94    0.62 
  -2   2   5   17.00    0.69 
  -2   2   5   17.82    0.69 
   1  -2  -5  137.01    4.51 
  -1   2   5  136.02    5.11 
  -1   2   5  133.77    4.82 
   0  -2  -5    9.20    0.39 
   0  -2  -5    9.19    0.35 
   0   2   5    9.65    0.36 
   0   2   5    9.59    0.39 
  -1  -2  -5   10.61    0.44 
  -1  -2  -5   10.92    0.40 
   1   2   5   10.86    0.44 
   1   2   5   11.05    0.41 
  -2  -2  -5    5.86    0.23 
  -2  -2  -5    5.67    0.26 
   2   2   5    6.15    0.25 
   2   2   5    5.83    0.24 
  -3  -2  -5   34.79    1.14 
  -3  -2  -5   31.72    1.30 
   3   2   5   34.56    1.21 
   3   2   5   33.25    1.21 
  -4  -2  -5   49.08    1.99 
  -4  -2  -5   51.50    1.75 
   4   2   5   54.02    1.85 
   4   2   5   52.74    1.85 
  -5  -2  -5    1.10    0.09 
  -5  -2  -5    1.33    0.12 
   5   2   5    1.21    0.11 
   5   2   5    1.35    0.08 
  -6  -2  -5   34.13    1.37 
  -6  -2  -5   35.51    1.20 
   6   2   5   33.77    1.27 
  -7  -2  -5   37.79    1.47 
  -7  -2  -5   36.30    1.28 
   7   2   5   35.77    1.35 
  -8  -2  -5   17.56    0.79 
   8   2   5   17.60    0.72 
   8   2   5   18.65    0.68 
  -9  -2  -5   14.28    0.65 
   9   2   5   12.53    0.58 
   9   2   5   13.23    0.53 
 -10  -2  -5    1.08    0.21 
  10   2   5    0.87    0.16 
   7  -3  -5   19.59    0.76 
  -7   3   5   18.13    0.84 
   6  -3  -5    3.20    0.24 
  -6   3   5    3.52    0.29 
  -6   3   5    3.24    0.25 
   5  -3  -5   53.06    1.84 
  -5   3   5   52.73    1.98 
  -5   3   5   52.91    2.07 
   4  -3  -5    0.95    0.12 
  -4   3   5    0.51    0.11 
  -4   3   5    0.72    0.13 
   3  -3  -5   74.92    2.51 
  -3   3   5   74.42    2.69 
  -3   3   5   73.23    2.84 
   2  -3  -5    0.29    0.07 
  -2   3   5    0.39    0.08 
  -2   3   5    0.42    0.10 
   1  -3  -5    4.07    0.19 
  -1   3   5    4.00    0.22 
  -1   3   5    4.19    0.21 
  -1   3   5    3.83    0.16 
   0  -3  -5    5.82    0.23 
   0  -3  -5    5.31    0.26 
   0   3   5    5.54    0.22 
   0   3   5    6.24    0.28 
  -1  -3  -5   33.01    1.31 
  -1  -3  -5   33.79    1.16 
   1   3   5   34.29    1.21 
   1   3   5   35.19    1.25 
  -2  -3  -5   69.26    2.31 
  -2  -3  -5   65.73    2.62 
   2   3   5   71.47    2.47 
   2   3   5   69.54    2.42 
  -3  -3  -5   86.90    3.58 
  -3  -3  -5   98.05    3.15 
   3   3   5   96.75    3.36 
   3   3   5   96.85    3.32 
  -4  -3  -5    1.16    0.08 
  -4  -3  -5    1.10    0.10 
   4   3   5    1.13    0.09 
   4   3   5    1.08    0.09 
  -5  -3  -5  136.57    4.32 
  -5  -3  -5  117.23    4.91 
   5   3   5  135.42    4.58 
  -6  -3  -5   24.22    0.87 
  -6  -3  -5   25.93    1.02 
   6   3   5   24.44    0.94 
  -7  -3  -5   11.59    0.45 
  -7  -3  -5   12.25    0.54 
   7   3   5   11.11    0.49 
  -8  -3  -5    0.30    0.12 
   8   3   5    0.39    0.08 
   8   3   5    0.25    0.11 
  -9  -3  -5   10.56    0.53 
   9   3   5   10.25    0.48 
 -10  -3  -5    1.74    0.22 
  10   3   5    1.64    0.20 
   6  -4  -5    6.99    0.36 
  -6   4   5    6.76    0.40 
   5  -4  -5   36.78    1.29 
  -5   4   5   36.89    1.39 
  -5   4   5   33.79    1.44 
   4  -4  -5    6.60    0.33 
  -4   4   5    7.64    0.37 
  -4   4   5    6.87    0.37 
   3  -4  -5    0.39    0.09 
  -3   4   5    0.39    0.12 
  -3   4   5    0.55    0.11 
   2  -4  -5    0.66    0.09 
  -2   4   5    0.72    0.12 
  -2   4   5    0.79    0.10 
   1  -4  -5    5.98    0.26 
  -1   4   5    6.21    0.30 
  -1   4   5    6.41    0.31 
   0  -4  -5    1.35    0.10 
   0  -4  -5    1.17    0.10 
   0   4   5    1.25    0.12 
   0   4   5    1.19    0.06 
  -1  -4  -5  153.36    5.03 
  -1  -4  -5  146.64    5.72 
   1   4   5  149.59    5.27 
   1   4   5  157.38    5.38 
  -2  -4  -5   15.16    0.52 
  -2  -4  -5   13.69    0.59 
   2   4   5   14.80    0.57 
   2   4   5   14.20    0.54 
  -3  -4  -5   91.59    2.93 
  -3  -4  -5   81.35    3.34 
   3   4   5   90.37    3.09 
   3   4   5   89.01    3.14 
  -4  -4  -5   24.58    0.76 
  -4  -4  -5   19.47    0.88 
   4   4   5   22.16    0.82 
   4   4   5   21.75    0.82 
  -5  -4  -5   34.77    1.19 
  -5  -4  -5   35.14    1.38 
   5   4   5   34.79    1.27 
   5   4   5   35.00    1.28 
  -6  -4  -5    8.73    0.34 
  -6  -4  -5    9.25    0.43 
   6   4   5    8.86    0.36 
   6   4   5    8.54    0.39 
  -7  -4  -5   26.45    0.95 
  -7  -4  -5   27.43    1.12 
   7   4   5   27.72    1.03 
  -8  -4  -5    0.94    0.16 
   8   4   5    0.98    0.14 
  -9  -4  -5    0.97    0.18 
   9   4   5    1.05    0.15 
 -10  -4  -5    0.21    0.17 
  10   4   5    0.22    0.14 
   6  -5  -5   15.40    0.64 
  -6   5   5   14.75    0.71 
   5  -5  -5    0.51    0.12 
  -5   5   5    0.59    0.15 
  -5   5   5    0.86    0.18 
   4  -5  -5   18.91    0.72 
  -4   5   5   18.69    0.81 
  -4   5   5   18.36    0.79 
   3  -5  -5    7.66    0.34 
  -3   5   5    7.99    0.40 
  -3   5   5    8.01    0.40 
   2  -5  -5   20.98    0.79 
  -2   5   5   22.55    0.87 
  -2   5   5   21.73    0.90 
   1  -5  -5   34.30    1.22 
  -1   5   5   35.54    1.33 
  -1   5   5   35.88    1.40 
   0  -5  -5   14.63    0.65 
   0  -5  -5   15.79    0.56 
   0   5   5   16.26    0.63 
  -1  -5  -5   13.90    0.49 
  -1  -5  -5   13.42    0.58 
   1   5   5   14.30    0.56 
   1   5   5   13.25    0.50 
  -2  -5  -5   13.21    0.56 
  -2  -5  -5   13.08    0.48 
   2   5   5   12.82    0.49 
   2   5   5   13.71    0.53 
  -3  -5  -5   59.73    1.99 
  -3  -5  -5   55.20    2.27 
   3   5   5   61.30    2.14 
   3   5   5   60.89    2.10 
  -4  -5  -5    0.73    0.06 
  -4  -5  -5    0.66    0.10 
   4   5   5    0.84    0.09 
   4   5   5    0.74    0.08 
  -5  -5  -5    4.20    0.17 
  -5  -5  -5    3.81    0.23 
   5   5   5    4.07    0.21 
   5   5   5    4.56    0.22 
  -6  -5  -5   15.89    0.68 
   6   5   5   15.62    0.62 
   6   5   5   14.94    0.60 
  -7  -5  -5   14.22    0.64 
   7   5   5   14.11    0.58 
  -8  -5  -5    8.56    0.43 
   8   5   5    7.70    0.39 
  -9  -5  -5   18.53    0.82 
   9   5   5   17.43    0.74 
 -10  -5  -5    1.60    0.21 
  10   5   5    1.53    0.19 
   5  -6  -5    1.74    0.19 
  -5   6   5    1.71    0.22 
  -5   6   5    2.24    0.23 
   4  -6  -5    0.02    0.11 
  -4   6   5    0.01    0.14 
  -4   6   5    0.00    0.12 
   3  -6  -5    7.38    0.35 
  -3   6   5    8.27    0.42 
  -3   6   5    8.60    0.42 
   2  -6  -5    1.74    0.14 
  -2   6   5    1.65    0.17 
  -2   6   5    2.02    0.18 
   1  -6  -5   14.09    0.53 
  -1   6   5   14.11    0.60 
  -1   6   5   14.53    0.63 
   0  -6  -5   24.24    0.94 
   0  -6  -5   20.68    0.80 
   0   6   5   23.89    0.90 
  -1  -6  -5   27.88    1.06 
  -1  -6  -5   25.48    0.90 
   1   6   5   24.77    0.92 
   1   6   5   26.52    1.00 
  -2  -6  -5   43.63    1.42 
  -2  -6  -5   42.34    1.64 
   2   6   5   42.37    1.55 
   2   6   5   39.56    1.48 
  -3  -6  -5    3.63    0.16 
   3   6   5    3.20    0.20 
   3   6   5    3.77    0.18 
  -4  -6  -5  116.41    3.77 
   4   6   5  112.38    4.05 
   4   6   5  112.82    3.99 
  -5  -6  -5    2.76    0.20 
   5   6   5    2.84    0.17 
  -6  -6  -5   24.44    0.94 
   6   6   5   21.11    0.85 
   6   6   5   21.28    0.84 
  -7  -6  -5   15.26    0.65 
   7   6   5   13.95    0.59 
   7   6   5   13.75    0.57 
  -8  -6  -5    1.87    0.19 
   8   6   5    1.93    0.18 
  -9  -6  -5    8.12    0.45 
   9   6   5    7.30    0.39 
 -10  -6  -5    3.94    0.30 
  10   6   5    3.29    0.27 
   5  -7  -5   10.86    0.50 
  -5   7   5   10.74    0.58 
   4  -7  -5    4.28    0.26 
  -4   7   5    4.15    0.31 
  -4   7   5    3.82    0.31 
   3  -7  -5    6.12    0.30 
  -3   7   5    5.45    0.35 
  -3   7   5    5.86    0.35 
   2  -7  -5   16.11    0.61 
  -2   7   5   15.57    0.68 
  -2   7   5   15.96    0.71 
   1  -7  -5    6.17    0.28 
  -1   7   5    6.35    0.34 
  -1   7   5    6.37    0.35 
   0  -7  -5   35.78    1.41 
   0  -7  -5   34.78    1.22 
   0   7   5   35.24    1.34 
  -1  -7  -5    2.45    0.14 
  -1  -7  -5    2.37    0.18 
   1   7   5    2.21    0.18 
  -2  -7  -5   58.92    1.90 
  -2  -7  -5   57.83    2.20 
   2   7   5   54.48    1.99 
   2   7   5   54.71    2.06 
  -3  -7  -5    6.94    0.27 
   3   7   5    6.72    0.29 
   3   7   5    7.10    0.33 
  -4  -7  -5   48.84    1.91 
   4   7   5   49.54    1.80 
   4   7   5   48.52    1.75 
  -5  -7  -5    0.13    0.09 
   5   7   5    0.36    0.09 
   5   7   5    0.30    0.08 
  -6  -7  -5    8.73    0.44 
   6   7   5    9.50    0.41 
   6   7   5    9.07    0.40 
  -7  -7  -5    3.61    0.26 
   7   7   5    2.72    0.20 
   7   7   5    2.98    0.20 
  -8  -7  -5    9.86    0.51 
   8   7   5    9.91    0.46 
  -9  -7  -5    2.95    0.26 
   9   7   5    2.72    0.22 
 -10  -7  -5   15.30    0.72 
  10   7   5   14.24    0.65 
   4  -8  -5   32.53    1.18 
  -4   8   5   30.35    1.27 
  -4   8   5   32.92    1.36 
   3  -8  -5    3.33    0.22 
  -3   8   5    3.32    0.27 
  -3   8   5    3.21    0.28 
   2  -8  -5   11.24    0.47 
  -2   8   5   11.67    0.57 
  -2   8   5   11.56    0.54 
   1  -8  -5   17.43    0.65 
  -1   8   5   17.13    0.73 
  -1   8   5   17.31    0.77 
   0  -8  -5   33.19    1.38 
   0  -8  -5   34.23    1.19 
   0   8   5   34.99    1.31 
  -1  -8  -5    0.66    0.12 
  -1  -8  -5    0.64    0.08 
   1   8   5    0.81    0.13 
  -2  -8  -5    1.27    0.10 
  -2  -8  -5    1.34    0.15 
   2   8   5    1.34    0.15 
  -3  -8  -5    5.44    0.30 
   3   8   5    5.25    0.28 
   3   8   5    5.01    0.24 
  -4  -8  -5   19.45    0.86 
   4   8   5   21.65    0.78 
   4   8   5   20.71    0.82 
  -5  -8  -5   57.13    2.21 
   5   8   5   55.50    2.07 
   5   8   5   57.01    2.03 
  -6  -8  -5   15.12    0.68 
   6   8   5   15.00    0.62 
   6   8   5   15.07    0.61 
  -7  -8  -5    0.10    0.11 
   7   8   5    0.21    0.10 
   7   8   5    0.00    0.09 
  -8  -8  -5   59.67    2.39 
   8   8   5   61.46    2.21 
  -9  -8  -5    0.42    0.17 
   9   8   5    0.27    0.13 
 -10  -8  -5   20.65    0.91 
  10   8   5   18.69    0.82 
   3  -9  -5    4.29    0.28 
  -3   9   5    4.55    0.35 
  -3   9   5    4.46    0.33 
   2  -9  -5    1.04    0.14 
  -2   9   5    0.89    0.18 
  -2   9   5    1.14    0.19 
   1  -9  -5   11.52    0.58 
   1  -9  -5   11.90    0.48 
  -1   9   5   11.66    0.55 
   0  -9  -5    1.83    0.15 
   0  -9  -5    2.17    0.21 
   0   9   5    2.02    0.20 
  -1  -9  -5    6.48    0.28 
  -1  -9  -5    6.68    0.36 
   1   9   5    5.84    0.34 
  -2  -9  -5    1.76    0.17 
   2   9   5    1.84    0.17 
  -3  -9  -5    0.73    0.14 
   3   9   5    0.44    0.12 
  -4  -9  -5   23.08    0.99 
   4   9   5   24.79    0.89 
   4   9   5   23.36    0.94 
  -5  -9  -5    3.02    0.23 
   5   9   5    2.38    0.18 
   5   9   5    2.30    0.19 
  -6  -9  -5   16.46    0.72 
   6   9   5   16.15    0.65 
   6   9   5   15.06    0.66 
  -7  -9  -5    5.78    0.36 
   7   9   5    6.03    0.32 
   7   9   5    5.89    0.32 
  -8  -9  -5    6.86    0.41 
   8   9   5    6.49    0.35 
   8   9   5    7.34    0.37 
  -9  -9  -5    0.93    0.20 
   9   9   5    0.63    0.15 
   2 -10  -5    2.40    0.20 
  -2  10   5    2.49    0.24 
  -2  10   5    2.23    0.25 
   1 -10  -5   10.62    0.46 
   1 -10  -5   11.66    0.58 
  -1  10   5   11.20    0.54 
   0 -10  -5    1.65    0.20 
   0  10   5    1.53    0.19 
  -1 -10  -5    3.02    0.24 
   1  10   5    2.56    0.22 
  -2 -10  -5   21.86    0.95 
   2  10   5   22.55    0.90 
  -3 -10  -5    3.46    0.25 
   3  10   5    3.48    0.25 
  -4 -10  -5    2.93    0.23 
   4  10   5    3.15    0.23 
  -5 -10  -5   11.40    0.54 
   5  10   5   10.65    0.50 
   5  10   5   11.39    0.48 
  -6 -10  -5    4.04    0.29 
   6  10   5    3.21    0.23 
   6  10   5    4.16    0.26 
  -7 -10  -5    0.06    0.13 
   7  10   5    0.13    0.12 
   7  10   5    0.02    0.11 
  -8 -10  -5    0.76    0.19 
   8  10   5    0.51    0.15 
   8  10   5    0.57    0.15 
  -9 -10  -5    1.69    0.24 
   9  10   5    1.88    0.21 
   1 -11  -5    1.61    0.22 
  -1  11   5    1.23    0.21 
   0 -11  -5    0.10    0.15 
   0  11   5    0.32    0.15 
  -1 -11  -5   10.19    0.53 
   1  11   5    9.81    0.50 
  -2 -11  -5    2.78    0.24 
   2  11   5    2.22    0.22 
  -3 -11  -5    6.84    0.41 
   3  11   5    7.44    0.39 
  -4 -11  -5    6.65    0.39 
   4  11   5    7.03    0.38 
  -5 -11  -5    6.93    0.40 
   5  11   5    7.31    0.38 
  -6 -11  -5    1.00    0.17 
   6  11   5    1.33    0.17 
   6  11   5    1.12    0.15 
  -7 -11  -5    5.44    0.37 
   7  11   5    5.29    0.34 
   7  11   5    5.82    0.32 
  -8 -11  -5    0.45    0.17 
   8  11   5    0.58    0.16 
   8  11   5    0.40    0.15 
  -1 -12  -5   18.52    0.88 
   1  12   5   19.61    0.83 
  -2 -12  -5    0.13    0.16 
   2  12   5    0.33    0.15 
  -3 -12  -5    3.68    0.30 
   3  12   5    3.84    0.29 
  -4 -12  -5    9.98    0.52 
   4  12   5    9.38    0.48 
  -5 -12  -5    2.89    0.26 
   5  12   5    2.81    0.24 
  -6 -12  -5    1.68    0.22 
   6  12   5    1.65    0.20 
  -7 -12  -5    0.03    0.16 
   7  12   5    0.08    0.14 
   7  12   5    0.03    0.13 
  -4 -13  -5    0.16    0.17 
   4  13   5    0.45    0.17 
   3  11  -6   11.54    0.55 
  -3 -11   6   10.80    0.54 
   2  11  -6    0.70    0.18 
  -2 -11   6    0.81    0.17 
   1  11  -6   10.63    0.50 
  -1 -11   6    9.50    0.48 
   0  11  -6   23.05    0.94 
   0 -11   6   22.78    0.92 
   5  10  -6    1.64    0.21 
  -5 -10   6    1.80    0.22 
   4  10  -6   12.86    0.58 
  -4 -10   6   12.21    0.57 
   3  10  -6    1.44    0.19 
  -3 -10   6    1.40    0.18 
   2  10  -6   13.16    0.59 
  -2 -10   6   12.63    0.57 
   1  10  -6    0.45    0.16 
  -1 -10   6    0.79    0.15 
   0  10  -6   22.01    0.86 
   0 -10   6   19.79    0.83 
  -1  10  -6    0.43    0.13 
   1 -10   6    0.52    0.14 
  -2  10  -6    3.32    0.24 
   2 -10   6    3.11    0.26 
   6   9  -6    9.14    0.47 
  -6  -9   6    8.46    0.45 
   5   9  -6    0.30    0.15 
  -5  -9   6    0.36    0.15 
   4   9  -6   35.97    1.37 
  -4  -9   6   36.28    1.38 
   3   9  -6    0.19    0.12 
  -3  -9   6    0.21    0.12 
   2   9  -6    7.31    0.39 
  -2  -9   6    7.49    0.38 
   1   9  -6    0.85    0.16 
  -1  -9   6    0.92    0.14 
   0   9  -6    3.73    0.24 
   0   9  -6    3.68    0.27 
   0  -9   6    3.61    0.24 
  -1   9  -6    0.06    0.10 
  -1   9  -6    0.21    0.13 
   1  -9   6    0.07    0.11 
   1  -9   6    0.19    0.11 
  -2   9  -6    9.31    0.42 
   2  -9   6    8.06    0.43 
  -3   9  -6    1.23    0.16 
   3  -9   6    1.34    0.19 
  -4   9  -6    6.07    0.35 
   6   8  -6   17.70    0.75 
  -6  -8   6   17.95    0.76 
   5   8  -6    0.72    0.16 
  -5  -8   6    0.66    0.15 
   4   8  -6    4.85    0.29 
  -4  -8   6    4.25    0.28 
   3   8  -6   15.08    0.63 
  -3  -8   6   14.90    0.63 
   2   8  -6    8.32    0.40 
  -2  -8   6    7.89    0.38 
   1   8  -6   13.01    0.56 
   1   8  -6   13.34    0.52 
  -1  -8   6   12.59    0.54 
   0   8  -6    7.11    0.33 
   0   8  -6    6.36    0.34 
   0  -8   6    6.68    0.33 
  -1   8  -6    0.00    0.12 
  -1   8  -6    0.22    0.09 
   1  -8   6    0.03    0.09 
  -2   8  -6   25.16    0.93 
   2  -8   6   24.40    0.98 
  -3   8  -6    0.81    0.14 
   3  -8   6    0.92    0.15 
  -4   8  -6   28.03    1.06 
  -4   8  -6   29.45    1.19 
   4  -8   6   26.10    1.09 
  -5   8  -6    1.00    0.20 
   5  -8   6    0.85    0.16 
   7   7  -6   20.66    0.86 
  -7  -7   6   21.06    0.88 
   6   7  -6    0.11    0.13 
  -6  -7   6    0.38    0.15 
   5   7  -6   14.13    0.61 
  -5  -7   6   14.00    0.61 
   4   7  -6   11.89    0.52 
  -4  -7   6   11.62    0.52 
   3   7  -6    8.71    0.40 
   3   7  -6    8.85    0.37 
  -3  -7   6    8.60    0.40 
   2   7  -6   22.61    0.88 
   2   7  -6   23.55    0.83 
  -2  -7   6   22.03    0.88 
   1   7  -6    5.61    0.30 
   1   7  -6    5.68    0.27 
  -1  -7   6    5.56    0.28 
   0   7  -6   16.25    0.65 
   0   7  -6   16.03    0.61 
   0  -7   6   15.29    0.63 
  -1   7  -6   17.72    0.72 
  -1   7  -6   17.97    0.68 
   1  -7   6   17.83    0.70 
  -2   7  -6   18.23    0.70 
   2  -7   6   18.05    0.74 
  -3   7  -6    0.34    0.12 
  -3   7  -6    0.35    0.11 
   3  -7   6    0.39    0.13 
  -4   7  -6   24.88    1.00 
  -4   7  -6   22.24    0.88 
   4  -7   6   21.80    0.91 
  -5   7  -6   30.81    1.27 
  -5   7  -6   30.28    1.13 
   5  -7   6   29.19    1.16 
  -6   7  -6    1.58    0.22 
   6  -7   6    1.65    0.19 
   7   6  -6    6.73    0.37 
  -7  -6   6    6.52    0.38 
   6   6  -6    0.35    0.13 
  -6  -6   6    0.37    0.15 
   5   6  -6   68.31    2.47 
  -5  -6   6   69.18    2.51 
   4   6  -6    2.65    0.17 
   4   6  -6    2.16    0.18 
  -4  -6   6    2.22    0.19 
   3   6  -6    1.61    0.15 
   3   6  -6    1.87    0.14 
  -3  -6   6    1.92    0.16 
   2   6  -6    0.96    0.11 
   2   6  -6    0.96    0.12 
  -2  -6   6    0.98    0.12 
   1   6  -6   46.71    1.72 
   1   6  -6   47.59    1.64 
  -1  -6   6   47.85    1.73 
   0   6  -6   25.66    0.90 
   0   6  -6   24.74    0.95 
   0  -6   6   24.48    0.94 
  -1   6  -6   32.03    1.18 
  -1   6  -6   30.64    1.12 
   1  -6   6   32.27    1.17 
  -2   6  -6   18.25    0.74 
  -2   6  -6   17.80    0.68 
   2  -6   6   17.63    0.68 
   2  -6   6   17.28    0.72 
  -3   6  -6   40.77    1.50 
  -3   6  -6   45.55    1.69 
   3  -6   6   41.30    1.58 
  -4   6  -6    6.30    0.33 
  -4   6  -6    6.50    0.35 
   4  -6   6    6.41    0.34 
  -5   6  -6   10.34    0.48 
  -5   6  -6   11.27    0.54 
   5  -6   6   10.54    0.49 
  -6   6  -6    3.88    0.28 
  -6   6  -6    4.73    0.33 
   6  -6   6    4.72    0.30 
   7   5  -6   16.47    0.70 
  -7  -5   6   17.06    0.73 
   6   5  -6   12.41    0.53 
  -6  -5   6   11.49    0.54 
   5   5  -6    5.82    0.28 
   5   5  -6    6.29    0.32 
  -5  -5   6    6.00    0.32 
   4   5  -6    0.56    0.10 
   4   5  -6    0.61    0.12 
  -4  -5   6    0.46    0.12 
   3   5  -6   13.07    0.54 
  -3  -5   6   13.42    0.55 
   2   5  -6    5.35    0.26 
   2   5  -6    5.45    0.28 
  -2  -5   6    5.67    0.28 
   1   5  -6   29.65    1.04 
   1   5  -6   28.85    1.10 
  -1  -5   6   29.84    1.10 
   0   5  -6    5.86    0.29 
   0   5  -6    6.01    0.27 
   0  -5   6    5.77    0.27 
  -1   5  -6   71.40    2.57 
  -1   5  -6   73.95    2.74 
  -1   5  -6   71.25    2.45 
   1  -5   6   72.11    2.58 
  -2   5  -6    3.38    0.20 
  -2   5  -6    3.56    0.20 
   2  -5   6    3.76    0.18 
   2  -5   6    3.36    0.22 
  -3   5  -6   40.54    1.39 
  -3   5  -6   37.99    1.54 
   3  -5   6   38.94    1.45 
  -4   5  -6    0.75    0.13 
  -4   5  -6    0.67    0.12 
   4  -5   6    0.54    0.12 
  -5   5  -6    0.30    0.11 
  -5   5  -6    0.15    0.11 
   5  -5   6    0.21    0.11 
  -6   5  -6    3.01    0.26 
  -6   5  -6    2.78    0.22 
   6  -5   6    2.85    0.23 
  -7   5  -6   10.34    0.55 
   7  -5   6   10.63    0.49 
   7  -5   6   10.06    0.49 
   7   4  -6    1.16    0.17 
  -7  -4   6    0.85    0.17 
   6   4  -6    0.54    0.13 
   6   4  -6    0.28    0.11 
  -6  -4   6    0.34    0.14 
   5   4  -6   49.33    1.80 
   5   4  -6   50.73    1.71 
  -5  -4   6   48.23    1.83 
   4   4  -6   14.69    0.54 
   4   4  -6   14.04    0.57 
  -4  -4   6   13.83    0.59 
   3   4  -6   23.44    0.83 
   3   4  -6   23.80    0.88 
  -3  -4   6   22.22    0.89 
   2   4  -6   32.65    1.20 
   2   4  -6   35.76    1.27 
  -2  -4   6   36.02    1.29 
   1   4  -6   42.61    1.50 
   1   4  -6   44.30    1.58 
  -1  -4   6   44.28    1.59 
   0   4  -6    4.78    0.24 
   0   4  -6    4.56    0.22 
   0  -4   6    4.62    0.22 
  -1   4  -6   28.32    1.01 
  -1   4  -6   28.51    1.06 
  -1   4  -6   30.00    1.11 
   1  -4   6   27.50    1.05 
  -2   4  -6    0.32    0.07 
  -2   4  -6    0.25    0.07 
   2  -4   6    0.36    0.09 
   2  -4   6    0.31    0.06 
  -3   4  -6    4.98    0.24 
  -3   4  -6    4.96    0.26 
   3  -4   6    4.49    0.26 
   3  -4   6    4.75    0.21 
  -4   4  -6    4.60    0.26 
  -4   4  -6    4.44    0.24 
   4  -4   6    4.36    0.25 
  -5   4  -6    8.72    0.40 
  -5   4  -6    9.24    0.44 
   5  -4   6    8.47    0.40 
  -6   4  -6    0.49    0.12 
  -6   4  -6    0.70    0.14 
   6  -4   6    0.69    0.13 
  -7   4  -6   15.38    0.65 
  -7   4  -6   16.27    0.73 
   7  -4   6   15.61    0.66 
   7  -4   6   14.92    0.65 
  -8   4  -6    2.43    0.26 
   8  -4   6    1.81    0.20 
   8  -4   6    2.41    0.22 
   7   3  -6    2.10    0.18 
  -7  -3   6    1.25    0.20 
   6   3  -6    6.61    0.34 
   6   3  -6    7.11    0.33 
  -6  -3   6    6.53    0.37 
   5   3  -6    0.27    0.10 
   5   3  -6    0.27    0.10 
  -5  -3   6    0.53    0.14 
   4   3  -6    2.71    0.19 
   4   3  -6    3.11    0.19 
  -4  -3   6    3.48    0.22 
   3   3  -6   58.95    2.15 
   3   3  -6   61.37    2.05 
  -3  -3   6   60.71    2.19 
   2   3  -6   34.86    1.21 
   2   3  -6   35.90    1.27 
  -2  -3   6   34.28    1.29 
   1   3  -6    3.23    0.18 
   1   3  -6    3.43    0.19 
  -1  -3   6    3.63    0.19 
   0   3  -6  139.33    4.78 
   0   3  -6  144.37    5.03 
   0  -3   6  147.29    5.08 
  -1   3  -6    3.00    0.15 
  -1   3  -6    3.05    0.17 
  -1   3  -6    3.29    0.18 
   1  -3   6    3.16    0.16 
  -2   3  -6    6.16    0.27 
   2  -3   6    5.57    0.25 
  -3   3  -6    3.27    0.19 
  -3   3  -6    3.36    0.19 
   3  -3   6    3.33    0.16 
   3  -3   6    2.99    0.19 
  -4   3  -6    1.17    0.12 
  -4   3  -6    1.10    0.12 
   4  -3   6    1.29    0.13 
  -5   3  -6   20.99    0.80 
  -5   3  -6   21.99    0.90 
   5  -3   6   21.51    0.84 
  -6   3  -6   13.28    0.54 
  -6   3  -6   13.18    0.60 
   6  -3   6   12.87    0.56 
  -7   3  -6   13.61    0.63 
  -7   3  -6   12.84    0.55 
   7  -3   6   12.80    0.57 
  -8   3  -6    4.81    0.33 
   8  -3   6    4.48    0.29 
   8  -3   6    4.33    0.28 
   7   2  -6    0.28    0.13 
  -7  -2   6    0.07    0.15 
   6   2  -6   24.17    0.93 
   6   2  -6   23.94    0.90 
  -6  -2   6   25.63    0.99 
   5   2  -6   25.31    0.93 
   5   2  -6   25.86    0.96 
  -5  -2   6   25.78    1.01 
   4   2  -6   51.82    1.87 
   4   2  -6   52.13    1.79 
  -4  -2   6   52.92    1.93 
   3   2  -6    0.61    0.09 
   3   2  -6    0.62    0.09 
  -3  -2   6    0.65    0.11 
   2   2  -6    6.25    0.27 
   2   2  -6    6.60    0.28 
  -2  -2   6    6.25    0.30 
   1   2  -6   45.59    1.61 
   1   2  -6   44.35    1.53 
  -1  -2   6   44.34    1.63 
   0   2  -6    2.45    0.14 
   0   2  -6    1.81    0.13 
   0  -2   6    1.84    0.13 
  -1   2  -6   70.59    2.41 
  -1   2  -6   73.11    2.70 
  -1   2  -6   70.86    2.53 
   1  -2   6   71.59    2.55 
  -2   2  -6   44.27    1.51 
  -2   2  -6   42.63    1.67 
   2  -2   6   43.32    1.59 
   2  -2   6   45.24    1.58 
  -3   2  -6   10.51    0.45 
  -3   2  -6   10.48    0.42 
   3  -2   6   11.01    0.44 
   3  -2   6   10.48    0.41 
  -4   2  -6   49.25    1.70 
  -4   2  -6   49.02    1.91 
   4  -2   6   49.60    1.78 
  -5   2  -6   15.51    0.64 
  -5   2  -6   13.56    0.57 
   5  -2   6   15.25    0.60 
  -6   2  -6   36.67    1.33 
  -6   2  -6   39.84    1.51 
   6  -2   6   36.07    1.39 
  -7   2  -6    9.72    0.47 
  -7   2  -6    8.91    0.41 
   7  -2   6    8.61    0.42 
  -8   2  -6   49.24    1.96 
   8  -2   6   48.97    1.73 
   8  -2   6   46.90    1.79 
  -9   2  -6    2.33    0.25 
   9  -2   6    1.93    0.21 
   9  -2   6    2.29    0.22 
   7   1  -6    0.27    0.13 
  -7  -1   6    0.45    0.18 
   6   1  -6   29.49    1.09 
  -6  -1   6   30.54    1.18 
   5   1  -6   50.29    1.73 
   5   1  -6   50.31    1.80 
  -5  -1   6   49.41    1.86 
   4   1  -6    1.68    0.13 
   4   1  -6    1.60    0.12 
  -4  -1   6    1.77    0.16 
   3   1  -6   85.19    3.02 
   3   1  -6   85.74    2.90 
  -3  -1   6   84.22    3.24 
  -3  -1   6   88.97    3.10 
   2   1  -6   74.96    2.86 
   2   1  -6   87.36    3.00 
  -2  -1   6   91.87    3.07 
  -2  -1   6   87.14    3.21 
   1   1  -6    0.94    0.09 
   1   1  -6    0.94    0.09 
  -1  -1   6    1.18    0.11 
   0   1  -6    0.16    0.05 
   0   1  -6    0.12    0.06 
   0  -1   6    0.01    0.06 
  -1   1  -6   15.00    0.59 
  -1   1  -6   15.41    0.56 
   1  -1   6   14.90    0.59 
   1  -1   6   15.92    0.59 
  -2   1  -6   84.93    3.18 
  -2   1  -6   86.15    2.83 
   2  -1   6   80.63    2.97 
   2  -1   6   85.10    2.99 
  -3   1  -6   41.60    1.38 
  -3   1  -6   38.49    1.54 
   3  -1   6   41.68    1.46 
   3  -1   6   38.33    1.43 
  -4   1  -6   32.56    1.32 
  -4   1  -6   34.15    1.18 
   4  -1   6   34.30    1.24 
  -5   1  -6   20.88    0.85 
  -5   1  -6   20.06    0.76 
   5  -1   6   20.80    0.80 
  -6   1  -6   82.00    2.74 
  -6   1  -6   80.13    3.10 
   6  -1   6   79.65    2.87 
  -7   1  -6    9.76    0.47 
  -7   1  -6    9.56    0.42 
   7  -1   6    9.16    0.43 
  -8   1  -6   15.25    0.68 
   8  -1   6   13.48    0.61 
  -9   1  -6   -0.01    0.15 
   9  -1   6    0.12    0.13 
   9  -1   6    0.19    0.12 
   7   0  -6   42.41    1.54 
  -7   0   6   43.99    1.67 
   6   0  -6    2.71    0.21 
  -6   0   6    2.75    0.25 
   5   0  -6   26.67    0.97 
  -5   0   6   26.53    1.05 
   4   0  -6    7.26    0.34 
   4   0  -6    8.51    0.33 
  -4   0   6    8.00    0.38 
  -4   0   6    7.58    0.35 
   3   0  -6    3.73    0.20 
   3   0  -6    3.86    0.19 
  -3   0   6    3.55    0.23 
  -3   0   6    3.54    0.18 
   2   0  -6    9.45    0.37 
   2   0  -6    9.55    0.37 
  -2   0   6    9.05    0.40 
  -2   0   6    9.16    0.38 
   1   0  -6    1.66    0.12 
   1   0  -6    1.87    0.11 
   1   0  -6    1.77    0.09 
  -1   0   6    1.63    0.13 
   0   0  -6   38.53    1.33 
   0   0  -6   35.94    1.27 
   0   0  -6   36.16    1.40 
   0   0   6   37.54    1.36 
  -1   0  -6   18.22    0.69 
  -1   0  -6   17.25    0.64 
   1   0   6   17.87    0.68 
   1   0   6   18.10    0.67 
  -2   0  -6   57.84    1.86 
  -2   0  -6   52.24    2.08 
   2   0   6   55.99    1.95 
   2   0   6   53.37    1.96 
  -3   0  -6   64.41    2.04 
  -3   0  -6   55.85    2.29 
   3   0   6   60.26    2.14 
   3   0   6   60.50    2.14 
  -4   0  -6   34.03    1.18 
  -4   0  -6   33.08    1.32 
   4   0   6   33.29    1.24 
   4   0   6   35.16    1.21 
  -5   0  -6   50.45    1.75 
  -5   0  -6   51.39    1.98 
   5   0   6   51.00    1.84 
  -6   0  -6   17.42    0.69 
  -6   0  -6   14.98    0.60 
   6   0   6   15.04    0.63 
  -7   0  -6    3.52    0.21 
  -7   0  -6    3.44    0.24 
   7   0   6    3.37    0.22 
  -8   0  -6    3.31    0.22 
  -8   0  -6    3.26    0.26 
   8   0   6    3.17    0.23 
  -9   0  -6    2.07    0.22 
   9   0   6    1.79    0.18 
   9   0   6    1.65    0.19 
   7  -1  -6   24.99    0.95 
  -7   1   6   24.88    1.04 
   6  -1  -6    5.77    0.31 
  -6   1   6    6.54    0.39 
   5  -1  -6    4.66    0.27 
  -5   1   6    5.54    0.33 
  -5   1   6    5.43    0.29 
   4  -1  -6    2.18    0.16 
  -4   1   6    2.15    0.19 
  -4   1   6    1.95    0.15 
   3  -1  -6    1.34    0.12 
   3  -1  -6    1.39    0.10 
  -3   1   6    1.53    0.12 
   2  -1  -6    1.78    0.12 
   2  -1  -6    1.97    0.12 
  -2   1   6    1.84    0.12 
  -2   1   6    1.73    0.15 
   1  -1  -6   91.18    3.14 
   1  -1  -6   97.67    3.28 
  -1   1   6   92.66    3.54 
  -1   1   6   93.83    3.36 
   0  -1  -6    3.97    0.19 
   0  -1  -6    4.24    0.20 
   0   1   6    4.33    0.19 
   0   1   6    4.34    0.22 
  -1  -1  -6   60.44    1.98 
  -1  -1  -6   58.35    2.21 
   1   1   6   56.87    2.10 
   1   1   6   58.09    2.07 
  -2  -1  -6   10.03    0.37 
  -2  -1  -6    9.30    0.40 
   2   1   6    9.90    0.39 
   2   1   6    9.73    0.39 
  -3  -1  -6   57.59    2.37 
  -3  -1  -6   64.09    2.10 
   3   1   6   64.84    2.22 
   3   1   6   62.76    2.21 
  -4  -1  -6   95.79    3.79 
  -4  -1  -6  101.30    3.35 
   4   1   6  103.22    3.54 
   4   1   6  100.24    3.53 
  -5  -1  -6    6.26    0.26 
  -5  -1  -6    5.21    0.29 
   5   1   6    6.39    0.29 
  -6  -1  -6    2.78    0.20 
  -6  -1  -6    2.67    0.17 
   6   1   6    2.69    0.19 
  -7  -1  -6   23.54    0.87 
  -7  -1  -6   24.36    1.00 
   7   1   6   23.43    0.92 
  -8  -1  -6    6.28    0.31 
  -8  -1  -6    6.46    0.36 
   8   1   6    6.26    0.33 
  -9  -1  -6    0.33    0.15 
   9   1   6    0.47    0.14 
   9   1   6    0.33    0.11 
 -10  -1  -6   17.88    0.83 
  10   1   6   16.98    0.70 
  10   1   6   17.19    0.75 
   7  -2  -6    7.03    0.38 
   6  -2  -6    6.20    0.32 
  -6   2   6    6.77    0.36 
  -6   2   6    5.77    0.38 
   5  -2  -6    0.36    0.12 
  -5   2   6    0.47    0.12 
  -5   2   6    0.31    0.14 
   4  -2  -6    3.91    0.22 
  -4   2   6    3.20    0.25 
  -4   2   6    3.17    0.21 
   3  -2  -6   59.06    1.94 
  -3   2   6   55.64    2.08 
  -3   2   6   54.59    2.17 
   2  -2  -6    9.69    0.38 
   2  -2  -6   10.22    0.40 
  -2   2   6   10.54    0.43 
  -2   2   6    9.29    0.44 
   1  -2  -6  103.53    3.47 
  -1   2   6  109.78    3.92 
  -1   2   6  108.03    3.62 
  -1   2   6   93.39    3.70 
   0  -2  -6   58.47    2.30 
   0  -2  -6   64.28    2.05 
   0   2   6   61.02    2.19 
   0   2   6   58.39    2.13 
  -1  -2  -6   84.29    3.27 
  -1  -2  -6   89.43    2.90 
   1   2   6   86.05    3.10 
   1   2   6   87.13    3.04 
  -2  -2  -6   90.96    3.14 
  -2  -2  -6   92.85    3.55 
   2   2   6   93.77    3.30 
   2   2   6   98.83    3.35 
  -3  -2  -6   53.15    2.11 
  -3  -2  -6   56.41    1.87 
   3   2   6   57.02    1.99 
   3   2   6   54.99    1.97 
  -4  -2  -6    4.35    0.23 
  -4  -2  -6    4.40    0.20 
   4   2   6    4.54    0.23 
   4   2   6    4.92    0.21 
  -5  -2  -6    8.54    0.43 
  -5  -2  -6    9.94    0.38 
   5   2   6   10.11    0.37 
   5   2   6   10.26    0.41 
  -6  -2  -6    0.21    0.09 
  -6  -2  -6    0.16    0.07 
   6   2   6    0.24    0.09 
  -7  -2  -6    8.51    0.43 
  -7  -2  -6    8.48    0.36 
   7   2   6    8.25    0.39 
  -8  -2  -6   24.94    0.92 
  -8  -2  -6   26.75    1.07 
   8   2   6   24.02    0.98 
  -9  -2  -6    5.52    0.35 
   9   2   6    5.52    0.29 
   9   2   6    5.04    0.31 
 -10  -2  -6    2.33    0.26 
  10   2   6    2.47    0.23 
   6  -3  -6    7.15    0.36 
  -6   3   6    7.02    0.39 
  -6   3   6    6.90    0.43 
   5  -3  -6   19.75    0.75 
  -5   3   6   19.57    0.83 
  -5   3   6   18.94    0.83 
   4  -3  -6    0.01    0.09 
  -4   3   6    0.41    0.14 
  -4   3   6    0.02    0.09 
   3  -3  -6   16.95    0.63 
  -3   3   6   16.60    0.70 
  -3   3   6   16.51    0.70 
   2  -3  -6    0.61    0.09 
  -2   3   6    0.64    0.09 
  -2   3   6    0.58    0.12 
   1  -3  -6  102.25    3.35 
  -1   3   6  101.65    3.60 
  -1   3   6   96.53    3.48 
  -1   3   6   99.97    3.79 
   0  -3  -6    5.12    0.25 
   0  -3  -6    5.36    0.23 
   0   3   6    4.96    0.26 
   0   3   6    5.05    0.21 
  -1  -3  -6    2.83    0.16 
  -1  -3  -6    2.87    0.15 
   1   3   6    2.84    0.14 
   1   3   6    3.19    0.18 
  -2  -3  -6  137.09    4.58 
  -2  -3  -6  136.50    5.19 
   2   3   6  136.66    4.80 
   2   3   6  140.54    4.88 
  -3  -3  -6   21.16    0.72 
  -3  -3  -6   19.61    0.82 
   3   3   6   20.89    0.77 
   3   3   6   20.72    0.78 
  -4  -3  -6    8.60    0.31 
  -4  -3  -6    7.19    0.35 
   4   3   6    7.88    0.34 
   4   3   6    7.96    0.33 
  -5  -3  -6    1.09    0.12 
  -5  -3  -6    0.92    0.09 
   5   3   6    1.07    0.09 
   5   3   6    0.93    0.10 
  -6  -3  -6    0.57    0.10 
  -6  -3  -6    0.44    0.07 
   6   3   6    0.46    0.10 
  -7  -3  -6   42.36    1.63 
  -7  -3  -6   39.72    1.40 
   7   3   6   39.74    1.50 
  -8  -3  -6    8.16    0.44 
  -8  -3  -6    8.15    0.35 
   8   3   6    8.05    0.40 
  -9  -3  -6   27.64    1.14 
   9   3   6   25.41    1.04 
 -10  -3  -6   11.13    0.57 
  10   3   6    9.85    0.50 
   6  -4  -6    0.11    0.14 
  -6   4   6    0.22    0.15 
  -6   4   6    0.07    0.17 
   5  -4  -6   20.38    0.79 
  -5   4   6   20.39    0.87 
  -5   4   6   20.36    0.88 
   4  -4  -6    7.70    0.36 
  -4   4   6    7.85    0.42 
  -4   4   6    7.34    0.40 
   3  -4  -6   44.89    1.56 
  -3   4   6   45.52    1.76 
  -3   4   6   43.95    1.69 
   2  -4  -6  209.29    7.08 
  -2   4   6  219.83    7.57 
  -2   4   6  210.20    8.03 
   1  -4  -6   16.96    0.63 
  -1   4   6   16.63    0.70 
  -1   4   6   17.75    0.71 
   0  -4  -6  131.13    5.07 
   0  -4  -6  134.63    4.47 
   0   4   6  139.49    4.80 
   0   4   6  132.39    4.66 
  -1  -4  -6    2.51    0.14 
  -1  -4  -6    2.19    0.15 
   1   4   6    2.51    0.12 
   1   4   6    2.67    0.18 
  -2  -4  -6    5.83    0.24 
  -2  -4  -6    5.06    0.26 
   2   4   6    5.53    0.27 
   2   4   6    5.59    0.24 
  -3  -4  -6    5.62    0.27 
  -3  -4  -6    5.54    0.23 
   3   4   6    5.34    0.26 
   3   4   6    5.43    0.24 
  -4  -4  -6    4.49    0.25 
  -4  -4  -6    5.11    0.21 
   4   4   6    5.34    0.24 
   4   4   6    4.76    0.23 
  -5  -4  -6   75.23    2.93 
  -5  -4  -6   77.35    2.56 
   5   4   6   76.09    2.72 
   5   4   6   76.63    2.71 
  -6  -4  -6    2.87    0.21 
  -6  -4  -6    2.49    0.15 
   6   4   6    2.59    0.17 
   6   4   6    2.55    0.15 
  -7  -4  -6   31.89    1.28 
  -7  -4  -6   31.05    1.09 
   7   4   6   31.04    1.18 
  -8  -4  -6   28.69    1.19 
   8   4   6   28.61    1.10 
  -9  -4  -6    3.80    0.30 
   9   4   6    3.42    0.25 
 -10  -4  -6    1.02    0.20 
  10   4   6    0.62    0.16 
   5  -5  -6    4.69    0.29 
  -5   5   6    4.64    0.35 
  -5   5   6    4.59    0.32 
   4  -5  -6   67.24    2.31 
  -4   5   6   66.57    2.49 
  -4   5   6   67.04    2.61 
   3  -5  -6    0.84    0.12 
  -3   5   6    0.70    0.13 
  -3   5   6    0.50    0.15 
   2  -5  -6   58.43    2.00 
  -2   5   6   57.94    2.16 
  -2   5   6   58.74    2.27 
   1  -5  -6    4.03    0.21 
  -1   5   6    4.14    0.24 
  -1   5   6    4.27    0.27 
   0  -5  -6   11.62    0.49 
   0  -5  -6   10.77    0.42 
   0   5   6   10.79    0.49 
  -1  -5  -6    2.67    0.14 
  -1  -5  -6    2.42    0.17 
   1   5   6    2.82    0.19 
   1   5   6    2.40    0.12 
  -2  -5  -6    0.52    0.07 
  -2  -5  -6    0.50    0.08 
   2   5   6    0.47    0.06 
   2   5   6    0.51    0.09 
  -3  -5  -6   12.99    0.48 
  -3  -5  -6   13.09    0.57 
   3   5   6   13.96    0.52 
   3   5   6   13.62    0.55 
  -4  -5  -6   15.88    0.67 
  -4  -5  -6   16.25    0.56 
   4   5   6   15.78    0.61 
   4   5   6   15.43    0.62 
  -5  -5  -6   10.43    0.38 
   5   5   6    9.89    0.42 
  -6  -5  -6   71.12    2.61 
   6   5   6   63.35    2.40 
   6   5   6   67.07    2.41 
  -7  -5  -6    0.40    0.13 
   7   5   6    0.30    0.10 
  -8  -5  -6   10.99    0.53 
   8   5   6    9.79    0.47 
  -9  -5  -6    2.07    0.23 
   9   5   6    1.75    0.19 
 -10  -5  -6    5.35    0.36 
  10   5   6    4.01    0.31 
   5  -6  -6    7.34    0.38 
  -5   6   6    7.04    0.43 
  -5   6   6    7.52    0.44 
   4  -6  -6   26.17    0.98 
  -4   6   6   26.62    1.08 
  -4   6   6   25.62    1.11 
   3  -6  -6    3.25    0.21 
  -3   6   6    2.94    0.25 
  -3   6   6    2.85    0.24 
   2  -6  -6    2.55    0.18 
  -2   6   6    2.62    0.22 
  -2   6   6    2.80    0.23 
   1  -6  -6    5.07    0.24 
  -1   6   6    5.01    0.30 
  -1   6   6    5.07    0.30 
   0  -6  -6    0.25    0.07 
   0  -6  -6    0.27    0.09 
   0   6   6    0.22    0.10 
  -1  -6  -6   11.10    0.48 
  -1  -6  -6   10.84    0.41 
   1   6   6   10.07    0.47 
  -2  -6  -6   26.42    0.94 
  -2  -6  -6   27.41    1.08 
   2   6   6   27.46    1.03 
   2   6   6   26.43    0.97 
  -3  -6  -6    0.44    0.09 
  -3  -6  -6    0.51    0.07 
   3   6   6    0.53    0.07 
   3   6   6    0.18    0.09 
  -4  -6  -6  201.57    7.61 
  -4  -6  -6  202.36    6.67 
   4   6   6  199.15    7.03 
   4   6   6  203.99    7.14 
  -5  -6  -6    5.64    0.31 
   5   6   6    6.13    0.29 
   5   6   6    6.42    0.30 
  -6  -6  -6   31.24    1.22 
   6   6   6   28.38    1.11 
   6   6   6   30.11    1.12 
  -7  -6  -6    7.87    0.40 
   7   6   6    7.01    0.36 
  -8  -6  -6    9.87    0.49 
   8   6   6    9.07    0.44 
  -9  -6  -6    0.30    0.16 
   9   6   6    0.60    0.14 
 -10  -6  -6    0.23    0.16 
  10   6   6    0.00    0.13 
   4  -7  -6    1.50    0.18 
  -4   7   6    1.64    0.23 
  -4   7   6    1.49    0.20 
   3  -7  -6    5.94    0.30 
  -3   7   6    5.45    0.36 
  -3   7   6    5.61    0.36 
   2  -7  -6    0.33    0.10 
  -2   7   6    0.27    0.14 
  -2   7   6    0.46    0.13 
   1  -7  -6    3.14    0.19 
  -1   7   6    2.78    0.23 
  -1   7   6    2.68    0.22 
   0  -7  -6   18.02    0.67 
   0  -7  -6   18.96    0.79 
   0   7   6   18.32    0.76 
  -1  -7  -6    2.32    0.14 
  -1  -7  -6    2.24    0.18 
   1   7   6    2.46    0.20 
  -2  -7  -6   70.82    2.36 
  -2  -7  -6   70.82    2.71 
   2   7   6   68.68    2.55 
  -3  -7  -6    5.91    0.30 
  -3  -7  -6    5.38    0.23 
   3   7   6    5.51    0.29 
   3   7   6    5.16    0.24 
  -4  -7  -6    8.71    0.41 
   4   7   6    7.76    0.35 
   4   7   6    8.70    0.38 
  -5  -7  -6    4.72    0.29 
   5   7   6    4.66    0.26 
   5   7   6    5.29    0.26 
  -6  -7  -6   10.84    0.52 
   6   7   6   11.47    0.48 
   6   7   6   11.26    0.48 
  -7  -7  -6    1.30    0.17 
   7   7   6    1.81    0.16 
   7   7   6    1.76    0.16 
  -8  -7  -6    2.29    0.23 
   8   7   6    1.91    0.18 
  -9  -7  -6    2.49    0.24 
   9   7   6    2.33    0.20 
 -10  -7  -6    2.61    0.28 
  10   7   6    2.36    0.23 
   3  -8  -6    0.07    0.12 
  -3   8   6    0.01    0.13 
  -3   8   6   -0.12    0.14 
   2  -8  -6    3.69    0.23 
  -2   8   6    3.59    0.30 
  -2   8   6    3.51    0.28 
   1  -8  -6    0.96    0.15 
   1  -8  -6    0.92    0.12 
  -1   8   6    0.95    0.17 
   0  -8  -6   20.01    0.76 
   0  -8  -6   21.75    0.90 
   0   8   6   21.18    0.87 
  -1  -8  -6    6.22    0.27 
  -1  -8  -6    6.09    0.34 
   1   8   6    5.39    0.33 
  -2  -8  -6   14.72    0.54 
  -2  -8  -6   15.25    0.66 
   2   8   6   14.44    0.63 
  -3  -8  -6    1.04    0.14 
   3   8   6    0.88    0.13 
   3   8   6    1.13    0.10 
  -4  -8  -6    6.20    0.33 
   4   8   6    5.93    0.28 
   4   8   6    6.00    0.32 
  -5  -8  -6   56.00    2.19 
   5   8   6   52.92    2.04 
   5   8   6   58.18    2.01 
  -6  -8  -6    2.73    0.22 
   6   8   6    2.82    0.20 
   6   8   6    3.03    0.20 
  -7  -8  -6   10.73    0.52 
   7   8   6   10.64    0.46 
   7   8   6    9.56    0.45 
  -8  -8  -6    5.05    0.33 
   8   8   6    4.99    0.30 
  -9  -8  -6   -0.03    0.15 
   9   8   6    0.05    0.12 
   3  -9  -6    2.13    0.20 
  -3   9   6    2.37    0.26 
  -3   9   6    1.98    0.25 
   2  -9  -6   13.23    0.56 
  -2   9   6   13.73    0.64 
  -2   9   6   13.68    0.67 
   1  -9  -6   15.06    0.59 
   1  -9  -6   14.68    0.70 
  -1   9   6   14.84    0.68 
   0  -9  -6   13.93    0.54 
   0  -9  -6   14.24    0.65 
   0   9   6   13.40    0.63 
  -1  -9  -6   11.15    0.52 
  -1  -9  -6   10.29    0.42 
   1   9   6   10.46    0.51 
  -2  -9  -6    3.37    0.25 
   2   9   6    2.92    0.24 
  -3  -9  -6   36.08    1.42 
   3   9   6   33.81    1.33 
  -4  -9  -6    5.51    0.32 
   4   9   6    5.93    0.27 
   4   9   6    5.54    0.31 
  -5  -9  -6   11.03    0.52 
   5   9   6   10.60    0.45 
   5   9   6   10.52    0.49 
  -6  -9  -6    2.27    0.21 
   6   9   6    1.91    0.18 
   6   9   6    2.02    0.17 
  -7  -9  -6    2.85    0.24 
   7   9   6    3.01    0.22 
   7   9   6    2.86    0.22 
  -8  -9  -6    9.06    0.50 
   8   9   6    9.30    0.44 
  -9  -9  -6    0.64    0.20 
   9   9   6    0.96    0.17 
   2 -10  -6    4.40    0.35 
   2 -10  -6    4.42    0.28 
  -2  10   6    4.22    0.34 
   1 -10  -6    2.01    0.17 
   1 -10  -6    1.69    0.21 
  -1  10   6    1.60    0.21 
   0 -10  -6    0.19    0.15 
   0  10   6    0.13    0.14 
  -1 -10  -6   18.78    0.83 
   1  10   6   18.28    0.80 
  -2 -10  -6    1.03    0.17 
   2  10   6    0.97    0.16 
  -3 -10  -6    0.42    0.14 
   3  10   6    0.36    0.13 
  -4 -10  -6    1.01    0.16 
   4  10   6    1.37    0.16 
  -5 -10  -6    0.14    0.13 
   5  10   6    0.16    0.12 
   5  10   6    0.09    0.10 
  -6 -10  -6    9.07    0.49 
   6  10   6    9.16    0.45 
   6  10   6   10.10    0.44 
  -7 -10  -6    3.07    0.27 
   7  10   6    2.90    0.23 
   7  10   6    2.80    0.23 
  -8 -10  -6    7.60    0.44 
   8  10   6    6.72    0.38 
   8  10   6    6.67    0.37 
  -9 -10  -6   15.11    0.75 
   9  10   6   15.88    0.69 
   0 -11  -6    7.94    0.45 
   0  11   6    7.72    0.44 
  -1 -11  -6    0.77    0.18 
   1  11   6    0.85    0.18 
  -2 -11  -6    0.02    0.13 
   2  11   6    0.24    0.14 
  -3 -11  -6    0.50    0.16 
   3  11   6    0.31    0.14 
  -4 -11  -6    0.20    0.13 
   4  11   6    0.15    0.14 
  -5 -11  -6    2.53    0.24 
   5  11   6    2.53    0.23 
  -6 -11  -6    0.94    0.17 
   6  11   6    1.20    0.16 
   6  11   6    1.12    0.17 
  -7 -11  -6   18.36    0.83 
   7  11   6   18.63    0.75 
   7  11   6   17.36    0.77 
  -8 -11  -6    0.47    0.19 
   8  11   6    0.32    0.14 
   8  11   6    0.57    0.16 
  -1 -12  -6    0.79    0.18 
   1  12   6    0.60    0.19 
  -2 -12  -6    0.24    0.17 
   2  12   6    0.08    0.15 
  -3 -12  -6    1.65    0.23 
   3  12   6    1.51    0.21 
  -4 -12  -6    0.53    0.17 
   4  12   6    0.65    0.18 
  -5 -12  -6    3.94    0.31 
   5  12   6    3.69    0.29 
  -6 -12  -6    1.42    0.22 
   6  12   6    1.47    0.20 
   4  10  -7    0.00    0.16 
   3  10  -7    0.56    0.18 
  -3 -10   7    0.45    0.17 
   2  10  -7   18.06    0.75 
  -2 -10   7   16.96    0.74 
   1  10  -7    0.16    0.15 
  -1 -10   7    0.41    0.15 
   0  10  -7   15.28    0.67 
   0 -10   7   15.05    0.64 
  -1  10  -7    0.11    0.12 
   1 -10   7    0.24    0.14 
   5   9  -7    2.53    0.25 
  -5  -9   7    1.91    0.23 
   4   9  -7    3.96    0.29 
  -4  -9   7    3.94    0.29 
   3   9  -7    1.27    0.18 
  -3  -9   7    0.80    0.16 
   2   9  -7   16.08    0.67 
  -2  -9   7   14.46    0.64 
   1   9  -7    4.71    0.30 
  -1  -9   7    4.65    0.28 
   0   9  -7   25.03    0.95 
   0   9  -7   25.08    1.00 
   0  -9   7   25.07    0.98 
  -1   9  -7   13.02    0.55 
   1  -9   7   12.21    0.58 
  -2   9  -7    4.15    0.27 
   2  -9   7    3.42    0.27 
  -3   9  -7   10.12    0.48 
   3  -9   7    9.82    0.50 
   5   8  -7    6.72    0.38 
  -5  -8   7    6.51    0.38 
   4   8  -7    8.80    0.44 
  -4  -8   7    8.72    0.44 
   3   8  -7   12.38    0.55 
  -3  -8   7   12.17    0.55 
   2   8  -7   11.95    0.53 
  -2  -8   7   11.55    0.52 
   1   8  -7   11.99    0.53 
   1   8  -7   12.39    0.50 
  -1  -8   7   11.47    0.52 
   0   8  -7    0.32    0.11 
   0   8  -7    0.29    0.13 
   0  -8   7    0.29    0.12 
  -1   8  -7   10.59    0.47 
  -1   8  -7   10.92    0.50 
   1  -8   7   10.24    0.46 
  -2   8  -7    0.10    0.11 
   2  -8   7    0.19    0.12 
  -3   8  -7    4.49    0.28 
   3  -8   7    3.56    0.28 
  -4   8  -7   11.32    0.51 
   4  -8   7   10.79    0.53 
   6   7  -7   -0.04    0.15 
  -6  -7   7   -0.11    0.15 
   5   7  -7    2.64    0.23 
  -5  -7   7    2.44    0.22 
   4   7  -7    3.16    0.24 
  -4  -7   7    3.03    0.24 
   3   7  -7   52.53    1.77 
   3   7  -7   50.91    1.88 
  -3  -7   7   50.04    1.89 
   2   7  -7    0.51    0.11 
   2   7  -7    0.51    0.12 
  -2  -7   7    0.34    0.11 
   1   7  -7    3.96    0.25 
   1   7  -7    3.51    0.22 
  -1  -7   7    3.76    0.24 
   0   7  -7    7.40    0.37 
   0   7  -7    6.72    0.34 
   0  -7   7    7.67    0.35 
  -1   7  -7   10.65    0.47 
  -1   7  -7   11.62    0.50 
   1  -7   7   11.05    0.47 
  -2   7  -7    3.00    0.21 
   2  -7   7    2.48    0.20 
  -3   7  -7    1.64    0.17 
   3  -7   7    1.40    0.18 
  -4   7  -7    2.59    0.21 
   4  -7   7    2.34    0.21 
  -5   7  -7    2.01    0.20 
   5  -7   7    1.93    0.21 
   6   6  -7    2.95    0.25 
  -6  -6   7    3.25    0.26 
   5   6  -7   24.67    0.96 
  -5  -6   7   24.21    0.98 
   4   6  -7    3.45    0.20 
   4   6  -7    2.97    0.22 
  -4  -6   7    3.43    0.24 
   3   6  -7    7.39    0.35 
   3   6  -7    7.03    0.32 
  -3  -6   7    6.57    0.35 
   2   6  -7   20.14    0.79 
   2   6  -7   19.79    0.74 
  -2  -6   7   19.58    0.78 
   1   6  -7    7.86    0.37 
   1   6  -7    8.03    0.36 
  -1  -6   7    7.88    0.37 
   0   6  -7    1.73    0.15 
   0   6  -7    1.81    0.16 
   0  -6   7    1.90    0.15 
  -1   6  -7    2.16    0.17 
   1  -6   7    2.20    0.17 
  -2   6  -7    0.05    0.09 
   2  -6   7    0.05    0.08 
   2  -6   7    0.01    0.09 
  -3   6  -7   12.75    0.52 
   3  -6   7   11.46    0.54 
  -4   6  -7   16.76    0.68 
  -4   6  -7   14.76    0.62 
   4  -6   7   13.78    0.64 
  -5   6  -7   48.48    1.87 
  -5   6  -7   57.47    2.12 
   5  -6   7   52.92    1.96 
  -6   6  -7    1.75    0.19 
  -6   6  -7    1.50    0.20 
   6  -6   7    1.30    0.18 
   7   5  -7    8.59    0.43 
  -7  -5   7    7.96    0.45 
   6   5  -7   30.04    1.16 
  -6  -5   7   30.29    1.20 
   5   5  -7    0.39    0.13 
   5   5  -7    0.22    0.10 
  -5  -5   7    0.25    0.14 
   4   5  -7   51.78    1.75 
   4   5  -7   51.82    1.85 
  -4  -5   7   48.87    1.88 
   3   5  -7    9.84    0.40 
   3   5  -7    9.90    0.43 
  -3  -5   7    9.35    0.44 
   2   5  -7    6.55    0.30 
   2   5  -7    6.39    0.32 
  -2  -5   7    6.97    0.33 
   1   5  -7    1.76    0.15 
   1   5  -7    1.74    0.14 
  -1  -5   7    1.70    0.15 
   0   5  -7    2.16    0.18 
   0   5  -7    2.74    0.18 
   0  -5   7    2.66    0.17 
  -1   5  -7    0.36    0.10 
  -1   5  -7    0.37    0.09 
   1  -5   7    0.27    0.08 
  -2   5  -7    8.58    0.38 
   2  -5   7    8.59    0.40 
   2  -5   7    8.47    0.36 
  -3   5  -7   59.47    2.04 
  -3   5  -7   60.11    2.28 
   3  -5   7   57.17    2.14 
  -4   5  -7    0.47    0.11 
  -4   5  -7    0.51    0.12 
   4  -5   7    0.48    0.12 
  -5   5  -7   14.65    0.63 
  -5   5  -7   16.93    0.71 
   5  -5   7   15.41    0.67 
  -6   5  -7   24.93    1.00 
  -6   5  -7   27.97    1.13 
   6  -5   7   26.28    1.04 
  -7   5  -7    2.66    0.25 
  -7   5  -7    2.58    0.23 
   7  -5   7    2.77    0.23 
  -7  -4   7    5.05    0.36 
   6   4  -7   13.77    0.59 
   6   4  -7   14.13    0.56 
  -6  -4   7   14.04    0.64 
   5   4  -7    0.99    0.13 
   5   4  -7    1.13    0.15 
  -5  -4   7    1.03    0.16 
   4   4  -7   23.43    0.94 
   4   4  -7   26.82    0.90 
  -4  -4   7   23.69    0.97 
   3   4  -7    0.46    0.09 
   3   4  -7    0.29    0.10 
  -3  -4   7    0.38    0.11 
   2   4  -7    0.41    0.09 
   2   4  -7    0.48    0.10 
  -2  -4   7    0.37    0.10 
   1   4  -7    7.22    0.33 
   1   4  -7    6.22    0.30 
  -1  -4   7    7.03    0.32 
   0   4  -7   27.63    1.04 
   0   4  -7   28.78    1.00 
   0  -4   7   27.45    1.04 
  -1   4  -7   53.97    1.97 
  -1   4  -7   56.37    1.88 
   1  -4   7   53.84    1.97 
  -2   4  -7  155.16    5.65 
  -2   4  -7  153.88    5.02 
   2  -4   7  145.56    5.27 
   2  -4   7  145.30    5.29 
  -3   4  -7   21.96    0.82 
  -3   4  -7   22.49    0.89 
   3  -4   7   21.94    0.87 
  -4   4  -7   44.80    1.65 
  -4   4  -7   40.34    1.48 
   4  -4   7   40.17    1.55 
  -5   4  -7    9.13    0.44 
  -5   4  -7   10.76    0.48 
   5  -4   7    9.70    0.46 
  -6   4  -7    3.47    0.26 
  -6   4  -7    2.93    0.23 
   6  -4   7    3.25    0.24 
  -7   4  -7   -0.01    0.12 
  -7   4  -7    0.06    0.13 
   7  -4   7    0.13    0.12 
   7   3  -7   10.36    0.47 
  -7  -3   7   10.41    0.52 
   6   3  -7    7.32    0.37 
   6   3  -7    8.27    0.38 
  -6  -3   7    8.02    0.42 
   5   3  -7    0.18    0.11 
   5   3  -7    0.28    0.11 
  -5  -3   7    0.28    0.13 
   4   3  -7    2.45    0.18 
   4   3  -7    2.22    0.18 
  -4  -3   7    2.12    0.19 
   3   3  -7    3.44    0.21 
   3   3  -7    3.34    0.20 
  -3  -3   7    3.76    0.23 
   2   3  -7   32.56    1.10 
   2   3  -7   30.20    1.15 
  -2  -3   7   31.07    1.18 
   1   3  -7   24.40    0.87 
  -1  -3   7   23.95    0.92 
   0   3  -7   38.27    1.31 
   0   3  -7   37.35    1.25 
   0  -3   7   31.51    1.31 
  -1   3  -7   11.01    0.43 
  -1   3  -7   10.47    0.45 
   1  -3   7   11.05    0.44 
  -2   3  -7   69.58    2.48 
  -2   3  -7   64.07    2.22 
   2  -3   7   64.69    2.33 
   2  -3   7   62.10    2.34 
  -3   3  -7    0.35    0.08 
  -3   3  -7    0.32    0.09 
   3  -3   7    0.41    0.07 
   3  -3   7    0.31    0.09 
  -4   3  -7   25.66    0.94 
   4  -3   7   25.88    0.99 
  -5   3  -7    3.71    0.22 
  -5   3  -7    3.87    0.24 
   5  -3   7    3.49    0.23 
  -6   3  -7    1.11    0.14 
  -6   3  -7    1.08    0.15 
   6  -3   7    0.88    0.14 
  -7   3  -7    0.27    0.12 
  -7   3  -7    0.13    0.13 
   7  -3   7    0.34    0.13 
  -8   3  -7    6.87    0.39 
  -8   3  -7    7.20    0.43 
   8  -3   7    7.85    0.40 
   8  -3   7    7.50    0.40 
   7   2  -7    4.07    0.27 
  -7  -2   7    4.36    0.33 
   6   2  -7    0.23    0.12 
  -6  -2   7    0.24    0.14 
   5   2  -7   24.44    0.93 
   5   2  -7   23.89    0.90 
  -5  -2   7   25.19    0.98 
   4   2  -7   10.13    0.42 
   4   2  -7    9.55    0.42 
  -4  -2   7    9.72    0.46 
   3   2  -7   15.37    0.59 
   3   2  -7   14.29    0.57 
  -3  -2   7   15.84    0.63 
   2   2  -7   37.94    1.29 
   2   2  -7   37.37    1.35 
  -2  -2   7   35.73    1.38 
   1   2  -7   30.28    1.04 
   1   2  -7   27.37    1.08 
  -1  -2   7   31.09    1.12 
   0   2  -7   62.15    2.48 
   0   2  -7   72.60    2.38 
   0  -2   7   76.34    2.53 
  -1   2  -7    6.96    0.30 
   1  -2   7    7.03    0.31 
  -2   2  -7    7.95    0.34 
   2  -2   7    8.66    0.35 
  -3   2  -7    5.15    0.25 
  -3   2  -7    5.21    0.26 
   3  -2   7    5.73    0.24 
   3  -2   7    5.65    0.28 
  -4   2  -7    2.48    0.16 
   4  -2   7    2.62    0.19 
  -5   2  -7    1.58    0.15 
  -5   2  -7    1.52    0.14 
   5  -2   7    1.49    0.15 
  -6   2  -7   19.84    0.84 
  -6   2  -7   19.41    0.76 
   6  -2   7   19.96    0.79 
  -7   2  -7   11.01    0.47 
  -7   2  -7   11.19    0.53 
   7  -2   7   10.31    0.49 
  -8   2  -7   20.00    0.82 
  -8   2  -7   21.99    0.94 
   8  -2   7   21.45    0.87 
   7   1  -7    4.04    0.27 
  -7  -1   7    4.00    0.32 
   6   1  -7   -0.08    0.11 
  -6  -1   7    0.04    0.14 
   5   1  -7   20.82    0.83 
  -5  -1   7   23.79    0.91 
   4   1  -7    6.65    0.32 
   4   1  -7    7.05    0.32 
  -4  -1   7    6.92    0.36 
   3   1  -7   10.41    0.46 
   3   1  -7   12.35    0.47 
  -3  -1   7   11.73    0.50 
   2   1  -7   98.12    3.24 
   2   1  -7   96.63    3.39 
  -2  -1   7   94.45    3.45 
   1   1  -7   19.26    0.68 
   1   1  -7   17.84    0.70 
  -1  -1   7   18.65    0.73 
   0   1  -7    0.38    0.07 
   0   1  -7    0.22    0.07 
   0  -1   7    0.45    0.08 
  -1   1  -7  114.19    4.33 
  -1   1  -7  108.12    3.85 
   1  -1   7  123.21    4.10 
   1  -1   7  115.58    4.05 
  -2   1  -7    5.65    0.27 
  -2   1  -7    6.57    0.27 
   2  -1   7    6.14    0.27 
   2  -1   7    6.08    0.29 
  -3   1  -7   31.51    1.26 
  -3   1  -7   33.08    1.14 
   3  -1   7   33.59    1.21 
   3  -1   7   31.90    1.18 
  -4   1  -7   26.44    1.05 
  -4   1  -7   26.98    0.95 
   4  -1   7   26.22    1.01 
  -5   1  -7    0.23    0.09 
  -5   1  -7    0.21    0.08 
   5  -1   7    0.33    0.10 
  -6   1  -7   10.62    0.45 
  -6   1  -7   11.09    0.50 
   6  -1   7   10.34    0.47 
  -7   1  -7   17.66    0.70 
  -7   1  -7   18.01    0.79 
   7  -1   7   18.71    0.75 
  -8   1  -7    3.26    0.23 
  -8   1  -7    3.48    0.28 
   8  -1   7    3.04    0.24 
  -9   1  -7    2.19    0.25 
   9  -1   7    2.07    0.22 
   9  -1   7    1.57    0.18 
   7   0  -7   12.46    0.55 
  -7   0   7   12.40    0.62 
   6   0  -7    2.99    0.23 
  -6   0   7    2.65    0.25 
   5   0  -7   24.63    0.94 
  -5   0   7   26.60    1.04 
   4   0  -7   30.87    1.11 
  -4   0   7   31.15    1.20 
   3   0  -7   69.26    2.50 
   3   0  -7   71.34    2.41 
  -3   0   7   71.97    2.58 
   2   0  -7    1.48    0.13 
   2   0  -7    1.74    0.12 
  -2   0   7    1.21    0.14 
   1   0  -7   41.38    1.67 
   1   0  -7   45.85    1.52 
   1   0  -7   45.72    1.58 
  -1   0   7   44.07    1.63 
   0   0  -7    7.74    0.31 
   0   0  -7    7.97    0.32 
   0   0  -7    6.93    0.31 
   0   0   7    7.89    0.34 
  -1   0  -7   19.25    0.70 
  -1   0  -7   19.47    0.75 
   1   0   7   19.48    0.74 
   1   0   7   20.03    0.75 
  -2   0  -7    7.19    0.30 
   2   0   7    7.49    0.31 
   2   0   7    6.40    0.31 
  -3   0  -7    3.36    0.18 
  -3   0  -7    3.49    0.18 
   3   0   7    3.59    0.18 
   3   0   7    2.92    0.19 
  -4   0  -7    4.44    0.22 
  -4   0  -7    4.48    0.23 
   4   0   7    4.77    0.24 
   4   0   7    4.38    0.20 
  -5   0  -7    7.52    0.36 
  -5   0  -7    7.62    0.33 
   5   0   7    7.23    0.35 
  -6   0  -7   20.77    0.80 
  -6   0  -7   22.14    0.91 
   6   0   7   22.24    0.85 
  -7   0  -7   14.57    0.57 
  -7   0  -7   13.72    0.64 
   7   0   7   13.80    0.60 
  -8   0  -7    4.84    0.28 
  -8   0  -7    5.27    0.33 
   8   0   7    4.56    0.29 
  -9   0  -7   60.19    2.35 
   9   0   7   58.75    2.07 
   9   0   7   57.74    2.17 
   6  -1  -7    0.58    0.15 
  -6   1   7    0.31    0.17 
   5  -1  -7   39.48    1.37 
  -5   1   7   36.97    1.48 
   4  -1  -7   19.92    0.75 
  -4   1   7   19.74    0.82 
   3  -1  -7    7.44    0.33 
  -3   1   7    7.17    0.37 
  -3   1   7    7.07    0.33 
   2  -1  -7   34.41    1.24 
   2  -1  -7   34.57    1.21 
  -2   1   7   36.14    1.32 
  -2   1   7   33.77    1.34 
   1  -1  -7   18.28    0.68 
   1  -1  -7   18.68    0.67 
   1  -1  -7   17.67    0.71 
  -1   1   7   18.35    0.73 
   0  -1  -7    7.89    0.35 
   0  -1  -7    8.61    0.36 
   0   1   7    9.14    0.40 
   0   1   7    9.83    0.37 
  -1  -1  -7   14.11    0.51 
  -1  -1  -7   13.54    0.54 
   1   1   7   13.47    0.55 
   1   1   7   13.12    0.53 
  -2  -1  -7   22.91    0.90 
  -2  -1  -7   22.58    0.82 
   2   1   7   23.66    0.86 
   2   1   7   22.99    0.87 
  -3  -1  -7   52.22    1.76 
  -3  -1  -7   51.96    1.98 
   3   1   7   51.44    1.86 
   3   1   7   51.32    1.86 
  -4  -1  -7   19.96    0.71 
  -4  -1  -7   18.40    0.79 
   4   1   7   19.60    0.73 
   4   1   7   20.98    0.76 
  -5  -1  -7   59.59    2.05 
  -5  -1  -7   58.68    2.32 
   5   1   7   62.42    2.17 
  -6  -1  -7   11.07    0.50 
  -6  -1  -7   10.84    0.44 
   6   1   7   11.04    0.48 
  -7  -1  -7   69.72    2.71 
  -7  -1  -7   69.84    2.39 
   7   1   7   69.82    2.52 
  -8  -1  -7    0.88    0.15 
  -8  -1  -7    0.75    0.12 
   8   1   7    0.80    0.14 
  -9  -1  -7   12.00    0.58 
   9   1   7   10.76    0.52 
   9   1   7   11.15    0.49 
   6  -2  -7   22.49    0.85 
  -6   2   7   20.92    0.93 
   5  -2  -7    6.91    0.35 
  -5   2   7    7.30    0.41 
   4  -2  -7   30.24    1.05 
  -4   2   7   27.54    1.15 
  -4   2   7   28.22    1.14 
   3  -2  -7    0.14    0.09 
  -3   2   7    0.23    0.08 
  -3   2   7    0.22    0.12 
   2  -2  -7    6.73    0.30 
  -2   2   7    6.43    0.35 
  -2   2   7    6.54    0.31 
   1  -2  -7   12.34    0.52 
   1  -2  -7   12.47    0.48 
  -1   2   7   12.17    0.54 
  -1   2   7   12.82    0.48 
   0  -2  -7    0.05    0.06 
   0  -2  -7    0.03    0.05 
   0   2   7    0.23    0.06 
   0   2   7    0.05    0.08 
  -1  -2  -7   50.94    1.71 
  -1  -2  -7   49.53    1.91 
   1   2   7   50.65    1.78 
   1   2   7   49.15    1.83 
  -2  -2  -7    0.85    0.08 
   2   2   7    0.84    0.10 
   2   2   7    0.81    0.09 
  -3  -2  -7   29.27    1.17 
  -3  -2  -7   29.31    1.04 
   3   2   7   30.64    1.10 
   3   2   7   30.36    1.11 
  -4  -2  -7   22.42    0.80 
  -4  -2  -7   20.60    0.89 
   4   2   7   23.82    0.85 
   4   2   7   22.79    0.83 
  -5  -2  -7   26.38    1.06 
  -5  -2  -7   25.15    0.93 
   5   2   7   26.74    0.99 
   5   2   7   26.79    0.96 
  -6  -2  -7   17.61    0.76 
  -6  -2  -7   17.24    0.66 
   6   2   7   18.88    0.72 
  -7  -2  -7   21.05    0.91 
  -7  -2  -7   21.40    0.79 
   7   2   7   22.17    0.85 
  -8  -2  -7    0.78    0.12 
  -8  -2  -7    1.03    0.16 
   8   2   7    0.77    0.14 
  -9  -2  -7    2.83    0.26 
   9   2   7    2.54    0.23 
   9   2   7    2.71    0.19 
 -10  -2  -7    0.35    0.19 
  10   2   7    0.36    0.16 
   6  -3  -7   38.55    1.38 
  -6   3   7   36.46    1.50 
   5  -3  -7    0.72    0.15 
  -5   3   7    0.61    0.18 
   4  -3  -7   18.11    0.70 
  -4   3   7   17.58    0.77 
  -4   3   7   17.81    0.76 
   3  -3  -7    0.32    0.10 
  -3   3   7    0.11    0.12 
  -3   3   7    0.18    0.09 
   2  -3  -7   13.39    0.52 
  -2   3   7   13.82    0.57 
  -2   3   7   12.61    0.58 
   1  -3  -7   12.56    0.49 
  -1   3   7   13.62    0.54 
  -1   3   7   11.98    0.55 
   0  -3  -7   30.04    1.19 
   0  -3  -7   31.09    1.07 
   0   3   7   30.10    1.09 
   0   3   7   30.77    1.17 
  -1  -3  -7    0.94    0.09 
  -1  -3  -7    1.06    0.09 
   1   3   7    1.12    0.12 
   1   3   7    0.84    0.08 
  -2  -3  -7   41.82    1.45 
  -2  -3  -7   42.20    1.63 
   2   3   7   42.25    1.56 
   2   3   7   42.77    1.51 
  -3  -3  -7   25.77    1.05 
  -3  -3  -7   26.44    0.93 
   3   3   7   27.16    0.98 
   3   3   7   27.04    1.00 
  -4  -3  -7   14.74    0.60 
  -4  -3  -7   14.51    0.52 
   4   3   7   12.57    0.56 
   4   3   7   14.98    0.56 
  -5  -3  -7   14.59    0.64 
  -5  -3  -7   14.37    0.55 
   5   3   7   15.16    0.58 
   5   3   7   16.46    0.61 
  -6  -3  -7   14.92    0.61 
  -6  -3  -7   11.44    0.50 
   6   3   7   14.62    0.57 
  -7  -3  -7    4.37    0.23 
  -7  -3  -7    4.40    0.29 
   7   3   7    4.67    0.27 
  -8  -3  -7    5.22    0.32 
  -8  -3  -7    4.75    0.25 
   8   3   7    4.54    0.29 
  -9  -3  -7    7.52    0.43 
   9   3   7    7.48    0.40 
 -10  -3  -7   -0.08    0.17 
  10   3   7    0.07    0.14 
   5  -4  -7    1.32    0.17 
  -5   4   7    1.61    0.23 
  -5   4   7    1.79    0.19 
   4  -4  -7    5.67    0.31 
  -4   4   7    5.57    0.33 
  -4   4   7    6.25    0.37 
   3  -4  -7    4.61    0.26 
  -3   4   7    4.37    0.31 
  -3   4   7    4.68    0.27 
   2  -4  -7   68.18    2.33 
  -2   4   7   67.74    2.63 
  -2   4   7   69.02    2.52 
   1  -4  -7   32.82    1.11 
  -1   4   7   31.66    1.22 
  -1   4   7   30.13    1.25 
   0  -4  -7   67.63    2.60 
   0  -4  -7   69.26    2.30 
   0   4   7   66.65    2.48 
  -1  -4  -7   37.97    1.54 
  -1  -4  -7   39.63    1.37 
   1   4   7   41.17    1.49 
   1   4   7   40.27    1.41 
  -2  -4  -7   51.82    1.74 
  -2  -4  -7   50.96    1.96 
   2   4   7   51.55    1.81 
   2   4   7   49.86    1.87 
  -3  -4  -7   13.55    0.50 
  -3  -4  -7   13.33    0.56 
   3   4   7   12.98    0.53 
   3   4   7   13.97    0.55 
  -4  -4  -7   56.24    2.24 
  -4  -4  -7   61.81    1.97 
   4   4   7   54.41    2.08 
   4   4   7   60.51    2.11 
  -5  -4  -7    2.42    0.19 
  -5  -4  -7    2.42    0.14 
   5   4   7    2.42    0.15 
   5   4   7    2.50    0.17 
  -6  -4  -7    5.74    0.31 
  -6  -4  -7    5.23    0.24 
   6   4   7    5.82    0.29 
  -7  -4  -7    8.59    0.43 
  -7  -4  -7    8.68    0.35 
   7   4   7    7.81    0.39 
  -8  -4  -7    0.04    0.13 
   8   4   7    0.14    0.11 
  -9  -4  -7    6.14    0.37 
   9   4   7    5.79    0.34 
 -10  -4  -7    7.64    0.45 
  10   4   7    7.88    0.43 
   5  -5  -7   30.43    1.10 
  -5   5   7   28.60    1.20 
  -5   5   7   28.19    1.22 
   4  -5  -7   19.89    0.80 
  -4   5   7   22.02    0.91 
  -4   5   7   20.14    0.89 
   3  -5  -7    0.11    0.11 
  -3   5   7    0.25    0.15 
  -3   5   7    0.05    0.10 
   2  -5  -7    2.79    0.18 
  -2   5   7    2.92    0.21 
  -2   5   7    3.02    0.24 
   1  -5  -7    2.46    0.17 
  -1   5   7    2.83    0.23 
  -1   5   7    2.56    0.19 
   0  -5  -7   94.14    3.57 
   0  -5  -7   95.13    3.14 
   0   5   7   91.32    3.38 
  -1  -5  -7    0.74    0.10 
  -1  -5  -7    0.57    0.08 
   1   5   7    0.67    0.07 
   1   5   7    0.58    0.12 
  -2  -5  -7   29.21    0.96 
  -2  -5  -7   26.03    1.09 
   2   5   7   26.79    0.99 
   2   5   7   27.53    1.05 
  -3  -5  -7   15.85    0.58 
  -3  -5  -7   16.16    0.67 
   3   5   7   15.76    0.64 
   3   5   7   15.72    0.61 
  -4  -5  -7    8.33    0.40 
  -4  -5  -7    8.81    0.34 
   4   5   7    8.36    0.37 
   4   5   7    9.17    0.39 
  -5  -5  -7    4.09    0.25 
  -5  -5  -7    4.43    0.20 
   5   5   7    4.13    0.22 
   5   5   7    4.20    0.23 
  -6  -5  -7   10.38    0.49 
   6   5   7   10.16    0.44 
   6   5   7   11.08    0.46 
  -7  -5  -7    3.15    0.25 
   7   5   7    3.04    0.22 
  -8  -5  -7   24.61    1.03 
   8   5   7   23.29    0.94 
  -9  -5  -7    9.97    0.51 
   9   5   7    9.55    0.47 
 -10  -5  -7    7.50    0.45 
  10   5   7    7.29    0.41 
   4  -6  -7   22.24    0.84 
  -4   6   7   21.64    0.94 
  -4   6   7   20.41    0.93 
   3  -6  -7    0.64    0.14 
  -3   6   7    0.45    0.14 
  -3   6   7    0.81    0.18 
   2  -6  -7   35.08    1.23 
  -2   6   7   34.44    1.36 
  -2   6   7   33.99    1.39 
   1  -6  -7   59.94    2.07 
   1  -6  -7   61.71    2.36 
  -1   6   7   59.70    2.25 
   0  -6  -7   15.28    0.65 
   0  -6  -7   14.24    0.56 
   0   6   7   15.52    0.65 
  -1  -6  -7   28.46    1.00 
  -1  -6  -7   29.01    1.15 
   1   6   7   28.00    1.11 
  -2  -6  -7    0.10    0.07 
  -2  -6  -7    0.08    0.07 
   2   6   7   -0.02    0.09 
   2   6   7    0.06    0.05 
  -3  -6  -7   14.88    0.63 
  -3  -6  -7   15.16    0.54 
   3   6   7   14.68    0.61 
   3   6   7   14.06    0.57 
  -4  -6  -7   37.41    1.40 
   4   6   7   31.50    1.28 
   4   6   7   36.96    1.32 
  -5  -6  -7   11.35    0.51 
   5   6   7   10.85    0.47 
   5   6   7   10.94    0.47 
  -6  -6  -7   44.32    1.71 
   6   6   7   43.37    1.58 
   6   6   7   41.40    1.58 
  -7  -6  -7    2.96    0.23 
   7   6   7    3.09    0.22 
  -8  -6  -7   32.14    1.30 
   8   6   7   30.21    1.20 
  -9  -6  -7    6.07    0.37 
   9   6   7    4.76    0.32 
 -10  -6  -7   10.05    0.53 
  10   6   7    8.16    0.46 
   4  -7  -7    7.01    0.37 
  -4   7   7    6.98    0.44 
  -4   7   7    7.35    0.44 
   3  -7  -7   20.15    0.77 
  -3   7   7   20.22    0.88 
  -3   7   7   19.20    0.87 
   2  -7  -7    0.47    0.12 
  -2   7   7    0.22    0.15 
  -2   7   7    0.18    0.13 
   1  -7  -7   16.69    0.67 
   1  -7  -7   18.27    0.78 
  -1   7   7   18.21    0.77 
   0  -7  -7    0.06    0.09 
   0  -7  -7    0.21    0.10 
   0   7   7    0.18    0.13 
  -1  -7  -7   36.33    1.41 
  -1  -7  -7   35.43    1.22 
   1   7   7   33.82    1.35 
  -2  -7  -7    9.15    0.42 
  -2  -7  -7    8.57    0.36 
   2   7   7    8.58    0.42 
  -3  -7  -7    2.62    0.15 
  -3  -7  -7    2.52    0.20 
   3   7   7    2.22    0.15 
   3   7   7    2.49    0.20 
  -4  -7  -7    3.20    0.22 
   4   7   7    3.22    0.22 
  -5  -7  -7    0.48    0.11 
   5   7   7    0.49    0.11 
   5   7   7    0.64    0.10 
  -6  -7  -7    7.08    0.37 
   6   7   7    6.35    0.33 
   6   7   7    6.83    0.33 
  -7  -7  -7   20.47    0.86 
   7   7   7   18.92    0.78 
   7   7   7   19.22    0.77 
  -8  -7  -7    1.21    0.19 
   8   7   7    0.90    0.15 
  -9  -7  -7    7.29    0.43 
   9   7   7    6.47    0.37 
 -10  -7  -7    2.14    0.27 
  10   7   7    1.89    0.22 
   3  -8  -7   16.34    0.67 
  -3   8   7   16.84    0.78 
  -3   8   7   16.59    0.76 
   2  -8  -7    3.62    0.24 
  -2   8   7    3.59    0.29 
  -2   8   7    3.62    0.29 
   1  -8  -7   13.90    0.65 
   1  -8  -7   14.00    0.56 
  -1   8   7   14.52    0.66 
   0  -8  -7    0.39    0.10 
   0  -8  -7    0.10    0.12 
   0   8   7    0.19    0.14 
  -1  -8  -7    1.10    0.11 
  -1  -8  -7    1.00    0.14 
   1   8   7    1.07    0.17 
  -2  -8  -7   39.97    1.54 
  -2  -8  -7   37.93    1.32 
   2   8   7   36.95    1.46 
  -3  -8  -7    2.96    0.22 
   3   8   7    2.58    0.21 
  -4  -8  -7    1.36    0.16 
   4   8   7    1.52    0.17 
   4   8   7    1.61    0.13 
  -5  -8  -7   81.50    3.12 
   5   8   7   83.17    2.87 
   5   8   7   76.94    2.92 
  -6  -8  -7    2.71    0.22 
   6   8   7    2.54    0.19 
   6   8   7    2.44    0.20 
  -7  -8  -7    9.94    0.50 
   7   8   7    9.71    0.45 
   7   8   7   10.02    0.45 
  -8  -8  -7    0.50    0.16 
   8   8   7    0.35    0.13 
  -9  -8  -7    5.59    0.39 
   9   8   7    5.91    0.35 
   2  -9  -7    0.62    0.15 
   2  -9  -7    0.65    0.18 
  -2   9   7    0.56    0.19 
   1  -9  -7    1.53    0.20 
   1  -9  -7    1.40    0.16 
  -1   9   7    1.46    0.22 
   0  -9  -7    1.99    0.21 
   0  -9  -7    2.74    0.18 
   0   9   7    2.50    0.24 
  -1  -9  -7   11.77    0.56 
  -1  -9  -7   11.62    0.46 
   1   9   7   11.59    0.56 
  -2  -9  -7   12.82    0.58 
   2   9   7   11.34    0.56 
  -3  -9  -7   24.60    0.98 
   3   9   7   21.43    0.93 
  -4  -9  -7    4.48    0.28 
   4   9   7    4.39    0.28 
  -5  -9  -7   10.37    0.50 
   5   9   7   10.00    0.43 
   5   9   7    9.24    0.46 
  -6  -9  -7    0.42    0.15 
   6   9   7    0.65    0.12 
   6   9   7    0.33    0.12 
  -7  -9  -7   12.25    0.58 
   7   9   7   11.25    0.52 
   7   9   7   11.91    0.53 
  -8  -9  -7   -0.03    0.15 
   8   9   7    0.13    0.12 
  -9  -9  -7   -0.05    0.15 
   9   9   7    0.23    0.14 
   1 -10  -7    5.72    0.39 
   1 -10  -7    6.30    0.32 
  -1  10   7    5.76    0.41 
   0 -10  -7    0.38    0.16 
   0  10   7    0.23    0.16 
  -1 -10  -7    8.76    0.46 
   1  10   7    8.06    0.45 
  -2 -10  -7    5.57    0.34 
   2  10   7    4.86    0.33 
  -3 -10  -7    6.51    0.37 
   3  10   7    5.43    0.34 
  -4 -10  -7    3.97    0.28 
   4  10   7    3.93    0.28 
  -5 -10  -7    9.44    0.49 
   5  10   7    9.48    0.46 
  -6 -10  -7    1.40    0.20 
   6  10   7    1.47    0.18 
   6  10   7    1.61    0.17 
  -7 -10  -7    3.28    0.27 
   7  10   7    3.40    0.24 
   7  10   7    3.26    0.26 
  -8 -10  -7    1.17    0.20 
   8  10   7    1.16    0.17 
   0 -11  -7    3.02    0.29 
   0  11   7    3.62    0.31 
  -1 -11  -7    3.64    0.30 
   1  11   7    3.52    0.29 
  -2 -11  -7    7.06    0.41 
   2  11   7    6.42    0.40 
  -3 -11  -7    2.96    0.26 
   3  11   7    3.07    0.26 
  -4 -11  -7    2.48    0.23 
   4  11   7    2.59    0.24 
  -5 -11  -7    6.58    0.39 
   5  11   7    5.82    0.37 
  -6 -11  -7   -0.01    0.14 
   6  11   7    0.02    0.13 
  -7 -11  -7    1.06    0.20 
   7  11   7    1.00    0.18 
   7  11   7    1.35    0.18 
  -2 -12  -7    3.49    0.29 
   2  12   7    3.07    0.28 
  -3 -12  -7    0.53    0.18 
   3  12   7    0.32    0.17 
  -4 -12  -7    0.34    0.17 
   4  12   7    0.41    0.17 
  -5 -12  -7    0.48    0.18 
   5  12   7    0.54    0.18 
  -6 -12  -7    1.16    0.21 
   6  12   7    1.00    0.18 
   1  10  -8   18.99    0.80 
  -1 -10   8   18.30    0.78 
   0  10  -8    0.83    0.19 
   4   9  -8    2.74    0.26 
  -4  -9   8    2.39    0.24 
   3   9  -8    5.71    0.36 
  -3  -9   8    5.71    0.35 
   2   9  -8    2.64    0.22 
  -2  -9   8    1.90    0.20 
   1   9  -8    2.49    0.23 
  -1  -9   8    2.73    0.22 
   0   9  -8    7.55    0.38 
   0   9  -8    6.99    0.39 
   0  -9   8    6.49    0.36 
  -1   9  -8    5.31    0.31 
   1  -9   8    4.75    0.32 
  -2   9  -8    3.43    0.26 
   2  -9   8    3.63    0.28 
   5   8  -8    8.69    0.45 
  -5  -8   8    7.76    0.44 
   4   8  -8    1.73    0.21 
  -4  -8   8    1.48    0.20 
   3   8  -8    0.06    0.14 
  -3  -8   8    0.18    0.14 
   2   8  -8    0.32    0.13 
  -2  -8   8    0.44    0.14 
   1   8  -8   17.30    0.72 
   1   8  -8   16.63    0.68 
  -1  -8   8   16.97    0.70 
   0   8  -8    3.51    0.24 
   0   8  -8    3.01    0.23 
   0  -8   8    2.80    0.22 
  -1   8  -8   10.96    0.50 
   1  -8   8   11.15    0.52 
  -2   8  -8    2.12    0.21 
   2  -8   8    2.43    0.22 
  -3   8  -8   23.97    0.95 
   3  -8   8   25.00    1.00 
  -4   8  -8    0.73    0.17 
   4  -8   8    0.79    0.18 
   5   7  -8    0.10    0.15 
  -5  -7   8    0.21    0.15 
   4   7  -8    0.14    0.14 
  -4  -7   8    0.15    0.14 
   3   7  -8    5.33    0.31 
  -3  -7   8    5.42    0.32 
   2   7  -8    0.25    0.12 
   2   7  -8    0.11    0.12 
  -2  -7   8    0.08    0.12 
   1   7  -8   14.20    0.61 
   1   7  -8   14.67    0.58 
  -1  -7   8   13.75    0.59 
   0   7  -8    2.36    0.21 
   0   7  -8    2.68    0.21 
   0  -7   8    2.64    0.21 
  -1   7  -8   28.43    1.10 
  -1   7  -8   27.21    1.05 
   1  -7   8   28.91    1.11 
   1  -7   8   28.47    1.07 
  -2   7  -8   16.22    0.66 
   2  -7   8   15.85    0.69 
  -3   7  -8    8.91    0.43 
   3  -7   8    8.64    0.45 
  -4   7  -8    0.40    0.14 
   4  -7   8    0.56    0.15 
  -5   7  -8    3.08    0.25 
   5  -7   8    3.23    0.27 
   6   6  -8    0.69    0.18 
  -6  -6   8    0.42    0.18 
   5   6  -8    8.93    0.44 
  -5  -6   8    8.16    0.44 
   4   6  -8   19.97    0.81 
   4   6  -8   20.08    0.75 
  -4  -6   8   19.43    0.82 
   3   6  -8    4.70    0.26 
   3   6  -8    4.43    0.28 
  -3  -6   8    4.43    0.28 
   2   6  -8   24.85    0.99 
   2   6  -8   25.91    0.94 
  -2  -6   8   25.85    1.00 
   1   6  -8    4.20    0.25 
   1   6  -8    4.21    0.25 
  -1  -6   8    4.28    0.26 
   0   6  -8   12.75    0.55 
   0   6  -8   12.58    0.53 
   0  -6   8   12.71    0.53 
  -1   6  -8   20.82    0.80 
  -1   6  -8   19.70    0.77 
   1  -6   8   19.51    0.78 
  -2   6  -8    1.31    0.15 
   2  -6   8    1.01    0.15 
  -3   6  -8    0.57    0.13 
   3  -6   8    0.31    0.13 
  -4   6  -8    6.86    0.37 
   4  -6   8    7.20    0.39 
  -5   6  -8   10.38    0.49 
   5  -6   8   11.05    0.52 
  -6   6  -8    1.53    0.19 
   6  -6   8    1.37    0.20 
   6   5  -8    2.15    0.22 
  -6  -5   8    2.12    0.24 
   5   5  -8    1.04    0.17 
   5   5  -8    1.15    0.15 
  -5  -5   8    0.96    0.18 
   4   5  -8    7.83    0.39 
   4   5  -8    7.91    0.35 
  -4  -5   8    7.47    0.40 
   3   5  -8    0.56    0.11 
   3   5  -8    0.66    0.13 
  -3  -5   8    0.65    0.14 
   2   5  -8   40.34    1.48 
   2   5  -8   39.40    1.40 
  -2  -5   8   39.76    1.49 
   1   5  -8   18.10    0.68 
   1   5  -8   17.92    0.71 
  -1  -5   8   17.10    0.71 
   0   5  -8   23.12    0.88 
   0   5  -8   23.13    0.84 
   0  -5   8   21.75    0.87 
  -1   5  -8    6.68    0.33 
  -1   5  -8    7.23    0.33 
   1  -5   8    6.61    0.32 
  -2   5  -8    7.37    0.36 
   2  -5   8    7.28    0.33 
   2  -5   8    8.14    0.38 
  -3   5  -8    0.34    0.12 
   3  -5   8    0.25    0.12 
  -4   5  -8    0.42    0.12 
   4  -5   8    0.37    0.13 
  -5   5  -8    1.30    0.17 
   5  -5   8    1.40    0.18 
  -6   5  -8    2.40    0.22 
  -6   5  -8    2.54    0.23 
   6  -5   8    2.50    0.23 
  -7   5  -8   22.69    0.95 
  -7   5  -8   20.34    0.86 
   7  -5   8   20.68    0.89 
   6   4  -8   17.67    0.71 
   6   4  -8   18.49    0.75 
  -6  -4   8   18.49    0.79 
   5   4  -8    6.09    0.31 
   5   4  -8    5.98    0.34 
  -5  -4   8    6.44    0.37 
   4   4  -8   22.45    0.81 
   4   4  -8   21.10    0.85 
  -4  -4   8   21.14    0.88 
   3   4  -8    6.65    0.31 
   3   4  -8    6.54    0.33 
  -3  -4   8    6.38    0.34 
   2   4  -8    4.87    0.25 
   2   4  -8    5.10    0.27 
  -2  -4   8    4.59    0.27 
   1   4  -8   16.12    0.64 
   1   4  -8   15.26    0.61 
  -1  -4   8   16.77    0.65 
   0   4  -8    1.22    0.13 
   0   4  -8    0.97    0.13 
   0  -4   8    1.08    0.12 
  -1   4  -8    1.23    0.13 
  -1   4  -8    1.19    0.14 
   1  -4   8    1.32    0.13 
   1  -4   8    1.34    0.13 
  -2   4  -8    0.23    0.09 
   2  -4   8    0.14    0.08 
   2  -4   8    0.06    0.08 
  -3   4  -8    1.63    0.16 
   3  -4   8    1.86    0.17 
  -4   4  -8   18.87    0.73 
   4  -4   8   18.36    0.76 
  -5   4  -8   16.00    0.66 
  -5   4  -8   14.14    0.60 
   5  -4   8   13.75    0.63 
  -6   4  -8   28.84    1.15 
  -6   4  -8   26.34    1.03 
   6  -4   8   27.22    1.09 
  -7   4  -8    7.50    0.40 
  -7   4  -8    8.29    0.44 
   7  -4   8    7.40    0.41 
   6   3  -8    8.60    0.41 
  -6  -3   8    8.60    0.46 
   5   3  -8   35.54    1.34 
   5   3  -8   35.40    1.28 
  -5  -3   8   36.96    1.40 
   4   3  -8    2.25    0.18 
   4   3  -8    2.16    0.17 
  -4  -3   8    2.11    0.20 
   3   3  -8   88.44    2.95 
   3   3  -8   86.64    3.09 
  -3  -3   8   86.31    3.16 
   2   3  -8    5.49    0.28 
   2   3  -8    5.62    0.27 
  -2  -3   8    5.20    0.29 
   1   3  -8   20.82    0.75 
   1   3  -8   20.05    0.78 
  -1  -3   8   20.18    0.80 
   0   3  -8    0.24    0.09 
   0   3  -8    0.19    0.08 
   0  -3   8    0.29    0.09 
  -1   3  -8   16.60    0.64 
   1  -3   8   16.73    0.66 
  -2   3  -8    4.16    0.23 
   2  -3   8    3.82    0.21 
   2  -3   8    3.82    0.23 
  -3   3  -8   32.43    1.15 
   3  -3   8   31.26    1.20 
  -4   3  -8   24.39    0.92 
   4  -3   8   25.51    0.98 
  -5   3  -8    8.66    0.42 
  -5   3  -8   10.69    0.46 
   5  -3   8    8.99    0.45 
  -6   3  -8   36.91    1.41 
  -6   3  -8   32.88    1.27 
   6  -3   8   34.63    1.33 
  -7   3  -8   20.23    0.81 
  -7   3  -8   20.99    0.90 
   7  -3   8   20.31    0.85 
  -8   3  -8    3.66    0.28 
  -8   3  -8    4.52    0.32 
   8  -3   8    4.02    0.30 
   6   2  -8    1.56    0.18 
  -6  -2   8    1.55    0.21 
   5   2  -8   40.37    1.45 
  -5  -2   8   41.04    1.56 
   4   2  -8    0.62    0.12 
   4   2  -8    1.37    0.14 
  -4  -2   8    0.78    0.16 
   3   2  -8    5.53    0.27 
   3   2  -8    5.53    0.28 
  -3  -2   8    5.53    0.31 
   2   2  -8    2.19    0.16 
   2   2  -8    1.93    0.16 
  -2  -2   8    1.98    0.17 
   1   2  -8   11.49    0.45 
   1   2  -8   11.08    0.46 
  -1  -2   8   11.39    0.49 
   0   2  -8   16.50    0.64 
   0   2  -8   16.59    0.62 
   0  -2   8   16.27    0.65 
  -1   2  -8   21.94    0.82 
   1  -2   8   23.64    0.87 
   1  -2   8   22.55    0.86 
  -2   2  -8   25.87    0.91 
   2  -2   8   24.58    0.95 
   2  -2   8   24.36    0.93 
  -3   2  -8   85.86    2.98 
  -3   2  -8   90.25    3.33 
   3  -2   8   84.78    3.12 
   3  -2   8   89.99    3.12 
  -4   2  -8    4.77    0.24 
  -4   2  -8    4.40    0.25 
   4  -2   8    4.33    0.26 
  -5   2  -8   78.80    3.05 
  -5   2  -8   79.59    2.72 
   5  -2   8   80.12    2.86 
  -6   2  -8    0.35    0.11 
  -6   2  -8    0.40    0.12 
   6  -2   8    0.40    0.12 
  -7   2  -8    0.32    0.12 
  -7   2  -8    0.30    0.13 
   7  -2   8    0.34    0.13 
  -8   2  -8    1.02    0.18 
  -8   2  -8    0.55    0.15 
   8  -2   8    0.78    0.16 
   6   1  -8   17.36    0.71 
  -6  -1   8   17.78    0.79 
   5   1  -8    4.93    0.29 
  -5  -1   8    5.26    0.33 
   4   1  -8    5.96    0.31 
  -4  -1   8    6.22    0.35 
   3   1  -8    3.05    0.20 
   3   1  -8    3.29    0.21 
  -3  -1   8    3.46    0.24 
   2   1  -8    4.31    0.22 
   2   1  -8    3.70    0.22 
  -2  -1   8    3.88    0.25 
   1   1  -8   47.63    1.77 
   1   1  -8   50.15    1.70 
  -1  -1   8   50.57    1.82 
   0   1  -8   13.02    0.51 
   0  -1   8   12.53    0.53 
  -1   1  -8   57.14    2.04 
   1  -1   8   63.32    2.16 
   1  -1   8   59.75    2.17 
  -2   1  -8    3.43    0.20 
  -2   1  -8    3.43    0.17 
   2  -1   8    3.66    0.20 
   2  -1   8    3.83    0.22 
  -3   1  -8  143.73    5.32 
  -3   1  -8  136.54    4.73 
   3  -1   8  140.52    4.97 
   3  -1   8  144.22    5.00 
  -4   1  -8   13.51    0.56 
  -4   1  -8   13.04    0.53 
   4  -1   8   13.61    0.56 
  -5   1  -8    6.72    0.33 
  -5   1  -8    6.48    0.31 
   5  -1   8    6.67    0.34 
  -6   1  -8    6.06    0.33 
  -6   1  -8    5.38    0.30 
   6  -1   8    6.01    0.32 
  -7   1  -8   10.55    0.48 
  -7   1  -8   10.96    0.53 
   7  -1   8   11.52    0.51 
  -8   1  -8    0.39    0.13 
  -8   1  -8    0.49    0.15 
   8  -1   8    0.25    0.14 
  -9   1  -8    3.17    0.25 
  -9   1  -8    3.36    0.29 
   9  -1   8    3.33    0.27 
   6   0  -8    4.20    0.29 
  -6   0   8    4.79    0.36 
   5   0  -8    0.10    0.12 
  -5   0   8    0.31    0.16 
   4   0  -8   26.03    0.96 
  -4   0   8   26.27    1.06 
   3   0  -8   14.10    0.53 
   3   0  -8   11.48    0.51 
  -3   0   8   13.82    0.58 
   2   0  -8    1.39    0.13 
   2   0  -8    1.17    0.11 
  -2   0   8    1.05    0.14 
   1   0  -8   57.25    1.95 
   1   0  -8   58.20    2.03 
  -1   0   8   55.98    2.09 
   0   0  -8    3.14    0.18 
   0   0   8    2.84    0.19 
   0   0   8    2.93    0.17 
  -1   0  -8  125.25    4.38 
  -1   0  -8  131.75    4.92 
   1   0   8  129.62    4.60 
   1   0   8  137.82    4.67 
  -2   0  -8   47.48    1.66 
  -2   0  -8   50.13    1.84 
   2   0   8   46.42    1.76 
   2   0   8   48.68    1.75 
  -3   0  -8   15.06    0.57 
  -3   0  -8   16.40    0.61 
   3   0   8   15.14    0.61 
   3   0   8   13.58    0.59 
  -4   0  -8    1.11    0.11 
  -4   0  -8    1.14    0.11 
   4   0   8    1.33    0.10 
   4   0   8    1.31    0.14 
  -5   0  -8    0.52    0.10 
  -5   0  -8    0.55    0.10 
   5   0   8    0.70    0.11 
  -6   0  -8    0.13    0.10 
  -6   0  -8    0.18    0.08 
   6   0   8    0.19    0.10 
  -7   0  -8   24.87    1.00 
  -7   0  -8   21.94    0.88 
   7   0   8   23.69    0.94 
  -8   0  -8    3.30    0.26 
  -8   0  -8    3.00    0.23 
   8   0   8    3.08    0.25 
  -9   0  -8   17.03    0.77 
  -9   0  -8   16.51    0.67 
   9   0   8   15.28    0.71 
   6  -1  -8    5.26    0.32 
  -6   1   8    5.05    0.39 
   5  -1  -8    0.60    0.15 
  -5   1   8    0.26    0.16 
   4  -1  -8    4.86    0.27 
  -4   1   8    5.42    0.34 
   3  -1  -8   15.29    0.61 
  -3   1   8   15.87    0.68 
   2  -1  -8    0.56    0.11 
   2  -1  -8    0.64    0.08 
  -2   1   8    0.43    0.13 
   1  -1  -8   63.05    2.14 
  -1   1   8   63.68    2.22 
  -1   1   8   60.86    2.29 
   0  -1  -8   32.15    1.24 
   0  -1  -8   31.97    1.14 
   0   1   8   32.63    1.19 
   0   1   8   33.47    1.24 
  -1  -1  -8    0.26    0.07 
  -1  -1  -8    0.38    0.06 
   1   1   8    0.24    0.09 
   1   1   8    0.40    0.08 
  -2  -1  -8   42.19    1.48 
  -2  -1  -8   45.17    1.64 
   2   1   8   43.25    1.56 
   2   1   8   40.68    1.58 
  -3  -1  -8    2.39    0.16 
  -3  -1  -8    2.38    0.15 
   3   1   8    2.23    0.16 
   3   1   8    2.17    0.16 
  -4  -1  -8   25.45    1.05 
  -4  -1  -8   26.30    0.95 
   4   1   8   27.56    1.01 
   4   1   8   26.63    0.98 
  -5  -1  -8   23.13    0.87 
  -5  -1  -8   24.41    0.97 
   5   1   8   24.24    0.93 
  -6  -1  -8    9.72    0.41 
  -6  -1  -8    9.90    0.46 
   6   1   8    9.32    0.44 
  -7  -1  -8   19.99    0.76 
  -7  -1  -8   20.48    0.87 
   7   1   8   20.00    0.82 
  -8  -1  -8    6.00    0.32 
  -8  -1  -8    6.33    0.37 
   8   1   8    6.13    0.35 
  -9  -1  -8   17.85    0.80 
  -9  -1  -8   17.04    0.69 
   9   1   8   16.54    0.73 
   5  -2  -8    3.10    0.23 
  -5   2   8    2.62    0.26 
   4  -2  -8   16.94    0.67 
  -4   2   8   17.21    0.76 
   3  -2  -8   23.78    0.90 
  -3   2   8   25.30    1.00 
   2  -2  -8   94.98    3.30 
  -2   2   8  100.66    3.55 
   1  -2  -8   50.37    1.95 
   1  -2  -8   52.53    1.76 
  -1   2   8   48.34    1.89 
  -1   2   8   52.31    1.81 
   0  -2  -8   77.07    2.52 
   0  -2  -8   72.80    2.82 
   0   2   8   73.83    2.63 
   0   2   8   74.27    2.71 
  -1  -2  -8    0.36    0.06 
  -1  -2  -8    0.31    0.08 
   1   2   8    0.38    0.08 
   1   2   8    0.79    0.11 
  -2  -2  -8   39.86    1.47 
  -2  -2  -8   38.20    1.32 
   2   2   8   37.71    1.42 
   2   2   8   36.90    1.39 
  -3  -2  -8    9.22    0.40 
  -3  -2  -8   10.04    0.38 
   3   2   8   10.06    0.41 
   3   2   8    8.25    0.40 
  -4  -2  -8    0.79    0.09 
  -4  -2  -8    0.73    0.10 
   4   2   8    0.80    0.11 
   4   2   8    0.73    0.09 
  -5  -2  -8   24.64    0.99 
  -5  -2  -8   23.76    0.88 
   5   2   8   24.58    0.94 
  -6  -2  -8    4.37    0.26 
  -6  -2  -8    3.78    0.21 
   6   2   8    4.07    0.24 
  -7  -2  -8   21.42    0.92 
  -7  -2  -8   22.45    0.81 
   7   2   8   21.84    0.87 
  -8  -2  -8   23.05    0.86 
  -8  -2  -8   23.88    1.00 
   8   2   8   22.83    0.93 
  -9  -2  -8    1.99    0.18 
  -9  -2  -8    2.56    0.25 
   9   2   8    2.11    0.22 
   5  -3  -8    1.30    0.18 
  -5   3   8    0.95    0.21 
   4  -3  -8   57.06    1.93 
  -4   3   8   52.95    2.09 
   3  -3  -8    1.69    0.16 
  -3   3   8    1.94    0.22 
   2  -3  -8   37.27    1.27 
  -2   3   8   36.57    1.41 
  -2   3   8   33.88    1.39 
   1  -3  -8    3.75    0.21 
   1  -3  -8    3.79    0.21 
  -1   3   8    3.78    0.27 
   0  -3  -8    0.34    0.07 
   0  -3  -8    0.14    0.08 
   0   3   8    0.44    0.12 
   0   3   8    0.70    0.08 
  -1  -3  -8    8.99    0.39 
   1   3   8    9.40    0.38 
   1   3   8    8.90    0.42 
  -2  -3  -8    1.75    0.12 
  -2  -3  -8    1.57    0.12 
   2   3   8    1.60    0.15 
   2   3   8    1.52    0.12 
  -3  -3  -8   12.37    0.49 
  -3  -3  -8   10.09    0.44 
   3   3   8   12.28    0.49 
  -4  -3  -8    7.38    0.32 
  -4  -3  -8    7.83    0.36 
   4   3   8    7.69    0.34 
   4   3   8    8.17    0.36 
  -5  -3  -8   19.10    0.71 
  -5  -3  -8   18.86    0.80 
   5   3   8   19.76    0.74 
   5   3   8   19.76    0.76 
  -6  -3  -8   43.81    1.70 
  -6  -3  -8   42.49    1.49 
   6   3   8   43.01    1.59 
  -7  -3  -8    1.81    0.14 
  -7  -3  -8    1.39    0.16 
   7   3   8    1.78    0.17 
  -8  -3  -8   33.68    1.25 
  -8  -3  -8   36.10    1.45 
   8   3   8   36.78    1.36 
  -9  -3  -8   10.60    0.54 
   9   3   8    9.76    0.50 
 -10  -3  -8   17.68    0.81 
  10   3   8   15.64    0.73 
   5  -4  -8    9.87    0.47 
  -5   4   8    9.53    0.55 
   4  -4  -8    8.04    0.38 
  -4   4   8    7.56    0.46 
   3  -4  -8   31.71    1.14 
  -3   4   8   31.77    1.27 
  -3   4   8   30.78    1.26 
   2  -4  -8    0.98    0.13 
  -2   4   8    1.13    0.18 
  -2   4   8    1.21    0.13 
   1  -4  -8    0.22    0.09 
   1  -4  -8    0.19    0.09 
  -1   4   8    0.43    0.14 
   0  -4  -8    1.20    0.12 
   0  -4  -8    1.19    0.11 
   0   4   8    1.34    0.16 
  -1  -4  -8    2.16    0.15 
  -1  -4  -8    1.70    0.14 
   1   4   8    1.88    0.18 
   1   4   8    1.78    0.12 
  -2  -4  -8   26.87    0.92 
  -2  -4  -8   25.93    1.02 
   2   4   8   25.10    1.00 
   2   4   8   25.15    0.95 
  -3  -4  -8    0.92    0.11 
  -3  -4  -8    1.10    0.10 
   3   4   8    0.89    0.12 
   3   4   8    0.97    0.10 
  -4  -4  -8   92.93    3.43 
  -4  -4  -8   89.48    3.02 
   4   4   8   89.64    3.22 
   4   4   8   87.73    3.18 
  -5  -4  -8    1.41    0.14 
  -5  -4  -8    1.32    0.11 
   5   4   8    1.49    0.13 
   5   4   8    1.33    0.14 
  -6  -4  -8   31.34    1.20 
  -6  -4  -8   28.24    1.03 
   6   4   8   28.57    1.11 
  -7  -4  -8    1.50    0.18 
  -7  -4  -8    1.83    0.14 
   7   4   8    1.75    0.17 
  -8  -4  -8   19.01    0.82 
   8   4   8   17.71    0.76 
  -9  -4  -8    6.09    0.38 
   9   4   8    5.40    0.34 
 -10  -4  -8    0.22    0.18 
  10   4   8    0.23    0.16 
   4  -5  -8    0.28    0.14 
  -4   5   8    0.37    0.20 
  -4   5   8    0.23    0.13 
   3  -5  -8   10.95    0.47 
  -3   5   8   10.15    0.55 
  -3   5   8   10.83    0.52 
   2  -5  -8    0.00    0.10 
  -2   5   8    0.14    0.15 
  -2   5   8    0.16    0.11 
   1  -5  -8   15.61    0.61 
   1  -5  -8   16.30    0.69 
  -1   5   8   16.23    0.71 
   0  -5  -8    3.58    0.20 
   0  -5  -8    3.51    0.22 
   0   5   8    3.65    0.27 
  -1  -5  -8    9.55    0.43 
  -1  -5  -8    9.61    0.39 
   1   5   8    9.81    0.47 
  -2  -5  -8   12.42    0.46 
  -2  -5  -8   11.98    0.52 
   2   5   8   11.93    0.53 
   2   5   8   11.28    0.47 
  -3  -5  -8    9.67    0.42 
  -3  -5  -8    8.24    0.37 
   3   5   8    9.66    0.39 
   3   5   8   10.00    0.44 
  -4  -5  -8   29.00    1.04 
  -4  -5  -8   30.10    1.19 
   4   5   8   29.93    1.13 
   4   5   8   30.45    1.11 
  -5  -5  -8    0.23    0.10 
  -5  -5  -8    0.24    0.07 
   5   5   8    0.36    0.10 
   5   5   8    0.31    0.09 
  -6  -5  -8    0.26    0.12 
  -6  -5  -8    0.38    0.08 
   6   5   8    0.27    0.10 
   6   5   8    0.27    0.09 
  -7  -5  -8   15.42    0.69 
   7   5   8   15.09    0.64 
  -8  -5  -8    0.24    0.15 
   8   5   8    0.20    0.12 
  -9  -5  -8    0.63    0.18 
 -10  -5  -8    3.06    0.30 
  10   5   8    2.75    0.26 
   4  -6  -8    1.72    0.20 
  -4   6   8    1.68    0.27 
  -4   6   8    1.86    0.23 
   3  -6  -8    3.47    0.25 
  -3   6   8    3.51    0.27 
  -3   6   8    2.60    0.30 
   2  -6  -8    0.97    0.13 
  -2   6   8    0.90    0.15 
  -2   6   8    0.87    0.20 
   1  -6  -8   10.64    0.45 
   1  -6  -8   10.60    0.50 
  -1   6   8   11.12    0.55 
   0  -6  -8    0.16    0.09 
   0  -6  -8    0.26    0.09 
   0   6   8    0.13    0.13 
  -1  -6  -8   20.07    0.74 
  -1  -6  -8   19.87    0.83 
   1   6   8   20.47    0.84 
  -2  -6  -8    5.44    0.25 
  -2  -6  -8    5.76    0.30 
   2   6   8    4.93    0.31 
  -3  -6  -8   23.38    0.90 
  -3  -6  -8   20.99    0.78 
   3   6   8   20.60    0.81 
   3   6   8   22.11    0.87 
  -4  -6  -8    0.22    0.07 
  -4  -6  -8    0.15    0.09 
   4   6   8    0.04    0.09 
   4   6   8    0.19    0.08 
  -5  -6  -8   32.52    1.28 
   5   6   8   30.93    1.20 
   5   6   8   31.53    1.18 
  -6  -6  -8   16.32    0.69 
   6   6   8   14.54    0.63 
   6   6   8   15.67    0.64 
  -7  -6  -8    4.28    0.29 
   7   6   8    3.95    0.26 
  -8  -6  -8    6.33    0.39 
   8   6   8    5.99    0.35 
  -9  -6  -8    0.63    0.18 
   9   6   8    0.20    0.14 
 -10  -6  -8   17.19    0.80 
  10   6   8   15.47    0.72 
   3  -7  -8    5.65    0.32 
  -3   7   8    5.32    0.36 
  -3   7   8    5.34    0.40 
   2  -7  -8    3.09    0.25 
   2  -7  -8    2.95    0.23 
  -2   7   8    3.17    0.29 
   1  -7  -8   25.23    1.03 
   1  -7  -8   23.38    0.90 
  -1   7   8   24.92    1.03 
   0  -7  -8    6.10    0.30 
   0  -7  -8    6.19    0.34 
   0   7   8    6.10    0.37 
  -1  -7  -8   28.80    1.02 
  -1  -7  -8   28.26    1.16 
   1   7   8   28.30    1.14 
  -2  -7  -8    5.26    0.25 
  -2  -7  -8    5.98    0.31 
   2   7   8    4.82    0.31 
  -3  -7  -8   26.66    0.93 
  -3  -7  -8   25.78    1.07 
   3   7   8   26.01    1.04 
  -4  -7  -8    1.75    0.16 
   4   7   8    1.33    0.16 
   4   7   8    1.66    0.14 
  -5  -7  -8   20.18    0.82 
   5   7   8   18.67    0.75 
   5   7   8   18.24    0.77 
  -6  -7  -8    0.38    0.13 
   6   7   8    0.23    0.10 
   6   7   8    0.36    0.11 
  -7  -7  -8    2.91    0.25 
   7   7   8    2.92    0.22 
  -8  -7  -8    0.07    0.15 
   8   7   8    0.15    0.12 
  -9  -7  -8    8.17    0.47 
   9   7   8    7.75    0.43 
   2  -8  -8    5.45    0.32 
   2  -8  -8    5.69    0.37 
  -2   8   8    5.71    0.39 
   1  -8  -8    4.15    0.29 
   1  -8  -8    3.84    0.24 
  -1   8   8    3.55    0.30 
   0  -8  -8    1.05    0.13 
   0  -8  -8    0.99    0.15 
   0   8   8    1.03    0.19 
  -1  -8  -8   15.92    0.60 
  -1  -8  -8   15.80    0.69 
   1   8   8   14.90    0.69 
  -2  -8  -8    7.64    0.37 
  -2  -8  -8    6.55    0.31 
   2   8   8    5.97    0.37 
  -3  -8  -8    0.06    0.10 
   3   8   8    0.06    0.12 
  -4  -8  -8   17.34    0.73 
   4   8   8   15.35    0.69 
  -5  -8  -8   14.97    0.65 
   5   8   8   14.44    0.59 
   5   8   8   13.59    0.61 
  -6  -8  -8    6.48    0.36 
   6   8   8    6.38    0.33 
   6   8   8    5.98    0.33 
  -7  -8  -8    8.30    0.44 
   7   8   8    7.67    0.39 
   7   8   8    7.39    0.38 
  -8  -8  -8    3.99    0.31 
   8   8   8    3.90    0.27 
  -9  -8  -8   12.95    0.66 
   9   8   8   13.06    0.60 
   1  -9  -8    0.10    0.12 
   1  -9  -8    0.16    0.15 
  -1   9   8    0.65    0.20 
   0  -9  -8   18.32    0.68 
   0  -9  -8   17.44    0.79 
   0   9   8   16.95    0.79 
  -1  -9  -8    0.11    0.11 
  -1  -9  -8    0.22    0.10 
   1   9   8    0.17    0.15 
  -2  -9  -8   14.98    0.65 
   2   9   8   13.08    0.64 
  -3  -9  -8    3.62    0.26 
   3   9   8    3.76    0.28 
  -4  -9  -8    0.44    0.14 
   4   9   8    0.04    0.12 
  -5  -9  -8    2.44    0.22 
   5   9   8    2.12    0.20 
  -6  -9  -8    0.96    0.17 
   6   9   8    0.84    0.15 
   6   9   8    0.77    0.13 
  -7  -9  -8    6.94    0.40 
   7   9   8    6.64    0.35 
   7   9   8    5.86    0.35 
  -8  -9  -8    6.34    0.40 
   8   9   8    6.65    0.36 
  -9  -9  -8    4.08    0.35 
   9   9   8    3.74    0.29 
   0 -10  -8    5.51    0.36 
   0  10   8    5.28    0.39 
  -1 -10  -8    0.80    0.16 
   1  10   8    0.83    0.19 
  -2 -10  -8    0.12    0.12 
   2  10   8    0.05    0.15 
  -3 -10  -8    7.65    0.41 
   3  10   8    7.06    0.42 
  -4 -10  -8    3.64    0.28 
   4  10   8    2.80    0.25 
  -5 -10  -8    0.07    0.14 
   5  10   8    0.13    0.14 
  -6 -10  -8   10.86    0.53 
   6  10   8    9.10    0.48 
  -7 -10  -8    0.66    0.17 
   7  10   8    0.77    0.16 
   7  10   8    0.84    0.15 
  -8 -10  -8    1.09    0.22 
   8  10   8    0.94    0.17 
  -1 -11  -8    3.44    0.28 
   1  11   8    2.89    0.29 
  -2 -11  -8    5.09    0.35 
   2  11   8    4.42    0.35 
  -3 -11  -8    0.46    0.16 
   3  11   8    0.40    0.17 
  -4 -11  -8    2.64    0.24 
   4  11   8    2.92    0.26 
  -5 -11  -8    1.85    0.21 
   5  11   8    1.92    0.21 
  -6 -11  -8   15.17    0.70 
   6  11   8   13.29    0.64 
  -7 -11  -8    0.08    0.15 
   7  11   8    0.06    0.15 
   2   9  -9    0.58    0.18 
  -2  -9   9    0.33    0.16 
   1   9  -9    6.94    0.40 
  -1  -9   9    7.23    0.39 
   0   9  -9    0.91    0.17 
   0   9  -9    0.77    0.18 
   0  -9   9    0.76    0.17 
  -1   9  -9    1.82    0.21 
   1  -9   9    1.41    0.20 
   3   8  -9    5.87    0.37 
  -3  -8   9    5.97    0.36 
   2   8  -9   14.73    0.65 
  -2  -8   9   15.04    0.65 
   1   8  -9    0.50    0.14 
   1   8  -9    0.41    0.15 
  -1  -8   9    0.40    0.15 
   0   8  -9   16.53    0.68 
   0   8  -9   15.94    0.69 
   0  -8   9   16.26    0.68 
  -1   8  -9    1.06    0.17 
   1  -8   9    1.03    0.16 
  -2   8  -9    0.56    0.16 
   2  -8   9    0.32    0.15 
  -3   8  -9    8.32    0.45 
   3  -8   9    9.18    0.48 
   4   7  -9   14.87    0.65 
  -4  -7   9   14.09    0.65 
   3   7  -9   14.74    0.65 
  -3  -7   9   14.82    0.65 
   2   7  -9    7.12    0.35 
   2   7  -9    6.13    0.36 
  -2  -7   9    6.36    0.35 
   1   7  -9    0.99    0.16 
   1   7  -9    0.70    0.14 
  -1  -7   9    0.78    0.15 
   0   7  -9    1.29    0.17 
   0   7  -9    1.22    0.17 
   0  -7   9    1.27    0.16 
  -1   7  -9    0.75    0.15 
   1  -7   9    0.93    0.14 
   1  -7   9    0.51    0.14 
  -2   7  -9    1.96    0.20 
   2  -7   9    1.59    0.19 
  -3   7  -9   22.96    0.90 
   3  -7   9   22.11    0.93 
  -4   7  -9    0.61    0.16 
   4  -7   9    0.23    0.16 
   5   6  -9    1.66    0.21 
  -5  -6   9    1.83    0.24 
   4   6  -9   11.26    0.52 
  -4  -6   9   10.62    0.52 
   3   6  -9    5.54    0.30 
   3   6  -9    5.54    0.33 
  -3  -6   9    5.43    0.34 
   2   6  -9    2.20    0.20 
   2   6  -9    2.11    0.18 
  -2  -6   9    2.27    0.20 
   1   6  -9    0.06    0.11 
   1   6  -9    0.06    0.11 
  -1  -6   9   -0.06    0.11 
   0   6  -9    7.64    0.37 
   0   6  -9    7.78    0.38 
   0  -6   9    7.17    0.36 
  -1   6  -9   21.42    0.84 
   1  -6   9   21.31    0.84 
   1  -6   9   21.93    0.87 
  -2   6  -9   29.46    1.10 
   2  -6   9   29.59    1.15 
  -3   6  -9   10.40    0.48 
   3  -6   9   10.33    0.50 
  -4   6  -9   37.11    1.33 
   4  -6   9   34.02    1.37 
  -5   6  -9    3.57    0.27 
   5  -6   9    3.46    0.28 
   5   5  -9   25.16    1.00 
  -5  -5   9   24.64    1.03 
   4   5  -9    5.27    0.32 
   4   5  -9    5.08    0.27 
  -4  -5   9    4.91    0.33 
   3   5  -9    0.10    0.11 
   3   5  -9   -0.01    0.12 
  -3  -5   9    0.16    0.14 
   2   5  -9    0.37    0.12 
   2   5  -9    0.75    0.14 
  -2  -5   9    0.58    0.14 
   1   5  -9   10.53    0.46 
   1   5  -9   10.74    0.48 
  -1  -5   9   10.90    0.48 
   0   5  -9   28.93    1.09 
   0   5  -9   30.82    1.14 
   0  -5   9   30.12    1.14 
  -1   5  -9    1.64    0.17 
   1  -5   9    1.54    0.16 
   1  -5   9    1.38    0.15 
  -2   5  -9   26.54    1.00 
   2  -5   9   26.31    1.04 
  -3   5  -9   11.64    0.51 
   3  -5   9   11.60    0.53 
  -4   5  -9    7.27    0.37 
   4  -5   9    6.68    0.38 
  -5   5  -9    0.88    0.15 
   5  -5   9    0.74    0.16 
  -6   5  -9    2.81    0.24 
   6  -5   9    2.76    0.26 
   5   4  -9    2.57    0.22 
   5   4  -9    2.17    0.19 
  -5  -4   9    2.56    0.24 
   4   4  -9    0.89    0.16 
   4   4  -9    0.79    0.13 
  -4  -4   9    0.91    0.17 
   3   4  -9    4.05    0.24 
   3   4  -9    3.86    0.26 
  -3  -4   9    4.27    0.28 
   2   4  -9    7.33    0.37 
   2   4  -9    8.73    0.37 
  -2  -4   9    7.75    0.39 
   1   4  -9   51.77    1.76 
   1   4  -9   50.51    1.84 
  -1  -4   9   49.22    1.86 
   0   4  -9    0.20    0.10 
   0   4  -9    0.30    0.11 
   0  -4   9    0.15    0.11 
  -1   4  -9   18.18    0.71 
   1  -4   9   17.79    0.72 
   1  -4   9   18.78    0.74 
  -2   4  -9   19.77    0.77 
   2  -4   9   19.25    0.79 
   2  -4   9   20.44    0.77 
  -3   4  -9    0.92    0.14 
   3  -4   9    0.77    0.15 
  -4   4  -9    0.12    0.11 
   4  -4   9    0.23    0.12 
  -5   4  -9    4.73    0.29 
   5  -4   9    4.18    0.30 
  -6   4  -9    5.98    0.35 
   6  -4   9    6.23    0.37 
  -7   4  -9    1.77    0.21 
   7  -4   9    1.82    0.22 
   5   3  -9   10.40    0.47 
  -5  -3   9   11.08    0.54 
   4   3  -9    2.28    0.19 
   4   3  -9    2.55    0.21 
  -4  -3   9    2.55    0.23 
   3   3  -9   45.52    1.68 
   3   3  -9   46.49    1.60 
  -3  -3   9   44.89    1.72 
   2   3  -9    5.97    0.29 
   2   3  -9    6.02    0.30 
  -2  -3   9    5.56    0.32 
   1   3  -9   29.15    1.10 
   1   3  -9   29.61    1.06 
  -1  -3   9   29.49    1.13 
   0   3  -9    6.64    0.31 
   0   3  -9    6.82    0.33 
   0  -3   9    6.66    0.34 
  -1   3  -9   48.89    1.70 
   1  -3   9   47.71    1.78 
   1  -3   9   49.58    1.78 
  -2   3  -9    6.35    0.32 
   2  -3   9    7.25    0.32 
   2  -3   9    6.71    0.34 
  -3   3  -9   16.70    0.67 
   3  -3   9   17.27    0.71 
  -4   3  -9    0.10    0.09 
   4  -3   9    0.03    0.11 
  -5   3  -9    2.20    0.20 
   5  -3   9    2.67    0.22 
  -6   3  -9    1.47    0.17 
  -6   3  -9    1.11    0.17 
   6  -3   9    1.27    0.18 
  -7   3  -9    8.92    0.45 
  -7   3  -9    7.97    0.42 
   7  -3   9    8.11    0.45 
   5   2  -9   27.36    1.01 
  -5  -2   9   26.52    1.09 
   4   2  -9   10.93    0.46 
   4   2  -9   10.57    0.47 
  -4  -2   9   10.64    0.52 
   3   2  -9   39.41    1.42 
   3   2  -9   40.49    1.49 
  -3  -2   9   41.13    1.53 
   2   2  -9    0.46    0.11 
   2   2  -9    0.45    0.11 
  -2  -2   9    0.45    0.13 
   1   2  -9   16.15    0.64 
   1   2  -9   16.42    0.62 
  -1  -2   9   16.00    0.67 
   0   2  -9   16.15    0.61 
   0   2  -9   16.20    0.63 
   0  -2   9   14.96    0.64 
  -1   2  -9    0.67    0.11 
   1  -2   9    0.95    0.11 
   1  -2   9    0.90    0.12 
  -2   2  -9    0.64    0.11 
   2  -2   9    0.52    0.11 
   2  -2   9    0.60    0.10 
  -3   2  -9    7.22    0.35 
   3  -2   9    7.42    0.36 
   3  -2   9    7.23    0.33 
  -4   2  -9    3.66    0.23 
   4  -2   9    3.72    0.25 
  -5   2  -9   18.99    0.76 
  -5   2  -9   20.78    0.82 
   5  -2   9   19.23    0.80 
  -6   2  -9    3.76    0.25 
  -6   2  -9    3.26    0.23 
   6  -2   9    3.33    0.26 
  -7   2  -9    6.21    0.35 
  -7   2  -9    5.51    0.33 
   7  -2   9    5.63    0.35 
  -8   2  -9    7.32    0.40 
  -8   2  -9    7.84    0.43 
   8  -2   9    7.27    0.42 
   5   1  -9   17.22    0.69 
  -5  -1   9   16.62    0.75 
   4   1  -9   17.79    0.70 
  -4  -1   9   17.95    0.77 
   3   1  -9    3.45    0.21 
   3   1  -9    2.74    0.20 
  -3  -1   9    3.33    0.25 
   2   1  -9   43.68    1.52 
   2   1  -9   43.20    1.58 
  -2  -1   9   43.98    1.63 
   1   1  -9   11.12    0.48 
   1   1  -9   11.74    0.47 
  -1  -1   9   11.99    0.51 
   0   1  -9   41.64    1.44 
   0  -1   9   39.57    1.52 
   0  -1   9   42.42    1.51 
  -1   1  -9   29.65    1.07 
   1  -1   9   30.51    1.13 
   1  -1   9   30.37    1.14 
  -2   1  -9   12.77    0.51 
   2  -1   9   13.60    0.54 
   2  -1   9   11.70    0.52 
  -3   1  -9   43.56    1.52 
   3  -1   9   42.48    1.58 
   3  -1   9   43.57    1.60 
  -4   1  -9   33.55    1.23 
  -4   1  -9   35.17    1.34 
   4  -1   9   33.78    1.29 
  -5   1  -9    9.24    0.41 
  -5   1  -9    9.59    0.43 
   5  -1   9    8.96    0.44 
  -6   1  -9   14.39    0.61 
  -6   1  -9   13.31    0.57 
   6  -1   9   13.56    0.61 
  -7   1  -9   64.03    2.39 
  -7   1  -9   58.63    2.13 
   7  -1   9   60.09    2.25 
  -8   1  -9   11.16    0.51 
  -8   1  -9   11.81    0.57 
   8  -1   9   10.79    0.54 
   5   0  -9    3.98    0.28 
  -5   0   9    3.63    0.30 
   4   0  -9   25.72    0.98 
  -4   0   9   26.76    1.08 
   3   0  -9    0.44    0.12 
  -3   0   9    0.40    0.15 
   2   0  -9   31.92    1.16 
   2   0  -9   32.22    1.19 
  -2   0   9   33.51    1.26 
   1   0  -9   33.27    1.18 
   1   0  -9   33.58    1.22 
  -1   0   9   33.13    1.27 
   0   0  -9    6.40    0.29 
   0   0   9    6.68    0.34 
   0   0   9    6.60    0.31 
  -1   0  -9   13.64    0.54 
   1   0   9   14.24    0.58 
   1   0   9   14.03    0.56 
  -2   0  -9    5.85    0.28 
   2   0   9    5.71    0.30 
   2   0   9    6.75    0.31 
  -3   0  -9    8.75    0.36 
  -3   0  -9    8.28    0.37 
   3   0   9    7.99    0.38 
   3   0   9    8.12    0.38 
  -4   0  -9    7.83    0.36 
  -4   0  -9    8.48    0.37 
   4   0   9    7.97    0.39 
  -5   0  -9    6.96    0.34 
  -5   0  -9    7.41    0.35 
   5   0   9    6.62    0.36 
  -6   0  -9   75.93    2.82 
  -6   0  -9   70.95    2.51 
   6   0   9   72.08    2.65 
  -7   0  -9    0.14    0.12 
  -7   0  -9    0.22    0.11 
   7   0   9    0.20    0.13 
  -8   0  -9    2.79    0.24 
  -8   0  -9    2.32    0.21 
   8   0   9    2.57    0.23 
  -9   0  -9    0.27    0.14 
  -9   0  -9    0.42    0.17 
   9   0   9    0.53    0.17 
   5  -1  -9    9.44    0.46 
  -5   1   9   10.12    0.54 
   4  -1  -9   20.35    0.80 
  -4   1   9   20.64    0.88 
   3  -1  -9    0.95    0.14 
  -3   1   9    0.51    0.16 
   2  -1  -9    8.26    0.37 
  -2   1   9    8.15    0.42 
   1  -1  -9    0.81    0.11 
  -1   1   9    0.75    0.15 
  -1   1   9    1.01    0.10 
   0  -1  -9    4.23    0.22 
   0   1   9    4.14    0.26 
   0   1   9    3.85    0.21 
  -1  -1  -9    8.89    0.37 
   1   1   9    9.02    0.39 
   1   1   9    9.15    0.42 
  -2  -1  -9   31.18    1.20 
  -2  -1  -9   32.39    1.11 
   2   1   9   29.74    1.18 
   2   1   9   30.99    1.16 
  -3  -1  -9    5.26    0.26 
  -3  -1  -9    5.48    0.26 
   3   1   9    5.19    0.28 
   3   1   9    5.17    0.28 
  -4  -1  -9  139.93    5.27 
  -4  -1  -9  138.07    4.67 
   4   1   9  139.43    4.95 
   4   1   9  140.72    4.92 
  -5  -1  -9    7.98    0.35 
  -5  -1  -9    7.52    0.36 
   5   1   9    6.90    0.36 
  -6  -1  -9    9.17    0.42 
  -6  -1  -9   10.26    0.47 
   6   1   9    9.71    0.46 
  -7  -1  -9    0.42    0.11 
  -7  -1  -9    0.55    0.13 
   7   1   9    0.47    0.14 
  -8  -1  -9    8.88    0.46 
  -8  -1  -9    8.48    0.40 
   8   1   9    8.57    0.44 
  -9  -1  -9    1.15    0.17 
  -9  -1  -9    1.77    0.22 
   9   1   9    1.43    0.20 
   5  -2  -9    0.21    0.15 
  -5   2   9    0.46    0.19 
   4  -2  -9    3.77    0.26 
  -4   2   9    3.75    0.31 
   3  -2  -9    0.63    0.14 
  -3   2   9    0.34    0.16 
   2  -2  -9   33.35    1.19 
  -2   2   9   32.94    1.30 
   1  -2  -9    9.83    0.42 
  -1   2   9   10.59    0.50 
   0  -2  -9   46.79    1.60 
   0   2   9   46.48    1.74 
   0   2   9   45.49    1.66 
  -1  -2  -9    4.35    0.22 
  -1  -2  -9    5.14    0.23 
   1   2   9    4.20    0.23 
   1   2   9    4.67    0.28 
  -2  -2  -9   82.64    2.98 
  -2  -2  -9   79.78    2.66 
   2   2   9   75.86    2.85 
   2   2   9   76.11    2.79 
  -3  -2  -9   32.66    1.17 
  -3  -2  -9   34.95    1.30 
   3   2   9   33.02    1.26 
   3   2   9   32.65    1.24 
  -4  -2  -9   32.62    1.14 
  -4  -2  -9   32.39    1.27 
   4   2   9   32.63    1.22 
   4   2   9   31.46    1.21 
  -5  -2  -9    0.12    0.08 
  -5  -2  -9    0.15    0.09 
   5   2   9    0.04    0.08 
  -6  -2  -9    6.93    0.36 
  -6  -2  -9    6.50    0.32 
   6   2   9    6.99    0.35 
  -7  -2  -9    0.43    0.13 
  -7  -2  -9    0.39    0.11 
   7   2   9    0.26    0.12 
  -8  -2  -9    5.71    0.34 
  -8  -2  -9    4.83    0.28 
   8   2   9    4.96    0.32 
  -9  -2  -9    0.05    0.12 
  -9  -2  -9   -0.08    0.15 
   9   2   9    0.12    0.14 
   4  -3  -9    2.25    0.21 
  -4   3   9    2.51    0.27 
   3  -3  -9    0.02    0.10 
  -3   3   9   -0.02    0.16 
   2  -3  -9    1.17    0.14 
  -2   3   9    0.99    0.18 
   1  -3  -9    0.46    0.11 
  -1   3   9    0.55    0.15 
   0  -3  -9   62.13    2.36 
   0  -3  -9   63.95    2.12 
   0   3   9   59.28    2.29 
  -1  -3  -9   11.88    0.46 
  -1  -3  -9   11.74    0.48 
   1   3   9   11.21    0.47 
   1   3   9   11.11    0.52 
  -2  -3  -9   10.80    0.45 
  -2  -3  -9   10.72    0.42 
   2   3   9   10.67    0.48 
   2   3   9   10.13    0.44 
  -3  -3  -9   17.02    0.70 
  -3  -3  -9   17.09    0.64 
   3   3   9   16.92    0.70 
   3   3   9   17.82    0.68 
  -4  -3  -9    9.89    0.41 
  -4  -3  -9   10.55    0.45 
   4   3   9   10.02    0.44 
   4   3   9    9.42    0.44 
  -5  -3  -9    9.16    0.39 
  -5  -3  -9    9.83    0.44 
   5   3   9    9.17    0.43 
  -6  -3  -9    8.50    0.41 
  -6  -3  -9    7.98    0.36 
   6   3   9    7.96    0.39 
  -7  -3  -9   16.35    0.70 
  -7  -3  -9   14.78    0.60 
   7   3   9   15.85    0.67 
  -8  -3  -9   26.25    1.01 
  -8  -3  -9   29.26    1.17 
   8   3   9   27.91    1.10 
  -9  -3  -9    2.16    0.24 
   9   3   9    2.19    0.23 
   4  -4  -9    0.77    0.15 
  -4   4   9    0.87    0.23 
   3  -4  -9    7.75    0.39 
  -3   4   9    8.20    0.47 
   2  -4  -9   16.01    0.62 
  -2   4   9   15.19    0.72 
   1  -4  -9   70.39    2.39 
   1  -4  -9   72.29    2.68 
  -1   4   9   66.15    2.59 
   0  -4  -9   39.33    1.51 
   0  -4  -9   38.70    1.36 
   0   4   9   37.97    1.49 
  -1  -4  -9   21.25    0.89 
  -1  -4  -9   23.37    0.82 
   1   4   9   22.49    0.92 
  -2  -4  -9    4.73    0.23 
  -2  -4  -9    4.21    0.24 
   2   4   9    5.09    0.30 
   2   4   9    4.81    0.24 
  -3  -4  -9    7.29    0.33 
  -3  -4  -9    6.95    0.30 
   3   4   9    7.08    0.32 
   3   4   9    6.07    0.34 
  -4  -4  -9   24.23    0.92 
  -4  -4  -9   26.55    1.04 
   4   4   9   26.42    0.98 
  -5  -4  -9    1.93    0.16 
  -5  -4  -9    1.88    0.15 
   5   4   9    1.61    0.15 
   5   4   9    1.92    0.17 
  -6  -4  -9   65.37    2.47 
  -6  -4  -9   61.07    2.17 
   6   4   9   64.23    2.31 
  -7  -4  -9    6.75    0.36 
  -7  -4  -9    6.07    0.30 
   7   4   9    5.96    0.35 
  -8  -4  -9   15.38    0.69 
   8   4   9   14.22    0.64 
  -9  -4  -9   16.62    0.78 
   9   4   9   16.97    0.74 
   4  -5  -9    5.51    0.32 
  -4   5   9    4.99    0.42 
   3  -5  -9   39.29    1.39 
  -3   5   9   37.14    1.53 
   2  -5  -9    1.08    0.15 
   2  -5  -9    0.90    0.15 
  -2   5   9    1.01    0.20 
   1  -5  -9   12.39    0.53 
   1  -5  -9   11.37    0.48 
  -1   5   9   10.74    0.57 
   0  -5  -9    5.89    0.29 
   0  -5  -9    6.10    0.30 
   0   5   9    5.45    0.36 
  -1  -5  -9   12.85    0.55 
  -1  -5  -9   12.84    0.50 
   1   5   9   12.52    0.59 
  -2  -5  -9    1.21    0.12 
  -2  -5  -9    1.41    0.13 
   2   5   9    1.11    0.16 
  -3  -5  -9    1.59    0.14 
  -3  -5  -9    1.35    0.12 
   3   5   9    1.54    0.17 
   3   5   9    1.37    0.13 
  -4  -5  -9    1.40    0.14 
  -4  -5  -9    1.94    0.14 
   4   5   9    1.31    0.15 
   4   5   9    1.51    0.14 
  -5  -5  -9    4.76    0.28 
  -5  -5  -9    4.84    0.23 
   5   5   9    4.37    0.26 
   5   5   9    4.42    0.26 
  -6  -5  -9   12.85    0.58 
  -6  -5  -9   12.11    0.49 
   6   5   9   12.87    0.55 
  -7  -5  -9    5.80    0.34 
   7   5   9    5.73    0.33 
  -8  -5  -9    3.15    0.27 
   8   5   9    3.26    0.25 
  -9  -5  -9   13.20    0.65 
   9   5   9   12.83    0.60 
   3  -6  -9    4.71    0.30 
  -3   6   9    4.62    0.38 
   2  -6  -9   23.72    0.92 
   2  -6  -9   24.89    1.03 
  -2   6   9   24.60    1.06 
   1  -6  -9    2.49    0.21 
   1  -6  -9    2.55    0.20 
  -1   6   9    2.28    0.26 
   0  -6  -9    0.95    0.13 
   0  -6  -9    0.83    0.13 
   0   6   9    0.81    0.18 
  -1  -6  -9    2.82    0.19 
  -1  -6  -9    3.11    0.22 
   1   6   9    2.85    0.25 
  -2  -6  -9    4.55    0.26 
  -2  -6  -9    4.44    0.23 
   2   6   9    3.95    0.29 
  -3  -6  -9    5.14    0.28 
  -3  -6  -9    4.87    0.24 
   3   6   9    5.50    0.31 
   3   6   9    4.70    0.25 
  -4  -6  -9   11.52    0.47 
  -4  -6  -9   12.57    0.54 
   4   6   9   12.50    0.51 
   4   6   9   11.62    0.54 
  -5  -6  -9   62.88    2.29 
   5   6   9   56.72    2.15 
   5   6   9   55.98    2.12 
  -6  -6  -9    0.80    0.15 
   6   6   9    0.73    0.12 
   6   6   9    0.54    0.13 
  -7  -6  -9   15.98    0.70 
   7   6   9   14.49    0.65 
  -8  -6  -9    0.71    0.18 
   8   6   9    1.23    0.18 
  -9  -6  -9    6.49    0.41 
   9   6   9    6.14    0.38 
   2  -7  -9    3.63    0.26 
   2  -7  -9    3.74    0.28 
  -2   7   9    4.26    0.35 
   1  -7  -9    0.02    0.11 
   1  -7  -9    0.13    0.12 
  -1   7   9    0.02    0.16 
   0  -7  -9    0.93    0.14 
   0  -7  -9    0.98    0.13 
   0   7   9    0.89    0.20 
  -1  -7  -9    2.35    0.20 
  -1  -7  -9    2.40    0.18 
   1   7   9    1.83    0.22 
  -2  -7  -9    0.29    0.11 
  -2  -7  -9    0.42    0.10 
   2   7   9    0.23    0.14 
  -3  -7  -9   11.13    0.44 
  -3  -7  -9   11.48    0.51 
   3   7   9   10.00    0.51 
  -4  -7  -9    3.49    0.24 
   4   7   9    3.30    0.25 
   4   7   9    3.48    0.21 
  -5  -7  -9   10.63    0.49 
   5   7   9    9.86    0.45 
   5   7   9    9.89    0.48 
  -6  -7  -9    3.36    0.26 
   6   7   9    3.37    0.24 
   6   7   9    3.34    0.23 
  -7  -7  -9    3.26    0.27 
   7   7   9    3.23    0.24 
  -8  -7  -9    2.45    0.24 
   8   7   9    2.46    0.23 
  -9  -7  -9    0.56    0.18 
   9   7   9    0.47    0.16 
   2  -8  -9    0.72    0.16 
   1  -8  -9    0.31    0.13 
   1  -8  -9    0.02    0.13 
  -1   8   9    0.19    0.19 
   0  -8  -9    1.22    0.17 
   0  -8  -9    1.39    0.15 
   0   8   9    1.41    0.22 
  -1  -8  -9    3.18    0.24 
  -1  -8  -9    3.13    0.21 
   1   8   9    2.99    0.27 
  -2  -8  -9   11.85    0.53 
  -2  -8  -9   11.41    0.46 
   2   8   9   10.70    0.55 
  -3  -8  -9    0.29    0.12 
   3   8   9    0.21    0.14 
  -4  -8  -9   19.71    0.83 
   4   8   9   18.64    0.81 
  -5  -8  -9    1.35    0.17 
   5   8   9    1.32    0.17 
   5   8   9    1.33    0.15 
  -6  -8  -9   10.09    0.49 
   6   8   9    8.78    0.46 
   6   8   9    9.98    0.45 
  -7  -8  -9    0.14    0.15 
   7   8   9    0.17    0.12 
  -8  -8  -9    0.00    0.15 
   8   8   9   -0.04    0.13 
  -9  -8  -9    0.07    0.16 
   9   8   9    0.09    0.15 
   1  -9  -9    2.08    0.20 
   1  -9  -9    1.69    0.21 
  -1   9   9    1.82    0.27 
   0  -9  -9   18.28    0.84 
   0  -9  -9   19.58    0.74 
   0   9   9   18.95    0.86 
  -1  -9  -9    0.40    0.14 
  -1  -9  -9    0.36    0.11 
   1   9   9    0.05    0.17 
  -2  -9  -9   17.97    0.78 
   2   9   9   16.89    0.78 
  -3  -9  -9    4.26    0.29 
   3   9   9    4.00    0.31 
  -4  -9  -9    8.05    0.41 
   4   9   9    7.35    0.42 
  -5  -9  -9    0.21    0.13 
   5   9   9    0.12    0.14 
  -6  -9  -9    0.52    0.16 
   6   9   9    0.71    0.13 
   6   9   9    0.40    0.14 
  -7  -9  -9    0.12    0.15 
   7   9   9    0.11    0.12 
   7   9   9    0.04    0.13 
  -8  -9  -9    3.91    0.33 
   8   9   9    3.89    0.28 
  -1 -10  -9    3.56    0.27 
   1  10   9    3.16    0.31 
  -2 -10  -9    5.73    0.35 
   2  10   9    5.05    0.38 
  -3 -10  -9    3.43    0.27 
   3  10   9    3.00    0.28 
  -4 -10  -9    0.35    0.16 
   4  10   9    0.07    0.16 
  -5 -10  -9    5.35    0.33 
   5  10   9    4.97    0.34 
  -6 -10  -9    0.27    0.15 
   6  10   9    0.10    0.14 
  -7 -10  -9    0.32    0.17 
   7  10   9    0.71    0.17 
  -3 -11  -9    2.46    0.24 
   3  11   9    2.20    0.26 
  -4 -11  -9    1.61    0.20 
   4  11   9    1.24    0.22 
  -5 -11  -9    0.50    0.16 
   5  11   9    0.19    0.16 
  -6 -11  -9    1.99    0.24 
   6  11   9    1.59    0.22 
   1   8 -10    1.48    0.21 
   1   8 -10    1.00    0.19 
  -1  -8  10    1.33    0.18 
   0   8 -10    8.04    0.42 
   0   8 -10    7.20    0.42 
   0  -8  10    7.99    0.41 
  -1   8 -10    0.32    0.15 
   1  -8  10    0.17    0.14 
   3   7 -10    2.56    0.24 
  -3  -7  10    2.05    0.23 
   2   7 -10   11.93    0.52 
   2   7 -10   11.59    0.54 
  -2  -7  10   10.64    0.53 
   1   7 -10    5.52    0.33 
   1   7 -10    5.23    0.34 
  -1  -7  10    5.43    0.33 
   0   7 -10   11.19    0.52 
   0   7 -10   10.41    0.51 
   0  -7  10   11.65    0.52 
  -1   7 -10    5.73    0.34 
   1  -7  10    5.02    0.32 
  -2   7 -10    2.67    0.24 
   2  -7  10    3.28    0.26 
  -3   7 -10    1.16    0.19 
   3  -7  10    1.41    0.21 
   4   6 -10    6.20    0.38 
  -4  -6  10    5.85    0.38 
   3   6 -10    1.98    0.19 
   3   6 -10    1.85    0.20 
  -3  -6  10    1.87    0.22 
   2   6 -10    6.52    0.35 
   2   6 -10    6.81    0.36 
  -2  -6  10    6.22    0.36 
   1   6 -10    6.48    0.35 
   1   6 -10    5.61    0.33 
  -1  -6  10    5.82    0.34 
   0   6 -10    0.26    0.14 
   0   6 -10    0.29    0.14 
   0  -6  10    0.15    0.13 
  -1   6 -10    1.29    0.18 
   1  -6  10    1.80    0.17 
   1  -6  10    1.23    0.17 
  -2   6 -10    4.26    0.29 
   2  -6  10    4.08    0.29 
  -3   6 -10   10.60    0.51 
   3  -6  10   10.30    0.52 
  -4   6 -10   10.66    0.52 
   4  -6  10   10.85    0.54 
  -5   6 -10    2.79    0.26 
   5  -6  10    3.27    0.29 
   4   5 -10    3.89    0.26 
   4   5 -10    4.03    0.30 
  -4  -5  10    3.51    0.29 
   3   5 -10   29.26    1.05 
   3   5 -10   28.93    1.12 
  -3  -5  10   27.75    1.14 
   2   5 -10    5.37    0.30 
   2   5 -10    5.30    0.31 
  -2  -5  10    5.04    0.32 
   1   5 -10   13.19    0.56 
   1   5 -10   14.07    0.59 
  -1  -5  10   13.28    0.59 
   0   5 -10    0.31    0.13 
   0   5 -10    0.11    0.12 
   0  -5  10    0.30    0.13 
  -1   5 -10    4.39    0.28 
   1  -5  10    4.19    0.27 
   1  -5  10    4.23    0.26 
  -2   5 -10    0.53    0.15 
   2  -5  10    0.61    0.14 
  -3   5 -10    2.58    0.22 
   3  -5  10    2.40    0.23 
  -4   5 -10   36.49    1.34 
   4  -5  10   35.53    1.40 
  -5   5 -10    1.83    0.21 
   5  -5  10    1.53    0.21 
  -6   5 -10    4.84    0.32 
   4   4 -10    0.77    0.16 
   4   4 -10    0.52    0.13 
  -4  -4  10    0.57    0.18 
   3   4 -10    0.81    0.15 
   3   4 -10    0.79    0.14 
  -3  -4  10    0.92    0.18 
   2   4 -10    7.96    0.39 
   2   4 -10    8.77    0.38 
  -2  -4  10    7.36    0.41 
   1   4 -10   -0.05    0.10 
   1   4 -10   -0.02    0.10 
  -1  -4  10    0.04    0.12 
   0   4 -10    0.41    0.12 
   0   4 -10    0.35    0.12 
   0  -4  10    0.40    0.12 
  -1   4 -10    3.21    0.24 
   1  -4  10    3.50    0.23 
   1  -4  10    3.14    0.23 
  -2   4 -10   19.53    0.76 
   2  -4  10   18.29    0.75 
   2  -4  10   19.02    0.78 
  -3   4 -10   51.97    1.85 
   3  -4  10   51.97    1.93 
  -4   4 -10    4.38    0.27 
   4  -4  10    3.77    0.28 
  -5   4 -10   31.77    1.22 
   5  -4  10   33.02    1.28 
  -6   4 -10    0.92    0.17 
   6  -4  10    1.32    0.20 
   5   3 -10    0.37    0.15 
  -5  -3  10    0.12    0.17 
   4   3 -10   10.39    0.49 
   4   3 -10   10.43    0.47 
  -4  -3  10   10.70    0.53 
   3   3 -10    3.11    0.23 
   3   3 -10    3.38    0.23 
  -3  -3  10    3.56    0.27 
   2   3 -10    2.51    0.20 
   2   3 -10    2.50    0.20 
  -2  -3  10    2.71    0.22 
   1   3 -10    2.62    0.19 
   1   3 -10    2.16    0.18 
  -1  -3  10    1.98    0.19 
   0   3 -10   13.45    0.54 
   0   3 -10   12.93    0.55 
   0  -3  10   13.01    0.56 
  -1   3 -10   42.59    1.57 
   1  -3  10   45.68    1.65 
   1  -3  10   45.12    1.65 
  -2   3 -10    0.35    0.12 
   2  -3  10    0.41    0.11 
   2  -3  10    0.18    0.11 
  -3   3 -10   36.82    1.35 
   3  -3  10   37.59    1.41 
  -4   3 -10    8.06    0.40 
   4  -3  10    7.83    0.42 
  -5   3 -10    9.73    0.46 
   5  -3  10    9.35    0.48 
  -6   3 -10    3.04    0.24 
   6  -3  10    3.57    0.29 
  -7   3 -10    5.84    0.36 
   7  -3  10    5.95    0.38 
   5   2 -10    0.05    0.13 
  -5  -2  10   -0.03    0.17 
   4   2 -10   14.95    0.62 
  -4  -2  10   15.78    0.69 
   3   2 -10    0.24    0.12 
   3   2 -10    0.21    0.12 
  -3  -2  10    0.26    0.14 
   2   2 -10    0.00    0.10 
   2   2 -10    0.08    0.11 
  -2  -2  10    0.09    0.12 
   1   2 -10   19.73    0.78 
   1   2 -10   19.71    0.75 
  -1  -2  10   20.54    0.81 
   0   2 -10   19.06    0.72 
   0  -2  10   19.06    0.76 
   0  -2  10   18.23    0.75 
  -1   2 -10   12.00    0.50 
   1  -2  10   11.79    0.52 
   1  -2  10   12.42    0.52 
  -2   2 -10   35.36    1.30 
   2  -2  10   37.86    1.37 
   2  -2  10   36.18    1.36 
  -3   2 -10    5.32    0.29 
   3  -2  10    5.34    0.31 
  -4   2 -10    7.19    0.36 
   4  -2  10    6.65    0.37 
  -5   2 -10    0.10    0.11 
   5  -2  10    0.11    0.12 
  -6   2 -10    0.44    0.14 
   6  -2  10    0.41    0.15 
  -7   2 -10    4.20    0.29 
   7  -2  10    4.36    0.32 
   5   1 -10    0.14    0.14 
  -5  -1  10    0.14    0.19 
   4   1 -10    3.75    0.25 
  -4  -1  10    3.99    0.31 
   3   1 -10    1.08    0.15 
  -3  -1  10    1.12    0.19 
   2   1 -10   18.46    0.70 
   2   1 -10   18.25    0.72 
  -2  -1  10   18.35    0.77 
   1   1 -10    4.65    0.25 
   1   1 -10    4.34    0.24 
  -1  -1  10    3.97    0.27 
   0   1 -10   64.72    2.17 
   0  -1  10   62.59    2.31 
   0  -1  10   62.12    2.27 
  -1   1 -10    1.52    0.14 
   1  -1  10    1.28    0.14 
   1  -1  10    1.57    0.16 
  -2   1 -10   23.54    0.93 
   2  -1  10   25.82    0.98 
   2  -1  10   26.40    0.98 
  -3   1 -10   13.86    0.56 
   3  -1  10   13.59    0.57 
   3  -1  10   13.75    0.59 
  -4   1 -10   13.78    0.58 
   4  -1  10   14.06    0.60 
  -5   1 -10    7.13    0.35 
   5  -1  10    6.87    0.37 
  -6   1 -10    0.65    0.14 
   6  -1  10    0.50    0.15 
  -7   1 -10    2.22    0.21 
  -7   1 -10    2.82    0.24 
   7  -1  10    2.57    0.24 
  -8   1 -10    5.36    0.34 
  -8   1 -10    6.09    0.37 
   8  -1  10    5.62    0.37 
   4   0 -10   20.50    0.81 
  -4   0  10   20.94    0.90 
   3   0 -10    5.96    0.32 
  -3   0  10    5.97    0.37 
   2   0 -10   72.49    2.52 
  -2   0  10   75.06    2.72 
   1   0 -10   10.71    0.45 
  -1   0  10   10.43    0.45 
  -1   0  10   10.49    0.50 
   0   0 -10   49.24    1.71 
   0   0  10   48.42    1.84 
   0   0  10   50.40    1.79 
  -1   0 -10    3.76    0.22 
   1   0  10    3.19    0.21 
   1   0  10    3.55    0.25 
  -2   0 -10   29.60    1.10 
   2   0  10   32.56    1.18 
   2   0  10   29.89    1.16 
  -3   0 -10    0.27    0.10 
   3   0  10    0.29    0.10 
   3   0  10    0.20    0.10 
  -4   0 -10    8.31    0.38 
   4   0  10    8.10    0.40 
  -5   0 -10    0.95    0.13 
   5   0  10    0.91    0.15 
  -6   0 -10   11.76    0.52 
  -6   0 -10   12.94    0.56 
   6   0  10   11.64    0.55 
  -7   0 -10    5.44    0.31 
  -7   0 -10    5.57    0.33 
   7   0  10    5.71    0.35 
  -8   0 -10   10.84    0.50 
  -8   0 -10   11.48    0.54 
   8   0  10    9.95    0.53 
   4  -1 -10   31.30    1.21 
  -4   1  10   33.94    1.33 
   3  -1 -10    9.04    0.42 
  -3   1  10    8.10    0.46 
   2  -1 -10   14.28    0.59 
  -2   1  10   15.89    0.68 
   1  -1 -10    6.11    0.30 
  -1   1  10    6.16    0.35 
   0  -1 -10    7.57    0.34 
   0   1  10    7.71    0.34 
   0   1  10    7.11    0.38 
  -1  -1 -10   26.45    0.95 
   1   1  10   26.83    1.00 
   1   1  10   25.87    1.04 
  -2  -1 -10   28.53    1.01 
   2   1  10   26.67    1.08 
   2   1  10   28.42    1.06 
  -3  -1 -10    2.35    0.18 
   3   1  10    2.50    0.20 
   3   1  10    2.27    0.19 
  -4  -1 -10   15.63    0.62 
  -4  -1 -10   15.60    0.64 
   4   1  10   15.29    0.65 
  -5  -1 -10   18.14    0.74 
  -5  -1 -10   17.38    0.69 
   5   1  10   17.47    0.74 
  -6  -1 -10   24.54    0.98 
  -6  -1 -10   22.47    0.89 
   6   1  10   23.84    0.95 
  -7  -1 -10    2.42    0.20 
  -7  -1 -10    1.57    0.17 
   7   1  10    1.75    0.20 
  -8  -1 -10   34.46    1.34 
  -8  -1 -10   29.86    1.18 
   8   1  10   32.01    1.27 
  -9  -1 -10    0.60    0.15 
  -9  -1 -10    0.23    0.16 
   9   1  10    0.54    0.18 
   4  -2 -10   13.69    0.59 
  -4   2  10   13.08    0.67 
   3  -2 -10    6.32    0.35 
  -3   2  10    6.74    0.41 
   2  -2 -10    0.18    0.12 
  -2   2  10    0.15    0.15 
   1  -2 -10   20.44    0.78 
  -1   2  10   20.90    0.87 
   0  -2 -10   34.77    1.16 
   0   2  10   33.21    1.28 
   0   2  10   30.17    1.20 
  -1  -2 -10    0.58    0.11 
   1   2  10    0.46    0.10 
   1   2  10    0.33    0.13 
  -2  -2 -10    7.03    0.32 
   2   2  10    6.80    0.34 
   2   2  10    7.65    0.38 
  -3  -2 -10    1.13    0.13 
  -3  -2 -10    1.49    0.12 
   3   2  10    1.32    0.15 
   3   2  10    1.38    0.14 
  -4  -2 -10   33.68    1.22 
  -4  -2 -10   34.29    1.34 
   4   2  10   34.47    1.29 
  -5  -2 -10    3.51    0.23 
  -5  -2 -10    4.09    0.24 
   5   2  10    3.99    0.26 
  -6  -2 -10    7.89    0.39 
  -6  -2 -10    9.81    0.44 
   6   2  10    7.92    0.42 
  -7  -2 -10   13.71    0.57 
  -7  -2 -10   13.87    0.62 
   7   2  10   13.01    0.61 
  -8  -2 -10    6.73    0.35 
  -8  -2 -10    6.98    0.39 
   8   2  10    6.74    0.39 
  -9  -2 -10    8.72    0.49 
  -9  -2 -10    8.89    0.43 
   9   2  10    8.75    0.48 
   4  -3 -10    0.71    0.17 
  -4   3  10    0.59    0.23 
   3  -3 -10   17.14    0.71 
  -3   3  10   19.28    0.84 
   2  -3 -10    2.65    0.21 
  -2   3  10    2.95    0.27 
   1  -3 -10    3.33    0.23 
  -1   3  10    3.72    0.30 
   0  -3 -10    0.28    0.11 
   0   3  10    0.27    0.14 
  -1  -3 -10    0.50    0.10 
   1   3  10    0.28    0.09 
   1   3  10    0.17    0.13 
  -2  -3 -10   16.79    0.69 
  -2  -3 -10   17.57    0.64 
   2   3  10   16.10    0.72 
   2   3  10   17.04    0.67 
  -3  -3 -10    5.88    0.29 
  -3  -3 -10    5.97    0.28 
   3   3  10    5.42    0.33 
   3   3  10    5.72    0.30 
  -4  -3 -10    8.06    0.37 
  -4  -3 -10    7.68    0.35 
   4   3  10    7.91    0.39 
   4   3  10    7.88    0.38 
  -5  -3 -10   23.36    0.92 
  -5  -3 -10   21.53    0.82 
   5   3  10   21.48    0.88 
  -6  -3 -10    0.99    0.13 
  -6  -3 -10    1.12    0.15 
   6   3  10    0.87    0.15 
  -7  -3 -10   28.97    1.08 
  -7  -3 -10   30.98    1.22 
   7   3  10   28.63    1.16 
  -8  -3 -10    1.86    0.20 
  -8  -3 -10    1.78    0.17 
   8   3  10    2.28    0.23 
  -9  -3 -10    2.70    0.26 
   9   3  10    2.30    0.25 
   3  -4 -10    3.86    0.28 
  -3   4  10    3.87    0.34 
   2  -4 -10    2.08    0.19 
  -2   4  10    2.08    0.26 
   1  -4 -10   14.83    0.59 
  -1   4  10   14.14    0.68 
   0  -4 -10    2.08    0.16 
   0   4  10    2.57    0.24 
  -1  -4 -10   15.84    0.63 
  -1  -4 -10   14.73    0.58 
   1   4  10   14.34    0.67 
  -2  -4 -10    5.06    0.25 
  -2  -4 -10    4.91    0.24 
   2   4  10    3.84    0.24 
   2   4  10    4.11    0.30 
  -3  -4 -10   31.26    1.12 
  -3  -4 -10   32.87    1.25 
   3   4  10   31.48    1.18 
   3   4  10   30.42    1.23 
  -4  -4 -10    0.26    0.09 
  -4  -4 -10    0.21    0.10 
   4   4  10    0.31    0.11 
   4   4  10    0.18    0.11 
  -5  -4 -10   21.12    0.80 
  -5  -4 -10   22.56    0.91 
   5   4  10   21.72    0.87 
  -6  -4 -10   12.83    0.57 
  -6  -4 -10   12.57    0.51 
   6   4  10   11.63    0.55 
  -7  -4 -10    8.37    0.44 
  -7  -4 -10    7.89    0.37 
   7   4  10    8.70    0.43 
  -8  -4 -10    2.20    0.22 
   8   4  10    2.10    0.22 
  -9  -4 -10    0.04    0.15 
   9   4  10    0.14    0.15 
   3  -5 -10    0.80    0.16 
  -3   5  10    1.18    0.25 
   2  -5 -10    1.50    0.18 
  -2   5  10    1.92    0.26 
   1  -5 -10    3.79    0.25 
  -1   5  10    3.80    0.32 
   0  -5 -10    6.42    0.32 
   0  -5 -10    6.83    0.33 
   0   5  10    5.46    0.38 
  -1  -5 -10   35.65    1.29 
  -1  -5 -10   39.66    1.45 
   1   5  10   33.87    1.43 
  -2  -5 -10    7.65    0.36 
  -2  -5 -10    7.46    0.34 
   2   5  10    6.79    0.41 
  -3  -5 -10   12.75    0.49 
  -3  -5 -10   12.49    0.54 
   3   5  10   11.14    0.56 
   3   5  10   13.02    0.52 
  -4  -5 -10   16.65    0.65 
  -4  -5 -10   17.51    0.73 
   4   5  10   18.80    0.71 
   4   5  10   16.90    0.73 
  -5  -5 -10   24.90    0.90 
  -5  -5 -10   26.22    1.03 
   5   5  10   23.33    0.98 
   5   5  10   24.81    0.97 
  -6  -5 -10    1.51    0.14 
  -6  -5 -10    1.47    0.17 
   6   5  10    1.67    0.18 
  -7  -5 -10    3.97    0.29 
   7   5  10    3.72    0.27 
  -8  -5 -10    6.00    0.36 
   8   5  10    4.62    0.32 
  -9  -5 -10   14.15    0.67 
   9   5  10   13.02    0.63 
   2  -6 -10    9.50    0.45 
  -2   6  10    9.15    0.55 
   1  -6 -10    2.81    0.22 
  -1   6  10    2.79    0.29 
   0  -6 -10   14.96    0.64 
   0  -6 -10   14.06    0.58 
   0   6  10   14.21    0.69 
  -1  -6 -10    2.34    0.18 
  -1  -6 -10    2.57    0.20 
   1   6  10    2.45    0.25 
  -2  -6 -10    8.83    0.40 
  -2  -6 -10    8.07    0.36 
   2   6  10    7.86    0.45 
  -3  -6 -10   11.77    0.50 
  -3  -6 -10   11.06    0.44 
   3   6  10    9.68    0.52 
  -4  -6 -10    3.07    0.20 
  -4  -6 -10    3.07    0.22 
   4   6  10    2.72    0.23 
   4   6  10    3.21    0.21 
  -5  -6 -10   18.42    0.75 
   5   6  10   16.99    0.73 
   5   6  10   16.77    0.71 
  -6  -6 -10    0.15    0.12 
   6   6  10    0.00    0.11 
  -7  -6 -10   23.02    0.97 
   7   6  10   22.06    0.92 
  -8  -6 -10    3.95    0.31 
   8   6  10    4.20    0.30 
  -9  -6 -10    8.92    0.50 
   9   6  10    8.68    0.48 
   1  -7 -10    0.13    0.12 
   1  -7 -10    0.15    0.13 
  -1   7  10    0.32    0.20 
   0  -7 -10    2.39    0.20 
   0  -7 -10    1.77    0.18 
   0   7  10    1.95    0.25 
  -1  -7 -10    9.95    0.44 
  -1  -7 -10   10.86    0.50 
   1   7  10    9.82    0.54 
  -2  -7 -10   26.70    0.94 
  -2  -7 -10   27.22    1.06 
   2   7  10   23.26    1.06 
  -3  -7 -10    5.87    0.28 
  -3  -7 -10    5.72    0.32 
   3   7  10    4.74    0.35 
  -4  -7 -10    0.14    0.11 
   4   7  10    0.29    0.15 
  -5  -7 -10    3.42    0.25 
   5   7  10    3.33    0.24 
   5   7  10    3.58    0.27 
  -6  -7 -10    6.15    0.34 
   6   7  10    5.68    0.33 
   6   7  10    6.01    0.34 
  -7  -7 -10    3.13    0.27 
   7   7  10    2.97    0.25 
  -8  -7 -10    6.00    0.39 
   8   7  10    5.91    0.36 
  -9  -7 -10    5.15    0.37 
   9   7  10    4.29    0.33 
   1  -8 -10    8.73    0.42 
   1  -8 -10    8.22    0.45 
  -1   8  10    8.50    0.53 
   0  -8 -10    9.50    0.49 
   0  -8 -10   10.62    0.46 
   0   8  10    9.92    0.56 
  -1  -8 -10    5.21    0.32 
  -1  -8 -10    5.19    0.28 
   1   8  10    4.83    0.37 
  -2  -8 -10    6.34    0.30 
  -2  -8 -10    6.50    0.36 
   2   8  10    5.76    0.40 
  -3  -8 -10    0.31    0.13 
   3   8  10    0.43    0.17 
  -4  -8 -10    7.62    0.40 
   4   8  10    7.58    0.43 
  -5  -8 -10    0.63    0.14 
   5   8  10    0.49    0.15 
  -6  -8 -10   12.75    0.58 
   6   8  10   10.91    0.55 
   6   8  10   12.36    0.54 
  -7  -8 -10    0.29    0.16 
   7   8  10    0.17    0.14 
  -8  -8 -10    2.43    0.25 
   8   8  10    2.52    0.23 
   0  -9 -10    0.43    0.14 
   0   9  10    0.33    0.21 
  -1  -9 -10    1.98    0.18 
  -1  -9 -10    1.76    0.20 
   1   9  10    1.32    0.25 
  -2  -9 -10    2.89    0.25 
   2   9  10    2.63    0.28 
  -3  -9 -10    0.82    0.15 
   3   9  10    0.39    0.19 
  -4  -9 -10    1.35    0.18 
   4   9  10    1.05    0.20 
  -5  -9 -10    1.61    0.19 
   5   9  10    1.71    0.21 
  -6  -9 -10   11.54    0.55 
   6   9  10   10.08    0.53 
  -7  -9 -10    6.33    0.39 
   7   9  10    5.92    0.35 
  -8  -9 -10    3.49    0.30 
   8   9  10    3.72    0.28 
  -2 -10 -10    5.67    0.36 
   2  10  10    5.13    0.41 
  -3 -10 -10   15.51    0.70 
   3  10  10   14.68    0.73 
  -4 -10 -10    0.24    0.15 
   4  10  10    0.54    0.19 
  -5 -10 -10   18.20    0.79 
   5  10  10   16.05    0.77 
  -6 -10 -10    1.27    0.19 
   6  10  10    1.15    0.19 
   1   7 -11    0.02    0.14 
   1   7 -11    0.10    0.16 
  -1  -7  11    0.09    0.16 
   0   7 -11    6.28    0.38 
   0  -7  11    6.27    0.37 
   0  -7  11    6.31    0.38 
  -1   7 -11    5.25    0.34 
   1  -7  11    4.27    0.31 
  -2   7 -11    5.14    0.34 
   2  -7  11    4.24    0.32 
   2   6 -11    0.75    0.16 
   2   6 -11    0.56    0.17 
  -2  -6  11    0.48    0.19 
   1   6 -11   24.00    0.94 
   1   6 -11   23.92    0.97 
  -1  -6  11   24.62    0.99 
   0   6 -11    0.71    0.17 
   0   6 -11    0.49    0.16 
   0  -6  11    0.80    0.16 
   0  -6  11    0.53    0.14 
  -1   6 -11   11.66    0.55 
   1  -6  11   11.32    0.54 
  -2   6 -11    2.70    0.25 
   2  -6  11    2.60    0.24 
  -3   6 -11    3.90    0.31 
   3  -6  11    3.63    0.29 
   3   5 -11   20.33    0.78 
   3   5 -11   19.57    0.83 
  -3  -5  11   20.16    0.86 
   2   5 -11    0.41    0.14 
   2   5 -11    0.25    0.15 
  -2  -5  11    0.60    0.18 
   1   5 -11   18.87    0.80 
   1   5 -11   20.33    0.78 
  -1  -5  11   20.13    0.83 
   0   5 -11    6.26    0.35 
   0  -5  11    6.28    0.35 
  -1   5 -11   26.41    1.06 
   1  -5  11   28.88    1.09 
   1  -5  11   28.14    1.10 
  -2   5 -11    2.44    0.23 
   2  -5  11    2.07    0.21 
  -3   5 -11    9.03    0.46 
   3  -5  11    8.88    0.47 
  -4   5 -11    3.71    0.29 
   4  -5  11    3.45    0.28 
  -5   5 -11    1.47    0.21 
   5  -5  11    1.30    0.22 
   3   4 -11    5.03    0.31 
   3   4 -11    5.37    0.30 
  -3  -4  11    5.40    0.35 
   2   4 -11    3.17    0.23 
   2   4 -11    3.43    0.25 
  -2  -4  11    3.04    0.25 
   1   4 -11    8.30    0.42 
   1   4 -11    8.91    0.42 
  -1  -4  11    9.07    0.44 
   0   4 -11    2.04    0.19 
   0  -4  11    1.90    0.19 
   0  -4  11    2.09    0.19 
  -1   4 -11    0.54    0.15 
   1  -4  11    0.63    0.14 
   1  -4  11    0.58    0.14 
  -2   4 -11    1.31    0.18 
   2  -4  11    1.13    0.17 
  -3   4 -11    3.95    0.28 
   3  -4  11    2.81    0.24 
  -4   4 -11    8.48    0.43 
   4  -4  11    7.27    0.43 
  -5   4 -11   16.05    0.69 
   5  -4  11   15.16    0.71 
  -6   4 -11    1.37    0.21 
   6  -4  11    1.10    0.21 
   4   3 -11   14.52    0.60 
  -4  -3  11   14.60    0.67 
   3   3 -11    9.56    0.43 
   3   3 -11    9.84    0.46 
  -3  -3  11    9.14    0.49 
   2   3 -11   20.23    0.77 
   2   3 -11   20.19    0.81 
  -2  -3  11   19.75    0.84 
   1   3 -11    3.77    0.25 
   1   3 -11    3.76    0.24 
  -1  -3  11    3.44    0.26 
   0   3 -11   29.31    1.05 
   0  -3  11   28.02    1.09 
   0  -3  11   27.48    1.10 
  -1   3 -11    0.80    0.15 
   1  -3  11    0.58    0.14 
   1  -3  11    0.85    0.14 
  -2   3 -11    7.41    0.38 
   2  -3  11    7.76    0.37 
   2  -3  11    8.02    0.40 
  -3   3 -11   12.21    0.55 
   3  -3  11   12.75    0.57 
  -4   3 -11    5.01    0.32 
   4  -3  11    5.13    0.32 
  -5   3 -11   12.99    0.58 
   5  -3  11   12.51    0.60 
  -6   3 -11    7.79    0.42 
   6  -3  11    7.41    0.44 
   4   2 -11   28.74    1.07 
  -4  -2  11   28.75    1.17 
   3   2 -11    0.38    0.13 
  -3  -2  11    0.31    0.16 
   2   2 -11    5.48    0.29 
   2   2 -11    4.93    0.27 
  -2  -2  11    4.54    0.32 
   1   2 -11    0.25    0.12 
   1   2 -11    0.25    0.12 
  -1  -2  11    0.26    0.13 
   0   2 -11    0.19    0.11 
   0  -2  11    0.31    0.11 
   0  -2  11    0.27    0.13 
  -1   2 -11    3.19    0.24 
   1  -2  11    3.82    0.25 
   1  -2  11    3.92    0.25 
  -2   2 -11    4.31    0.27 
   2  -2  11    4.63    0.27 
   2  -2  11    4.47    0.28 
  -3   2 -11    2.17    0.20 
   3  -2  11    2.07    0.20 
  -4   2 -11    9.82    0.48 
   4  -2  11   10.78    0.50 
  -5   2 -11    4.16    0.28 
   5  -2  11    3.39    0.28 
  -6   2 -11   30.92    1.18 
   6  -2  11   31.67    1.25 
  -7   2 -11    0.15    0.14 
   7  -2  11    0.34    0.18 
   4   1 -11    2.56    0.22 
  -4  -1  11    2.77    0.28 
   3   1 -11    5.18    0.30 
  -3  -1  11    4.89    0.35 
   2   1 -11    0.28    0.12 
  -2  -1  11    0.00    0.14 
   1   1 -11    1.71    0.15 
  -1  -1  11    1.36    0.18 
  -1  -1  11    1.40    0.14 
   0   1 -11    2.63    0.20 
   0  -1  11    2.60    0.20 
   0  -1  11    2.78    0.23 
  -1   1 -11    2.45    0.19 
   1  -1  11    2.66    0.20 
   1  -1  11    2.70    0.22 
  -2   1 -11   20.18    0.81 
   2  -1  11   22.12    0.86 
   2  -1  11   22.39    0.86 
  -3   1 -11    1.46    0.16 
   3  -1  11    1.54    0.18 
  -4   1 -11   61.70    2.11 
   4  -1  11   58.58    2.21 
  -5   1 -11    8.98    0.44 
   5  -1  11    9.26    0.46 
  -6   1 -11    9.72    0.46 
   6  -1  11    9.23    0.49 
  -7   1 -11    0.09    0.14 
   7  -1  11    0.28    0.16 
   4   0 -11    0.11    0.15 
  -4   0  11    0.16    0.18 
   3   0 -11    4.20    0.28 
  -3   0  11    4.78    0.34 
   2   0 -11   10.48    0.46 
  -2   0  11   10.71    0.53 
   1   0 -11    0.22    0.11 
  -1   0  11    0.26    0.11 
  -1   0  11    0.37    0.15 
   0   0 -11   10.68    0.46 
   0   0  11   11.52    0.48 
   0   0  11   10.86    0.52 
  -1   0 -11    2.53    0.19 
   1   0  11    2.82    0.20 
   1   0  11    2.42    0.22 
  -2   0 -11   40.96    1.49 
   2   0  11   42.23    1.56 
   2   0  11   43.21    1.59 
  -3   0 -11   37.36    1.38 
   3   0  11   39.40    1.46 
   3   0  11   39.21    1.46 
  -4   0 -11    9.38    0.43 
   4   0  11    9.21    0.45 
  -5   0 -11    3.83    0.26 
   5   0  11    3.33    0.27 
  -6   0 -11    1.30    0.17 
   6   0  11    1.28    0.19 
  -7   0 -11    0.54    0.15 
   7   0  11    0.27    0.16 
  -8   0 -11    3.78    0.29 
   8   0  11    3.60    0.30 
   3  -1 -11    0.43    0.15 
  -3   1  11    0.29    0.19 
   2  -1 -11    4.01    0.26 
  -2   1  11    3.85    0.31 
   1  -1 -11    1.05    0.15 
  -1   1  11    1.05    0.18 
   0  -1 -11    6.22    0.31 
   0   1  11    6.78    0.37 
   0   1  11    6.41    0.32 
  -1  -1 -11   80.35    2.80 
   1   1  11   81.40    3.00 
   1   1  11   84.95    2.94 
  -2  -1 -11    0.66    0.11 
   2   1  11    0.59    0.12 
   2   1  11    0.72    0.15 
  -3  -1 -11   11.30    0.48 
   3   1  11   11.77    0.52 
   3   1  11   11.81    0.53 
  -4  -1 -11   12.37    0.52 
   4   1  11   12.29    0.55 
  -5  -1 -11   10.20    0.46 
   5   1  11   10.46    0.50 
  -6  -1 -11    3.21    0.24 
   6   1  11    3.21    0.26 
  -7  -1 -11    5.22    0.32 
   7   1  11    5.64    0.36 
  -8  -1 -11    4.17    0.30 
  -8  -1 -11    3.65    0.27 
   8   1  11    3.53    0.30 
   3  -2 -11   12.72    0.56 
  -3   2  11   12.74    0.64 
   2  -2 -11    0.60    0.14 
  -2   2  11    0.67    0.19 
   1  -2 -11   60.78    2.11 
  -1   2  11   61.06    2.29 
   0  -2 -11   44.47    1.57 
   0   2  11   44.79    1.71 
  -1  -2 -11   20.89    0.77 
   1   2  11   20.81    0.80 
   1   2  11   19.70    0.85 
  -2  -2 -11    3.06    0.21 
   2   2  11    2.84    0.22 
   2   2  11    3.02    0.25 
  -3  -2 -11   17.80    0.66 
   3   2  11   16.07    0.71 
   3   2  11   16.63    0.69 
  -4  -2 -11    6.90    0.34 
   4   2  11    7.38    0.38 
  -5  -2 -11    0.08    0.10 
   5   2  11    0.01    0.12 
  -6  -2 -11    8.21    0.41 
  -6  -2 -11    8.91    0.43 
   6   2  11    9.19    0.46 
  -7  -2 -11    8.84    0.44 
  -7  -2 -11   11.04    0.50 
   7   2  11    9.67    0.49 
  -8  -2 -11    9.30    0.46 
  -8  -2 -11    8.13    0.42 
   8   2  11    8.21    0.46 
   3  -3 -11   27.70    1.05 
  -3   3  11   27.01    1.16 
   2  -3 -11   11.48    0.52 
  -2   3  11   11.91    0.61 
   1  -3 -11   10.89    0.47 
  -1   3  11   10.94    0.56 
   0  -3 -11    2.13    0.17 
   0   3  11    2.51    0.25 
  -1  -3 -11    6.76    0.32 
   1   3  11    6.26    0.39 
  -2  -3 -11    5.02    0.26 
   2   3  11    4.89    0.28 
   2   3  11    4.57    0.32 
  -3  -3 -11    1.74    0.15 
   3   3  11    1.78    0.17 
   3   3  11    1.44    0.19 
  -4  -3 -11    4.48    0.26 
   4   3  11    4.73    0.28 
   4   3  11    4.31    0.29 
  -5  -3 -11    1.64    0.17 
  -5  -3 -11    2.35    0.19 
   5   3  11    1.68    0.18 
  -6  -3 -11    8.30    0.40 
  -6  -3 -11    7.79    0.37 
   6   3  11    7.21    0.41 
  -7  -3 -11   16.85    0.69 
  -7  -3 -11   18.25    0.77 
   7   3  11   17.37    0.76 
  -8  -3 -11    0.24    0.12 
  -8  -3 -11    0.16    0.14 
   8   3  11    0.15    0.15 
   2  -4 -11   12.29    0.55 
  -2   4  11   12.42    0.65 
   1  -4 -11    0.71    0.15 
  -1   4  11    0.49    0.20 
   0  -4 -11    4.15    0.25 
   0   4  11    4.18    0.33 
  -1  -4 -11    5.00    0.26 
   1   4  11    4.29    0.34 
  -2  -4 -11    0.04    0.09 
   2   4  11    0.00    0.13 
  -3  -4 -11    4.85    0.26 
   3   4  11    4.83    0.28 
   3   4  11    4.73    0.32 
  -4  -4 -11    3.42    0.22 
  -4  -4 -11    2.91    0.20 
   4   4  11    3.15    0.23 
   4   4  11    2.29    0.22 
  -5  -4 -11   51.96    1.91 
  -5  -4 -11   46.46    1.69 
   5   4  11   47.04    1.80 
  -6  -4 -11    3.17    0.25 
  -6  -4 -11    3.02    0.21 
   6   4  11    3.29    0.26 
  -7  -4 -11    2.09    0.18 
  -7  -4 -11    2.52    0.21 
   7   4  11    2.01    0.22 
  -8  -4 -11    3.26    0.27 
   8   4  11    2.91    0.27 
   2  -5 -11    3.57    0.28 
  -2   5  11    3.68    0.35 
   1  -5 -11    0.87    0.16 
  -1   5  11    0.89    0.22 
   0  -5 -11    1.91    0.17 
   0   5  11    2.09    0.26 
  -1  -5 -11    1.65    0.16 
   1   5  11    1.87    0.23 
  -2  -5 -11    6.37    0.30 
   2   5  11    5.90    0.38 
  -3  -5 -11    7.12    0.33 
  -3  -5 -11    7.14    0.35 
   3   5  11    6.39    0.39 
  -4  -5 -11    1.56    0.15 
  -4  -5 -11    1.95    0.16 
   4   5  11    1.69    0.17 
   4   5  11    1.72    0.20 
  -5  -5 -11   13.31    0.55 
  -5  -5 -11   14.70    0.62 
   5   5  11   13.94    0.60 
   5   5  11   13.18    0.61 
  -6  -5 -11    3.47    0.25 
  -6  -5 -11    3.22    0.22 
   6   5  11    3.38    0.26 
  -7  -5 -11    0.03    0.13 
   7   5  11    0.11    0.14 
  -8  -5 -11   15.16    0.71 
   8   5  11   15.36    0.70 
   1  -6 -11    4.73    0.30 
  -1   6  11    4.20    0.37 
   0  -6 -11    6.41    0.33 
   0   6  11    5.43    0.43 
  -1  -6 -11    2.07    0.17 
   1   6  11    1.75    0.24 
  -2  -6 -11    3.41    0.24 
  -2  -6 -11    3.39    0.22 
   2   6  11    2.90    0.29 
  -3  -6 -11    0.43    0.12 
  -3  -6 -11    0.33    0.11 
   3   6  11    0.30    0.16 
  -4  -6 -11   22.86    0.89 
  -4  -6 -11   20.21    0.78 
   4   6  11   20.39    0.89 
  -5  -6 -11    0.55    0.13 
   5   6  11    1.09    0.15 
   5   6  11    0.78    0.15 
  -6  -6 -11    9.04    0.45 
   6   6  11    8.56    0.44 
  -7  -6 -11    8.22    0.42 
   7   6  11    6.80    0.41 
  -8  -6 -11    0.05    0.15 
   8   6  11    0.16    0.15 
   0  -7 -11   16.86    0.66 
   0   7  11   15.08    0.78 
  -1  -7 -11    0.24    0.12 
  -1  -7 -11    0.30    0.13 
   1   7  11    0.17    0.20 
  -2  -7 -11   21.49    0.86 
  -2  -7 -11   19.83    0.76 
   2   7  11   19.34    0.90 
  -3  -7 -11   10.60    0.44 
  -3  -7 -11   10.35    0.49 
   3   7  11   10.81    0.56 
  -4  -7 -11    2.27    0.20 
   4   7  11    1.93    0.23 
  -5  -7 -11   10.12    0.49 
   5   7  11    9.84    0.51 
  -6  -7 -11    0.87    0.16 
   6   7  11    1.01    0.16 
  -7  -7 -11    0.38    0.15 
   7   7  11    0.16    0.14 
  -8  -7 -11    0.06    0.16 
   8   7  11    0.08    0.15 
  -1  -8 -11   10.04    0.44 
  -1  -8 -11    9.87    0.49 
   1   8  11    9.32    0.56 
  -2  -8 -11    0.08    0.12 
  -2  -8 -11    0.21    0.13 
   2   8  11    0.06    0.17 
  -3  -8 -11    7.19    0.39 
   3   8  11    6.93    0.44 
  -4  -8 -11    0.32    0.13 
   4   8  11    0.10    0.17 
  -5  -8 -11    8.08    0.42 
   5   8  11    7.71    0.45 
  -6  -8 -11    1.58    0.19 
   6   8  11    1.42    0.20 
  -7  -8 -11    0.36    0.16 
   7   8  11    0.04    0.15 
  -2  -9 -11    1.48    0.19 
   2   9  11    1.56    0.27 
  -3  -9 -11    7.64    0.41 
   3   9  11    7.20    0.47 
  -4  -9 -11    1.37    0.18 
   4   9  11    0.85    0.22 
  -5  -9 -11    0.13    0.14 
   5   9  11    0.42    0.18 
  -6  -9 -11    0.14    0.15 
   6   9  11    0.11    0.15 
  -1   6 -12   13.43    0.62 
   1   5 -12    1.19    0.18 
   1   5 -12    1.21    0.19 
  -1  -5  12    1.22    0.20 
   0   5 -12    1.72    0.21 
   0  -5  12    1.53    0.19 
   0  -5  12    1.53    0.18 
  -1   5 -12   26.05    1.06 
   1  -5  12   28.60    1.09 
  -2   5 -12    0.53    0.18 
   2  -5  12    0.62    0.16 
  -3   5 -12   10.41    0.52 
   3  -5  12   10.10    0.52 
   2   4 -12    2.36    0.22 
   2   4 -12    2.08    0.20 
  -2  -4  12    2.17    0.25 
   1   4 -12    6.54    0.37 
   1   4 -12    7.22    0.37 
  -1  -4  12    7.24    0.40 
  -1  -4  12    6.36    0.36 
   0   4 -12   16.96    0.69 
   0  -4  12   16.76    0.70 
   0  -4  12   16.03    0.71 
  -1   4 -12    0.17    0.14 
   1  -4  12    0.25    0.14 
   1  -4  12    0.09    0.13 
  -2   4 -12   12.69    0.58 
   2  -4  12   12.67    0.58 
  -3   4 -12    2.22    0.23 
   3  -4  12    1.94    0.21 
  -4   4 -12   13.00    0.60 
   4  -4  12   13.14    0.63 
  -5   4 -12    3.64    0.31 
   2   3 -12   25.03    0.92 
   2   3 -12   24.40    0.96 
  -2  -3  12   22.97    0.98 
   1   3 -12    0.95    0.15 
  -1  -3  12    1.21    0.16 
  -1  -3  12    1.29    0.18 
   0   3 -12   19.03    0.77 
   0  -3  12   19.96    0.80 
   0  -3  12   19.32    0.80 
  -1   3 -12    0.30    0.14 
   1  -3  12    0.47    0.13 
   1  -3  12    0.38    0.14 
  -2   3 -12   27.37    1.09 
   2  -3  12   30.79    1.15 
  -3   3 -12    0.77    0.16 
   3  -3  12    0.96    0.17 
  -4   3 -12   14.11    0.65 
   4  -3  12   14.97    0.67 
  -5   3 -12    0.70    0.18 
   5  -3  12    0.35    0.17 
   2   2 -12   15.61    0.62 
  -2  -2  12   14.77    0.69 
   1   2 -12    1.88    0.18 
  -1  -2  12    1.58    0.20 
  -1  -2  12    1.85    0.17 
   0   2 -12   28.70    1.03 
   0  -2  12   27.15    1.10 
   0  -2  12   27.48    1.07 
  -1   2 -12    5.40    0.30 
   1  -2  12    5.17    0.30 
   1  -2  12    4.86    0.31 
  -2   2 -12    5.37    0.31 
   2  -2  12    6.41    0.34 
   2  -2  12    5.51    0.33 
  -3   2 -12    3.00    0.24 
   3  -2  12    3.25    0.26 
  -4   2 -12    1.09    0.18 
   4  -2  12    1.21    0.19 
  -5   2 -12    0.46    0.15 
   5  -2  12    0.42    0.15 
  -6   2 -12    8.18    0.44 
   6  -2  12    8.56    0.48 
   3   1 -12   12.83    0.55 
  -3  -1  12   11.66    0.61 
   2   1 -12    6.28    0.32 
  -2  -1  12    5.55    0.38 
   1   1 -12   11.29    0.50 
  -1  -1  12   11.48    0.51 
  -1  -1  12   12.15    0.57 
   0   1 -12    6.90    0.35 
   0  -1  12    6.65    0.35 
   0  -1  12    7.18    0.39 
  -1   1 -12   14.46    0.60 
   1  -1  12   14.25    0.62 
   1  -1  12   15.40    0.65 
  -2   1 -12    3.06    0.24 
   2  -1  12    4.08    0.27 
   2  -1  12    3.00    0.24 
  -3   1 -12    2.82    0.23 
   3  -1  12    2.97    0.24 
  -4   1 -12   19.08    0.81 
   4  -1  12   21.80    0.86 
  -5   1 -12    4.10    0.29 
   5  -1  12    4.01    0.30 
  -6   1 -12    9.35    0.47 
   6  -1  12    8.77    0.49 
  -7   1 -12    3.57    0.29 
   7  -1  12    3.96    0.32 
   2   0 -12    0.22    0.14 
  -2   0  12    0.02    0.17 
   1   0 -12   19.22    0.75 
  -1   0  12   19.30    0.83 
   0   0 -12   11.97    0.50 
   0   0  12   12.21    0.56 
   0   0  12   11.57    0.52 
  -1   0 -12    0.21    0.12 
   1   0  12   -0.06    0.13 
   1   0  12   -0.02    0.10 
  -2   0 -12    1.29    0.15 
   2   0  12    1.06    0.16 
   2   0  12    1.27    0.18 
  -3   0 -12    5.75    0.31 
   3   0  12    5.17    0.32 
  -4   0 -12    1.39    0.18 
   4   0  12    1.46    0.19 
  -5   0 -12    3.57    0.26 
   5   0  12    3.10    0.27 
  -6   0 -12    4.92    0.31 
   6   0  12    4.55    0.32 
  -7   0 -12   11.77    0.56 
   7   0  12   12.61    0.61 
   2  -1 -12    9.49    0.44 
  -2   1  12   10.29    0.54 
   1  -1 -12   -0.03    0.11 
  -1   1  12   -0.03    0.16 
   0  -1 -12    3.61    0.23 
   0   1  12    4.16    0.31 
  -1  -1 -12    0.19    0.11 
   1   1  12    0.14    0.14 
   1   1  12    0.08    0.12 
  -2  -1 -12    3.46    0.22 
   2   1  12    4.03    0.29 
   2   1  12    3.74    0.25 
  -3  -1 -12    7.82    0.38 
   3   1  12    8.30    0.41 
  -4  -1 -12    0.32    0.13 
   4   1  12    0.26    0.13 
  -5  -1 -12   30.54    1.12 
   5   1  12   29.15    1.18 
  -6  -1 -12    2.40    0.22 
   6   1  12    2.36    0.23 
  -7  -1 -12   10.92    0.51 
   7   1  12   10.01    0.54 
   2  -2 -12    0.09    0.13 
  -2   2  12    0.01    0.18 
   1  -2 -12   12.67    0.55 
  -1   2  12   13.30    0.63 
   0  -2 -12    1.98    0.18 
   0   2  12    1.46    0.22 
  -1  -2 -12    5.94    0.31 
   1   2  12    6.50    0.39 
  -2  -2 -12    2.62    0.21 
   2   2  12    2.70    0.25 
   2   2  12    3.39    0.24 
  -3  -2 -12   14.91    0.60 
   3   2  12   14.93    0.63 
   3   2  12   14.23    0.66 
  -4  -2 -12    8.82    0.42 
   4   2  12    9.12    0.45 
  -5  -2 -12   10.89    0.49 
   5   2  12   10.72    0.52 
  -6  -2 -12    2.46    0.22 
   6   2  12    2.38    0.24 
  -7  -2 -12    5.76    0.34 
   7   2  12    5.36    0.36 
  -8  -2 -12    1.58    0.20 
   8   2  12    1.49    0.23 
   2  -3 -12    0.24    0.15 
  -2   3  12    0.33    0.21 
   1  -3 -12    2.19    0.20 
  -1   3  12    2.16    0.27 
   0  -3 -12    0.86    0.14 
   0   3  12    0.88    0.20 
  -1  -3 -12   14.06    0.56 
   1   3  12   13.58    0.66 
  -2  -3 -12   23.72    0.87 
   2   3  12   23.00    0.98 
  -3  -3 -12    4.23    0.24 
   3   3  12    3.85    0.27 
   3   3  12    3.11    0.27 
  -4  -3 -12   21.50    0.81 
   4   3  12   20.96    0.86 
   4   3  12   20.29    0.87 
  -5  -3 -12    6.86    0.36 
   5   3  12    6.92    0.38 
  -6  -3 -12   13.34    0.58 
   6   3  12   13.95    0.63 
  -7  -3 -12    1.10    0.16 
   7   3  12    1.08    0.20 
  -8  -3 -12    1.57    0.19 
   8   3  12    1.36    0.22 
   1  -4 -12    0.56    0.15 
  -1   4  12    0.52    0.22 
   0  -4 -12   19.83    0.76 
   0   4  12   19.35    0.88 
  -1  -4 -12    6.24    0.31 
   1   4  12    5.51    0.41 
  -2  -4 -12    8.78    0.38 
   2   4  12    7.43    0.46 
  -3  -4 -12    7.70    0.36 
   3   4  12    7.30    0.42 
  -4  -4 -12    1.95    0.18 
   4   4  12    2.67    0.22 
   4   4  12    2.02    0.22 
  -5  -4 -12    7.08    0.35 
   5   4  12    7.23    0.39 
  -6  -4 -12    0.21    0.13 
   6   4  12    0.39    0.15 
  -7  -4 -12   19.40    0.81 
  -7  -4 -12   17.90    0.74 
   7   4  12   18.08    0.81 
  -8  -4 -12    5.69    0.36 
   8   4  12    5.59    0.39 
   1  -5 -12    3.98    0.28 
  -1   5  12    3.83    0.38 
   0  -5 -12    0.10    0.13 
   0   5  12    0.03    0.19 
  -1  -5 -12   13.13    0.53 
   1   5  12   11.28    0.62 
  -2  -5 -12   18.33    0.67 
   2   5  12   15.62    0.78 
  -3  -5 -12    0.40    0.12 
   3   5  12    0.17    0.17 
  -4  -5 -12    0.11    0.11 
   4   5  12    0.27    0.15 
  -5  -5 -12    6.08    0.32 
   5   5  12    6.96    0.38 
  -6  -5 -12    4.13    0.27 
  -6  -5 -12    3.56    0.25 
   6   5  12    3.60    0.28 
  -7  -5 -12    1.19    0.17 
   7   5  12    1.22    0.20 
  -8  -5 -12    7.41    0.43 
   8   5  12    8.04    0.46 
   0  -6 -12    6.97    0.35 
   0   6  12    5.90    0.46 
  -1  -6 -12    6.39    0.32 
   1   6  12    5.05    0.41 
  -2  -6 -12    4.27    0.24 
   2   6  12    3.33    0.32 
  -3  -6 -12    0.23    0.11 
   3   6  12    0.17    0.18 
  -4  -6 -12    6.12    0.31 
   4   6  12    6.12    0.39 
  -5  -6 -12    1.24    0.16 
   5   6  12    1.10    0.20 
  -6  -6 -12   15.09    0.69 
   6   6  12   15.39    0.68 
  -7  -6 -12    0.43    0.15 
   7   6  12    0.36    0.16 
  -1  -7 -12    1.72    0.18 
   1   7  12    1.74    0.28 
  -2  -7 -12    0.20    0.12 
   2   7  12    0.40    0.21 
  -3  -7 -12    2.74    0.21 
   3   7  12    2.73    0.28 
  -4  -7 -12    0.18    0.12 
   4   7  12    0.12    0.18 
  -5  -7 -12    0.95    0.15 
   5   7  12    0.63    0.19 
  -6  -7 -12    5.33    0.33 
  -7  -7 -12   13.86    0.67 
   7   7  12   14.69    0.66 
  -2  -8 -12    0.57    0.15 
   2   8  12    0.23    0.21 
  -3  -8 -12   10.48    0.49 
   3   8  12    9.27    0.57 
  -4  -8 -12   -0.07    0.12 
   4   8  12   -0.05    0.17 
  -5  -8 -12   20.55    0.86 
   5   8  12   18.99    0.88 
  -6  -8 -12    2.40    0.23 
  -1   4 -13    0.15    0.16 
   1  -4  13    0.16    0.14 
  -2   4 -13    7.48    0.42 
   2  -4  13    6.95    0.41 
   0   3 -13    1.28    0.19 
   0  -3  13    1.86    0.21 
   0  -3  13    1.71    0.19 
  -1   3 -13    0.13    0.15 
   1  -3  13    0.26    0.14 
   1  -3  13    0.26    0.15 
  -2   3 -13   20.73    0.86 
   2  -3  13   21.76    0.88 
  -3   3 -13    0.28    0.16 
   3  -3  13    0.14    0.15 
  -4   3 -13   12.00    0.60 
   4  -3  13   13.01    0.61 
   1   2 -13    0.49    0.15 
  -1  -2  13    1.10    0.21 
  -1  -2  13    0.62    0.14 
   0   2 -13    2.61    0.22 
   0  -2  13    2.11    0.20 
   0  -2  13    2.17    0.24 
  -1   2 -13    6.52    0.36 
   1  -2  13    5.64    0.35 
   1  -2  13    6.69    0.38 
  -2   2 -13   12.39    0.56 
   2  -2  13   12.66    0.58 
  -3   2 -13    8.72    0.46 
   3  -2  13   10.36    0.50 
  -4   2 -13    6.87    0.41 
   4  -2  13    6.96    0.41 
  -5   2 -13   13.31    0.63 
   5  -2  13   14.22    0.66 
   1   1 -13    2.01    0.20 
  -1  -1  13    1.78    0.25 
   0   1 -13    1.29    0.17 
   0  -1  13    1.27    0.17 
   0  -1  13    1.33    0.20 
  -1   1 -13   33.07    1.20 
   1  -1  13   32.43    1.25 
   1  -1  13   32.20    1.28 
  -2   1 -13    0.11    0.13 
   2  -1  13    0.16    0.13 
   2  -1  13    0.38    0.15 
  -3   1 -13   12.13    0.56 
   3  -1  13   13.13    0.59 
  -4   1 -13    4.42    0.31 
   4  -1  13    5.70    0.35 
  -5   1 -13    5.12    0.35 
   5  -1  13    5.20    0.35 
  -6   1 -13    0.05    0.16 
   6  -1  13   -0.06    0.16 
   1   0 -13   22.45    0.87 
  -1   0  13   22.64    0.96 
   0   0 -13   13.50    0.56 
   0   0  13   12.96    0.63 
  -1   0 -13   22.78    0.88 
   1   0  13   23.72    0.97 
   1   0  13   23.08    0.92 
  -2   0 -13    8.77    0.42 
   2   0  13    8.94    0.44 
   2   0  13    8.66    0.46 
  -3   0 -13    3.57    0.26 
   3   0  13    3.78    0.28 
  -4   0 -13    0.15    0.14 
   4   0  13    0.20    0.14 
  -5   0 -13    0.33    0.16 
   5   0  13    0.23    0.16 
  -6   0 -13    0.58    0.17 
   6   0  13    0.55    0.19 
   1  -1 -13    2.45    0.21 
  -1   1  13    2.62    0.28 
   0  -1 -13   12.61    0.52 
   0   1  13   11.54    0.59 
  -1  -1 -13    1.01    0.14 
   1   1  13    1.10    0.19 
  -2  -1 -13    8.11    0.40 
   2   1  13    8.24    0.46 
   2   1  13    8.62    0.43 
  -3  -1 -13    0.53    0.15 
   3   1  13    0.99    0.17 
   3   1  13    0.64    0.17 
  -4  -1 -13    1.43    0.19 
   4   1  13    1.65    0.20 
  -5  -1 -13    0.03    0.14 
   5   1  13    0.02    0.14 
  -6  -1 -13    5.19    0.33 
   6   1  13    4.62    0.35 
   1  -2 -13    0.34    0.15 
  -1   2  13    0.20    0.20 
   0  -2 -13   13.09    0.57 
   0   2  13   14.18    0.67 
  -1  -2 -13    7.44    0.37 
   1   2  13    7.75    0.45 
  -2  -2 -13    0.18    0.11 
   2   2  13    0.04    0.15 
  -3  -2 -13    0.45    0.14 
   3   2  13    0.41    0.15 
   3   2  13    0.29    0.16 
  -4  -2 -13    2.01    0.20 
   4   2  13    1.87    0.21 
  -5  -2 -13   11.22    0.51 
   5   2  13   10.37    0.53 
  -6  -2 -13   14.02    0.62 
   6   2  13   13.91    0.66 
  -7  -2 -13    0.51    0.16 
   7   2  13    0.39    0.19 
   0  -3 -13    0.01    0.13 
   0   3  13    0.01    0.19 
  -1  -3 -13    7.16    0.36 
   1   3  13    7.02    0.45 
  -2  -3 -13    1.15    0.16 
   2   3  13    1.20    0.22 
  -3  -3 -13    2.84    0.22 
   3   3  13    2.65    0.26 
   3   3  13    2.77    0.23 
  -4  -3 -13   11.82    0.51 
   4   3  13   11.01    0.54 
  -5  -3 -13    1.03    0.17 
   5   3  13    0.91    0.18 
  -6  -3 -13    5.44    0.33 
   6   3  13    5.93    0.37 
  -7  -3 -13    0.30    0.15 
   7   3  13    0.29    0.17 
   0  -4 -13    5.00    0.30 
   0   4  13    4.81    0.40 
  -1  -4 -13    0.35    0.13 
   1   4  13    0.37    0.22 
  -2  -4 -13    6.51    0.33 
   2   4  13    6.42    0.43 
  -3  -4 -13    0.27    0.12 
   3   4  13    0.60    0.18 
  -4  -4 -13    5.31    0.29 
   4   4  13    4.10    0.34 
   4   4  13    4.98    0.32 
  -5  -4 -13    0.36    0.13 
   5   4  13    0.10    0.13 
  -6  -4 -13    6.70    0.36 
   6   4  13    6.53    0.40 
   7   4  13    6.32    0.41 
  -1  -5 -13    3.48    0.24 
   1   5  13    3.16    0.33 
  -2  -5 -13   13.06    0.54 
   2   5  13   12.71    0.67 
  -3  -5 -13    5.08    0.28 
   3   5  13    4.10    0.34 
  -4  -5 -13    4.74    0.27 
   4   5  13    3.87    0.32 
  -5  -5 -13   23.26    0.89 
   5   5  13   23.01    0.95 
   6   5  13    0.30    0.17 
   7   5  13    9.96    0.54 
  -2  -6 -13    0.54    0.13 
   2   6  13    0.35    0.22 
  -3  -6 -13   10.09    0.43 
   3   6  13    8.76    0.53 
  -4  -6 -13    1.84    0.17 
   4   6  13    1.75    0.25 
   6   6  13    3.47    0.29 
  -3  -7 -13    9.83    0.43 
   3   7  13    9.02    0.56 
   4   7  13    0.99    0.24 
   5   7  13    0.60    0.21 
  -1   1 -14    0.49    0.16 
   1  -1  14    0.10    0.17 
   1  -1  14    0.27    0.14 
  -2   1 -14    1.77    0.21 
   2  -1  14    2.07    0.22 
  -3   1 -14    6.31    0.38 
   3  -1  14    6.16    0.38 
  -4   1 -14    0.73    0.19 
  -1   0 -14    1.84    0.20 
   1   0  14    2.27    0.25 
  -2   0 -14    8.64    0.44 
   2   0  14    9.12    0.46 
   2   0  14    9.16    0.48 
  -3   0 -14    7.10    0.39 
   3   0  14    7.70    0.41 
  -4   0 -14    4.10    0.30 
   4   0  14    5.25    0.34 
  -1  -1 -14    2.10    0.21 
   1   1  14    1.85    0.24 
  -2  -1 -14   29.75    1.11 
   2   1  14   29.87    1.22 
   2   1  14   29.98    1.17 
  -3  -1 -14    0.95    0.17 
   3   1  14    1.08    0.18 
  -4  -1 -14   10.91    0.53 
   4   1  14   12.06    0.57 
  -5  -1 -14    6.89    0.41 
   5   1  14    7.82    0.44 
  -1  -2 -14    9.60    0.46 
   1   2  14   10.55    0.56 
  -2  -2 -14    6.71    0.35 
   2   2  14    6.85    0.44 
  -3  -2 -14    9.66    0.47 
   3   2  14   10.52    0.51 
  -4  -2 -14    0.23    0.15 
   4   2  14    0.14    0.15 
  -5  -2 -14   -0.01    0.14 
   5   2  14    0.09    0.16 
  -2  -3 -14    0.40    0.15 
   2   3  14    0.31    0.20 
  -3  -3 -14   11.07    0.50 
   3   3  14   11.60    0.60 
  -4  -3 -14    1.96    0.21 
   4   3  14    2.15    0.23 
  -5  -3 -14    3.78    0.29 
   5   3  14    3.37    0.28 
  -2  -4 -14    0.86    0.16 
   2   4  14    1.14    0.25 
  -3  -4 -14    0.04    0.12 
   3   4  14   -0.14    0.19 
  -4  -4 -14    3.68    0.27 
  -5  -4 -14    0.02    0.14 
   5   4  14    0.10    0.15 
  -4  -5 -14    0.12    0.13 
   4   5  14   -0.14    0.18 
   0   0   0    0.00    0.00 
;
_shelx_hkl_checksum              80418
#END Tags that were not found in dictionaries
loop_
_space_group_symop_operation_xyz
'x, y, z'
'-x, -y, -z'
loop_
_atom_site_label
_atom_site_type_symbol
_atom_site_fract_x
_atom_site_fract_y
_atom_site_fract_z
_atom_site_U_iso_or_equiv
_atom_site_adp_type
_atom_site_occupancy
_atom_site_site_symmetry_order
_atom_site_calc_flag
_atom_site_refinement_flags_posn
_atom_site_refinement_flags_adp
Br1 Br 0.04996(2) 0.57064(2) 0.80694(2) 0.02427(7) Uani 1 1 d . .
S1 S 0.46530(5) 0.29374(4) 0.98851(3) 0.01148(8) Uani 1 1 d . .
F1 F 1.28897(13) -0.14978(10) 0.75537(9) 0.0210(2) Uani 1 1 d . .
F2 F 1.30025(13) 0.03740(11) 0.64688(9) 0.0222(2) Uani 1 1 d . .
F3 F 1.36738(12) 0.00145(11) 0.82308(9) 0.0228(2) Uani 1 1 d . .
O1 O 1.11232(15) 0.17045(12) 0.41936(11) 0.0193(2) Uani 1 1 d . .
O2 O 0.35842(14) 0.20495(11) 0.99751(10) 0.0159(2) Uani 1 1 d . .
O3 O 0.44523(15) 0.36516(11) 1.09761(10) 0.0157(2) Uani 1 1 d . .
N1 N 0.41885(17) 0.41428(13) 0.88357(12) 0.0132(2) Uani 1 1 d . .
H1N H 0.461(3) 0.476(2) 0.8834(19) 0.021(5) Uiso 1 1 d . .
C1 C 0.3019(2) 0.51175(17) 0.70425(15) 0.0192(3) Uani 1 1 d . .
H1A H 0.3050 0.4932 0.6186 0.023 Uiso 1 1 calc R U
H1B H 0.3552 0.5871 0.6973 0.023 Uiso 1 1 calc R U
C2 C 0.4157(2) 0.38233(16) 0.76005(14) 0.0141(3) Uani 1 1 d . .
H2 H 0.3551 0.3094 0.7723 0.017 Uiso 1 1 calc R U
C3 C 0.6027(2) 0.33089(15) 0.66813(14) 0.0134(3) Uani 1 1 d . .
C4 C 0.6442(2) 0.21898(16) 0.59395(14) 0.0159(3) Uani 1 1 d . .
H4 H 0.5538 0.1769 0.6000 0.019 Uiso 1 1 calc R U
C5 C 0.8148(2) 0.16837(16) 0.51167(14) 0.0160(3) Uani 1 1 d . .
H5 H 0.8411 0.0920 0.4619 0.019 Uiso 1 1 calc R U
C6 C 0.9484(2) 0.22974(15) 0.50186(14) 0.0146(3) Uani 1 1 d . .
C7 C 0.9096(2) 0.34142(16) 0.57500(15) 0.0168(3) Uani 1 1 d . .
H7 H 0.9999 0.3836 0.5688 0.020 Uiso 1 1 calc R U
C8 C 0.7373(2) 0.39081(16) 0.65730(14) 0.0167(3) Uani 1 1 d . .
H8 H 0.7110 0.4671 0.7072 0.020 Uiso 1 1 calc R U
C9 C 1.2484(2) 0.23666(19) 0.39672(17) 0.0234(3) Uani 1 1 d . .
H9A H 1.2014 0.3323 0.3677 0.035 Uiso 1 1 calc R U
H9B H 1.3563 0.1876 0.3323 0.035 Uiso 1 1 calc R U
H9C H 1.2811 0.2356 0.4746 0.035 Uiso 1 1 calc R U
C10 C 0.69705(19) 0.19660(15) 0.93362(13) 0.0122(3) Uani 1 1 d . .
C11 C 0.7419(2) 0.07477(15) 0.87273(14) 0.0144(3) Uani 1 1 d . .
H11 H 0.6495 0.0402 0.8672 0.017 Uiso 1 1 calc R U
C12 C 0.9239(2) 0.00453(15) 0.82015(14) 0.0147(3) Uani 1 1 d . .
H12 H 0.9574 -0.0785 0.7775 0.018 Uiso 1 1 calc R U
C13 C 1.0569(2) 0.05661(15) 0.83032(14) 0.0132(3) Uani 1 1 d . .
C14 C 1.0115(2) 0.17620(16) 0.89473(14) 0.0153(3) Uani 1 1 d . .
H14 H 1.1041 0.2085 0.9035 0.018 Uiso 1 1 calc R U
C15 C 0.8298(2) 0.24786(16) 0.94600(14) 0.0147(3) Uani 1 1 d . .
H15 H 0.7963 0.3307 0.9889 0.018 Uiso 1 1 calc R U
C16 C 1.2521(2) -0.01420(16) 0.76563(14) 0.0150(3) Uani 1 1 d . .
loop_
_atom_site_aniso_label
_atom_site_aniso_U_11
_atom_site_aniso_U_22
_atom_site_aniso_U_33
_atom_site_aniso_U_23
_atom_site_aniso_U_13
_atom_site_aniso_U_12
Br1 0.01146(9) 0.03063(11) 0.02238(10) 0.00109(7) -0.00233(7) 0.00144(7)
S1 0.00797(16) 0.01295(17) 0.01140(17) -0.00081(13) 0.00022(13) -0.00295(13)
F1 0.0138(4) 0.0164(4) 0.0267(5) -0.0040(4) -0.0005(4) 0.0001(4)
F2 0.0159(5) 0.0299(5) 0.0149(5) 0.0025(4) 0.0018(4) -0.0059(4)
F3 0.0100(4) 0.0340(6) 0.0237(5) -0.0084(4) -0.0047(4) -0.0031(4)
O1 0.0130(5) 0.0187(6) 0.0189(6) -0.0021(4) 0.0038(4) -0.0025(4)
O2 0.0108(5) 0.0172(5) 0.0195(5) -0.0005(4) -0.0010(4) -0.0067(4)
O3 0.0137(5) 0.0180(5) 0.0128(5) -0.0025(4) 0.0008(4) -0.0047(4)
N1 0.0120(6) 0.0125(6) 0.0128(6) -0.0003(5) -0.0009(5) -0.0033(5)
C1 0.0123(7) 0.0230(8) 0.0159(7) 0.0018(6) -0.0009(6) -0.0007(6)
C2 0.0110(7) 0.0170(7) 0.0128(7) -0.0006(5) -0.0015(5) -0.0040(6)
C3 0.0120(7) 0.0143(7) 0.0113(6) 0.0004(5) -0.0007(5) -0.0030(5)
C4 0.0148(7) 0.0188(7) 0.0148(7) -0.0004(6) -0.0033(6) -0.0070(6)
C5 0.0175(7) 0.0144(7) 0.0144(7) -0.0027(5) -0.0022(6) -0.0040(6)
C6 0.0121(7) 0.0150(7) 0.0116(7) 0.0015(5) 0.0000(5) -0.0013(6)
C7 0.0148(7) 0.0189(7) 0.0163(7) -0.0002(6) -0.0011(6) -0.0076(6)
C8 0.0170(7) 0.0156(7) 0.0159(7) -0.0033(6) 0.0004(6) -0.0064(6)
C9 0.0120(7) 0.0272(9) 0.0243(8) 0.0026(7) 0.0021(6) -0.0052(6)
C10 0.0095(6) 0.0135(7) 0.0116(6) 0.0004(5) -0.0014(5) -0.0027(5)
C11 0.0118(7) 0.0163(7) 0.0163(7) -0.0008(5) -0.0039(6) -0.0056(6)
C12 0.0136(7) 0.0136(7) 0.0158(7) -0.0029(5) -0.0032(6) -0.0026(5)
C13 0.0103(7) 0.0160(7) 0.0108(6) 0.0011(5) -0.0014(5) -0.0029(5)
C14 0.0114(7) 0.0182(7) 0.0169(7) -0.0013(6) -0.0029(6) -0.0058(6)
C15 0.0128(7) 0.0148(7) 0.0160(7) -0.0027(5) -0.0021(6) -0.0043(6)
C16 0.0108(7) 0.0181(7) 0.0150(7) -0.0013(6) -0.0027(6) -0.0033(6)
loop_
_atom_type_symbol
_atom_type_description
_atom_type_scat_dispersion_real
_atom_type_scat_dispersion_imag
_atom_type_scat_source
C C 0.0033 0.0016 'International Tables Vol C Tables 4.2.6.8 and 6.1.1.4'
H H 0.0000 0.0000 'International Tables Vol C Tables 4.2.6.8 and 6.1.1.4'
O O 0.0106 0.0060 'International Tables Vol C Tables 4.2.6.8 and 6.1.1.4'
N N 0.0061 0.0033 'International Tables Vol C Tables 4.2.6.8 and 6.1.1.4'
F F 0.0171 0.0103 'International Tables Vol C Tables 4.2.6.8 and 6.1.1.4'
S S 0.1246 0.1234 'International Tables Vol C Tables 4.2.6.8 and 6.1.1.4'
Br Br -0.2901 2.4595 'International Tables Vol C Tables 4.2.6.8 and 6.1.1.4'
loop_
_geom_angle_atom_site_label_1
_geom_angle_atom_site_label_2
_geom_angle_atom_site_label_3
_geom_angle
O2 S1 O3 119.78(7)
O2 S1 N1 108.03(7)
O3 S1 N1 105.13(7)
O2 S1 C10 108.11(7)
O3 S1 C10 107.62(7)
N1 S1 C10 107.61(7)
C6 O1 C9 117.42(13)
C2 N1 S1 121.46(11)
C2 C1 Br1 111.73(11)
N1 C2 C3 114.04(12)
N1 C2 C1 108.51(13)
C3 C2 C1 109.30(12)
C8 C3 C4 118.35(14)
C8 C3 C2 121.63(13)
C4 C3 C2 120.00(13)
C5 C4 C3 121.01(14)
C4 C5 C6 119.92(14)
O1 C6 C7 125.04(14)
O1 C6 C5 115.05(14)
C7 C6 C5 119.91(14)
C6 C7 C8 119.36(14)
C3 C8 C7 121.45(14)
C11 C10 C15 121.77(13)
C11 C10 S1 118.84(11)
C15 C10 S1 119.28(11)
C12 C11 C10 118.92(14)
C11 C12 C13 119.52(14)
C14 C13 C12 121.33(14)
C14 C13 C16 119.43(13)
C12 C13 C16 119.18(13)
C15 C14 C13 119.38(14)
C14 C15 C10 119.04(14)
F1 C16 F3 107.10(12)
F1 C16 F2 106.02(12)
F3 C16 F2 105.78(12)
F1 C16 C13 113.16(12)
F3 C16 C13 113.01(13)
F2 C16 C13 111.25(12)
loop_
_geom_bond_atom_site_label_1
_geom_bond_atom_site_label_2
_geom_bond_distance
Br1 C1 1.9518(17)
S1 O2 1.4302(11)
S1 O3 1.4433(12)
S1 N1 1.6220(13)
S1 C10 1.7685(16)
F1 C16 1.3381(19)
F2 C16 1.3555(18)
F3 C16 1.3412(18)
O1 C6 1.3640(18)
O1 C9 1.426(2)
N1 C2 1.468(2)
C1 C2 1.525(2)
C2 C3 1.519(2)
C3 C8 1.391(2)
C3 C4 1.395(2)
C4 C5 1.383(2)
C5 C6 1.396(2)
C6 C7 1.390(2)
C7 C8 1.391(2)
C10 C11 1.391(2)
C10 C15 1.393(2)
C11 C12 1.388(2)
C12 C13 1.392(2)
C13 C14 1.391(2)
C13 C16 1.498(2)
C14 C15 1.388(2)
loop_
_geom_hbond_atom_site_label_D
_geom_hbond_atom_site_label_H
_geom_hbond_atom_site_label_A
_geom_hbond_distance_DH
_geom_hbond_distance_HA
_geom_hbond_distance_DA
_geom_hbond_angle_DHA
_geom_hbond_site_symmetry_A
N1 H1N O3 0.81(2) 2.08(2) 2.8860(19) 174(2) 2_667
