#------------------------------------------------------------------------------
#$Date: 2016-03-21 05:34:46 +0200 (Mon, 21 Mar 2016) $
#$Revision: 178485 $
#$URL: svn://www.crystallography.net/cod/cif/4/03/06/4030694.cif $
#------------------------------------------------------------------------------
#
# This file is available in the Crystallography Open Database (COD),
# http://www.crystallography.net/
#
# All data on this site have been placed in the public domain by the
# contributors.
#
data_4030694
loop_
_publ_author_name
'Yu, Wesley Zongrong'
'Chen, Feng'
'Cheng, Yi An'
'Yeung, Ying-Yeung'
_publ_section_title
;
 Catalyst-free and metal-free electrophilic bromoamidation of unactivated
 olefins using the N-bromosuccinimide/sulfonamide protocol.
;
_journal_issue                   5
_journal_name_full               'The Journal of organic chemistry'
_journal_page_first              2815
_journal_page_last               2821
_journal_paper_doi               10.1021/jo502416r
_journal_volume                  80
_journal_year                    2015
_chemical_formula_sum            'C12 H13 Br F3 N O2 S'
_chemical_formula_weight         372.20
_chemical_name_systematic
; 
 ? 
;
_space_group_crystal_system      triclinic
_space_group_IT_number           2
_space_group_name_Hall           '-P 1'
_space_group_name_H-M_alt        'P -1'
_symmetry_space_group_name_Hall  '-P 1'
_symmetry_space_group_name_H-M   'P -1'
_atom_sites_solution_hydrogens   mixed
_audit_creation_method           SHELXL-2013
_cell_angle_alpha                65.766(2)
_cell_angle_beta                 80.838(2)
_cell_angle_gamma                77.224(2)
_cell_formula_units_Z            2
_cell_length_a                   6.9579(4)
_cell_length_b                   10.5160(6)
_cell_length_c                   10.5474(6)
_cell_measurement_reflns_used    9908
_cell_measurement_temperature    100(2)
_cell_measurement_theta_max      28.28
_cell_measurement_theta_min      3.01
_cell_volume                     684.28(7)
_computing_cell_refinement       'Bruker SAINT'
_computing_data_collection       'Bruker APEX2'
_computing_data_reduction        'Bruker SAINT'
_computing_molecular_graphics    'Bruker SHELXTL'
_computing_publication_material  'Bruker SHELXTL'
_computing_structure_refinement  'SHELXL-2013 (Sheldrick, 2013)'
_computing_structure_solution    'SHELXS-97 (Sheldrick 2008)'
_diffrn_ambient_temperature      100(2)
_diffrn_measured_fraction_theta_full 1.000
_diffrn_measured_fraction_theta_max 0.993
_diffrn_measurement_device_type  'Bruker D8 Venture'
_diffrn_measurement_method       '\f and \w scans'
_diffrn_radiation_type           MoK\a
_diffrn_radiation_wavelength     0.71073
_diffrn_reflns_av_R_equivalents  0.0179
_diffrn_reflns_av_unetI/netI     0.0132
_diffrn_reflns_Laue_measured_fraction_full 1.000
_diffrn_reflns_Laue_measured_fraction_max 0.993
_diffrn_reflns_limit_h_max       9
_diffrn_reflns_limit_h_min       -8
_diffrn_reflns_limit_k_max       13
_diffrn_reflns_limit_k_min       -14
_diffrn_reflns_limit_l_max       13
_diffrn_reflns_limit_l_min       -14
_diffrn_reflns_number            17323
_diffrn_reflns_point_group_measured_fraction_full 1.000
_diffrn_reflns_point_group_measured_fraction_max 0.993
_diffrn_reflns_theta_full        25.242
_diffrn_reflns_theta_max         28.290
_diffrn_reflns_theta_min         2.124
_diffrn_source                   'Sealed Microfocusing Source'
_exptl_absorpt_coefficient_mu    3.191
_exptl_absorpt_correction_T_max  0.7457
_exptl_absorpt_correction_T_min  0.5800
_exptl_absorpt_correction_type   multi-scan
_exptl_absorpt_process_details   'Sadabs, (Sheldrick 2012)'
_exptl_crystal_colour            Colourless
_exptl_crystal_density_diffrn    1.806
_exptl_crystal_density_meas      ?
_exptl_crystal_density_method    'Not Measured'
_exptl_crystal_description       Block
_exptl_crystal_F_000             372
_exptl_crystal_size_max          0.360
_exptl_crystal_size_mid          0.200
_exptl_crystal_size_min          0.140
_refine_diff_density_max         0.661
_refine_diff_density_min         -0.366
_refine_diff_density_rms         0.068
_refine_ls_extinction_method     none
_refine_ls_goodness_of_fit_ref   1.069
_refine_ls_hydrogen_treatment    mixed
_refine_ls_matrix_type           full
_refine_ls_number_parameters     185
_refine_ls_number_reflns         3378
_refine_ls_number_restraints     0
_refine_ls_restrained_S_all      1.069
_refine_ls_R_factor_all          0.0235
_refine_ls_R_factor_gt           0.0221
_refine_ls_shift/su_max          0.001
_refine_ls_shift/su_mean         0.000
_refine_ls_structure_factor_coef Fsqd
_refine_ls_weighting_details
'w=1/[\s^2^(Fo^2^)+(0.0329P)^2^+0.3989P] where P=(Fo^2^+2Fc^2^)/3'
_refine_ls_weighting_scheme      calc
_refine_ls_wR_factor_gt          0.0580
_refine_ls_wR_factor_ref         0.0587
_reflns_Friedel_coverage         0.000
_reflns_number_gt                3239
_reflns_number_total             3378
_reflns_threshold_expression     'I > 2\s(I)'
_cod_data_source_file            jo502416r_si_003.cif
_cod_data_source_block           E057
_cod_depositor_comments
;
The following automatic conversions were performed:

'_exptl_absorpt_correction_type' value 'Multi-scan' changed to
'multi-scan' according to
/usr/data/users/saulius/crontab/automatic-downloads/rss-feeds/ACS/lib/dictionaries/cif_core.dic
dictionary named 'cif_core.dic' version 2.4.2 from 2011-04-26.

'_exptl_crystal_density_meas' value 'Not Measured' was changed to '?'
- the value is perceived as not measured.

Automatic conversion script
Id: cif_fix_values 3008 2015-01-20 13:52:24Z robertas 

 Adding full bibliography for 4030691--4030696.cif.
;
_cod_database_code               4030694
#BEGIN Tags that were not found in dictionaries:
_shelx_space_group_comment
; 
The symmetry employed for this shelxl refinement is uniquely defined 
by the following loop, which should always be used as a source of 
symmetry information in preference to the above space-group names. 
They are only intended as comments. 
;
_shelx_estimated_absorpt_t_min   0.393
_shelx_estimated_absorpt_t_max   0.664
_shelxl_version_number           2013-4
_shelx_res_file
; 
TITL E057 in P-1 
CELL 0.71073 6.9579 10.5160 10.5474 65.766 80.838 77.224 
ZERR 2.00 0.0004 0.0006 0.0006 0.002 0.002 0.002 
LATT 1 
SFAC C  H  N  O  F  S  Br 
UNIT 24 26 2 4 6 2 2 
L.S. 4 
ACTA 
BOND $H 
FMAP 2 
PLAN 20 
HTAB 
EQIV $1 -x+1, -y+1, -z 
HTAB N1 O1_$1 
SIZE 0.36 0.20 0.14 
TEMP -173.150 
WGHT    0.032900    0.398900 
FVAR       0.18513 
BR1   7   -0.281113    0.956640   -0.089539    11.00000    0.01715    0.02280 = 
         0.02366   -0.01027   -0.00068    0.00421 
S1    6    0.217125    0.544905    0.120652    11.00000    0.01338    0.01443 = 
         0.01632   -0.00781   -0.00181   -0.00011 
F1    5    0.498370    0.900623    0.429254    11.00000    0.03934    0.01585 = 
         0.02507   -0.00978   -0.00250   -0.00642 
F2    5    0.736796    0.723067    0.484636    11.00000    0.02324    0.04406 = 
         0.04499   -0.03123   -0.01001    0.00091 
F3    5    0.461364    0.713253    0.611867    11.00000    0.04242    0.02531 = 
         0.01554   -0.00814   -0.00423   -0.00727 
O1    4    0.347612    0.417791    0.120339    11.00000    0.01740    0.01501 = 
         0.02309   -0.01041   -0.00337    0.00110 
O2    4    0.012456    0.540703    0.166449    11.00000    0.01456    0.02251 = 
         0.02322   -0.01106   -0.00052   -0.00266 
N1    3    0.233970    0.661566   -0.036571    11.00000    0.01571    0.01876 = 
         0.01598   -0.00796   -0.00140    0.00260 
H1N   2    0.344703    0.652827   -0.077211    11.00000    0.02179 
C1    1   -0.081727    0.803511   -0.119213    11.00000    0.01667    0.01807 = 
         0.02080   -0.00917   -0.00264    0.00028 
AFIX  13 
H1    2   -0.124014    0.709297   -0.067430    11.00000   -1.20000 
AFIX   0 
C2    1   -0.038912    0.834910   -0.274032    11.00000    0.02409    0.02777 = 
         0.01949   -0.01271   -0.00234   -0.00415 
AFIX  23 
H2A   2   -0.162579    0.870158   -0.322261    11.00000   -1.20000 
H2B   2    0.032396    0.749406   -0.289656    11.00000   -1.20000 
AFIX   0 
C3    1    0.090324    0.949202   -0.324636    11.00000    0.02007    0.02385 = 
         0.01682   -0.00617   -0.00060   -0.00246 
AFIX  23 
H3A   2    0.007572    1.044389   -0.349377    11.00000   -1.20000 
H3B   2    0.178065    0.946352   -0.407448    11.00000   -1.20000 
AFIX   0 
C4    1    0.212484    0.914782   -0.201379    11.00000    0.02510    0.02321 = 
         0.02021   -0.00556   -0.00205   -0.00965 
AFIX  23 
H4A   2    0.211123    1.001532   -0.185620    11.00000   -1.20000 
H4B   2    0.351247    0.874289   -0.220342    11.00000   -1.20000 
AFIX   0 
C5    1    0.114634    0.805928   -0.072380    11.00000    0.01810    0.01672 = 
         0.01878   -0.00811   -0.00265   -0.00190 
AFIX  13 
H5    2    0.092437    0.834553    0.008972    11.00000   -1.20000 
AFIX   0 
C6    1    0.312632    0.605894    0.227985    11.00000    0.01677    0.01191 = 
         0.01493   -0.00544   -0.00292    0.00025 
C7    1    0.505957    0.631383    0.198394    11.00000    0.01727    0.01970 = 
         0.01744   -0.01010    0.00134   -0.00235 
AFIX  43 
H7    2    0.585608    0.616089    0.122274    11.00000   -1.20000 
AFIX   0 
C8    1    0.580827    0.679564    0.281875    11.00000    0.01709    0.01907 = 
         0.02079   -0.00953   -0.00114   -0.00283 
AFIX  43 
H8    2    0.712170    0.698228    0.262770    11.00000   -1.20000 
AFIX   0 
C9    1    0.462565    0.700302    0.393453    11.00000    0.02030    0.01186 = 
         0.01662   -0.00611   -0.00409    0.00016 
C10   1    0.270183    0.673212    0.423519    11.00000    0.01990    0.02031 = 
         0.01718   -0.00996    0.00030    0.00019 
AFIX  43 
H10   2    0.191415    0.686645    0.500784    11.00000   -1.20000 
AFIX   0 
C11   1    0.193930    0.626183    0.339315    11.00000    0.01551    0.01880 = 
         0.01936   -0.00856    0.00075   -0.00157 
AFIX  43 
H11   2    0.062249    0.608224    0.357905    11.00000   -1.20000 
AFIX   0 
C12   1    0.540041    0.758634    0.479781    11.00000    0.02336    0.01767 = 
         0.01959   -0.00947   -0.00316   -0.00112 
  
HKLF 4 1 1 0 0 0 1 0 0 0 1 
  
REM  E057 in P-1 
REM R1 =  0.0221 for    3239 Fo > 4sig(Fo)  and  0.0235 for all    3378 data 
REM    185 parameters refined using      0 restraints 
  
END 
  
WGHT      0.0329      0.3988 
  
REM Instructions for potential hydrogen bonds 
HTAB N1 O1_$1 
EQIV $2 -x, -y+1, -z 
HTAB C1 O1_$2 
HTAB C1 O2 
  
REM Highest difference peak  0.661,  deepest hole -0.366,  1-sigma level  0.068 
Q1    1   0.0262  0.7441 -0.0824  11.00000  0.05    0.66 
Q2    1   0.0059  0.8777 -0.0672  11.00000  0.05    0.54 
Q3    1   0.0528  0.7676 -0.2412  11.00000  0.05    0.50 
Q4    1  -0.2037  0.9828 -0.0790  11.00000  0.05    0.43 
Q5    1   0.4959  0.7239  0.4392  11.00000  0.05    0.41 
Q6    1   0.1193  0.9729 -0.1889  11.00000  0.05    0.40 
Q7    1   0.3984  0.6212  0.2157  11.00000  0.05    0.35 
Q8    1   0.5421  0.6590  0.2393  11.00000  0.05    0.35 
Q9    1   0.1539  0.9137 -0.2631  11.00000  0.05    0.34 
Q10   1   0.1026  0.5335  0.1437  11.00000  0.05    0.34 
Q11   1   0.2578  0.6024  0.2970  11.00000  0.05    0.34 
Q12   1   0.2715  0.5846  0.1863  11.00000  0.05    0.33 
Q13   1   0.3829  0.6715  0.4124  11.00000  0.05    0.33 
Q14   1  -0.2809  0.9102 -0.0099  11.00000  0.05    0.32 
Q15   1   0.2225  0.6071  0.0361  11.00000  0.05    0.32 
Q16   1   0.1741  0.8632 -0.1394  11.00000  0.05    0.31 
Q17   1   0.5121  0.7059  0.3293  11.00000  0.05    0.31 
Q18   1   0.2393  0.6459  0.3848  11.00000  0.05    0.30 
Q19   1   0.0158  0.9001 -0.3062  11.00000  0.05    0.30 
Q20   1   0.7806  0.6340  0.2963  11.00000  0.05    0.29 
;
_shelx_res_checksum              80582
_shelx_hkl_file
; 
  -1   0   0   28.94    0.59 
  -1   0   0   28.18    0.56 
  -1   0   0   29.23    0.56 
   1   0   0   28.15    0.59 
   1   0   0   29.13    0.56 
   1   0   0   28.78    0.56 
   1   0   0   30.71    0.58 
  -2   0   0   86.29    1.63 
  -2   0   0   83.18    1.61 
  -2   0   0   81.14    1.69 
   2   0   0   81.95    1.69 
   2   0   0   88.11    1.68 
   2   0   0   80.55    1.63 
   2   0   0   83.00    1.61 
  -3   0   0    0.17    0.03 
   3   0   0    0.28    0.05 
   3   0   0    0.31    0.04 
   3   0   0    0.31    0.04 
   3   0   0    0.27    0.03 
  -4   0   0  212.19    4.02 
  -4   0   0  210.55    4.21 
  -4   0   0  211.16    4.02 
   4   0   0  205.51    4.03 
   4   0   0  214.17    4.16 
   4   0   0  205.15    4.21 
   4   0   0  207.30    4.02 
  -5   0   0   29.41    0.60 
   5   0   0   29.45    0.61 
   5   0   0   28.47    0.68 
   5   0   0   28.66    0.62 
   5   0   0   29.21    0.61 
  -6   0   0    8.39    0.22 
  -6   0   0    7.64    0.22 
   6   0   0    7.62    0.22 
   6   0   0    7.93    0.23 
   6   0   0    7.68    0.30 
   6   0   0    7.47    0.23 
  -7   0   0    2.24    0.15 
   7   0   0    2.55    0.14 
   7   0   0    2.59    0.17 
   7   0   0    2.77    0.18 
   7   0   0    2.71    0.23 
   8   0   0    0.39    0.11 
   8   0   0    0.28    0.08 
   8   0   0    0.25    0.14 
   8   0   0    0.30    0.13 
   9   0   0    0.70    0.22 
   9   0   0    0.79    0.12 
   8  -1   0    4.79    0.23 
   8  -1   0    4.58    0.19 
   8  -1   0    4.73    0.27 
   8  -1   0    5.23    0.34 
   7  -1   0   23.07    0.62 
   7  -1   0   22.97    0.52 
   7  -1   0   22.51    0.50 
   6  -1   0   17.22    0.39 
   6  -1   0   16.76    0.40 
   6  -1   0   16.77    0.47 
   6  -1   0   16.49    0.38 
  -6   1   0   16.32    0.37 
   5  -1   0   66.74    1.44 
   5  -1   0   66.68    1.33 
   5  -1   0   68.19    1.38 
   5  -1   0   67.66    1.34 
  -5   1   0   68.20    1.45 
  -5   1   0   68.54    1.33 
  -5   1   0   68.40    1.33 
   4  -1   0   36.86    0.76 
   4  -1   0   36.14    0.81 
   4  -1   0   37.33    0.74 
   4  -1   0   36.49    0.74 
  -4   1   0   35.98    0.81 
  -4   1   0   37.51    0.73 
  -4   1   0   36.53    0.74 
   3  -1   0    6.40    0.15 
   3  -1   0    6.08    0.18 
   3  -1   0    6.39    0.15 
  -3   1   0    6.13    0.19 
  -3   1   0    6.64    0.15 
  -3   1   0    6.14    0.15 
   2  -1   0   47.20    1.01 
   2  -1   0   50.16    0.96 
   2  -1   0   50.64    0.96 
  -2   1   0   49.12    0.96 
  -2   1   0   50.44    0.96 
  -2   1   0   48.34    1.01 
   1  -1   0    0.14    0.02 
   1  -1   0    0.14    0.02 
   1  -1   0    0.14    0.03 
  -1   1   0    0.13    0.02 
  -1   1   0    0.12    0.03 
  -1   1   0    0.21    0.02 
   0  -1   0    1.99    0.05 
  -1  -1   0    5.73    0.13 
  -1  -1   0    5.64    0.13 
  -1  -1   0    5.90    0.13 
   1   1   0    5.65    0.13 
   1   1   0    5.70    0.13 
  -2  -1   0    1.13    0.05 
  -2  -1   0    1.05    0.04 
   2   1   0    1.42    0.05 
   2   1   0    1.18    0.05 
   2   1   0    1.27    0.05 
   2   1   0    1.25    0.07 
  -3  -1   0    4.04    0.12 
  -3  -1   0    4.38    0.11 
   3   1   0    4.42    0.12 
   3   1   0    4.26    0.12 
   3   1   0    4.27    0.15 
   3   1   0    4.25    0.12 
  -4  -1   0    6.48    0.17 
   4   1   0    6.44    0.18 
   4   1   0    6.58    0.17 
   4   1   0    6.42    0.18 
   4   1   0    6.36    0.22 
  -5  -1   0   95.57    1.83 
  -5  -1   0   95.24    1.82 
   5   1   0   91.10    1.95 
   5   1   0   92.69    1.83 
   5   1   0   90.24    1.83 
   5   1   0   93.11    1.88 
  -6  -1   0    1.19    0.11 
  -6  -1   0    1.30    0.11 
   6   1   0    1.32    0.13 
   6   1   0    1.25    0.14 
   6   1   0    1.33    0.11 
   6   1   0    1.26    0.12 
  -7  -1   0   27.51    0.69 
  -7  -1   0   32.57    0.69 
   7   1   0   32.60    0.70 
   7   1   0   33.50    0.73 
   7   1   0   33.45    0.82 
   7   1   0   34.00    0.71 
  -8  -1   0    5.42    0.23 
   8   1   0    6.13    0.23 
   8   1   0    5.40    0.33 
   8   1   0    5.69    0.28 
   8   1   0    6.36    0.26 
   9   1   0   16.93    0.45 
   9   1   0   19.06    0.63 
   8  -2   0    1.93    0.23 
   8  -2   0    2.67    0.27 
   7  -2   0    4.40    0.17 
   7  -2   0    4.94    0.28 
   7  -2   0    4.95    0.20 
   6  -2   0    2.00    0.13 
   6  -2   0    1.83    0.12 
   6  -2   0    2.10    0.14 
   6  -2   0    2.21    0.19 
   5  -2   0   13.32    0.31 
   5  -2   0   12.96    0.32 
   5  -2   0   12.92    0.37 
   5  -2   0   13.37    0.30 
   5  -2   0   12.84    0.30 
  -5   2   0   12.91    0.29 
  -5   2   0   13.59    0.38 
  -5   2   0   13.46    0.30 
   4  -2   0   34.79    0.78 
   4  -2   0   35.76    0.72 
   4  -2   0   35.50    0.72 
  -4   2   0   35.48    0.71 
  -4   2   0   35.45    0.79 
  -4   2   0   35.72    0.71 
   3  -2   0    1.18    0.06 
   3  -2   0    1.05    0.07 
   3  -2   0    1.09    0.09 
  -3   2   0    1.15    0.06 
  -3   2   0    1.12    0.09 
  -3   2   0    1.18    0.06 
   2  -2   0  114.85    2.35 
   2  -2   0  117.66    2.30 
   2  -2   0  119.79    2.28 
  -2   2   0  116.92    2.27 
  -2   2   0  117.47    2.36 
  -2   2   0  118.49    2.27 
   1  -2   0  205.32    4.01 
   1  -2   0  201.50    4.14 
   1  -2   0  212.10    4.03 
  -1   2   0  208.32    4.02 
  -1   2   0  202.89    4.15 
   0  -2   0   32.34    0.65 
   0  -2   0   31.60    0.63 
   0  -2   0   32.12    0.63 
   0   2   0   32.21    0.63 
   0   2   0   32.18    0.64 
  -1  -2   0   28.54    0.59 
  -1  -2   0   28.88    0.60 
  -1  -2   0   30.20    0.59 
   1   2   0   28.77    0.59 
   1   2   0   29.33    0.59 
   1   2   0   29.57    0.60 
  -2  -2   0  148.52    2.92 
  -2  -2   0  153.75    3.00 
  -2  -2   0  151.74    2.95 
  -2  -2   0  152.30    3.02 
   2   2   0  150.25    2.96 
   2   2   0  145.59    3.06 
   2   2   0  148.28    2.94 
   2   2   0  154.50    3.03 
  -3  -2   0  195.72    3.76 
  -3  -2   0  189.80    3.66 
  -3  -2   0  195.99    3.80 
   3   2   0  186.94    3.66 
   3   2   0  186.01    3.66 
   3   2   0  185.18    3.81 
   3   2   0  190.89    3.80 
  -4  -2   0    6.83    0.19 
  -4  -2   0    6.92    0.17 
   4   2   0    6.28    0.22 
   4   2   0    6.36    0.18 
   4   2   0    6.49    0.19 
   4   2   0    6.52    0.19 
  -5  -2   0   31.85    0.67 
  -5  -2   0   30.94    0.66 
   5   2   0   31.33    0.74 
   5   2   0   30.82    0.67 
   5   2   0   31.71    0.67 
   5   2   0   31.28    0.68 
  -6  -2   0    1.81    0.12 
  -6  -2   0    1.90    0.14 
   6   2   0    1.65    0.18 
   6   2   0    1.55    0.12 
  -7  -2   0    0.67    0.11 
  -7  -2   0    0.60    0.09 
   7   2   0    0.62    0.13 
   7   2   0    0.66    0.11 
   7   2   0    0.53    0.09 
   7   2   0    0.77    0.11 
  -8  -2   0    1.78    0.21 
   8   2   0    1.93    0.16 
   8   2   0    2.21    0.24 
   8   2   0    1.94    0.23 
   8   2   0    2.02    0.21 
   9   2   0    0.50    0.18 
   9   2   0    0.20    0.11 
   8  -3   0   11.40    0.46 
   7  -3   0   14.86    0.47 
   7  -3   0   14.88    0.36 
   7  -3   0   14.88    0.41 
   6  -3   0   54.55    1.19 
   6  -3   0   53.29    1.10 
   6  -3   0   53.43    1.11 
   6  -3   0   54.62    1.08 
   6  -3   0   53.61    1.08 
   6  -3   0   51.13    1.13 
  -6   3   0   55.53    1.21 
   5  -3   0   26.03    0.55 
   5  -3   0   26.29    0.62 
   5  -3   0   25.97    0.55 
   5  -3   0   26.48    0.57 
  -5   3   0   26.51    0.54 
  -5   3   0   26.21    0.63 
  -5   3   0   25.64    0.54 
   4  -3   0   86.66    1.67 
   4  -3   0   84.41    1.76 
   4  -3   0   85.31    1.66 
  -4   3   0   84.37    1.66 
  -4   3   0   85.09    1.77 
  -4   3   0   85.71    1.66 
   3  -3   0    0.84    0.06 
   3  -3   0    0.87    0.07 
   3  -3   0    0.73    0.08 
  -3   3   0    0.71    0.09 
  -3   3   0    0.74    0.06 
  -3   3   0    0.76    0.06 
   2  -3   0  237.89    4.54 
   2  -3   0  230.91    4.64 
   2  -3   0  235.36    4.50 
  -2   3   0  229.10    4.67 
  -2   3   0  224.71    4.50 
  -2   3   0  229.36    4.48 
   1  -3   0  108.59    2.04 
   1  -3   0  104.94    2.06 
   1  -3   0  107.42    2.12 
  -1   3   0  105.44    2.07 
  -1   3   0  102.09    2.12 
   0  -3   0  136.88    2.73 
   0  -3   0  137.28    2.63 
   0  -3   0  135.45    2.70 
   0   3   0  134.57    2.62 
  -1  -3   0   96.10    1.94 
  -1  -3   0   98.25    1.89 
   1   3   0   97.13    1.89 
   1   3   0   96.96    1.93 
   1   3   0   97.51    1.89 
  -2  -3   0    1.79    0.07 
  -2  -3   0    1.91    0.09 
  -2  -3   0    1.76    0.08 
  -2  -3   0    1.84    0.08 
   2   3   0    1.84    0.08 
   2   3   0    1.81    0.08 
   2   3   0    1.92    0.09 
  -3  -3   0    1.29    0.06 
  -3  -3   0    1.28    0.09 
  -3  -3   0    1.32    0.08 
  -3  -3   0    1.30    0.08 
   3   3   0    1.59    0.08 
   3   3   0    1.48    0.09 
   3   3   0    1.52    0.10 
   3   3   0    1.52    0.09 
  -4  -3   0    0.04    0.03 
  -4  -3   0    0.04    0.04 
  -4  -3   0    0.06    0.05 
  -4  -3   0    0.03    0.05 
   4   3   0    0.11    0.06 
   4   3   0    0.07    0.04 
   4   3   0   -0.06    0.04 
   4   3   0    0.13    0.05 
  -5  -3   0   20.88    0.48 
  -5  -3   0   21.19    0.46 
   5   3   0   20.81    0.53 
   5   3   0   20.02    0.48 
   5   3   0   21.19    0.48 
   5   3   0   20.68    0.48 
  -6  -3   0   10.60    0.30 
   6   3   0   10.54    0.30 
   6   3   0   10.88    0.31 
  -7  -3   0   16.95    0.44 
  -7  -3   0   17.20    0.42 
   7   3   0   17.09    0.52 
   7   3   0   16.63    0.43 
   7   3   0   17.34    0.45 
   7   3   0   16.74    0.45 
  -8  -3   0   12.93    0.41 
   8   3   0   12.60    0.37 
   8   3   0   13.14    0.48 
   8   3   0   13.36    0.42 
   8   3   0   13.69    0.42 
   9   3   0   15.58    0.44 
   9   3   0   16.95    0.61 
   8  -4   0   13.06    0.51 
   7  -4   0    1.16    0.12 
   7  -4   0    1.00    0.16 
   7  -4   0    1.08    0.11 
   7  -4   0    0.72    0.15 
   6  -4   0   28.96    0.61 
   6  -4   0   29.47    0.71 
   6  -4   0   29.47    0.63 
   6  -4   0   28.86    0.65 
  -6   4   0   29.40    0.73 
   5  -4   0    1.57    0.16 
   5  -4   0    1.49    0.13 
   5  -4   0    1.33    0.10 
   5  -4   0    1.46    0.12 
  -5   4   0    1.45    0.16 
  -5   4   0    1.38    0.10 
  -5   4   0    1.57    0.09 
   4  -4   0   30.25    0.67 
   4  -4   0   30.32    0.62 
   4  -4   0   29.93    0.63 
  -4   4   0   30.27    0.69 
  -4   4   0   29.58    0.62 
  -4   4   0   29.63    0.62 
   3  -4   0   42.86    0.90 
   3  -4   0   42.98    0.86 
   3  -4   0   41.83    0.87 
  -3   4   0   43.70    0.86 
  -3   4   0   43.11    0.92 
   2  -4   0   20.37    0.43 
   2  -4   0   19.69    0.43 
   2  -4   0   19.78    0.42 
  -2   4   0   19.71    0.44 
  -2   4   0   19.67    0.42 
  -2   4   0   20.24    0.43 
   1  -4   0   86.66    1.69 
   1  -4   0   84.73    1.69 
   1  -4   0   88.35    1.73 
  -1   4   0   87.56    1.69 
  -1   4   0   84.68    1.73 
   0  -4   0    8.08    0.20 
   0  -4   0    7.48    0.20 
   0  -4   0    8.05    0.20 
   0   4   0    7.64    0.19 
   0   4   0    7.04    0.18 
   0   4   0    7.54    0.20 
  -1  -4   0   33.54    0.72 
  -1  -4   0   33.16    0.70 
  -1  -4   0   35.00    0.70 
   1   4   0   34.43    0.71 
   1   4   0   34.53    0.71 
   1   4   0   33.77    0.70 
  -2  -4   0    1.69    0.09 
  -2  -4   0    1.65    0.09 
  -2  -4   0    1.48    0.09 
  -2  -4   0    1.61    0.09 
   2   4   0    1.64    0.09 
   2   4   0    1.52    0.10 
   2   4   0    1.73    0.09 
  -3  -4   0  121.97    2.34 
  -3  -4   0  118.78    2.40 
  -3  -4   0  121.69    2.37 
  -3  -4   0  119.81    2.35 
   3   4   0  119.15    2.34 
   3   4   0  116.06    2.43 
   3   4   0  116.83    2.35 
   3   4   0  121.77    2.40 
  -4  -4   0    0.13    0.06 
  -4  -4   0    0.08    0.05 
  -4  -4   0    0.03    0.04 
   4   4   0    0.06    0.05 
   4   4   0    0.01    0.05 
   4   4   0    0.05    0.06 
   4   4   0    0.05    0.05 
  -5  -4   0   13.34    0.31 
  -5  -4   0   14.00    0.35 
  -5  -4   0   13.17    0.33 
   5   4   0   12.77    0.35 
   5   4   0   13.62    0.35 
   5   4   0   13.47    0.35 
   5   4   0   12.74    0.39 
  -6  -4   0    0.12    0.06 
  -6  -4   0    0.08    0.05 
   6   4   0    0.21    0.08 
   6   4   0    0.12    0.08 
   6   4   0    0.21    0.09 
   6   4   0    0.19    0.07 
  -7  -4   0   19.82    0.51 
   7   4   0   19.74    0.51 
   7   4   0   19.72    0.58 
   7   4   0   20.44    0.53 
   7   4   0   19.49    0.50 
   8   4   0   10.22    0.40 
   8   4   0    9.82    0.33 
   8   4   0   10.43    0.39 
   8   4   0   10.52    0.43 
   7  -5   0    0.78    0.17 
   7  -5   0    1.05    0.14 
   6  -5   0   34.93    0.77 
   6  -5   0   33.71    0.71 
   6  -5   0   34.72    0.73 
   6  -5   0   33.60    0.81 
  -6   5   0   33.70    0.83 
   5  -5   0    0.32    0.09 
   5  -5   0    0.19    0.06 
   5  -5   0    0.22    0.09 
   5  -5   0    0.29    0.08 
  -5   5   0    0.10    0.10 
  -5   5   0    0.22    0.06 
  -5   5   0    0.24    0.07 
   4  -5   0    6.28    0.19 
   4  -5   0    6.19    0.20 
   4  -5   0    6.28    0.21 
  -4   5   0    6.20    0.18 
  -4   5   0    6.60    0.23 
  -4   5   0    5.99    0.19 
   3  -5   0    8.89    0.23 
   3  -5   0    9.08    0.24 
  -3   5   0    9.12    0.26 
  -3   5   0    8.75    0.24 
  -3   5   0    9.01    0.23 
   2  -5   0   66.13    1.29 
   2  -5   0   63.81    1.31 
   2  -5   0   64.93    1.29 
  -2   5   0   64.09    1.33 
   1  -5   0  141.83    2.77 
   1  -5   0  145.04    2.77 
  -1   5   0  141.60    2.84 
  -1   5   0  140.77    2.77 
  -1   5   0  143.67    2.76 
   0  -5   0    3.50    0.13 
   0  -5   0    3.60    0.13 
   0  -5   0    3.48    0.13 
   0   5   0    3.47    0.13 
   0   5   0    3.24    0.11 
   0   5   0    3.59    0.12 
  -1  -5   0    8.36    0.24 
  -1  -5   0    8.47    0.24 
  -1  -5   0    8.89    0.24 
  -1  -5   0    8.61    0.24 
   1   5   0    9.53    0.23 
   1   5   0    8.92    0.24 
   1   5   0    8.90    0.23 
  -2  -5   0    9.72    0.26 
  -2  -5   0    9.23    0.26 
  -2  -5   0    9.65    0.26 
  -2  -5   0    9.16    0.26 
   2   5   0    9.29    0.26 
   2   5   0    9.55    0.25 
   2   5   0    9.55    0.25 
  -3  -5   0  144.17    2.85 
  -3  -5   0  140.35    2.80 
  -3  -5   0  143.08    2.87 
  -3  -5   0  146.11    2.80 
   3   5   0  143.37    2.87 
   3   5   0  140.24    2.79 
  -4  -5   0   96.77    1.96 
  -4  -5   0   96.61    1.92 
  -4  -5   0   97.07    1.93 
  -4  -5   0   96.85    1.93 
   4   5   0   93.40    1.93 
   4   5   0   95.61    1.92 
   4   5   0   94.88    2.01 
   4   5   0   98.68    1.97 
  -5  -5   0    8.95    0.24 
  -5  -5   0    8.91    0.27 
  -5  -5   0    8.99    0.29 
  -5  -5   0    9.23    0.27 
   5   5   0    8.85    0.29 
   5   5   0    9.31    0.32 
   5   5   0    8.91    0.27 
   5   5   0    9.12    0.28 
  -6  -5   0   47.24    1.02 
  -6  -5   0   46.73    1.00 
  -6  -5   0   46.03    0.96 
   6   5   0   48.03    1.01 
   6   5   0   46.94    1.03 
   6   5   0   46.86    1.09 
   6   5   0   46.44    1.02 
  -7  -5   0    1.32    0.13 
   7   5   0    1.32    0.15 
   7   5   0    1.52    0.16 
   7   5   0    1.38    0.15 
   7   5   0    1.12    0.16 
   8   5   0   21.26    0.64 
   8   5   0   20.13    0.54 
   7  -6   0    0.55    0.18 
   6  -6   0   15.90    0.45 
   6  -6   0   15.35    0.38 
   6  -6   0   15.69    0.41 
  -6   6   0   15.90    0.50 
   5  -6   0   32.74    0.70 
   5  -6   0   33.69    0.75 
   5  -6   0   33.05    0.72 
   5  -6   0   33.70    0.76 
  -5   6   0   32.17    0.78 
  -5   6   0   32.69    0.70 
  -5   6   0   32.76    0.70 
   4  -6   0    1.13    0.11 
   4  -6   0    1.13    0.12 
   4  -6   0    1.11    0.10 
   4  -6   0    1.06    0.13 
  -4   6   0    1.33    0.15 
  -4   6   0    1.23    0.11 
  -4   6   0    1.09    0.10 
   3  -6   0   27.04    0.59 
   3  -6   0   27.40    0.60 
   3  -6   0   26.97    0.59 
   3  -6   0   27.75    0.64 
  -3   6   0   26.95    0.59 
  -3   6   0   27.10    0.61 
  -3   6   0   26.64    0.59 
   2  -6   0    4.98    0.17 
   2  -6   0    5.08    0.17 
   2  -6   0    5.31    0.16 
  -2   6   0    5.08    0.17 
  -2   6   0    5.34    0.18 
   1  -6   0  110.82    2.12 
   1  -6   0  107.90    2.18 
   1  -6   0  105.64    2.13 
  -1   6   0  106.63    2.17 
  -1   6   0  108.76    2.12 
   0  -6   0    4.80    0.16 
   0  -6   0    4.83    0.17 
   0  -6   0    4.65    0.17 
   0   6   0    4.44    0.15 
   0   6   0    4.27    0.14 
   0   6   0    4.74    0.17 
  -1  -6   0   15.79    0.39 
  -1  -6   0   16.21    0.39 
  -1  -6   0   16.30    0.40 
  -1  -6   0   16.41    0.40 
   1   6   0   15.73    0.40 
   1   6   0   16.23    0.38 
  -2  -6   0   10.09    0.28 
  -2  -6   0    9.94    0.28 
  -2  -6   0    9.60    0.28 
  -2  -6   0    9.90    0.28 
   2   6   0    9.87    0.29 
   2   6   0   10.33    0.28 
  -3  -6   0   27.04    0.64 
  -3  -6   0   28.66    0.63 
  -3  -6   0   28.32    0.63 
  -3  -6   0   28.10    0.64 
   3   6   0   28.48    0.63 
   3   6   0   27.79    0.63 
  -4  -6   0    2.42    0.13 
  -4  -6   0    2.55    0.15 
  -4  -6   0    2.52    0.16 
  -4  -6   0    2.35    0.17 
   4   6   0    2.65    0.14 
   4   6   0    2.81    0.16 
   4   6   0    2.45    0.16 
   4   6   0    2.80    0.17 
  -5  -6   0   18.04    0.48 
  -5  -6   0   18.12    0.46 
  -5  -6   0   17.71    0.46 
  -5  -6   0   17.98    0.43 
   5   6   0   17.96    0.48 
   5   6   0   17.80    0.50 
   5   6   0   17.77    0.46 
   5   6   0   18.32    0.47 
  -6  -6   0    0.38    0.12 
  -6  -6   0    0.43    0.10 
  -6  -6   0    0.36    0.09 
  -6  -6   0    0.28    0.08 
   6   6   0    0.51    0.13 
   6   6   0    0.48    0.12 
   6   6   0    0.54    0.10 
   6   6   0    0.43    0.10 
  -7  -6   0    0.29    0.14 
  -7  -6   0    0.18    0.08 
  -7  -6   0    0.20    0.10 
   7   6   0    0.23    0.11 
   7   6   0    0.33    0.13 
   7   6   0    0.21    0.14 
   7   6   0    0.15    0.10 
   8   6   0    0.62    0.18 
   8   6   0    0.30    0.11 
   6  -7   0    7.81    0.33 
   6  -7   0    8.74    0.37 
   6  -7   0    8.20    0.26 
   6  -7   0    8.33    0.31 
  -6   7   0    8.49    0.41 
   5  -7   0    9.08    0.33 
   5  -7   0    8.32    0.26 
   5  -7   0    8.42    0.29 
   5  -7   0    8.01    0.30 
  -5   7   0    8.40    0.33 
  -5   7   0    8.79    0.28 
   4  -7   0   16.53    0.44 
   4  -7   0   17.45    0.48 
   4  -7   0   17.13    0.42 
   4  -7   0   17.61    0.42 
  -4   7   0   17.27    0.43 
  -4   7   0   17.82    0.46 
  -4   7   0   17.20    0.42 
   3  -7   0    4.75    0.18 
   3  -7   0    4.65    0.21 
   3  -7   0    5.06    0.18 
   3  -7   0    4.74    0.20 
  -3   7   0    4.73    0.20 
  -3   7   0    4.67    0.19 
   2  -7   0    2.84    0.16 
   2  -7   0    2.93    0.14 
   2  -7   0    2.88    0.15 
  -2   7   0    2.73    0.14 
  -2   7   0    3.08    0.15 
   1  -7   0    2.35    0.14 
   1  -7   0    2.23    0.14 
   1  -7   0    2.49    0.14 
   1  -7   0    2.27    0.14 
  -1   7   0    2.71    0.12 
  -1   7   0    2.70    0.13 
  -1   7   0    2.55    0.15 
   0  -7   0    0.61    0.08 
   0  -7   0    0.58    0.08 
   0  -7   0    0.53    0.08 
   0  -7   0    0.54    0.08 
   0   7   0    0.60    0.09 
   0   7   0    0.43    0.06 
   0   7   0    0.56    0.06 
  -1  -7   0   13.16    0.35 
  -1  -7   0   13.48    0.36 
  -1  -7   0   13.21    0.35 
  -1  -7   0   13.64    0.35 
   1   7   0   13.01    0.36 
   1   7   0   11.73    0.35 
  -2  -7   0   19.94    0.50 
  -2  -7   0   20.55    0.51 
  -2  -7   0   20.81    0.51 
  -2  -7   0   21.14    0.50 
   2   7   0   21.08    0.49 
   2   7   0   20.45    0.51 
   2   7   0   20.67    0.49 
  -3  -7   0    7.68    0.25 
  -3  -7   0    7.49    0.27 
  -3  -7   0    7.96    0.26 
  -3  -7   0    7.58    0.26 
   3   7   0    7.67    0.25 
   3   7   0    8.04    0.26 
  -4  -7   0   25.22    0.62 
  -4  -7   0   25.22    0.59 
  -4  -7   0   25.44    0.62 
  -4  -7   0   26.94    0.61 
   4   7   0   25.79    0.61 
   4   7   0   25.64    0.60 
   4   7   0   24.87    0.62 
   4   7   0   24.27    0.62 
  -5  -7   0    2.09    0.19 
  -5  -7   0    1.91    0.17 
  -5  -7   0    2.08    0.20 
  -5  -7   0    1.78    0.14 
   5   7   0    1.66    0.18 
   5   7   0    2.14    0.16 
   5   7   0    2.09    0.20 
  -6  -7   0   17.19    0.43 
  -6  -7   0   17.43    0.51 
  -6  -7   0   17.12    0.47 
  -6  -7   0   17.64    0.47 
   6   7   0   16.98    0.47 
   6   7   0   16.45    0.49 
   6   7   0   17.37    0.49 
   6   7   0   16.68    0.52 
  -7  -7   0    0.66    0.17 
  -7  -7   0    0.50    0.11 
  -7  -7   0    0.37    0.13 
   7   7   0    0.35    0.15 
   7   7   0    0.67    0.18 
   7   7   0    0.44    0.13 
   8   7   0   17.91    0.53 
   8   7   0   18.90    0.62 
   6  -8   0    5.41    0.34 
   6  -8   0    5.36    0.23 
   5  -8   0   13.50    0.37 
   5  -8   0   13.83    0.40 
   5  -8   0   14.37    0.47 
   5  -8   0   12.87    0.42 
  -5   8   0   14.23    0.44 
   4  -8   0    0.31    0.08 
   4  -8   0    0.37    0.12 
   4  -8   0    0.39    0.11 
   4  -8   0    0.42    0.13 
  -4   8   0    0.39    0.12 
   3  -8   0   65.96    1.39 
   3  -8   0   66.80    1.38 
   3  -8   0   69.82    1.46 
  -3   8   0   65.78    1.38 
  -3   8   0   67.46    1.41 
   2  -8   0    9.20    0.29 
   2  -8   0    8.99    0.29 
   2  -8   0    9.90    0.32 
   2  -8   0    9.56    0.29 
  -2   8   0    9.38    0.27 
   1  -8   0   44.90    0.97 
   1  -8   0   43.84    0.95 
   1  -8   0   43.54    0.93 
   1  -8   0   44.47    0.99 
  -1   8   0   44.16    0.93 
  -1   8   0   43.34    0.95 
  -1   8   0   43.53    0.93 
   0  -8   0   42.84    0.92 
   0  -8   0   43.57    0.95 
   0  -8   0   43.68    0.98 
   0  -8   0   42.59    0.94 
   0   8   0   43.49    0.91 
   0   8   0   42.97    0.91 
   0   8   0   42.90    0.94 
  -1  -8   0   87.87    1.78 
  -1  -8   0   88.36    1.84 
  -1  -8   0   86.28    1.80 
  -1  -8   0   88.01    1.84 
   1   8   0   87.62    1.80 
   1   8   0   91.47    1.80 
  -2  -8   0   13.75    0.39 
  -2  -8   0   13.89    0.38 
  -2  -8   0   13.48    0.38 
  -2  -8   0   13.44    0.39 
   2   8   0   14.26    0.38 
   2   8   0   13.84    0.40 
  -3  -8   0   25.72    0.64 
  -3  -8   0   26.87    0.63 
  -3  -8   0   26.99    0.64 
  -3  -8   0   25.88    0.65 
   3   8   0   26.81    0.63 
  -4  -8   0   13.80    0.39 
  -4  -8   0   12.76    0.41 
  -4  -8   0   13.92    0.38 
   4   8   0   13.63    0.40 
   4   8   0   13.15    0.41 
   4   8   0   12.82    0.40 
  -5  -8   0    2.93    0.19 
  -5  -8   0    2.77    0.24 
  -5  -8   0    2.80    0.22 
  -5  -8   0    2.69    0.20 
   5   8   0    2.53    0.22 
   5   8   0    2.71    0.23 
   5   8   0    2.49    0.23 
   5   8   0    2.62    0.16 
  -6  -8   0    3.68    0.31 
  -6  -8   0    3.45    0.22 
  -6  -8   0    3.79    0.27 
   6   8   0    3.92    0.27 
   6   8   0    3.78    0.28 
   6   8   0    3.60    0.29 
  -7  -8   0    0.06    0.16 
   7   8   0    0.27    0.13 
   7   8   0    0.02    0.15 
   8   8   0    1.40    0.22 
   5  -9   0   30.19    0.70 
   4  -9   0    0.63    0.11 
   3  -9   0   17.65    0.48 
   3  -9   0   17.71    0.48 
   3  -9   0   17.54    0.51 
   3  -9   0   17.84    0.46 
  -3   9   0   17.24    0.45 
  -3   9   0   17.30    0.48 
   2  -9   0    0.31    0.11 
   2  -9   0    0.09    0.10 
   2  -9   0    0.14    0.10 
   2  -9   0    0.11    0.08 
  -2   9   0    0.07    0.11 
  -2   9   0    0.11    0.08 
  -2   9   0    0.01    0.06 
   1  -9   0    4.86    0.23 
   1  -9   0    4.69    0.22 
   1  -9   0    4.92    0.22 
   1  -9   0    4.91    0.23 
  -1   9   0    5.22    0.25 
  -1   9   0    5.05    0.19 
  -1   9   0    4.88    0.19 
   0  -9   0    5.33    0.23 
   0  -9   0    5.24    0.24 
   0  -9   0    5.37    0.23 
   0   9   0    5.46    0.21 
   0   9   0    5.61    0.20 
   0   9   0    5.35    0.25 
  -1  -9   0    0.75    0.11 
  -1  -9   0    0.69    0.11 
  -1  -9   0    0.92    0.11 
   1   9   0    0.73    0.09 
   1   9   0    1.15    0.15 
   1   9   0    1.17    0.11 
  -2  -9   0    9.20    0.32 
  -2  -9   0    9.05    0.32 
  -2  -9   0    9.65    0.32 
  -2  -9   0    9.48    0.33 
   2   9   0    9.47    0.34 
   2   9   0    9.65    0.31 
  -3  -9   0    1.87    0.21 
  -3  -9   0    1.75    0.19 
  -3  -9   0    1.99    0.19 
  -3  -9   0    1.98    0.18 
   3   9   0    1.68    0.20 
  -4  -9   0    1.42    0.17 
  -4  -9   0    1.72    0.19 
  -4  -9   0    1.82    0.17 
  -4  -9   0    2.00    0.21 
   4   9   0    2.15    0.21 
   4   9   0    1.59    0.19 
   4   9   0    1.91    0.18 
  -5  -9   0    6.47    0.31 
  -5  -9   0    6.17    0.28 
  -5  -9   0    6.45    0.30 
  -5  -9   0    6.52    0.35 
   5   9   0    6.52    0.32 
   5   9   0    6.60    0.32 
   5   9   0    6.10    0.32 
  -6  -9   0   16.27    0.47 
  -6  -9   0   15.84    0.51 
  -6  -9   0   16.64    0.56 
   6   9   0   15.92    0.54 
   6   9   0   16.24    0.52 
   6   9   0   16.60    0.53 
  -7  -9   0    7.18    0.38 
   7   9   0    7.56    0.37 
   7   9   0    6.79    0.42 
   4 -10   0   14.49    0.48 
   4 -10   0   14.02    0.42 
   3 -10   0    4.20    0.27 
   3 -10   0    4.36    0.22 
   2 -10   0   14.49    0.44 
   2 -10   0   14.08    0.43 
   2 -10   0   14.62    0.42 
  -2  10   0   14.88    0.39 
   1 -10   0    2.00    0.17 
   1 -10   0    1.90    0.19 
   1 -10   0    1.40    0.15 
  -1  10   0    1.82    0.16 
  -1  10   0    1.95    0.19 
   0 -10   0   14.80    0.44 
   0 -10   0   14.18    0.44 
   0 -10   0   15.15    0.44 
   0  10   0   14.90    0.38 
   0  10   0   14.92    0.41 
   0  10   0   15.07    0.46 
  -1 -10   0   16.20    0.47 
  -1 -10   0   16.26    0.48 
  -1 -10   0   16.90    0.48 
  -1 -10   0   16.66    0.47 
   1  10   0   15.97    0.42 
   1  10   0   16.52    0.45 
   1  10   0   15.85    0.49 
  -2 -10   0   36.19    0.87 
  -2 -10   0   36.06    0.86 
  -2 -10   0   37.16    0.84 
  -2 -10   0   35.39    0.86 
   2  10   0   36.73    0.83 
   2  10   0   35.04    0.87 
  -3 -10   0    1.88    0.17 
  -3 -10   0    1.33    0.20 
  -3 -10   0    1.45    0.16 
  -3 -10   0    1.88    0.18 
   3  10   0    1.87    0.21 
   3  10   0    1.22    0.16 
  -4 -10   0    7.23    0.33 
  -4 -10   0    7.14    0.31 
  -4 -10   0    7.02    0.36 
  -4 -10   0    7.15    0.33 
   4  10   0    7.18    0.32 
   4  10   0    7.24    0.36 
   4  10   0    6.76    0.34 
  -5 -10   0    0.49    0.16 
  -5 -10   0    0.37    0.17 
  -5 -10   0    0.53    0.16 
   5  10   0    0.50    0.16 
   5  10   0    0.56    0.19 
   5  10   0    0.42    0.17 
  -6 -10   0    2.85    0.29 
  -6 -10   0    3.06    0.33 
  -6 -10   0    3.23    0.30 
   6  10   0    2.83    0.26 
   6  10   0    2.47    0.25 
   3 -11   0   24.24    0.67 
   2 -11   0    8.23    0.35 
   2 -11   0    7.52    0.31 
   1 -11   0    2.77    0.25 
   1 -11   0    3.07    0.22 
   0 -11   0    0.47    0.13 
   0 -11   0    0.60    0.17 
   0 -11   0    0.57    0.12 
   0  11   0    0.68    0.12 
   0  11   0    0.53    0.18 
  -1 -11   0    1.87    0.21 
  -1 -11   0    1.99    0.22 
  -1 -11   0    2.39    0.27 
   1  11   0    1.74    0.20 
  -2 -11   0    2.70    0.24 
  -2 -11   0    2.88    0.29 
  -2 -11   0    2.59    0.26 
   2  11   0    3.01    0.25 
   2  11   0    2.86    0.25 
  -3 -11   0    4.99    0.33 
  -3 -11   0    4.37    0.28 
  -3 -11   0    4.98    0.32 
   3  11   0    4.97    0.31 
   3  11   0    4.76    0.28 
  -4 -11   0    0.04    0.13 
  -4 -11   0    0.00    0.18 
  -4 -11   0   -0.16    0.15 
   4  11   0    0.30    0.16 
   4  11   0    0.07    0.15 
   4  11   0    0.09    0.17 
  -5 -11   0    7.43    0.40 
  -5 -11   0    8.09    0.47 
   5  11   0    7.91    0.43 
   5  11   0    6.96    0.40 
   5  11   0    7.28    0.45 
   1 -12   0    0.38    0.14 
   1 -12   0    0.18    0.15 
   0 -12   0   16.85    0.53 
   0 -12   0   17.02    0.53 
  -1 -12   0   -0.10    0.12 
  -1 -12   0   -0.19    0.14 
  -2 -12   0    6.58    0.46 
  -2 -12   0    5.87    0.31 
  -2 -12   0    5.29    0.35 
   2  12   0    5.36    0.31 
   2  12   0    5.61    0.42 
  -3 -12   0   -0.19    0.13 
  -3 -12   0   -0.03    0.21 
  -3 -12   0   -0.16    0.18 
   3  12   0    0.00    0.16 
   3  12   0    0.05    0.21 
  -4 -12   0   11.31    0.52 
  -4 -12   0   11.73    0.48 
   4  12   0   11.54    0.48 
   4  12   0   11.61    0.54 
   3  12  -1    1.39    0.31 
   3  12  -1    1.23    0.23 
  -3 -12   1    1.09    0.25 
  -3 -12   1    1.48    0.22 
  -2 -12   1    4.55    0.32 
  -2 -12   1    4.19    0.38 
  -1 -12   1    3.58    0.28 
  -1 -12   1    2.96    0.31 
   0 -12   1    5.29    0.35 
   0 -12   1    5.32    0.33 
   5  11  -1    1.26    0.25 
   5  11  -1    0.62    0.22 
  -5 -11   1    0.75    0.25 
  -5 -11   1    0.86    0.22 
   4  11  -1    4.75    0.35 
   4  11  -1    3.99    0.38 
   4  11  -1    4.62    0.40 
  -4 -11   1    3.89    0.33 
  -4 -11   1    4.66    0.41 
   3  11  -1    0.73    0.18 
  -3 -11   1    0.37    0.19 
  -3 -11   1    0.68    0.19 
  -3 -11   1    0.25    0.15 
   2  11  -1    9.78    0.45 
   2  11  -1   11.07    0.40 
  -2 -11   1    9.76    0.42 
  -2 -11   1   10.73    0.44 
  -2 -11   1   10.02    0.40 
   1  11  -1    0.18    0.14 
   1  11  -1    0.25    0.20 
  -1 -11   1   -0.07    0.18 
  -1 -11   1    0.03    0.11 
  -1 -11   1    0.05    0.14 
   0  11  -1    5.02    0.29 
   0  11  -1    4.71    0.37 
   0 -11   1    4.35    0.28 
   0 -11   1    4.38    0.29 
   1 -11   1    9.03    0.36 
   1 -11   1    8.92    0.38 
   2 -11   1   -0.06    0.11 
   2 -11   1    0.09    0.14 
   6  10  -1    0.93    0.23 
   6  10  -1    1.03    0.20 
  -6 -10   1    1.11    0.22 
  -6 -10   1    1.09    0.22 
   5  10  -1    1.75    0.21 
   5  10  -1    2.35    0.25 
   5  10  -1    2.59    0.31 
  -5 -10   1    2.63    0.31 
  -5 -10   1    2.58    0.28 
  -5 -10   1    1.83    0.23 
   4  10  -1   16.01    0.52 
   4  10  -1   15.67    0.54 
  -4 -10   1   16.64    0.51 
  -4 -10   1   16.11    0.52 
  -4 -10   1   16.44    0.50 
  -4 -10   1   16.46    0.56 
   3  10  -1   18.94    0.53 
  -3 -10   1   19.32    0.54 
  -3 -10   1   17.84    0.53 
  -3 -10   1   18.88    0.55 
  -3 -10   1   18.38    0.58 
   2  10  -1    3.67    0.25 
   2  10  -1    3.69    0.25 
   2  10  -1    3.12    0.28 
  -2 -10   1    3.59    0.28 
  -2 -10   1    4.03    0.27 
  -2 -10   1    3.44    0.25 
   1  10  -1    9.77    0.39 
   1  10  -1    9.20    0.32 
   1  10  -1    9.27    0.33 
  -1 -10   1    9.44    0.37 
  -1 -10   1    9.50    0.35 
  -1 -10   1    8.71    0.35 
   0  10  -1    9.23    0.32 
   0  10  -1    9.60    0.31 
   0  10  -1    9.36    0.38 
   0 -10   1    9.00    0.35 
   0 -10   1    9.46    0.36 
   0 -10   1    9.37    0.35 
  -1  10  -1   32.06    0.79 
   1 -10   1   31.16    0.76 
   1 -10   1   31.91    0.77 
   1 -10   1   31.89    0.78 
   2 -10   1    1.82    0.18 
   2 -10   1    1.48    0.17 
   3 -10   1   14.48    0.47 
   3 -10   1   14.78    0.44 
   4 -10   1    3.22    0.31 
   7   9  -1   -0.23    0.18 
   7   9  -1    0.03    0.17 
  -7  -9   1    0.06    0.19 
   6   9  -1    3.65    0.34 
   6   9  -1    3.83    0.31 
  -6  -9   1    3.95    0.39 
  -6  -9   1    3.45    0.32 
   5   9  -1    2.39    0.28 
   5   9  -1    2.52    0.27 
   5   9  -1    2.72    0.27 
  -5  -9   1    2.39    0.27 
  -5  -9   1    2.51    0.25 
   4   9  -1   14.32    0.47 
   4   9  -1   14.50    0.44 
  -4  -9   1   14.41    0.46 
  -4  -9   1   13.54    0.47 
  -4  -9   1   14.69    0.44 
   3   9  -1    3.39    0.23 
   3   9  -1    3.38    0.25 
  -3  -9   1    2.59    0.22 
  -3  -9   1    3.38    0.25 
  -3  -9   1    3.11    0.22 
   2   9  -1    2.94    0.24 
  -2  -9   1    2.54    0.20 
  -2  -9   1    3.36    0.22 
  -2  -9   1    2.69    0.22 
   1   9  -1    2.89    0.19 
   1   9  -1    2.98    0.23 
   1   9  -1    2.87    0.18 
  -1  -9   1    2.97    0.21 
  -1  -9   1    2.46    0.20 
   0   9  -1    2.03    0.17 
   0   9  -1    2.28    0.16 
   0   9  -1    1.89    0.21 
   0  -9   1    2.17    0.19 
   0  -9   1    1.85    0.19 
   0  -9   1    1.90    0.19 
  -1   9  -1    6.74    0.24 
  -1   9  -1    6.54    0.29 
  -1   9  -1    6.53    0.24 
   1  -9   1    6.33    0.27 
   1  -9   1    6.64    0.27 
   1  -9   1    6.82    0.28 
   1  -9   1    6.50    0.27 
  -2   9  -1    1.53    0.17 
  -2   9  -1    1.65    0.15 
   2  -9   1    1.69    0.17 
   2  -9   1    1.71    0.19 
   2  -9   1    1.69    0.19 
   2  -9   1    1.78    0.17 
  -3   9  -1    9.32    0.34 
   3  -9   1    9.37    0.35 
   3  -9   1    9.27    0.31 
   3  -9   1    9.13    0.35 
   4  -9   1    9.13    0.31 
   7   8  -1    0.10    0.17 
   7   8  -1    0.03    0.14 
   6   8  -1    2.43    0.29 
   6   8  -1    2.72    0.25 
   6   8  -1    2.52    0.24 
  -6  -8   1    2.67    0.27 
  -6  -8   1    3.29    0.32 
  -6  -8   1    2.55    0.22 
   5   8  -1    9.01    0.36 
   5   8  -1    8.99    0.31 
   5   8  -1    9.78    0.36 
   5   8  -1    9.10    0.37 
  -5  -8   1    9.38    0.33 
  -5  -8   1   10.07    0.36 
  -5  -8   1    9.20    0.32 
  -5  -8   1    9.05    0.38 
  -4  -8   1    0.20    0.10 
  -4  -8   1    0.23    0.10 
  -4  -8   1    0.20    0.10 
  -4  -8   1    0.12    0.12 
   3   8  -1   18.00    0.50 
   3   8  -1   18.25    0.48 
  -3  -8   1   17.91    0.50 
  -3  -8   1   18.90    0.48 
  -3  -8   1   18.07    0.50 
  -3  -8   1   18.39    0.48 
   2   8  -1   16.59    0.43 
   2   8  -1   15.94    0.45 
  -2  -8   1   15.38    0.45 
  -2  -8   1   16.29    0.43 
  -2  -8   1   16.59    0.44 
   1   8  -1   63.17    1.27 
   1   8  -1   60.56    1.26 
   1   8  -1   58.03    1.28 
  -1  -8   1   59.20    1.28 
  -1  -8   1   60.94    1.26 
  -1  -8   1   59.26    1.30 
   0   8  -1    0.15    0.07 
   0   8  -1    0.18    0.08 
   0   8  -1    0.19    0.09 
   0  -8   1    0.23    0.09 
   0  -8   1   -0.01    0.08 
  -1   8  -1   36.80    0.80 
  -1   8  -1   36.62    0.83 
  -1   8  -1   36.60    0.80 
   1  -8   1   37.30    0.85 
   1  -8   1   36.90    0.81 
   1  -8   1   35.46    0.82 
  -2   8  -1    0.17    0.09 
  -2   8  -1    0.18    0.11 
   2  -8   1    0.16    0.09 
   2  -8   1    0.29    0.09 
   2  -8   1    0.14    0.07 
   2  -8   1    0.13    0.09 
   3  -8   1   16.86    0.48 
   3  -8   1   16.55    0.45 
   3  -8   1   15.82    0.43 
  -4   8  -1    4.44    0.26 
  -4   8  -1    4.20    0.27 
   4  -8   1    3.99    0.26 
   4  -8   1    4.59    0.27 
   4  -8   1    4.01    0.20 
   5  -8   1   13.90    0.47 
   5  -8   1   13.09    0.41 
   5  -8   1   13.00    0.38 
   8   7  -1   18.94    0.64 
   7   7  -1    0.12    0.15 
   7   7  -1    0.05    0.12 
  -7  -7   1    0.05    0.15 
  -7  -7   1   -0.06    0.13 
   6   7  -1   46.43    1.07 
   6   7  -1   46.67    1.12 
   6   7  -1   45.52    1.05 
   6   7  -1   48.27    1.05 
  -6  -7   1   47.92    1.07 
  -6  -7   1   46.51    1.04 
  -6  -7   1   46.24    1.01 
   5   7  -1   24.43    0.60 
   5   7  -1   24.36    0.63 
   5   7  -1   25.68    0.62 
   5   7  -1   24.67    0.66 
  -5  -7   1   24.28    0.59 
  -5  -7   1   25.27    0.60 
  -5  -7   1   24.98    0.62 
  -5  -7   1   25.33    0.64 
   4   7  -1   24.32    0.59 
   4   7  -1   25.47    0.60 
  -4  -7   1   25.51    0.60 
  -4  -7   1   24.35    0.62 
  -4  -7   1   24.66    0.62 
  -4  -7   1   25.43    0.59 
   3   7  -1   13.11    0.37 
   3   7  -1   13.07    0.39 
   3   7  -1   14.52    0.38 
  -3  -7   1   13.42    0.39 
  -3  -7   1   13.88    0.37 
  -3  -7   1   13.74    0.37 
  -3  -7   1   13.61    0.39 
   2   7  -1    8.79    0.30 
   2   7  -1    9.17    0.28 
  -2  -7   1    9.35    0.28 
  -2  -7   1    9.42    0.29 
  -2  -7   1    8.88    0.29 
  -2  -7   1    9.11    0.30 
   1   7  -1    6.08    0.24 
  -1  -7   1    6.13    0.22 
  -1  -7   1    5.97    0.23 
  -1  -7   1    5.81    0.23 
  -1  -7   1    5.95    0.22 
   0   7  -1    0.05    0.06 
   0   7  -1    0.18    0.06 
   0   7  -1    0.15    0.07 
   0  -7   1    0.24    0.08 
   0  -7   1    0.16    0.07 
   0  -7   1    0.10    0.07 
   0  -7   1    0.20    0.07 
  -1   7  -1    7.93    0.24 
  -1   7  -1    8.16    0.27 
  -1   7  -1    8.30    0.24 
   1  -7   1    8.22    0.27 
   1  -7   1    7.60    0.26 
   1  -7   1    8.12    0.27 
   1  -7   1    8.21    0.25 
  -2   7  -1   13.39    0.36 
  -2   7  -1   13.60    0.37 
  -2   7  -1   13.92    0.36 
   2  -7   1   14.36    0.39 
   2  -7   1   13.62    0.37 
  -3   7  -1    2.94    0.18 
   3  -7   1    2.84    0.18 
   3  -7   1    2.55    0.15 
   3  -7   1    2.56    0.18 
  -4   7  -1   11.35    0.36 
  -4   7  -1   10.81    0.33 
  -4   7  -1   10.68    0.32 
   4  -7   1   11.53    0.36 
   4  -7   1   10.63    0.32 
   4  -7   1   10.27    0.34 
   4  -7   1   11.01    0.31 
  -5   7  -1    0.10    0.14 
  -5   7  -1    0.03    0.12 
   5  -7   1   -0.03    0.07 
   5  -7   1    0.19    0.11 
   5  -7   1   -0.10    0.14 
   5  -7   1    0.10    0.13 
   6  -7   1   21.72    0.61 
   6  -7   1   22.85    0.59 
   6  -7   1   22.23    0.54 
   8   6  -1    0.80    0.18 
   8   6  -1    0.58    0.13 
   7   6  -1    3.92    0.23 
   7   6  -1    4.13    0.26 
   7   6  -1    3.65    0.28 
   7   6  -1    3.86    0.29 
  -7  -6   1    3.44    0.30 
  -7  -6   1    3.63    0.21 
  -7  -6   1    3.27    0.20 
   6   6  -1    2.27    0.21 
   6   6  -1    2.46    0.20 
   6   6  -1    2.33    0.24 
   6   6  -1    2.29    0.18 
  -6  -6   1    2.53    0.17 
  -6  -6   1    2.20    0.19 
  -6  -6   1    2.49    0.24 
  -6  -6   1    2.40    0.16 
   5   6  -1    9.96    0.32 
   5   6  -1   10.10    0.33 
   5   6  -1    9.90    0.31 
  -5  -6   1   10.21    0.32 
  -5  -6   1   10.06    0.31 
  -5  -6   1   10.55    0.29 
  -5  -6   1   10.41    0.34 
   4   6  -1    0.28    0.07 
   4   6  -1    0.39    0.09 
  -4  -6   1    0.35    0.08 
  -4  -6   1    0.32    0.09 
  -4  -6   1    0.28    0.10 
  -4  -6   1    0.33    0.07 
   3   6  -1   36.02    0.81 
   3   6  -1   37.41    0.80 
   3   6  -1   38.07    0.81 
  -3  -6   1   37.09    0.80 
  -3  -6   1   36.81    0.82 
  -3  -6   1   35.43    0.81 
   2   6  -1    1.13    0.11 
   2   6  -1    0.79    0.10 
   2   6  -1    0.92    0.10 
  -2  -6   1    0.74    0.08 
  -2  -6   1    0.85    0.09 
  -2  -6   1    1.11    0.12 
   1   6  -1   52.33    1.10 
   1   6  -1   53.23    1.08 
  -1  -6   1   53.80    1.12 
  -1  -6   1   51.35    1.09 
  -1  -6   1   51.86    1.08 
  -1  -6   1   52.10    1.12 
   0   6  -1   54.37    1.15 
   0   6  -1   53.25    1.15 
   0   6  -1   55.62    1.13 
   0  -6   1   57.87    1.18 
   0  -6   1   56.34    1.18 
   0  -6   1   56.63    1.14 
   0  -6   1   55.40    1.15 
  -1   6  -1   99.21    2.04 
  -1   6  -1  102.38    1.99 
  -1   6  -1   99.07    2.00 
   1  -6   1  101.08    1.99 
   1  -6   1  103.86    2.07 
   1  -6   1   99.41    2.00 
  -2   6  -1   15.19    0.37 
  -2   6  -1   15.62    0.37 
  -2   6  -1   13.79    0.38 
   2  -6   1   14.63    0.37 
   2  -6   1   15.50    0.40 
   2  -6   1   14.78    0.37 
  -3   6  -1   49.52    1.06 
   3  -6   1   50.65    1.07 
   3  -6   1   48.49    1.03 
   3  -6   1   47.71    1.02 
   3  -6   1   48.51    1.03 
  -4   6  -1   41.74    0.89 
  -4   6  -1   43.94    0.95 
   4  -6   1   42.52    0.90 
   4  -6   1   42.38    0.91 
   4  -6   1   38.98    0.91 
   4  -6   1   44.32    0.95 
  -5   6  -1    0.16    0.10 
  -5   6  -1    0.30    0.08 
  -5   6  -1    0.37    0.13 
   5  -6   1    0.32    0.11 
   5  -6   1    0.22    0.07 
   5  -6   1    0.23    0.10 
   5  -6   1    0.11    0.11 
   6  -6   1   16.19    0.41 
   6  -6   1   16.17    0.45 
   6  -6   1   16.14    0.46 
   6  -6   1   15.77    0.46 
   7  -6   1    0.02    0.17 
   7  -6   1    0.04    0.10 
   8   5  -1    5.89    0.35 
   8   5  -1    5.61    0.26 
   7   5  -1   14.80    0.50 
   7   5  -1   15.35    0.44 
   7   5  -1   16.04    0.45 
   7   5  -1   14.72    0.43 
   6   5  -1    9.26    0.36 
   6   5  -1    9.62    0.32 
   6   5  -1    9.81    0.31 
   6   5  -1    9.59    0.32 
  -6  -5   1    9.18    0.26 
  -6  -5   1    9.39    0.28 
   5   5  -1   68.24    1.39 
   5   5  -1   66.54    1.48 
   5   5  -1   68.28    1.42 
   5   5  -1   66.71    1.41 
  -5  -5   1   67.71    1.39 
  -5  -5   1   68.14    1.41 
  -5  -5   1   67.94    1.41 
  -5  -5   1   68.83    1.39 
   4   5  -1    5.91    0.21 
   4   5  -1    5.70    0.22 
   4   5  -1    5.91    0.20 
  -4  -5   1    5.93    0.22 
  -4  -5   1    5.91    0.20 
  -4  -5   1    5.75    0.19 
  -4  -5   1    5.80    0.21 
   3   5  -1    4.14    0.17 
   3   5  -1    4.27    0.16 
   3   5  -1    4.23    0.18 
  -3  -5   1    4.31    0.16 
  -3  -5   1    4.15    0.15 
  -3  -5   1    4.31    0.17 
  -3  -5   1    4.30    0.18 
   2   5  -1    0.14    0.06 
   2   5  -1    0.06    0.05 
   2   5  -1    0.12    0.05 
  -2  -5   1    0.02    0.06 
  -2  -5   1    0.09    0.05 
  -2  -5   1    0.08    0.05 
  -2  -5   1    0.02    0.05 
   1   5  -1   68.40    1.41 
   1   5  -1   71.11    1.40 
  -1  -5   1   69.19    1.41 
  -1  -5   1   70.17    1.40 
  -1  -5   1   71.30    1.44 
  -1  -5   1   68.67    1.44 
   0   5  -1  125.68    2.50 
   0   5  -1  124.65    2.56 
   0   5  -1  129.96    2.49 
   0  -5   1  128.26    2.56 
   0  -5   1  124.27    2.49 
   0  -5   1  130.44    2.49 
   0  -5   1  129.03    2.56 
  -1   5  -1   48.51    1.02 
  -1   5  -1   48.77    1.01 
  -1   5  -1   49.65    1.00 
   1  -5   1   50.80    1.05 
   1  -5   1   49.44    1.00 
   1  -5   1   48.78    1.01 
  -2   5  -1    9.82    0.26 
  -2   5  -1   10.22    0.27 
  -2   5  -1   10.05    0.27 
   2  -5   1    9.83    0.26 
   2  -5   1   10.42    0.29 
   2  -5   1   10.30    0.27 
   2  -5   1    9.93    0.26 
  -3   5  -1    1.38    0.12 
  -3   5  -1    1.46    0.11 
  -3   5  -1    1.30    0.11 
   3  -5   1    1.14    0.12 
   3  -5   1    1.23    0.10 
   3  -5   1    1.34    0.11 
  -4   5  -1   30.05    0.65 
  -4   5  -1   29.76    0.65 
   4  -5   1   30.07    0.67 
   4  -5   1   30.42    0.69 
  -5   5  -1   45.15    0.96 
  -5   5  -1   47.66    1.06 
   5  -5   1   46.37    1.02 
   5  -5   1   46.72    0.99 
   5  -5   1   47.39    1.01 
   5  -5   1   46.82    0.97 
  -6   5  -1   26.38    0.72 
  -6   5  -1   28.14    0.63 
   6  -5   1   28.96    0.69 
   6  -5   1   28.87    0.66 
   6  -5   1   28.87    0.63 
   6  -5   1   30.06    0.66 
  -7   5  -1    2.39    0.26 
   7  -5   1    2.68    0.31 
   7  -5   1    2.62    0.16 
   7  -5   1    2.66    0.28 
   7  -5   1    2.77    0.24 
   8   4  -1    1.59    0.20 
   8   4  -1    1.36    0.14 
   8   4  -1    1.58    0.19 
   7   4  -1    0.93    0.11 
   7   4  -1    0.76    0.12 
   7   4  -1    0.81    0.13 
   7   4  -1    0.64    0.13 
  -7  -4   1    0.61    0.13 
   6   4  -1    5.85    0.23 
   6   4  -1    5.50    0.28 
   6   4  -1    5.81    0.23 
   6   4  -1    5.82    0.23 
  -6  -4   1    5.59    0.17 
  -6  -4   1    5.06    0.17 
   5   4  -1   10.20    0.34 
   5   4  -1   10.29    0.29 
   5   4  -1   10.27    0.29 
   5   4  -1   10.02    0.30 
  -5  -4   1    9.80    0.26 
  -5  -4   1    9.89    0.27 
  -5  -4   1    9.83    0.30 
  -5  -4   1   10.13    0.28 
   4   4  -1   19.94    0.52 
   4   4  -1   20.82    0.48 
   4   4  -1   20.38    0.48 
   4   4  -1   20.29    0.48 
  -4  -4   1   20.16    0.48 
  -4  -4   1   20.55    0.47 
  -4  -4   1   21.17    0.47 
  -4  -4   1   21.04    0.46 
   3   4  -1    7.28    0.21 
   3   4  -1    7.23    0.22 
   3   4  -1    7.18    0.21 
  -3  -4   1    7.25    0.20 
  -3  -4   1    7.43    0.21 
  -3  -4   1    7.25    0.21 
  -3  -4   1    7.04    0.22 
   2   4  -1   71.19    1.41 
   2   4  -1   70.55    1.44 
   2   4  -1   70.25    1.42 
  -2  -4   1   72.79    1.41 
  -2  -4   1   72.13    1.44 
  -2  -4   1   69.53    1.45 
  -2  -4   1   69.92    1.42 
   1   4  -1    7.94    0.21 
   1   4  -1    7.87    0.22 
  -1  -4   1    8.10    0.22 
  -1  -4   1    8.04    0.22 
  -1  -4   1    7.72    0.21 
  -1  -4   1    7.96    0.21 
   0   4  -1   46.24    0.94 
   0   4  -1   45.30    0.96 
   0   4  -1   47.60    0.95 
   0  -4   1   47.41    0.98 
   0  -4   1   46.10    0.95 
   0  -4   1   47.17    0.94 
   0  -4   1   47.31    0.97 
  -1   4  -1  100.21    1.98 
  -1   4  -1   98.28    2.04 
  -1   4  -1  102.62    1.98 
   1  -4   1  103.69    2.05 
   1  -4   1  103.46    1.98 
   1  -4   1  100.18    1.98 
  -2   4  -1   79.12    1.57 
  -2   4  -1   77.78    1.62 
   2  -4   1   78.25    1.60 
   2  -4   1   78.22    1.56 
   2  -4   1   81.10    1.62 
   2  -4   1   80.77    1.57 
  -3   4  -1    0.12    0.06 
  -3   4  -1    0.24    0.06 
  -3   4  -1    0.09    0.06 
   3  -4   1    0.29    0.06 
   3  -4   1    0.09    0.05 
   3  -4   1    0.10    0.04 
   3  -4   1    0.15    0.05 
  -4   4  -1   52.10    1.14 
  -4   4  -1   51.78    1.06 
  -4   4  -1   52.84    1.07 
   4  -4   1   52.46    1.11 
   4  -4   1   53.87    1.10 
   4  -4   1   51.96    1.06 
  -5   4  -1    0.95    0.12 
  -5   4  -1    0.99    0.10 
  -5   4  -1    0.86    0.09 
   5  -4   1    1.01    0.12 
   5  -4   1    0.88    0.11 
   5  -4   1    0.83    0.10 
   5  -4   1    0.95    0.10 
  -6   4  -1   18.01    0.43 
  -6   4  -1   18.53    0.53 
  -6   4  -1   18.45    0.43 
   6  -4   1   18.26    0.52 
   6  -4   1   18.00    0.43 
   6  -4   1   18.71    0.45 
   6  -4   1   18.20    0.44 
  -7   4  -1    7.58    0.39 
   7  -4   1    7.34    0.23 
   7  -4   1    7.63    0.28 
   7  -4   1    7.78    0.34 
   7  -4   1    7.46    0.27 
   7  -4   1    6.66    0.33 
   8   3  -1    0.89    0.11 
   8   3  -1    0.88    0.15 
   8   3  -1    0.83    0.18 
   8   3  -1    1.06    0.17 
   7   3  -1   23.50    0.56 
   7   3  -1   22.05    0.55 
   7   3  -1   23.49    0.57 
   7   3  -1   22.53    0.64 
  -7  -3   1   23.03    0.53 
  -7  -3   1   23.75    0.56 
   6   3  -1    0.59    0.09 
   6   3  -1    0.69    0.10 
   6   3  -1    0.45    0.11 
   6   3  -1    0.48    0.08 
  -6  -3   1    0.62    0.10 
   5   3  -1   50.63    1.06 
   5   3  -1   49.92    1.04 
   5   3  -1   50.26    1.03 
   5   3  -1   50.02    1.12 
  -5  -3   1   49.05    1.02 
  -5  -3   1   50.43    1.02 
  -5  -3   1   51.08    1.03 
   4   3  -1    4.15    0.15 
   4   3  -1    4.02    0.15 
   4   3  -1    3.82    0.18 
   4   3  -1    4.02    0.15 
  -4  -3   1    3.78    0.13 
  -4  -3   1    3.98    0.13 
  -4  -3   1    3.90    0.15 
   3   3  -1   29.66    0.62 
   3   3  -1   28.97    0.63 
   3   3  -1   29.95    0.63 
  -3  -3   1   30.19    0.62 
  -3  -3   1   29.42    0.62 
  -3  -3   1   29.59    0.63 
   2   3  -1   61.90    1.26 
   2   3  -1   64.02    1.27 
   2   3  -1   62.95    1.29 
  -2  -3   1   62.21    1.26 
  -2  -3   1   65.23    1.28 
  -2  -3   1   63.75    1.29 
  -2  -3   1   64.39    1.26 
   1   3  -1   90.35    1.82 
   1   3  -1   89.15    1.78 
   1   3  -1   91.12    1.77 
  -1  -3   1   89.37    1.82 
  -1  -3   1   89.75    1.77 
  -1  -3   1   91.65    1.77 
  -1  -3   1   93.87    1.82 
   0   3  -1    4.91    0.14 
   0   3  -1    4.63    0.13 
   0   3  -1    4.77    0.13 
   0  -3   1    4.60    0.13 
   0  -3   1    4.55    0.14 
   0  -3   1    4.45    0.13 
  -1   3  -1    2.06    0.09 
  -1   3  -1    2.21    0.09 
  -1   3  -1    1.98    0.09 
   1  -3   1    2.25    0.09 
   1  -3   1    2.12    0.10 
   1  -3   1    2.05    0.09 
   1  -3   1    2.22    0.09 
  -2   3  -1  109.20    2.24 
  -2   3  -1  109.69    2.16 
   2  -3   1  113.51    2.17 
   2  -3   1  114.19    2.22 
   2  -3   1  111.13    2.16 
   2  -3   1  109.46    2.23 
  -3   3  -1   46.03    0.92 
  -3   3  -1   45.70    0.92 
  -3   3  -1   45.20    0.98 
   3  -3   1   45.66    0.96 
   3  -3   1   44.86    0.93 
   3  -3   1   46.71    0.95 
   3  -3   1   46.18    0.92 
  -4   3  -1   13.36    0.36 
  -4   3  -1   12.81    0.30 
  -4   3  -1   12.92    0.31 
   4  -3   1   12.94    0.32 
   4  -3   1   13.03    0.31 
   4  -3   1   12.85    0.34 
   4  -3   1   12.92    0.32 
  -5   3  -1   11.55    0.29 
  -5   3  -1   12.24    0.29 
  -5   3  -1   12.28    0.37 
   5  -3   1   12.10    0.30 
   5  -3   1   12.03    0.31 
   5  -3   1   11.84    0.34 
   5  -3   1   11.89    0.30 
  -6   3  -1    6.98    0.22 
  -6   3  -1    7.14    0.30 
   6  -3   1    7.50    0.22 
   6  -3   1    6.67    0.26 
   6  -3   1    7.56    0.24 
   6  -3   1    7.03    0.30 
   6  -3   1    7.41    0.21 
  -7   3  -1   14.60    0.50 
   7  -3   1   14.62    0.37 
   7  -3   1   15.11    0.46 
   7  -3   1   14.98    0.39 
   7  -3   1   14.91    0.44 
   8  -3   1    1.76    0.22 
   8  -3   1    1.60    0.16 
   9   2  -1    0.91    0.13 
   8   2  -1    0.79    0.17 
   8   2  -1    0.76    0.15 
   8   2  -1    0.65    0.10 
   8   2  -1    0.72    0.14 
  -8  -2   1    0.58    0.13 
   7   2  -1   22.22    0.52 
   7   2  -1   21.32    0.51 
   7   2  -1   21.25    0.61 
   7   2  -1   21.45    0.53 
  -7  -2   1   22.03    0.51 
  -7  -2   1   21.57    0.49 
   6   2  -1   10.15    0.29 
  -6  -2   1   10.47    0.28 
  -6  -2   1   10.10    0.27 
   5   2  -1    7.67    0.23 
   5   2  -1    7.89    0.28 
   5   2  -1    8.00    0.22 
   5   2  -1    7.94    0.23 
  -5  -2   1    7.95    0.22 
  -5  -2   1    7.98    0.22 
   4   2  -1   98.87    1.98 
   4   2  -1   97.35    2.08 
   4   2  -1  100.64    1.99 
   4   2  -1  103.81    2.02 
   4   2  -1   98.43    1.97 
  -4  -2   1  103.97    2.00 
  -4  -2   1   99.17    1.97 
  -4  -2   1  101.95    1.97 
  -4  -2   1  102.17    1.99 
   3   2  -1   21.35    0.48 
   3   2  -1   21.90    0.47 
   3   2  -1   22.20    0.47 
   3   2  -1   22.05    0.48 
  -3  -2   1   22.48    0.47 
  -3  -2   1   23.19    0.47 
  -3  -2   1   22.36    0.47 
   2   2  -1  269.43    5.23 
   2   2  -1  265.91    5.18 
   2   2  -1  267.09    5.33 
   2   2  -1  266.76    5.30 
  -2  -2   1  263.57    5.32 
  -2  -2   1  273.10    5.34 
  -2  -2   1  272.83    5.19 
  -2  -2   1  254.62    5.16 
   1   2  -1    0.20    0.04 
   1   2  -1    0.24    0.04 
   1   2  -1    0.21    0.04 
   1   2  -1    0.16    0.04 
  -1  -2   1    0.12    0.03 
  -1  -2   1    0.19    0.04 
  -1  -2   1    0.17    0.04 
  -1  -2   1    0.09    0.03 
   0   2  -1  979.40   19.01 
   0   2  -1  988.38   19.04 
   0   2  -1  987.64   19.54 
   0  -2   1  996.52   19.53 
   0  -2   1  993.93   19.04 
   0  -2   1 1000.00   19.03 
  -1   2  -1   34.84    0.74 
  -1   2  -1   36.36    0.72 
  -1   2  -1   35.35    0.72 
   1  -2   1   37.53    0.72 
   1  -2   1   35.37    0.72 
   1  -2   1   35.52    0.74 
   1  -2   1   36.06    0.74 
  -2   2  -1   59.21    1.17 
  -2   2  -1   58.70    1.22 
   2  -2   1   58.51    1.17 
   2  -2   1   58.55    1.21 
   2  -2   1   58.52    1.16 
   2  -2   1   60.56    1.19 
  -3   2  -1    3.98    0.12 
  -3   2  -1    4.13    0.15 
  -3   2  -1    4.18    0.13 
   3  -2   1    4.05    0.13 
   3  -2   1    4.33    0.13 
   3  -2   1    4.26    0.15 
   3  -2   1    4.16    0.13 
  -4   2  -1  168.37    3.27 
  -4   2  -1  165.37    3.26 
  -4   2  -1  172.67    3.43 
   4  -2   1  171.22    3.34 
   4  -2   1  169.07    3.27 
   4  -2   1  169.84    3.42 
  -5   2  -1    3.55    0.13 
  -5   2  -1    3.44    0.14 
  -5   2  -1    3.44    0.19 
   5  -2   1    3.50    0.15 
   5  -2   1    3.33    0.12 
   5  -2   1    3.34    0.14 
   5  -2   1    3.59    0.18 
   5  -2   1    3.31    0.15 
  -6   2  -1    4.76    0.18 
  -6   2  -1    5.08    0.17 
  -6   2  -1    4.93    0.24 
   6  -2   1    4.64    0.19 
   6  -2   1    4.70    0.17 
   6  -2   1    4.90    0.24 
   6  -2   1    5.04    0.20 
  -7   2  -1    6.23    0.22 
  -7   2  -1    6.44    0.21 
  -7   2  -1    6.67    0.33 
   7  -2   1    6.22    0.24 
   7  -2   1    6.06    0.21 
   7  -2   1    6.12    0.26 
   7  -2   1    6.39    0.30 
   8  -2   1    0.52    0.14 
   8  -2   1    0.84    0.17 
   8  -2   1    0.53    0.16 
   8  -2   1    0.48    0.10 
   9   1  -1    7.78    0.27 
   9   1  -1    8.11    0.46 
   8   1  -1    4.70    0.33 
   8   1  -1    5.46    0.28 
   8   1  -1    5.13    0.20 
   8   1  -1    5.59    0.24 
   7   1  -1   15.74    0.39 
   7   1  -1   15.41    0.38 
   7   1  -1   15.59    0.49 
   7   1  -1   15.58    0.41 
  -7  -1   1   15.45    0.37 
   6   1  -1   36.22    0.89 
   6   1  -1   37.44    0.78 
   6   1  -1   37.81    0.81 
   6   1  -1   37.31    0.78 
  -6  -1   1   37.87    0.78 
  -6  -1   1   38.53    0.77 
   5   1  -1   23.37    0.58 
   5   1  -1   22.87    0.50 
   5   1  -1   23.04    0.50 
   5   1  -1   23.54    0.51 
  -5  -1   1   23.55    0.50 
  -5  -1   1   23.23    0.50 
   4   1  -1    5.60    0.20 
   4   1  -1    5.58    0.13 
   4   1  -1    5.66    0.16 
   4   1  -1    5.35    0.16 
  -4  -1   1    5.38    0.15 
  -4  -1   1    5.24    0.13 
  -4  -1   1    5.35    0.15 
   3   1  -1   11.78    0.27 
   3   1  -1   11.92    0.27 
   3   1  -1   11.66    0.30 
   3   1  -1   12.21    0.26 
   3   1  -1   11.68    0.27 
  -3  -1   1   11.57    0.26 
  -3  -1   1   12.17    0.26 
  -3  -1   1   11.76    0.26 
   2   1  -1   91.32    1.81 
   2   1  -1   90.17    1.75 
   2   1  -1   88.95    1.74 
   2   1  -1   89.68    1.79 
  -2  -1   1   90.62    1.78 
  -2  -1   1   88.34    1.74 
  -2  -1   1   92.12    1.81 
   1   1  -1    3.01    0.08 
   1   1  -1    3.02    0.08 
   1   1  -1    3.06    0.08 
   1   1  -1    3.25    0.09 
  -1  -1   1    3.09    0.08 
  -1  -1   1    3.15    0.08 
  -1  -1   1    3.35    0.09 
   0   1  -1    6.70    0.15 
   0   1  -1    6.54    0.15 
   0   1  -1    6.91    0.15 
   0  -1   1    6.90    0.15 
   0  -1   1    6.57    0.15 
   0  -1   1    6.16    0.15 
  -1   1  -1   49.47    0.97 
  -1   1  -1   48.28    0.99 
  -1   1  -1   47.79    0.95 
   1  -1   1   47.48    0.98 
   1  -1   1   50.54    0.97 
   1  -1   1   47.76    0.95 
   1  -1   1   49.72    0.95 
  -2   1  -1   41.63    0.82 
  -2   1  -1   41.07    0.87 
   2  -1   1   42.02    0.86 
   2  -1   1   41.58    0.82 
   2  -1   1   42.00    0.84 
   2  -1   1   41.76    0.82 
  -3   1  -1   87.21    1.80 
  -3   1  -1   89.67    1.71 
  -3   1  -1   87.96    1.71 
   3  -1   1   86.69    1.79 
   3  -1   1   88.68    1.74 
   3  -1   1   88.62    1.71 
   3  -1   1   87.01    1.71 
  -4   1  -1    0.65    0.06 
  -4   1  -1    0.51    0.07 
  -4   1  -1    0.62    0.07 
   4  -1   1    0.91    0.07 
   4  -1   1    0.82    0.07 
   4  -1   1    0.88    0.11 
   4  -1   1    0.88    0.05 
  -5   1  -1   84.16    1.62 
  -5   1  -1   82.48    1.73 
  -5   1  -1   80.59    1.61 
   5  -1   1   82.45    1.67 
   5  -1   1   80.15    1.72 
   5  -1   1   81.38    1.61 
   5  -1   1   81.30    1.62 
  -6   1  -1    0.10    0.10 
  -6   1  -1    0.15    0.07 
  -6   1  -1    0.22    0.06 
   6  -1   1    0.28    0.07 
   6  -1   1    0.18    0.09 
   6  -1   1    0.27    0.07 
  -7   1  -1   54.58    1.17 
  -7   1  -1   59.22    1.18 
   7  -1   1   57.76    1.24 
   7  -1   1   59.34    1.19 
   7  -1   1   58.79    1.31 
   7  -1   1   57.88    1.18 
   8  -1   1   10.39    0.38 
   8  -1   1   10.57    0.43 
   8  -1   1   10.81    0.35 
   8  -1   1   10.26    0.30 
   8   0  -1    3.13    0.19 
   8   0  -1    2.84    0.16 
   8   0  -1    2.49    0.30 
   8   0  -1    3.17    0.24 
   7   0  -1    6.45    0.31 
   7   0  -1    6.29    0.21 
   7   0  -1    6.27    0.20 
   7   0  -1    5.96    0.25 
   6   0  -1    5.07    0.17 
   6   0  -1    4.99    0.25 
   6   0  -1    4.98    0.17 
   6   0  -1    4.90    0.16 
  -6   0   1    5.11    0.15 
  -6   0   1    4.89    0.16 
   5   0  -1    0.76    0.08 
   5   0  -1    0.71    0.08 
   5   0  -1    0.83    0.08 
   5   0  -1    0.65    0.10 
  -5   0   1    0.78    0.07 
  -5   0   1    0.76    0.07 
   4   0  -1   41.94    0.85 
   4   0  -1   42.56    0.86 
   4   0  -1   42.37    0.85 
   4   0  -1   41.56    0.93 
   4   0  -1   42.56    0.85 
  -4   0   1   42.89    0.84 
  -4   0   1   43.65    0.84 
   3   0  -1    0.30    0.04 
   3   0  -1    0.22    0.05 
   3   0  -1    0.35    0.04 
   3   0  -1    0.37    0.04 
   3   0  -1    0.33    0.04 
  -3   0   1    0.30    0.04 
  -3   0   1    0.40    0.04 
   2   0  -1  225.31    4.53 
   2   0  -1  240.89    4.66 
   2   0  -1  232.33    4.75 
   2   0  -1  239.70    4.63 
  -2   0   1  239.34    4.64 
  -2   0   1  231.98    4.51 
  -2   0   1  232.41    4.52 
   1   0  -1  350.91    6.85 
   1   0  -1  333.72    6.68 
   1   0  -1  344.23    6.68 
  -1   0   1  354.90    6.68 
  -1   0   1  341.86    6.68 
  -1   0   1  365.74    6.89 
   0   0  -1   74.63    1.46 
  -1   0  -1    4.41    0.11 
  -1   0  -1    4.75    0.10 
  -1   0  -1    4.66    0.12 
   1   0   1    4.65    0.11 
   1   0   1    4.48    0.11 
   1   0   1    4.48    0.11 
   1   0   1    4.82    0.11 
   1   0   1    4.88    0.10 
  -2   0  -1  167.80    3.32 
   2   0   1  173.63    3.43 
   2   0   1  164.51    3.46 
   2   0   1  166.71    3.31 
   2   0   1  178.08    3.36 
   2   0   1  169.52    3.32 
  -3   0  -1  227.73    4.43 
  -3   0  -1  229.78    4.45 
  -3   0  -1  233.03    4.63 
   3   0   1  235.85    4.61 
   3   0   1  227.12    4.45 
   3   0   1  222.00    4.60 
   3   0   1  228.43    4.44 
  -4   0  -1   12.46    0.29 
  -4   0  -1   13.44    0.30 
  -4   0  -1   12.94    0.34 
   4   0   1   12.21    0.34 
   4   0   1   12.91    0.30 
   4   0   1   12.89    0.29 
   4   0   1   12.86    0.30 
  -5   0  -1    9.20    0.24 
  -5   0  -1    9.16    0.24 
   5   0   1    9.10    0.29 
   5   0   1    9.34    0.24 
   5   0   1    9.15    0.25 
  -6   0  -1    3.01    0.13 
  -6   0  -1    2.78    0.20 
  -6   0  -1    3.06    0.14 
   6   0   1    2.97    0.14 
   6   0   1    2.97    0.20 
   6   0   1    3.08    0.15 
   6   0   1    3.04    0.16 
  -7   0  -1    0.44    0.09 
   7   0   1    0.67    0.11 
   7   0   1    0.66    0.11 
   7   0   1    0.61    0.14 
   7   0   1    0.45    0.08 
  -8   0  -1    0.80    0.13 
   8   0   1    0.78    0.14 
   8   0   1    0.97    0.11 
   8   0   1    0.86    0.15 
   8   0   1    0.90    0.17 
   9   0   1    0.10    0.19 
   9   0   1    0.12    0.11 
   8  -1  -1   14.79    0.43 
   8  -1  -1   15.56    0.53 
   7  -1  -1   31.06    0.70 
   7  -1  -1   32.25    0.80 
   6  -1  -1   61.32    1.19 
   6  -1  -1   59.03    1.23 
   6  -1  -1   59.85    1.19 
   6  -1  -1   60.41    1.33 
   5  -1  -1    8.15    0.19 
   5  -1  -1    8.13    0.20 
   5  -1  -1    7.88    0.20 
   5  -1  -1    7.92    0.27 
   5  -1  -1    8.05    0.20 
   4  -1  -1   60.55    1.24 
   4  -1  -1   62.04    1.21 
   4  -1  -1   63.51    1.24 
   4  -1  -1   64.32    1.21 
   4  -1  -1   60.59    1.31 
   3  -1  -1    9.71    0.22 
   3  -1  -1    9.76    0.21 
   3  -1  -1    9.69    0.26 
   2  -1  -1  196.28    4.07 
   2  -1  -1  204.30    3.98 
   1  -1  -1  104.27    2.12 
   0  -1  -1    3.83    0.10 
   0  -1  -1    4.66    0.10 
   0  -1  -1    4.66    0.10 
   0   1   1    4.63    0.10 
  -1  -1  -1    6.93    0.17 
  -1  -1  -1    7.03    0.16 
  -1  -1  -1    7.27    0.15 
  -1  -1  -1    7.49    0.16 
  -1  -1  -1    7.20    0.16 
   1   1   1    7.19    0.17 
   1   1   1    7.07    0.16 
   1   1   1    7.38    0.16 
   1   1   1    7.61    0.16 
  -2  -1  -1    1.87    0.07 
  -2  -1  -1    1.77    0.07 
   2   1   1    1.77    0.07 
   2   1   1    1.96    0.07 
   2   1   1    1.92    0.07 
   2   1   1    1.91    0.08 
  -3  -1  -1    1.77    0.07 
  -3  -1  -1    1.81    0.08 
   3   1   1    1.74    0.08 
   3   1   1    1.62    0.08 
   3   1   1    1.71    0.08 
   3   1   1    1.70    0.09 
  -4  -1  -1    0.48    0.06 
  -4  -1  -1    0.37    0.06 
  -4  -1  -1    0.45    0.05 
   4   1   1    0.40    0.05 
   4   1   1    0.42    0.05 
   4   1   1    0.42    0.07 
   4   1   1    0.46    0.05 
  -5  -1  -1   38.34    0.86 
  -5  -1  -1   38.22    0.78 
  -5  -1  -1   38.72    0.79 
   5   1   1   36.77    0.86 
   5   1   1   37.01    0.79 
   5   1   1   38.20    0.81 
   5   1   1   37.57    0.78 
  -6  -1  -1   19.70    0.44 
  -6  -1  -1   19.63    0.44 
   6   1   1   17.79    0.46 
   6   1   1   18.88    0.46 
   6   1   1   19.11    0.52 
   6   1   1   18.99    0.44 
  -7  -1  -1   28.58    0.64 
  -7  -1  -1   29.03    0.64 
   7   1   1   28.47    0.73 
   7   1   1   29.23    0.67 
   7   1   1   28.40    0.64 
   7   1   1   28.97    0.65 
  -8  -1  -1   24.83    0.59 
   8   1   1   25.44    0.59 
   8   1   1   26.68    0.62 
   8   1   1   25.42    0.64 
   8   1   1   26.45    0.72 
   9   1   1    8.16    0.28 
   9   1   1    9.28    0.45 
   8  -2  -1    9.81    0.43 
   7  -2  -1    0.78    0.10 
   7  -2  -1    0.84    0.15 
   6  -2  -1    7.50    0.20 
   6  -2  -1    7.65    0.22 
   6  -2  -1    7.76    0.30 
   6  -2  -1    7.69    0.20 
   5  -2  -1   11.13    0.27 
   5  -2  -1   11.42    0.34 
   5  -2  -1   11.35    0.27 
   4  -2  -1   58.25    1.16 
   4  -2  -1   56.56    1.21 
   3  -2  -1   57.14    1.19 
  -3   2   1   57.08    1.19 
   2  -2  -1   92.09    1.85 
  -2   2   1   91.67    1.85 
   1  -2  -1    7.42    0.16 
   1  -2  -1    7.22    0.16 
  -1   2   1    7.42    0.16 
  -1   2   1    7.54    0.16 
  -1   2   1    7.13    0.17 
   0  -2  -1    2.81    0.08 
   0  -2  -1    2.93    0.08 
   0  -2  -1    2.74    0.08 
   0   2   1    3.07    0.07 
   0   2   1    2.98    0.08 
  -1  -2  -1  594.89   11.58 
  -1  -2  -1  587.83   11.58 
  -1  -2  -1  614.00   11.89 
  -1  -2  -1  586.12   11.95 
   1   2   1  600.03   11.57 
   1   2   1  603.83   11.59 
   1   2   1  623.83   11.88 
   1   2   1  585.98   11.95 
  -2  -2  -1    0.83    0.06 
  -2  -2  -1    0.85    0.06 
  -2  -2  -1    0.89    0.05 
   2   2   1    0.86    0.06 
   2   2   1    0.85    0.06 
   2   2   1    0.87    0.06 
   2   2   1    0.86    0.06 
  -3  -2  -1  180.64    3.47 
  -3  -2  -1  183.99    3.61 
  -3  -2  -1  179.33    3.61 
  -3  -2  -1  176.35    3.48 
   3   2   1  178.10    3.49 
   3   2   1  177.03    3.51 
   3   2   1  184.72    3.56 
   3   2   1  178.45    3.61 
  -4  -2  -1    6.55    0.17 
  -4  -2  -1    6.22    0.21 
  -4  -2  -1    6.23    0.18 
   4   2   1    5.87    0.18 
   4   2   1    6.23    0.18 
   4   2   1    6.07    0.18 
   4   2   1    6.20    0.21 
  -5  -2  -1   54.96    1.10 
   5   2   1   53.58    1.10 
   5   2   1   53.67    1.10 
   5   2   1   52.82    1.17 
   5   2   1   54.13    1.12 
  -6  -2  -1    2.59    0.15 
  -6  -2  -1    2.68    0.15 
   6   2   1    2.97    0.16 
   6   2   1    2.36    0.14 
   6   2   1    2.58    0.19 
   6   2   1    2.65    0.15 
  -7  -2  -1   14.98    0.40 
  -7  -2  -1   15.68    0.39 
   7   2   1   15.83    0.48 
   7   2   1   15.46    0.42 
   7   2   1   15.30    0.39 
  -8  -2  -1    3.12    0.23 
   8   2   1    2.64    0.26 
   8   2   1    2.49    0.25 
   8   2   1    2.37    0.17 
   8   2   1    3.25    0.25 
   9   2   1    0.23    0.16 
   9   2   1    0.05    0.10 
   8  -3  -1   22.67    0.67 
   7  -3  -1    0.26    0.13 
   7  -3  -1    0.25    0.10 
   6  -3  -1   39.23    0.90 
   6  -3  -1   37.89    0.81 
   6  -3  -1   38.59    0.81 
   6  -3  -1   38.45    0.82 
   5  -3  -1    0.28    0.08 
   5  -3  -1    0.23    0.06 
   4  -3  -1  114.65    2.17 
   4  -3  -1  110.25    2.30 
  -4   3   1  113.56    2.31 
   3  -3  -1   64.94    1.22 
   3  -3  -1   62.68    1.30 
   3  -3  -1   62.88    1.22 
  -3   3   1   60.79    1.30 
   2  -3  -1   29.16    0.62 
   2  -3  -1   30.72    0.59 
   2  -3  -1   29.38    0.59 
  -2   3   1   29.73    0.59 
  -2   3   1   29.78    0.59 
  -2   3   1   28.82    0.62 
   1  -3  -1   42.81    0.82 
   1  -3  -1   42.50    0.83 
  -1   3   1   40.95    0.85 
  -1   3   1   42.37    0.82 
  -1   3   1   41.60    0.83 
   0  -3  -1    1.46    0.07 
   0  -3  -1    1.42    0.06 
   0  -3  -1    1.51    0.06 
   0   3   1    1.34    0.06 
  -1  -3  -1  120.83    2.35 
  -1  -3  -1  120.79    2.42 
   1   3   1  117.97    2.47 
   1   3   1  125.01    2.41 
   1   3   1  120.50    2.35 
   1   3   1  123.43    2.45 
  -2  -3  -1   66.78    1.32 
  -2  -3  -1   65.74    1.29 
  -2  -3  -1   66.53    1.30 
   2   3   1   64.75    1.29 
   2   3   1   63.13    1.34 
   2   3   1   67.19    1.32 
   2   3   1   63.17    1.29 
  -3  -3  -1   69.75    1.41 
  -3  -3  -1   70.14    1.39 
  -3  -3  -1   68.48    1.39 
   3   3   1   69.80    1.45 
   3   3   1   69.40    1.39 
   3   3   1   71.11    1.42 
   3   3   1   69.75    1.39 
  -4  -3  -1   17.82    0.41 
  -4  -3  -1   18.05    0.41 
   4   3   1   17.60    0.41 
   4   3   1   17.55    0.41 
   4   3   1   17.53    0.44 
   4   3   1   18.07    0.41 
  -5  -3  -1    0.37    0.06 
  -5  -3  -1    0.37    0.07 
  -5  -3  -1    0.33    0.07 
   5   3   1    0.49    0.07 
   5   3   1    0.48    0.07 
   5   3   1    0.44    0.09 
   5   3   1    0.37    0.07 
   6   3   1   88.68    1.78 
   6   3   1   88.74    1.78 
   6   3   1   86.91    1.89 
   6   3   1   89.70    1.82 
  -7  -3  -1    2.16    0.19 
   7   3   1    2.21    0.15 
   7   3   1    2.39    0.19 
   7   3   1    2.15    0.18 
   7   3   1    2.51    0.22 
  -8  -3  -1   18.97    0.50 
   8   3   1   19.61    0.53 
   8   3   1   19.14    0.59 
   8   3   1   18.52    0.48 
   8   3   1   19.16    0.53 
   9   3   1    0.92    0.13 
   9   3   1    1.21    0.21 
   8  -4  -1    4.02    0.37 
   7  -4  -1    1.16    0.12 
   7  -4  -1    1.05    0.16 
   7  -4  -1    0.94    0.11 
   6  -4  -1   12.60    0.34 
   6  -4  -1   13.15    0.39 
   6  -4  -1   12.44    0.34 
   5  -4  -1   21.93    0.54 
   4  -4  -1    1.87    0.08 
   4  -4  -1    1.69    0.13 
   4  -4  -1    1.79    0.09 
  -4   4   1    1.57    0.13 
   3  -4  -1   37.85    0.75 
   3  -4  -1   37.29    0.79 
   3  -4  -1   37.29    0.76 
  -3   4   1   36.90    0.80 
  -3   4   1   37.72    0.75 
  -3   4   1   38.51    0.75 
   2  -4  -1   10.22    0.23 
   2  -4  -1   10.31    0.24 
   2  -4  -1   10.97    0.24 
  -2   4   1   10.23    0.25 
  -2   4   1   10.32    0.23 
  -2   4   1   10.17    0.24 
   1  -4  -1   88.40    1.73 
   1  -4  -1   85.65    1.68 
   1  -4  -1   86.28    1.68 
  -1   4   1   87.36    1.68 
  -1   4   1   84.44    1.72 
   0  -4  -1   14.60    0.32 
   0  -4  -1   14.41    0.32 
   0  -4  -1   14.94    0.33 
   0   4   1   14.25    0.32 
   0   4   1   14.50    0.32 
   0   4   1   14.35    0.30 
  -1  -4  -1   81.08    1.59 
  -1  -4  -1   79.50    1.59 
  -1  -4  -1   81.65    1.63 
   1   4   1   80.76    1.63 
   1   4   1   81.65    1.59 
  -2  -4  -1   23.69    0.51 
  -2  -4  -1   23.19    0.50 
  -2  -4  -1   23.13    0.50 
   2   4   1   23.64    0.50 
   2   4   1   22.47    0.51 
   2   4   1   23.32    0.50 
   2   4   1   22.13    0.50 
  -3  -4  -1   40.30    0.82 
  -3  -4  -1   38.83    0.83 
  -3  -4  -1   38.71    0.82 
   3   4   1   38.44    0.82 
   3   4   1   39.50    0.82 
   3   4   1   39.82    0.83 
   3   4   1   38.54    0.85 
  -4  -4  -1   13.87    0.34 
  -4  -4  -1   13.91    0.34 
  -4  -4  -1   13.39    0.34 
  -4  -4  -1   14.00    0.31 
   4   4   1   14.11    0.35 
   4   4   1   13.10    0.37 
   4   4   1   13.52    0.35 
   4   4   1   13.89    0.34 
  -5  -4  -1   38.54    0.81 
  -5  -4  -1   38.03    0.77 
  -5  -4  -1   37.87    0.82 
  -5  -4  -1   37.92    0.81 
   5   4   1   38.12    0.83 
   5   4   1   37.15    0.82 
   5   4   1   38.20    0.82 
   5   4   1   36.73    0.87 
  -6  -4  -1   23.70    0.53 
  -6  -4  -1   23.70    0.56 
   6   4   1   23.66    0.57 
   6   4   1   23.42    0.56 
   7   4   1    0.87    0.11 
   7   4   1    1.02    0.15 
   7   4   1    1.17    0.14 
   7   4   1    1.19    0.13 
   8   4   1    3.97    0.30 
   8   4   1    3.82    0.21 
   8   4   1    4.61    0.29 
   8   4   1    4.54    0.29 
   9   4   1    1.09    0.13 
   9   4   1    1.23    0.21 
   7  -5  -1    4.50    0.31 
   7  -5  -1    4.79    0.25 
   6  -5  -1   14.35    0.40 
   6  -5  -1   14.52    0.42 
   5  -5  -1    5.26    0.16 
   5  -5  -1    5.48    0.23 
   5  -5  -1    5.76    0.17 
   4  -5  -1   50.17    1.02 
   4  -5  -1   51.33    1.08 
   4  -5  -1   51.62    1.02 
  -4   5   1   51.36    1.01 
  -4   5   1   50.70    1.09 
  -4   5   1   51.36    1.01 
   3  -5  -1   15.27    0.35 
   3  -5  -1   15.14    0.35 
   3  -5  -1   14.96    0.34 
  -3   5   1   15.49    0.34 
  -3   5   1   15.57    0.34 
  -3   5   1   14.94    0.37 
   2  -5  -1    0.97    0.08 
   2  -5  -1    0.87    0.07 
   2  -5  -1    0.75    0.07 
  -2   5   1    0.79    0.07 
  -2   5   1    0.76    0.07 
  -2   5   1    0.72    0.07 
   1  -5  -1   75.14    1.46 
   1  -5  -1   73.58    1.47 
  -1   5   1   75.35    1.46 
  -1   5   1   73.06    1.49 
   0  -5  -1   21.61    0.48 
   0  -5  -1   22.75    0.49 
   0  -5  -1   22.21    0.48 
   0   5   1   23.48    0.48 
   0   5   1   21.59    0.49 
   0   5   1   22.42    0.46 
  -1  -5  -1   79.63    1.55 
  -1  -5  -1   77.10    1.56 
  -1  -5  -1   78.21    1.59 
   1   5   1   79.43    1.55 
   1   5   1   80.60    1.58 
   1   5   1   74.83    1.55 
  -2  -5  -1   90.27    1.84 
  -2  -5  -1   93.10    1.80 
   2   5   1   91.74    1.84 
   2   5   1   90.17    1.80 
   2   5   1   87.94    1.85 
   2   5   1   91.52    1.80 
  -3  -5  -1    0.22    0.06 
  -3  -5  -1    0.41    0.06 
  -3  -5  -1    0.30    0.06 
   3   5   1    0.40    0.07 
   3   5   1    0.37    0.06 
   3   5   1    0.42    0.07 
   3   5   1    0.45    0.07 
  -4  -5  -1   18.97    0.46 
  -4  -5  -1   19.03    0.45 
  -4  -5  -1   19.00    0.42 
   4   5   1   18.76    0.46 
   4   5   1   18.55    0.45 
   4   5   1   18.40    0.47 
   4   5   1   18.72    0.45 
  -5  -5  -1   -0.01    0.06 
  -5  -5  -1    0.02    0.04 
  -5  -5  -1    0.01    0.08 
  -5  -5  -1   -0.02    0.06 
   5   5   1    0.04    0.07 
   5   5   1    0.14    0.07 
   5   5   1    0.06    0.06 
   5   5   1    0.06    0.08 
  -6  -5  -1   23.18    0.54 
  -6  -5  -1   22.73    0.56 
  -6  -5  -1   22.96    0.55 
   6   5   1   22.32    0.55 
   6   5   1   22.17    0.55 
   6   5   1   22.46    0.60 
   6   5   1   22.25    0.55 
  -7  -5  -1    1.68    0.15 
   7   5   1    1.96    0.21 
   7   5   1    2.05    0.21 
   7   5   1    1.57    0.17 
   7   5   1    1.82    0.17 
   8   5   1    4.78    0.32 
   8   5   1    3.91    0.22 
   7  -6  -1    6.73    0.36 
   7  -6  -1    7.03    0.33 
   6  -6  -1    1.56    0.16 
   6  -6  -1    1.90    0.23 
   5  -6  -1   20.94    0.47 
   5  -6  -1   21.15    0.51 
   5  -6  -1   20.57    0.46 
   4  -6  -1    1.98    0.14 
   4  -6  -1    1.94    0.14 
  -4   6   1    2.09    0.11 
  -4   6   1    1.96    0.15 
  -4   6   1    1.97    0.13 
   3  -6  -1  123.15    2.39 
   3  -6  -1  124.35    2.45 
   3  -6  -1  122.62    2.38 
  -3   6   1  120.37    2.47 
  -3   6   1  122.35    2.38 
  -3   6   1  118.95    2.38 
   2  -6  -1   56.27    1.11 
   2  -6  -1   54.39    1.11 
   2  -6  -1   56.59    1.12 
  -2   6   1   54.78    1.13 
  -2   6   1   55.42    1.11 
  -2   6   1   54.28    1.11 
   1  -6  -1   28.31    0.59 
   1  -6  -1   28.42    0.61 
   1  -6  -1   26.95    0.60 
  -1   6   1   27.86    0.58 
   0  -6  -1   23.90    0.54 
   0  -6  -1   25.09    0.55 
   0  -6  -1   24.61    0.53 
   0   6   1   24.64    0.53 
   0   6   1   24.26    0.51 
   0   6   1   24.19    0.54 
  -1  -6  -1  134.28    2.70 
  -1  -6  -1  137.53    2.63 
  -1  -6  -1  132.61    2.64 
   1   6   1  136.07    2.63 
   1   6   1  136.87    2.69 
   1   6   1  130.04    2.64 
  -2  -6  -1   12.31    0.33 
  -2  -6  -1   12.86    0.33 
  -2  -6  -1   12.70    0.33 
   2   6   1   12.51    0.33 
   2   6   1   12.75    0.32 
   2   6   1   12.88    0.32 
  -3  -6  -1    6.63    0.22 
  -3  -6  -1    6.41    0.20 
  -3  -6  -1    6.68    0.22 
  -3  -6  -1    6.59    0.22 
   3   6   1    6.57    0.21 
   3   6   1    6.54    0.22 
   3   6   1    6.38    0.21 
   3   6   1    6.22    0.22 
  -4  -6  -1   22.82    0.55 
  -4  -6  -1   22.94    0.55 
  -4  -6  -1   22.97    0.52 
  -4  -6  -1   23.07    0.54 
   4   6   1   23.73    0.54 
   4   6   1   23.47    0.54 
   4   6   1   23.00    0.57 
   4   6   1   22.84    0.56 
  -5  -6  -1   21.79    0.55 
  -5  -6  -1   23.06    0.54 
  -5  -6  -1   22.73    0.51 
  -5  -6  -1   22.97    0.55 
   5   6   1   21.85    0.54 
   5   6   1   22.38    0.56 
   5   6   1   22.04    0.58 
   5   6   1   22.92    0.55 
  -6  -6  -1    3.83    0.23 
  -6  -6  -1    3.68    0.20 
  -6  -6  -1    4.04    0.15 
  -6  -6  -1    4.01    0.20 
   6   6   1    3.95    0.20 
   6   6   1    4.12    0.25 
   6   6   1    4.15    0.22 
   6   6   1    3.88    0.23 
  -7  -6  -1    0.31    0.14 
  -7  -6  -1    0.47    0.11 
   7   6   1    0.25    0.10 
   7   6   1    0.34    0.13 
   7   6   1    0.35    0.12 
   7   6   1    0.44    0.14 
   8   6   1    3.21    0.30 
   8   6   1    2.88    0.22 
   6  -7  -1    3.92    0.29 
   6  -7  -1    3.57    0.25 
   5  -7  -1   76.65    1.64 
   5  -7  -1   77.62    1.61 
   5  -7  -1   78.30    1.55 
   5  -7  -1   76.85    1.54 
   4  -7  -1    1.13    0.13 
   4  -7  -1    1.07    0.11 
   4  -7  -1    1.01    0.11 
  -4   7   1    1.10    0.10 
  -4   7   1    1.22    0.15 
   3  -7  -1   14.04    0.33 
   3  -7  -1   14.27    0.36 
  -3   7   1   14.20    0.35 
  -3   7   1   13.65    0.35 
  -3   7   1   14.19    0.36 
   2  -7  -1    0.00    0.05 
   2  -7  -1    0.20    0.06 
  -2   7   1    0.15    0.06 
  -2   7   1    0.24    0.05 
  -2   7   1    0.19    0.07 
   1  -7  -1   30.16    0.65 
   1  -7  -1   30.41    0.66 
   1  -7  -1   28.97    0.65 
  -1   7   1   29.50    0.66 
  -1   7   1   30.74    0.64 
  -1   7   1   29.82    0.63 
   0  -7  -1   30.66    0.68 
   0  -7  -1   30.50    0.66 
   0  -7  -1   29.80    0.67 
   0   7   1   30.89    0.63 
   0   7   1   29.97    0.65 
   0   7   1   29.93    0.67 
  -1  -7  -1    4.28    0.18 
  -1  -7  -1    4.56    0.18 
  -1  -7  -1    4.37    0.17 
   1   7   1    4.40    0.18 
  -2  -7  -1   21.02    0.50 
  -2  -7  -1   20.38    0.51 
  -2  -7  -1   20.90    0.51 
   2   7   1   22.39    0.50 
   2   7   1   21.87    0.50 
  -3  -7  -1    0.36    0.08 
  -3  -7  -1    0.48    0.09 
  -3  -7  -1    0.33    0.08 
   3   7   1    0.41    0.08 
   3   7   1    0.30    0.08 
   3   7   1    0.33    0.08 
   3   7   1    0.36    0.07 
  -4  -7  -1   36.58    0.82 
  -4  -7  -1   35.87    0.79 
  -4  -7  -1   36.20    0.80 
  -4  -7  -1   36.19    0.82 
   4   7   1   35.35    0.81 
   4   7   1   35.91    0.83 
   4   7   1   36.34    0.80 
   4   7   1   35.34    0.80 
  -5  -7  -1   29.43    0.65 
  -5  -7  -1   28.84    0.68 
  -5  -7  -1   28.79    0.67 
  -5  -7  -1   28.27    0.69 
   5   7   1   28.69    0.69 
   5   7   1   28.96    0.68 
   5   7   1   28.43    0.67 
   5   7   1   28.28    0.71 
  -6  -7  -1   25.57    0.65 
  -6  -7  -1   24.86    0.57 
  -6  -7  -1   24.74    0.62 
  -6  -7  -1   26.15    0.62 
   6   7   1   24.76    0.62 
   6   7   1   25.27    0.63 
   6   7   1   25.00    0.67 
   6   7   1   24.83    0.64 
  -7  -7  -1    8.53    0.32 
  -7  -7  -1    8.24    0.25 
  -7  -7  -1    8.67    0.38 
   7   7   1    9.33    0.38 
   7   7   1    8.36    0.37 
   7   7   1    7.98    0.32 
  -8  -7  -1    2.53    0.27 
   8   7   1    2.54    0.31 
   8   7   1    2.12    0.23 
   5  -8  -1    4.20    0.30 
   5  -8  -1    4.53    0.18 
   5  -8  -1    4.12    0.24 
   5  -8  -1    4.39    0.23 
   4  -8  -1   21.28    0.49 
   4  -8  -1   20.92    0.49 
   4  -8  -1   21.29    0.56 
   4  -8  -1   19.45    0.51 
  -4   8   1   20.76    0.48 
  -4   8   1   20.96    0.51 
  -4   8   1   20.40    0.49 
   3  -8  -1    5.82    0.20 
   3  -8  -1    5.64    0.22 
  -3   8   1    5.82    0.20 
  -3   8   1    4.91    0.20 
  -3   8   1    5.67    0.23 
   2  -8  -1   13.27    0.35 
   2  -8  -1   13.08    0.35 
   2  -8  -1   13.59    0.36 
  -2   8   1   13.00    0.32 
  -2   8   1   12.75    0.35 
   1  -8  -1   14.15    0.37 
   1  -8  -1   14.47    0.37 
   1  -8  -1   14.45    0.38 
  -1   8   1   14.34    0.33 
  -1   8   1   14.57    0.36 
   0  -8  -1  121.78    2.46 
   0  -8  -1  123.38    2.52 
   0  -8  -1  126.03    2.45 
   0   8   1  121.31    2.46 
   0   8   1  126.14    2.44 
   0   8   1  124.19    2.48 
  -1  -8  -1   12.62    0.35 
  -1  -8  -1   13.37    0.35 
  -1  -8  -1   12.06    0.35 
   1   8   1   12.88    0.34 
   1   8   1   12.60    0.36 
  -2  -8  -1   22.25    0.56 
  -2  -8  -1   23.35    0.55 
  -2  -8  -1   22.41    0.56 
  -2  -8  -1   22.92    0.56 
   2   8   1   23.35    0.54 
   2   8   1   22.97    0.54 
  -3  -8  -1    0.18    0.08 
  -3  -8  -1    0.34    0.10 
  -3  -8  -1    0.35    0.08 
  -3  -8  -1    0.23    0.09 
   3   8   1    0.26    0.09 
   3   8   1    0.30    0.07 
   3   8   1    0.31    0.09 
   3   8   1    0.43    0.09 
  -4  -8  -1   11.60    0.35 
  -4  -8  -1   11.29    0.35 
  -4  -8  -1   11.65    0.34 
  -4  -8  -1   11.06    0.37 
   4   8   1   10.74    0.36 
   4   8   1   11.14    0.35 
   4   8   1   11.96    0.36 
  -5  -8  -1    0.34    0.11 
  -5  -8  -1    0.28    0.12 
  -5  -8  -1    0.36    0.11 
  -5  -8  -1    0.35    0.09 
   5   8   1    0.40    0.08 
   5   8   1    0.28    0.11 
   5   8   1    0.55    0.13 
  -6  -8  -1    3.29    0.23 
  -6  -8  -1    3.64    0.28 
  -6  -8  -1    3.10    0.19 
  -6  -8  -1    3.57    0.24 
   6   8   1    3.65    0.22 
   6   8   1    3.61    0.26 
   6   8   1    3.48    0.27 
   6   8   1    3.40    0.24 
  -7  -8  -1    0.42    0.19 
  -7  -8  -1    0.56    0.12 
  -7  -8  -1    0.28    0.16 
   7   8   1    0.62    0.15 
   7   8   1    0.76    0.18 
   7   8   1    0.59    0.19 
   8   8   1    0.15    0.14 
   8   8   1   -0.23    0.17 
   5  -9  -1   21.30    0.51 
   4  -9  -1    1.11    0.11 
   4  -9  -1    1.09    0.16 
   4  -9  -1    1.09    0.18 
   3  -9  -1   19.45    0.54 
   3  -9  -1   18.94    0.51 
   3  -9  -1   19.78    0.48 
  -3   9   1   19.16    0.45 
  -3   9   1   19.28    0.50 
   2  -9  -1   10.38    0.31 
   2  -9  -1   10.30    0.31 
   1  -9  -1    7.85    0.27 
   1  -9  -1    7.83    0.27 
   1  -9  -1    7.63    0.26 
  -1   9   1    7.67    0.28 
   0   9   1    0.62    0.07 
   0   9   1    0.64    0.12 
   0   9   1    0.47    0.07 
  -1  -9  -1   11.99    0.35 
  -1  -9  -1   11.60    0.38 
  -1  -9  -1   11.90    0.36 
   1   9   1   11.76    0.30 
   1   9   1   11.73    0.33 
   1   9   1   11.52    0.37 
  -2  -9  -1    0.24    0.09 
  -2  -9  -1    0.28    0.09 
  -2  -9  -1    0.20    0.09 
  -2  -9  -1    0.25    0.08 
   2   9   1    0.51    0.13 
   2   9   1    0.35    0.09 
  -3  -9  -1    4.47    0.24 
  -3  -9  -1    4.44    0.22 
  -3  -9  -1    4.51    0.23 
  -3  -9  -1    4.43    0.23 
   3   9   1    4.45    0.23 
   3   9   1    4.40    0.25 
   3   9   1    4.48    0.21 
  -4  -9  -1    0.73    0.12 
  -4  -9  -1    0.73    0.12 
  -4  -9  -1    0.95    0.15 
  -4  -9  -1    0.55    0.12 
   4   9   1    1.01    0.14 
   4   9   1    0.82    0.13 
   4   9   1    0.85    0.13 
  -5  -9  -1   33.29    0.76 
  -5  -9  -1   31.91    0.79 
  -5  -9  -1   33.70    0.78 
  -5  -9  -1   31.61    0.80 
   5   9   1   31.80    0.80 
   5   9   1   31.43    0.80 
   5   9   1   33.30    0.79 
  -6  -9  -1    0.77    0.13 
  -6  -9  -1    0.69    0.15 
  -6  -9  -1    0.88    0.18 
   6   9   1    0.82    0.18 
   6   9   1    0.78    0.18 
   6   9   1    0.72    0.16 
  -7  -9  -1    8.74    0.49 
  -7  -9  -1   10.39    0.42 
   7   9   1   10.95    0.43 
   7   9   1   10.93    0.46 
   4 -10  -1    9.71    0.37 
   4 -10  -1    9.70    0.32 
   3 -10  -1   -0.14    0.11 
   3 -10  -1   -0.08    0.08 
   2 -10  -1   17.87    0.48 
   2 -10  -1   17.66    0.49 
   2 -10  -1   18.11    0.48 
   1 -10  -1    2.15    0.20 
   1 -10  -1    2.03    0.20 
   1 -10  -1    2.25    0.17 
   1 -10  -1    1.99    0.18 
  -1  10   1    2.02    0.21 
  -1  10   1    2.16    0.14 
   0 -10  -1   41.65    0.92 
   0 -10  -1   41.18    0.93 
   0 -10  -1   42.47    0.95 
   0  10   1   41.52    0.87 
   0  10   1   40.65    0.94 
   0  10   1   41.30    0.90 
  -1 -10  -1    5.20    0.24 
  -1 -10  -1    4.89    0.24 
  -1 -10  -1    5.12    0.25 
   1  10   1    4.88    0.19 
   1  10   1    5.22    0.22 
  -2 -10  -1   28.04    0.69 
  -2 -10  -1   27.96    0.70 
   2  10   1   27.25    0.70 
   2  10   1   27.04    0.64 
   2  10   1   28.07    0.66 
  -3 -10  -1    1.11    0.14 
  -3 -10  -1    1.53    0.16 
  -3 -10  -1    1.40    0.16 
   3  10   1    1.08    0.13 
   3  10   1    1.37    0.15 
   3  10   1    1.21    0.16 
  -4 -10  -1   56.86    1.30 
  -4 -10  -1   56.65    1.29 
  -4 -10  -1   57.94    1.26 
   4  10   1   60.85    1.27 
   4  10   1   56.50    1.28 
  -5 -10  -1    5.52    0.33 
  -5 -10  -1    5.95    0.35 
  -5 -10  -1    5.95    0.31 
   5  10   1    5.40    0.32 
   5  10   1    5.83    0.35 
   5  10   1    6.28    0.35 
  -6 -10  -1    0.03    0.19 
  -6 -10  -1   -0.08    0.15 
   6  10   1    0.05    0.16 
   6  10   1    0.01    0.19 
   6  10   1    0.22    0.16 
  -7 -10  -1    0.10    0.19 
   7  10   1    0.17    0.20 
   7  10   1    0.05    0.17 
   3 -11  -1    0.55    0.11 
   3 -11  -1    0.36    0.15 
   2 -11  -1   12.59    0.40 
   2 -11  -1   13.28    0.43 
   1 -11  -1    1.50    0.17 
   1 -11  -1    1.53    0.17 
   1 -11  -1    1.55    0.16 
   0 -11  -1    0.43    0.12 
   0 -11  -1    0.72    0.15 
   0 -11  -1    0.72    0.13 
  -1 -11  -1    4.66    0.25 
  -1 -11  -1    4.81    0.28 
  -1 -11  -1    4.63    0.26 
   1  11   1    4.68    0.23 
   1  11   1    4.80    0.21 
   1  11   1    4.49    0.30 
  -2 -11  -1    0.11    0.10 
  -2 -11  -1    0.14    0.14 
  -2 -11  -1   -0.07    0.11 
   2  11   1    0.25    0.14 
   2  11   1    0.15    0.12 
   2  11   1    0.26    0.10 
   2  11   1    0.08    0.08 
  -3 -11  -1   10.39    0.40 
  -3 -11  -1    9.77    0.38 
  -3 -11  -1   10.27    0.40 
   3  11   1    9.95    0.41 
   3  11   1   10.35    0.38 
   3  11   1   10.05    0.35 
  -4 -11  -1    3.22    0.32 
  -4 -11  -1    3.56    0.32 
  -4 -11  -1    3.56    0.28 
   4  11   1    3.73    0.32 
   4  11   1    3.65    0.32 
  -5 -11  -1    2.10    0.22 
  -5 -11  -1    1.71    0.24 
  -5 -11  -1    1.71    0.20 
   5  11   1    1.55    0.21 
   5  11   1    2.00    0.25 
   5  11   1    1.52    0.23 
  -6 -11  -1    1.20    0.23 
  -6 -11  -1    1.53    0.22 
   6  11   1    1.56    0.23 
   6  11   1    1.78    0.26 
   2 -12  -1    3.14    0.30 
   1 -12  -1   11.60    0.40 
   1 -12  -1   12.46    0.44 
   0 -12  -1   12.73    0.43 
   0 -12  -1   12.81    0.44 
  -1 -12  -1   13.10    0.45 
  -1 -12  -1   13.23    0.45 
   1  12   1   12.90    0.36 
   1  12   1   13.26    0.50 
  -2 -12  -1    6.40    0.35 
  -2 -12  -1    6.27    0.32 
  -2 -12  -1    6.73    0.38 
   2  12   1    6.40    0.40 
   2  12   1    6.82    0.29 
  -3 -12  -1   19.81    0.59 
  -3 -12  -1   19.51    0.60 
  -3 -12  -1   19.80    0.61 
   3  12   1   19.04    0.54 
  -4 -12  -1    3.73    0.30 
  -4 -12  -1    3.90    0.37 
  -4 -12  -1    4.16    0.31 
   4  12   1    3.79    0.38 
   4  12   1    3.52    0.33 
  -5 -12  -1    6.76    0.40 
  -5 -12  -1    7.54    0.47 
   5  12   1    6.66    0.43 
   5  12   1    6.74    0.47 
  -1 -13  -1    0.50    0.18 
  -2 -13  -1    0.38    0.18 
  -3 -13  -1   -0.06    0.17 
   3  13   1    0.27    0.28 
   4  11  -2   16.94    0.64 
  -4 -11   2   18.46    0.68 
  -4 -11   2   17.67    0.61 
   3  11  -2    0.04    0.18 
   3  11  -2    0.16    0.20 
  -3 -11   2   -0.06    0.19 
  -3 -11   2    0.01    0.16 
   2  11  -2    7.92    0.47 
  -2 -11   2    7.59    0.37 
  -2 -11   2    7.68    0.44 
  -2 -11   2    7.11    0.42 
   1  11  -2    3.25    0.32 
   1  11  -2    2.84    0.28 
  -1 -11   2    2.91    0.27 
  -1 -11   2    3.18    0.26 
  -1 -11   2    3.03    0.28 
   0  11  -2    0.14    0.20 
   0 -11   2    0.29    0.15 
   0 -11   2    0.37    0.14 
   1 -11   2    7.13    0.36 
   1 -11   2    7.78    0.36 
   5  10  -2    4.73    0.39 
   5  10  -2    5.09    0.40 
  -5 -10   2    5.89    0.48 
  -5 -10   2    4.47    0.38 
   4  10  -2    0.00    0.20 
  -4 -10   2   -0.40    0.14 
   3  10  -2    5.41    0.34 
  -3 -10   2    4.94    0.32 
  -3 -10   2    6.12    0.34 
  -3 -10   2    5.56    0.36 
   2  10  -2    2.07    0.19 
   2  10  -2    2.44    0.26 
   2  10  -2    2.30    0.21 
  -2 -10   2    2.43    0.23 
  -2 -10   2    2.39    0.23 
  -2 -10   2    2.07    0.20 
   1  10  -2   14.73    0.45 
   1  10  -2   13.69    0.50 
   1  10  -2   14.07    0.43 
  -1 -10   2   14.83    0.47 
  -1 -10   2   14.44    0.47 
  -1 -10   2   14.70    0.48 
   0  10  -2    2.73    0.25 
   0  10  -2    2.16    0.23 
   0 -10   2    2.47    0.25 
   0 -10   2    2.36    0.23 
   0 -10   2    2.30    0.27 
  -1  10  -2   10.14    0.38 
  -1  10  -2    9.61    0.42 
   1 -10   2   10.03    0.38 
   1 -10   2   10.16    0.40 
   1 -10   2   10.71    0.38 
   2 -10   2    2.14    0.21 
   2 -10   2    1.78    0.19 
   3 -10   2    5.43    0.28 
   3 -10   2    5.15    0.32 
   6   9  -2   20.70    0.64 
   6   9  -2   20.93    0.67 
  -6  -9   2   19.76    0.60 
  -6  -9   2   21.13    0.63 
   5   9  -2    6.70    0.38 
   5   9  -2    6.87    0.38 
   5   9  -2    6.94    0.37 
  -5  -9   2    7.11    0.42 
  -5  -9   2    6.73    0.36 
  -5  -9   2    6.23    0.32 
   4   9  -2    5.56    0.32 
   4   9  -2    6.00    0.33 
  -4  -9   2    5.77    0.28 
  -4  -9   2    5.69    0.35 
  -4  -9   2    5.59    0.31 
  -4  -9   2    5.44    0.30 
   3   9  -2    2.35    0.24 
   3   9  -2    1.95    0.21 
  -3  -9   2    1.76    0.20 
  -3  -9   2    1.64    0.18 
  -3  -9   2    2.02    0.22 
  -3  -9   2    2.12    0.20 
   2   9  -2    1.49    0.16 
   2   9  -2    1.42    0.18 
  -2  -9   2    1.44    0.17 
  -2  -9   2    1.68    0.16 
  -2  -9   2    1.38    0.15 
  -2  -9   2    1.46    0.17 
   1   9  -2    9.89    0.38 
   1   9  -2   10.64    0.33 
   1   9  -2   10.13    0.34 
  -1  -9   2   10.16    0.36 
  -1  -9   2    9.39    0.33 
  -1  -9   2    8.83    0.36 
  -1  -9   2    9.66    0.35 
   0   9  -2    0.78    0.11 
   0   9  -2    1.09    0.17 
   0   9  -2    1.01    0.14 
   0  -9   2    0.89    0.13 
   0  -9   2    0.80    0.13 
   0  -9   2    0.87    0.14 
  -1   9  -2    5.71    0.30 
  -1   9  -2    6.32    0.25 
  -1   9  -2    6.14    0.27 
   1  -9   2    5.91    0.28 
   1  -9   2    5.99    0.28 
   1  -9   2    5.87    0.28 
  -2   9  -2   10.40    0.39 
  -2   9  -2   10.20    0.36 
   2  -9   2   10.07    0.35 
   2  -9   2   10.10    0.37 
   2  -9   2    9.66    0.34 
  -3   9  -2    0.26    0.16 
   3  -9   2    0.40    0.13 
   3  -9   2    0.43    0.11 
   4  -9   2   13.79    0.42 
   7   8  -2    3.29    0.30 
   7   8  -2    3.69    0.39 
  -7  -8   2    3.72    0.35 
   6   8  -2    0.31    0.13 
   6   8  -2    0.51    0.17 
  -6  -8   2    0.68    0.15 
  -6  -8   2    0.46    0.22 
  -6  -8   2    0.34    0.15 
   5   8  -2    0.43    0.15 
   5   8  -2    0.19    0.14 
   5   8  -2    0.37    0.15 
  -5  -8   2    0.15    0.11 
  -5  -8   2    0.27    0.14 
  -5  -8   2    0.19    0.17 
   4   8  -2    0.29    0.12 
   4   8  -2    0.30    0.09 
   4   8  -2    0.26    0.14 
  -4  -8   2    0.40    0.12 
  -4  -8   2    0.45    0.11 
  -4  -8   2    0.10    0.12 
  -4  -8   2    0.26    0.14 
   3   8  -2   38.99    0.92 
   3   8  -2   40.15    0.89 
  -3  -8   2   40.57    0.89 
  -3  -8   2   38.59    0.91 
  -3  -8   2   39.08    0.91 
  -3  -8   2   38.17    0.92 
   2   8  -2    2.01    0.21 
   2   8  -2    2.29    0.18 
  -2  -8   2    2.39    0.19 
  -2  -8   2    1.92    0.20 
  -2  -8   2    1.91    0.19 
   1   8  -2   41.80    0.89 
   1   8  -2   40.77    0.88 
   1   8  -2   38.83    0.91 
  -1  -8   2   39.52    0.92 
  -1  -8   2   38.36    0.90 
   0   8  -2    6.31    0.24 
   0   8  -2    6.51    0.24 
   0   8  -2    6.31    0.27 
   0  -8   2    6.21    0.26 
   0  -8   2    6.22    0.26 
   0  -8   2    6.11    0.25 
  -1   8  -2   50.99    1.11 
  -1   8  -2   51.56    1.10 
  -1   8  -2   51.08    1.09 
   1  -8   2   49.03    1.10 
   1  -8   2   52.04    1.14 
   1  -8   2   50.55    1.09 
   1  -8   2   50.46    1.12 
  -2   8  -2   13.46    0.41 
  -2   8  -2   13.74    0.38 
  -2   8  -2   13.61    0.39 
   2  -8   2   12.62    0.40 
   2  -8   2   14.04    0.42 
   2  -8   2   12.84    0.39 
   2  -8   2   13.12    0.39 
  -3   8  -2    5.65    0.28 
  -3   8  -2    5.58    0.28 
   3  -8   2    5.79    0.27 
   3  -8   2    5.58    0.24 
   3  -8   2    5.62    0.28 
  -4   8  -2   15.48    0.49 
   4  -8   2   14.84    0.42 
   4  -8   2   15.05    0.48 
   4  -8   2   14.92    0.48 
   5  -8   2    7.36    0.28 
   7   7  -2   13.58    0.45 
   7   7  -2   14.28    0.53 
  -7  -7   2   13.33    0.42 
   6   7  -2    0.96    0.17 
   6   7  -2    0.87    0.13 
   6   7  -2    1.12    0.17 
  -6  -7   2    1.05    0.20 
  -6  -7   2    1.11    0.14 
  -6  -7   2    1.04    0.15 
   5   7  -2   21.48    0.58 
   5   7  -2   20.34    0.54 
   5   7  -2   20.91    0.61 
   5   7  -2   22.21    0.56 
  -5  -7   2   21.63    0.54 
  -5  -7   2   21.33    0.56 
  -5  -7   2   21.61    0.54 
  -5  -7   2   21.52    0.59 
   4   7  -2   10.27    0.33 
   4   7  -2    9.78    0.30 
  -4  -7   2   10.56    0.32 
  -4  -7   2   10.10    0.35 
  -4  -7   2   10.28    0.32 
  -4  -7   2    9.97    0.36 
   3   7  -2   11.10    0.33 
   3   7  -2   11.06    0.36 
  -3  -7   2   11.05    0.33 
  -3  -7   2   11.37    0.33 
  -3  -7   2   10.66    0.36 
  -3  -7   2   10.82    0.35 
   2   7  -2    8.03    0.29 
  -2  -7   2    8.01    0.29 
  -2  -7   2    7.91    0.28 
  -2  -7   2    8.10    0.27 
  -2  -7   2    7.51    0.26 
   1   7  -2    0.36    0.09 
   1   7  -2    0.42    0.08 
  -1  -7   2    0.41    0.09 
  -1  -7   2    0.59    0.11 
  -1  -7   2    0.52    0.08 
  -1  -7   2    0.44    0.09 
   0   7  -2    2.70    0.15 
   0   7  -2    2.74    0.18 
   0   7  -2    2.36    0.15 
   0  -7   2    2.18    0.16 
   0  -7   2    2.35    0.16 
   0  -7   2    2.22    0.17 
   0  -7   2    2.28    0.17 
  -1   7  -2    8.96    0.27 
  -1   7  -2    8.78    0.27 
  -1   7  -2    8.52    0.29 
   1  -7   2    8.08    0.28 
   1  -7   2    8.79    0.29 
   1  -7   2    8.58    0.29 
   1  -7   2    8.65    0.28 
  -2   7  -2   10.31    0.33 
  -2   7  -2   10.29    0.30 
   2  -7   2   10.54    0.33 
   2  -7   2    9.68    0.31 
   2  -7   2   10.04    0.31 
  -3   7  -2    1.53    0.18 
   3  -7   2    1.63    0.17 
   3  -7   2    1.28    0.15 
   3  -7   2    1.35    0.14 
  -4   7  -2   18.52    0.51 
  -4   7  -2   20.46    0.55 
   4  -7   2   20.46    0.50 
   4  -7   2   20.57    0.54 
   4  -7   2   19.30    0.53 
   4  -7   2   19.76    0.50 
  -5   7  -2   14.36    0.49 
   5  -7   2   13.75    0.42 
   5  -7   2   14.04    0.39 
   5  -7   2   13.74    0.44 
   6  -7   2   18.01    0.54 
   6  -7   2   18.50    0.48 
   8   6  -2   -0.05    0.17 
   7   6  -2    0.57    0.17 
   7   6  -2    0.42    0.12 
  -7  -6   2    0.47    0.10 
  -7  -6   2    0.25    0.13 
   6   6  -2   -0.13    0.10 
   6   6  -2   -0.08    0.12 
   6   6  -2    0.05    0.12 
   6   6  -2    0.09    0.10 
  -6  -6   2    0.05    0.13 
  -6  -6   2   -0.02    0.09 
  -6  -6   2    0.09    0.10 
   5   6  -2    1.55    0.17 
   5   6  -2    1.87    0.16 
   5   6  -2    1.79    0.18 
   5   6  -2    1.67    0.19 
  -5  -6   2    1.25    0.15 
  -5  -6   2    1.39    0.13 
  -5  -6   2    1.21    0.14 
  -5  -6   2    1.40    0.16 
   4   6  -2    4.42    0.21 
   4   6  -2    4.25    0.19 
   4   6  -2    4.50    0.22 
  -4  -6   2    4.16    0.21 
  -4  -6   2    4.22    0.23 
  -4  -6   2    4.20    0.18 
  -4  -6   2    4.26    0.19 
   3   6  -2   15.43    0.39 
   3   6  -2   14.67    0.39 
   3   6  -2   15.47    0.42 
  -3  -6   2   15.26    0.42 
  -3  -6   2   15.62    0.39 
  -3  -6   2   14.93    0.41 
  -3  -6   2   15.05    0.39 
   2   6  -2   49.35    1.07 
   2   6  -2   51.54    1.05 
  -2  -6   2   50.99    1.08 
  -2  -6   2   50.24    1.05 
  -2  -6   2   49.57    1.09 
  -2  -6   2   49.65    1.07 
   1   6  -2    3.75    0.16 
   1   6  -2    3.72    0.18 
  -1  -6   2    3.91    0.18 
  -1  -6   2    3.80    0.18 
  -1  -6   2    3.90    0.17 
  -1  -6   2    3.99    0.17 
   0   6  -2   70.01    1.45 
   0   6  -2   70.86    1.43 
   0   6  -2   69.72    1.47 
   0  -6   2   70.50    1.48 
   0  -6   2   74.13    1.49 
   0  -6   2   70.75    1.43 
   0  -6   2   70.07    1.45 
  -1   6  -2   68.85    1.46 
  -1   6  -2   69.82    1.43 
  -1   6  -2   70.55    1.42 
   1  -6   2   70.42    1.42 
   1  -6   2   73.47    1.48 
   1  -6   2   67.81    1.43 
  -2   6  -2  140.55    2.78 
  -2   6  -2  139.48    2.78 
  -2   6  -2  139.80    2.87 
   2  -6   2  139.04    2.78 
   2  -6   2  143.23    2.78 
   2  -6   2  145.07    2.86 
  -3   6  -2    0.10    0.08 
  -3   6  -2    0.13    0.09 
   3  -6   2    0.02    0.08 
   3  -6   2    0.09    0.07 
   3  -6   2    0.15    0.07 
   3  -6   2    0.13    0.08 
  -4   6  -2   31.58    0.73 
  -4   6  -2   34.47    0.78 
   4  -6   2   33.78    0.76 
   4  -6   2   32.91    0.74 
   4  -6   2   33.08    0.73 
   4  -6   2   31.91    0.75 
  -5   6  -2    0.35    0.15 
  -5   6  -2    0.36    0.12 
   5  -6   2    0.20    0.08 
   5  -6   2    0.35    0.11 
   5  -6   2    0.27    0.11 
  -6   6  -2   16.43    0.55 
   6  -6   2   16.67    0.48 
   6  -6   2   15.76    0.47 
   6  -6   2   15.93    0.43 
   8   5  -2    1.17    0.15 
   8   5  -2    1.24    0.21 
   7   5  -2   22.82    0.66 
   7   5  -2   23.18    0.58 
   7   5  -2   22.16    0.59 
   7   5  -2   22.38    0.58 
  -7  -5   2   21.60    0.61 
  -7  -5   2   21.97    0.52 
   6   5  -2    0.05    0.09 
   6   5  -2    0.02    0.10 
   6   5  -2   -0.11    0.10 
   6   5  -2    0.13    0.09 
  -6  -5   2   -0.10    0.08 
  -6  -5   2    0.06    0.11 
  -6  -5   2    0.03    0.08 
   5   5  -2   56.72    1.23 
   5   5  -2   57.77    1.23 
   5   5  -2   59.57    1.21 
   5   5  -2   56.74    1.30 
  -5  -5   2   58.59    1.20 
  -5  -5   2   57.03    1.22 
  -5  -5   2   57.99    1.21 
  -5  -5   2   57.51    1.23 
   4   5  -2    0.14    0.08 
   4   5  -2    0.20    0.09 
   4   5  -2    0.18    0.06 
  -4  -5   2    0.09    0.06 
  -4  -5   2    0.09    0.06 
  -4  -5   2    0.04    0.08 
  -4  -5   2    0.09    0.07 
   3   5  -2   28.57    0.63 
   3   5  -2   27.61    0.64 
   3   5  -2   27.78    0.63 
  -3  -5   2   28.60    0.65 
  -3  -5   2   28.99    0.64 
  -3  -5   2   28.27    0.63 
  -3  -5   2   28.05    0.64 
   2   5  -2   16.95    0.40 
   2   5  -2   16.76    0.42 
  -2  -5   2   17.08    0.40 
  -2  -5   2   17.01    0.41 
  -2  -5   2   16.97    0.42 
  -2  -5   2   16.87    0.42 
   1   5  -2   33.62    0.72 
   1   5  -2   34.19    0.74 
  -1  -5   2   34.35    0.73 
  -1  -5   2   34.67    0.75 
  -1  -5   2   34.25    0.74 
  -1  -5   2   33.64    0.75 
   0  -5   2    0.69    0.08 
   0  -5   2    0.50    0.06 
   0  -5   2    0.76    0.09 
  -1   5  -2    2.39    0.14 
  -1   5  -2    2.73    0.13 
   1  -5   2    2.53    0.13 
   1  -5   2    2.41    0.13 
   1  -5   2    2.53    0.13 
  -2   5  -2    7.08    0.22 
  -2   5  -2    7.15    0.23 
  -2   5  -2    7.03    0.22 
   2  -5   2    6.97    0.22 
   2  -5   2    7.56    0.24 
   2  -5   2    7.22    0.23 
   2  -5   2    7.03    0.21 
  -3   5  -2   15.83    0.41 
  -3   5  -2   15.06    0.39 
  -3   5  -2   16.08    0.40 
   3  -5   2   16.56    0.41 
   3  -5   2   15.71    0.39 
   3  -5   2   15.97    0.39 
   3  -5   2   16.63    0.41 
  -4   5  -2    0.71    0.10 
  -4   5  -2    0.73    0.11 
   4  -5   2    0.67    0.09 
   4  -5   2    0.56    0.09 
   4  -5   2    0.65    0.09 
   4  -5   2    0.66    0.10 
  -5   5  -2    4.60    0.27 
  -5   5  -2    4.41    0.22 
  -5   5  -2    4.55    0.19 
   5  -5   2    4.83    0.21 
   5  -5   2    4.63    0.22 
   5  -5   2    4.59    0.19 
  -6   5  -2    3.83    0.24 
   6  -5   2    3.87    0.25 
   6  -5   2    3.48    0.18 
   6  -5   2    4.26    0.26 
   6  -5   2    3.84    0.23 
   7  -5   2   14.85    0.54 
   7  -5   2   15.64    0.49 
   7  -5   2   15.30    0.41 
   8   4  -2    0.39    0.11 
   8   4  -2    0.43    0.17 
   8   4  -2    0.33    0.17 
   7   4  -2   11.85    0.45 
   7   4  -2   12.08    0.36 
   7   4  -2   12.80    0.38 
   7   4  -2   11.61    0.38 
  -7  -4   2   12.23    0.39 
   6   4  -2    1.24    0.12 
   6   4  -2    1.35    0.16 
   6   4  -2    1.24    0.12 
   6   4  -2    1.38    0.16 
  -6  -4   2    1.31    0.13 
  -6  -4   2    1.20    0.14 
   5   4  -2    1.48    0.17 
   5   4  -2    1.65    0.14 
   5   4  -2    1.51    0.14 
   5   4  -2    1.67    0.14 
  -5  -4   2    1.40    0.12 
  -5  -4   2    1.53    0.12 
  -5  -4   2    1.51    0.15 
   4   4  -2   47.13    1.00 
   4   4  -2   46.51    1.01 
   4   4  -2   47.64    0.99 
  -4  -4   2   49.48    0.99 
  -4  -4   2   47.16    1.00 
  -4  -4   2   47.17    1.00 
  -4  -4   2   47.84    1.00 
   3   4  -2    0.69    0.08 
   3   4  -2    0.59    0.07 
   3   4  -2    0.79    0.09 
  -3  -4   2    0.57    0.08 
  -3  -4   2    0.47    0.07 
  -3  -4   2    0.56    0.06 
   2   4  -2  126.43    2.57 
   2   4  -2  131.11    2.63 
   2   4  -2  134.44    2.64 
  -2  -4   2  129.67    2.57 
  -2  -4   2  135.24    2.57 
  -2  -4   2  131.42    2.64 
  -2  -4   2  131.24    2.62 
   1   4  -2    0.78    0.08 
   1   4  -2    0.75    0.09 
  -1  -4   2    0.91    0.08 
  -1  -4   2    0.80    0.08 
  -1  -4   2    0.69    0.07 
  -1  -4   2    0.80    0.09 
   0   4  -2  210.08    3.99 
   0   4  -2  204.96    4.13 
   0   4  -2  207.81    4.00 
   0  -4   2  203.37    4.11 
   0  -4   2  209.18    3.99 
   0  -4   2  204.90    4.00 
  -1   4  -2   36.21    0.77 
  -1   4  -2   35.31    0.78 
  -1   4  -2   37.32    0.76 
   1  -4   2   36.74    0.76 
   1  -4   2   37.38    0.79 
   1  -4   2   36.52    0.77 
  -2   4  -2   91.12    1.82 
  -2   4  -2   92.27    1.81 
  -2   4  -2   89.87    1.87 
   2  -4   2   93.88    1.82 
   2  -4   2   94.17    1.86 
   2  -4   2   88.61    1.86 
   2  -4   2   90.79    1.81 
  -3   4  -2   11.08    0.31 
  -3   4  -2   10.73    0.29 
   3  -4   2   10.74    0.28 
   3  -4   2   10.63    0.28 
   3  -4   2   10.70    0.30 
   3  -4   2   11.40    0.30 
  -4   4  -2  152.05    2.89 
  -4   4  -2  146.06    2.87 
  -4   4  -2  149.97    3.01 
   4  -4   2  147.98    2.98 
   4  -4   2  145.61    2.88 
   4  -4   2  151.35    2.95 
   4  -4   2  138.33    2.89 
  -5   4  -2   14.73    0.38 
  -5   4  -2   15.54    0.45 
   5  -4   2   15.06    0.38 
   5  -4   2   15.40    0.41 
  -6   4  -2    4.77    0.19 
  -6   4  -2    4.57    0.22 
   6  -4   2    5.00    0.25 
   6  -4   2    4.96    0.25 
   6  -4   2    4.90    0.20 
   7  -4   2    8.49    0.27 
   7  -4   2    8.01    0.38 
   7  -4   2    8.68    0.36 
   7  -4   2    9.41    0.34 
   8   3  -2    6.50    0.36 
   8   3  -2    6.26    0.34 
   8   3  -2    6.55    0.26 
   7   3  -2   10.89    0.35 
   7   3  -2   10.55    0.32 
   7   3  -2   10.96    0.34 
   7   3  -2   10.82    0.42 
  -7  -3   2   10.98    0.34 
   6   3  -2   16.36    0.41 
   6   3  -2   16.63    0.42 
   6   3  -2   16.69    0.42 
   6   3  -2   16.87    0.50 
  -6  -3   2   16.59    0.42 
  -6  -3   2   15.93    0.38 
   5   3  -2   15.10    0.39 
   5   3  -2   15.35    0.44 
   5   3  -2   15.88    0.38 
  -5  -3   2   15.28    0.39 
  -5  -3   2   15.00    0.36 
  -5  -3   2   15.32    0.37 
   4   3  -2   53.05    1.08 
   4   3  -2   52.12    1.11 
   4   3  -2   53.73    1.10 
  -4  -3   2   52.45    1.09 
  -4  -3   2   53.51    1.10 
  -4  -3   2   54.11    1.08 
   3   3  -2   43.06    0.90 
   3   3  -2   41.69    0.89 
   3   3  -2   43.30    0.90 
   3   3  -2   42.71    0.88 
  -3  -3   2   43.44    0.88 
  -3  -3   2   44.40    0.90 
  -3  -3   2   42.75    0.90 
   2   3  -2  110.48    2.19 
   2   3  -2  112.39    2.18 
   2   3  -2  112.14    2.24 
   2   3  -2  112.07    2.24 
  -2  -3   2  109.67    2.19 
  -2  -3   2  111.69    2.25 
  -2  -3   2  114.36    2.18 
  -2  -3   2  112.60    2.23 
   1   3  -2   40.18    0.83 
   1   3  -2   40.05    0.83 
   1   3  -2   41.85    0.86 
  -1  -3   2   39.36    0.83 
  -1  -3   2   42.33    0.85 
  -1  -3   2   40.55    0.85 
  -1  -3   2   41.21    0.83 
   0   3  -2   62.60    1.31 
   0   3  -2   64.04    1.27 
   0   3  -2   63.31    1.28 
   0   3  -2   65.00    1.31 
   0  -3   2   64.75    1.27 
   0  -3   2   65.57    1.31 
   0  -3   2   63.46    1.27 
  -1   3  -2    5.34    0.16 
  -1   3  -2    5.16    0.16 
  -1   3  -2    5.22    0.16 
   1  -3   2    5.20    0.16 
   1  -3   2    5.40    0.16 
   1  -3   2    5.22    0.16 
   1  -3   2    5.34    0.16 
  -2   3  -2   26.95    0.59 
  -2   3  -2   26.78    0.58 
   2  -3   2   26.16    0.57 
   2  -3   2   27.59    0.58 
   2  -3   2   27.71    0.59 
   2  -3   2   26.47    0.58 
  -3   3  -2   29.38    0.65 
  -3   3  -2   29.99    0.67 
   3  -3   2   29.40    0.65 
   3  -3   2   28.93    0.64 
   3  -3   2   30.53    0.64 
   3  -3   2   29.35    0.63 
  -4   3  -2   10.46    0.27 
  -4   3  -2   10.30    0.27 
  -4   3  -2    9.74    0.31 
   4  -3   2   10.33    0.28 
   4  -3   2   10.55    0.29 
   4  -3   2   10.30    0.27 
   4  -3   2   10.19    0.27 
  -5   3  -2   24.76    0.55 
  -5   3  -2   25.63    0.62 
  -5   3  -2   24.05    0.54 
   5  -3   2   25.21    0.55 
   5  -3   2   22.41    0.57 
   5  -3   2   25.22    0.59 
  -6   3  -2    8.58    0.34 
  -6   3  -2    8.50    0.25 
  -6   3  -2    8.23    0.26 
   6  -3   2    8.29    0.25 
   6  -3   2    8.75    0.31 
   6  -3   2    8.77    0.30 
   6  -3   2    8.36    0.26 
   6  -3   2    8.79    0.29 
  -7   3  -2   24.81    0.70 
  -7   3  -2   24.66    0.57 
   7  -3   2   24.26    0.55 
   7  -3   2   23.97    0.64 
   7  -3   2   25.29    0.60 
   7  -3   2   24.56    0.57 
   7  -3   2   25.47    0.66 
   8  -3   2    3.45    0.20 
   8  -3   2    3.16    0.34 
   8   2  -2    1.45    0.20 
   8   2  -2    1.31    0.12 
   8   2  -2    1.44    0.15 
   8   2  -2    1.59    0.18 
   7   2  -2    5.19    0.20 
   7   2  -2    5.47    0.23 
   7   2  -2    5.23    0.24 
   7   2  -2    5.17    0.29 
  -7  -2   2    4.77    0.19 
  -7  -2   2    5.08    0.22 
   6   2  -2    1.95    0.13 
   6   2  -2    2.23    0.15 
   6   2  -2    1.95    0.20 
  -6  -2   2    1.80    0.14 
  -6  -2   2    1.78    0.12 
   5   2  -2    5.57    0.24 
   5   2  -2    5.47    0.16 
   5   2  -2    5.17    0.18 
   5   2  -2    5.38    0.18 
  -5  -2   2    5.41    0.17 
  -5  -2   2    5.08    0.18 
  -5  -2   2    5.35    0.16 
   4   2  -2   96.52    1.96 
   4   2  -2   97.44    1.94 
   4   2  -2   97.79    2.03 
   4   2  -2   96.37    1.92 
   4   2  -2   96.32    1.91 
  -4  -2   2   99.58    1.91 
  -4  -2   2   97.89    1.94 
  -4  -2   2   97.31    1.92 
   3   2  -2   19.98    0.44 
   3   2  -2   19.59    0.44 
   3   2  -2   19.22    0.43 
   3   2  -2   19.65    0.44 
  -3  -2   2   19.78    0.43 
  -3  -2   2   20.24    0.44 
  -3  -2   2   19.69    0.43 
   2   2  -2    0.92    0.07 
   2   2  -2    1.03    0.07 
   2   2  -2    0.87    0.06 
   2   2  -2    0.89    0.06 
  -2  -2   2    0.93    0.06 
  -2  -2   2    0.84    0.07 
  -2  -2   2    0.89    0.06 
  -2  -2   2    0.89    0.07 
   1   2  -2   32.06    0.67 
   1   2  -2   32.17    0.67 
   1   2  -2   34.71    0.70 
  -1  -2   2   31.58    0.67 
  -1  -2   2   35.54    0.67 
  -1  -2   2   33.55    0.69 
  -1  -2   2   31.83    0.69 
   0   2  -2   14.77    0.35 
   0   2  -2   16.01    0.35 
   0   2  -2   15.49    0.34 
   0  -2   2   15.76    0.34 
   0  -2   2   15.47    0.35 
  -1   2  -2  135.17    2.75 
  -1   2  -2  139.10    2.73 
  -1   2  -2  137.96    2.66 
  -1   2  -2  139.85    2.66 
   1  -2   2  140.07    2.66 
   1  -2   2  137.09    2.66 
   1  -2   2  141.74    2.79 
   1  -2   2  130.78    2.76 
  -2   2  -2    4.45    0.15 
  -2   2  -2    4.61    0.14 
  -2   2  -2    4.46    0.14 
   2  -2   2    4.64    0.14 
   2  -2   2    4.55    0.14 
   2  -2   2    4.54    0.14 
   2  -2   2    4.60    0.14 
  -3   2  -2   41.82    0.86 
  -3   2  -2   42.18    0.91 
   3  -2   2   42.39    0.86 
   3  -2   2   41.94    0.89 
   3  -2   2   42.93    0.87 
   3  -2   2   41.46    0.86 
  -4   2  -2    0.12    0.05 
  -4   2  -2   -0.01    0.06 
  -4   2  -2    0.08    0.05 
   4  -2   2    0.33    0.06 
   4  -2   2    0.14    0.06 
   4  -2   2    0.14    0.04 
   4  -2   2    0.15    0.06 
  -5   2  -2   21.63    0.54 
  -5   2  -2   19.86    0.47 
  -5   2  -2   20.96    0.47 
   5  -2   2   20.66    0.46 
   5  -2   2   20.88    0.48 
   5  -2   2   19.80    0.47 
   5  -2   2   20.63    0.49 
   5  -2   2   20.73    0.51 
  -6   2  -2    0.08    0.08 
  -6   2  -2    0.01    0.09 
   6  -2   2    0.04    0.05 
   6  -2   2   -0.01    0.08 
   6  -2   2    0.08    0.08 
   6  -2   2    0.00    0.07 
  -7   2  -2    4.14    0.29 
  -7   2  -2    3.49    0.21 
   7  -2   2    3.96    0.23 
   7  -2   2    3.99    0.26 
   7  -2   2    3.76    0.24 
   7  -2   2    3.85    0.18 
   8  -2   2    1.73    0.20 
   8  -2   2    1.92    0.21 
   8  -2   2    1.59    0.17 
   8   1  -2   19.32    0.52 
   8   1  -2   18.73    0.45 
   8   1  -2   18.42    0.60 
   8   1  -2   18.25    0.44 
   7   1  -2    3.47    0.18 
   7   1  -2    3.19    0.16 
   7   1  -2    3.39    0.25 
   7   1  -2    3.46    0.20 
  -7  -1   2    3.19    0.14 
   6   1  -2   33.31    0.82 
   6   1  -2   32.65    0.73 
   6   1  -2   33.67    0.70 
  -6  -1   2   33.71    0.69 
  -6  -1   2   34.23    0.70 
   5   1  -2    7.61    0.21 
   5   1  -2    7.50    0.21 
   5   1  -2    7.57    0.19 
   5   1  -2    7.46    0.28 
   5   1  -2    7.67    0.21 
  -5  -1   2    7.63    0.21 
  -5  -1   2    7.67    0.20 
   4   1  -2   53.86    1.18 
   4   1  -2   55.88    1.10 
   4   1  -2   54.29    1.08 
   4   1  -2   53.07    1.09 
   4   1  -2   54.99    1.11 
  -4  -1   2   54.75    1.10 
  -4  -1   2   54.30    1.09 
  -4  -1   2   55.06    1.08 
   3   1  -2    3.75    0.12 
   3   1  -2    3.65    0.12 
   3   1  -2    3.58    0.11 
   3   1  -2    3.68    0.11 
  -3  -1   2    3.56    0.12 
  -3  -1   2    3.76    0.11 
  -3  -1   2    3.92    0.12 
   2   1  -2   21.38    0.44 
   2   1  -2   19.95    0.42 
   2   1  -2   20.20    0.43 
   2   1  -2   20.73    0.43 
  -2  -1   2   20.19    0.42 
  -2  -1   2   21.40    0.44 
  -2  -1   2   20.35    0.43 
   1   1  -2    2.88    0.09 
   1   1  -2    3.23    0.10 
   1   1  -2    3.17    0.09 
  -1  -1   2    2.83    0.09 
  -1  -1   2    3.05    0.09 
  -1  -1   2    2.77    0.09 
  -1  -1   2    2.78    0.09 
   0   1  -2  188.41    3.63 
   0   1  -2  183.55    3.58 
   0   1  -2  187.69    3.76 
   0   1  -2  175.53    3.69 
   0  -1   2  194.95    3.77 
   0  -1   2  188.59    3.62 
   0  -1   2  177.16    3.62 
  -1   1  -2   42.43    0.87 
  -1   1  -2   44.51    0.87 
  -1   1  -2   42.34    0.90 
  -1   1  -2   44.75    0.89 
   1  -1   2   42.84    0.89 
   1  -1   2   43.09    0.87 
   1  -1   2   45.25    0.89 
   1  -1   2   44.29    0.87 
  -2   1  -2   10.57    0.25 
  -2   1  -2   10.81    0.25 
  -2   1  -2   10.68    0.25 
  -2   1  -2   10.59    0.26 
   2  -1   2   10.86    0.25 
   2  -1   2   11.00    0.25 
   2  -1   2   10.68    0.26 
   2  -1   2   10.70    0.25 
  -3   1  -2   15.41    0.38 
  -3   1  -2   15.31    0.35 
   3  -1   2   16.06    0.34 
   3  -1   2   15.17    0.35 
   3  -1   2   15.28    0.37 
   3  -1   2   15.38    0.35 
  -4   1  -2    2.53    0.14 
   4  -1   2    2.54    0.12 
   4  -1   2    2.49    0.14 
   4  -1   2    2.56    0.09 
   4  -1   2    2.52    0.12 
   4  -1   2    2.34    0.11 
  -5   1  -2   63.98    1.29 
  -5   1  -2   67.28    1.40 
  -5   1  -2   64.23    1.30 
   5  -1   2   64.11    1.29 
   5  -1   2   64.22    1.29 
   5  -1   2   63.16    1.37 
   5  -1   2   63.22    1.34 
   5  -1   2   64.88    1.30 
  -6   1  -2   28.06    0.60 
  -6   1  -2   27.73    0.69 
  -6   1  -2   26.59    0.60 
   6  -1   2   25.14    0.68 
   6  -1   2   27.34    0.61 
   6  -1   2   27.30    0.63 
   6  -1   2   27.70    0.60 
  -7   1  -2   22.04    0.55 
  -7   1  -2   24.98    0.66 
  -7   1  -2   24.50    0.55 
   7  -1   2   23.66    0.55 
   7  -1   2   24.16    0.59 
   7  -1   2   24.09    0.57 
   7  -1   2   24.01    0.63 
   8  -1   2   16.39    0.43 
   8  -1   2   16.93    0.54 
   8  -1   2   17.51    0.48 
   8  -1   2   17.45    0.52 
   8   0  -2    7.54    0.39 
   8   0  -2    7.05    0.31 
   7   0  -2    0.97    0.11 
   7   0  -2    1.19    0.13 
   7   0  -2    1.07    0.16 
   7   0  -2    1.15    0.11 
   6   0  -2   22.45    0.48 
   6   0  -2   22.52    0.48 
   6   0  -2   22.17    0.50 
   5   0  -2    0.14    0.04 
   5   0  -2    0.20    0.05 
   5   0  -2    0.11    0.04 
   5   0  -2    0.14    0.05 
   5   0  -2    0.07    0.07 
  -5   0   2    0.09    0.04 
   4   0  -2   82.57    1.66 
   4   0  -2   82.12    1.73 
   4   0  -2   82.62    1.66 
   4   0  -2   83.38    1.61 
   4   0  -2   82.60    1.62 
  -4   0   2   85.18    1.61 
  -4   0   2   83.32    1.61 
   3   0  -2   38.45    0.77 
   3   0  -2   39.21    0.78 
   3   0  -2   38.54    0.76 
   3   0  -2   36.88    0.75 
  -3   0   2   38.09    0.76 
  -3   0   2   39.06    0.78 
  -3   0   2   38.21    0.75 
   2   0  -2  141.57    2.79 
   2   0  -2  146.37    2.87 
   2   0  -2  138.87    2.73 
  -2   0   2  144.52    2.84 
  -2   0   2  138.92    2.72 
  -2   0   2  139.11    2.72 
   1   0  -2   73.48    1.42 
   1   0  -2   71.03    1.45 
   1   0  -2   71.60    1.41 
   1   0  -2   74.45    1.46 
  -1   0   2   76.08    1.47 
  -1   0   2   72.66    1.42 
  -1   0   2   74.75    1.46 
   0   0  -2   28.52    0.58 
   0   0  -2   29.81    0.60 
   0   0  -2   27.95    0.58 
   0   0   2   29.04    0.58 
   0   0   2   28.90    0.59 
   0   0   2   28.07    0.58 
   0   0   2   29.77    0.59 
  -1   0  -2  369.02    7.28 
  -1   0  -2  362.35    7.12 
   1   0   2  350.05    7.09 
   1   0   2  374.62    7.13 
   1   0   2  367.19    7.34 
   1   0   2  373.73    7.28 
  -2   0  -2    8.28    0.19 
  -2   0  -2    8.05    0.19 
  -2   0  -2    8.07    0.18 
  -2   0  -2    7.68    0.21 
   2   0   2    8.37    0.18 
   2   0   2    7.86    0.20 
   2   0   2    7.67    0.19 
   2   0   2    8.17    0.20 
   2   0   2    7.71    0.19 
  -3   0  -2   13.13    0.30 
   3   0   2   12.87    0.32 
   3   0   2   12.66    0.30 
   3   0   2   12.80    0.30 
   3   0   2   13.43    0.31 
   3   0   2   13.76    0.28 
  -4   0  -2    0.24    0.06 
  -4   0  -2    0.48    0.06 
   4   0   2    0.42    0.06 
   4   0   2    0.39    0.07 
   4   0   2    0.40    0.06 
   4   0   2    0.42    0.05 
   4   0   2    0.41    0.03 
  -5   0  -2   74.90    1.51 
  -5   0  -2   78.45    1.62 
  -5   0  -2   78.44    1.52 
   5   0   2   76.63    1.57 
   5   0   2   75.03    1.52 
   5   0   2   75.79    1.52 
   5   0   2   73.73    1.60 
  -6   0  -2    0.03    0.08 
  -6   0  -2    0.27    0.08 
  -6   0  -2    0.19    0.06 
   6   0   2    0.35    0.10 
   6   0   2    0.17    0.08 
   6   0   2    0.15    0.07 
  -7   0  -2    7.75    0.26 
  -7   0  -2    7.70    0.25 
  -7   0  -2    7.83    0.33 
   7   0   2    7.62    0.28 
   7   0   2    7.90    0.28 
   7   0   2    7.68    0.24 
   7   0   2    7.70    0.32 
  -8   0  -2    0.18    0.14 
   8   0   2    0.31    0.09 
   8   0   2    0.23    0.14 
   8   0   2    0.25    0.14 
   8   0   2    0.38    0.14 
   9   0   2    0.08    0.18 
   9   0   2    0.05    0.11 
   8  -1  -2   20.81    0.65 
   7  -1  -2    0.39    0.14 
   7  -1  -2    0.27    0.08 
   6  -1  -2   35.70    0.84 
   6  -1  -2   34.23    0.74 
   5  -1  -2    4.92    0.14 
   5  -1  -2    4.85    0.22 
   5  -1  -2    5.04    0.15 
   4  -1  -2   88.24    1.73 
   4  -1  -2   85.66    1.80 
   3  -1  -2   37.16    0.75 
   3  -1  -2   36.03    0.79 
   2  -1  -2    1.79    0.07 
   1  -1  -2    6.65    0.14 
   1  -1  -2    6.59    0.16 
  -1   1   2    6.35    0.14 
  -1   1   2    6.89    0.14 
  -1   1   2    6.78    0.16 
   0  -1  -2   13.66    0.28 
   0  -1  -2   12.97    0.27 
   0  -1  -2   13.26    0.27 
   0  -1  -2   11.62    0.28 
   0   1   2   13.61    0.28 
   0   1   2   13.00    0.28 
   0   1   2   13.53    0.29 
  -1  -1  -2  118.81    2.35 
  -1  -1  -2  112.21    2.36 
  -1  -1  -2  118.04    2.38 
  -1  -1  -2  116.00    2.30 
  -1  -1  -2  114.10    2.29 
   1   1   2  116.88    2.30 
   1   1   2  111.34    2.35 
   1   1   2  117.63    2.35 
   1   1   2  114.86    2.31 
  -2  -1  -2   71.85    1.42 
  -2  -1  -2   71.09    1.39 
  -2  -1  -2   72.58    1.40 
  -2  -1  -2   69.19    1.45 
   2   1   2   69.19    1.38 
   2   1   2   72.75    1.43 
   2   1   2   71.82    1.40 
   2   1   2   67.92    1.39 
  -3  -1  -2   66.07    1.36 
  -3  -1  -2   64.98    1.30 
  -3  -1  -2   66.16    1.29 
  -3  -1  -2   67.80    1.32 
   3   1   2   65.54    1.30 
   3   1   2   63.11    1.35 
   3   1   2   63.73    1.29 
   3   1   2   65.90    1.33 
  -4  -1  -2   27.75    0.59 
  -4  -1  -2   28.02    0.64 
   4   1   2   28.25    0.60 
   4   1   2   26.92    0.63 
   4   1   2   27.73    0.59 
   4   1   2   26.91    0.59 
  -5  -1  -2   14.12    0.39 
  -5  -1  -2   13.87    0.34 
   5   1   2   13.58    0.38 
   5   1   2   13.73    0.33 
   5   1   2   13.88    0.35 
   5   1   2   13.64    0.34 
  -6  -1  -2  108.12    2.25 
  -6  -1  -2  106.26    2.11 
   6   1   2  108.39    2.18 
   6   1   2  105.99    2.24 
   6   1   2  105.51    2.12 
   6   1   2  106.68    2.12 
  -7  -1  -2    5.85    0.29 
  -7  -1  -2    5.50    0.22 
  -7  -1  -2    6.12    0.22 
   7   1   2    5.66    0.24 
   7   1   2    5.74    0.21 
   7   1   2    5.95    0.29 
  -8  -1  -2   22.82    0.57 
   8   1   2   22.69    0.56 
   8   1   2   23.83    0.62 
   8   1   2   24.15    0.67 
   8   1   2   24.74    0.60 
   9   1   2    0.25    0.11 
   9   1   2    0.06    0.18 
   8  -2  -2    0.67    0.19 
   7  -2  -2    3.45    0.28 
   7  -2  -2    3.58    0.18 
   6  -2  -2    4.71    0.16 
   6  -2  -2    4.63    0.25 
   6  -2  -2    4.73    0.16 
   5  -2  -2   40.45    0.81 
   5  -2  -2   39.30    0.90 
   5  -2  -2   39.60    0.82 
   4  -2  -2    5.50    0.20 
   4  -2  -2    5.76    0.16 
   3  -2  -2   48.80    1.04 
   3  -2  -2   50.67    1.01 
   2  -2  -2   10.96    0.27 
   2  -2  -2   11.60    0.26 
   0  -2  -2  136.88    2.70 
   0  -2  -2  134.36    2.67 
   0  -2  -2  134.66    2.69 
   0  -2  -2  132.49    2.66 
   0   2   2  134.30    2.63 
   0   2   2  135.37    2.69 
  -1  -2  -2  318.44    6.34 
  -1  -2  -2  316.36    6.20 
  -1  -2  -2  314.70    6.30 
  -1  -2  -2  314.65    6.36 
  -1  -2  -2  315.26    6.18 
   1   2   2  327.33    6.35 
   1   2   2  313.63    6.34 
   1   2   2  308.36    6.17 
   1   2   2  315.52    6.19 
  -2  -2  -2    3.64    0.12 
  -2  -2  -2    3.95    0.12 
  -2  -2  -2    3.80    0.12 
  -2  -2  -2    3.78    0.12 
  -2  -2  -2    3.81    0.10 
   2   2   2    3.61    0.12 
   2   2   2    3.87    0.12 
   2   2   2    3.97    0.12 
   2   2   2    3.70    0.12 
  -3  -2  -2  214.48    4.18 
  -3  -2  -2  213.00    4.05 
  -3  -2  -2  207.14    4.02 
   3   2   2  203.52    4.20 
   3   2   2  211.11    4.18 
   3   2   2  207.81    4.02 
   3   2   2  203.59    4.04 
  -4  -2  -2   75.38    1.48 
  -4  -2  -2   74.57    1.48 
  -4  -2  -2   76.00    1.50 
  -4  -2  -2   74.46    1.56 
   4   2   2   74.74    1.51 
   4   2   2   73.70    1.48 
   4   2   2   73.75    1.48 
   4   2   2   71.41    1.55 
  -5  -2  -2    8.58    0.29 
  -5  -2  -2    9.23    0.25 
   5   2   2    8.47    0.25 
   5   2   2    8.90    0.25 
   5   2   2    8.31    0.28 
   5   2   2    8.38    0.24 
   6   2   2    9.11    0.28 
   6   2   2    9.45    0.27 
   6   2   2    9.64    0.28 
   6   2   2    9.26    0.32 
  -7  -2  -2    4.98    0.22 
   7   2   2    5.00    0.23 
   7   2   2    4.90    0.27 
   7   2   2    4.98    0.20 
   7   2   2    4.70    0.22 
  -8  -2  -2    7.81    0.30 
   8   2   2    7.42    0.35 
   8   2   2    7.54    0.32 
   8   2   2    7.32    0.26 
   8   2   2    7.67    0.32 
   9   2   2    0.37    0.11 
   9   2   2    0.21    0.17 
   8  -3  -2   25.47    0.73 
   7  -3  -2    5.86    0.31 
   7  -3  -2    5.29    0.20 
   7  -3  -2    5.26    0.20 
   7  -3  -2    5.25    0.21 
   6  -3  -2   52.80    1.09 
   6  -3  -2   53.29    1.10 
   6  -3  -2   54.13    1.19 
   5  -3  -2   16.72    0.39 
   5  -3  -2   16.85    0.45 
   4  -3  -2   67.81    1.37 
   4  -3  -2   66.29    1.40 
   3  -3  -2    3.74    0.14 
   2  -3  -2   21.75    0.47 
   1  -3  -2  252.34    4.82 
  -1   3   2  248.21    4.82 
  -1   3   2  246.38    4.80 
   0  -3  -2    0.93    0.05 
   0  -3  -2    1.24    0.05 
   0  -3  -2    0.87    0.05 
   0   3   2    1.04    0.05 
   0   3   2    1.09    0.05 
  -1  -3  -2   21.43    0.45 
  -1  -3  -2   22.01    0.46 
  -1  -3  -2   21.06    0.45 
  -1  -3  -2   21.50    0.46 
   1   3   2   21.25    0.45 
   1   3   2   21.57    0.45 
   1   3   2   22.98    0.46 
   1   3   2   22.04    0.46 
  -2  -3  -2    6.96    0.19 
  -2  -3  -2    7.15    0.19 
  -2  -3  -2    6.92    0.19 
   2   3   2    7.05    0.19 
   2   3   2    7.51    0.19 
   2   3   2    7.06    0.19 
  -3  -3  -2    4.17    0.14 
  -3  -3  -2    4.51    0.14 
  -3  -3  -2    4.18    0.15 
  -3  -3  -2    4.34    0.14 
   3   3   2    4.55    0.14 
   3   3   2    4.39    0.15 
   3   3   2    4.41    0.15 
   3   3   2    4.60    0.15 
  -4  -3  -2   19.11    0.43 
  -4  -3  -2   18.34    0.45 
  -4  -3  -2   18.63    0.43 
  -4  -3  -2   18.50    0.43 
   4   3   2   18.93    0.43 
   4   3   2   18.59    0.46 
   4   3   2   17.74    0.43 
   4   3   2   18.47    0.43 
  -5  -3  -2   17.82    0.41 
  -5  -3  -2   17.94    0.43 
   5   3   2   17.61    0.43 
   5   3   2   18.02    0.43 
   5   3   2   17.10    0.46 
   5   3   2   17.19    0.42 
   6   3   2   18.01    0.45 
   6   3   2   17.16    0.49 
   6   3   2   17.75    0.44 
   6   3   2   17.85    0.45 
   7   3   2    0.88    0.14 
   7   3   2    0.96    0.12 
   7   3   2    0.76    0.10 
   7   3   2    0.93    0.12 
  -8  -3  -2   12.49    0.39 
   8   3   2   13.39    0.42 
   8   3   2   11.71    0.41 
   8   3   2   12.37    0.36 
   8   3   2   13.31    0.46 
   9   3   2   10.54    0.46 
   9   3   2   10.07    0.33 
   8  -4  -2    1.07    0.22 
   7  -4  -2    8.74    0.37 
   7  -4  -2    8.02    0.28 
   7  -4  -2    8.03    0.28 
   7  -4  -2    8.72    0.27 
   6  -4  -2    0.53    0.12 
   6  -4  -2    0.46    0.10 
   5  -4  -2    9.99    0.29 
   5  -4  -2   10.55    0.32 
   4  -4  -2   19.61    0.47 
   3  -4  -2   57.13    1.18 
   2  -4  -2   89.06    1.82 
   2  -4  -2   92.75    1.75 
   2  -4  -2   91.17    1.75 
  -2   4   2   90.33    1.75 
   1  -4  -2  108.94    2.08 
   1  -4  -2  108.46    2.14 
   1  -4  -2  108.69    2.08 
  -1   4   2  105.28    2.08 
  -1   4   2  107.36    2.08 
   0  -4  -2   34.48    0.71 
   0  -4  -2   35.01    0.71 
   0  -4  -2   35.29    0.72 
   0   4   2   34.14    0.70 
   0   4   2   35.48    0.71 
  -1  -4  -2  174.53    3.33 
  -1  -4  -2  172.96    3.50 
  -1  -4  -2  172.43    3.38 
   1   4   2  175.66    3.40 
   1   4   2  165.57    3.38 
   1   4   2  167.89    3.49 
   1   4   2  180.76    3.51 
  -2  -4  -2   12.64    0.30 
  -2  -4  -2   12.56    0.30 
  -2  -4  -2   12.09    0.30 
   2   4   2   12.25    0.30 
   2   4   2   12.54    0.30 
   2   4   2   13.10    0.30 
   2   4   2   12.53    0.30 
  -3  -4  -2   24.10    0.54 
  -3  -4  -2   24.12    0.53 
  -3  -4  -2   24.52    0.53 
  -3  -4  -2   23.85    0.53 
   3   4   2   25.00    0.54 
   3   4   2   23.52    0.53 
   3   4   2   23.42    0.54 
   3   4   2   24.01    0.53 
  -4  -4  -2  130.03    2.48 
  -4  -4  -2  124.56    2.48 
  -4  -4  -2  126.84    2.54 
   4   4   2  125.00    2.58 
   4   4   2  123.96    2.48 
   4   4   2  124.81    2.48 
   4   4   2  127.73    2.54 
  -5  -4  -2   41.22    0.88 
  -5  -4  -2   42.60    0.88 
   5   4   2   39.45    0.88 
   5   4   2   40.35    0.93 
   5   4   2   41.55    0.88 
   5   4   2   41.95    0.90 
  -6  -4  -2   10.98    0.32 
  -6  -4  -2   10.87    0.30 
  -6  -4  -2   10.65    0.32 
   6   4   2   11.28    0.33 
   6   4   2   11.18    0.33 
  -7  -4  -2    0.61    0.11 
   7   4   2    0.66    0.10 
   7   4   2    0.78    0.13 
   7   4   2    0.65    0.11 
   7   4   2    0.69    0.14 
  -8  -4  -2    4.87    0.28 
   8   4   2    6.37    0.31 
   8   4   2    5.52    0.24 
   8   4   2    6.05    0.31 
   8   4   2    6.28    0.33 
   9   4   2    1.80    0.18 
   9   4   2    1.52    0.22 
   7  -5  -2   20.01    0.51 
   7  -5  -2   20.84    0.58 
   6  -5  -2    9.93    0.31 
   6  -5  -2   10.20    0.35 
   5  -5  -2  129.89    2.65 
   4  -5  -2    1.11    0.12 
   3  -5  -2   72.02    1.38 
   3  -5  -2   69.51    1.39 
   3  -5  -2   71.20    1.45 
   2  -5  -2    1.23    0.07 
   2  -5  -2    1.40    0.08 
   2  -5  -2    1.40    0.07 
  -2   5   2    1.45    0.07 
   1  -5  -2  261.58    5.07 
   1  -5  -2  258.27    5.21 
   1  -5  -2  259.11    5.06 
  -1   5   2  262.64    5.09 
   0  -5  -2   19.10    0.41 
   0  -5  -2   18.81    0.41 
   0  -5  -2   18.23    0.41 
   0   5   2   18.13    0.41 
   0   5   2   18.03    0.40 
  -1  -5  -2    9.57    0.25 
  -1  -5  -2    9.75    0.25 
  -1  -5  -2    9.54    0.25 
   1   5   2    9.43    0.22 
   1   5   2    9.81    0.25 
   1   5   2   10.05    0.24 
   1   5   2    9.77    0.25 
  -2  -5  -2   50.95    1.06 
  -2  -5  -2   51.91    1.05 
  -2  -5  -2   51.91    1.08 
   2   5   2   53.15    1.07 
   2   5   2   51.53    1.05 
   2   5   2   50.71    1.06 
   2   5   2   50.84    1.07 
  -3  -5  -2    0.87    0.09 
  -3  -5  -2    0.93    0.09 
  -3  -5  -2    0.79    0.08 
   3   5   2    0.99    0.09 
   3   5   2    0.91    0.10 
   3   5   2    0.94    0.10 
   3   5   2    0.92    0.09 
  -4  -5  -2   81.52    1.63 
  -4  -5  -2   79.65    1.66 
  -4  -5  -2   82.70    1.63 
   4   5   2   81.20    1.63 
   4   5   2   79.69    1.63 
   4   5   2   80.65    1.66 
   4   5   2   79.34    1.69 
  -5  -5  -2   19.11    0.42 
  -5  -5  -2   19.05    0.47 
  -5  -5  -2   18.91    0.47 
  -5  -5  -2   19.80    0.47 
   5   5   2   18.80    0.47 
   5   5   2   19.69    0.47 
   5   5   2   19.19    0.48 
   5   5   2   18.91    0.50 
  -6  -5  -2    3.58    0.18 
  -6  -5  -2    3.69    0.21 
  -6  -5  -2    3.39    0.18 
   6   5   2    3.73    0.19 
   6   5   2    3.53    0.20 
   6   5   2    3.43    0.23 
   6   5   2    3.98    0.21 
  -7  -5  -2    9.80    0.35 
  -7  -5  -2    9.36    0.31 
  -7  -5  -2    9.97    0.30 
   7   5   2   10.18    0.38 
   7   5   2   10.01    0.35 
   7   5   2    9.68    0.32 
   7   5   2   10.00    0.34 
   8   5   2    3.25    0.29 
   8   5   2    3.29    0.28 
   8   5   2    3.10    0.20 
   9   5   2   15.60    0.59 
   9   5   2   14.05    0.46 
   7  -6  -2    4.26    0.28 
   7  -6  -2    4.20    0.32 
   6  -6  -2    0.23    0.12 
   6  -6  -2    0.15    0.12 
   5  -6  -2    4.05    0.20 
   4  -6  -2   24.36    0.51 
   4  -6  -2   23.68    0.54 
   3  -6  -2    6.13    0.19 
   3  -6  -2    6.47    0.18 
   3  -6  -2    6.25    0.18 
  -3   6   2    6.60    0.17 
   2  -6  -2   19.44    0.42 
   2  -6  -2   19.04    0.43 
  -2   6   2   19.77    0.42 
   1  -6  -2    0.10    0.04 
   1  -6  -2    0.15    0.05 
   1  -6  -2    0.17    0.05 
  -1   6   2    0.32    0.05 
   0  -6  -2  166.03    3.20 
   0  -6  -2  168.88    3.29 
   0  -6  -2  169.83    3.20 
   0   6   2  154.11    3.21 
   0   6   2  165.86    3.19 
  -1  -6  -2    0.06    0.05 
  -1  -6  -2    0.02    0.04 
  -1  -6  -2    0.00    0.04 
   1   6   2    0.12    0.04 
   1   6   2    0.09    0.03 
   1   6   2    0.06    0.05 
   1   6   2    0.07    0.05 
  -2  -6  -2   20.35    0.49 
  -2  -6  -2   21.42    0.49 
  -2  -6  -2   20.99    0.48 
   2   6   2   21.21    0.49 
   2   6   2   21.66    0.48 
   2   6   2   21.49    0.48 
   2   6   2   20.30    0.47 
  -3  -6  -2    1.75    0.12 
  -3  -6  -2    2.06    0.13 
  -3  -6  -2    1.77    0.13 
   3   6   2    1.82    0.13 
   3   6   2    1.74    0.12 
   3   6   2    1.92    0.12 
   3   6   2    1.72    0.12 
  -4  -6  -2   40.77    0.88 
  -4  -6  -2   40.35    0.88 
  -4  -6  -2   40.08    0.88 
   4   6   2   40.62    0.88 
   4   6   2   39.75    0.88 
   4   6   2   40.71    0.90 
   4   6   2   39.76    0.87 
  -5  -6  -2    0.17    0.06 
  -5  -6  -2    0.20    0.08 
  -5  -6  -2    0.18    0.09 
  -5  -6  -2    0.07    0.07 
   5   6   2    0.23    0.09 
   5   6   2    0.17    0.07 
   5   6   2    0.14    0.08 
   5   6   2    0.14    0.08 
  -6  -6  -2    8.43    0.29 
  -6  -6  -2    8.33    0.31 
  -6  -6  -2    8.21    0.22 
  -6  -6  -2    8.18    0.28 
   6   6   2    8.61    0.31 
   6   6   2    7.97    0.29 
   6   6   2    7.96    0.28 
   6   6   2    8.24    0.32 
  -7  -6  -2    7.67    0.29 
  -7  -6  -2    7.24    0.32 
  -7  -6  -2    7.32    0.28 
   7   6   2    7.29    0.30 
   7   6   2    6.73    0.28 
   7   6   2    7.71    0.34 
   7   6   2    7.04    0.32 
  -8  -6  -2    0.66    0.13 
   8   6   2    0.35    0.15 
   8   6   2    0.74    0.13 
   6  -7  -2   10.36    0.39 
   6  -7  -2   10.02    0.35 
   5  -7  -2   26.03    0.60 
   4  -7  -2    3.45    0.16 
   4  -7  -2    3.12    0.15 
   4  -7  -2    3.14    0.13 
   3  -7  -2   41.42    0.84 
   3  -7  -2   42.11    0.84 
   3  -7  -2   40.54    0.84 
  -3   7   2   38.49    0.83 
   2  -7  -2   16.07    0.38 
   2  -7  -2   16.24    0.38 
  -2   7   2   15.99    0.37 
   1  -7  -2    4.17    0.16 
   1  -7  -2    4.15    0.15 
   1  -7  -2    4.20    0.16 
  -1   7   2    4.27    0.15 
   0  -7  -2    4.88    0.17 
   0  -7  -2    4.53    0.17 
   0  -7  -2    4.82    0.17 
   0   7   2    5.00    0.16 
  -1  -7  -2    1.28    0.12 
  -1  -7  -2    1.36    0.11 
  -1  -7  -2    1.36    0.11 
   1   7   2    1.34    0.10 
   1   7   2    1.61    0.12 
   1   7   2    1.41    0.10 
   1   7   2    1.38    0.08 
  -2  -7  -2   19.01    0.46 
  -2  -7  -2   19.31    0.46 
  -2  -7  -2   19.16    0.47 
   2   7   2   19.27    0.45 
   2   7   2   18.56    0.44 
   2   7   2   19.08    0.45 
   2   7   2   18.78    0.46 
  -3  -7  -2   13.90    0.38 
  -3  -7  -2   14.11    0.37 
  -3  -7  -2   13.78    0.37 
   3   7   2   13.30    0.36 
   3   7   2   14.19    0.37 
   3   7   2   14.21    0.36 
   3   7   2   13.31    0.38 
  -4  -7  -2    0.20    0.09 
  -4  -7  -2    0.17    0.07 
  -4  -7  -2    0.18    0.07 
  -4  -7  -2    0.19    0.07 
   4   7   2    0.38    0.08 
   4   7   2    0.27    0.09 
   4   7   2    0.28    0.08 
   4   7   2    0.27    0.08 
  -5  -7  -2   54.50    1.13 
  -5  -7  -2   53.71    1.14 
  -5  -7  -2   52.05    1.10 
  -5  -7  -2   52.20    1.14 
   5   7   2   51.53    1.13 
   5   7   2   50.75    1.16 
   5   7   2   50.52    1.13 
   5   7   2   52.72    1.13 
  -6  -7  -2    2.21    0.19 
  -6  -7  -2    2.38    0.23 
  -6  -7  -2    2.59    0.19 
  -6  -7  -2    2.13    0.14 
   6   7   2    2.25    0.20 
   6   7   2    2.48    0.23 
   6   7   2    2.43    0.18 
   6   7   2    2.32    0.21 
  -7  -7  -2   32.19    0.79 
  -7  -7  -2   30.98    0.75 
   7   7   2   31.91    0.83 
   7   7   2   31.28    0.77 
   7   7   2   32.35    0.79 
  -8  -7  -2    0.42    0.15 
   8   7   2    0.38    0.17 
   8   7   2    0.43    0.12 
   5  -8  -2    2.72    0.19 
   4  -8  -2   10.24    0.27 
   4  -8  -2   10.34    0.28 
   4  -8  -2    9.32    0.30 
  -4   8   2   10.45    0.27 
  -4   8   2   10.27    0.28 
   3  -8  -2   13.24    0.35 
   3  -8  -2   13.29    0.34 
   3  -8  -2   12.99    0.34 
   2  -8  -2   49.69    1.02 
   2  -8  -2   49.28    1.05 
  -2   8   2   49.33    1.02 
   1  -8  -2    2.30    0.14 
   1  -8  -2    2.39    0.14 
   1  -8  -2    2.61    0.14 
  -1   8   2    2.50    0.13 
   0  -8  -2   37.07    0.83 
   0  -8  -2   37.69    0.82 
   0  -8  -2   37.36    0.80 
   0   8   2   38.15    0.80 
  -1  -8  -2    0.31    0.08 
  -1  -8  -2    0.15    0.07 
  -1  -8  -2    0.20    0.07 
   1   8   2    0.27    0.08 
   1   8   2    0.19    0.05 
   1   8   2    0.23    0.06 
  -2  -8  -2  101.65    2.12 
  -2  -8  -2  102.28    2.08 
  -2  -8  -2  105.15    2.07 
   2   8   2   99.95    2.08 
   2   8   2  107.13    2.10 
   2   8   2  106.30    2.07 
   2   8   2   99.47    2.10 
  -3  -8  -2   11.39    0.33 
  -3  -8  -2   10.22    0.33 
  -3  -8  -2   10.82    0.33 
   3   8   2   10.68    0.32 
   3   8   2   10.59    0.33 
   3   8   2   10.88    0.31 
   3   8   2   10.53    0.31 
  -4  -8  -2   17.34    0.44 
  -4  -8  -2   16.80    0.46 
  -4  -8  -2   17.30    0.46 
  -4  -8  -2   16.72    0.47 
   4   8   2   16.82    0.47 
   4   8   2   16.98    0.46 
   4   8   2   17.45    0.47 
  -5  -8  -2    4.50    0.23 
  -5  -8  -2    4.56    0.26 
  -5  -8  -2    4.93    0.21 
   5   8   2    4.98    0.25 
   5   8   2    5.08    0.25 
   5   8   2    4.71    0.25 
  -6  -8  -2    6.58    0.29 
  -6  -8  -2    7.21    0.29 
  -6  -8  -2    6.42    0.24 
  -6  -8  -2    6.55    0.33 
   6   8   2    6.65    0.31 
   6   8   2    6.53    0.31 
   6   8   2    6.42    0.30 
   6   8   2    6.03    0.25 
  -7  -8  -2    0.31    0.14 
  -7  -8  -2    0.24    0.18 
  -7  -8  -2    0.20    0.10 
   7   8   2    0.42    0.16 
   7   8   2    0.53    0.14 
   7   8   2    0.28    0.17 
   8   8   2    1.88    0.19 
   8   8   2    1.89    0.23 
   5  -9  -2    2.79    0.24 
   5  -9  -2    2.74    0.17 
   4  -9  -2   20.80    0.48 
   4  -9  -2   18.42    0.50 
   4  -9  -2   19.69    0.50 
  -4   9   2   19.81    0.47 
   3  -9  -2    1.24    0.12 
   3  -9  -2    1.22    0.13 
   3  -9  -2    1.30    0.13 
  -3   9   2    1.22    0.13 
  -3   9   2    1.27    0.14 
   2  -9  -2   33.10    0.74 
   2  -9  -2   33.60    0.75 
   2  -9  -2   33.02    0.73 
   1  -9  -2    0.03    0.08 
   1  -9  -2    0.01    0.06 
   1  -9  -2    0.07    0.07 
   0  -9  -2    1.77    0.15 
   0  -9  -2    1.88    0.16 
   0   9   2    2.10    0.12 
   0   9   2    2.13    0.17 
  -1  -9  -2    3.22    0.18 
  -1  -9  -2    3.21    0.18 
  -1  -9  -2    3.12    0.19 
   1   9   2    3.15    0.16 
   1   9   2    3.17    0.13 
   1   9   2    3.36    0.20 
   1   9   2    3.29    0.13 
  -2  -9  -2    8.17    0.28 
  -2  -9  -2    7.72    0.28 
   2   9   2    7.67    0.24 
   2   9   2    8.08    0.26 
   2   9   2    7.88    0.27 
   2   9   2    7.64    0.29 
  -3  -9  -2   24.05    0.59 
  -3  -9  -2   23.03    0.59 
  -3  -9  -2   22.65    0.59 
   3   9   2   22.68    0.56 
   3   9   2   24.23    0.57 
   3   9   2   23.09    0.60 
   3   9   2   24.81    0.58 
  -4  -9  -2    3.45    0.23 
  -4  -9  -2    3.74    0.21 
  -4  -9  -2    3.42    0.23 
  -4  -9  -2    3.54    0.21 
   4   9   2    4.09    0.22 
   4   9   2    3.84    0.23 
   4   9   2    3.51    0.24 
  -5  -9  -2    2.89    0.23 
  -5  -9  -2    2.94    0.22 
  -5  -9  -2    3.00    0.26 
  -5  -9  -2    3.07    0.20 
   5   9   2    2.81    0.24 
   5   9   2    2.85    0.24 
   5   9   2    2.98    0.24 
  -6  -9  -2    0.79    0.13 
  -6  -9  -2    0.67    0.15 
  -6  -9  -2    0.78    0.15 
  -6  -9  -2    0.77    0.18 
   6   9   2    0.81    0.16 
   6   9   2    0.88    0.15 
   6   9   2    0.83    0.16 
  -7  -9  -2   25.72    0.70 
  -7  -9  -2   28.17    0.76 
   7   9   2   25.13    0.71 
   7   9   2   26.81    0.75 
  -8  -9  -2    2.53    0.26 
   8   9   2    3.76    0.39 
   8   9   2    4.04    0.32 
   4 -10  -2    6.75    0.31 
   4 -10  -2    7.25    0.26 
   3 -10  -2    3.29    0.24 
   3 -10  -2    3.54    0.23 
   3 -10  -2    3.19    0.18 
  -3  10   2    3.33    0.23 
   2 -10  -2   19.52    0.52 
   2 -10  -2   20.45    0.51 
   2 -10  -2   20.51    0.51 
  -2  10   2   20.10    0.52 
   1 -10  -2   11.80    0.36 
   1 -10  -2   11.48    0.35 
   1 -10  -2   12.00    0.35 
  -1  10   2   11.55    0.36 
   0 -10  -2   28.37    0.66 
   0 -10  -2   28.38    0.67 
   0 -10  -2   28.12    0.67 
   0  10   2   27.15    0.67 
   0  10   2   27.26    0.63 
  -1 -10  -2   74.48    1.50 
  -1 -10  -2   69.35    1.51 
  -1 -10  -2   71.69    1.54 
   1  10   2   71.67    1.52 
   1  10   2   72.88    1.49 
  -2 -10  -2   19.50    0.53 
  -2 -10  -2   20.63    0.53 
   2  10   2   20.66    0.55 
   2  10   2   19.91    0.48 
   2  10   2   20.25    0.52 
  -3 -10  -2   51.30    1.15 
  -3 -10  -2   54.06    1.14 
  -3 -10  -2   51.12    1.16 
   3  10   2   50.59    1.12 
   3  10   2   51.25    1.16 
   3  10   2   52.32    1.13 
  -4 -10  -2   10.27    0.38 
  -4 -10  -2   10.27    0.37 
  -4 -10  -2   10.44    0.38 
  -4 -10  -2    9.95    0.36 
   4  10   2    9.95    0.39 
   4  10   2   10.33    0.33 
   4  10   2   10.03    0.35 
   4  10   2   10.23    0.37 
  -5 -10  -2   12.91    0.41 
  -5 -10  -2   13.39    0.45 
  -5 -10  -2   13.41    0.44 
  -5 -10  -2   13.20    0.46 
   5  10   2   13.11    0.44 
   5  10   2   12.69    0.45 
   5  10   2   13.78    0.46 
  -6 -10  -2    0.33    0.18 
  -6 -10  -2    0.27    0.14 
  -6 -10  -2    0.47    0.15 
   6  10   2    0.34    0.15 
   6  10   2    0.40    0.16 
   6  10   2    0.38    0.20 
  -7 -10  -2    7.00    0.39 
   7  10   2    7.21    0.42 
   7  10   2    7.45    0.40 
   3 -11  -2    0.12    0.10 
   3 -11  -2    0.22    0.13 
   2 -11  -2    6.94    0.31 
   2 -11  -2    7.12    0.27 
   1 -11  -2    3.23    0.24 
   1 -11  -2    3.02    0.23 
   1 -11  -2    3.17    0.20 
   0 -11  -2    3.25    0.21 
   0 -11  -2    3.68    0.24 
   0 -11  -2    3.29    0.23 
   0  11   2    3.46    0.26 
  -1 -11  -2    0.30    0.13 
  -1 -11  -2    0.22    0.11 
  -1 -11  -2    0.16    0.09 
   1  11   2    0.15    0.08 
   1  11   2    0.35    0.13 
  -2 -11  -2    0.41    0.12 
  -2 -11  -2    0.47    0.11 
  -2 -11  -2    0.39    0.11 
   2  11   2    0.47    0.10 
   2  11   2    0.60    0.11 
   2  11   2    0.61    0.14 
   2  11   2    0.59    0.11 
  -3 -11  -2    0.22    0.13 
  -3 -11  -2    0.17    0.14 
  -3 -11  -2    0.21    0.11 
   3  11   2    0.43    0.11 
   3  11   2    0.48    0.13 
   3  11   2    0.47    0.16 
  -4 -11  -2    0.22    0.13 
  -4 -11  -2    0.32    0.12 
  -4 -11  -2    0.25    0.13 
  -4 -11  -2    0.15    0.16 
   4  11   2    0.29    0.13 
   4  11   2    0.30    0.15 
  -5 -11  -2    0.06    0.17 
  -5 -11  -2    0.17    0.13 
  -5 -11  -2    0.14    0.18 
  -5 -11  -2    0.36    0.17 
   5  11   2    0.06    0.17 
   5  11   2    0.28    0.15 
   5  11   2    0.07    0.17 
  -6 -11  -2    8.05    0.40 
  -6 -11  -2    8.87    0.42 
   6  11   2    8.77    0.43 
   6  11   2    8.91    0.44 
   2 -12  -2    0.01    0.14 
   2 -12  -2    0.28    0.11 
   1 -12  -2   28.42    0.74 
   1 -12  -2   29.19    0.72 
   0 -12  -2    0.70    0.13 
   0 -12  -2    0.42    0.13 
   0  12   2    0.14    0.14 
  -1 -12  -2   12.14    0.43 
  -1 -12  -2   13.25    0.44 
  -1 -12  -2   12.73    0.43 
   1  12   2   13.33    0.48 
  -2 -12  -2    1.05    0.15 
  -2 -12  -2    1.04    0.16 
  -2 -12  -2    1.02    0.20 
   2  12   2    1.12    0.14 
   2  12   2    1.03    0.12 
   2  12   2    1.21    0.21 
  -3 -12  -2   15.74    0.51 
  -3 -12  -2   18.00    0.56 
  -3 -12  -2   16.99    0.55 
   3  12   2   16.59    0.47 
   3  12   2   16.98    0.57 
  -4 -12  -2    4.15    0.34 
  -4 -12  -2    4.15    0.29 
  -4 -12  -2    4.06    0.38 
   4  12   2    3.90    0.37 
   4  12   2    4.30    0.30 
  -5 -12  -2   12.70    0.48 
  -5 -12  -2   12.10    0.53 
   5  12   2   11.52    0.52 
   5  12   2   12.14    0.48 
   0 -13  -2   10.85    0.40 
   0 -13  -2   10.55    0.43 
  -1 -13  -2    5.83    0.33 
  -1 -13  -2    6.28    0.32 
  -2 -13  -2    0.62    0.14 
  -2 -13  -2    0.26    0.15 
  -3 -13  -2    0.08    0.19 
  -3 -13  -2   -0.28    0.14 
  -4 -13  -2    0.48    0.21 
   4  13   2    0.26    0.26 
   2  11  -3    2.48    0.33 
  -2 -11   3    2.76    0.32 
  -2 -11   3    1.93    0.22 
   1  11  -3    2.74    0.30 
  -1 -11   3    3.13    0.36 
  -1 -11   3    2.70    0.28 
   0 -11   3    0.05    0.18 
   4  10  -3    0.76    0.19 
  -4 -10   3    0.74    0.20 
  -4 -10   3    0.77    0.25 
   3  10  -3    7.01    0.43 
   3  10  -3    6.98    0.44 
  -3 -10   3    7.42    0.40 
  -3 -10   3    6.87    0.44 
   2  10  -3    2.08    0.22 
   2  10  -3    1.09    0.19 
   2  10  -3    1.52    0.22 
  -2 -10   3    1.66    0.19 
  -2 -10   3    1.44    0.19 
  -2 -10   3    1.84    0.25 
   1  10  -3   11.94    0.50 
  -1 -10   3   11.18    0.45 
  -1 -10   3   12.48    0.47 
  -1 -10   3   12.84    0.45 
   0  10  -3    6.77    0.41 
   0 -10   3    6.58    0.36 
   0 -10   3    6.61    0.32 
   0 -10   3    6.51    0.38 
  -1  10  -3    6.43    0.43 
  -1  10  -3    6.67    0.39 
   1 -10   3    6.98    0.32 
   1 -10   3    7.30    0.36 
   2 -10   3    4.34    0.30 
   2 -10   3    4.32    0.30 
   6   9  -3    2.06    0.28 
   6   9  -3    2.21    0.24 
  -5  -9   3    6.02    0.40 
  -5  -9   3    5.40    0.46 
   4   9  -3    0.03    0.17 
   4   9  -3    0.07    0.17 
  -4  -9   3    0.13    0.16 
  -4  -9   3    0.06    0.18 
   3   9  -3    6.90    0.36 
   3   9  -3    6.50    0.37 
  -3  -9   3    5.92    0.33 
  -3  -9   3    6.67    0.38 
  -3  -9   3    6.67    0.35 
   2   9  -3    1.74    0.19 
  -2  -9   3    1.42    0.18 
  -2  -9   3    1.45    0.17 
   1   9  -3    8.55    0.33 
   1   9  -3    8.19    0.38 
   1   9  -3    8.41    0.34 
  -1  -9   3    8.01    0.34 
  -1  -9   3    8.31    0.37 
  -1  -9   3    8.99    0.36 
   0   9  -3    0.14    0.16 
   0   9  -3    0.16    0.12 
   0   9  -3    0.40    0.14 
   0  -9   3    0.08    0.11 
   0  -9   3   -0.09    0.13 
   0  -9   3    0.19    0.13 
  -1   9  -3    0.94    0.18 
  -1   9  -3    1.29    0.17 
   1  -9   3    1.08    0.15 
   1  -9   3    1.36    0.19 
   1  -9   3    1.38    0.17 
  -2   9  -3    7.56    0.36 
  -2   9  -3    7.18    0.37 
   2  -9   3    6.69    0.30 
   2  -9   3    7.21    0.35 
   2  -9   3    6.36    0.31 
  -3   9  -3    0.10    0.19 
   3  -9   3    0.27    0.14 
   3  -9   3    0.26    0.12 
   6   8  -3    1.74    0.21 
   6   8  -3    2.12    0.25 
  -6  -8   3    2.03    0.22 
  -6  -8   3    1.79    0.21 
  -5  -8   3    1.45    0.22 
  -5  -8   3    1.62    0.18 
  -5  -8   3    1.88    0.20 
   4   8  -3    4.80    0.30 
   4   8  -3    4.79    0.30 
  -4  -8   3    4.58    0.29 
  -4  -8   3    4.40    0.33 
  -4  -8   3    4.40    0.25 
  -4  -8   3    4.33    0.26 
   3   8  -3    7.23    0.31 
   3   8  -3    6.80    0.33 
  -3  -8   3    7.19    0.30 
  -3  -8   3    7.17    0.32 
  -3  -8   3    6.23    0.28 
  -3  -8   3    7.31    0.35 
   2   8  -3   22.39    0.55 
   2   8  -3   20.68    0.58 
  -2  -8   3   20.40    0.56 
  -2  -8   3   19.41    0.54 
  -2  -8   3   20.31    0.57 
  -2  -8   3   20.73    0.54 
   1   8  -3    8.05    0.30 
   1   8  -3    7.72    0.30 
   1   8  -3    7.47    0.32 
  -1  -8   3    7.41    0.30 
  -1  -8   3    7.60    0.32 
  -1  -8   3    7.77    0.30 
   0   8  -3   34.94    0.83 
   0   8  -3   34.58    0.80 
   0   8  -3   35.87    0.81 
   0  -8   3   34.18    0.83 
   0  -8   3   35.40    0.83 
  -1   8  -3    2.27    0.24 
  -1   8  -3    2.21    0.21 
  -1   8  -3    2.66    0.18 
   1  -8   3    2.20    0.20 
   1  -8   3    1.99    0.20 
   1  -8   3    2.21    0.21 
  -2   8  -3   57.72    1.24 
  -2   8  -3   54.65    1.21 
  -2   8  -3   54.88    1.22 
   2  -8   3   54.73    1.21 
   2  -8   3   55.47    1.23 
   2  -8   3   55.82    1.21 
   2  -8   3   56.71    1.24 
  -3   8  -3    0.16    0.16 
  -3   8  -3   -0.20    0.14 
   3  -8   3    0.07    0.10 
   3  -8   3   -0.04    0.13 
   4  -8   3   19.89    0.54 
   7   7  -3    4.10    0.30 
   7   7  -3    4.64    0.38 
   6   7  -3    1.58    0.19 
   6   7  -3    1.37    0.21 
  -6  -7   3    1.23    0.17 
  -6  -7   3    1.26    0.16 
   5   7  -3   36.76    0.84 
  -5  -7   3   35.58    0.85 
  -5  -7   3   34.02    0.82 
  -5  -7   3   36.38    0.88 
   4   7  -3    5.43    0.29 
   4   7  -3    5.51    0.27 
  -4  -7   3    5.70    0.24 
  -4  -7   3    5.80    0.31 
  -4  -7   3    5.70    0.25 
   3   7  -3    1.82    0.19 
   3   7  -3    1.21    0.15 
  -3  -7   3    1.40    0.15 
  -3  -7   3    1.82    0.17 
  -3  -7   3    1.64    0.19 
  -3  -7   3    1.86    0.16 
   2   7  -3    1.48    0.14 
   2   7  -3    0.98    0.14 
  -2  -7   3    1.08    0.13 
  -2  -7   3    1.10    0.12 
  -2  -7   3    1.06    0.14 
  -2  -7   3    0.90    0.11 
   1   7  -3   18.76    0.48 
   1   7  -3   19.82    0.48 
   1   7  -3   18.84    0.51 
  -1  -7   3   17.83    0.50 
  -1  -7   3   18.46    0.48 
  -1  -7   3   18.46    0.50 
   0   7  -3    9.91    0.30 
   0   7  -3   10.13    0.34 
   0   7  -3    9.40    0.29 
   0  -7   3    9.34    0.30 
   0  -7   3    9.26    0.32 
   0  -7   3    9.44    0.32 
  -1   7  -3    1.19    0.14 
  -1   7  -3    1.64    0.15 
  -1   7  -3    1.50    0.17 
   1  -7   3    1.76    0.17 
   1  -7   3    1.63    0.17 
   1  -7   3    1.56    0.17 
  -2   7  -3    0.47    0.09 
  -2   7  -3    0.45    0.12 
  -2   7  -3    0.57    0.11 
   2  -7   3    0.29    0.09 
   2  -7   3    0.34    0.08 
   2  -7   3    0.41    0.12 
  -3   7  -3   -0.01    0.07 
  -3   7  -3    0.29    0.12 
  -3   7  -3    0.14    0.12 
   3  -7   3    0.06    0.11 
   3  -7   3   -0.05    0.09 
   3  -7   3    0.04    0.08 
  -4   7  -3    2.31    0.20 
  -4   7  -3    2.47    0.28 
   4  -7   3    2.23    0.25 
   4  -7   3    2.60    0.19 
   4  -7   3    2.57    0.23 
  -5   7  -3    8.02    0.42 
   5  -7   3    7.53    0.29 
   5  -7   3    7.68    0.33 
   5  -7   3    7.31    0.35 
   7   6  -3    0.46    0.13 
   7   6  -3    0.76    0.17 
   6   6  -3    2.30    0.21 
   6   6  -3    1.65    0.17 
   6   6  -3    1.56    0.19 
   6   6  -3    1.56    0.17 
  -6  -6   3    1.52    0.14 
  -6  -6   3    1.70    0.20 
  -6  -6   3    1.48    0.15 
   5   6  -3    2.26    0.17 
   5   6  -3    2.35    0.22 
  -5  -6   3    2.24    0.17 
  -5  -6   3    2.09    0.18 
  -5  -6   3    2.32    0.20 
  -5  -6   3    1.91    0.18 
   4   6  -3   18.74    0.48 
   4   6  -3   18.83    0.52 
   4   6  -3   20.11    0.50 
  -4  -6   3   18.86    0.48 
  -4  -6   3   19.71    0.53 
  -4  -6   3   18.98    0.50 
  -4  -6   3   18.96    0.49 
   3   6  -3    1.33    0.14 
   3   6  -3    1.04    0.11 
  -3  -6   3    1.16    0.13 
  -3  -6   3    0.99    0.12 
  -3  -6   3    1.16    0.13 
  -3  -6   3    1.28    0.13 
   2   6  -3   38.56    0.83 
  -2  -6   3   37.40    0.86 
  -2  -6   3   39.20    0.83 
  -2  -6   3   37.18    0.85 
  -2  -6   3   37.82    0.86 
   1   6  -3    0.10    0.07 
   1   6  -3    0.06    0.08 
  -1  -6   3   -0.08    0.07 
  -1  -6   3   -0.03    0.07 
  -1  -6   3    0.00    0.06 
  -1  -6   3    0.11    0.07 
   0   6  -3  152.70    2.95 
   0   6  -3  150.60    3.04 
   0   6  -3  148.88    2.97 
   0  -6   3  153.57    3.04 
   0  -6   3  147.42    3.04 
   0  -6   3  147.78    2.97 
   0  -6   3  149.51    2.95 
  -1   6  -3   13.25    0.35 
  -1   6  -3   12.60    0.35 
  -1   6  -3   13.10    0.37 
   1  -6   3   12.77    0.36 
   1  -6   3   12.96    0.36 
  -2   6  -3   70.38    1.46 
  -2   6  -3   70.84    1.50 
  -2   6  -3   70.71    1.46 
   2  -6   3   71.64    1.46 
   2  -6   3   70.06    1.46 
   2  -6   3   71.29    1.50 
  -3   6  -3    2.92    0.16 
  -3   6  -3    2.97    0.21 
  -3   6  -3    2.55    0.20 
   3  -6   3    2.50    0.17 
   3  -6   3    2.75    0.20 
   3  -6   3    2.81    0.17 
  -4   6  -3   36.66    0.85 
  -4   6  -3   38.86    0.90 
   4  -6   3   37.78    0.85 
   4  -6   3   37.23    0.86 
   4  -6   3   38.57    0.87 
   4  -6   3   38.15    0.84 
  -5   6  -3   15.27    0.46 
   5  -6   3   15.96    0.49 
   5  -6   3   17.14    0.44 
   5  -6   3   16.85    0.46 
   5  -6   3   17.14    0.47 
  -6   6  -3    3.58    0.40 
   6  -6   3    3.58    0.21 
   6  -6   3    3.81    0.31 
   6  -6   3    3.70    0.29 
   7   5  -3   13.23    0.42 
   7   5  -3   14.87    0.52 
   6   5  -3   10.44    0.41 
   6   5  -3   10.08    0.34 
   6   5  -3   10.78    0.34 
   6   5  -3    9.30    0.33 
  -6  -5   3    9.95    0.32 
  -6  -5   3    9.60    0.28 
  -6  -5   3    9.91    0.36 
   5   5  -3   11.47    0.34 
   5   5  -3   11.45    0.35 
  -5  -5   3   11.60    0.33 
  -5  -5   3   10.37    0.31 
  -5  -5   3   11.80    0.38 
  -5  -5   3   11.88    0.33 
   4   5  -3   33.81    0.78 
   4   5  -3   34.88    0.76 
   4   5  -3   33.63    0.76 
  -4  -5   3   34.74    0.75 
  -4  -5   3   33.84    0.77 
  -4  -5   3   33.91    0.76 
  -4  -5   3   34.64    0.78 
   3   5  -3   37.83    0.84 
   3   5  -3   38.11    0.83 
   3   5  -3   38.20    0.82 
  -3  -5   3   37.77    0.83 
  -3  -5   3   37.00    0.84 
  -3  -5   3   38.58    0.82 
  -3  -5   3   37.93    0.85 
   2   5  -3   61.58    1.29 
   2   5  -3   62.61    1.27 
  -2  -5   3   63.47    1.27 
  -2  -5   3   61.85    1.30 
  -2  -5   3   61.78    1.29 
  -2  -5   3   60.81    1.31 
   1   5  -3    0.15    0.07 
   1   5  -3    0.12    0.06 
  -1  -5   3    0.14    0.06 
  -1  -5   3    0.16    0.06 
  -1  -5   3    0.09    0.05 
  -1  -5   3    0.15    0.07 
   0   5  -3   11.55    0.31 
   0   5  -3   11.62    0.31 
   0   5  -3   11.76    0.33 
   0  -5   3   11.21    0.32 
   0  -5   3   11.86    0.32 
   0  -5   3   11.39    0.31 
   0  -5   3   11.50    0.32 
  -1   5  -3    1.87    0.12 
  -1   5  -3    1.70    0.14 
  -1   5  -3    1.70    0.14 
   1  -5   3    1.67    0.12 
   1  -5   3    1.84    0.13 
   1  -5   3    1.79    0.14 
  -2   5  -3    7.01    0.23 
  -2   5  -3    6.54    0.23 
   2  -5   3    6.50    0.23 
   2  -5   3    6.51    0.23 
   2  -5   3    6.48    0.22 
  -3   5  -3   11.67    0.34 
  -3   5  -3   11.15    0.32 
  -3   5  -3   11.05    0.33 
   3  -5   3   11.34    0.32 
   3  -5   3   11.03    0.31 
   3  -5   3   10.93    0.32 
   3  -5   3   11.21    0.33 
  -4   5  -3   -0.11    0.10 
  -4   5  -3    0.12    0.10 
   4  -5   3   -0.10    0.09 
   4  -5   3    0.02    0.08 
   4  -5   3    0.08    0.08 
   4  -5   3    0.13    0.08 
  -5   5  -3   15.09    0.46 
  -5   5  -3   14.00    0.41 
   5  -5   3   15.13    0.41 
   5  -5   3   14.44    0.41 
   5  -5   3   14.15    0.39 
   5  -5   3   13.26    0.43 
  -6   5  -3    3.24    0.34 
   6  -5   3    2.92    0.24 
   6  -5   3    2.49    0.18 
   6  -5   3    2.81    0.23 
   7  -5   3   22.58    0.63 
   7  -5   3   21.67    0.55 
   8   4  -3    0.28    0.12 
   8   4  -3    0.31    0.17 
   7   4  -3    2.66    0.20 
   7   4  -3    2.62    0.28 
   7   4  -3    2.98    0.24 
  -7  -4   3    2.51    0.26 
  -7  -4   3    2.69    0.19 
   6   4  -3    3.13    0.19 
   6   4  -3    3.32    0.21 
   6   4  -3    3.38    0.20 
   6   4  -3    3.07    0.25 
  -6  -4   3    3.04    0.18 
  -6  -4   3    2.97    0.22 
   5   4  -3    2.57    0.16 
   5   4  -3    2.58    0.17 
  -5  -4   3    2.80    0.16 
  -5  -4   3    2.62    0.14 
   4   4  -3   27.43    0.61 
   4   4  -3   26.76    0.63 
   4   4  -3   27.15    0.63 
   4   4  -3   27.53    0.62 
  -4  -4   3   27.91    0.60 
  -4  -4   3   27.03    0.62 
  -4  -4   3   26.85    0.61 
  -4  -4   3   26.73    0.63 
   3   4  -3   13.16    0.35 
   3   4  -3   13.24    0.35 
   3   4  -3   12.93    0.33 
   3   4  -3   12.66    0.33 
  -3  -4   3   13.38    0.36 
  -3  -4   3   13.15    0.34 
  -3  -4   3   13.10    0.33 
  -3  -4   3   12.99    0.34 
   2   4  -3    8.72    0.24 
   2   4  -3    8.36    0.25 
   2   4  -3    8.38    0.26 
  -2  -4   3    8.12    0.25 
  -2  -4   3    7.94    0.24 
  -2  -4   3    8.09    0.25 
  -2  -4   3    8.41    0.24 
   1   4  -3   12.52    0.33 
   1   4  -3   12.20    0.31 
   1   4  -3   12.13    0.32 
  -1  -4   3   12.06    0.32 
  -1  -4   3   12.41    0.31 
  -1  -4   3   12.11    0.32 
  -1  -4   3   12.08    0.32 
   0   4  -3   11.76    0.32 
   0   4  -3   12.38    0.33 
   0   4  -3   12.78    0.32 
   0   4  -3   12.15    0.31 
   0  -4   3   12.29    0.31 
   0  -4   3   11.69    0.32 
   0  -4   3   12.27    0.32 
   0  -4   3   12.13    0.32 
  -1   4  -3   89.07    1.90 
  -1   4  -3   95.35    1.85 
  -1   4  -3   91.96    1.85 
   1  -4   3   95.06    1.85 
   1  -4   3   94.72    1.89 
   1  -4   3   91.48    1.85 
  -2   4  -3   22.40    0.52 
  -2   4  -3   22.30    0.51 
  -2   4  -3   22.67    0.51 
   2  -4   3   21.85    0.51 
   2  -4   3   21.80    0.51 
   2  -4   3   22.59    0.52 
  -3   4  -3   56.50    1.19 
  -3   4  -3   57.01    1.18 
  -3   4  -3   58.15    1.24 
   3  -4   3   58.45    1.20 
   3  -4   3   55.94    1.20 
   3  -4   3   56.42    1.18 
   3  -4   3   59.59    1.21 
  -4   4  -3    1.84    0.18 
  -4   4  -3    1.66    0.14 
   4  -4   3    1.78    0.15 
   4  -4   3    1.90    0.16 
   4  -4   3    1.79    0.13 
  -5   4  -3   30.88    0.72 
  -5   4  -3   33.12    0.79 
   5  -4   3   31.88    0.72 
   5  -4   3   31.75    0.74 
   5  -4   3   33.13    0.73 
   5  -4   3   33.40    0.75 
  -6   4  -3    0.46    0.16 
  -6   4  -3    0.63    0.13 
   6  -4   3    0.55    0.14 
   6  -4   3    0.11    0.14 
   6  -4   3    0.41    0.12 
   6  -4   3    0.32    0.09 
   6  -4   3    0.48    0.11 
   7  -4   3    6.12    0.38 
   7  -4   3    6.60    0.33 
   7  -4   3    6.10    0.25 
   8   3  -3   12.03    0.45 
   8   3  -3   12.07    0.49 
   8   3  -3   12.21    0.37 
   7   3  -3    3.87    0.25 
   7   3  -3    4.07    0.24 
   7   3  -3    4.28    0.30 
   7   3  -3    3.55    0.20 
  -7  -3   3    4.42    0.25 
   6   3  -3   27.62    0.64 
   6   3  -3   28.99    0.65 
   6   3  -3   27.77    0.73 
  -6  -3   3   27.64    0.63 
  -6  -3   3   28.74    0.65 
  -6  -3   3   27.42    0.61 
   5   3  -3    4.44    0.18 
   5   3  -3    4.47    0.18 
   5   3  -3    4.33    0.18 
  -5  -3   3    4.30    0.20 
  -5  -3   3    4.26    0.18 
   4   3  -3   58.44    1.21 
   4   3  -3   59.95    1.23 
   4   3  -3   56.60    1.24 
   4   3  -3   58.44    1.19 
  -4  -3   3   60.38    1.23 
  -4  -3   3   58.30    1.21 
  -4  -3   3   60.83    1.19 
   3   3  -3   25.51    0.57 
   3   3  -3   25.71    0.56 
   3   3  -3   25.68    0.55 
   3   3  -3   24.68    0.56 
  -3  -3   3   25.46    0.57 
  -3  -3   3   25.00    0.55 
  -3  -3   3   25.15    0.56 
  -3  -3   3   24.53    0.56 
   2   3  -3   59.14    1.22 
   2   3  -3   61.06    1.26 
   2   3  -3   59.56    1.23 
   2   3  -3   59.66    1.25 
  -2  -3   3   62.54    1.25 
  -2  -3   3   62.82    1.22 
  -2  -3   3   60.68    1.23 
  -2  -3   3   60.44    1.25 
   1   3  -3    3.55    0.14 
   1   3  -3    3.52    0.15 
   1   3  -3    3.43    0.13 
  -1  -3   3    3.64    0.13 
  -1  -3   3    3.33    0.13 
  -1  -3   3    3.41    0.14 
  -1  -3   3    3.20    0.14 
   0   3  -3   45.50    0.95 
   0   3  -3   46.74    0.94 
   0   3  -3   46.63    0.97 
   0   3  -3   45.99    0.98 
   0  -3   3   47.59    0.97 
   0  -3   3   46.69    0.94 
   0  -3   3   43.95    0.95 
  -1   3  -3    6.19    0.20 
  -1   3  -3    6.40    0.19 
  -1   3  -3    6.41    0.19 
  -1   3  -3    6.24    0.19 
   1  -3   3    6.37    0.19 
   1  -3   3    6.45    0.19 
   1  -3   3    6.37    0.19 
  -2   3  -3    7.54    0.22 
  -2   3  -3    7.30    0.22 
  -2   3  -3    7.53    0.22 
   2  -3   3    7.03    0.21 
   2  -3   3    7.44    0.22 
   2  -3   3    7.59    0.22 
   2  -3   3    7.64    0.22 
  -3   3  -3   31.31    0.71 
  -3   3  -3   30.38    0.68 
  -3   3  -3   31.74    0.68 
   3  -3   3   31.48    0.68 
   3  -3   3   31.39    0.69 
   3  -3   3   31.31    0.68 
   3  -3   3   31.30    0.69 
  -4   3  -3    9.62    0.28 
  -4   3  -3   10.23    0.32 
   4  -3   3   10.00    0.29 
   4  -3   3    9.96    0.27 
   4  -3   3    9.40    0.27 
   4  -3   3    9.24    0.29 
  -5   3  -3    3.11    0.18 
  -5   3  -3    3.36    0.22 
   5  -3   3    2.95    0.18 
   5  -3   3    3.17    0.19 
   5  -3   3    3.02    0.15 
   5  -3   3    3.17    0.16 
  -6   3  -3   14.47    0.38 
  -6   3  -3   13.31    0.38 
   6  -3   3   14.13    0.43 
   6  -3   3   14.75    0.37 
   6  -3   3   14.59    0.42 
   6  -3   3   13.85    0.38 
   6  -3   3   14.53    0.41 
   7  -3   3   11.03    0.40 
   7  -3   3   11.00    0.33 
   7  -3   3   12.21    0.39 
   7  -3   3   10.84    0.42 
   7  -3   3   11.41    0.32 
   8  -3   3   22.96    0.66 
   8  -3   3   22.14    0.56 
   8   2  -3    2.20    0.20 
   8   2  -3    2.32    0.24 
   8   2  -3    2.78    0.31 
   8   2  -3    2.30    0.18 
   7   2  -3    1.11    0.13 
   7   2  -3    1.32    0.13 
   7   2  -3    1.17    0.18 
   7   2  -3    1.11    0.11 
  -7  -2   3    1.15    0.12 
  -7  -2   3    0.93    0.09 
   6   2  -3   40.23    0.84 
   6   2  -3   38.74    0.85 
   6   2  -3   40.79    0.96 
   6   2  -3   39.34    0.86 
   6   2  -3   39.86    0.84 
  -6  -2   3   39.14    0.84 
  -6  -2   3   40.01    0.84 
   5   2  -3    0.11    0.06 
   5   2  -3    0.09    0.06 
   5   2  -3    0.02    0.08 
   5   2  -3    0.02    0.06 
  -5  -2   3    0.04    0.06 
  -5  -2   3    0.01    0.05 
  -5  -2   3   -0.04    0.06 
   4   2  -3    9.55    0.26 
   4   2  -3    9.68    0.25 
   4   2  -3    9.47    0.26 
   4   2  -3    9.44    0.25 
  -4  -2   3    9.59    0.26 
  -4  -2   3    9.78    0.24 
  -4  -2   3    9.36    0.26 
   3   2  -3   14.04    0.34 
   3   2  -3   13.94    0.33 
   3   2  -3   13.67    0.33 
   3   2  -3   14.50    0.35 
  -3  -2   3   14.35    0.33 
  -3  -2   3   14.64    0.34 
  -3  -2   3   14.09    0.32 
   2   2  -3   50.19    1.02 
   2   2  -3   51.75    1.06 
   2   2  -3   49.89    1.05 
   2   2  -3   49.95    1.03 
  -2  -2   3   54.07    1.06 
  -2  -2   3   50.78    1.05 
  -2  -2   3   51.99    1.02 
   1   2  -3  167.73    3.22 
   1   2  -3  172.67    3.32 
   1   2  -3  165.38    3.23 
  -1  -2   3  161.29    3.32 
  -1  -2   3  171.57    3.34 
  -1  -2   3  167.21    3.22 
  -1  -2   3  163.64    3.23 
   0   2  -3   20.21    0.45 
   0   2  -3   19.23    0.45 
   0   2  -3   20.04    0.43 
   0   2  -3   19.66    0.44 
   0  -2   3   20.27    0.45 
   0  -2   3   19.67    0.44 
   0  -2   3   19.89    0.43 
  -1   2  -3   30.60    0.67 
  -1   2  -3   31.07    0.65 
  -1   2  -3   31.69    0.67 
  -1   2  -3   31.24    0.66 
   1  -2   3   31.00    0.67 
   1  -2   3   29.97    0.65 
   1  -2   3   31.69    0.66 
   1  -2   3   31.94    0.67 
  -2   2  -3   28.27    0.61 
  -2   2  -3   29.45    0.63 
  -2   2  -3   28.57    0.62 
  -2   2  -3   28.07    0.64 
   2  -2   3   28.60    0.62 
   2  -2   3   30.40    0.62 
   2  -2   3   28.68    0.61 
   2  -2   3   28.56    0.62 
  -3   2  -3   49.54    1.01 
  -3   2  -3   48.22    1.01 
  -3   2  -3   49.89    1.06 
   3  -2   3   48.52    1.01 
   3  -2   3   49.08    1.04 
   3  -2   3   50.78    1.02 
   3  -2   3   48.34    1.01 
  -4   2  -3   12.68    0.36 
  -4   2  -3   12.70    0.32 
  -4   2  -3   11.11    0.31 
   4  -2   3   12.34    0.33 
   4  -2   3   12.45    0.32 
   4  -2   3   12.56    0.33 
   4  -2   3   12.34    0.30 
  -5   2  -3   62.96    1.34 
   5  -2   3   57.94    1.25 
   5  -2   3   61.12    1.31 
   5  -2   3   60.58    1.26 
   5  -2   3   60.75    1.29 
   5  -2   3   62.25    1.25 
  -6   2  -3    0.56    0.11 
   6  -2   3    0.56    0.08 
   6  -2   3    0.55    0.10 
   6  -2   3    0.42    0.11 
   6  -2   3    0.53    0.09 
   6  -2   3    0.34    0.10 
  -7   2  -3   15.48    0.44 
  -7   2  -3   17.62    0.56 
   7  -2   3   17.48    0.47 
   7  -2   3   16.87    0.50 
   7  -2   3   15.87    0.49 
   7  -2   3   16.31    0.43 
   8  -2   3    3.14    0.20 
   8  -2   3    3.31    0.31 
   8  -2   3    2.99    0.36 
   8   1  -3   12.77    0.43 
   8   1  -3   14.18    0.52 
   8   1  -3   13.30    0.35 
   8   1  -3   13.21    0.36 
   7   1  -3    0.07    0.08 
   7   1  -3    0.09    0.10 
   7   1  -3    0.11    0.12 
   7   1  -3    0.20    0.08 
   6   1  -3   51.01    1.07 
   6   1  -3   51.52    1.03 
   6   1  -3   51.80    1.17 
   6   1  -3   50.38    1.05 
   6   1  -3   50.76    1.04 
  -6  -1   3   50.77    1.03 
  -6  -1   3   49.40    1.01 
   5   1  -3    8.42    0.23 
   5   1  -3    8.36    0.24 
   5   1  -3    8.54    0.30 
   5   1  -3    8.41    0.23 
   5   1  -3    8.68    0.23 
  -5  -1   3    8.64    0.21 
  -5  -1   3    8.51    0.23 
  -5  -1   3    8.50    0.23 
   4   1  -3   20.13    0.43 
   4   1  -3   19.89    0.45 
   4   1  -3   19.73    0.45 
  -4  -1   3   20.13    0.44 
  -4  -1   3   20.84    0.46 
  -4  -1   3   20.38    0.43 
   3   1  -3    3.48    0.12 
   3   1  -3    3.49    0.12 
   3   1  -3    3.84    0.13 
   3   1  -3    3.49    0.11 
  -3  -1   3    3.18    0.12 
  -3  -1   3    3.27    0.12 
  -3  -1   3    3.39    0.11 
   2   1  -3   11.98    0.29 
   2   1  -3   11.68    0.27 
   2   1  -3   11.53    0.27 
   2   1  -3   11.37    0.26 
  -2  -1   3   11.78    0.26 
  -2  -1   3   11.94    0.28 
  -2  -1   3   11.48    0.26 
   1   1  -3  143.55    2.80 
   1   1  -3  142.16    2.69 
   1   1  -3  141.96    2.72 
  -1  -1   3  125.67    2.69 
  -1  -1   3  140.08    2.70 
  -1  -1   3  137.63    2.76 
  -1  -1   3  145.06    2.77 
   0   1  -3   56.29    1.19 
   0   1  -3   58.84    1.15 
   0   1  -3   60.06    1.19 
   0   1  -3   56.80    1.15 
   0  -1   3   59.47    1.15 
   0  -1   3   60.28    1.18 
   0  -1   3   55.69    1.15 
  -1   1  -3   66.18    1.32 
  -1   1  -3   65.79    1.32 
  -1   1  -3   68.09    1.35 
  -1   1  -3   66.10    1.36 
   1  -1   3   64.44    1.32 
   1  -1   3   69.53    1.35 
   1  -1   3   63.82    1.35 
   1  -1   3   68.30    1.32 
  -2   1  -3   17.19    0.39 
  -2   1  -3   16.65    0.38 
  -2   1  -3   16.47    0.38 
   2  -1   3   16.81    0.38 
   2  -1   3   16.66    0.39 
   2  -1   3   17.83    0.38 
   2  -1   3   17.01    0.39 
  -3   1  -3   85.37    1.74 
  -3   1  -3   86.83    1.79 
  -3   1  -3   86.70    1.71 
  -3   1  -3   87.61    1.71 
   3  -1   3   86.79    1.71 
   3  -1   3   85.46    1.77 
   3  -1   3   83.99    1.70 
   3  -1   3   88.49    1.73 
  -4   1  -3   47.14    0.99 
  -4   1  -3   47.19    0.98 
  -4   1  -3   47.84    1.05 
   4  -1   3   48.03    0.98 
   4  -1   3   47.77    1.03 
   4  -1   3   48.04    1.02 
   4  -1   3   48.69    0.98 
   4  -1   3   48.16    0.99 
  -5   1  -3   29.95    0.66 
  -5   1  -3   30.79    0.73 
   5  -1   3   30.30    0.64 
   5  -1   3   29.69    0.69 
   5  -1   3   30.07    0.67 
   5  -1   3   29.91    0.66 
   5  -1   3   30.19    0.70 
  -6   1  -3   54.72    1.17 
  -6   1  -3   58.19    1.28 
   6  -1   3   57.40    1.23 
   6  -1   3   55.61    1.15 
   6  -1   3   57.45    1.19 
   6  -1   3   57.67    1.25 
   6  -1   3   56.90    1.18 
  -7   1  -3    1.06    0.14 
  -7   1  -3    0.92    0.15 
   7  -1   3    1.31    0.16 
   7  -1   3    1.51    0.15 
   7  -1   3    1.21    0.15 
   7  -1   3    1.16    0.14 
   8  -1   3    7.96    0.38 
   8  -1   3    8.30    0.40 
   8  -1   3    7.47    0.28 
   8   0  -3    1.38    0.21 
   7   0  -3    0.73    0.15 
   7   0  -3    0.68    0.11 
   6   0  -3   11.37    0.27 
   6   0  -3   11.27    0.30 
   6   0  -3   11.20    0.28 
   6   0  -3   11.64    0.39 
   5   0  -3   14.85    0.34 
   5   0  -3   14.73    0.42 
   5   0  -3   14.50    0.33 
   5   0  -3   14.54    0.35 
   5   0  -3   14.65    0.32 
   4   0  -3    0.72    0.08 
   4   0  -3    0.78    0.07 
   4   0  -3    0.78    0.07 
   4   0  -3    0.73    0.10 
   4   0  -3    0.85    0.07 
  -4   0   3    0.69    0.08 
  -4   0   3    0.70    0.06 
  -4   0   3    0.64    0.06 
   3   0  -3  108.66    2.11 
   3   0  -3  107.72    2.16 
   3   0  -3  107.56    2.10 
   3   0  -3  110.48    2.17 
  -3   0   3  110.57    2.17 
  -3   0   3  111.10    2.10 
  -3   0   3  107.47    2.11 
   2   0  -3    0.06    0.03 
   2   0  -3    0.08    0.03 
   2   0  -3    0.12    0.03 
   2   0  -3    0.03    0.02 
  -2   0   3    0.10    0.04 
  -2   0   3    0.10    0.03 
   1   0  -3  221.48    4.42 
   1   0  -3  226.87    4.42 
   1   0  -3  232.86    4.59 
  -1   0   3  230.83    4.44 
  -1   0   3  231.48    4.58 
  -1   0   3  235.76    4.57 
  -1   0   3  219.24    4.52 
   0   0  -3   59.71    1.16 
   0   0  -3   57.56    1.13 
   0   0  -3   57.13    1.13 
   0   0  -3   54.00    1.17 
   0   0   3   57.92    1.16 
  -1   0  -3  143.26    2.83 
  -1   0  -3  137.80    2.70 
  -1   0  -3  138.53    2.74 
  -1   0  -3  139.37    2.80 
   1   0   3  144.52    2.77 
   1   0   3  139.20    2.72 
   1   0   3  133.82    2.81 
   1   0   3  140.04    2.72 
   1   0   3  142.48    2.86 
  -2   0  -3   56.05    1.11 
  -2   0  -3   53.18    1.13 
  -2   0  -3   54.80    1.09 
  -2   0  -3   54.87    1.09 
   2   0   3   56.33    1.11 
   2   0   3   53.00    1.13 
   2   0   3   54.26    1.09 
   2   0   3   54.11    1.09 
   2   0   3   56.27    1.13 
  -3   0  -3   38.66    0.83 
  -3   0  -3   38.17    0.78 
  -3   0  -3   38.31    0.79 
  -3   0  -3   37.55    0.79 
   3   0   3   37.93    0.82 
   3   0   3   39.34    0.79 
   3   0   3   37.50    0.78 
   3   0   3   38.46    0.81 
   3   0   3   38.20    0.79 
  -4   0  -3   62.23    1.33 
  -4   0  -3   62.58    1.25 
   4   0   3   62.32    1.29 
   4   0   3   60.67    1.24 
   4   0   3   61.14    1.25 
   4   0   3   63.15    1.25 
   4   0   3   62.47    1.31 
  -5   0  -3   14.08    0.40 
  -5   0  -3   14.27    0.36 
   5   0   3   14.02    0.31 
   5   0   3   13.82    0.36 
   5   0   3   14.05    0.38 
   5   0   3   13.52    0.34 
  -6   0  -3    4.29    0.24 
  -6   0  -3    3.57    0.18 
   6   0   3    3.77    0.23 
   6   0   3    3.85    0.19 
   6   0   3    4.15    0.20 
   6   0   3    3.80    0.17 
  -7   0  -3    3.42    0.26 
  -7   0  -3    3.66    0.18 
  -7   0  -3    3.36    0.21 
   7   0   3    3.95    0.23 
   7   0   3    3.51    0.18 
   7   0   3    3.45    0.23 
   7   0   3    3.65    0.22 
   8   0   3    7.92    0.37 
   8   0   3    8.15    0.35 
   8   0   3    7.93    0.28 
   8   0   3    8.75    0.37 
   8  -1  -3   32.25    0.87 
   7  -1  -3    9.11    0.28 
   7  -1  -3    9.35    0.38 
   6  -1  -3    9.81    0.26 
   6  -1  -3    9.79    0.25 
   6  -1  -3    9.93    0.38 
   5  -1  -3   16.07    0.36 
   5  -1  -3   16.50    0.45 
   5  -1  -3   16.29    0.38 
   4  -1  -3   66.21    1.33 
   4  -1  -3   65.42    1.39 
   4  -1  -3   64.71    1.30 
   3  -1  -3   27.92    0.59 
  -3   1   3   27.66    0.59 
   2  -1  -3    0.16    0.03 
   2  -1  -3    0.11    0.03 
   2  -1  -3    0.13    0.02 
   2  -1  -3    0.13    0.04 
  -2   1   3    0.07    0.03 
  -2   1   3    0.14    0.02 
   1  -1  -3   45.54    0.88 
   1  -1  -3   43.97    0.86 
   1  -1  -3   42.50    0.86 
   1  -1  -3   45.18    0.90 
  -1   1   3   43.49    0.86 
  -1   1   3   44.63    0.90 
  -1   1   3   41.69    0.86 
   0  -1  -3    0.23    0.03 
   0  -1  -3    0.29    0.04 
   0  -1  -3    0.28    0.03 
   0  -1  -3    0.28    0.03 
   0  -1  -3    0.28    0.03 
   0   1   3    0.36    0.04 
   0   1   3    0.24    0.03 
   0   1   3    0.38    0.04 
   0   1   3    0.34    0.03 
  -1  -1  -3    6.85    0.18 
  -1  -1  -3    7.33    0.18 
  -1  -1  -3    7.02    0.18 
   1   1   3    7.21    0.17 
   1   1   3    7.10    0.18 
   1   1   3    7.04    0.17 
   1   1   3    7.77    0.18 
  -2  -1  -3   53.09    1.10 
  -2  -1  -3   54.31    1.14 
  -2  -1  -3   57.46    1.11 
  -2  -1  -3   56.98    1.13 
  -2  -1  -3   55.60    1.10 
   2   1   3   52.38    1.09 
   2   1   3   56.69    1.11 
   2   1   3   53.37    1.13 
   2   1   3   55.41    1.13 
   2   1   3   56.35    1.10 
  -3  -1  -3   48.78    0.97 
  -3  -1  -3   47.42    0.98 
  -3  -1  -3   48.02    0.97 
   3   1   3   47.37    0.98 
   3   1   3   49.29    1.00 
   3   1   3   47.56    0.97 
   3   1   3   48.28    1.02 
   3   1   3   48.41    0.97 
  -4  -1  -3   13.28    0.29 
  -4  -1  -3   13.67    0.37 
  -4  -1  -3   13.57    0.33 
   4   1   3   13.74    0.33 
   4   1   3   13.86    0.34 
   4   1   3   13.76    0.29 
   4   1   3   13.99    0.34 
   4   1   3   13.73    0.36 
  -5  -1  -3    5.64    0.19 
  -5  -1  -3    5.84    0.20 
  -5  -1  -3    5.76    0.24 
   5   1   3    5.66    0.20 
   5   1   3    5.96    0.21 
   5   1   3    5.65    0.22 
   5   1   3    5.81    0.19 
  -6  -1  -3   38.02    0.89 
   6   1   3   36.83    0.82 
   6   1   3   37.98    0.84 
  -7  -1  -3    4.07    0.26 
  -7  -1  -3    4.16    0.21 
   7   1   3    3.78    0.22 
   7   1   3    4.09    0.22 
   7   1   3    3.95    0.19 
   7   1   3    3.92    0.25 
   8   1   3   18.70    0.49 
   8   1   3   20.51    0.59 
   8   1   3   20.12    0.56 
   9   1   3    8.27    0.41 
   8  -2  -3    0.62    0.20 
   7  -2  -3    5.33    0.20 
   7  -2  -3    5.59    0.32 
   6  -2  -3    0.23    0.05 
   6  -2  -3    0.29    0.12 
   6  -2  -3    0.19    0.07 
   5  -2  -3    6.94    0.20 
   5  -2  -3    6.59    0.26 
   4  -2  -3    6.35    0.18 
   4  -2  -3    5.93    0.22 
   3  -2  -3  108.10    2.23 
   3  -2  -3  110.69    2.18 
   2  -2  -3   28.73    0.61 
   1  -2  -3   89.09    1.79 
   1  -2  -3   92.95    1.78 
   1  -2  -3   93.77    1.83 
  -1   2   3   92.00    1.77 
  -1   2   3   92.09    1.78 
   0  -2  -3   22.12    0.45 
   0  -2  -3   20.71    0.46 
   0  -2  -3   22.69    0.46 
   0  -2  -3   22.75    0.47 
   0  -2  -3   22.13    0.45 
   0   2   3   22.35    0.45 
   0   2   3   22.70    0.46 
   0   2   3   22.69    0.48 
  -1  -2  -3  422.32    8.30 
  -1  -2  -3  411.00    8.08 
  -1  -2  -3  416.82    8.09 
  -1  -2  -3  420.19    8.27 
  -1  -2  -3  406.68    8.32 
   1   2   3  419.36    8.26 
   1   2   3  409.68    8.08 
   1   2   3  420.60    8.08 
   1   2   3  421.93    8.29 
   1   2   3  398.34    8.29 
  -2  -2  -3  131.76    2.67 
  -2  -2  -3  135.09    2.57 
  -2  -2  -3  131.80    2.59 
  -2  -2  -3  134.17    2.67 
   2   2   3  131.29    2.57 
   2   2   3  135.00    2.64 
   2   2   3  131.99    2.60 
   2   2   3  133.78    2.66 
   2   2   3  129.35    2.68 
  -3  -2  -3   50.69    1.00 
  -3  -2  -3   50.28    1.06 
  -3  -2  -3   50.80    1.03 
  -3  -2  -3   49.85    1.01 
  -3  -2  -3   48.59    1.01 
   3   2   3   49.55    1.05 
   3   2   3   49.42    1.01 
   3   2   3   48.47    1.01 
   3   2   3   51.51    1.04 
  -4  -2  -3   20.35    0.50 
  -4  -2  -3   20.39    0.42 
  -4  -2  -3   20.33    0.46 
  -4  -2  -3   20.35    0.46 
  -4  -2  -3   20.42    0.46 
   4   2   3   20.14    0.46 
   4   2   3   20.64    0.47 
   4   2   3   19.86    0.46 
   4   2   3   19.35    0.48 
  -5  -2  -3   26.61    0.59 
  -5  -2  -3   27.12    0.64 
   5   2   3   25.33    0.62 
   5   2   3   26.44    0.58 
   5   2   3   25.36    0.59 
   6   2   3   14.65    0.39 
   6   2   3   14.50    0.39 
   6   2   3   14.14    0.38 
   6   2   3   14.78    0.45 
   7   2   3    4.63    0.24 
   7   2   3    4.70    0.23 
   7   2   3    4.55    0.20 
   7   2   3    5.03    0.27 
  -8  -2  -3    1.25    0.16 
   8   2   3    1.74    0.18 
   8   2   3    1.67    0.16 
   8   2   3    1.49    0.18 
   8   2   3    1.77    0.18 
   9   2   3    1.25    0.14 
   9   2   3    1.15    0.21 
   8  -3  -3    7.62    0.43 
   7  -3  -3   31.74    0.70 
   7  -3  -3   30.28    0.68 
   7  -3  -3   33.39    0.82 
   6  -3  -3   19.15    0.45 
   6  -3  -3   18.88    0.53 
   5  -3  -3  141.19    2.89 
   5  -3  -3  140.20    2.80 
   4  -3  -3    1.40    0.11 
   4  -3  -3    1.44    0.13 
   3  -3  -3  163.71    3.21 
   3  -3  -3  159.87    3.25 
   2  -3  -3   36.93    0.78 
   2  -3  -3   37.72    0.79 
   1  -3  -3  123.74    2.60 
   1  -3  -3  132.10    2.55 
   1  -3  -3  132.16    2.54 
   1  -3  -3  132.23    2.61 
  -1   3   3  132.97    2.53 
  -1   3   3  135.87    2.55 
   0  -3  -3    3.19    0.10 
   0  -3  -3    3.20    0.10 
   0  -3  -3    3.23    0.10 
   0  -3  -3    3.24    0.09 
   0   3   3    3.39    0.09 
   0   3   3    3.45    0.10 
  -1  -3  -3   17.28    0.37 
  -1  -3  -3   16.82    0.37 
  -1  -3  -3   17.17    0.37 
  -1  -3  -3   17.77    0.38 
  -1  -3  -3   17.20    0.38 
   1   3   3   17.76    0.38 
   1   3   3   17.04    0.37 
   1   3   3   16.67    0.37 
   1   3   3   17.32    0.37 
  -2  -3  -3  145.04    2.90 
  -2  -3  -3  146.44    2.83 
  -2  -3  -3  145.69    2.92 
  -2  -3  -3  140.82    2.82 
  -2  -3  -3  148.05    2.92 
   2   3   3  143.01    2.82 
   2   3   3  146.49    2.82 
   2   3   3  146.53    2.92 
   2   3   3  148.80    2.90 
  -3  -3  -3   44.98    0.93 
  -3  -3  -3   44.38    0.95 
  -3  -3  -3   44.17    0.91 
  -3  -3  -3   44.64    0.90 
  -3  -3  -3   44.58    0.92 
   3   3   3   45.06    0.92 
   3   3   3   43.10    0.94 
   3   3   3   45.85    0.94 
  -4  -3  -3    8.91    0.25 
  -4  -3  -3    8.37    0.24 
  -4  -3  -3    8.95    0.24 
  -4  -3  -3    9.14    0.27 
  -4  -3  -3    8.95    0.20 
   4   3   3    8.74    0.26 
   4   3   3    8.85    0.25 
   4   3   3    9.17    0.25 
   4   3   3    9.03    0.25 
  -5  -3  -3    6.24    0.20 
  -5  -3  -3    6.23    0.21 
  -5  -3  -3    5.92    0.23 
  -5  -3  -3    5.87    0.21 
   5   3   3    6.06    0.21 
   5   3   3    6.16    0.21 
   5   3   3    5.73    0.20 
  -6  -3  -3   19.98    0.49 
  -6  -3  -3   18.77    0.50 
   6   3   3   19.92    0.49 
   6   3   3   19.87    0.48 
   6   3   3   20.67    0.50 
   6   3   3   19.75    0.55 
   7   3   3   32.75    0.75 
   7   3   3   32.24    0.73 
   7   3   3   31.65    0.75 
   7   3   3   31.91    0.80 
  -8  -3  -3   10.01    0.37 
   8   3   3   12.13    0.44 
   8   3   3   11.94    0.40 
   8   3   3   12.24    0.41 
   8   3   3   11.33    0.34 
   9   3   3   13.48    0.40 
   9   3   3   13.25    0.51 
   7  -4  -3   11.95    0.43 
   7  -4  -3   11.56    0.34 
   6  -4  -3    3.65    0.24 
   6  -4  -3    3.90    0.19 
   5  -4  -3    3.86    0.18 
   5  -4  -3    4.06    0.21 
   4  -4  -3   22.19    0.51 
   4  -4  -3   22.31    0.53 
   3  -4  -3   12.37    0.31 
   2  -4  -3   86.49    1.74 
   1  -4  -3    1.23    0.06 
   1  -4  -3    1.39    0.07 
   1  -4  -3    1.34    0.06 
  -1   4   3    1.42    0.06 
  -1   4   3    1.49    0.06 
   0  -4  -3  131.33    2.55 
   0  -4  -3  132.93    2.63 
   0  -4  -3  127.24    2.59 
   0   4   3  134.30    2.55 
   0   4   3  134.42    2.64 
  -1  -4  -3   12.90    0.30 
  -1  -4  -3   12.84    0.30 
  -1  -4  -3   12.99    0.30 
  -1  -4  -3   12.93    0.29 
   1   4   3   12.80    0.30 
   1   4   3   12.88    0.28 
   1   4   3   13.28    0.30 
   1   4   3   13.10    0.30 
  -2  -4  -3  168.44    3.32 
  -2  -4  -3  161.22    3.21 
  -2  -4  -3  165.28    3.30 
  -2  -4  -3  168.73    3.22 
   2   4   3  170.67    3.32 
   2   4   3  165.44    3.21 
   2   4   3  162.99    3.35 
   2   4   3  163.87    3.21 
  -3  -4  -3    2.29    0.11 
  -3  -4  -3    2.15    0.11 
  -3  -4  -3    2.18    0.11 
  -3  -4  -3    2.08    0.11 
   3   4   3    2.02    0.11 
   3   4   3    2.31    0.11 
   3   4   3    2.10    0.11 
   3   4   3    2.13    0.11 
  -4  -4  -3  138.99    2.75 
  -4  -4  -3  141.97    2.81 
  -4  -4  -3  140.67    2.86 
  -4  -4  -3  139.97    2.76 
  -4  -4  -3  144.91    2.76 
   4   4   3  140.56    2.75 
   4   4   3  135.11    2.85 
   4   4   3  142.58    2.82 
   4   4   3  136.31    2.75 
  -5  -4  -3    0.13    0.07 
  -5  -4  -3    0.15    0.06 
  -5  -4  -3    0.11    0.06 
  -5  -4  -3    0.11    0.07 
   5   4   3    0.18    0.06 
   5   4   3    0.24    0.07 
   5   4   3    0.22    0.07 
   5   4   3    0.22    0.08 
  -6  -4  -3   26.96    0.66 
  -6  -4  -3   25.61    0.61 
  -6  -4  -3   26.75    0.61 
  -6  -4  -3   25.79    0.59 
   6   4   3   26.03    0.62 
   6   4   3   25.49    0.62 
   6   4   3   24.80    0.61 
  -7  -4  -3   10.70    0.35 
   7   4   3   10.35    0.34 
   7   4   3   10.47    0.36 
   7   4   3   10.45    0.38 
   7   4   3   10.50    0.32 
   8   4   3    0.83    0.15 
   8   4   3    0.60    0.16 
   8   4   3    0.76    0.15 
   8   4   3    0.70    0.12 
   9   4   3    4.57    0.24 
   7  -5  -3   27.45    0.72 
   7  -5  -3   27.20    0.65 
   6  -5  -3   11.68    0.38 
   6  -5  -3   11.67    0.35 
   5  -5  -3   52.33    1.13 
   5  -5  -3   54.07    1.15 
   4  -5  -3    7.65    0.24 
   3  -5  -3   95.40    1.93 
   2  -5  -3   16.36    0.36 
   2  -5  -3   16.19    0.35 
   2  -5  -3   16.80    0.35 
  -2   5   3   16.52    0.35 
  -2   5   3   16.61    0.34 
   1  -5  -3   28.72    0.60 
   1  -5  -3   29.06    0.60 
  -1   5   3   29.21    0.59 
  -1   5   3   28.92    0.60 
   0  -5  -3   35.81    0.76 
   0  -5  -3   36.57    0.76 
   0  -5  -3   37.71    0.77 
   0   5   3   37.41    0.76 
   0   5   3   37.47    0.76 
  -1  -5  -3   23.24    0.51 
  -1  -5  -3   23.95    0.52 
   1   5   3   24.36    0.51 
   1   5   3   23.20    0.49 
   1   5   3   22.16    0.51 
   1   5   3   23.85    0.51 
  -2  -5  -3    0.39    0.06 
  -2  -5  -3    0.38    0.05 
  -2  -5  -3    0.32    0.05 
  -2  -5  -3    0.27    0.05 
  -3  -5  -3   12.89    0.33 
  -3  -5  -3   12.82    0.32 
  -3  -5  -3   12.62    0.33 
  -3  -5  -3   12.80    0.33 
   3   5   3   12.71    0.33 
   3   5   3   12.93    0.33 
   3   5   3   12.33    0.32 
   3   5   3   12.90    0.33 
  -4  -5  -3    0.30    0.06 
  -4  -5  -3    0.32    0.06 
  -4  -5  -3    0.31    0.08 
  -4  -5  -3    0.34    0.07 
   4   5   3    0.61    0.07 
   4   5   3    0.61    0.09 
  -5  -5  -3   53.87    1.11 
  -5  -5  -3   53.21    1.07 
  -5  -5  -3   54.95    1.12 
  -5  -5  -3   52.90    1.12 
   5   5   3   51.02    1.11 
   5   5   3   53.17    1.13 
   5   5   3   50.98    1.11 
   5   5   3   51.68    1.16 
  -6  -5  -3    7.48    0.25 
  -6  -5  -3    7.48    0.28 
   6   5   3    7.66    0.28 
   6   5   3    7.44    0.26 
  -7  -5  -3   29.26    0.68 
  -7  -5  -3   28.07    0.66 
  -7  -5  -3   29.19    0.70 
   7   5   3   29.20    0.71 
   7   5   3   28.49    0.74 
   7   5   3   28.59    0.68 
   7   5   3   27.67    0.69 
   8   5   3    2.24    0.19 
   8   5   3    2.82    0.27 
   8   5   3    2.32    0.22 
   9   5   3   13.74    0.53 
   9   5   3   12.91    0.42 
   7  -6  -3    4.86    0.34 
   7  -6  -3    4.76    0.31 
   6  -6  -3    1.04    0.14 
   6  -6  -3    1.05    0.14 
   5  -6  -3   20.86    0.53 
   5  -6  -3   20.81    0.51 
   4  -6  -3   21.18    0.49 
   3  -6  -3    1.10    0.09 
   3  -6  -3    1.26    0.09 
   2  -6  -3   10.96    0.26 
   2  -6  -3   10.79    0.26 
   2  -6  -3   10.95    0.26 
  -2   6   3   11.13    0.25 
  -2   6   3   10.70    0.26 
   1  -6  -3   26.18    0.56 
   1  -6  -3   26.02    0.56 
   1  -6  -3   26.67    0.55 
  -1   6   3   26.30    0.55 
  -1   6   3   25.57    0.55 
   0  -6  -3   67.28    1.36 
   0  -6  -3   67.94    1.38 
   0  -6  -3   68.87    1.35 
   0   6   3   67.22    1.35 
  -1  -6  -3   12.08    0.31 
  -1  -6  -3   12.80    0.31 
  -1  -6  -3   12.45    0.31 
   1   6   3   12.89    0.31 
   1   6   3   12.58    0.27 
   1   6   3   12.73    0.30 
   1   6   3   11.72    0.31 
  -2  -6  -3  143.44    2.88 
  -2  -6  -3  141.26    2.81 
  -2  -6  -3  146.07    2.81 
   2   6   3  148.20    2.87 
   2   6   3  139.90    2.87 
   2   6   3  140.96    2.81 
   2   6   3  143.87    2.81 
  -3  -6  -3    7.65    0.24 
  -3  -6  -3    7.96    0.24 
  -3  -6  -3    7.41    0.23 
   3   6   3    7.79    0.23 
   3   6   3    7.41    0.23 
   3   6   3    7.25    0.24 
  -4  -6  -3   21.45    0.52 
  -4  -6  -3   21.81    0.53 
  -4  -6  -3   22.14    0.53 
   4   6   3   22.01    0.52 
   4   6   3   22.41    0.52 
   4   6   3   21.45    0.53 
   4   6   3   21.31    0.52 
  -5  -6  -3   26.41    0.63 
  -5  -6  -3   27.95    0.64 
  -5  -6  -3   26.76    0.64 
   5   6   3   27.22    0.64 
   5   6   3   27.41    0.64 
   5   6   3   27.49    0.64 
   5   6   3   26.80    0.66 
  -6  -6  -3   28.09    0.59 
  -6  -6  -3   28.11    0.66 
  -6  -6  -3   28.34    0.68 
  -6  -6  -3   28.85    0.67 
  -6  -6  -3   27.66    0.59 
   6   6   3   27.19    0.67 
   6   6   3   28.81    0.68 
   6   6   3   27.73    0.71 
   6   6   3   27.88    0.67 
  -7  -6  -3    3.13    0.22 
  -7  -6  -3    3.61    0.22 
  -7  -6  -3    3.68    0.27 
   7   6   3    3.15    0.22 
   7   6   3    3.50    0.22 
   7   6   3    3.62    0.27 
   7   6   3    3.78    0.27 
  -8  -6  -3    4.47    0.26 
   8   6   3    4.62    0.25 
   8   6   3    4.94    0.31 
   6  -7  -3   28.10    0.70 
   6  -7  -3   27.48    0.67 
   5  -7  -3    5.83    0.23 
   4  -7  -3   36.08    0.77 
   3  -7  -3    3.89    0.15 
   3  -7  -3    4.01    0.14 
  -3   7   3    4.17    0.14 
   2  -7  -3   39.29    0.83 
   2  -7  -3   39.68    0.81 
   2  -7  -3   39.32    0.82 
  -2   7   3   38.96    0.81 
  -2   7   3   40.25    0.80 
   1  -7  -3    0.38    0.06 
   1  -7  -3    0.37    0.06 
   1  -7  -3    0.38    0.06 
  -1   7   3    0.45    0.06 
  -1   7   3    0.41    0.06 
   0  -7  -3   51.64    1.07 
   0  -7  -3   51.76    1.06 
   0  -7  -3   51.66    1.08 
   0   7   3   50.66    1.06 
   0   7   3   53.04    1.06 
  -1  -7  -3    0.32    0.07 
  -1  -7  -3    0.25    0.06 
  -1  -7  -3    0.29    0.06 
   1   7   3    0.42    0.06 
   1   7   3    0.39    0.07 
  -2  -7  -3   33.65    0.74 
  -2  -7  -3   32.61    0.74 
  -2  -7  -3   33.73    0.73 
   2   7   3   33.21    0.74 
   2   7   3   32.86    0.71 
   2   7   3   34.10    0.73 
   2   7   3   34.06    0.74 
  -3  -7  -3   10.68    0.31 
  -3  -7  -3   10.21    0.31 
  -3  -7  -3   10.41    0.30 
   3   7   3   10.22    0.31 
   3   7   3   10.34    0.30 
   3   7   3   10.36    0.29 
   3   7   3   10.19    0.28 
  -4  -7  -3    1.92    0.14 
  -4  -7  -3    1.78    0.16 
   4   7   3    2.10    0.16 
   4   7   3    2.10    0.15 
   4   7   3    2.19    0.15 
   4   7   3    1.91    0.16 
  -5  -7  -3   20.91    0.53 
  -5  -7  -3   21.78    0.54 
  -5  -7  -3   21.49    0.55 
   5   7   3   21.27    0.53 
   5   7   3   21.00    0.54 
   5   7   3   20.92    0.55 
   5   7   3   21.40    0.55 
  -6  -7  -3    1.45    0.16 
  -6  -7  -3    1.38    0.13 
  -6  -7  -3    1.01    0.13 
  -6  -7  -3    1.73    0.18 
   6   7   3    1.23    0.12 
   6   7   3    1.44    0.16 
   6   7   3    1.07    0.14 
   6   7   3    1.33    0.15 
  -7  -7  -3   16.78    0.51 
  -7  -7  -3   16.24    0.47 
   7   7   3   16.70    0.52 
   7   7   3   17.09    0.51 
   7   7   3   16.17    0.48 
  -8  -7  -3    1.21    0.17 
   8   7   3    1.38    0.20 
   8   7   3    1.13    0.16 
   6  -8  -3    2.82    0.31 
   5  -8  -3    0.90    0.11 
   4  -8  -3   19.00    0.42 
   4  -8  -3   18.83    0.42 
   4  -8  -3   18.66    0.43 
   3  -8  -3   11.54    0.29 
   3  -8  -3   11.39    0.30 
   3  -8  -3   11.32    0.30 
  -3   8   3   10.78    0.29 
  -3   8   3   11.47    0.29 
   2  -8  -3   28.03    0.61 
   2  -8  -3   27.93    0.62 
  -2   8   3   27.47    0.61 
  -2   8   3   28.46    0.60 
   1  -8  -3   11.29    0.30 
   1  -8  -3   11.72    0.30 
   1  -8  -3   11.37    0.30 
  -1   8   3   11.54    0.29 
  -1   8   3   10.92    0.30 
   0  -8  -3   61.45    1.30 
   0  -8  -3   62.64    1.27 
   0  -8  -3   60.93    1.27 
   0   8   3   63.04    1.26 
  -1  -8  -3  231.01    4.43 
  -1  -8  -3  228.32    4.44 
  -1  -8  -3  227.53    4.55 
   1   8   3  220.67    4.43 
   1   8   3  232.41    4.42 
  -2  -8  -3    0.15    0.07 
  -2  -8  -3    0.15    0.07 
  -2  -8  -3    0.17    0.07 
   2   8   3    0.37    0.08 
   2   8   3    0.34    0.09 
   2   8   3    0.29    0.07 
   2   8   3    0.27    0.06 
  -3  -8  -3   20.86    0.52 
  -3  -8  -3   20.81    0.52 
  -3  -8  -3   21.24    0.52 
   3   8   3   20.16    0.53 
   3   8   3   21.53    0.52 
   3   8   3   21.40    0.51 
   3   8   3   20.75    0.50 
  -4  -8  -3   10.13    0.33 
  -4  -8  -3   10.04    0.32 
  -4  -8  -3   10.29    0.33 
   4   8   3    9.95    0.33 
   4   8   3   10.19    0.31 
  -5  -8  -3   71.76    1.52 
  -5  -8  -3   72.45    1.51 
   5   8   3   70.27    1.55 
   5   8   3   72.25    1.52 
   5   8   3   71.75    1.51 
  -6  -8  -3    0.31    0.11 
  -6  -8  -3    0.21    0.12 
  -6  -8  -3    0.26    0.11 
  -6  -8  -3    0.46    0.10 
   6   8   3    0.34    0.14 
   6   8   3    0.41    0.12 
   6   8   3    0.18    0.08 
   6   8   3    0.24    0.12 
  -7  -8  -3    3.96    0.19 
  -7  -8  -3    3.86    0.33 
  -7  -8  -3    3.90    0.20 
  -7  -8  -3    3.85    0.27 
   7   8   3    4.41    0.31 
   7   8   3    4.46    0.32 
   7   8   3    3.97    0.27 
  -8  -8  -3    0.16    0.16 
   8   8   3    0.12    0.18 
   8   8   3    0.06    0.12 
   5  -9  -3    0.10    0.12 
   4  -9  -3   27.35    0.59 
   4  -9  -3   25.39    0.60 
   4  -9  -3   26.75    0.62 
   3  -9  -3    7.29    0.25 
   3  -9  -3    7.34    0.23 
   3  -9  -3    7.13    0.25 
  -3   9   3    7.00    0.23 
  -3   9   3    7.54    0.24 
   2  -9  -3    5.09    0.21 
   2  -9  -3    5.40    0.21 
   2  -9  -3    5.20    0.20 
  -2   9   3    5.29    0.21 
   1  -9  -3    0.97    0.10 
   1  -9  -3    0.93    0.10 
   1  -9  -3    0.97    0.10 
   0  -9  -3   10.24    0.31 
   0  -9  -3   10.07    0.31 
   0  -9  -3   10.79    0.30 
   0   9   3   10.19    0.29 
   0   9   3    9.92    0.31 
  -1  -9  -3    3.12    0.18 
  -1  -9  -3    2.86    0.17 
  -1  -9  -3    2.88    0.17 
   1   9   3    2.98    0.18 
   1   9   3    3.06    0.15 
  -2  -9  -3    1.04    0.11 
  -2  -9  -3    1.23    0.14 
  -2  -9  -3    0.99    0.11 
   2   9   3    1.08    0.11 
   2   9   3    1.13    0.14 
   2   9   3    1.03    0.10 
   2   9   3    1.22    0.12 
  -3  -9  -3    4.81    0.23 
  -3  -9  -3    3.92    0.22 
  -3  -9  -3    4.70    0.22 
   3   9   3    4.78    0.19 
   3   9   3    4.65    0.20 
   3   9   3    4.63    0.24 
   3   9   3    4.74    0.22 
  -4  -9  -3    3.52    0.22 
  -4  -9  -3    3.33    0.20 
   4   9   3    3.41    0.20 
   4   9   3    3.22    0.21 
   4   9   3    2.95    0.22 
  -5  -9  -3    2.30    0.23 
  -5  -9  -3    2.43    0.19 
  -5  -9  -3    2.31    0.22 
  -5  -9  -3    2.42    0.20 
   5   9   3    2.34    0.23 
   5   9   3    2.37    0.21 
   5   9   3    2.12    0.21 
  -6  -9  -3   16.82    0.46 
  -6  -9  -3   17.33    0.53 
  -6  -9  -3   16.15    0.49 
  -6  -9  -3   16.90    0.50 
   6   9   3   16.44    0.51 
   6   9   3   17.37    0.52 
   6   9   3   16.71    0.51 
  -7  -9  -3    1.28    0.18 
  -7  -9  -3    1.46    0.24 
   7   9   3    1.18    0.20 
   7   9   3    1.46    0.21 
   7   9   3    1.58    0.18 
  -8  -9  -3    5.23    0.37 
   8   9   3    4.76    0.34 
   8   9   3    4.87    0.40 
   4 -10  -3    2.97    0.24 
   4 -10  -3    2.42    0.17 
   4 -10  -3    2.80    0.25 
   3 -10  -3    7.70    0.30 
   3 -10  -3    7.73    0.26 
   3 -10  -3    7.38    0.28 
  -3  10   3    7.55    0.27 
   2 -10  -3   10.38    0.31 
  -2  10   3   10.39    0.33 
   1 -10  -3   38.17    0.86 
   1 -10  -3   39.33    0.85 
   0 -10  -3    1.19    0.12 
   0 -10  -3    1.23    0.13 
   0 -10  -3    1.39    0.14 
   0  10   3    1.24    0.15 
  -1 -10  -3   22.39    0.55 
  -1 -10  -3   21.50    0.55 
  -1 -10  -3   22.16    0.56 
   1  10   3   21.35    0.56 
   1  10   3   22.28    0.53 
  -2 -10  -3    2.48    0.18 
  -2 -10  -3    2.60    0.21 
   2  10   3    2.20    0.17 
   2  10   3    2.43    0.13 
   2  10   3    2.61    0.21 
  -3 -10  -3   46.53    1.06 
  -3 -10  -3   46.96    1.07 
  -3 -10  -3   48.94    1.05 
   3  10   3   46.43    1.07 
   3  10   3   46.91    1.02 
   3  10   3   48.34    1.05 
  -4 -10  -3    9.29    0.35 
  -4 -10  -3    9.23    0.34 
  -4 -10  -3    9.08    0.35 
   4  10   3    8.95    0.36 
   4  10   3    9.12    0.32 
   4  10   3    9.28    0.34 
   4  10   3    8.70    0.31 
  -5 -10  -3    2.93    0.23 
  -5 -10  -3    2.85    0.23 
  -5 -10  -3    2.78    0.26 
  -5 -10  -3    3.03    0.28 
   5  10   3    3.01    0.25 
   5  10   3    3.30    0.27 
   5  10   3    2.84    0.26 
  -6 -10  -3    0.11    0.13 
  -6 -10  -3    0.27    0.14 
  -6 -10  -3    0.07    0.16 
   6  10   3    0.19    0.15 
   6  10   3    0.20    0.18 
   6  10   3    0.12    0.14 
  -7 -10  -3   -0.21    0.21 
  -7 -10  -3    0.05    0.17 
   7  10   3   -0.02    0.17 
   7  10   3    0.03    0.17 
   3 -11  -3    1.67    0.17 
   3 -11  -3    1.78    0.17 
   2 -11  -3    5.12    0.22 
   2 -11  -3    5.05    0.26 
   1 -11  -3   20.82    0.55 
   1 -11  -3   20.70    0.53 
   1 -11  -3   20.50    0.53 
   0 -11  -3    9.42    0.32 
   0 -11  -3    9.47    0.33 
   0 -11  -3    9.74    0.33 
   0  11   3    9.46    0.35 
  -1 -11  -3    1.12    0.15 
  -1 -11  -3    1.10    0.13 
  -1 -11  -3    1.22    0.15 
   1  11   3    1.40    0.14 
   1  11   3    1.27    0.16 
  -2 -11  -3    2.45    0.20 
  -2 -11  -3    2.81    0.22 
  -2 -11  -3    2.83    0.24 
   2  11   3    2.77    0.15 
   2  11   3    2.44    0.25 
   2  11   3    2.55    0.19 
  -3 -11  -3    0.34    0.14 
  -3 -11  -3    0.29    0.11 
  -3 -11  -3    0.28    0.11 
   3  11   3    0.32    0.15 
   3  11   3    0.35    0.11 
   3  11   3    0.26    0.12 
   3  11   3    0.37    0.10 
  -4 -11  -3    1.82    0.18 
  -4 -11  -3    1.85    0.21 
  -4 -11  -3    1.84    0.21 
  -4 -11  -3    1.48    0.19 
   4  11   3    1.58    0.20 
   4  11   3    1.52    0.18 
   4  11   3    1.63    0.16 
  -5 -11  -3    1.29    0.20 
  -5 -11  -3    1.53    0.22 
  -5 -11  -3    1.32    0.16 
  -5 -11  -3    1.49    0.18 
   5  11   3    1.61    0.22 
   5  11   3    1.45    0.18 
   5  11   3    1.79    0.22 
  -6 -11  -3    5.28    0.40 
  -6 -11  -3    4.46    0.32 
   6  11   3    5.43    0.45 
   6  11   3    5.00    0.38 
   6  11   3    5.47    0.36 
  -7 -11  -3    0.23    0.20 
   7  11   3   -0.29    0.19 
   7  11   3   -0.14    0.20 
   2 -12  -3    1.93    0.19 
   2 -12  -3    1.56    0.17 
   1 -12  -3   14.77    0.44 
   1 -12  -3   15.79    0.48 
   0 -12  -3    1.87    0.19 
   0 -12  -3    2.01    0.22 
   0 -12  -3    2.33    0.26 
  -1 -12  -3   15.47    0.48 
  -1 -12  -3   15.76    0.47 
  -1 -12  -3   15.03    0.47 
   1  12   3   15.36    0.50 
  -2 -12  -3    3.40    0.25 
  -2 -12  -3    3.23    0.23 
   2  12   3    2.85    0.30 
  -3 -12  -3    5.38    0.35 
  -3 -12  -3    5.33    0.28 
  -3 -12  -3    5.55    0.32 
   3  12   3    5.09    0.24 
   3  12   3    5.41    0.36 
  -4 -12  -3   13.97    0.51 
  -4 -12  -3   13.40    0.50 
  -4 -12  -3   14.24    0.47 
   4  12   3   13.77    0.43 
  -5 -12  -3    9.01    0.45 
  -5 -12  -3    8.84    0.39 
  -5 -12  -3    9.13    0.52 
   5  12   3    9.08    0.45 
   5  12   3    8.35    0.50 
   5  12   3    9.04    0.41 
  -6 -12  -3    0.66    0.26 
  -6 -12  -3    0.80    0.20 
   6  12   3    0.54    0.25 
   6  12   3    0.86    0.22 
   1 -13  -3    4.49    0.32 
   0 -13  -3    0.43    0.12 
   0 -13  -3    0.30    0.15 
  -1 -13  -3    0.14    0.14 
  -1 -13  -3    0.12    0.14 
  -2 -13  -3    1.10    0.19 
  -2 -13  -3    1.13    0.15 
   2  13   3    0.89    0.26 
  -3 -13  -3    0.86    0.15 
  -3 -13  -3    0.99    0.20 
   3  13   3    0.65    0.23 
  -4 -13  -3    9.10    0.46 
  -4 -13  -3    9.14    0.40 
   4  13   3    8.71    0.50 
   3  10  -4    0.94    0.26 
  -3 -10   4    1.15    0.22 
  -3 -10   4    0.96    0.27 
   2  10  -4   19.20    0.69 
  -2 -10   4   19.94    0.67 
  -2 -10   4   20.25    0.62 
   1  10  -4   -0.08    0.22 
   1  10  -4    0.20    0.20 
  -1 -10   4    0.04    0.14 
  -1 -10   4    0.14    0.19 
  -1 -10   4   -0.14    0.22 
   0  10  -4    6.33    0.45 
   0  10  -4    6.99    0.42 
   0 -10   4    7.07    0.35 
   0 -10   4    7.57    0.43 
   1 -10   4    0.52    0.19 
   1 -10   4    0.19    0.13 
  -5  -9   4    5.17    0.43 
   4   9  -4    1.38    0.26 
  -4  -9   4    1.37    0.22 
  -4  -9   4    1.67    0.29 
   3   9  -4    7.49    0.41 
   3   9  -4    7.25    0.40 
  -3  -9   4    7.31    0.38 
   2   9  -4    0.99    0.20 
   2   9  -4    0.72    0.19 
   2   9  -4    1.03    0.18 
  -2  -9   4    0.92    0.18 
  -2  -9   4    0.87    0.20 
  -2  -9   4    0.94    0.17 
   1   9  -4   15.98    0.49 
   1   9  -4   16.42    0.50 
   1   9  -4   15.75    0.58 
  -1  -9   4   15.66    0.54 
  -1  -9   4   15.91    0.51 
  -1  -9   4   15.96    0.51 
   0   9  -4    3.54    0.34 
   0  -9   4    3.81    0.25 
   0  -9   4    3.72    0.31 
   0  -9   4    3.85    0.32 
  -1   9  -4    0.95    0.22 
   1  -9   4    0.60    0.13 
   1  -9   4    0.42    0.18 
   1  -9   4    0.80    0.17 
  -2   9  -4    0.58    0.22 
   2  -9   4    0.84    0.17 
   2  -9   4    0.84    0.15 
   3  -9   4    0.03    0.14 
   3  -9   4    0.22    0.14 
   6   8  -4    1.09    0.26 
   6   8  -4    1.80    0.24 
  -6  -8   4    1.61    0.23 
   5   8  -4    4.73    0.34 
  -5  -8   4    4.32    0.44 
  -5  -8   4    4.51    0.36 
   4   8  -4    1.57    0.20 
   4   8  -4    2.19    0.23 
  -4  -8   4    1.78    0.20 
  -4  -8   4    2.03    0.26 
   3   8  -4    1.48    0.19 
   3   8  -4    1.21    0.20 
  -3  -8   4    1.50    0.17 
  -3  -8   4    1.13    0.19 
  -3  -8   4    1.29    0.18 
  -3  -8   4    1.01    0.14 
   2   8  -4   20.00    0.54 
   2   8  -4   18.63    0.57 
  -2  -8   4   19.01    0.55 
  -2  -8   4   19.98    0.53 
  -2  -8   4   18.76    0.58 
  -2  -8   4   18.12    0.53 
   1   8  -4    2.71    0.24 
   1   8  -4    3.30    0.28 
   1   8  -4    3.30    0.24 
  -1  -8   4    3.64    0.24 
  -1  -8   4    3.91    0.26 
   0   8  -4   30.98    0.74 
   0   8  -4   30.76    0.74 
   0   8  -4   31.18    0.79 
   0  -8   4   30.24    0.77 
   0  -8   4   29.36    0.75 
   0  -8   4   31.27    0.75 
  -1   8  -4    6.98    0.35 
  -1   8  -4    6.74    0.32 
  -1   8  -4    7.41    0.29 
   1  -8   4    6.82    0.32 
   1  -8   4    7.03    0.30 
   1  -8   4    7.04    0.32 
  -2   8  -4   19.13    0.58 
   2  -8   4   19.51    0.54 
   2  -8   4   19.61    0.56 
   2  -8   4   19.86    0.55 
  -4   8  -4    6.14    0.45 
   4  -8   4    6.04    0.29 
   6   7  -4   17.89    0.63 
   6   7  -4   17.54    0.55 
  -6  -7   4   16.79    0.53 
  -6  -7   4   17.73    0.52 
   5   7  -4    5.47    0.33 
   5   7  -4    4.30    0.29 
  -5  -7   4    5.00    0.38 
  -5  -7   4    4.49    0.31 
  -5  -7   4    4.84    0.28 
   4   7  -4   11.41    0.40 
   4   7  -4   11.00    0.41 
  -4  -7   4   11.45    0.44 
  -4  -7   4   11.32    0.40 
  -4  -7   4   10.94    0.36 
   3   7  -4   13.33    0.45 
  -3  -7   4   13.96    0.46 
  -3  -7   4   13.67    0.44 
  -3  -7   4   14.49    0.41 
   2   7  -4   22.74    0.62 
   2   7  -4   23.51    0.58 
  -2  -7   4   22.91    0.61 
  -2  -7   4   23.49    0.58 
  -2  -7   4   22.82    0.62 
   1   7  -4   10.11    0.33 
   1   7  -4    9.50    0.33 
   1   7  -4    9.37    0.36 
  -1  -7   4    9.25    0.32 
  -1  -7   4    9.34    0.35 
  -1  -7   4    9.52    0.34 
   0   7  -4    9.69    0.36 
   0   7  -4    9.26    0.32 
   0   7  -4    8.83    0.31 
   0  -7   4    9.14    0.34 
   0  -7   4    9.34    0.33 
   0  -7   4    9.17    0.32 
  -1   7  -4   13.08    0.40 
  -1   7  -4   13.63    0.39 
  -1   7  -4   13.85    0.43 
   1  -7   4   13.56    0.41 
   1  -7   4   13.44    0.40 
   1  -7   4   12.95    0.39 
  -2   7  -4   18.07    0.52 
  -2   7  -4   18.79    0.52 
  -2   7  -4   18.13    0.49 
   2  -7   4   18.10    0.50 
   2  -7   4   18.78    0.51 
   2  -7   4   18.56    0.51 
  -3   7  -4   11.21    0.42 
  -3   7  -4   11.46    0.41 
   3  -7   4   11.37    0.37 
   3  -7   4   11.08    0.38 
   3  -7   4   11.56    0.40 
  -4   7  -4   -0.11    0.13 
  -4   7  -4   -0.03    0.18 
   4  -7   4    0.18    0.11 
   5  -7   4    9.91    0.35 
   7   6  -4    1.90    0.19 
   7   6  -4    1.96    0.24 
   6   6  -4    5.55    0.29 
   6   6  -4    5.81    0.37 
  -6  -6   4    5.65    0.30 
  -6  -6   4    5.19    0.26 
   5   6  -4    0.08    0.10 
   5   6  -4    0.30    0.14 
   5   6  -4    0.11    0.11 
  -5  -6   4    0.14    0.12 
  -5  -6   4    0.00    0.10 
  -5  -6   4   -0.01    0.15 
   4   6  -4    5.64    0.26 
   4   6  -4    5.48    0.27 
  -4  -6   4    5.20    0.23 
  -4  -6   4    4.60    0.26 
  -4  -6   4    5.20    0.30 
  -4  -6   4    5.17    0.24 
   3   6  -4    0.14    0.11 
  -3  -6   4    0.31    0.12 
  -3  -6   4    0.26    0.09 
  -3  -6   4    0.14    0.11 
  -3  -6   4    0.42    0.09 
   2   6  -4   18.57    0.47 
   2   6  -4   18.27    0.50 
  -2  -6   4   18.18    0.46 
  -2  -6   4   18.07    0.50 
  -2  -6   4   17.50    0.49 
  -2  -6   4   17.38    0.47 
   1   6  -4    9.00    0.30 
   1   6  -4    8.90    0.32 
   1   6  -4    9.86    0.30 
  -1  -6   4    9.14    0.31 
  -1  -6   4    8.99    0.32 
  -1  -6   4    8.96    0.29 
  -1  -6   4    9.01    0.29 
   0   6  -4   25.18    0.63 
   0   6  -4   25.74    0.60 
   0   6  -4   25.92    0.61 
   0  -6   4   25.79    0.60 
   0  -6   4   24.74    0.62 
  -1   6  -4   30.46    0.69 
  -1   6  -4   28.88    0.70 
  -1   6  -4   30.59    0.71 
   1  -6   4   30.83    0.71 
   1  -6   4   29.80    0.71 
   1  -6   4   30.02    0.70 
  -2   6  -4    7.88    0.30 
  -2   6  -4    7.51    0.30 
  -2   6  -4    7.62    0.27 
   2  -6   4    7.84    0.28 
   2  -6   4    7.91    0.29 
   2  -6   4    7.84    0.28 
  -3   6  -4   19.86    0.53 
  -3   6  -4   19.80    0.55 
  -3   6  -4   20.20    0.52 
   3  -6   4   20.66    0.54 
   3  -6   4   20.18    0.52 
   3  -6   4   20.24    0.53 
  -4   6  -4    0.28    0.14 
   4  -6   4    0.29    0.10 
   4  -6   4    0.24    0.14 
   4  -6   4    0.36    0.12 
   4  -6   4    0.33    0.12 
  -5   6  -4   26.92    0.74 
   5  -6   4   25.41    0.66 
   5  -6   4   25.53    0.63 
   5  -6   4   24.80    0.65 
   6  -6   4    0.29    0.17 
   6  -6   4    0.54    0.12 
   7   5  -4    8.71    0.34 
   7   5  -4    8.69    0.44 
   6   5  -4    6.58    0.29 
   6   5  -4    6.75    0.31 
   6   5  -4    6.49    0.29 
   6   5  -4    6.35    0.36 
  -6  -5   4    6.58    0.29 
  -6  -5   4    6.06    0.21 
   5   5  -4    2.43    0.22 
   5   5  -4    2.04    0.17 
   5   5  -4    2.11    0.19 
  -5  -5   4    2.07    0.15 
  -5  -5   4    2.44    0.19 
  -5  -5   4    2.16    0.19 
  -5  -5   4    2.64    0.25 
   4   5  -4   41.15    0.92 
   4   5  -4   39.50    0.90 
   4   5  -4   41.52    0.89 
  -4  -5   4   39.83    0.90 
  -4  -5   4   40.92    0.92 
  -4  -5   4   41.89    0.88 
  -4  -5   4   39.49    0.90 
   3   5  -4    0.18    0.09 
   3   5  -4    0.16    0.09 
   3   5  -4    0.15    0.09 
  -3  -5   4    0.06    0.07 
  -3  -5   4    0.15    0.10 
  -3  -5   4    0.09    0.09 
  -3  -5   4    0.10    0.07 
   2   5  -4    9.22    0.31 
   2   5  -4    9.08    0.28 
   2   5  -4    9.14    0.31 
  -2  -5   4    8.77    0.30 
  -2  -5   4    9.07    0.31 
  -2  -5   4    9.44    0.28 
   1   5  -4    0.19    0.09 
   1   5  -4    0.21    0.08 
   1   5  -4    0.22    0.09 
  -1  -5   4    0.32    0.10 
  -1  -5   4    0.15    0.07 
  -1  -5   4    0.18    0.06 
  -1  -5   4    0.11    0.08 
   0   5  -4   14.60    0.40 
   0   5  -4   15.02    0.39 
   0  -5   4   14.43    0.39 
   0  -5   4   14.21    0.38 
   0  -5   4   14.04    0.39 
   0  -5   4   14.77    0.39 
  -1   5  -4    9.25    0.29 
  -1   5  -4    9.02    0.30 
  -1   5  -4    9.14    0.28 
   1  -5   4    9.59    0.29 
   1  -5   4    9.33    0.29 
   1  -5   4    9.23    0.29 
  -2   5  -4    8.73    0.27 
  -2   5  -4    8.34    0.29 
  -2   5  -4    8.32    0.29 
   2  -5   4    8.18    0.28 
   2  -5   4    8.15    0.27 
   2  -5   4    8.02    0.28 
  -3   5  -4    7.06    0.26 
  -3   5  -4    6.79    0.27 
  -3   5  -4    7.03    0.27 
   3  -5   4    7.08    0.25 
   3  -5   4    6.91    0.25 
   3  -5   4    6.90    0.27 
   3  -5   4    6.70    0.25 
  -4   5  -4    1.44    0.16 
  -4   5  -4    1.44    0.15 
  -4   5  -4    1.32    0.15 
   4  -5   4    1.45    0.17 
   4  -5   4    1.49    0.16 
   4  -5   4    1.25    0.15 
  -5   5  -4    7.73    0.32 
   5  -5   4    8.63    0.31 
   5  -5   4    8.31    0.31 
   5  -5   4    8.40    0.29 
   5  -5   4    7.93    0.36 
   6  -5   4    8.73    0.35 
   6  -5   4    9.35    0.36 
   6  -5   4    8.32    0.30 
   7   4  -4    0.16    0.10 
   7   4  -4    0.22    0.15 
   7   4  -4    0.23    0.15 
   6   4  -4    4.77    0.25 
   6   4  -4    4.51    0.24 
   6   4  -4    4.98    0.24 
   6   4  -4    4.76    0.32 
  -6  -4   4    4.19    0.24 
  -6  -4   4    4.68    0.27 
   5   4  -4    0.00    0.09 
   5   4  -4    0.06    0.08 
   5   4  -4    0.15    0.08 
   5   4  -4    0.12    0.10 
  -5  -4   4    0.02    0.08 
  -5  -4   4   -0.02    0.07 
  -5  -4   4    0.07    0.08 
   4   4  -4   10.32    0.29 
   4   4  -4   10.22    0.30 
   4   4  -4    9.57    0.31 
  -4  -4   4    9.74    0.30 
  -4  -4   4    9.77    0.32 
  -4  -4   4    9.51    0.28 
  -4  -4   4    9.34    0.29 
   3   4  -4   54.41    1.12 
   3   4  -4   53.12    1.16 
   3   4  -4   54.86    1.15 
  -3  -4   4   54.24    1.14 
  -3  -4   4   53.00    1.15 
  -3  -4   4   54.13    1.15 
  -3  -4   4   54.94    1.12 
   2   4  -4   14.81    0.40 
   2   4  -4   15.07    0.38 
   2   4  -4   15.21    0.40 
  -2  -4   4   14.97    0.40 
  -2  -4   4   15.29    0.39 
  -2  -4   4   14.37    0.39 
  -2  -4   4   15.54    0.38 
   1   4  -4   15.57    0.41 
   1   4  -4   15.76    0.38 
   1   4  -4   15.66    0.40 
  -1  -4   4   15.90    0.40 
  -1  -4   4   15.22    0.40 
  -1  -4   4   15.32    0.38 
   0   4  -4    0.97    0.11 
   0   4  -4    0.70    0.09 
   0   4  -4    1.01    0.11 
   0  -4   4    0.82    0.10 
   0  -4   4    0.96    0.10 
   0  -4   4    0.81    0.09 
   0  -4   4    0.69    0.09 
  -1   4  -4   82.89    1.67 
  -1   4  -4   82.62    1.72 
  -1   4  -4   82.53    1.67 
   1  -4   4   82.16    1.70 
   1  -4   4   83.82    1.67 
   1  -4   4   82.18    1.67 
  -2   4  -4    9.22    0.29 
  -2   4  -4    9.54    0.29 
  -2   4  -4    9.44    0.28 
   2  -4   4    9.17    0.28 
   2  -4   4    9.43    0.28 
   2  -4   4    8.95    0.28 
  -3   4  -4   72.89    1.53 
  -3   4  -4   75.34    1.54 
  -3   4  -4   75.33    1.59 
   3  -4   4   75.26    1.53 
   3  -4   4   76.70    1.56 
   3  -4   4   72.46    1.56 
   3  -4   4   76.72    1.54 
  -4   4  -4    0.21    0.10 
  -4   4  -4    0.09    0.10 
  -4   4  -4    0.05    0.08 
   4  -4   4    0.13    0.10 
   4  -4   4    0.08    0.08 
   4  -4   4    0.15    0.08 
   4  -4   4    0.18    0.08 
  -5   4  -4   39.53    0.89 
   5  -4   4   39.19    0.92 
   5  -4   4   41.48    0.91 
   5  -4   4   41.46    0.90 
   5  -4   4   39.82    0.89 
  -6   4  -4    0.18    0.12 
  -6   4  -4    0.47    0.18 
   6  -4   4    0.30    0.12 
   6  -4   4    0.30    0.10 
   6  -4   4    0.26    0.14 
   6  -4   4    0.37    0.12 
   6  -4   4    0.48    0.15 
   7  -4   4    5.44    0.24 
   7  -4   4    5.93    0.34 
   8   3  -4   13.74    0.41 
   8   3  -4   14.82    0.58 
   7   3  -4    0.02    0.14 
   7   3  -4   -0.07    0.13 
   7   3  -4    0.02    0.13 
   7   3  -4   -0.04    0.10 
  -7  -3   4    0.04    0.12 
   6   3  -4   42.14    1.00 
   6   3  -4   39.84    0.88 
   6   3  -4   40.74    0.89 
   6   3  -4   41.35    0.88 
   6   3  -4   39.72    0.89 
  -6  -3   4   39.05    0.88 
  -6  -3   4   39.26    0.84 
  -6  -3   4   38.10    0.90 
   5   3  -4    0.14    0.09 
   5   3  -4    0.18    0.08 
   5   3  -4    0.17    0.08 
  -5  -3   4    0.13    0.09 
   4   3  -4   39.36    0.87 
   4   3  -4   40.50    0.83 
   4   3  -4   38.25    0.85 
   4   3  -4   39.81    0.85 
  -4  -3   4   40.00    0.83 
  -4  -3   4   38.41    0.87 
  -4  -3   4   39.38    0.83 
   3   3  -4    4.90    0.18 
   3   3  -4    4.47    0.17 
   3   3  -4    4.93    0.19 
   3   3  -4    4.69    0.19 
  -3  -3   4    4.59    0.18 
  -3  -3   4    4.78    0.20 
  -3  -3   4    4.54    0.16 
  -3  -3   4    4.26    0.17 
   2   3  -4   37.96    0.80 
   2   3  -4   37.83    0.82 
   2   3  -4   38.03    0.84 
  -2  -3   4   37.90    0.81 
  -2  -3   4   39.08    0.83 
  -2  -3   4   37.36    0.82 
   1   3  -4   33.39    0.74 
   1   3  -4   33.79    0.72 
   1   3  -4   33.26    0.70 
  -1  -3   4   33.75    0.70 
  -1  -3   4   31.63    0.72 
  -1  -3   4   32.91    0.73 
  -1  -3   4   32.86    0.72 
   0   3  -4   21.23    0.49 
   0   3  -4   20.75    0.49 
   0   3  -4   20.50    0.50 
   0   3  -4   20.65    0.47 
   0  -3   4   20.42    0.48 
   0  -3   4   20.94    0.49 
   0  -3   4   21.65    0.48 
  -1   3  -4   44.59    0.96 
  -1   3  -4   43.76    0.93 
  -1   3  -4   42.87    0.95 
  -1   3  -4   46.05    0.93 
   1  -3   4   43.46    0.92 
   1  -3   4   43.82    0.92 
   1  -3   4   44.67    0.94 
  -2   3  -4   24.21    0.57 
  -2   3  -4   23.39    0.54 
  -2   3  -4   24.15    0.57 
   2  -3   4   23.48    0.54 
   2  -3   4   24.33    0.55 
   2  -3   4   24.86    0.55 
   2  -3   4   23.57    0.55 
  -3   3  -4   16.93    0.42 
  -3   3  -4   16.75    0.44 
  -3   3  -4   16.33    0.41 
   3  -3   4   16.48    0.41 
   3  -3   4   17.00    0.41 
   3  -3   4   16.73    0.43 
  -4   3  -4    6.77    0.24 
  -4   3  -4    7.14    0.27 
  -4   3  -4    6.80    0.24 
   4  -3   4    6.82    0.26 
   4  -3   4    6.84    0.23 
   4  -3   4    6.70    0.24 
   4  -3   4    7.03    0.24 
  -5   3  -4    3.85    0.24 
  -5   3  -4    4.08    0.21 
   5  -3   4    4.12    0.19 
   5  -3   4    4.01    0.18 
   5  -3   4    4.21    0.21 
   5  -3   4    3.98    0.22 
   5  -3   4    4.05    0.23 
  -6   3  -4   34.83    0.85 
  -6   3  -4   38.52    0.94 
   6  -3   4   38.52    0.88 
   6  -3   4   37.51    0.87 
   6  -3   4   38.11    0.89 
   6  -3   4   37.50    0.83 
   6  -3   4   37.93    0.83 
   7  -3   4    0.80    0.16 
   7  -3   4    0.81    0.20 
   7  -3   4    1.37    0.16 
   8   2  -4    1.30    0.22 
   8   2  -4    1.28    0.14 
   7   2  -4    1.29    0.15 
   7   2  -4    1.26    0.15 
   7   2  -4    1.36    0.14 
   7   2  -4    1.20    0.19 
  -7  -2   4    1.35    0.14 
   6   2  -4    7.51    0.33 
   6   2  -4    7.59    0.25 
   6   2  -4    7.48    0.25 
   6   2  -4    7.50    0.26 
   6   2  -4    7.56    0.26 
  -6  -2   4    7.68    0.26 
  -6  -2   4    7.52    0.26 
  -6  -2   4    7.70    0.22 
   5   2  -4    4.76    0.19 
   5   2  -4    4.89    0.19 
   5   2  -4    4.77    0.20 
  -5  -2   4    4.77    0.20 
  -5  -2   4    4.60    0.16 
  -5  -2   4    4.88    0.20 
   4   2  -4   13.40    0.33 
   4   2  -4   13.65    0.35 
   4   2  -4   13.34    0.35 
   4   2  -4   13.36    0.33 
  -4  -2   4   13.14    0.34 
  -4  -2   4   13.30    0.32 
  -4  -2   4   13.10    0.35 
   3   2  -4   99.34    2.07 
   3   2  -4  103.20    2.03 
   3   2  -4  103.22    2.02 
   3   2  -4  102.90    2.08 
  -3  -2   4  105.27    2.01 
  -3  -2   4  103.22    2.08 
  -3  -2   4  102.19    2.06 
   2   2  -4   37.07    0.78 
   2   2  -4   37.78    0.81 
   2   2  -4   37.39    0.77 
  -2  -2   4   36.67    0.79 
  -2  -2   4   37.92    0.77 
  -2  -2   4   37.42    0.80 
  -2  -2   4   36.43    0.78 
   1   2  -4   69.36    1.42 
   1   2  -4   70.75    1.41 
   1   2  -4   71.03    1.46 
  -1  -2   4   71.55    1.45 
  -1  -2   4   69.93    1.41 
  -1  -2   4   69.65    1.45 
  -1  -2   4   72.50    1.41 
   0   2  -4   32.87    0.71 
   0   2  -4   32.84    0.71 
   0   2  -4   33.18    0.68 
   0   2  -4   31.31    0.69 
   0  -2   4   32.47    0.70 
   0  -2   4   33.09    0.68 
   0  -2   4   30.26    0.68 
  -1   2  -4  134.42    2.71 
  -1   2  -4  133.77    2.64 
  -1   2  -4  135.95    2.64 
  -1   2  -4  131.32    2.73 
   1  -2   4  137.97    2.70 
   1  -2   4  138.12    2.64 
   1  -2   4  133.26    2.64 
  -2   2  -4   81.86    1.62 
  -2   2  -4   81.73    1.68 
  -2   2  -4   81.00    1.66 
  -2   2  -4   80.11    1.61 
   2  -2   4   76.79    1.66 
   2  -2   4   79.97    1.61 
   2  -2   4   82.54    1.62 
   2  -2   4   83.39    1.65 
  -3   2  -4   18.75    0.48 
  -3   2  -4   18.85    0.45 
  -3   2  -4   18.78    0.45 
  -3   2  -4   18.91    0.45 
   3  -2   4   18.76    0.46 
   3  -2   4   19.52    0.44 
   3  -2   4   19.16    0.45 
   3  -2   4   18.92    0.45 
  -4   2  -4   22.25    0.56 
  -4   2  -4   22.52    0.52 
  -4   2  -4   22.16    0.51 
   4  -2   4   21.95    0.53 
   4  -2   4   21.40    0.53 
   4  -2   4   22.16    0.51 
   4  -2   4   21.69    0.53 
   4  -2   4   22.01    0.51 
  -5   2  -4   42.14    0.93 
  -5   2  -4   44.32    1.01 
   5  -2   4   44.52    0.93 
   5  -2   4   43.58    0.94 
   5  -2   4   44.05    0.96 
   5  -2   4   44.14    0.98 
   5  -2   4   44.63    0.98 
   6  -2   4   18.15    0.49 
   6  -2   4   17.31    0.43 
   6  -2   4   17.63    0.49 
   6  -2   4   18.02    0.49 
   6  -2   4   17.43    0.45 
   7  -2   4    4.88    0.29 
   7  -2   4    3.62    0.29 
   7  -2   4    4.54    0.21 
   7  -2   4    4.48    0.28 
   7  -2   4    4.26    0.20 
   8  -2   4   10.19    0.43 
   8  -2   4   10.03    0.34 
   8   1  -4   22.14    0.70 
   7   1  -4   18.98    0.45 
   7   1  -4   18.27    0.48 
   7   1  -4   18.66    0.44 
   7   1  -4   18.68    0.44 
   7   1  -4   18.85    0.59 
   6   1  -4    2.24    0.15 
   6   1  -4    2.19    0.16 
   6   1  -4    2.23    0.14 
   6   1  -4    2.50    0.24 
  -6  -1   4    2.41    0.15 
   5   1  -4    9.32    0.25 
   5   1  -4    8.83    0.26 
   5   1  -4    9.12    0.25 
   5   1  -4    8.97    0.33 
   5   1  -4    8.91    0.25 
  -5  -1   4    8.82    0.25 
  -5  -1   4    8.84    0.26 
  -5  -1   4    8.71    0.23 
   4   1  -4   71.26    1.48 
   4   1  -4   72.21    1.44 
   4   1  -4   72.10    1.47 
   4   1  -4   72.05    1.42 
  -4  -1   4   70.98    1.43 
  -4  -1   4   72.97    1.42 
  -4  -1   4   73.17    1.48 
   3   1  -4   82.80    1.64 
   3   1  -4   82.70    1.67 
   3   1  -4   83.04    1.68 
   3   1  -4   81.75    1.62 
  -3  -1   4   84.11    1.68 
  -3  -1   4   81.57    1.63 
   2   1  -4    0.32    0.06 
   2   1  -4    0.49    0.05 
   2   1  -4    0.32    0.05 
  -2  -1   4    0.40    0.04 
  -2  -1   4    0.39    0.05 
  -2  -1   4    0.34    0.05 
  -2  -1   4    0.42    0.06 
   1   1  -4   59.91    1.24 
   1   1  -4   62.08    1.28 
   1   1  -4   62.81    1.23 
  -1  -1   4   65.08    1.28 
  -1  -1   4   60.13    1.26 
  -1  -1   4   60.63    1.24 
  -1  -1   4   64.13    1.23 
   0   1  -4   57.46    1.15 
   0   1  -4   57.65    1.19 
   0   1  -4   57.48    1.20 
   0   1  -4   57.03    1.16 
   0  -1   4   56.03    1.15 
   0  -1   4   58.35    1.16 
   0  -1   4   59.25    1.19 
  -1   1  -4   26.61    0.56 
  -1   1  -4   26.22    0.58 
  -1   1  -4   25.87    0.58 
   1  -1   4   25.13    0.57 
   1  -1   4   27.25    0.57 
   1  -1   4   25.51    0.56 
  -2   1  -4   23.09    0.51 
  -2   1  -4   22.55    0.53 
  -2   1  -4   22.29    0.51 
  -2   1  -4   23.35    0.51 
   2  -1   4   22.84    0.51 
   2  -1   4   22.36    0.51 
   2  -1   4   23.23    0.51 
   2  -1   4   23.30    0.51 
  -3   1  -4   20.81    0.48 
  -3   1  -4   21.69    0.48 
  -3   1  -4   21.25    0.51 
  -3   1  -4   20.87    0.48 
   3  -1   4   21.07    0.49 
   3  -1   4   20.81    0.49 
   3  -1   4   21.10    0.48 
   3  -1   4   21.14    0.47 
   3  -1   4   21.23    0.49 
  -4   1  -4   27.75    0.66 
  -4   1  -4   27.65    0.62 
  -4   1  -4   27.93    0.62 
   4  -1   4   27.23    0.61 
   4  -1   4   27.90    0.60 
   4  -1   4   27.65    0.62 
   4  -1   4   27.57    0.64 
   4  -1   4   27.45    0.63 
  -5   1  -4    4.28    0.23 
  -5   1  -4    4.36    0.18 
   5  -1   4    4.26    0.20 
   5  -1   4    4.23    0.16 
   5  -1   4    4.41    0.20 
   5  -1   4    4.40    0.21 
   5  -1   4    4.12    0.18 
   6  -1   4   14.64    0.40 
   6  -1   4   15.63    0.43 
   6  -1   4   15.35    0.44 
   6  -1   4   15.21    0.43 
   6  -1   4   14.82    0.36 
  -7   1  -4    5.43    0.27 
   7  -1   4    5.58    0.23 
   7  -1   4    6.08    0.30 
   7  -1   4    6.07    0.29 
   7  -1   4    5.58    0.30 
   8  -1   4    5.39    0.24 
   8  -1   4    5.98    0.34 
   8   0  -4    4.44    0.37 
   7   0  -4    0.66    0.16 
   7   0  -4    0.63    0.10 
   6   0  -4    1.79    0.11 
   6   0  -4    1.87    0.14 
   6   0  -4    1.67    0.15 
   6   0  -4    1.83    0.23 
   5   0  -4   11.94    0.32 
   5   0  -4   12.61    0.29 
   5   0  -4   12.24    0.30 
   5   0  -4   11.97    0.28 
   5   0  -4   12.31    0.39 
   4   0  -4    2.76    0.11 
   4   0  -4    2.39    0.11 
   4   0  -4    2.66    0.12 
   4   0  -4    2.86    0.14 
  -4   0   4    2.72    0.13 
  -4   0   4    2.67    0.11 
  -4   0   4    2.70    0.10 
   3   0  -4   37.86    0.81 
   3   0  -4   39.87    0.84 
   3   0  -4   39.41    0.80 
   3   0  -4   39.00    0.79 
  -3   0   4   40.36    0.84 
  -3   0   4   40.39    0.79 
  -3   0   4   39.64    0.80 
   2   0  -4    2.26    0.09 
   2   0  -4    2.21    0.11 
   2   0  -4    2.18    0.10 
  -2   0   4    2.26    0.09 
  -2   0   4    2.31    0.11 
  -2   0   4    2.20    0.09 
   1   0  -4   49.79    1.02 
   1   0  -4   49.39    0.98 
   1   0  -4   46.93    0.98 
  -1   0   4   51.51    1.00 
  -1   0   4   46.28    0.99 
  -1   0   4   49.57    0.98 
  -1   0   4   50.09    1.02 
   0   0  -4  136.79    2.63 
   0   0  -4  134.76    2.72 
   0   0  -4  135.78    2.62 
   0   0  -4  136.22    2.70 
   0   0   4  138.09    2.74 
   0   0   4  131.64    2.62 
   0   0   4  135.87    2.62 
   0   0   4  134.98    2.69 
  -1   0  -4   26.77    0.59 
  -1   0  -4   27.78    0.61 
  -1   0  -4   27.93    0.60 
  -1   0  -4   28.05    0.59 
   1   0   4   28.94    0.60 
   1   0   4   28.55    0.59 
   1   0   4   28.35    0.60 
   1   0   4   26.41    0.60 
   1   0   4   27.62    0.59 
  -2   0  -4   30.85    0.66 
  -2   0  -4   31.35    0.66 
  -2   0  -4   31.75    0.67 
  -2   0  -4   31.40    0.68 
   2   0   4   30.14    0.66 
   2   0   4   31.09    0.67 
   2   0   4   30.99    0.65 
   2   0   4   31.95    0.66 
  -3   0  -4   43.72    0.89 
  -3   0  -4   42.27    0.93 
  -3   0  -4   43.29    0.89 
  -3   0  -4   42.46    0.89 
   3   0   4   42.40    0.91 
   3   0   4   43.03    0.89 
   3   0   4   43.22    0.89 
   3   0   4   43.54    0.91 
   3   0   4   40.91    0.88 
  -4   0  -4   21.28    0.49 
  -4   0  -4   21.14    0.47 
  -4   0  -4   21.10    0.53 
  -4   0  -4   21.29    0.49 
   4   0   4   21.62    0.50 
   4   0   4   21.08    0.51 
   4   0   4   20.74    0.48 
   4   0   4   21.79    0.47 
   4   0   4   21.66    0.51 
  -5   0  -4    1.18    0.11 
  -5   0  -4    0.93    0.12 
  -5   0  -4    1.17    0.12 
   5   0   4    0.73    0.09 
   5   0   4    0.88    0.11 
   5   0   4    0.90    0.10 
   5   0   4    1.00    0.10 
   5   0   4    1.15    0.13 
   6   0   4    8.00    0.26 
   6   0   4    8.43    0.29 
   6   0   4    8.26    0.29 
   6   0   4    8.66    0.31 
  -7   0  -4    0.32    0.14 
  -7   0  -4    0.04    0.12 
   7   0   4    0.16    0.12 
   7   0   4    0.15    0.12 
   7   0   4    0.36    0.09 
   7   0   4    0.09    0.11 
   8   0   4    4.43    0.30 
   8   0   4    4.14    0.36 
   8   0   4    3.67    0.21 
   8  -1  -4    1.89    0.24 
   7  -1  -4   18.52    0.45 
   7  -1  -4   18.96    0.46 
   7  -1  -4   19.18    0.58 
   6  -1  -4    1.68    0.13 
   6  -1  -4    1.44    0.17 
   6  -1  -4    1.60    0.15 
   5  -1  -4  223.38    4.38 
   5  -1  -4  221.22    4.49 
   5  -1  -4  219.64    4.36 
   4  -1  -4   16.21    0.36 
   4  -1  -4   17.13    0.40 
   3  -1  -4   64.51    1.27 
   3  -1  -4   66.29    1.27 
   3  -1  -4   64.56    1.33 
   3  -1  -4   63.76    1.30 
  -3   1   4   66.06    1.33 
   2  -1  -4    1.09    0.06 
   2  -1  -4    1.31    0.06 
   2  -1  -4    1.42    0.07 
   2  -1  -4    1.25    0.07 
   2  -1  -4    1.37    0.08 
  -2   1   4    1.20    0.06 
  -2   1   4    1.27    0.06 
  -2   1   4    1.36    0.08 
   1  -1  -4  133.03    2.67 
   1  -1  -4  135.92    2.59 
   1  -1  -4  137.68    2.71 
   1  -1  -4  134.46    2.59 
  -1   1   4  128.66    2.65 
  -1   1   4  129.87    2.59 
  -1   1   4  133.82    2.61 
  -1   1   4  137.44    2.67 
  -1   1   4  139.30    2.68 
   0  -1  -4   90.63    1.80 
   0  -1  -4   91.62    1.80 
   0  -1  -4   90.30    1.75 
   0  -1  -4   85.76    1.82 
   0  -1  -4   89.72    1.75 
   0   1   4   88.05    1.75 
   0   1   4   93.13    1.80 
   0   1   4   89.21    1.75 
   0   1   4   91.41    1.81 
  -1  -1  -4   52.52    1.07 
  -1  -1  -4   53.46    1.06 
  -1  -1  -4   50.93    1.07 
  -1  -1  -4   51.46    1.03 
  -1  -1  -4   51.18    1.04 
   1   1   4   51.59    1.04 
   1   1   4   50.74    1.03 
   1   1   4   53.07    1.07 
   1   1   4   52.54    1.06 
   1   1   4   49.19    1.06 
  -2  -1  -4   61.73    1.25 
  -2  -1  -4   61.38    1.24 
  -2  -1  -4   61.25    1.28 
  -2  -1  -4   63.61    1.27 
  -2  -1  -4   62.28    1.23 
   2   1   4   62.94    1.27 
   2   1   4   59.37    1.27 
   2   1   4   63.26    1.25 
   2   1   4   60.17    1.23 
  -3  -1  -4    1.69    0.10 
  -3  -1  -4    1.75    0.10 
  -3  -1  -4    1.71    0.09 
  -3  -1  -4    1.70    0.12 
   3   1   4    1.55    0.10 
   3   1   4    1.79    0.11 
   3   1   4    1.76    0.10 
   3   1   4    1.61    0.10 
   3   1   4    1.67    0.08 
  -4  -1  -4   18.36    0.41 
  -4  -1  -4   18.57    0.43 
  -4  -1  -4   18.66    0.47 
   4   1   4   18.06    0.43 
   4   1   4   18.41    0.40 
   4   1   4   18.65    0.46 
   4   1   4   18.37    0.45 
   4   1   4   18.37    0.44 
  -5  -1  -4   13.89    0.40 
  -5  -1  -4   13.70    0.35 
  -5  -1  -4   13.44    0.35 
   5   1   4   13.61    0.30 
   5   1   4   13.50    0.38 
   5   1   4   13.61    0.36 
   5   1   4   13.67    0.35 
   5   1   4   13.63    0.37 
  -6  -1  -4   27.85    0.65 
   6   1   4   28.15    0.64 
   6   1   4   27.50    0.68 
   6   1   4   28.32    0.65 
   6   1   4   28.60    0.67 
  -7  -1  -4   37.26    0.91 
   7   1   4   35.59    0.85 
   7   1   4   36.18    0.87 
   7   1   4   37.27    0.83 
   7   1   4   35.50    0.80 
   8   1   4   16.87    0.46 
   8   1   4   18.03    0.54 
   8   1   4   17.55    0.53 
   8  -2  -4    3.10    0.38 
   7  -2  -4    9.16    0.27 
   7  -2  -4    9.39    0.40 
   7  -2  -4    9.05    0.29 
   6  -2  -4    0.36    0.06 
   6  -2  -4    0.27    0.11 
   6  -2  -4    0.37    0.09 
   5  -2  -4    0.92    0.12 
   5  -2  -4    0.98    0.10 
   4  -2  -4    3.46    0.17 
   4  -2  -4    3.39    0.14 
   3  -2  -4   28.59    0.62 
   2  -2  -4   29.49    0.59 
   2  -2  -4   27.24    0.59 
   2  -2  -4   31.01    0.59 
   2  -2  -4   29.85    0.64 
   2  -2  -4   30.14    0.60 
  -2   2   4   30.16    0.64 
   1  -2  -4    4.92    0.12 
   1  -2  -4    4.80    0.15 
   1  -2  -4    4.69    0.12 
   1  -2  -4    4.81    0.13 
  -1   2   4    4.55    0.12 
  -1   2   4    4.67    0.12 
  -1   2   4    4.80    0.15 
   0  -2  -4  217.61    4.66 
   0  -2  -4  226.70    4.58 
   0  -2  -4  239.47    4.68 
   0  -2  -4  235.71    4.53 
   0   2   4  240.25    4.66 
   0   2   4  238.06    4.73 
   0   2   4  229.75    4.54 
  -1  -2  -4   12.64    0.29 
  -1  -2  -4   12.37    0.29 
  -1  -2  -4   12.98    0.30 
  -1  -2  -4   12.60    0.29 
  -1  -2  -4   12.23    0.29 
   1   2   4   12.25    0.29 
   1   2   4   12.77    0.30 
   1   2   4   13.21    0.30 
   1   2   4   12.07    0.29 
   1   2   4   12.76    0.29 
  -2  -2  -4  148.99    2.97 
  -2  -2  -4  148.05    2.86 
  -2  -2  -4  145.37    2.86 
  -2  -2  -4  146.13    2.96 
  -2  -2  -4  148.14    2.98 
   2   2   4  143.82    2.95 
   2   2   4  145.97    2.86 
   2   2   4  146.56    2.86 
   2   2   4  152.20    2.94 
   2   2   4  148.62    2.92 
  -3  -2  -4    0.04    0.05 
  -3  -2  -4    0.04    0.04 
  -3  -2  -4    0.02    0.04 
  -3  -2  -4    0.08    0.05 
  -3  -2  -4    0.06    0.04 
   3   2   4   -0.04    0.04 
   3   2   4    0.07    0.04 
   3   2   4    0.06    0.03 
   3   2   4    0.02    0.05 
   3   2   4   -0.03    0.04 
  -4  -2  -4   89.66    1.78 
  -4  -2  -4   89.82    1.79 
  -4  -2  -4   90.97    1.78 
  -4  -2  -4   90.43    1.83 
   4   2   4   91.14    1.79 
   4   2   4   88.97    1.86 
   4   2   4   87.39    1.78 
   4   2   4   88.49    1.78 
   4   2   4   90.22    1.84 
  -5  -2  -4   18.50    0.45 
  -5  -2  -4   18.44    0.44 
  -5  -2  -4   18.72    0.49 
   5   2   4   17.73    0.47 
   5   2   4   18.26    0.44 
   5   2   4   18.55    0.46 
   5   2   4   18.18    0.45 
  -6  -2  -4   19.31    0.47 
   6   2   4   18.99    0.49 
   6   2   4   19.09    0.48 
   6   2   4   19.14    0.51 
   6   2   4   18.03    0.48 
  -7  -2  -4    3.55    0.21 
   7   2   4    3.63    0.22 
   7   2   4    3.64    0.19 
   7   2   4    3.91    0.24 
   7   2   4    3.99    0.24 
   8   2   4    2.66    0.28 
   8   2   4    2.59    0.18 
   8   2   4    2.55    0.27 
   8   2   4    2.61    0.24 
   9   2   4    1.18    0.19 
   8  -3  -4    0.13    0.22 
   7  -3  -4   28.30    0.65 
   7  -3  -4   28.75    0.76 
   6  -3  -4    3.10    0.18 
   5  -3  -4   42.62    0.91 
   5  -3  -4   42.44    0.96 
   4  -3  -4   28.39    0.62 
   4  -3  -4   27.23    0.65 
   3  -3  -4   36.56    0.79 
   3  -3  -4   36.50    0.78 
   2  -3  -4   32.10    0.69 
   1  -3  -4    6.72    0.19 
   1  -3  -4    6.90    0.16 
   1  -3  -4    6.83    0.16 
   1  -3  -4    6.83    0.16 
  -1   3   4    6.92    0.16 
  -1   3   4    6.82    0.16 
   0  -3  -4   63.30    1.25 
   0  -3  -4   64.45    1.28 
   0  -3  -4   63.64    1.25 
   0  -3  -4   62.84    1.28 
   0  -3  -4   63.87    1.30 
   0   3   4   63.59    1.25 
   0   3   4   63.84    1.27 
  -1  -3  -4  100.16    1.96 
  -1  -3  -4   99.96    2.02 
  -1  -3  -4  101.43    1.96 
  -1  -3  -4   99.48    2.00 
  -1  -3  -4  103.70    2.01 
   1   3   4  100.33    1.96 
   1   3   4  101.04    1.96 
   1   3   4   97.02    2.01 
   1   3   4  100.44    2.01 
  -2  -3  -4  114.28    2.25 
  -2  -3  -4  117.06    2.29 
  -2  -3  -4  113.13    2.32 
  -2  -3  -4  118.22    2.31 
   2   3   4  115.32    2.25 
   2   3   4  113.47    2.31 
   2   3   4  113.45    2.24 
  -3  -3  -4   10.66    0.25 
  -3  -3  -4   10.26    0.27 
  -3  -3  -4   10.11    0.28 
  -3  -3  -4   10.36    0.27 
   3   3   4   10.39    0.28 
   3   3   4   10.43    0.27 
   3   3   4   10.08    0.27 
  -4  -3  -4   12.65    0.29 
  -4  -3  -4   12.48    0.32 
  -4  -3  -4   12.82    0.35 
  -4  -3  -4   12.89    0.33 
  -4  -3  -4   12.25    0.33 
   4   3   4   12.62    0.32 
   4   3   4   12.72    0.33 
   4   3   4   13.16    0.34 
   4   3   4   12.73    0.33 
  -5  -3  -4   86.76    1.81 
  -5  -3  -4   84.46    1.71 
  -5  -3  -4   87.16    1.72 
  -5  -3  -4   84.87    1.75 
   5   3   4   85.39    1.76 
   5   3   4   84.15    1.71 
   5   3   4   83.31    1.72 
   5   3   4   84.66    1.79 
  -6  -3  -4   12.44    0.35 
  -6  -3  -4   12.83    0.36 
   6   3   4   12.72    0.36 
   6   3   4   11.80    0.39 
   6   3   4   12.99    0.37 
  -7  -3  -4   20.59    0.52 
   7   3   4   19.83    0.50 
   7   3   4   20.37    0.57 
   7   3   4   20.35    0.54 
   7   3   4   20.83    0.54 
  -8  -3  -4   -0.09    0.11 
   8   3   4   -0.09    0.14 
   8   3   4    0.24    0.10 
   8   3   4    0.07    0.13 
   8   3   4    0.01    0.13 
   9   3   4   24.96    0.65 
   9   3   4   27.79    0.76 
   7  -4  -4    6.17    0.28 
   7  -4  -4    6.16    0.36 
   6  -4  -4    0.16    0.12 
   6  -4  -4    0.20    0.10 
   5  -4  -4   19.84    0.48 
   5  -4  -4   19.89    0.52 
   4  -4  -4   28.91    0.65 
   4  -4  -4   28.88    0.66 
   3  -4  -4    3.11    0.15 
   3  -4  -4    3.09    0.14 
   2  -4  -4    9.51    0.24 
   2  -4  -4    9.93    0.27 
   1  -4  -4    5.79    0.15 
   1  -4  -4    5.80    0.18 
   1  -4  -4    5.97    0.15 
   1  -4  -4    5.89    0.15 
  -1   4   4    5.91    0.15 
  -1   4   4    5.80    0.15 
   0  -4  -4  113.98    2.20 
   0  -4  -4  114.82    2.26 
   0  -4  -4  111.82    2.25 
   0  -4  -4  114.48    2.27 
   0  -4  -4  108.73    2.19 
   0   4   4  114.69    2.20 
   0   4   4  114.59    2.24 
  -1  -4  -4   11.13    0.27 
  -1  -4  -4   10.98    0.27 
  -1  -4  -4   10.88    0.26 
  -1  -4  -4   10.67    0.25 
  -1  -4  -4   10.66    0.27 
   1   4   4   10.99    0.25 
   1   4   4   11.12    0.27 
   1   4   4   10.76    0.26 
   1   4   4   11.21    0.26 
  -2  -4  -4  231.69    4.39 
  -2  -4  -4  225.93    4.59 
  -2  -4  -4  231.25    4.61 
  -2  -4  -4  222.11    4.49 
  -2  -4  -4  232.32    4.50 
   2   4   4  229.16    4.54 
   2   4   4  224.57    4.59 
   2   4   4  221.11    4.44 
  -3  -4  -4   33.13    0.71 
  -3  -4  -4   32.46    0.72 
  -3  -4  -4   33.65    0.73 
  -3  -4  -4   33.24    0.69 
  -3  -4  -4   31.96    0.70 
   3   4   4   32.85    0.72 
   3   4   4   33.42    0.71 
   3   4   4   33.42    0.72 
   3   4   4   32.59    0.71 
  -4  -4  -4   69.98    1.42 
  -4  -4  -4   70.95    1.45 
  -4  -4  -4   70.30    1.48 
  -4  -4  -4   72.71    1.43 
  -4  -4  -4   70.08    1.41 
   4   4   4   69.68    1.42 
   4   4   4   68.51    1.47 
   4   4   4   68.39    1.42 
  -5  -4  -4   38.08    0.85 
  -5  -4  -4   36.42    0.81 
  -5  -4  -4   37.33    0.81 
  -5  -4  -4   37.31    0.81 
  -5  -4  -4   36.34    0.75 
   5   4   4   37.08    0.81 
   5   4   4   36.14    0.84 
   5   4   4   36.40    0.80 
   5   4   4   36.48    0.82 
  -6  -4  -4   42.87    0.92 
  -6  -4  -4   42.97    0.93 
  -6  -4  -4   42.58    0.98 
  -6  -4  -4   43.09    0.92 
   6   4   4   42.46    0.93 
   6   4   4   39.54    0.99 
   6   4   4   42.26    0.94 
  -7  -4  -4    3.42    0.22 
  -7  -4  -4    3.65    0.20 
   7   4   4    3.44    0.24 
   7   4   4    3.83    0.25 
   7   4   4    3.64    0.22 
   7   4   4    3.62    0.20 
   8   4   4    0.06    0.09 
   8   4   4    0.15    0.15 
   8   4   4   -0.08    0.12 
   9   4   4    4.26    0.23 
   9   4   4    3.85    0.34 
   7  -5  -4   10.19    0.36 
   7  -5  -4   11.03    0.44 
   6  -5  -4   29.60    0.73 
   6  -5  -4   29.06    0.68 
   5  -5  -4   21.93    0.54 
   5  -5  -4   21.86    0.55 
   4  -5  -4   32.32    0.72 
   4  -5  -4   32.04    0.73 
   3  -5  -4   31.90    0.70 
   3  -5  -4   33.10    0.73 
   2  -5  -4   84.04    1.71 
   2  -5  -4   87.12    1.65 
   2  -5  -4   86.44    1.65 
   2  -5  -4   83.00    1.69 
   1  -5  -4    5.49    0.15 
   1  -5  -4    5.52    0.15 
   1  -5  -4    5.40    0.15 
  -1   5   4    5.53    0.15 
  -1   5   4    5.69    0.15 
   0  -5  -4   62.31    1.25 
   0  -5  -4   59.51    1.22 
   0  -5  -4   60.13    1.22 
   0   5   4   62.24    1.22 
   0   5   4   61.94    1.23 
  -1  -5  -4   11.25    0.28 
  -1  -5  -4   10.95    0.28 
  -1  -5  -4   10.83    0.26 
  -1  -5  -4   10.99    0.28 
   1   5   4   11.69    0.28 
   1   5   4   11.02    0.28 
   1   5   4   12.00    0.27 
   1   5   4   11.25    0.25 
  -2  -5  -4   37.44    0.80 
  -2  -5  -4   38.05    0.80 
  -2  -5  -4   37.99    0.80 
  -2  -5  -4   38.34    0.81 
   2   5   4   37.15    0.79 
   2   5   4   37.71    0.80 
   2   5   4   38.58    0.81 
   2   5   4   38.29    0.80 
  -3  -5  -4   48.93    1.01 
  -3  -5  -4   49.54    1.04 
  -3  -5  -4   47.61    1.02 
  -3  -5  -4   48.37    1.03 
  -3  -5  -4   50.19    1.02 
   3   5   4   47.61    1.03 
   3   5   4   49.18    1.02 
   3   5   4   49.14    1.03 
   3   5   4   49.50    1.02 
  -4  -5  -4   19.58    0.43 
  -4  -5  -4   19.32    0.48 
  -4  -5  -4   18.91    0.46 
  -4  -5  -4   19.29    0.47 
  -4  -5  -4   19.00    0.47 
   4   5   4   19.77    0.47 
   4   5   4   19.63    0.47 
   4   5   4   18.99    0.47 
   4   5   4   19.08    0.47 
  -5  -5  -4    0.29    0.09 
  -5  -5  -4    0.39    0.09 
  -5  -5  -4    0.30    0.08 
  -5  -5  -4    0.40    0.06 
  -5  -5  -4    0.20    0.07 
   5   5   4    0.47    0.08 
   5   5   4    0.51    0.09 
   5   5   4    0.46    0.09 
   5   5   4    0.60    0.10 
  -6  -5  -4    0.06    0.09 
  -6  -5  -4    0.06    0.08 
  -6  -5  -4    0.14    0.08 
  -6  -5  -4    0.10    0.09 
   6   5   4    0.11    0.09 
   6   5   4    0.16    0.09 
   6   5   4    0.04    0.07 
  -7  -5  -4   15.79    0.43 
  -7  -5  -4   16.29    0.46 
  -7  -5  -4   15.67    0.45 
   7   5   4   15.44    0.47 
   7   5   4   15.54    0.49 
   7   5   4   15.45    0.44 
   7   5   4   15.14    0.45 
   8   5   4    9.79    0.41 
   8   5   4    9.32    0.40 
   8   5   4    8.46    0.32 
   9   5   4    2.33    0.22 
   9   5   4    2.29    0.27 
   7  -6  -4    1.96    0.23 
   6  -6  -4   18.57    0.52 
   6  -6  -4   18.36    0.50 
   5  -6  -4    0.03    0.09 
   5  -6  -4    0.10    0.10 
   4  -6  -4    6.33    0.25 
   4  -6  -4    6.40    0.21 
   3  -6  -4   23.21    0.51 
   2  -6  -4   59.73    1.22 
   2  -6  -4   60.11    1.19 
   2  -6  -4   60.99    1.19 
  -2   6   4   60.64    1.18 
  -2   6   4   61.67    1.19 
   1  -6  -4  115.70    2.26 
   1  -6  -4  109.83    2.21 
   1  -6  -4  114.38    2.21 
  -1   6   4  113.84    2.21 
   0  -6  -4   18.39    0.41 
   0  -6  -4   17.75    0.41 
   0  -6  -4   17.48    0.41 
   0   6   4   18.23    0.41 
  -1  -6  -4  222.30    4.39 
  -1  -6  -4  229.60    4.56 
   1   6   4  231.63    4.39 
   1   6   4  221.18    4.39 
   1   6   4  231.08    4.56 
  -2  -6  -4    6.48    0.21 
  -2  -6  -4    6.73    0.21 
  -2  -6  -4    6.47    0.21 
  -2  -6  -4    6.56    0.18 
   2   6   4    6.72    0.20 
   2   6   4    6.92    0.21 
   2   6   4    6.92    0.21 
   2   6   4    6.58    0.18 
  -3  -6  -4   57.46    1.17 
  -3  -6  -4   56.29    1.16 
  -3  -6  -4   54.23    1.15 
  -3  -6  -4   54.84    1.17 
   3   6   4   55.41    1.18 
   3   6   4   55.60    1.17 
   3   6   4   56.06    1.15 
   3   6   4   54.23    1.15 
  -4  -6  -4    4.46    0.19 
  -4  -6  -4    4.39    0.18 
  -4  -6  -4    4.61    0.19 
  -4  -6  -4    4.34    0.19 
   4   6   4    4.12    0.19 
   4   6   4    4.36    0.19 
   4   6   4    4.17    0.19 
   4   6   4    4.36    0.19 
  -5  -6  -4  161.29    3.27 
  -5  -6  -4  158.69    3.22 
  -5  -6  -4  159.52    3.16 
  -5  -6  -4  161.58    3.15 
  -5  -6  -4  164.56    3.16 
   5   6   4  156.87    3.15 
   5   6   4  157.59    3.23 
   5   6   4  155.45    3.26 
   5   6   4  159.88    3.16 
  -6  -6  -4    0.30    0.12 
  -6  -6  -4    0.32    0.06 
  -6  -6  -4    0.31    0.09 
  -6  -6  -4    0.32    0.06 
   6   6   4    0.14    0.08 
   6   6   4    0.45    0.13 
   6   6   4    0.30    0.10 
   6   6   4    0.33    0.10 
  -7  -6  -4   15.99    0.48 
  -7  -6  -4   15.76    0.45 
  -7  -6  -4   16.00    0.46 
   7   6   4   14.85    0.45 
   7   6   4   16.05    0.50 
   7   6   4   16.42    0.46 
   7   6   4   16.23    0.49 
  -8  -6  -4    0.09    0.15 
  -8  -6  -4    0.26    0.14 
   8   6   4    0.16    0.11 
   8   6   4    0.12    0.15 
   6  -7  -4   24.59    0.64 
   6  -7  -4   24.39    0.62 
   5  -7  -4    1.03    0.15 
   5  -7  -4    0.92    0.12 
   4  -7  -4   30.06    0.65 
   3  -7  -4    2.29    0.11 
   3  -7  -4    2.26    0.10 
   2  -7  -4   34.58    0.73 
   2  -7  -4   34.63    0.72 
   2  -7  -4   35.90    0.72 
  -2   7   4   34.73    0.71 
  -2   7   4   34.31    0.71 
   1  -7  -4    4.33    0.15 
   1  -7  -4    4.17    0.17 
   1  -7  -4    4.40    0.15 
  -1   7   4    4.68    0.15 
  -1   7   4    4.56    0.16 
   0  -7  -4   43.81    0.92 
   0  -7  -4   43.69    0.92 
   0  -7  -4   44.68    0.93 
   0   7   4   44.48    0.91 
  -1  -7  -4    0.52    0.07 
  -1  -7  -4    0.48    0.07 
  -1  -7  -4    0.55    0.08 
   1   7   4    0.77    0.08 
   1   7   4    0.89    0.09 
   1   7   4    0.69    0.08 
  -2  -7  -4    3.40    0.17 
  -2  -7  -4    3.41    0.16 
  -2  -7  -4    3.51    0.16 
   2   7   4    3.34    0.16 
   2   7   4    3.27    0.15 
   2   7   4    3.28    0.12 
   2   7   4    3.46    0.15 
  -3  -7  -4   27.73    0.64 
  -3  -7  -4   28.06    0.64 
  -3  -7  -4   27.19    0.64 
   3   7   4   27.92    0.62 
   3   7   4   28.56    0.63 
   3   7   4   27.70    0.64 
   3   7   4   27.14    0.64 
  -4  -7  -4    0.32    0.09 
  -4  -7  -4    0.32    0.08 
   4   7   4    0.23    0.08 
   4   7   4    0.12    0.07 
   4   7   4    0.21    0.07 
   4   7   4    0.22    0.08 
  -5  -7  -4    1.51    0.17 
  -5  -7  -4    1.55    0.17 
  -5  -7  -4    1.64    0.16 
   5   7   4    1.85    0.17 
   5   7   4    1.74    0.18 
   5   7   4    1.67    0.17 
  -6  -7  -4   12.84    0.39 
  -6  -7  -4   13.26    0.41 
  -6  -7  -4   12.57    0.33 
  -6  -7  -4   12.68    0.33 
  -6  -7  -4   13.48    0.41 
   6   7   4   12.86    0.39 
   6   7   4   12.99    0.40 
   6   7   4   13.74    0.42 
   6   7   4   13.85    0.42 
  -7  -7  -4    0.74    0.17 
   7   7   4    0.94    0.16 
   7   7   4    0.83    0.17 
   7   7   4    0.77    0.13 
   8   7   4    6.56    0.31 
   8   7   4    6.27    0.36 
   6  -8  -4    4.41    0.34 
   5  -8  -4    0.40    0.14 
   5  -8  -4    0.48    0.10 
   4  -8  -4    3.74    0.17 
   3  -8  -4   16.20    0.39 
   3  -8  -4   16.42    0.38 
   3  -8  -4   16.17    0.37 
   2  -8  -4   30.21    0.67 
   2  -8  -4   31.02    0.65 
  -2   8   4   30.69    0.64 
  -2   8   4   30.12    0.65 
   1  -8  -4   43.02    0.91 
   1  -8  -4   43.80    0.93 
   1  -8  -4   43.88    0.91 
  -1   8   4   43.20    0.91 
  -1   8   4   44.45    0.90 
   0  -8  -4   13.03    0.34 
   0  -8  -4   12.91    0.34 
   0  -8  -4   13.11    0.34 
   0   8   4   13.56    0.34 
  -1  -8  -4   15.60    0.40 
  -1  -8  -4   15.72    0.40 
  -1  -8  -4   15.25    0.40 
   1   8   4   15.23    0.40 
   1   8   4   15.47    0.39 
   1   8   4   16.40    0.38 
  -2  -8  -4    0.30    0.08 
  -2  -8  -4    0.25    0.07 
  -2  -8  -4    0.17    0.07 
   2   8   4    0.14    0.05 
   2   8   4    0.13    0.06 
   2   8   4    0.20    0.08 
   2   8   4    0.22    0.06 
  -3  -8  -4   74.02    1.52 
  -3  -8  -4   71.68    1.55 
  -3  -8  -4   74.20    1.53 
   3   8   4   72.32    1.52 
   3   8   4   71.88    1.52 
   3   8   4   74.60    1.52 
   3   8   4   76.78    1.54 
  -4  -8  -4   27.09    0.67 
  -4  -8  -4   28.09    0.67 
  -4  -8  -4   28.15    0.67 
   4   8   4   27.97    0.66 
   4   8   4   28.90    0.68 
   4   8   4   28.80    0.67 
   4   8   4   27.97    0.66 
  -5  -8  -4    0.39    0.10 
  -5  -8  -4    0.48    0.10 
  -5  -8  -4    0.60    0.12 
   5   8   4    0.55    0.12 
   5   8   4    0.58    0.13 
   5   8   4    0.50    0.11 
  -6  -8  -4    0.48    0.12 
  -6  -8  -4    0.44    0.14 
  -6  -8  -4    0.52    0.10 
  -6  -8  -4    0.47    0.12 
   6   8   4    0.36    0.10 
   6   8   4    0.50    0.13 
   6   8   4    0.53    0.13 
  -7  -8  -4    2.99    0.18 
  -7  -8  -4    2.90    0.29 
  -7  -8  -4    2.67    0.25 
  -7  -8  -4    2.98    0.17 
   7   8   4    2.83    0.33 
   7   8   4    3.01    0.25 
   7   8   4    3.46    0.28 
  -8  -8  -4    7.68    0.38 
   8   8   4    7.96    0.35 
   8   8   4    8.51    0.42 
   5  -9  -4   16.76    0.44 
   4  -9  -4   20.73    0.50 
   3  -9  -4    7.12    0.24 
   3  -9  -4    7.17    0.24 
   3  -9  -4    7.15    0.22 
  -3   9   4    7.09    0.21 
   2  -9  -4   21.94    0.52 
   2  -9  -4   21.77    0.51 
   2  -9  -4   21.96    0.50 
  -2   9   4   21.38    0.50 
   1  -9  -4   28.97    0.63 
   1  -9  -4   28.38    0.64 
   1  -9  -4   27.93    0.63 
  -1   9   4   27.24    0.63 
   0  -9  -4    5.31    0.22 
   0  -9  -4    5.24    0.21 
   0  -9  -4    5.39    0.21 
   0   9   4    5.09    0.21 
  -1  -9  -4    4.42    0.19 
  -1  -9  -4    4.39    0.20 
  -1  -9  -4    4.45    0.20 
   1   9   4    4.42    0.18 
   1   9   4    4.47    0.21 
  -2  -9  -4    0.41    0.09 
  -2  -9  -4    0.55    0.09 
  -2  -9  -4    0.34    0.08 
   2   9   4    0.28    0.07 
   2   9   4    0.30    0.10 
   2   9   4    0.50    0.09 
   2   9   4    0.47    0.06 
  -3  -9  -4   25.08    0.62 
  -3  -9  -4   25.19    0.61 
   3   9   4   25.28    0.62 
   3   9   4   25.54    0.61 
   3   9   4   25.18    0.60 
   3   9   4   24.59    0.57 
  -4  -9  -4    0.23    0.08 
  -4  -9  -4    0.31    0.11 
  -4  -9  -4    0.39    0.11 
   4   9   4    0.16    0.11 
   4   9   4    0.26    0.09 
   4   9   4    0.33    0.10 
  -5  -9  -4    2.36    0.22 
  -5  -9  -4    2.36    0.20 
  -5  -9  -4    2.46    0.23 
   5   9   4    2.04    0.21 
   5   9   4    2.30    0.20 
   5   9   4    2.36    0.22 
  -6  -9  -4   18.98    0.55 
  -6  -9  -4   18.22    0.53 
  -6  -9  -4   18.88    0.56 
  -6  -9  -4   18.79    0.49 
   6   9   4   18.12    0.55 
   6   9   4   18.52    0.55 
   6   9   4   18.21    0.54 
  -7  -9  -4    0.00    0.13 
  -7  -9  -4    0.25    0.19 
  -7  -9  -4    0.04    0.11 
  -7  -9  -4    0.08    0.13 
   7   9   4   -0.34    0.13 
   7   9   4   -0.01    0.14 
   7   9   4    0.01    0.19 
  -8  -9  -4   14.84    0.53 
   8   9   4   15.95    0.58 
   8   9   4   15.18    0.52 
   4 -10  -4    0.92    0.15 
   4 -10  -4    0.90    0.10 
   3 -10  -4   21.20    0.52 
   3 -10  -4   20.16    0.49 
   3 -10  -4   20.70    0.50 
  -3  10   4   21.02    0.49 
   2 -10  -4    0.23    0.08 
   2 -10  -4    0.41    0.10 
   2 -10  -4    0.38    0.10 
  -2  10   4    0.44    0.08 
  -2  10   4    0.32    0.10 
   1 -10  -4   23.60    0.55 
   1 -10  -4   23.34    0.57 
   1 -10  -4   23.59    0.56 
  -1  10   4   22.96    0.56 
   0 -10  -4    2.32    0.17 
   0 -10  -4    1.95    0.15 
   0 -10  -4    1.69    0.19 
   0  10   4    2.25    0.18 
  -1 -10  -4   54.72    1.20 
  -1 -10  -4   56.03    1.18 
  -1 -10  -4   54.93    1.18 
   1  10   4   55.97    1.16 
   1  10   4   53.90    1.18 
  -2 -10  -4   18.64    0.52 
  -2 -10  -4   19.22    0.51 
  -2 -10  -4   19.79    0.51 
   2  10   4   20.11    0.48 
   2  10   4   19.31    0.52 
   2  10   4   19.31    0.49 
  -3 -10  -4    5.02    0.25 
  -3 -10  -4    4.80    0.23 
  -3 -10  -4    5.25    0.26 
   3  10   4    5.27    0.20 
   3  10   4    4.82    0.23 
   3  10   4    5.19    0.23 
   3  10   4    5.26    0.27 
  -4 -10  -4   10.55    0.38 
  -4 -10  -4    9.74    0.34 
   4  10   4   10.16    0.33 
   4  10   4   10.22    0.38 
   4  10   4   10.66    0.33 
   4  10   4   10.02    0.36 
  -5 -10  -4    7.32    0.31 
  -5 -10  -4    6.97    0.34 
  -5 -10  -4    7.75    0.34 
   5  10   4    6.71    0.30 
   5  10   4    7.35    0.33 
  -6 -10  -4    5.73    0.29 
  -6 -10  -4    6.03    0.34 
  -6 -10  -4    5.70    0.34 
  -6 -10  -4    5.54    0.30 
   6  10   4    5.92    0.33 
   6  10   4    5.62    0.34 
   6  10   4    5.74    0.36 
  -7 -10  -4    0.86    0.23 
  -7 -10  -4    0.51    0.17 
   7  10   4    0.80    0.20 
   7  10   4    0.77    0.18 
   4 -11  -4    7.71    0.26 
   3 -11  -4   16.67    0.48 
   3 -11  -4   16.75    0.43 
   2 -11  -4    1.31    0.14 
   2 -11  -4    1.19    0.14 
   2 -11  -4    1.13    0.12 
  -2  11   4    1.13    0.15 
   1 -11  -4    3.87    0.23 
   1 -11  -4    4.00    0.22 
   1 -11  -4    3.70    0.20 
  -1  11   4    3.76    0.23 
   0 -11  -4    0.29    0.09 
   0 -11  -4    0.32    0.11 
   0 -11  -4    0.23    0.11 
   0  11   4    0.13    0.13 
  -1 -11  -4    1.11    0.14 
  -1 -11  -4    1.12    0.13 
  -1 -11  -4    0.95    0.12 
   1  11   4    1.35    0.14 
   1  11   4    0.97    0.14 
  -2 -11  -4    7.44    0.30 
  -2 -11  -4    7.97    0.31 
  -2 -11  -4    8.27    0.33 
   2  11   4    8.01    0.29 
   2  11   4    7.77    0.33 
  -3 -11  -4    2.72    0.23 
  -3 -11  -4    2.71    0.26 
  -3 -11  -4    2.58    0.21 
   3  11   4    2.64    0.23 
   3  11   4    2.96    0.25 
   3  11   4    3.07    0.17 
   3  11   4    2.36    0.20 
  -4 -11  -4   13.53    0.46 
  -4 -11  -4   13.37    0.45 
  -4 -11  -4   12.53    0.42 
   4  11   4   12.74    0.46 
   4  11   4   13.24    0.43 
   4  11   4   12.90    0.41 
   4  11   4   13.39    0.39 
  -5 -11  -4    3.51    0.31 
  -5 -11  -4    2.78    0.30 
  -5 -11  -4    3.17    0.24 
   5  11   4    3.10    0.31 
   5  11   4    2.76    0.27 
   5  11   4    2.96    0.31 
  -6 -11  -4    7.55    0.42 
  -6 -11  -4    6.61    0.35 
   6  11   4    7.02    0.37 
   6  11   4    6.95    0.40 
   6  11   4    6.69    0.42 
  -7 -11  -4    2.94    0.33 
  -7 -11  -4    2.32    0.25 
   7  11   4    3.08    0.37 
   7  11   4    2.78    0.29 
   2 -12  -4    3.67    0.21 
   2 -12  -4    3.25    0.27 
   1 -12  -4    2.98    0.20 
   1 -12  -4    2.51    0.24 
   0 -12  -4   24.52    0.63 
   0 -12  -4   23.83    0.62 
   0 -12  -4   23.94    0.62 
  -1 -12  -4    7.87    0.34 
  -1 -12  -4    7.60    0.31 
   1  12   4    7.03    0.34 
  -2 -12  -4   16.86    0.51 
  -2 -12  -4   16.59    0.50 
  -2 -12  -4   16.59    0.50 
   2  12   4   16.41    0.53 
  -3 -12  -4    2.47    0.23 
  -3 -12  -4    2.55    0.24 
  -3 -12  -4    1.77    0.18 
   3  12   4    2.08    0.18 
   3  12   4    1.63    0.20 
  -4 -12  -4   12.18    0.49 
  -4 -12  -4   12.33    0.43 
  -4 -12  -4   12.24    0.46 
   4  12   4   12.12    0.48 
   4  12   4   12.36    0.39 
  -5 -12  -4    3.30    0.35 
  -5 -12  -4    3.27    0.30 
  -5 -12  -4    3.59    0.27 
   5  12   4    3.23    0.29 
   5  12   4    3.21    0.37 
  -6 -12  -4    8.77    0.49 
  -6 -12  -4    8.39    0.42 
   6  12   4    8.71    0.44 
   6  12   4    9.60    0.48 
   1 -13  -4    6.46    0.35 
   0 -13  -4    1.76    0.19 
   0 -13  -4    1.89    0.21 
  -1 -13  -4    2.30    0.24 
  -1 -13  -4    3.12    0.24 
  -2 -13  -4    2.40    0.24 
  -2 -13  -4    2.15    0.25 
   2  13   4    2.46    0.27 
  -3 -13  -4    0.46    0.17 
  -3 -13  -4    0.53    0.14 
   3  13   4    0.60    0.22 
  -4 -13  -4    0.48    0.15 
  -4 -13  -4    0.57    0.21 
   4  13   4    0.61    0.21 
  -5 -13  -4    4.45    0.43 
   5  13   4    3.49    0.33 
   4   9  -5    9.25    0.52 
  -4  -9   5    9.93    0.50 
   3   9  -5    2.36    0.28 
  -3  -9   5    2.70    0.31 
  -3  -9   5    2.57    0.27 
   2   9  -5    6.68    0.45 
   2   9  -5    6.77    0.45 
  -2  -9   5    7.10    0.39 
  -2  -9   5    6.63    0.45 
   1   9  -5    1.24    0.22 
  -1  -9   5    1.60    0.19 
  -1  -9   5    1.76    0.26 
  -1  -9   5    1.46    0.25 
   0  -9   5   10.15    0.47 
   0  -9   5   10.39    0.40 
   0  -9   5   10.12    0.48 
  -1   9  -5    4.19    0.44 
   1  -9   5    3.62    0.33 
   1  -9   5    3.97    0.27 
   2  -9   5    3.47    0.34 
   2  -9   5    4.02    0.33 
   5   8  -5    2.20    0.25 
  -5  -8   5    1.80    0.25 
   4   8  -5    1.70    0.25 
  -4  -8   5    1.91    0.22 
  -4  -8   5    1.81    0.29 
   3   8  -5    0.55    0.19 
   3   8  -5    0.54    0.20 
  -3  -8   5    0.56    0.20 
  -3  -8   5    0.58    0.18 
   2   8  -5    4.73    0.34 
   2   8  -5    4.63    0.35 
   2   8  -5    4.78    0.33 
  -2  -8   5    4.89    0.30 
  -2  -8   5    4.59    0.37 
  -2  -8   5    4.89    0.31 
   1   8  -5    8.97    0.37 
   1   8  -5    8.88    0.38 
   1   8  -5    9.02    0.42 
  -1  -8   5    8.61    0.37 
  -1  -8   5    8.12    0.35 
  -1  -8   5    8.89    0.41 
   0   8  -5    5.81    0.38 
   0   8  -5    6.01    0.33 
   0   8  -5    6.15    0.33 
   0  -8   5    5.98    0.34 
   0  -8   5    5.93    0.34 
   0  -8   5    6.36    0.30 
  -1   8  -5   16.83    0.54 
  -1   8  -5   17.22    0.57 
   1  -8   5   16.93    0.51 
   1  -8   5   17.84    0.54 
   1  -8   5   18.12    0.55 
  -2   8  -5    0.29    0.19 
  -2   8  -5    0.11    0.19 
   2  -8   5    0.00    0.12 
   2  -8   5    0.05    0.18 
   2  -8   5    0.18    0.12 
   3  -8   5    7.86    0.36 
   5   7  -5   -0.11    0.16 
  -5  -7   5    0.10    0.16 
   4   7  -5   14.75    0.51 
   4   7  -5   15.66    0.51 
  -4  -7   5   13.62    0.49 
  -4  -7   5   15.23    0.55 
  -4  -7   5   15.06    0.50 
   3   7  -5   -0.07    0.13 
   3   7  -5   -0.03    0.15 
  -3  -7   5   -0.22    0.11 
  -3  -7   5   -0.03    0.16 
  -3  -7   5   -0.03    0.13 
  -3  -7   5   -0.16    0.10 
   2   7  -5    2.47    0.24 
   2   7  -5    1.93    0.20 
   2   7  -5    2.21    0.23 
  -2  -7   5    2.29    0.23 
  -2  -7   5    2.05    0.23 
  -2  -7   5    2.60    0.24 
  -2  -7   5    2.18    0.19 
   1   7  -5    0.60    0.14 
   1   7  -5    0.66    0.15 
  -1  -7   5    0.74    0.14 
  -1  -7   5    0.37    0.08 
  -1  -7   5    0.74    0.14 
  -1  -7   5    0.69    0.17 
   0   7  -5   17.11    0.52 
   0   7  -5   16.31    0.48 
   0  -7   5   17.29    0.50 
   0  -7   5   16.61    0.48 
  -1   7  -5    4.68    0.30 
  -1   7  -5    4.98    0.25 
   1  -7   5    4.31    0.26 
   1  -7   5    4.89    0.25 
   1  -7   5    4.37    0.27 
  -2   7  -5    0.39    0.12 
  -2   7  -5    0.34    0.17 
   2  -7   5    0.32    0.13 
  -3   7  -5    1.94    0.22 
  -3   7  -5    2.17    0.23 
   3  -7   5    2.00    0.24 
   3  -7   5    2.04    0.23 
   4  -7   5    0.08    0.12 
  -6  -6   5    0.28    0.18 
   5   6  -5    0.23    0.17 
   5   6  -5    0.29    0.15 
  -5  -6   5    0.39    0.19 
  -5  -6   5    0.43    0.14 
  -5  -6   5    0.11    0.14 
   4   6  -5    7.95    0.36 
   4   6  -5    8.99    0.35 
  -4  -6   5    8.25    0.34 
  -4  -6   5    8.29    0.39 
  -4  -6   5    8.65    0.32 
  -4  -6   5    8.23    0.34 
   3   6  -5   20.31    0.57 
   3   6  -5   20.61    0.54 
  -3  -6   5   20.12    0.52 
  -3  -6   5   20.23    0.58 
  -3  -6   5   19.90    0.56 
   2   6  -5    7.11    0.34 
  -2  -6   5    6.87    0.30 
  -2  -6   5    7.41    0.32 
  -2  -6   5    6.87    0.27 
   1   6  -5    6.19    0.27 
   1   6  -5    5.94    0.29 
   1   6  -5    6.92    0.27 
  -1  -6   5    6.33    0.30 
  -1  -6   5    6.22    0.26 
  -1  -6   5    6.54    0.28 
   0   6  -5    0.79    0.12 
   0   6  -5    0.48    0.11 
   0   6  -5    0.63    0.12 
   0  -6   5    0.79    0.12 
   0  -6   5    0.79    0.13 
   0  -6   5    0.96    0.15 
  -1   6  -5   43.10    0.98 
  -1   6  -5   43.77    0.96 
  -1   6  -5   43.33    0.98 
   1  -6   5   42.91    0.98 
   1  -6   5   41.34    0.97 
   1  -6   5   44.80    0.98 
   1  -6   5   42.57    0.98 
  -2   6  -5    0.45    0.14 
  -2   6  -5    0.60    0.12 
  -2   6  -5    0.61    0.15 
   2  -6   5    0.54    0.12 
   2  -6   5    0.66    0.11 
   2  -6   5    0.69    0.13 
  -3   6  -5   29.19    0.71 
  -3   6  -5   28.81    0.72 
   3  -6   5   28.65    0.71 
   3  -6   5   29.95    0.73 
   3  -6   5   27.61    0.70 
  -4   6  -5    2.86    0.33 
  -4   6  -5    3.38    0.30 
   4  -6   5    2.70    0.21 
   4  -6   5    2.76    0.30 
   4  -6   5    2.63    0.24 
   5  -6   5   11.51    0.42 
   5  -6   5   10.54    0.37 
   6   5  -5   14.28    0.44 
  -6  -5   5   12.43    0.44 
   5   5  -5    7.46    0.32 
   5   5  -5    7.92    0.33 
  -5  -5   5    7.12    0.30 
  -5  -5   5    7.38    0.28 
  -5  -5   5    7.40    0.36 
   4   5  -5   14.48    0.41 
   4   5  -5   13.34    0.43 
  -4  -5   5   13.43    0.41 
  -4  -5   5   14.03    0.45 
  -4  -5   5   14.26    0.38 
  -4  -5   5   13.49    0.40 
   3   5  -5    2.73    0.21 
   3   5  -5    2.63    0.21 
  -3  -5   5    2.66    0.17 
  -3  -5   5    2.91    0.21 
  -3  -5   5    2.90    0.18 
  -3  -5   5    3.04    0.25 
   2   5  -5   39.72    0.91 
   2   5  -5   38.85    0.94 
   2   5  -5   41.10    0.88 
  -2  -5   5   39.89    0.87 
  -2  -5   5   39.33    0.90 
  -2  -5   5   39.96    0.91 
  -2  -5   5   40.32    0.91 
   1   5  -5   19.70    0.52 
   1   5  -5   20.06    0.50 
   1   5  -5   20.67    0.51 
   1   5  -5   19.55    0.54 
  -1  -5   5   19.29    0.51 
  -1  -5   5   19.48    0.52 
  -1  -5   5   18.98    0.50 
  -1  -5   5   19.97    0.49 
   0   5  -5    3.64    0.20 
   0   5  -5    3.51    0.22 
   0   5  -5    3.58    0.19 
   0   5  -5    3.38    0.22 
   0  -5   5    3.68    0.20 
   0  -5   5    3.44    0.21 
   0  -5   5    3.47    0.19 
  -1   5  -5    5.29    0.25 
  -1   5  -5    5.09    0.24 
  -1   5  -5    5.34    0.22 
   1  -5   5    5.05    0.24 
   1  -5   5    5.37    0.23 
   1  -5   5    5.43    0.22 
  -2   5  -5    1.10    0.13 
  -2   5  -5    1.11    0.15 
  -2   5  -5    0.80    0.12 
   2  -5   5    1.02    0.12 
   2  -5   5    1.29    0.15 
   2  -5   5    1.08    0.12 
  -3   5  -5   25.26    0.62 
  -3   5  -5   24.64    0.63 
  -3   5  -5   25.45    0.65 
   3  -5   5   24.68    0.62 
   3  -5   5   25.95    0.64 
   3  -5   5   24.74    0.62 
  -4   5  -5    5.19    0.29 
   4  -5   5    5.17    0.30 
   4  -5   5    4.99    0.24 
   4  -5   5    5.31    0.25 
   4  -5   5    5.44    0.26 
  -5   5  -5    0.07    0.14 
  -5   5  -5    0.17    0.17 
   5  -5   5    0.38    0.15 
   5  -5   5    0.16    0.10 
   5  -5   5    0.52    0.14 
   5  -5   5    0.20    0.18 
   6  -5   5   14.67    0.48 
   6  -5   5   14.66    0.51 
   6  -5   5   14.30    0.43 
   7   4  -5    0.49    0.18 
   7   4  -5    0.52    0.13 
   6   4  -5    2.85    0.21 
   6   4  -5    3.00    0.27 
   6   4  -5    2.88    0.25 
   6   4  -5    2.31    0.24 
  -6  -4   5    1.96    0.20 
  -6  -4   5    2.72    0.25 
   5   4  -5   14.79    0.42 
   5   4  -5   15.47    0.44 
   5   4  -5   14.87    0.45 
   5   4  -5   14.70    0.41 
  -5  -4   5   15.11    0.43 
  -5  -4   5   14.62    0.36 
  -5  -4   5   14.84    0.35 
   4   4  -5   19.01    0.50 
   4   4  -5   18.18    0.50 
   4   4  -5   19.08    0.47 
  -4  -4   5   18.46    0.48 
  -4  -4   5   18.73    0.51 
  -4  -4   5   18.53    0.47 
   3   4  -5   17.75    0.48 
   3   4  -5   18.11    0.45 
   3   4  -5   17.96    0.48 
  -3  -4   5   17.91    0.48 
  -3  -4   5   17.89    0.46 
  -3  -4   5   17.55    0.46 
  -3  -4   5   17.87    0.44 
   2   4  -5    0.35    0.09 
   2   4  -5    0.35    0.09 
   2   4  -5    0.41    0.09 
  -2  -4   5    0.47    0.08 
  -2  -4   5    0.37    0.10 
  -2  -4   5    0.37    0.08 
  -2  -4   5    0.28    0.09 
   1   4  -5   59.42    1.26 
   1   4  -5   64.63    1.29 
   1   4  -5   57.90    1.29 
   1   4  -5   60.00    1.24 
  -1  -4   5   60.23    1.28 
  -1  -4   5   58.91    1.28 
  -1  -4   5   58.89    1.26 
  -1  -4   5   60.20    1.24 
   0   4  -5   40.60    0.86 
   0   4  -5   37.32    0.87 
   0   4  -5   39.02    0.84 
   0  -4   5   37.79    0.85 
   0  -4   5   37.58    0.85 
   0  -4   5   38.28    0.85 
   0  -4   5   37.98    0.83 
  -1   4  -5   63.19    1.34 
  -1   4  -5   61.97    1.37 
  -1   4  -5   64.81    1.33 
  -1   4  -5   64.33    1.38 
   1  -4   5   65.91    1.36 
   1  -4   5   64.25    1.34 
   1  -4   5   65.24    1.33 
  -2   4  -5   10.39    0.33 
  -2   4  -5   10.82    0.32 
  -2   4  -5   10.21    0.33 
   2  -4   5   10.38    0.32 
   2  -4   5   10.82    0.32 
   2  -4   5   10.39    0.31 
  -3   4  -5   60.05    1.30 
  -3   4  -5   63.19    1.31 
  -3   4  -5   63.07    1.37 
   3  -4   5   62.37    1.33 
   3  -4   5   65.29    1.32 
   3  -4   5   61.49    1.33 
   3  -4   5   59.98    1.31 
  -4   4  -5    8.21    0.34 
  -4   4  -5    8.08    0.29 
  -4   4  -5    8.20    0.31 
   4  -4   5    8.09    0.29 
   4  -4   5    7.99    0.28 
   4  -4   5    8.59    0.33 
   4  -4   5    7.84    0.29 
  -5   4  -5    7.67    0.33 
  -5   4  -5    8.57    0.39 
   5  -4   5    8.40    0.30 
   5  -4   5    8.68    0.32 
   5  -4   5    8.64    0.31 
   5  -4   5    8.41    0.36 
   5  -4   5    8.44    0.33 
   6  -4   5   15.87    0.47 
   6  -4   5   14.22    0.43 
   6  -4   5   14.86    0.45 
   7  -4   5    2.76    0.31 
   7   3  -5   10.07    0.40 
   7   3  -5    9.82    0.34 
   7   3  -5   10.08    0.45 
   6   3  -5   10.56    0.35 
   6   3  -5   10.35    0.34 
   6   3  -5   11.28    0.36 
   6   3  -5   11.09    0.44 
   6   3  -5   10.52    0.36 
  -6  -3   5   10.69    0.36 
  -6  -3   5   10.29    0.36 
   5   3  -5    8.51    0.31 
   5   3  -5    8.60    0.29 
   5   3  -5    8.66    0.29 
   5   3  -5    8.81    0.30 
  -5  -3   5    9.12    0.30 
  -5  -3   5    8.87    0.31 
   4   3  -5   54.98    1.19 
   4   3  -5   55.61    1.21 
   4   3  -5   57.46    1.19 
   4   3  -5   56.33    1.16 
  -4  -3   5   56.50    1.15 
  -4  -3   5   56.68    1.20 
  -4  -3   5   55.32    1.16 
   3   3  -5   56.05    1.19 
   3   3  -5   57.97    1.17 
   3   3  -5   56.49    1.22 
  -3  -3   5   56.27    1.16 
  -3  -3   5   57.44    1.21 
  -3  -3   5   55.22    1.19 
  -3  -3   5   56.76    1.19 
   2   3  -5    1.00    0.11 
   2   3  -5    1.01    0.12 
   2   3  -5    0.98    0.11 
  -2  -3   5    0.98    0.10 
  -2  -3   5    0.98    0.11 
  -2  -3   5    1.15    0.11 
  -2  -3   5    1.10    0.12 
   1   3  -5   40.56    0.89 
   1   3  -5   39.89    0.85 
  -1  -3   5   39.35    0.87 
  -1  -3   5   39.93    0.85 
  -1  -3   5   40.21    0.86 
  -1  -3   5   39.30    0.87 
   0   3  -5    4.42    0.19 
   0   3  -5    4.51    0.18 
   0   3  -5    4.19    0.19 
   0   3  -5    4.77    0.19 
   0  -3   5    4.30    0.18 
   0  -3   5    4.45    0.19 
   0  -3   5    4.35    0.17 
  -1   3  -5   14.16    0.36 
  -1   3  -5   13.08    0.37 
  -1   3  -5   13.78    0.38 
  -1   3  -5   13.97    0.37 
   1  -3   5   13.67    0.36 
   1  -3   5   14.32    0.37 
   1  -3   5   13.96    0.36 
  -2   3  -5    8.73    0.29 
  -2   3  -5    8.85    0.27 
  -2   3  -5    8.72    0.27 
  -2   3  -5    8.35    0.28 
   2  -3   5    8.47    0.26 
   2  -3   5    8.35    0.27 
   2  -3   5    8.67    0.28 
   2  -3   5    8.70    0.27 
  -3   3  -5    0.25    0.08 
  -3   3  -5    0.14    0.08 
  -3   3  -5    0.24    0.09 
   3  -3   5    0.32    0.09 
   3  -3   5    0.17    0.09 
   3  -3   5    0.29    0.07 
   3  -3   5    0.09    0.07 
  -4   3  -5   16.02    0.46 
  -4   3  -5   15.02    0.42 
  -4   3  -5   15.31    0.42 
   4  -3   5   15.11    0.40 
   4  -3   5   15.17    0.41 
   4  -3   5   14.90    0.41 
   4  -3   5   15.02    0.44 
  -5   3  -5   12.06    0.37 
  -5   3  -5   12.09    0.38 
   5  -3   5   12.30    0.36 
   5  -3   5   12.51    0.35 
   5  -3   5   12.33    0.38 
   5  -3   5   12.31    0.37 
   5  -3   5   11.58    0.40 
  -6   3  -5    8.35    0.34 
   6  -3   5    9.07    0.31 
   6  -3   5    9.25    0.32 
   6  -3   5    9.30    0.37 
   6  -3   5    9.11    0.39 
   6  -3   5    9.47    0.34 
   7  -3   5    3.74    0.22 
   7  -3   5    4.00    0.30 
   7   2  -5    0.23    0.14 
   7   2  -5    0.20    0.13 
   7   2  -5    0.29    0.17 
   7   2  -5    0.10    0.14 
   7   2  -5    0.21    0.10 
   6   2  -5    1.57    0.19 
   6   2  -5    1.63    0.15 
   6   2  -5    1.59    0.19 
   6   2  -5    1.50    0.15 
   6   2  -5    1.57    0.19 
  -6  -2   5    1.59    0.15 
  -6  -2   5    1.65    0.13 
  -6  -2   5    1.16    0.13 
   5   2  -5    8.27    0.27 
   5   2  -5    8.48    0.26 
   5   2  -5    7.86    0.28 
   5   2  -5    8.00    0.26 
  -5  -2   5    7.68    0.28 
  -5  -2   5    8.50    0.28 
   4   2  -5    5.34    0.22 
   4   2  -5    5.12    0.19 
   4   2  -5    5.48    0.21 
   4   2  -5    5.49    0.20 
  -4  -2   5    5.39    0.22 
  -4  -2   5    5.91    0.22 
   3   2  -5    2.76    0.14 
   3   2  -5    2.79    0.16 
   3   2  -5    2.94    0.16 
  -3  -2   5    2.66    0.15 
  -3  -2   5    2.70    0.12 
  -3  -2   5    2.63    0.14 
  -3  -2   5    2.63    0.13 
   2   2  -5   30.65    0.65 
   2   2  -5   30.43    0.67 
   2   2  -5   30.04    0.69 
  -2  -2   5   31.06    0.65 
  -2  -2   5   30.08    0.67 
  -2  -2   5   30.01    0.67 
   1   2  -5   37.09    0.79 
   1   2  -5   37.05    0.81 
   1   2  -5   38.21    0.78 
  -1  -2   5   36.12    0.78 
  -1  -2   5   36.32    0.77 
  -1  -2   5   34.86    0.79 
   0   2  -5   49.47    1.00 
   0   2  -5   49.49    1.04 
   0   2  -5   46.62    1.00 
   0   2  -5   49.01    1.04 
   0  -2   5   48.01    1.00 
   0  -2   5   46.56    1.00 
   0  -2   5   48.54    1.04 
  -1   2  -5    5.99    0.20 
  -1   2  -5    5.30    0.21 
  -1   2  -5    5.65    0.20 
  -1   2  -5    5.54    0.21 
   1  -2   5    5.81    0.20 
   1  -2   5    5.95    0.20 
   1  -2   5    5.95    0.20 
  -2   2  -5   14.87    0.40 
  -2   2  -5   15.19    0.38 
  -2   2  -5   14.85    0.39 
  -2   2  -5   14.75    0.38 
   2  -2   5   15.45    0.39 
   2  -2   5   15.09    0.38 
   2  -2   5   14.54    0.38 
  -3   2  -5   37.85    0.84 
  -3   2  -5   38.42    0.82 
  -3   2  -5   37.38    0.83 
  -3   2  -5   38.79    0.87 
   3  -2   5   36.72    0.83 
   3  -2   5   38.21    0.84 
   3  -2   5   38.11    0.82 
  -4   2  -5   55.17    1.23 
  -4   2  -5   56.00    1.16 
  -4   2  -5   56.22    1.18 
   4  -2   5   56.17    1.20 
   4  -2   5   55.71    1.16 
   4  -2   5   55.32    1.19 
   4  -2   5   53.32    1.18 
  -5   2  -5    2.92    0.17 
  -5   2  -5    2.72    0.20 
   5  -2   5    2.65    0.22 
   5  -2   5    2.62    0.17 
   5  -2   5    2.78    0.18 
   5  -2   5    2.48    0.17 
   5  -2   5    2.85    0.20 
  -6   2  -5   14.72    0.49 
   6  -2   5   14.49    0.45 
   6  -2   5   13.95    0.42 
   6  -2   5   13.70    0.40 
   6  -2   5   14.27    0.45 
   7  -2   5    2.56    0.27 
   7  -2   5    2.86    0.20 
   8   1  -5    0.79    0.23 
   7   1  -5   22.13    0.66 
   7   1  -5   20.71    0.49 
   7   1  -5   20.93    0.49 
   7   1  -5   20.59    0.53 
   7   1  -5   20.75    0.54 
   6   1  -5    0.13    0.13 
   6   1  -5    0.01    0.09 
   6   1  -5   -0.02    0.07 
   6   1  -5    0.10    0.10 
   6   1  -5    0.05    0.09 
  -6  -1   5    0.19    0.11 
  -6  -1   5    0.04    0.08 
  -6  -1   5   -0.04    0.06 
   5   1  -5  158.45    3.04 
   5   1  -5  153.10    3.14 
  -5  -1   5  157.50    3.03 
  -5  -1   5  156.63    3.05 
   4   1  -5    4.01    0.16 
   4   1  -5    3.68    0.15 
   4   1  -5    3.42    0.18 
   4   1  -5    3.92    0.16 
  -4  -1   5    3.67    0.18 
  -4  -1   5    3.80    0.17 
  -4  -1   5    3.60    0.14 
   3   1  -5   56.13    1.14 
   3   1  -5   55.43    1.12 
   3   1  -5   55.08    1.17 
  -3  -1   5   56.04    1.12 
  -3  -1   5   56.07    1.17 
  -3  -1   5   55.63    1.11 
  -3  -1   5   55.11    1.13 
   2   1  -5    6.73    0.19 
   2   1  -5    6.62    0.21 
   2   1  -5    6.34    0.20 
  -2  -1   5    6.32    0.18 
  -2  -1   5    5.86    0.19 
  -2  -1   5    6.47    0.21 
  -2  -1   5    6.64    0.18 
   1   1  -5  213.46    4.02 
   1   1  -5  205.97    4.02 
   1   1  -5  207.98    4.13 
  -1  -1   5  211.21    4.17 
  -1  -1   5  199.01    4.12 
  -1  -1   5  214.13    4.01 
  -1  -1   5  209.98    4.13 
  -1  -1   5  201.21    4.02 
   0   1  -5   30.96    0.67 
   0   1  -5   31.17    0.67 
   0   1  -5   31.24    0.70 
   0   1  -5   31.22    0.69 
   0  -1   5   30.64    0.67 
   0  -1   5   31.74    0.68 
   0  -1   5   31.58    0.69 
   0  -1   5   32.25    0.67 
  -1   1  -5   52.59    1.07 
  -1   1  -5   52.44    1.07 
  -1   1  -5   51.67    1.10 
  -1   1  -5   50.17    1.11 
   1  -1   5   53.29    1.10 
   1  -1   5   50.95    1.07 
   1  -1   5   52.89    1.09 
   1  -1   5   52.92    1.07 
  -2   1  -5   11.57    0.31 
  -2   1  -5   11.83    0.33 
  -2   1  -5   11.67    0.31 
  -2   1  -5   11.69    0.31 
   2  -1   5   11.01    0.30 
   2  -1   5   11.84    0.32 
   2  -1   5   11.90    0.31 
   2  -1   5   12.22    0.31 
   2  -1   5   11.58    0.31 
  -3   1  -5    3.80    0.17 
  -3   1  -5    3.77    0.18 
  -3   1  -5    3.37    0.17 
  -3   1  -5    3.71    0.16 
   3  -1   5    3.67    0.16 
   3  -1   5    3.43    0.16 
   3  -1   5    3.53    0.17 
   3  -1   5    3.75    0.15 
   3  -1   5    3.49    0.16 
  -4   1  -5   15.66    0.40 
  -4   1  -5   15.60    0.40 
  -4   1  -5   15.61    0.44 
  -4   1  -5   15.62    0.41 
   4  -1   5   15.49    0.41 
   4  -1   5   15.55    0.39 
   4  -1   5   15.59    0.41 
   4  -1   5   15.88    0.41 
   4  -1   5   15.56    0.40 
  -5   1  -5    7.02    0.29 
  -5   1  -5    6.58    0.25 
  -5   1  -5    6.97    0.24 
   5  -1   5    6.77    0.25 
   5  -1   5    6.74    0.26 
   5  -1   5    6.73    0.22 
   5  -1   5    6.71    0.27 
  -6   1  -5    7.34    0.33 
  -6   1  -5    6.96    0.29 
   6  -1   5    7.46    0.27 
   6  -1   5    7.36    0.24 
   6  -1   5    7.71    0.30 
   6  -1   5    7.51    0.30 
   6  -1   5    7.47    0.31 
   7  -1   5   30.34    0.79 
   7  -1   5   30.85    0.68 
   7  -1   5   32.59    0.79 
   7  -1   5   30.69    0.73 
   7  -1   5   32.92    0.78 
   8  -1   5    0.39    0.12 
   8  -1   5    0.49    0.16 
   8   0  -5    8.27    0.46 
   7   0  -5    4.23    0.24 
   7   0  -5    4.54    0.34 
   7   0  -5    4.44    0.24 
   6   0  -5    0.45    0.08 
   6   0  -5    0.32    0.08 
   6   0  -5    0.35    0.11 
   6   0  -5    0.32    0.09 
   6   0  -5    0.38    0.14 
   5   0  -5    5.35    0.22 
   5   0  -5    5.21    0.18 
   5   0  -5    4.94    0.18 
  -5   0   5    5.37    0.22 
  -5   0   5    5.36    0.15 
   4   0  -5    3.42    0.14 
   4   0  -5    3.40    0.16 
   4   0  -5    3.41    0.14 
   4   0  -5    3.49    0.14 
  -4   0   5    3.34    0.16 
  -4   0   5    3.26    0.12 
  -4   0   5    3.19    0.14 
   3   0  -5   26.25    0.58 
   3   0  -5   27.56    0.58 
   3   0  -5   28.26    0.62 
   3   0  -5   27.17    0.58 
  -3   0   5   27.57    0.62 
  -3   0   5   27.87    0.57 
  -3   0   5   27.15    0.58 
   2   0  -5   68.78    1.35 
   2   0  -5   69.04    1.40 
   2   0  -5   65.87    1.35 
  -2   0   5   69.56    1.36 
  -2   0   5   66.56    1.36 
  -2   0   5   69.33    1.41 
  -2   0   5   66.01    1.35 
  -2   0   5   68.63    1.35 
   1   0  -5   28.73    0.63 
   1   0  -5   30.40    0.65 
   1   0  -5   29.55    0.62 
  -1   0   5   31.18    0.66 
  -1   0   5   30.56    0.63 
  -1   0   5   28.89    0.62 
  -1   0   5   27.34    0.62 
  -1   0   5   30.00    0.62 
   0   0  -5   86.01    1.71 
   0   0  -5   85.31    1.76 
   0   0  -5   88.29    1.77 
   0   0  -5   87.05    1.71 
   0   0   5   83.84    1.71 
   0   0   5   87.29    1.71 
   0   0   5   87.12    1.76 
   0   0   5   87.46    1.75 
  -1   0  -5    0.71    0.07 
  -1   0  -5    0.58    0.07 
  -1   0  -5    0.83    0.09 
  -1   0  -5    0.88    0.09 
   1   0   5    0.61    0.07 
   1   0   5    0.91    0.09 
   1   0   5    0.77    0.08 
   1   0   5    0.91    0.08 
   1   0   5    0.94    0.08 
  -2   0  -5  173.21    3.46 
  -2   0  -5  176.81    3.53 
  -2   0  -5  182.40    3.45 
  -2   0  -5  178.30    3.59 
   2   0   5  171.70    3.56 
   2   0   5  180.28    3.53 
   2   0   5  180.08    3.55 
   2   0   5  179.61    3.46 
   2   0   5  177.64    3.45 
  -3   0  -5   26.68    0.60 
  -3   0  -5   26.81    0.61 
  -3   0  -5   26.70    0.64 
  -3   0  -5   27.17    0.60 
   3   0   5   26.80    0.61 
   3   0   5   27.80    0.60 
   3   0   5   27.19    0.60 
   3   0   5   27.12    0.61 
  -4   0  -5   30.51    0.72 
  -4   0  -5   30.05    0.68 
  -4   0  -5   29.89    0.67 
  -4   0  -5   30.24    0.67 
   4   0   5   29.94    0.67 
   4   0   5   30.80    0.69 
   4   0   5   30.29    0.69 
   4   0   5   30.49    0.66 
   4   0   5   31.07    0.70 
  -5   0  -5    5.71    0.21 
  -5   0  -5    6.05    0.26 
  -5   0  -5    5.69    0.23 
   5   0   5    5.64    0.23 
   5   0   5    5.33    0.22 
   5   0   5    5.70    0.23 
   5   0   5    5.29    0.21 
   5   0   5    5.17    0.18 
  -6   0  -5   56.39    1.19 
   6   0   5   54.88    1.23 
   6   0   5   55.27    1.15 
   6   0   5   56.18    1.20 
   6   0   5   56.78    1.24 
   6   0   5   55.96    1.18 
  -7   0  -5    6.66    0.30 
   7   0   5    7.43    0.33 
   7   0   5    6.91    0.27 
   7   0   5    6.63    0.32 
   7   0   5    7.10    0.32 
   8   0   5    4.47    0.23 
   8   0   5    3.87    0.30 
   8  -1  -5    1.97    0.26 
   7  -1  -5   29.17    0.77 
   7  -1  -5   26.41    0.64 
   7  -1  -5   26.13    0.62 
   6  -1  -5   17.63    0.46 
   6  -1  -5   18.00    0.42 
   6  -1  -5   18.44    0.54 
   5  -1  -5   13.69    0.42 
   5  -1  -5   13.81    0.36 
   5  -1  -5   13.21    0.32 
   4  -1  -5   19.62    0.42 
   4  -1  -5   18.93    0.43 
   4  -1  -5   19.70    0.47 
   4  -1  -5   20.22    0.42 
  -4   1   5   20.00    0.48 
   3  -1  -5   53.25    1.06 
   3  -1  -5   54.92    1.06 
   3  -1  -5   54.44    1.12 
   3  -1  -5   50.53    1.08 
  -3   1   5   54.32    1.13 
  -3   1   5   53.62    1.06 
   2  -1  -5   65.01    1.34 
   2  -1  -5   63.16    1.29 
  -2   1   5   66.20    1.28 
  -2   1   5   63.96    1.28 
  -2   1   5   67.46    1.35 
   1  -1  -5   21.01    0.45 
   1  -1  -5   20.92    0.45 
   1  -1  -5   20.84    0.48 
  -1   1   5   21.84    0.45 
  -1   1   5   21.18    0.45 
  -1   1   5   19.99    0.44 
  -1   1   5   21.42    0.49 
   0  -1  -5   26.27    0.58 
   0  -1  -5   25.79    0.58 
   0  -1  -5   26.37    0.56 
   0  -1  -5   26.62    0.58 
   0  -1  -5   26.46    0.56 
   0   1   5   26.56    0.56 
   0   1   5   27.01    0.59 
   0   1   5   26.92    0.57 
   0   1   5   26.60    0.56 
  -1  -1  -5   15.82    0.38 
  -1  -1  -5   16.77    0.38 
  -1  -1  -5   15.48    0.36 
  -1  -1  -5   15.92    0.37 
   1   1   5   15.70    0.38 
   1   1   5   14.98    0.37 
   1   1   5   16.45    0.37 
   1   1   5   15.74    0.36 
  -2  -1  -5    1.37    0.10 
  -2  -1  -5    1.40    0.10 
  -2  -1  -5    1.30    0.09 
  -2  -1  -5    1.27    0.10 
   2   1   5    1.34    0.09 
   2   1   5    1.44    0.09 
   2   1   5    1.45    0.10 
   2   1   5    1.48    0.10 
   2   1   5    1.38    0.10 
  -3  -1  -5    9.74    0.26 
  -3  -1  -5    9.57    0.29 
  -3  -1  -5    9.85    0.26 
  -3  -1  -5    9.81    0.27 
   3   1   5    9.63    0.26 
   3   1   5    9.58    0.27 
   3   1   5    9.39    0.27 
   3   1   5    9.47    0.25 
   3   1   5    9.64    0.27 
  -4  -1  -5   10.31    0.32 
  -4  -1  -5   10.52    0.29 
  -4  -1  -5   10.55    0.29 
  -4  -1  -5   10.24    0.27 
   4   1   5   10.20    0.30 
   4   1   5   10.48    0.30 
   4   1   5   10.42    0.30 
   4   1   5   10.25    0.26 
   4   1   5   10.25    0.28 
  -5  -1  -5   44.08    0.94 
  -5  -1  -5   44.29    1.01 
  -5  -1  -5   45.20    0.96 
  -5  -1  -5   44.06    0.92 
   5   1   5   43.69    0.98 
   5   1   5   43.31    0.92 
   5   1   5   43.67    0.94 
   5   1   5   45.56    0.96 
   5   1   5   44.34    0.98 
  -6  -1  -5    6.16    0.25 
  -6  -1  -5    5.98    0.23 
   6   1   5    6.07    0.26 
   6   1   5    6.00    0.27 
   6   1   5    5.89    0.18 
   6   1   5    5.99    0.23 
   6   1   5    5.97    0.26 
   7   1   5   21.86    0.58 
   7   1   5   21.15    0.58 
   7   1   5   22.09    0.59 
   7   1   5   21.08    0.54 
   8   1   5    0.11    0.09 
   8   1   5    0.27    0.14 
   7  -2  -5   17.75    0.48 
   7  -2  -5   18.74    0.59 
   6  -2  -5    1.03    0.16 
   6  -2  -5    1.19    0.12 
   6  -2  -5    1.04    0.12 
   5  -2  -5   14.81    0.38 
   5  -2  -5   14.06    0.32 
   5  -2  -5   14.45    0.43 
   4  -2  -5    3.73    0.16 
   4  -2  -5    3.67    0.11 
   3  -2  -5    1.81    0.11 
   3  -2  -5    1.68    0.08 
   3  -2  -5    1.48    0.07 
   3  -2  -5    1.67    0.07 
  -3   2   5    1.45    0.11 
   2  -2  -5   33.77    0.69 
   2  -2  -5   32.04    0.67 
   2  -2  -5   33.46    0.67 
   2  -2  -5   33.25    0.72 
  -2   2   5   34.27    0.67 
  -2   2   5   32.39    0.67 
  -2   2   5   33.82    0.73 
   1  -2  -5   18.46    0.40 
   1  -2  -5   17.53    0.42 
   1  -2  -5   18.31    0.39 
   1  -2  -5   17.82    0.39 
  -1   2   5   18.04    0.39 
  -1   2   5   18.47    0.39 
  -1   2   5   18.27    0.43 
   0  -2  -5   41.74    0.85 
   0  -2  -5   40.30    0.82 
   0  -2  -5   41.22    0.84 
   0  -2  -5   39.55    0.85 
   0  -2  -5   40.16    0.82 
   0   2   5   39.32    0.82 
   0   2   5   40.67    0.86 
   0   2   5   41.02    0.83 
   0   2   5   40.22    0.82 
  -1  -2  -5   34.40    0.71 
  -1  -2  -5   34.24    0.73 
  -1  -2  -5   34.56    0.73 
  -1  -2  -5   34.73    0.72 
  -1  -2  -5   34.18    0.73 
   1   2   5   35.86    0.73 
   1   2   5   32.68    0.70 
   1   2   5   33.34    0.71 
   1   2   5   32.83    0.72 
   1   2   5   35.72    0.73 
  -2  -2  -5  137.59    2.70 
  -2  -2  -5  137.70    2.74 
  -2  -2  -5  137.30    2.72 
  -2  -2  -5  133.23    2.65 
   2   2   5  134.03    2.65 
   2   2   5  136.86    2.70 
   2   2   5  131.99    2.64 
   2   2   5  133.79    2.73 
   2   2   5  137.36    2.72 
  -3  -2  -5  100.45    2.08 
  -3  -2  -5  103.06    2.03 
  -3  -2  -5  102.94    2.01 
  -3  -2  -5  102.99    2.06 
   3   2   5  102.17    2.03 
   3   2   5   96.74    2.01 
   3   2   5  103.82    2.06 
   3   2   5   99.79    2.00 
   3   2   5   99.72    2.07 
  -4  -2  -5   14.15    0.39 
  -4  -2  -5   13.98    0.36 
  -4  -2  -5   14.32    0.34 
   4   2   5   14.27    0.36 
   4   2   5   14.44    0.33 
   4   2   5   14.27    0.37 
   4   2   5   14.37    0.37 
  -5  -2  -5   35.03    0.76 
  -5  -2  -5   34.86    0.81 
  -5  -2  -5   33.81    0.75 
  -5  -2  -5   34.08    0.71 
   5   2   5   33.46    0.71 
   5   2   5   33.82    0.74 
   5   2   5   33.56    0.76 
   5   2   5   33.59    0.77 
   5   2   5   33.59    0.78 
  -6  -2  -5   24.24    0.59 
  -6  -2  -5   24.10    0.58 
   6   2   5   24.09    0.60 
   6   2   5   24.87    0.60 
   6   2   5   24.72    0.58 
  -7  -2  -5    7.20    0.28 
  -7  -2  -5    7.40    0.30 
  -7  -2  -5    8.36    0.38 
   7   2   5    7.44    0.27 
   7   2   5    7.65    0.32 
   7   2   5    7.67    0.32 
   7   2   5    7.35    0.30 
   8   2   5    0.07    0.10 
   8   2   5    0.24    0.13 
   7  -3  -5   22.08    0.55 
   7  -3  -5   21.31    0.65 
   6  -3  -5   10.86    0.33 
   6  -3  -5   10.66    0.39 
   5  -3  -5    5.24    0.25 
   5  -3  -5    4.97    0.21 
   4  -3  -5   58.63    1.27 
   4  -3  -5   59.30    1.23 
   3  -3  -5    3.65    0.15 
   2  -3  -5  113.58    2.18 
   2  -3  -5  111.65    2.24 
   2  -3  -5  114.78    2.18 
   2  -3  -5  113.06    2.28 
   1  -3  -5    6.67    0.20 
   1  -3  -5    6.81    0.17 
   1  -3  -5    6.74    0.17 
  -1   3   5    6.71    0.17 
  -1   3   5    6.63    0.17 
  -1   3   5    6.54    0.20 
   0  -3  -5   18.81    0.44 
   0  -3  -5   19.53    0.43 
   0  -3  -5   19.21    0.41 
   0  -3  -5   18.69    0.43 
   0  -3  -5   19.30    0.42 
   0   3   5   19.78    0.45 
   0   3   5   19.78    0.42 
   0   3   5   19.61    0.42 
  -1  -3  -5    0.27    0.05 
  -1  -3  -5    0.40    0.05 
  -1  -3  -5    0.42    0.05 
  -1  -3  -5    0.31    0.05 
  -1  -3  -5    0.41    0.05 
   1   3   5    0.36    0.04 
   1   3   5    0.33    0.05 
   1   3   5    0.32    0.04 
   1   3   5    0.41    0.05 
   1   3   5    0.30    0.05 
  -2  -3  -5   23.55    0.52 
  -2  -3  -5   23.50    0.51 
  -2  -3  -5   23.70    0.51 
  -2  -3  -5   22.87    0.52 
   2   3   5   22.84    0.51 
   2   3   5   23.36    0.51 
   2   3   5   23.40    0.51 
   2   3   5   23.43    0.52 
   2   3   5   22.15    0.51 
  -3  -3  -5   79.40    1.65 
  -3  -3  -5   80.01    1.63 
  -3  -3  -5   80.19    1.60 
  -3  -3  -5   79.98    1.59 
  -3  -3  -5   79.45    1.60 
   3   3   5   79.10    1.60 
   3   3   5   79.46    1.63 
   3   3   5   78.57    1.63 
   3   3   5   78.61    1.59 
   3   3   5   78.22    1.58 
  -4  -3  -5    0.34    0.05 
  -4  -3  -5    0.31    0.07 
  -4  -3  -5    0.22    0.06 
  -4  -3  -5    0.28    0.07 
  -4  -3  -5    0.35    0.07 
   4   3   5    0.28    0.06 
   4   3   5    0.33    0.07 
   4   3   5    0.32    0.07 
   4   3   5    0.36    0.07 
  -5  -3  -5    3.13    0.16 
  -5  -3  -5    2.80    0.12 
  -5  -3  -5    3.18    0.17 
  -5  -3  -5    3.17    0.19 
  -5  -3  -5    3.11    0.17 
   5   3   5    3.22    0.18 
   5   3   5    3.17    0.16 
   5   3   5    3.53    0.17 
   5   3   5    3.24    0.18 
  -6  -3  -5    3.55    0.19 
  -6  -3  -5    3.86    0.20 
   6   3   5    3.28    0.20 
   6   3   5    3.64    0.21 
   6   3   5    3.47    0.19 
   6   3   5    3.47    0.18 
  -7  -3  -5   23.07    0.57 
  -7  -3  -5   22.68    0.57 
   7   3   5   21.85    0.59 
   7   3   5   22.79    0.60 
   7   3   5   21.77    0.60 
   7   3   5   22.58    0.56 
   8   3   5   12.39    0.38 
   8   3   5   12.27    0.44 
   7  -4  -5    0.37    0.15 
   7  -4  -5    0.51    0.17 
   6  -4  -5   19.47    0.56 
   6  -4  -5   19.34    0.50 
   5  -4  -5    0.26    0.09 
   5  -4  -5    0.11    0.10 
   4  -4  -5    9.88    0.29 
   4  -4  -5   10.02    0.31 
   3  -4  -5   22.78    0.54 
   3  -4  -5   23.66    0.54 
   2  -4  -5  111.02    2.21 
   2  -4  -5  113.12    2.26 
   2  -4  -5  112.04    2.16 
   1  -4  -5   43.39    0.92 
   1  -4  -5   42.74    0.86 
   1  -4  -5   42.63    0.88 
   1  -4  -5   43.70    0.86 
  -1   4   5   43.07    0.85 
  -1   4   5   43.03    0.86 
   0  -4  -5   25.06    0.54 
   0  -4  -5   25.17    0.53 
   0  -4  -5   25.62    0.54 
   0  -4  -5   25.41    0.55 
   0   4   5   25.67    0.53 
   0   4   5   25.39    0.54 
  -1  -4  -5  202.49    4.03 
  -1  -4  -5  199.44    3.93 
  -1  -4  -5  200.07    4.03 
  -1  -4  -5  201.90    3.97 
  -1  -4  -5  203.77    3.88 
   1   4   5  205.80    4.03 
   1   4   5  191.95    4.02 
   1   4   5  201.94    3.91 
   1   4   5  198.96    3.87 
  -2  -4  -5   37.23    0.78 
  -2  -4  -5   37.08    0.79 
  -2  -4  -5   37.63    0.79 
  -2  -4  -5   37.52    0.78 
  -2  -4  -5   36.63    0.78 
   2   4   5   36.76    0.79 
   2   4   5   37.22    0.78 
   2   4   5   36.59    0.78 
   2   4   5   36.82    0.78 
  -3  -4  -5  103.22    2.11 
  -3  -4  -5  102.38    2.06 
  -3  -4  -5  101.58    2.09 
  -3  -4  -5  104.16    2.05 
  -3  -4  -5  103.03    2.04 
   3   4   5  100.80    2.04 
   3   4   5  103.24    2.04 
   3   4   5  104.08    2.09 
   3   4   5  102.23    2.09 
  -4  -4  -5   19.78    0.43 
  -4  -4  -5   19.12    0.48 
  -4  -4  -5   19.09    0.47 
  -4  -4  -5   18.74    0.46 
   4   4   5   18.73    0.47 
   4   4   5   18.78    0.46 
   4   4   5   18.94    0.46 
   4   4   5   19.04    0.47 
  -5  -4  -5  144.03    2.89 
  -5  -4  -5  143.55    2.83 
  -5  -4  -5  144.04    2.94 
  -5  -4  -5  144.64    2.82 
  -5  -4  -5  141.24    2.82 
   5   4   5  140.66    2.90 
   5   4   5  139.87    2.92 
   5   4   5  143.29    2.82 
   5   4   5  142.40    2.83 
  -6  -4  -5    4.61    0.21 
  -6  -4  -5    4.51    0.24 
  -6  -4  -5    4.30    0.21 
  -6  -4  -5    4.54    0.22 
   6   4   5    4.56    0.23 
   6   4   5    4.66    0.21 
   6   4   5    4.72    0.24 
  -7  -4  -5    5.96    0.26 
  -7  -4  -5    6.08    0.28 
   7   4   5    6.19    0.25 
   7   4   5    6.31    0.31 
   7   4   5    6.04    0.29 
   7   4   5    6.01    0.26 
   8   4   5    1.98    0.18 
   8   4   5    1.99    0.24 
   8   4   5    1.85    0.20 
   7  -5  -5    1.97    0.23 
   7  -5  -5    1.43    0.18 
   6  -5  -5   32.68    0.76 
   5  -5  -5    0.31    0.11 
   5  -5  -5    0.36    0.10 
   4  -5  -5   50.51    1.08 
   4  -5  -5   50.08    1.08 
   3  -5  -5    1.48    0.13 
   3  -5  -5    1.51    0.12 
   2  -5  -5   18.51    0.39 
   2  -5  -5   18.65    0.46 
   2  -5  -5   18.81    0.38 
   2  -5  -5   18.58    0.42 
   2  -5  -5   18.35    0.39 
   1  -5  -5   13.74    0.31 
   1  -5  -5   14.04    0.31 
   1  -5  -5   13.58    0.35 
   1  -5  -5   13.21    0.30 
   1  -5  -5   13.69    0.31 
  -1   5   5   13.80    0.30 
  -1   5   5   13.96    0.31 
   0  -5  -5   64.38    1.29 
   0  -5  -5   62.87    1.26 
   0  -5  -5   63.17    1.28 
   0  -5  -5   61.76    1.31 
   0  -5  -5   64.04    1.27 
   0   5   5   63.91    1.26 
   0   5   5   63.44    1.27 
  -1  -5  -5   34.38    0.75 
  -1  -5  -5   33.50    0.72 
  -1  -5  -5   34.23    0.73 
  -1  -5  -5   33.07    0.72 
  -1  -5  -5   34.67    0.74 
   1   5   5   34.73    0.72 
   1   5   5   34.57    0.72 
   1   5   5   34.00    0.71 
   1   5   5   35.67    0.73 
  -2  -5  -5   12.06    0.31 
  -2  -5  -5   11.36    0.30 
  -2  -5  -5   11.73    0.30 
  -2  -5  -5   11.90    0.31 
  -2  -5  -5   11.84    0.30 
   2   5   5   12.01    0.29 
   2   5   5   11.78    0.31 
   2   5   5   12.01    0.31 
   2   5   5   12.38    0.31 
  -3  -5  -5    5.69    0.20 
  -3  -5  -5    5.41    0.19 
  -3  -5  -5    5.94    0.21 
  -3  -5  -5    5.54    0.20 
  -3  -5  -5    5.69    0.18 
   3   5   5    5.69    0.20 
   3   5   5    5.84    0.19 
   3   5   5    5.79    0.20 
  -4  -5  -5    0.23    0.07 
  -4  -5  -5    0.22    0.07 
  -4  -5  -5    0.16    0.06 
  -4  -5  -5    0.20    0.05 
  -4  -5  -5    0.12    0.08 
   4   5   5    0.18    0.07 
   4   5   5    0.19    0.07 
   4   5   5    0.10    0.07 
   4   5   5    0.22    0.07 
  -5  -5  -5    4.18    0.20 
  -5  -5  -5    4.15    0.21 
  -5  -5  -5    3.95    0.19 
  -5  -5  -5    3.56    0.20 
  -5  -5  -5    3.87    0.15 
   5   5   5    3.59    0.18 
   5   5   5    4.21    0.21 
   5   5   5    4.13    0.20 
   5   5   5    4.07    0.19 
  -6  -5  -5   36.99    0.88 
  -6  -5  -5   37.26    0.84 
  -6  -5  -5   37.49    0.84 
  -6  -5  -5   35.81    0.76 
  -6  -5  -5   36.69    0.84 
   6   5   5   36.21    0.85 
   6   5   5   37.07    0.87 
   6   5   5   37.01    0.85 
  -7  -5  -5    0.41    0.12 
  -7  -5  -5    0.58    0.15 
  -7  -5  -5    0.53    0.12 
  -7  -5  -5    0.35    0.11 
   7   5   5    0.53    0.13 
   7   5   5    0.49    0.13 
   7   5   5    0.38    0.11 
   7   5   5    0.47    0.11 
   8   5   5    5.21    0.31 
   8   5   5    5.10    0.25 
   6  -6  -5    5.26    0.30 
   5  -6  -5    0.46    0.11 
   5  -6  -5    0.29    0.11 
   4  -6  -5    7.90    0.25 
   4  -6  -5    7.74    0.28 
   3  -6  -5   60.39    1.27 
   3  -6  -5   57.97    1.19 
   3  -6  -5   60.31    1.23 
   2  -6  -5    0.15    0.07 
   2  -6  -5    0.24    0.05 
   2  -6  -5    0.25    0.05 
   2  -6  -5    0.33    0.05 
   1  -6  -5   23.48    0.51 
   1  -6  -5   23.95    0.52 
   1  -6  -5   23.28    0.51 
  -1   6   5   24.12    0.50 
  -1   6   5   24.03    0.50 
   0  -6  -5    0.29    0.05 
   0  -6  -5    0.27    0.06 
   0  -6  -5    0.21    0.05 
   0   6   5    0.30    0.04 
  -1  -6  -5   84.70    1.69 
  -1  -6  -5   84.11    1.69 
  -1  -6  -5   84.88    1.71 
  -1  -6  -5   85.18    1.73 
   1   6   5   84.49    1.70 
   1   6   5   83.90    1.69 
   1   6   5   87.27    1.71 
   1   6   5   83.02    1.68 
  -2  -6  -5    0.73    0.09 
  -2  -6  -5    0.44    0.06 
  -2  -6  -5    0.52    0.07 
  -2  -6  -5    0.69    0.07 
   2   6   5    0.63    0.07 
   2   6   5    0.60    0.07 
   2   6   5    0.58    0.06 
   2   6   5    0.53    0.07 
  -3  -6  -5   29.03    0.64 
  -3  -6  -5   29.37    0.65 
  -3  -6  -5   28.15    0.65 
  -3  -6  -5   28.79    0.66 
   3   6   5   28.77    0.64 
   3   6   5   29.05    0.65 
   3   6   5   28.39    0.65 
   3   6   5   29.30    0.65 
  -4  -6  -5    7.47    0.26 
  -4  -6  -5    7.64    0.23 
  -4  -6  -5    8.05    0.26 
  -4  -6  -5    7.64    0.25 
   4   6   5    7.82    0.26 
   4   6   5    7.89    0.26 
   4   6   5    7.56    0.26 
   4   6   5    7.72    0.25 
  -5  -6  -5   11.38    0.36 
  -5  -6  -5   11.86    0.35 
  -5  -6  -5   11.23    0.29 
  -5  -6  -5   11.14    0.34 
  -5  -6  -5   12.02    0.36 
   5   6   5   11.39    0.35 
   5   6   5   11.18    0.34 
   5   6   5   11.23    0.34 
   5   6   5   11.83    0.36 
  -6  -6  -5    1.29    0.15 
  -6  -6  -5    1.58    0.12 
  -6  -6  -5    1.25    0.14 
  -6  -6  -5    1.23    0.14 
  -6  -6  -5    1.68    0.17 
   6   6   5    1.22    0.14 
   6   6   5    1.60    0.19 
   6   6   5    1.79    0.18 
   6   6   5    1.42    0.15 
  -7  -6  -5   10.45    0.35 
  -7  -6  -5    9.61    0.35 
  -7  -6  -5   10.81    0.39 
  -7  -6  -5   10.07    0.38 
   7   6   5   10.29    0.36 
   7   6   5   10.43    0.40 
   7   6   5    9.78    0.35 
   7   6   5   10.39    0.39 
  -8  -6  -5    3.55    0.28 
   8   6   5    3.40    0.24 
   8   6   5    3.79    0.31 
   6  -7  -5    9.60    0.37 
   6  -7  -5    9.56    0.38 
   5  -7  -5   16.87    0.48 
   5  -7  -5   16.59    0.44 
   4  -7  -5   65.32    1.33 
   4  -7  -5   63.27    1.29 
   3  -7  -5   11.13    0.27 
   3  -7  -5   11.56    0.35 
   2  -7  -5   46.90    0.98 
   2  -7  -5   46.93    0.95 
   2  -7  -5   47.87    0.95 
  -2   7   5   46.84    0.94 
  -2   7   5   48.25    0.94 
   1  -7  -5   18.11    0.41 
   1  -7  -5   17.69    0.41 
   1  -7  -5   18.02    0.42 
  -1   7   5   18.05    0.41 
  -1   7   5   18.05    0.40 
   0  -7  -5   32.47    0.71 
   0  -7  -5   32.81    0.71 
   0  -7  -5   34.14    0.72 
   0   7   5   33.14    0.70 
  -1  -7  -5   19.23    0.45 
  -1  -7  -5   18.52    0.45 
   1   7   5   18.03    0.44 
   1   7   5   19.90    0.44 
   1   7   5   19.21    0.45 
  -2  -7  -5    0.31    0.06 
  -2  -7  -5    0.29    0.07 
  -2  -7  -5    0.31    0.05 
  -2  -7  -5    0.28    0.07 
   2   7   5    0.25    0.07 
   2   7   5    0.38    0.07 
   2   7   5    0.37    0.07 
   2   7   5    0.38    0.05 
  -3  -7  -5   15.57    0.41 
  -3  -7  -5   15.77    0.39 
  -3  -7  -5   15.61    0.41 
  -3  -7  -5   15.23    0.40 
   3   7   5   15.55    0.40 
   3   7   5   15.46    0.38 
   3   7   5   15.81    0.41 
  -4  -7  -5    0.47    0.09 
  -4  -7  -5    0.71    0.09 
  -4  -7  -5    0.67    0.10 
   4   7   5    0.72    0.09 
   4   7   5    0.72    0.09 
   4   7   5    0.63    0.10 
   4   7   5    0.81    0.11 
  -5  -7  -5    0.97    0.10 
  -5  -7  -5    0.88    0.13 
  -5  -7  -5    1.01    0.13 
  -5  -7  -5    1.00    0.13 
  -5  -7  -5    0.92    0.12 
   5   7   5    0.89    0.12 
   5   7   5    0.79    0.12 
   5   7   5    0.93    0.12 
  -6  -7  -5   29.81    0.74 
  -6  -7  -5   30.95    0.75 
  -6  -7  -5   31.57    0.75 
  -6  -7  -5   31.00    0.67 
   6   7   5   30.85    0.74 
   6   7   5   30.53    0.76 
   6   7   5   30.96    0.74 
   6   7   5   31.39    0.76 
  -7  -7  -5    1.92    0.21 
  -7  -7  -5    1.71    0.17 
   7   7   5    2.12    0.20 
   7   7   5    2.02    0.22 
   7   7   5    1.94    0.21 
  -8  -7  -5    8.21    0.36 
   8   7   5    8.10    0.40 
   8   7   5    7.38    0.34 
   6  -8  -5    5.23    0.36 
   5  -8  -5    6.48    0.25 
   5  -8  -5    6.25    0.22 
   5  -8  -5    6.46    0.33 
   4  -8  -5    3.09    0.15 
   4  -8  -5    3.26    0.24 
   3  -8  -5   33.23    0.71 
   2  -8  -5    2.27    0.14 
   2  -8  -5    2.32    0.13 
  -2   8   5    2.35    0.11 
  -2   8   5    2.40    0.12 
   1  -8  -5   28.22    0.63 
   1  -8  -5   28.37    0.63 
   1  -8  -5   29.42    0.64 
  -1   8   5   29.06    0.61 
  -1   8   5   29.09    0.62 
   0  -8  -5   37.06    0.81 
   0  -8  -5   37.96    0.81 
   0  -8  -5   38.14    0.82 
   0   8   5   38.10    0.80 
  -1  -8  -5   71.95    1.49 
  -1  -8  -5   72.22    1.49 
  -1  -8  -5   73.59    1.52 
   1   8   5   72.37    1.48 
   1   8   5   76.49    1.49 
   1   8   5   71.24    1.48 
  -2  -8  -5   58.90    1.22 
  -2  -8  -5   57.11    1.22 
  -2  -8  -5   59.29    1.25 
   2   8   5   60.30    1.23 
   2   8   5   57.98    1.19 
   2   8   5   56.67    1.22 
   2   8   5   58.26    1.22 
  -3  -8  -5   10.77    0.32 
  -3  -8  -5   10.91    0.33 
  -3  -8  -5   10.82    0.33 
   3   8   5   10.88    0.33 
   3   8   5   11.02    0.32 
   3   8   5   11.01    0.33 
   3   8   5   10.83    0.29 
  -4  -8  -5   10.13    0.33 
  -4  -8  -5    9.87    0.33 
  -4  -8  -5    9.43    0.32 
   4   8   5    9.78    0.32 
   4   8   5    9.86    0.33 
   4   8   5    9.89    0.30 
   4   8   5    9.73    0.31 
  -5  -8  -5    9.86    0.35 
  -5  -8  -5   10.21    0.31 
  -5  -8  -5   10.01    0.33 
  -5  -8  -5   10.06    0.35 
   5   8   5   10.07    0.35 
   5   8   5    9.83    0.33 
   5   8   5    9.87    0.34 
  -6  -8  -5   20.13    0.56 
  -6  -8  -5   20.30    0.56 
  -6  -8  -5   19.10    0.54 
  -6  -8  -5   19.74    0.49 
   6   8   5   21.08    0.57 
   6   8   5   20.31    0.56 
  -7  -8  -5    0.38    0.10 
  -7  -8  -5    0.38    0.10 
  -7  -8  -5    0.25    0.18 
  -7  -8  -5    0.31    0.13 
   7   8   5    0.23    0.15 
   7   8   5    0.24    0.12 
   7   8   5    0.59    0.20 
  -8  -8  -5    5.44    0.35 
   8   8   5    5.31    0.32 
   8   8   5    5.87    0.37 
   5  -9  -5   27.83    0.74 
   4  -9  -5    5.59    0.23 
   4  -9  -5    5.69    0.31 
   3  -9  -5   25.74    0.56 
   3  -9  -5   25.90    0.56 
   3  -9  -5   26.05    0.59 
   2  -9  -5    0.72    0.08 
   2  -9  -5    0.79    0.09 
   2  -9  -5    0.69    0.09 
  -2   9   5    0.87    0.09 
   1  -9  -5    6.25    0.21 
   1  -9  -5    6.49    0.23 
  -1   9   5    6.53    0.22 
   0  -9  -5    0.87    0.10 
   0  -9  -5    0.94    0.10 
  -1  -9  -5   21.03    0.52 
  -1  -9  -5   21.50    0.52 
  -1  -9  -5   21.25    0.53 
   1   9   5   21.51    0.51 
   1   9   5   21.92    0.49 
   1   9   5   20.77    0.52 
  -2  -9  -5    6.88    0.25 
  -2  -9  -5    7.27    0.26 
  -2  -9  -5    7.09    0.26 
   2   9   5    7.22    0.24 
   2   9   5    6.77    0.24 
   2   9   5    6.76    0.26 
  -3  -9  -5    0.03    0.10 
  -3  -9  -5    0.05    0.07 
  -3  -9  -5    0.13    0.09 
   3   9   5    0.11    0.10 
   3   9   5    0.14    0.07 
   3   9   5    0.14    0.08 
   3   9   5    0.08    0.08 
  -4  -9  -5   11.93    0.37 
  -4  -9  -5   12.35    0.39 
  -4  -9  -5   12.63    0.39 
   4   9   5   12.43    0.40 
   4   9   5   12.69    0.36 
   4   9   5   12.66    0.39 
  -5  -9  -5    2.94    0.23 
  -5  -9  -5    3.38    0.24 
  -5  -9  -5    3.14    0.21 
   5   9   5    3.46    0.23 
   5   9   5    3.40    0.24 
   5   9   5    3.59    0.25 
  -6  -9  -5   14.75    0.48 
  -6  -9  -5   14.28    0.45 
  -6  -9  -5   15.43    0.49 
  -6  -9  -5   14.36    0.41 
   6   9   5   14.93    0.49 
   6   9   5   14.47    0.47 
   6   9   5   14.80    0.47 
  -7  -9  -5    6.89    0.33 
  -7  -9  -5    6.62    0.39 
  -7  -9  -5    6.55    0.27 
  -7  -9  -5    7.16    0.30 
   7   9   5    6.97    0.35 
   7   9   5    6.66    0.40 
   7   9   5    7.16    0.37 
  -8  -9  -5   11.58    0.47 
   8   9   5   11.55    0.47 
   8   9   5   12.66    0.52 
   4 -10  -5    0.99    0.14 
   3 -10  -5    0.36    0.11 
   3 -10  -5    0.45    0.08 
   3 -10  -5    0.43    0.10 
   2 -10  -5    4.63    0.19 
   2 -10  -5    4.95    0.21 
   2 -10  -5    4.54    0.22 
  -2  10   5    4.49    0.20 
  -2  10   5    4.48    0.18 
   1 -10  -5   16.36    0.42 
   1 -10  -5   16.54    0.43 
   1 -10  -5   15.37    0.41 
  -1  10   5   16.09    0.39 
  -1  10   5   16.35    0.42 
   0 -10  -5   58.66    1.26 
   0 -10  -5   58.85    1.23 
   0 -10  -5   58.52    1.24 
  -1 -10  -5    0.55    0.10 
  -1 -10  -5    0.56    0.09 
   1  10   5    0.62    0.08 
   1  10   5    0.55    0.12 
  -2 -10  -5   19.13    0.50 
  -2 -10  -5   18.62    0.49 
  -2 -10  -5   18.02    0.49 
   2  10   5   18.16    0.50 
   2  10   5   19.30    0.47 
   2  10   5   18.00    0.48 
  -3 -10  -5    0.54    0.10 
  -3 -10  -5    0.35    0.11 
   3  10   5    0.44    0.12 
   3  10   5    0.33    0.08 
   3  10   5    0.33    0.10 
   3  10   5    0.38    0.10 
  -4 -10  -5   43.33    1.00 
  -4 -10  -5   43.70    1.00 
  -4 -10  -5   45.07    1.00 
   4  10   5   43.91    1.00 
   4  10   5   43.05    0.96 
   4  10   5   40.78    0.98 
   4  10   5   43.84    0.99 
  -5 -10  -5    0.32    0.13 
  -5 -10  -5    0.40    0.16 
  -5 -10  -5    0.26    0.11 
   5  10   5    0.37    0.14 
   5  10   5    0.49    0.13 
   5  10   5    0.23    0.13 
  -6 -10  -5    6.62    0.37 
  -6 -10  -5    6.43    0.37 
  -6 -10  -5    6.65    0.32 
   6  10   5    6.53    0.34 
   6  10   5    6.46    0.36 
   6  10   5    5.92    0.36 
  -7 -10  -5    1.00    0.16 
  -7 -10  -5    0.89    0.18 
  -7 -10  -5    1.20    0.25 
   7  10   5    0.69    0.17 
   7  10   5    0.91    0.20 
   3 -11  -5   17.93    0.45 
   3 -11  -5   18.25    0.50 
   3 -11  -5   18.02    0.48 
   2 -11  -5    0.80    0.11 
   2 -11  -5    0.91    0.13 
   2 -11  -5    1.01    0.14 
  -2  11   5    1.11    0.15 
   1 -11  -5   32.75    0.73 
   1 -11  -5   32.95    0.76 
   1 -11  -5   32.06    0.74 
  -1  11   5   31.09    0.74 
   0 -11  -5   11.52    0.35 
   0 -11  -5   11.53    0.36 
   0 -11  -5   11.08    0.35 
  -1 -11  -5    0.41    0.13 
  -1 -11  -5    0.30    0.10 
  -1 -11  -5    0.34    0.10 
   1  11   5    0.56    0.14 
   1  11   5    0.25    0.08 
  -2 -11  -5    0.92    0.15 
  -2 -11  -5    0.79    0.12 
  -2 -11  -5    0.67    0.12 
   2  11   5    1.04    0.13 
   2  11   5    1.09    0.16 
   2  11   5    1.29    0.14 
  -3 -11  -5    0.02    0.09 
  -3 -11  -5    0.06    0.11 
   3  11   5   -0.01    0.13 
   3  11   5    0.10    0.07 
   3  11   5   -0.01    0.10 
  -4 -11  -5    9.04    0.37 
  -4 -11  -5    9.58    0.38 
  -4 -11  -5    8.53    0.33 
   4  11   5    9.47    0.31 
   4  11   5    9.68    0.36 
   4  11   5    9.36    0.39 
   4  11   5    8.55    0.32 
  -5 -11  -5    2.38    0.23 
  -5 -11  -5    1.77    0.20 
  -5 -11  -5    2.59    0.28 
   5  11   5    2.00    0.25 
   5  11   5    2.73    0.30 
   5  11   5    2.44    0.29 
  -6 -11  -5    0.29    0.17 
  -6 -11  -5    0.31    0.15 
   6  11   5    0.52    0.20 
   6  11   5    0.34    0.19 
   6  11   5    0.56    0.17 
  -7 -11  -5    1.38    0.21 
  -7 -11  -5    2.56    0.32 
   7  11   5    1.80    0.26 
   7  11   5    1.97    0.25 
   2 -12  -5   15.98    0.47 
   2 -12  -5   14.56    0.42 
   1 -12  -5    2.45    0.24 
   1 -12  -5    1.92    0.17 
   0 -12  -5   10.40    0.37 
   0 -12  -5   10.28    0.37 
   0 -12  -5   10.17    0.35 
  -1 -12  -5    0.05    0.13 
  -1 -12  -5    0.07    0.10 
  -1 -12  -5    0.06    0.10 
   1  12   5    0.09    0.14 
  -2 -12  -5   38.78    0.93 
  -2 -12  -5   40.89    0.94 
  -2 -12  -5   39.60    0.93 
   2  12   5   38.62    0.94 
  -3 -12  -5    0.29    0.16 
  -3 -12  -5    0.30    0.12 
  -3 -12  -5    0.40    0.12 
   3  12   5    0.37    0.17 
   3  12   5    0.14    0.12 
  -4 -12  -5   17.45    0.55 
  -4 -12  -5   16.83    0.51 
   4  12   5   17.84    0.58 
   4  12   5   17.64    0.47 
  -5 -12  -5    1.97    0.22 
  -5 -12  -5    2.55    0.24 
   5  12   5    2.17    0.25 
   5  12   5    2.29    0.28 
  -6 -12  -5    8.54    0.41 
  -6 -12  -5    7.90    0.46 
   6  12   5    9.46    0.49 
   6  12   5    8.49    0.43 
   1 -13  -5    6.13    0.35 
   1 -13  -5    6.14    0.27 
   0 -13  -5   19.63    0.58 
   0 -13  -5   19.76    0.54 
  -1 -13  -5   -0.30    0.11 
  -1 -13  -5    0.03    0.11 
  -2 -13  -5    1.64    0.18 
  -2 -13  -5    1.69    0.18 
  -3 -13  -5    0.82    0.14 
  -3 -13  -5    0.53    0.17 
   3  13   5    0.53    0.22 
  -4 -13  -5    0.21    0.12 
  -4 -13  -5    0.22    0.18 
   4  13   5    0.45    0.23 
  -5 -13  -5    4.29    0.39 
   5  13   5    4.51    0.45 
  -2 -14  -5    0.93    0.19 
   1   9  -6    0.41    0.28 
  -1  -9   6    0.07    0.18 
  -1  -9   6    0.15    0.26 
   0   9  -6    2.68    0.32 
   0  -9   6    2.83    0.31 
   4   8  -6    1.48    0.24 
  -4  -8   6    1.75    0.25 
   3   8  -6    7.34    0.46 
  -3  -8   6    7.33    0.52 
  -3  -8   6    7.60    0.44 
   2   8  -6    0.38    0.19 
   2   8  -6    0.42    0.22 
  -2  -8   6    0.72    0.24 
  -2  -8   6    0.39    0.17 
   1   8  -6   11.18    0.51 
   1   8  -6   11.49    0.49 
  -1  -8   6   11.13    0.47 
  -1  -8   6   11.70    0.51 
  -1  -8   6   11.91    0.45 
   0   8  -6    0.19    0.19 
   0  -8   6    0.37    0.13 
   0  -8   6    0.23    0.18 
   0  -8   6    0.09    0.20 
  -1   8  -6   24.00    0.74 
   1  -8   6   25.53    0.71 
   1  -8   6   24.67    0.71 
   1  -8   6   24.72    0.67 
   2  -8   6    0.14    0.13 
   2  -8   6   -0.10    0.13 
   5   7  -6    5.27    0.39 
  -5  -7   6    5.43    0.40 
   4   7  -6    9.77    0.46 
  -4  -7   6   10.13    0.45 
  -4  -7   6    9.92    0.54 
   3   7  -6    1.05    0.21 
   3   7  -6    1.30    0.22 
  -3  -7   6    1.19    0.24 
  -3  -7   6    1.04    0.19 
   2   7  -6   14.97    0.50 
   2   7  -6   14.15    0.51 
  -2  -7   6   14.79    0.48 
  -2  -7   6   14.60    0.49 
  -2  -7   6   14.51    0.53 
   1   7  -6    7.87    0.39 
   1   7  -6    8.51    0.38 
   1   7  -6    8.27    0.36 
  -1  -7   6    8.35    0.40 
  -1  -7   6    7.83    0.35 
  -1  -7   6    8.38    0.36 
   0   7  -6    1.84    0.20 
   0   7  -6    1.37    0.20 
   0   7  -6    1.14    0.16 
   0  -7   6    1.13    0.16 
   0  -7   6    1.26    0.16 
   0  -7   6    1.33    0.20 
  -1   7  -6    6.14    0.37 
  -1   7  -6    5.57    0.32 
  -1   7  -6    6.12    0.35 
   1  -7   6    6.86    0.30 
   1  -7   6    6.05    0.34 
   1  -7   6    6.01    0.33 
  -2   7  -6    3.08    0.28 
   2  -7   6    3.19    0.24 
   2  -7   6    3.12    0.33 
   2  -7   6    3.12    0.27 
  -3   7  -6    4.62    0.41 
   3  -7   6    4.86    0.31 
   4  -7   6    5.22    0.32 
   5   6  -6    1.50    0.19 
  -5  -6   6    1.62    0.19 
   4   6  -6    1.44    0.18 
   4   6  -6    1.37    0.18 
  -4  -6   6    1.50    0.19 
  -4  -6   6    1.59    0.23 
   3   6  -6    4.68    0.31 
   3   6  -6    4.33    0.30 
  -3  -6   6    4.88    0.26 
  -3  -6   6    4.80    0.28 
  -3  -6   6    5.85    0.38 
  -3  -6   6    4.43    0.29 
   2   6  -6    0.09    0.14 
   2   6  -6    0.06    0.12 
   2   6  -6    0.00    0.14 
  -2  -6   6    0.09    0.09 
  -2  -6   6    0.08    0.15 
  -2  -6   6    0.02    0.12 
  -2  -6   6   -0.01    0.11 
   1   6  -6   19.17    0.52 
   1   6  -6   19.19    0.52 
  -1  -6   6   18.07    0.50 
  -1  -6   6   18.59    0.52 
  -1  -6   6   16.79    0.50 
  -1  -6   6   18.28    0.54 
   0   6  -6   21.23    0.56 
   0   6  -6   20.79    0.59 
   0  -6   6   20.42    0.58 
   0  -6   6   20.80    0.55 
   0  -6   6   21.86    0.57 
  -1   6  -6   23.03    0.63 
  -1   6  -6   23.29    0.60 
   1  -6   6   22.71    0.61 
   1  -6   6   23.56    0.60 
   1  -6   6   22.24    0.59 
   1  -6   6   22.30    0.60 
  -2   6  -6   12.28    0.45 
  -2   6  -6   11.76    0.44 
  -2   6  -6   12.46    0.40 
   2  -6   6   12.69    0.42 
   2  -6   6   13.01    0.43 
  -3   6  -6   13.89    0.52 
  -3   6  -6   15.22    0.50 
   3  -6   6   13.89    0.45 
   4  -6   6    6.18    0.30 
   5  -6   6    2.30    0.24 
  -6  -5   6    2.96    0.34 
   5   5  -6   11.16    0.44 
   5   5  -6   11.91    0.42 
  -5  -5   6   10.84    0.41 
  -5  -5   6   11.43    0.36 
   4   5  -6   19.01    0.55 
   4   5  -6   18.89    0.56 
   4   5  -6   19.15    0.53 
  -4  -5   6   18.56    0.52 
  -4  -5   6   19.37    0.58 
  -4  -5   6   18.37    0.52 
   3   5  -6   72.14    1.48 
   3   5  -6   68.56    1.55 
   3   5  -6   69.33    1.52 
  -3  -5   6   72.56    1.53 
  -3  -5   6   70.94    1.47 
  -3  -5   6   70.06    1.52 
   2   5  -6    0.84    0.14 
   2   5  -6    0.96    0.15 
   2   5  -6    1.01    0.15 
  -2  -5   6    0.96    0.16 
  -2  -5   6    0.82    0.12 
   1   5  -6    5.97    0.27 
   1   5  -6    5.81    0.29 
   1   5  -6    5.55    0.27 
  -1  -5   6    5.54    0.24 
  -1  -5   6    5.66    0.28 
  -1  -5   6    5.94    0.26 
   0   5  -6    1.45    0.18 
   0   5  -6    1.40    0.17 
   0   5  -6    1.34    0.15 
   0   5  -6    1.60    0.18 
   0  -5   6    1.79    0.19 
   0  -5   6    1.53    0.18 
   0  -5   6    1.24    0.15 
  -1   5  -6   28.17    0.70 
  -1   5  -6   28.48    0.68 
  -1   5  -6   28.49    0.72 
  -1   5  -6   27.66    0.70 
   1  -5   6   27.87    0.69 
   1  -5   6   28.36    0.69 
   1  -5   6   28.14    0.68 
  -2   5  -6   10.72    0.38 
  -2   5  -6   10.92    0.36 
   2  -5   6   10.94    0.37 
   2  -5   6   10.98    0.35 
  -3   5  -6    0.02    0.14 
  -3   5  -6   -0.11    0.10 
  -3   5  -6    0.09    0.15 
   3  -5   6    0.08    0.09 
   3  -5   6   -0.10    0.10 
   3  -5   6    0.06    0.14 
  -4   5  -6    1.34    0.19 
  -4   5  -6    1.19    0.21 
   4  -5   6    1.59    0.22 
   4  -5   6    1.12    0.16 
   4  -5   6    1.25    0.14 
   5  -5   6    0.54    0.12 
   5  -5   6    0.55    0.16 
   5  -5   6    0.61    0.17 
   6   4  -6    1.47    0.21 
   5   4  -6    1.17    0.17 
   5   4  -6    1.16    0.17 
   5   4  -6    1.19    0.15 
   4   4  -6    0.04    0.11 
   4   4  -6    0.17    0.12 
   4   4  -6    0.09    0.12 
  -4  -4   6    0.22    0.11 
  -4  -4   6    0.31    0.08 
  -4  -4   6    0.15    0.15 
  -4  -4   6    0.36    0.11 
   3   4  -6    1.31    0.15 
   3   4  -6    1.61    0.19 
   3   4  -6    1.50    0.16 
  -3  -4   6    1.38    0.16 
  -3  -4   6    1.71    0.16 
  -3  -4   6    1.39    0.14 
  -3  -4   6    1.16    0.14 
   2   4  -6   16.66    0.44 
   2   4  -6   16.43    0.46 
  -2  -4   6   15.75    0.44 
  -2  -4   6   16.21    0.42 
  -2  -4   6   16.73    0.47 
  -2  -4   6   16.09    0.45 
   1   4  -6    7.16    0.27 
   1   4  -6    7.54    0.27 
   1   4  -6    7.29    0.29 
  -1  -4   6    7.51    0.28 
  -1  -4   6    7.04    0.26 
  -1  -4   6    6.91    0.29 
  -1  -4   6    7.17    0.25 
   0   4  -6    0.91    0.11 
   0   4  -6    0.66    0.11 
   0  -4   6    1.07    0.11 
   0  -4   6    0.92    0.12 
   0  -4   6    0.85    0.12 
  -1   4  -6   20.16    0.50 
  -1   4  -6   18.61    0.50 
  -1   4  -6   19.59    0.51 
   1  -4   6   19.04    0.49 
   1  -4   6   18.50    0.50 
   1  -4   6   19.42    0.49 
  -2   4  -6   29.55    0.76 
  -2   4  -6   30.20    0.72 
  -2   4  -6   28.89    0.74 
  -2   4  -6   31.46    0.71 
   2  -4   6   31.40    0.72 
   2  -4   6   30.01    0.71 
   2  -4   6   30.17    0.71 
  -3   4  -6   10.05    0.34 
  -3   4  -6    9.99    0.35 
   3  -4   6   10.41    0.36 
   3  -4   6    9.62    0.32 
   3  -4   6   10.00    0.33 
  -4   4  -6   18.57    0.51 
  -4   4  -6   17.99    0.51 
  -4   4  -6   18.47    0.56 
   4  -4   6   17.53    0.49 
   4  -4   6   18.14    0.49 
   4  -4   6   18.42    0.54 
   4  -4   6   17.43    0.49 
  -5   4  -6    0.58    0.15 
   5  -4   6    0.39    0.13 
   5  -4   6    0.34    0.13 
   5  -4   6    0.60    0.12 
   5  -4   6    0.43    0.19 
   6  -4   6    9.78    0.35 
   6  -4   6   10.26    0.40 
   6  -4   6   10.08    0.40 
   7   3  -6   21.36    0.58 
   7   3  -6   22.83    0.73 
   6   3  -6    1.20    0.17 
   6   3  -6    0.96    0.16 
  -6  -3   6    1.05    0.18 
   5   3  -6   43.38    1.03 
   5   3  -6   45.38    0.97 
   5   3  -6   45.32    1.01 
  -5  -3   6   45.93    1.01 
  -5  -3   6   46.08    1.02 
   4   3  -6    0.41    0.11 
   4   3  -6    0.35    0.10 
   4   3  -6    0.40    0.12 
  -4  -3   6    0.46    0.07 
  -4  -3   6    0.46    0.13 
  -4  -3   6    0.55    0.10 
  -4  -3   6    0.36    0.08 
   3   3  -6   32.16    0.77 
   3   3  -6   32.20    0.79 
   3   3  -6   34.30    0.75 
  -3  -3   6   34.09    0.78 
  -3  -3   6   34.03    0.74 
  -3  -3   6   33.76    0.74 
  -3  -3   6   34.47    0.78 
  -3  -3   6   33.37    0.75 
   2   3  -6    4.22    0.20 
   2   3  -6    3.80    0.21 
   2   3  -6    3.88    0.21 
  -2  -3   6    4.07    0.19 
  -2  -3   6    4.31    0.18 
  -2  -3   6    3.82    0.20 
  -2  -3   6    3.98    0.21 
   1   3  -6  101.26    2.04 
   1   3  -6  100.90    1.98 
   1   3  -6   95.83    2.05 
   1   3  -6   95.81    1.99 
  -1  -3   6   98.82    1.97 
  -1  -3   6  101.49    2.03 
  -1  -3   6   98.52    2.03 
  -1  -3   6   95.24    1.99 
   0   3  -6   19.05    0.52 
   0   3  -6   20.22    0.51 
   0   3  -6   19.93    0.49 
   0   3  -6   21.65    0.51 
   0  -3   6   19.85    0.50 
   0  -3   6   19.84    0.49 
   0  -3   6   19.77    0.50 
  -1   3  -6    4.42    0.21 
  -1   3  -6    3.94    0.20 
  -1   3  -6    4.19    0.21 
   1  -3   6    4.35    0.20 
   1  -3   6    4.38    0.18 
   1  -3   6    4.14    0.20 
  -2   3  -6    2.81    0.20 
  -2   3  -6    3.31    0.19 
  -2   3  -6    3.02    0.19 
  -2   3  -6    3.58    0.20 
   2  -3   6    3.17    0.16 
   2  -3   6    2.99    0.19 
   2  -3   6    3.22    0.19 
  -3   3  -6   14.71    0.42 
  -3   3  -6   14.80    0.44 
  -3   3  -6   14.75    0.42 
  -3   3  -6   15.27    0.44 
   3  -3   6   14.51    0.41 
   3  -3   6   15.04    0.40 
   3  -3   6   13.95    0.42 
   3  -3   6   15.17    0.43 
  -4   3  -6    9.31    0.33 
  -4   3  -6   10.11    0.34 
   4  -3   6    9.75    0.33 
   4  -3   6   10.11    0.33 
   4  -3   6    9.69    0.31 
   4  -3   6   10.21    0.37 
   4  -3   6    9.70    0.32 
  -5   3  -6    2.54    0.24 
  -5   3  -6    2.39    0.29 
   5  -3   6    2.26    0.21 
   5  -3   6    2.72    0.20 
   5  -3   6    2.38    0.23 
   5  -3   6    2.77    0.20 
   5  -3   6    2.76    0.22 
   6  -3   6    1.24    0.16 
   6  -3   6    1.22    0.16 
   6  -3   6    1.27    0.14 
   7  -3   6   20.61    0.60 
   7   2  -6    5.92    0.34 
   7   2  -6    5.12    0.34 
   7   2  -6    5.86    0.39 
   7   2  -6    5.80    0.26 
   6   2  -6    0.06    0.12 
   6   2  -6   -0.02    0.14 
   6   2  -6    0.36    0.14 
   6   2  -6    0.37    0.10 
  -6  -2   6    0.19    0.14 
  -6  -2   6    0.29    0.13 
   5   2  -6    6.34    0.26 
   5   2  -6    6.27    0.28 
   5   2  -6    6.65    0.26 
  -5  -2   6    6.57    0.27 
  -5  -2   6    6.01    0.21 
  -5  -2   6    6.25    0.28 
   4   2  -6    0.18    0.08 
   4   2  -6    0.15    0.10 
   4   2  -6   -0.02    0.08 
  -4  -2   6    0.22    0.09 
  -4  -2   6    0.19    0.10 
   3   2  -6    2.12    0.17 
   3   2  -6    2.09    0.16 
   3   2  -6    2.12    0.15 
  -3  -2   6    2.19    0.15 
  -3  -2   6    1.74    0.13 
  -3  -2   6    2.05    0.18 
  -3  -2   6    2.20    0.12 
  -3  -2   6    2.23    0.14 
   2   2  -6   50.61    1.09 
   2   2  -6   52.74    1.07 
   2   2  -6   51.30    1.12 
  -2  -2   6   50.89    1.06 
  -2  -2   6   50.08    1.09 
  -2  -2   6   50.92    1.09 
  -2  -2   6   52.88    1.11 
  -2  -2   6   53.10    1.08 
   1   2  -6    0.65    0.10 
   1   2  -6    0.52    0.09 
   1   2  -6    0.72    0.10 
   1   2  -6    0.58    0.10 
  -1  -2   6    0.74    0.09 
  -1  -2   6    0.48    0.07 
  -1  -2   6    0.56    0.09 
  -1  -2   6    0.62    0.10 
   0   2  -6   24.23    0.55 
   0   2  -6   22.48    0.57 
   0   2  -6   25.79    0.58 
   0   2  -6   23.51    0.56 
   0  -2   6   23.08    0.55 
   0  -2   6   24.17    0.57 
  -1   2  -6    0.52    0.09 
  -1   2  -6    0.81    0.10 
  -1   2  -6    0.63    0.09 
  -1   2  -6    0.49    0.09 
   1  -2   6    0.46    0.07 
   1  -2   6    0.60    0.09 
   1  -2   6    0.62    0.09 
  -2   2  -6   86.88    1.84 
  -2   2  -6   88.22    1.79 
  -2   2  -6   89.93    1.80 
  -2   2  -6   87.59    1.86 
   2  -2   6   88.25    1.84 
   2  -2   6   89.53    1.83 
   2  -2   6   90.81    1.80 
   2  -2   6   87.90    1.79 
  -3   2  -6    5.36    0.23 
  -3   2  -6    4.87    0.23 
  -3   2  -6    5.04    0.22 
  -3   2  -6    5.17    0.22 
   3  -2   6    5.17    0.22 
   3  -2   6    4.81    0.20 
   3  -2   6    5.04    0.20 
   3  -2   6    5.38    0.24 
   3  -2   6    5.06    0.21 
  -4   2  -6   77.96    1.64 
  -4   2  -6   78.71    1.61 
  -4   2  -6   78.59    1.70 
  -4   2  -6   76.72    1.62 
   4  -2   6   78.48    1.63 
   4  -2   6   80.42    1.63 
   4  -2   6   75.58    1.65 
   4  -2   6   77.83    1.64 
  -5   2  -6    0.32    0.14 
  -5   2  -6    0.43    0.11 
  -5   2  -6    0.44    0.13 
   5  -2   6    0.40    0.10 
   5  -2   6    0.30    0.10 
   5  -2   6    0.37    0.10 
   5  -2   6    0.45    0.10 
   5  -2   6    0.30    0.14 
  -6   2  -6   42.49    0.99 
   6  -2   6   45.19    1.02 
   6  -2   6   42.79    0.98 
   6  -2   6   44.62    1.04 
   6  -2   6   45.57    0.98 
   7  -2   6    4.19    0.24 
   7  -2   6    4.57    0.30 
   7   1  -6    8.98    0.32 
   7   1  -6    9.97    0.31 
   7   1  -6    9.29    0.38 
   7   1  -6   10.52    0.49 
   6   1  -6    4.46    0.20 
   6   1  -6    4.30    0.22 
   6   1  -6    3.96    0.23 
   6   1  -6    4.48    0.26 
   6   1  -6    4.26    0.33 
  -6  -1   6    4.37    0.22 
  -6  -1   6    4.41    0.26 
   5   1  -6   16.18    0.40 
   5   1  -6   16.16    0.41 
   5   1  -6   15.65    0.40 
   5   1  -6   15.53    0.44 
  -5  -1   6   14.79    0.37 
  -5  -1   6   16.90    0.41 
  -5  -1   6   15.84    0.44 
   4   1  -6   17.88    0.47 
   4   1  -6   17.68    0.44 
  -4  -1   6   18.11    0.47 
  -4  -1   6   18.56    0.45 
  -4  -1   6   18.19    0.42 
   3   1  -6   40.59    0.90 
   3   1  -6   40.36    0.85 
   3   1  -6   39.46    0.87 
  -3  -1   6   41.12    0.85 
  -3  -1   6   41.62    0.83 
  -3  -1   6   42.00    0.90 
  -3  -1   6   40.20    0.87 
  -3  -1   6   40.76    0.83 
   2   1  -6   13.09    0.36 
   2   1  -6   12.74    0.35 
   2   1  -6   13.95    0.34 
  -2  -1   6   13.65    0.32 
  -2  -1   6   13.63    0.36 
  -2  -1   6   12.91    0.33 
  -2  -1   6   12.55    0.34 
  -2  -1   6   12.58    0.33 
   1   1  -6    0.14    0.07 
   1   1  -6    0.17    0.06 
   1   1  -6   -0.02    0.06 
  -1  -1   6    0.11    0.07 
  -1  -1   6    0.14    0.05 
  -1  -1   6    0.04    0.05 
  -1  -1   6    0.34    0.07 
  -1  -1   6    0.15    0.05 
   0   1  -6   25.12    0.57 
   0   1  -6   25.53    0.57 
   0   1  -6   25.78    0.59 
   0   1  -6   24.60    0.59 
   0  -1   6   24.65    0.57 
   0  -1   6   25.25    0.57 
   0  -1   6   25.29    0.59 
   0  -1   6   25.48    0.57 
  -1   1  -6    4.97    0.20 
  -1   1  -6    5.43    0.20 
  -1   1  -6    5.28    0.21 
  -1   1  -6    5.24    0.20 
   1  -1   6    5.39    0.20 
   1  -1   6    5.03    0.18 
   1  -1   6    5.34    0.19 
   1  -1   6    5.19    0.20 
  -2   1  -6    1.08    0.11 
  -2   1  -6    0.98    0.12 
  -2   1  -6    1.10    0.13 
  -2   1  -6    0.91    0.10 
   2  -1   6    0.82    0.09 
   2  -1   6    0.95    0.10 
   2  -1   6    0.86    0.09 
   2  -1   6    0.97    0.10 
   2  -1   6    1.15    0.13 
  -3   1  -6   11.14    0.32 
  -3   1  -6   10.85    0.33 
  -3   1  -6   10.82    0.34 
  -3   1  -6   10.78    0.32 
   3  -1   6   10.57    0.31 
   3  -1   6   10.45    0.31 
   3  -1   6   11.04    0.32 
   3  -1   6   11.15    0.31 
   3  -1   6   10.96    0.33 
  -4   1  -6    5.75    0.23 
  -4   1  -6    5.57    0.23 
  -4   1  -6    5.56    0.22 
  -4   1  -6    5.26    0.25 
   4  -1   6    5.48    0.22 
   4  -1   6    5.33    0.20 
   4  -1   6    5.54    0.23 
   4  -1   6    5.50    0.22 
   4  -1   6    5.37    0.25 
  -5   1  -6   25.30    0.61 
  -5   1  -6   25.56    0.62 
   5  -1   6   25.15    0.64 
   5  -1   6   25.83    0.63 
   5  -1   6   25.03    0.61 
   5  -1   6   25.56    0.60 
   5  -1   6   25.09    0.64 
  -6   1  -6   19.95    0.54 
  -6   1  -6   20.43    0.61 
   6  -1   6   20.97    0.58 
   6  -1   6   19.36    0.56 
   6  -1   6   20.73    0.53 
   6  -1   6   20.34    0.55 
   7  -1   6    8.08    0.34 
   7  -1   6    7.85    0.30 
   7   0  -6    6.69    0.33 
   7   0  -6    7.17    0.43 
   6   0  -6    0.45    0.15 
   6   0  -6    0.21    0.12 
   6   0  -6    0.24    0.09 
   6   0  -6    0.39    0.11 
   6   0  -6    0.29    0.09 
   5   0  -6   11.89    0.31 
   5   0  -6   12.24    0.36 
   5   0  -6   11.83    0.31 
   5   0  -6   11.38    0.31 
  -5   0   6   11.81    0.36 
  -5   0   6   11.96    0.30 
   4   0  -6    9.68    0.30 
   4   0  -6    9.84    0.27 
   4   0  -6    9.73    0.27 
  -4   0   6    9.58    0.30 
  -4   0   6    9.42    0.27 
  -4   0   6    9.24    0.24 
   3   0  -6    0.64    0.08 
   3   0  -6    0.50    0.08 
  -3   0   6    0.63    0.06 
  -3   0   6    0.49    0.08 
  -3   0   6    0.52    0.09 
   2   0  -6   11.33    0.30 
   2   0  -6   11.96    0.30 
   2   0  -6   11.78    0.33 
  -2   0   6   12.14    0.27 
  -2   0   6   11.59    0.32 
  -2   0   6   11.35    0.27 
  -2   0   6   12.00    0.29 
   1   0  -6    1.58    0.12 
   1   0  -6    1.90    0.12 
   1   0  -6    1.24    0.10 
  -1   0   6    1.53    0.09 
  -1   0   6    1.51    0.10 
   0   0  -6   67.81    1.42 
   0   0  -6   68.48    1.42 
   0   0  -6   68.19    1.38 
   0   0  -6   69.51    1.38 
   0   0   6   66.71    1.37 
   0   0   6   69.15    1.41 
   0   0   6   67.72    1.42 
   0   0   6   68.78    1.38 
  -1   0  -6  123.81    2.42 
  -1   0  -6  123.61    2.42 
  -1   0  -6  123.85    2.48 
  -1   0  -6  117.03    2.51 
   1   0   6  120.37    2.41 
   1   0   6  124.44    2.48 
   1   0   6  124.12    2.48 
   1   0   6  125.71    2.42 
  -2   0  -6   41.07    0.87 
  -2   0  -6   40.88    0.89 
  -2   0  -6   40.15    0.87 
  -2   0  -6   41.68    0.91 
   2   0   6   41.47    0.88 
   2   0   6   39.40    0.88 
   2   0   6   41.85    0.89 
   2   0   6   41.20    0.87 
  -3   0  -6   33.28    0.73 
  -3   0  -6   32.62    0.73 
  -3   0  -6   33.49    0.77 
   3   0   6   33.06    0.73 
   3   0   6   32.87    0.72 
   3   0   6   33.59    0.75 
   3   0   6   32.02    0.73 
   3   0   6   31.96    0.73 
  -4   0  -6   14.12    0.42 
  -4   0  -6   13.94    0.37 
  -4   0  -6   14.50    0.39 
  -4   0  -6   14.26    0.39 
   4   0   6   13.75    0.39 
   4   0   6   14.59    0.37 
   4   0   6   14.09    0.40 
   4   0   6   13.87    0.38 
   4   0   6   13.81    0.37 
  -5   0  -6   55.01    1.15 
  -5   0  -6   54.87    1.16 
  -5   0  -6   55.22    1.15 
   5   0   6   50.51    1.16 
   5   0   6   55.14    1.18 
   5   0   6   54.51    1.14 
   5   0   6   52.60    1.19 
   5   0   6   54.20    1.17 
  -6   0  -6   13.74    0.40 
  -6   0  -6   13.72    0.46 
  -6   0  -6   13.44    0.41 
   6   0   6   14.46    0.45 
   6   0   6   13.26    0.39 
   6   0   6   13.69    0.41 
   6   0   6   13.45    0.42 
   6   0   6   13.35    0.36 
   7   0   6   14.83    0.38 
   7   0   6   14.86    0.43 
   7   0   6   14.77    0.47 
   7   0   6   15.69    0.51 
   8   0   6    2.70    0.28 
   8   0   6    2.63    0.22 
   7  -1  -6   14.03    0.44 
   7  -1  -6   14.64    0.55 
   6  -1  -6    8.83    0.32 
   6  -1  -6    8.88    0.38 
   6  -1  -6    8.20    0.27 
   5  -1  -6    2.57    0.14 
   5  -1  -6    2.70    0.18 
   4  -1  -6   92.27    1.91 
   4  -1  -6   96.04    1.82 
   4  -1  -6   93.15    1.83 
  -4   1   6   93.52    1.92 
  -4   1   6   91.18    1.82 
   3  -1  -6    0.16    0.06 
   3  -1  -6    0.23    0.07 
   3  -1  -6    0.17    0.06 
  -3   1   6    0.22    0.06 
  -3   1   6    0.17    0.07 
  -3   1   6    0.35    0.05 
   2  -1  -6   24.07    0.56 
   2  -1  -6   24.53    0.52 
   2  -1  -6   22.87    0.52 
  -2   1   6   23.44    0.52 
  -2   1   6   24.76    0.51 
   1  -1  -6   11.66    0.29 
   1  -1  -6   11.85    0.29 
   1  -1  -6   11.38    0.31 
  -1   1   6   11.94    0.28 
  -1   1   6   12.03    0.29 
  -1   1   6   11.67    0.32 
  -1   1   6   10.87    0.27 
   0  -1  -6  110.82    2.17 
   0  -1  -6  109.55    2.23 
   0  -1  -6  113.43    2.25 
   0  -1  -6  110.24    2.17 
   0   1   6  108.96    2.17 
   0   1   6  108.74    2.16 
   0   1   6  110.71    2.22 
   0   1   6  110.76    2.23 
  -1  -1  -6    4.19    0.16 
  -1  -1  -6    4.36    0.16 
  -1  -1  -6    4.47    0.17 
  -1  -1  -6    4.44    0.17 
   1   1   6    4.15    0.16 
   1   1   6    4.35    0.16 
   1   1   6    4.40    0.16 
   1   1   6    4.33    0.16 
  -2  -1  -6   26.57    0.61 
  -2  -1  -6   26.76    0.59 
  -2  -1  -6   26.57    0.59 
   2   1   6   26.55    0.60 
   2   1   6   25.14    0.59 
   2   1   6   25.74    0.58 
   2   1   6   26.41    0.59 
   2   1   6   25.59    0.59 
  -3  -1  -6    0.37    0.08 
  -3  -1  -6    0.38    0.07 
  -3  -1  -6    0.27    0.07 
  -3  -1  -6    0.37    0.08 
   3   1   6    0.42    0.08 
   3   1   6    0.34    0.06 
   3   1   6    0.28    0.07 
   3   1   6    0.38    0.08 
   3   1   6    0.44    0.08 
  -4  -1  -6   13.96    0.40 
  -4  -1  -6   13.69    0.37 
  -4  -1  -6   13.34    0.35 
  -4  -1  -6   13.71    0.36 
   4   1   6   13.06    0.34 
   4   1   6   13.78    0.36 
   4   1   6   13.50    0.37 
   4   1   6   13.75    0.38 
   4   1   6   13.57    0.37 
  -5  -1  -6    2.11    0.16 
  -5  -1  -6    1.89    0.17 
  -5  -1  -6    1.82    0.14 
   5   1   6    1.97    0.19 
   5   1   6    1.93    0.16 
   5   1   6    2.06    0.13 
   5   1   6    1.95    0.15 
   5   1   6    2.07    0.19 
  -6  -1  -6    0.19    0.09 
  -6  -1  -6    0.05    0.11 
   6   1   6    0.06    0.11 
   6   1   6    0.04    0.07 
   6   1   6    0.12    0.10 
   6   1   6    0.02    0.08 
   6   1   6    0.07    0.10 
  -7  -1  -6   12.18    0.41 
   7   1   6   12.10    0.44 
   7   1   6   13.37    0.42 
   7   1   6   12.36    0.38 
   7   1   6   12.48    0.44 
   8   1   6    5.16    0.25 
   8   1   6    5.09    0.32 
   7  -2  -6    2.14    0.19 
   7  -2  -6    2.85    0.35 
   6  -2  -6    0.72    0.13 
   6  -2  -6    0.69    0.09 
   6  -2  -6    0.82    0.17 
   5  -2  -6    1.08    0.12 
   5  -2  -6    1.38    0.11 
   4  -2  -6   16.82    0.43 
   3  -2  -6   18.49    0.46 
   3  -2  -6   19.20    0.41 
   3  -2  -6   18.49    0.41 
  -3   2   6   18.88    0.40 
  -3   2   6   18.82    0.47 
  -3   2   6   19.47    0.40 
   2  -2  -6   86.16    1.70 
   2  -2  -6   86.32    1.77 
   2  -2  -6   86.07    1.70 
   2  -2  -6   88.82    1.75 
  -2   2   6   83.71    1.70 
  -2   2   6   87.72    1.79 
  -2   2   6   88.59    1.70 
   1  -2  -6    8.72    0.23 
   1  -2  -6    8.74    0.23 
   1  -2  -6    8.56    0.25 
   1  -2  -6    8.80    0.23 
  -1   2   6    9.09    0.26 
  -1   2   6    8.56    0.20 
  -1   2   6    8.26    0.20 
  -1   2   6    8.65    0.22 
  -1   2   6    8.84    0.23 
   0  -2  -6    6.37    0.19 
   0  -2  -6    6.08    0.20 
   0  -2  -6    6.21    0.19 
   0  -2  -6    6.07    0.18 
   0  -2  -6    6.35    0.19 
   0   2   6    6.42    0.18 
   0   2   6    6.22    0.18 
   0   2   6    6.40    0.20 
  -1  -2  -6  257.17    4.90 
  -1  -2  -6  256.39    4.94 
  -1  -2  -6  253.40    5.12 
  -1  -2  -6  249.15    5.07 
  -1  -2  -6  256.38    5.07 
   1   2   6  249.73    4.88 
   1   2   6  255.05    4.93 
   1   2   6  256.51    5.06 
   1   2   6  261.22    5.05 
   1   2   6  242.44    5.06 
  -2  -2  -6    8.38    0.25 
  -2  -2  -6    8.51    0.24 
  -2  -2  -6    8.74    0.24 
  -2  -2  -6    8.26    0.25 
   2   2   6    8.23    0.24 
   2   2   6    8.72    0.25 
   2   2   6    8.56    0.24 
   2   2   6    8.11    0.24 
   2   2   6    8.67    0.24 
  -3  -2  -6   89.41    1.80 
  -3  -2  -6   89.55    1.79 
  -3  -2  -6   87.49    1.82 
  -3  -2  -6   91.59    1.87 
  -3  -2  -6   88.69    1.84 
   3   2   6   90.30    1.85 
   3   2   6   89.78    1.85 
   3   2   6   91.27    1.81 
   3   2   6   90.53    1.82 
   3   2   6   88.66    1.79 
  -4  -2  -6    0.28    0.07 
  -4  -2  -6    0.36    0.08 
  -4  -2  -6    0.45    0.07 
  -4  -2  -6    0.31    0.08 
   4   2   6    0.39    0.08 
   4   2   6    0.29    0.07 
   4   2   6    0.35    0.06 
   4   2   6    0.33    0.08 
   4   2   6    0.36    0.09 
  -5  -2  -6   88.88    1.81 
  -5  -2  -6   90.39    1.83 
  -5  -2  -6   90.12    1.81 
   5   2   6   89.24    1.80 
   5   2   6   90.14    1.83 
   5   2   6   86.51    1.86 
   5   2   6   90.00    1.87 
   5   2   6   88.86    1.80 
  -6  -2  -6   11.43    0.36 
  -6  -2  -6   11.54    0.30 
  -6  -2  -6   11.55    0.36 
   6   2   6   11.37    0.37 
   6   2   6   11.00    0.34 
   6   2   6   11.30    0.36 
   6   2   6   11.70    0.38 
  -7  -2  -6    5.76    0.30 
   7   2   6    5.80    0.29 
   7   2   6    5.77    0.29 
   7   2   6    6.02    0.25 
   7   2   6    5.64    0.32 
   8   2   6    0.63    0.15 
   8   2   6    0.60    0.11 
   7  -3  -6    1.43    0.22 
   7  -3  -6    0.89    0.17 
   6  -3  -6   36.47    0.79 
   6  -3  -6   39.51    0.95 
   6  -3  -6   39.64    0.87 
   5  -3  -6    9.12    0.34 
   5  -3  -6    8.37    0.21 
   5  -3  -6    9.02    0.29 
   4  -3  -6   52.99    1.13 
   4  -3  -6   52.71    1.07 
   3  -3  -6   10.03    0.24 
   3  -3  -6   10.34    0.30 
   2  -3  -6   50.34    1.00 
   2  -3  -6   51.44    1.00 
   2  -3  -6   50.12    1.06 
   2  -3  -6   50.21    1.02 
  -2   3   6   47.73    0.99 
   1  -3  -6   36.96    0.81 
   1  -3  -6   37.14    0.76 
   1  -3  -6   38.26    0.79 
   1  -3  -6   37.69    0.77 
  -1   3   6   38.08    0.77 
  -1   3   6   36.99    0.76 
  -1   3   6   37.98    0.82 
   0  -3  -6    4.57    0.15 
   0  -3  -6    4.86    0.15 
   0  -3  -6    4.46    0.17 
   0  -3  -6    4.27    0.15 
   0  -3  -6    4.61    0.15 
   0   3   6    4.62    0.17 
   0   3   6    4.65    0.14 
   0   3   6    4.45    0.15 
  -1  -3  -6   29.13    0.63 
  -1  -3  -6   29.85    0.64 
  -1  -3  -6   29.71    0.65 
  -1  -3  -6   28.83    0.62 
  -1  -3  -6   29.73    0.65 
   1   3   6   30.06    0.64 
   1   3   6   29.76    0.63 
   1   3   6   28.75    0.62 
   1   3   6   27.91    0.63 
   1   3   6   30.24    0.66 
  -2  -3  -6    1.36    0.11 
  -2  -3  -6    1.43    0.10 
  -2  -3  -6    1.18    0.10 
  -2  -3  -6    1.27    0.10 
  -2  -3  -6    1.12    0.10 
   2   3   6    1.24    0.10 
   2   3   6    1.17    0.10 
   2   3   6    1.28    0.10 
   2   3   6    1.39    0.10 
   2   3   6    1.31    0.10 
  -3  -3  -6   30.49    0.70 
  -3  -3  -6   31.21    0.67 
  -3  -3  -6   30.49    0.69 
  -3  -3  -6   30.17    0.67 
  -3  -3  -6   30.69    0.68 
   3   3   6   30.37    0.68 
   3   3   6   31.03    0.68 
   3   3   6   31.19    0.69 
   3   3   6   30.50    0.67 
  -4  -3  -6    0.79    0.08 
  -4  -3  -6    0.72    0.09 
  -4  -3  -6    0.76    0.10 
  -4  -3  -6    0.65    0.08 
  -4  -3  -6    0.67    0.08 
   4   3   6    0.85    0.09 
   4   3   6    0.53    0.08 
   4   3   6    0.67    0.09 
   4   3   6    0.81    0.10 
   4   3   6    0.50    0.07 
  -5  -3  -6    5.84    0.20 
  -5  -3  -6    6.13    0.26 
  -5  -3  -6    5.82    0.24 
  -5  -3  -6    5.95    0.23 
   5   3   6    5.82    0.23 
   5   3   6    6.24    0.23 
   5   3   6    6.08    0.24 
   5   3   6    6.29    0.25 
  -6  -3  -6   15.59    0.37 
  -6  -3  -6   15.92    0.44 
  -6  -3  -6   15.21    0.43 
   6   3   6   15.97    0.45 
   6   3   6   15.50    0.42 
   6   3   6   15.26    0.45 
   6   3   6   15.30    0.44 
  -7  -3  -6    4.43    0.27 
   7   3   6    4.08    0.29 
   7   3   6    4.01    0.25 
   7   3   6    4.33    0.25 
   7   3   6    4.17    0.22 
   8   3   6   10.76    0.40 
   8   3   6   10.02    0.35 
   7  -4  -6    0.32    0.17 
   7  -4  -6    0.43    0.20 
   6  -4  -6   13.76    0.41 
   6  -4  -6   13.99    0.47 
   5  -4  -6   -0.05    0.11 
   5  -4  -6    0.06    0.10 
   4  -4  -6    4.26    0.21 
   4  -4  -6    4.16    0.20 
   3  -4  -6   10.66    0.31 
   3  -4  -6   10.44    0.24 
   2  -4  -6    2.80    0.10 
   2  -4  -6    2.86    0.10 
   2  -4  -6    2.83    0.11 
   2  -4  -6    3.04    0.15 
   1  -4  -6   29.55    0.62 
   1  -4  -6   28.48    0.66 
   1  -4  -6   29.23    0.60 
   1  -4  -6   29.72    0.63 
   1  -4  -6   28.98    0.62 
  -1   4   6   30.36    0.61 
  -1   4   6   28.82    0.60 
   0  -4  -6    7.14    0.22 
   0  -4  -6    7.43    0.21 
   0  -4  -6    7.33    0.20 
   0  -4  -6    7.12    0.20 
   0  -4  -6    7.36    0.20 
   0   4   6    7.32    0.19 
   0   4   6    7.37    0.20 
  -1  -4  -6   65.59    1.31 
  -1  -4  -6   64.69    1.29 
  -1  -4  -6   62.23    1.27 
  -1  -4  -6   61.98    1.31 
  -1  -4  -6   63.05    1.31 
   1   4   6   64.11    1.27 
   1   4   6   63.04    1.28 
   1   4   6   62.67    1.30 
   1   4   6   63.75    1.30 
  -2  -4  -6    0.83    0.09 
  -2  -4  -6    0.58    0.07 
  -2  -4  -6    0.85    0.10 
  -2  -4  -6    0.72    0.08 
  -2  -4  -6    0.61    0.07 
   2   4   6    0.68    0.07 
   2   4   6    0.45    0.06 
   2   4   6    0.55    0.07 
   2   4   6    0.56    0.06 
  -3  -4  -6   32.78    0.71 
  -3  -4  -6   31.69    0.72 
  -3  -4  -6   32.18    0.69 
  -3  -4  -6   30.91    0.69 
   3   4   6   31.78    0.71 
   3   4   6   32.00    0.70 
   3   4   6   31.88    0.70 
   3   4   6   30.74    0.69 
  -4  -4  -6   13.28    0.38 
  -4  -4  -6   14.22    0.34 
  -4  -4  -6   13.88    0.37 
  -4  -4  -6   13.91    0.37 
  -4  -4  -6   13.96    0.39 
   4   4   6   13.61    0.37 
   4   4   6   13.73    0.37 
   4   4   6   13.79    0.37 
   4   4   6   13.42    0.36 
  -5  -4  -6    3.96    0.19 
  -5  -4  -6    4.08    0.22 
  -5  -4  -6    4.40    0.20 
  -5  -4  -6    4.20    0.20 
  -5  -4  -6    4.23    0.16 
   5   4   6    4.16    0.20 
   5   4   6    4.23    0.20 
   5   4   6    4.30    0.19 
   5   4   6    4.17    0.21 
  -6  -4  -6    7.89    0.22 
  -6  -4  -6    8.24    0.32 
  -6  -4  -6    8.27    0.30 
  -6  -4  -6    7.84    0.29 
  -6  -4  -6    7.90    0.29 
   6   4   6    7.80    0.28 
   6   4   6    7.72    0.28 
   6   4   6    8.10    0.32 
  -7  -4  -6    5.32    0.29 
  -7  -4  -6    6.26    0.28 
   7   4   6    5.32    0.28 
   7   4   6    5.30    0.27 
   7   4   6    5.51    0.31 
   7   4   6    5.63    0.25 
   8   4   6    5.12    0.26 
   8   4   6    5.20    0.30 
   7  -5  -6    6.98    0.44 
   6  -5  -6   21.79    0.61 
   5  -5  -6    7.32    0.30 
   5  -5  -6    7.79    0.29 
   4  -5  -6   61.24    1.31 
   4  -5  -6   61.52    1.31 
   3  -5  -6    7.52    0.24 
   3  -5  -6    7.70    0.26 
   2  -5  -6   25.97    0.61 
   2  -5  -6   26.20    0.54 
   2  -5  -6   26.44    0.56 
   2  -5  -6   26.70    0.55 
   1  -5  -6   87.25    1.80 
   1  -5  -6   87.83    1.74 
   1  -5  -6   89.66    1.79 
   1  -5  -6   90.40    1.83 
   1  -5  -6   89.71    1.75 
  -1   5   6   89.50    1.74 
  -1   5   6   89.03    1.73 
   0  -5  -6    5.83    0.18 
   0  -5  -6    5.67    0.16 
   0  -5  -6    5.94    0.20 
   0  -5  -6    5.75    0.18 
   0  -5  -6    5.85    0.17 
   0   5   6    5.76    0.15 
  -1  -5  -6    4.60    0.16 
  -1  -5  -6    4.46    0.17 
  -1  -5  -6    4.62    0.15 
  -1  -5  -6    4.48    0.16 
  -1  -5  -6    4.59    0.17 
   1   5   6    4.89    0.16 
   1   5   6    4.88    0.16 
   1   5   6    4.83    0.16 
   1   5   6    4.85    0.15 
  -2  -5  -6    0.65    0.07 
  -2  -5  -6    0.79    0.09 
  -2  -5  -6    0.95    0.10 
  -2  -5  -6    0.87    0.10 
  -2  -5  -6    0.53    0.06 
   2   5   6    0.86    0.09 
   2   5   6    0.77    0.09 
   2   5   6    0.90    0.10 
   2   5   6    0.89    0.09 
  -3  -5  -6    4.66    0.18 
  -3  -5  -6    4.36    0.18 
  -3  -5  -6    4.32    0.18 
  -3  -5  -6    4.61    0.17 
   3   5   6    4.68    0.17 
   3   5   6    5.02    0.18 
   3   5   6    4.81    0.19 
   3   5   6    4.70    0.19 
  -4  -5  -6   34.27    0.78 
  -4  -5  -6   35.19    0.75 
  -4  -5  -6   35.49    0.80 
  -4  -5  -6   34.77    0.78 
  -4  -5  -6   35.01    0.77 
   4   5   6   34.54    0.78 
   4   5   6   34.52    0.77 
   4   5   6   35.58    0.79 
   4   5   6   35.01    0.79 
  -5  -5  -6    0.13    0.08 
  -5  -5  -6    0.07    0.08 
  -5  -5  -6    0.21    0.07 
  -5  -5  -6    0.18    0.10 
  -5  -5  -6    0.08    0.07 
   5   5   6    0.27    0.08 
   5   5   6    0.14    0.09 
   5   5   6    0.33    0.09 
   5   5   6    0.09    0.08 
  -6  -5  -6   14.53    0.36 
  -6  -5  -6   15.25    0.42 
  -6  -5  -6   15.40    0.44 
  -6  -5  -6   14.75    0.46 
  -6  -5  -6   14.89    0.43 
   6   5   6   14.87    0.42 
   6   5   6   15.19    0.45 
   6   5   6   14.96    0.44 
   6   5   6   14.98    0.42 
  -7  -5  -6    0.44    0.14 
  -7  -5  -6    0.01    0.11 
  -7  -5  -6    0.26    0.13 
   7   5   6    0.19    0.10 
   7   5   6    0.19    0.15 
   7   5   6    0.29    0.12 
   7   5   6    0.08    0.10 
   8   5   6   11.86    0.43 
   8   5   6   11.59    0.39 
   6  -6  -6   14.55    0.45 
   5  -6  -6   22.45    0.57 
   5  -6  -6   22.15    0.58 
   4  -6  -6    0.28    0.09 
   4  -6  -6    0.26    0.10 
   3  -6  -6   20.58    0.44 
   3  -6  -6   20.36    0.48 
   3  -6  -6   21.20    0.53 
   2  -6  -6    3.25    0.11 
   2  -6  -6    3.28    0.18 
   2  -6  -6    3.31    0.12 
   2  -6  -6    3.23    0.13 
   2  -6  -6    3.27    0.12 
   1  -6  -6  101.27    1.97 
   1  -6  -6  100.91    2.02 
   1  -6  -6  101.45    1.96 
   1  -6  -6   98.74    2.06 
   1  -6  -6  100.74    2.01 
  -1   6   6   99.75    1.96 
  -1   6   6   99.50    1.95 
   0  -6  -6   52.50    1.05 
   0  -6  -6   50.66    1.10 
   0  -6  -6   50.37    1.04 
   0  -6  -6   51.77    1.07 
   0  -6  -6   51.05    1.04 
   0   6   6   51.19    1.03 
   0   6   6   51.53    1.05 
  -1  -6  -6   34.78    0.75 
  -1  -6  -6   34.52    0.77 
  -1  -6  -6   33.77    0.74 
  -1  -6  -6   34.23    0.73 
  -1  -6  -6   35.17    0.76 
   1   6   6   35.33    0.74 
   1   6   6   34.76    0.74 
   1   6   6   34.58    0.72 
   1   6   6   35.40    0.74 
  -2  -6  -6    7.58    0.23 
  -2  -6  -6    7.53    0.23 
  -2  -6  -6    7.37    0.22 
  -2  -6  -6    7.56    0.24 
  -2  -6  -6    7.57    0.24 
   2   6   6    7.45    0.23 
   2   6   6    7.37    0.20 
   2   6   6    7.32    0.23 
  -3  -6  -6   70.92    1.49 
  -3  -6  -6   71.66    1.49 
  -3  -6  -6   72.07    1.47 
  -3  -6  -6   71.03    1.47 
   3   6   6   71.49    1.47 
   3   6   6   72.69    1.49 
   3   6   6   70.96    1.46 
   3   6   6   69.13    1.46 
  -4  -6  -6   55.35    1.18 
  -4  -6  -6   55.33    1.20 
  -4  -6  -6   56.69    1.17 
  -4  -6  -6   55.74    1.22 
  -4  -6  -6   56.14    1.20 
   4   6   6   55.47    1.20 
   4   6   6   56.67    1.20 
   4   6   6   57.15    1.19 
   4   6   6   56.09    1.18 
  -5  -6  -6   21.64    0.55 
  -5  -6  -6   21.55    0.50 
  -5  -6  -6   22.18    0.56 
  -5  -6  -6   22.41    0.57 
  -5  -6  -6   21.47    0.54 
   5   6   6   21.87    0.55 
   5   6   6   21.06    0.55 
   5   6   6   21.87    0.56 
  -6  -6  -6   14.68    0.45 
  -6  -6  -6   14.58    0.43 
  -6  -6  -6   14.84    0.44 
  -6  -6  -6   14.27    0.36 
  -6  -6  -6   13.64    0.42 
   6   6   6   14.56    0.43 
   6   6   6   14.19    0.41 
   6   6   6   14.40    0.45 
   6   6   6   14.55    0.43 
  -7  -6  -6    9.76    0.39 
  -7  -6  -6    9.21    0.37 
  -7  -6  -6    9.70    0.35 
   7   6   6    8.93    0.39 
   7   6   6    9.01    0.34 
   7   6   6    9.16    0.36 
   8   6   6    4.02    0.26 
   8   6   6    4.08    0.29 
   6  -7  -6    1.67    0.20 
   6  -7  -6    2.04    0.20 
   5  -7  -6   36.11    0.82 
   5  -7  -6   36.15    0.86 
   4  -7  -6    5.49    0.21 
   4  -7  -6    5.90    0.26 
   4  -7  -6    5.22    0.17 
   3  -7  -6   25.25    0.56 
   3  -7  -6   25.59    0.55 
   2  -7  -6    8.75    0.30 
   2  -7  -6    8.68    0.22 
   2  -7  -6    8.74    0.23 
   2  -7  -6    8.92    0.24 
   1  -7  -6   23.01    0.52 
   1  -7  -6   23.67    0.53 
   1  -7  -6   23.71    0.51 
   1  -7  -6   22.53    0.57 
  -1   7   6   24.14    0.51 
  -1   7   6   23.58    0.51 
   0  -7  -6    0.14    0.07 
   0  -7  -6    0.07    0.06 
   0  -7  -6    0.15    0.06 
   0  -7  -6    0.17    0.05 
   0   7   6    0.06    0.05 
   0   7   6    0.17    0.06 
  -1  -7  -6   28.20    0.60 
  -1  -7  -6   28.72    0.64 
  -1  -7  -6   28.44    0.63 
  -1  -7  -6   28.21    0.66 
  -1  -7  -6   27.43    0.62 
   1   7   6   29.01    0.62 
   1   7   6   27.57    0.62 
   1   7   6   28.32    0.63 
  -2  -7  -6   13.30    0.36 
  -2  -7  -6   14.26    0.37 
  -2  -7  -6   13.46    0.36 
  -2  -7  -6   13.57    0.37 
  -2  -7  -6   13.68    0.34 
   2   7   6   13.41    0.36 
   2   7   6   13.94    0.32 
   2   7   6   14.14    0.36 
  -3  -7  -6    1.86    0.14 
  -3  -7  -6    1.81    0.14 
  -3  -7  -6    1.65    0.15 
  -3  -7  -6    2.04    0.14 
  -3  -7  -6    1.91    0.14 
   3   7   6    1.94    0.15 
   3   7   6    1.99    0.14 
   3   7   6    1.94    0.14 
   3   7   6    2.06    0.13 
  -4  -7  -6   23.84    0.60 
  -4  -7  -6   25.71    0.60 
  -4  -7  -6   24.86    0.60 
  -4  -7  -6   24.41    0.57 
   4   7   6   24.83    0.58 
   4   7   6   24.35    0.60 
   4   7   6   24.73    0.60 
   4   7   6   24.82    0.60 
  -5  -7  -6    5.88    0.22 
  -5  -7  -6    6.03    0.27 
  -5  -7  -6    6.05    0.26 
  -5  -7  -6    5.54    0.25 
  -5  -7  -6    5.83    0.26 
   5   7   6    5.73    0.26 
   5   7   6    5.99    0.24 
   5   7   6    6.15    0.26 
  -6  -7  -6    9.32    0.27 
  -6  -7  -6    8.83    0.35 
  -6  -7  -6    9.53    0.35 
  -6  -7  -6    8.79    0.32 
  -6  -7  -6    9.08    0.35 
   6   7   6    8.71    0.33 
   6   7   6    9.06    0.35 
   6   7   6    9.08    0.34 
  -7  -7  -6   22.30    0.62 
  -7  -7  -6   20.21    0.57 
   7   7   6   21.29    0.64 
   7   7   6   21.74    0.59 
   7   7   6   21.58    0.60 
  -8  -7  -6    8.72    0.39 
   8   7   6    8.39    0.40 
   8   7   6    8.69    0.37 
   5  -8  -6    3.16    0.28 
   5  -8  -6    3.09    0.21 
   4  -8  -6    2.55    0.15 
   4  -8  -6    2.39    0.23 
   3  -8  -6    2.30    0.14 
   3  -8  -6    2.10    0.20 
   2  -8  -6   22.81    0.52 
   2  -8  -6   22.93    0.50 
   2  -8  -6   22.25    0.49 
   2  -8  -6   22.77    0.58 
   1  -8  -6    3.43    0.15 
   1  -8  -6    3.60    0.16 
   1  -8  -6    3.70    0.17 
  -1   8   6    3.68    0.14 
  -1   8   6    3.81    0.15 
   0  -8  -6  108.76    2.13 
   0  -8  -6  110.34    2.19 
   0  -8  -6  106.24    2.13 
   0   8   6  103.67    2.13 
   0   8   6  108.05    2.13 
  -1  -8  -6    1.76    0.12 
  -1  -8  -6    1.31    0.13 
   1   8   6    1.60    0.13 
   1   8   6    1.49    0.12 
   1   8   6    1.53    0.12 
  -2  -8  -6   71.52    1.47 
  -2  -8  -6   72.20    1.49 
  -2  -8  -6   72.20    1.51 
  -2  -8  -6   70.90    1.48 
   2   8   6   73.84    1.48 
   2   8   6   70.64    1.48 
   2   8   6   73.25    1.49 
   2   8   6   71.20    1.46 
  -3  -8  -6    0.31    0.08 
  -3  -8  -6    0.16    0.07 
  -3  -8  -6    0.21    0.08 
  -3  -8  -6    0.18    0.08 
  -3  -8  -6    0.32    0.09 
   3   8   6    0.34    0.08 
   3   8   6    0.31    0.09 
   3   8   6    0.36    0.08 
   3   8   6    0.28    0.07 
  -4  -8  -6   38.75    0.86 
  -4  -8  -6   38.21    0.89 
  -4  -8  -6   40.10    0.87 
  -4  -8  -6   37.54    0.88 
  -4  -8  -6   39.23    0.87 
   4   8   6   37.76    0.87 
   4   8   6   38.38    0.87 
   4   8   6   38.56    0.86 
  -5  -8  -6    0.11    0.10 
  -5  -8  -6    0.13    0.09 
  -5  -8  -6    0.10    0.10 
  -5  -8  -6    0.08    0.11 
  -5  -8  -6    0.23    0.09 
   5   8   6    0.19    0.10 
   5   8   6    0.13    0.10 
   5   8   6    0.06    0.09 
  -6  -8  -6   18.87    0.47 
  -6  -8  -6   18.35    0.52 
  -6  -8  -6   18.87    0.54 
  -6  -8  -6   19.27    0.55 
   6   8   6   18.79    0.54 
   6   8   6   19.13    0.55 
   6   8   6   18.69    0.53 
  -7  -8  -6    0.58    0.11 
  -7  -8  -6    0.43    0.14 
  -7  -8  -6    0.60    0.19 
   7   8   6    0.30    0.18 
   7   8   6    0.74    0.16 
   7   8   6    0.49    0.16 
  -8  -8  -6    5.38    0.36 
   8   8   6    5.93    0.38 
   8   8   6    5.41    0.33 
   5  -9  -6   16.71    0.54 
   4  -9  -6    1.91    0.20 
   4  -9  -6    1.90    0.18 
   3  -9  -6   47.65    1.01 
   3  -9  -6   47.15    1.09 
   2  -9  -6    4.37    0.18 
   2  -9  -6    4.34    0.17 
   2  -9  -6    4.62    0.20 
  -2   9   6    4.31    0.17 
   1  -9  -6   44.51    0.93 
   1  -9  -6   45.09    0.96 
   1  -9  -6   43.13    0.93 
  -1   9   6   44.99    0.93 
   0  -9  -6    4.05    0.19 
   0  -9  -6    3.65    0.17 
   0  -9  -6    3.90    0.19 
  -1  -9  -6   24.65    0.59 
  -1  -9  -6   25.16    0.59 
   1   9   6   24.66    0.58 
   1   9   6   24.47    0.59 
   1   9   6   25.02    0.56 
  -2  -9  -6    0.19    0.08 
  -2  -9  -6    0.26    0.09 
   2   9   6    0.45    0.10 
   2   9   6    0.55    0.06 
   2   9   6    0.43    0.08 
   2   9   6    0.46    0.09 
  -3  -9  -6    4.65    0.24 
  -3  -9  -6    4.35    0.21 
  -3  -9  -6    4.35    0.21 
   3   9   6    4.51    0.17 
   3   9   6    4.50    0.21 
   3   9   6    4.20    0.23 
   3   9   6    4.37    0.22 
  -4  -9  -6   11.18    0.37 
  -4  -9  -6   11.41    0.38 
  -4  -9  -6   11.10    0.35 
   4   9   6   11.43    0.37 
   4   9   6   10.86    0.37 
   4   9   6   11.30    0.33 
  -5  -9  -6    0.88    0.13 
  -5  -9  -6    1.24    0.17 
  -5  -9  -6    0.75    0.13 
  -5  -9  -6    0.84    0.12 
   5   9   6    0.91    0.14 
   5   9   6    1.01    0.13 
   5   9   6    0.98    0.12 
   5   9   6    1.01    0.16 
  -6  -9  -6    0.26    0.14 
  -6  -9  -6   -0.03    0.14 
  -6  -9  -6   -0.04    0.11 
  -6  -9  -6    0.05    0.10 
   6   9   6   -0.07    0.12 
   6   9   6    0.11    0.14 
   6   9   6    0.02    0.16 
  -7  -9  -6    8.91    0.43 
  -7  -9  -6    7.86    0.37 
  -7  -9  -6    8.47    0.30 
   7   9   6    8.55    0.45 
   7   9   6    8.34    0.38 
   7   9   6    7.79    0.39 
  -8  -9  -6    0.13    0.19 
   8   9   6    0.19    0.20 
   8   9   6    0.09    0.18 
   4 -10  -6    0.08    0.16 
   4 -10  -6    0.29    0.12 
   3 -10  -6    1.34    0.17 
   3 -10  -6    1.28    0.12 
   3 -10  -6    1.22    0.13 
   3 -10  -6    1.26    0.11 
   2 -10  -6   34.93    0.77 
   2 -10  -6   34.13    0.74 
   2 -10  -6   33.52    0.74 
  -2  10   6   34.42    0.73 
  -2  10   6   33.44    0.72 
   1 -10  -6    0.94    0.12 
   1 -10  -6    0.78    0.09 
   1 -10  -6    0.86    0.11 
  -1  10   6    1.02    0.11 
  -1  10   6    0.84    0.09 
   0 -10  -6    3.84    0.19 
   0 -10  -6    3.96    0.21 
   0 -10  -6    4.02    0.21 
  -1 -10  -6    0.84    0.12 
  -1 -10  -6    0.77    0.10 
  -1 -10  -6    0.82    0.12 
   1  10   6    1.00    0.13 
   1  10   6    0.62    0.08 
  -2 -10  -6   79.04    1.67 
  -2 -10  -6   81.05    1.68 
  -2 -10  -6   80.40    1.71 
   2  10   6   85.42    1.68 
   2  10   6   78.42    1.67 
   2  10   6   80.85    1.67 
  -3 -10  -6   23.31    0.60 
  -3 -10  -6   22.87    0.59 
  -3 -10  -6   22.35    0.58 
   3  10   6   22.74    0.57 
   3  10   6   23.07    0.52 
   3  10   6   22.73    0.58 
   3  10   6   22.52    0.59 
  -4 -10  -6   12.53    0.40 
  -4 -10  -6   12.87    0.42 
   4  10   6   12.50    0.39 
   4  10   6   12.53    0.41 
   4  10   6   12.84    0.36 
   4  10   6   12.94    0.43 
  -5 -10  -6    1.79    0.17 
  -5 -10  -6    1.65    0.21 
  -5 -10  -6    1.62    0.19 
   5  10   6    1.59    0.19 
   5  10   6    1.70    0.20 
   5  10   6    1.89    0.21 
  -6 -10  -6   16.42    0.55 
  -6 -10  -6   16.08    0.50 
  -6 -10  -6   17.19    0.48 
   6  10   6   16.24    0.53 
   6  10   6   16.30    0.51 
   6  10   6   16.83    0.55 
  -7 -10  -6    0.02    0.25 
  -7 -10  -6    0.39    0.15 
  -7 -10  -6    0.36    0.16 
   7  10   6    0.03    0.17 
   7  10   6    0.27    0.17 
   7  10   6    0.41    0.24 
   3 -11  -6    8.98    0.31 
   3 -11  -6    9.04    0.34 
   3 -11  -6    9.28    0.27 
   2 -11  -6   35.04    0.81 
   2 -11  -6   34.64    0.77 
   2 -11  -6   35.10    0.77 
  -2  11   6   34.31    0.77 
   1 -11  -6    3.78    0.23 
   1 -11  -6    4.00    0.19 
   1 -11  -6    3.76    0.23 
  -1  11   6    3.78    0.22 
   0 -11  -6   22.77    0.57 
   0 -11  -6   22.99    0.56 
   0 -11  -6   22.28    0.58 
  -1 -11  -6    0.63    0.13 
  -1 -11  -6    0.73    0.12 
  -1 -11  -6    0.58    0.11 
   1  11   6    0.61    0.13 
   1  11   6    0.56    0.09 
  -2 -11  -6   15.00    0.44 
  -2 -11  -6   15.11    0.44 
  -2 -11  -6   15.71    0.46 
   2  11   6   14.80    0.45 
   2  11   6   14.47    0.42 
   2  11   6   15.66    0.41 
  -3 -11  -6    5.84    0.30 
  -3 -11  -6    5.06    0.25 
  -3 -11  -6    5.09    0.27 
   3  11   6    5.42    0.19 
   3  11   6    5.40    0.30 
   3  11   6    5.41    0.26 
  -4 -11  -6    0.51    0.17 
  -4 -11  -6    0.24    0.11 
  -4 -11  -6    0.55    0.12 
   4  11   6    0.62    0.16 
   4  11   6    0.49    0.11 
   4  11   6    0.30    0.12 
   4  11   6    0.61    0.15 
  -5 -11  -6    0.21    0.20 
  -5 -11  -6    0.22    0.13 
  -5 -11  -6    0.34    0.12 
   5  11   6   -0.04    0.14 
   5  11   6    0.27    0.13 
  -6 -11  -6    0.20    0.16 
  -6 -11  -6    0.40    0.14 
  -6 -11  -6    0.36    0.22 
  -6 -11  -6    0.32    0.19 
   6  11   6    0.36    0.16 
   6  11   6    0.06    0.18 
   6  11   6    0.20    0.22 
  -7 -11  -6    9.11    0.50 
  -7 -11  -6    7.93    0.41 
   7  11   6    7.85    0.45 
   7  11   6    7.47    0.45 
   2 -12  -6    1.32    0.17 
   2 -12  -6    1.92    0.17 
   1 -12  -6    0.11    0.09 
   1 -12  -6    0.21    0.13 
   0 -12  -6    1.79    0.18 
   0 -12  -6    1.90    0.17 
   0 -12  -6    1.80    0.22 
  -1 -12  -6   10.18    0.38 
  -1 -12  -6    9.30    0.35 
  -1 -12  -6    9.48    0.33 
   1  12   6    8.89    0.36 
  -2 -12  -6    7.50    0.31 
  -2 -12  -6    8.00    0.32 
  -2 -12  -6    7.78    0.36 
   2  12   6    8.08    0.36 
  -3 -12  -6    3.01    0.31 
  -3 -12  -6    2.98    0.25 
  -3 -12  -6    2.79    0.22 
   3  12   6    2.54    0.25 
   3  12   6    2.71    0.30 
  -4 -12  -6    1.66    0.21 
  -4 -12  -6    1.52    0.16 
  -4 -12  -6    1.38    0.21 
   4  12   6    1.59    0.20 
   4  12   6    1.60    0.21 
  -5 -12  -6    9.90    0.39 
  -5 -12  -6   10.64    0.44 
   5  12   6   10.15    0.37 
   5  12   6    9.92    0.47 
  -6 -12  -6    0.78    0.17 
  -6 -12  -6    0.75    0.23 
   6  12   6    0.46    0.24 
   6  12   6    0.63    0.20 
   1 -13  -6    4.46    0.24 
   1 -13  -6    4.43    0.32 
   0 -13  -6    5.45    0.32 
   0 -13  -6    6.15    0.27 
  -1 -13  -6    0.54    0.14 
  -1 -13  -6    0.55    0.12 
  -2 -13  -6    0.41    0.14 
  -2 -13  -6    0.64    0.14 
  -3 -13  -6    2.16    0.22 
  -3 -13  -6    1.68    0.21 
   3  13   6    1.56    0.24 
  -4 -13  -6    2.04    0.23 
  -4 -13  -6    1.93    0.23 
   4  13   6    2.23    0.28 
  -5 -13  -6   -0.11    0.18 
   5  13   6    0.48    0.25 
  -2 -14  -6    1.60    0.21 
  -2 -14  -6    1.44    0.19 
   2   8  -7    4.70    0.46 
  -2  -8   7    5.72    0.41 
  -2  -8   7    6.15    0.57 
   1   8  -7   12.21    0.60 
  -1  -8   7   12.79    0.59 
  -1  -8   7   12.64    0.50 
   0   8  -7    8.16    0.52 
   0  -8   7    8.42    0.51 
   0  -8   7    9.59    0.40 
   4   7  -7    1.96    0.26 
  -4  -7   7    2.48    0.27 
   3   7  -7   28.77    0.84 
  -3  -7   7   30.46    0.91 
  -3  -7   7   31.49    0.83 
   2   7  -7    1.00    0.24 
   2   7  -7    1.19    0.24 
  -2  -7   7    0.80    0.24 
  -2  -7   7    0.70    0.19 
   1   7  -7   10.03    0.45 
   1   7  -7    9.39    0.46 
  -1  -7   7   10.24    0.42 
  -1  -7   7    9.40    0.48 
   0   7  -7    2.05    0.27 
   0   7  -7    1.22    0.20 
   0  -7   7    2.03    0.24 
   0  -7   7    1.77    0.19 
   0  -7   7    1.62    0.20 
  -1   7  -7   11.15    0.50 
   1  -7   7   10.68    0.45 
   1  -7   7   11.13    0.41 
   1  -7   7   11.23    0.48 
  -2   7  -7    0.02    0.22 
   2  -7   7    0.38    0.20 
   2  -7   7    0.06    0.12 
   3  -7   7    0.73    0.20 
   4   6  -7    0.32    0.18 
  -4  -6   7   -0.11    0.18 
   3   6  -7    0.33    0.17 
   3   6  -7    0.39    0.22 
   3   6  -7    0.26    0.16 
  -3  -6   7    0.14    0.16 
  -3  -6   7    0.08    0.22 
   2   6  -7    0.32    0.18 
   2   6  -7    0.14    0.15 
   2   6  -7    0.12    0.14 
  -2  -6   7    0.38    0.19 
  -2  -6   7    0.10    0.14 
   1   6  -7    2.60    0.29 
   1   6  -7    3.74    0.30 
  -1  -6   7    3.77    0.28 
  -1  -6   7    3.20    0.26 
  -1  -6   7    3.44    0.32 
   0   6  -7    5.97    0.35 
   0   6  -7    5.90    0.32 
   0  -6   7    5.81    0.30 
   0  -6   7    5.64    0.32 
  -1   6  -7    0.00    0.16 
  -1   6  -7    0.08    0.14 
   1  -6   7    0.15    0.17 
   1  -6   7    0.26    0.12 
   1  -6   7    0.19    0.14 
  -2   6  -7   26.60    0.75 
   2  -6   7   27.03    0.72 
   2  -6   7   28.59    0.74 
  -3   6  -7    3.57    0.36 
   3  -6   7    3.16    0.28 
   4  -6   7    8.27    0.38 
   5   5  -7   21.31    0.66 
   5   5  -7   21.07    0.62 
   4   5  -7    6.13    0.35 
   4   5  -7    6.88    0.38 
  -4  -5   7    6.84    0.34 
  -4  -5   7    6.97    0.29 
   3   5  -7   23.50    0.66 
   3   5  -7   22.96    0.62 
   3   5  -7   22.52    0.66 
  -3  -5   7   23.69    0.63 
  -3  -5   7   24.65    0.69 
   2   5  -7    1.61    0.19 
   2   5  -7    2.42    0.23 
   2   5  -7    2.28    0.25 
   2   5  -7    2.39    0.26 
  -2  -5   7    2.25    0.20 
  -2  -5   7    1.86    0.20 
  -2  -5   7    2.10    0.22 
  -2  -5   7    2.04    0.25 
   1   5  -7   31.24    0.80 
   1   5  -7   33.23    0.79 
   1   5  -7   32.63    0.83 
   1   5  -7   33.61    0.78 
  -1  -5   7   31.50    0.78 
  -1  -5   7   31.95    0.81 
  -1  -5   7   34.10    0.80 
  -1  -5   7   32.41    0.77 
   0   5  -7   16.18    0.47 
   0   5  -7   15.06    0.49 
   0   5  -7   14.81    0.49 
   0  -5   7   15.13    0.45 
   0  -5   7   15.98    0.49 
   0  -5   7   16.16    0.46 
  -1   5  -7    0.79    0.15 
  -1   5  -7    0.90    0.18 
  -1   5  -7    0.68    0.14 
  -1   5  -7    0.99    0.16 
   1  -5   7    0.67    0.14 
   1  -5   7    0.51    0.10 
  -2   5  -7    1.17    0.19 
  -2   5  -7    1.52    0.17 
  -2   5  -7    1.39    0.21 
   2  -5   7    1.17    0.17 
   2  -5   7    1.03    0.17 
  -3   5  -7    0.48    0.18 
   3  -5   7    0.64    0.19 
   3  -5   7    0.74    0.16 
  -4   5  -7    2.74    0.27 
   4  -5   7    2.54    0.24 
   5  -5   7    1.39    0.20 
   6   4  -7    0.53    0.24 
   6   4  -7    0.81    0.15 
   5   4  -7    3.46    0.32 
   5   4  -7    3.72    0.27 
  -5  -4   7    4.32    0.32 
   4   4  -7    0.68    0.16 
   4   4  -7    0.72    0.16 
   4   4  -7    0.64    0.14 
  -4  -4   7    0.62    0.13 
  -4  -4   7    0.50    0.18 
  -4  -4   7    0.69    0.11 
  -4  -4   7    0.46    0.13 
   3   4  -7    0.68    0.15 
   3   4  -7    0.82    0.16 
   3   4  -7    0.65    0.13 
  -3  -4   7    0.60    0.11 
  -3  -4   7    0.74    0.13 
  -3  -4   7    0.55    0.13 
  -3  -4   7    0.73    0.17 
  -3  -4   7    0.58    0.10 
   2   4  -7    7.23    0.30 
   2   4  -7    6.78    0.31 
   2   4  -7    6.74    0.31 
  -2  -4   7    7.02    0.26 
  -2  -4   7    6.81    0.27 
  -2  -4   7    7.51    0.33 
  -2  -4   7    7.18    0.30 
   1   4  -7    9.45    0.33 
   1   4  -7    8.84    0.35 
  -1  -4   7    9.82    0.34 
  -1  -4   7    9.79    0.36 
  -1  -4   7    9.69    0.31 
   0   4  -7   11.00    0.36 
   0   4  -7   10.91    0.38 
   0   4  -7   11.29    0.38 
   0  -4   7   11.11    0.38 
   0  -4   7   11.41    0.36 
   0  -4   7   11.59    0.36 
  -1   4  -7    3.43    0.25 
  -1   4  -7    2.92    0.21 
  -1   4  -7    3.05    0.22 
   1  -4   7    3.11    0.21 
   1  -4   7    3.10    0.18 
   1  -4   7    3.24    0.24 
  -2   4  -7   28.80    0.70 
  -2   4  -7   28.39    0.71 
  -2   4  -7   28.23    0.74 
   2  -4   7   28.19    0.70 
   2  -4   7   29.69    0.71 
  -3   4  -7    0.92    0.15 
  -3   4  -7    0.63    0.14 
  -3   4  -7    0.84    0.16 
   3  -4   7    0.83    0.17 
   3  -4   7    0.75    0.12 
   3  -4   7    0.59    0.12 
  -4   4  -7   46.31    1.07 
   4  -4   7   46.66    1.06 
   4  -4   7   46.21    1.07 
   4  -4   7   48.68    1.10 
   5  -4   7    7.90    0.35 
   5  -4   7    7.61    0.35 
   5  -4   7    6.87    0.32 
   6  -4   7   10.34    0.44 
   6   3  -7   -0.27    0.17 
  -6  -3   7    0.12    0.20 
   5   3  -7    8.08    0.32 
   5   3  -7    7.79    0.36 
   5   3  -7    7.76    0.32 
  -5  -3   7    7.57    0.35 
   4   3  -7   20.93    0.53 
   4   3  -7   19.92    0.55 
   4   3  -7   19.84    0.57 
  -4  -3   7   20.47    0.48 
  -4  -3   7   20.52    0.47 
  -4  -3   7   21.35    0.58 
   3   3  -7    9.03    0.31 
   3   3  -7    8.68    0.34 
   3   3  -7    8.42    0.32 
  -3  -3   7    8.85    0.30 
  -3  -3   7    8.97    0.36 
  -3  -3   7    8.65    0.27 
  -3  -3   7    8.77    0.27 
   2   3  -7   17.19    0.50 
   2   3  -7   17.85    0.47 
   2   3  -7   17.24    0.49 
  -2  -3   7   18.45    0.48 
  -2  -3   7   17.80    0.50 
  -2  -3   7   17.92    0.49 
  -2  -3   7   17.99    0.45 
  -2  -3   7   18.58    0.45 
   1   3  -7    0.34    0.11 
   1   3  -7    0.32    0.10 
   1   3  -7    0.11    0.09 
  -1  -3   7    0.16    0.10 
  -1  -3   7    0.22    0.08 
  -1  -3   7    0.16    0.08 
  -1  -3   7    0.34    0.12 
   0   3  -7   20.35    0.53 
   0   3  -7   18.38    0.54 
   0   3  -7   20.92    0.52 
   0   3  -7   20.24    0.52 
   0  -3   7   20.68    0.53 
   0  -3   7   20.64    0.52 
   0  -3   7   20.68    0.51 
  -1   3  -7    0.29    0.11 
  -1   3  -7    0.18    0.10 
  -1   3  -7    0.21    0.09 
  -1   3  -7    0.31    0.10 
   1  -3   7    0.24    0.08 
   1  -3   7    0.20    0.10 
   1  -3   7    0.20    0.10 
  -2   3  -7    2.66    0.21 
  -2   3  -7    2.64    0.20 
  -2   3  -7    2.91    0.21 
   2  -3   7    2.87    0.20 
   2  -3   7    2.84    0.17 
   2  -3   7    2.79    0.21 
  -3   3  -7   14.15    0.45 
  -3   3  -7   14.05    0.42 
  -3   3  -7   14.28    0.43 
   3  -3   7   15.59    0.49 
   3  -3   7   13.97    0.42 
   3  -3   7   13.70    0.41 
  -4   3  -7    3.76    0.25 
  -4   3  -7    3.49    0.27 
  -4   3  -7    3.52    0.30 
   4  -3   7    3.97    0.24 
   4  -3   7    3.85    0.23 
   4  -3   7    3.77    0.30 
   4  -3   7    3.82    0.22 
   4  -3   7    3.48    0.22 
  -5   3  -7    4.63    0.31 
   5  -3   7    4.32    0.25 
   5  -3   7    4.42    0.27 
   5  -3   7    3.94    0.26 
   5  -3   7    4.10    0.35 
   6  -3   7    4.48    0.31 
   6  -3   7    4.72    0.27 
   6  -3   7    5.44    0.34 
   6   2  -7    3.20    0.31 
   5   2  -7    2.19    0.24 
   5   2  -7    2.61    0.20 
   5   2  -7    1.90    0.23 
  -5  -2   7    2.27    0.26 
   4   2  -7    6.36    0.27 
   4   2  -7    6.82    0.26 
   4   2  -7    6.89    0.29 
  -4  -2   7    6.48    0.28 
  -4  -2   7    6.76    0.30 
   3   2  -7    0.74    0.11 
   3   2  -7    0.82    0.12 
  -3  -2   7    0.67    0.11 
  -3  -2   7    0.82    0.10 
  -3  -2   7    0.73    0.08 
   2   2  -7   14.36    0.42 
   2   2  -7   15.06    0.43 
   2   2  -7   15.42    0.40 
  -2  -2   7   14.71    0.38 
  -2  -2   7   15.62    0.42 
  -2  -2   7   14.52    0.41 
  -2  -2   7   14.96    0.40 
   1   2  -7    8.22    0.29 
   1   2  -7    8.31    0.30 
   1   2  -7    8.59    0.28 
  -1  -2   7    8.55    0.26 
  -1  -2   7    9.11    0.27 
  -1  -2   7    8.89    0.29 
  -1  -2   7    8.37    0.29 
  -1  -2   7    8.40    0.28 
   0   2  -7   12.62    0.36 
   0   2  -7   12.34    0.35 
   0   2  -7   12.70    0.37 
   0   2  -7   12.34    0.37 
   0  -2   7   13.10    0.35 
   0  -2   7   12.34    0.34 
   0  -2   7   12.03    0.36 
   0  -2   7   12.15    0.36 
  -1   2  -7   14.15    0.39 
  -1   2  -7   13.99    0.40 
  -1   2  -7   13.62    0.38 
  -1   2  -7   13.17    0.40 
   1  -2   7   13.46    0.38 
   1  -2   7   13.74    0.38 
   1  -2   7   13.81    0.37 
   1  -2   7   13.50    0.38 
  -2   2  -7   49.49    1.07 
  -2   2  -7   47.88    1.11 
  -2   2  -7   50.73    1.07 
  -2   2  -7   48.80    1.10 
   2  -2   7   49.88    1.08 
   2  -2   7   49.66    1.06 
  -3   2  -7   33.73    0.81 
  -3   2  -7   34.46    0.79 
  -3   2  -7   34.59    0.80 
  -3   2  -7   34.81    0.85 
   3  -2   7   35.16    0.80 
   3  -2   7   33.27    0.79 
   3  -2   7   32.72    0.77 
   3  -2   7   34.12    0.78 
  -4   2  -7    8.41    0.35 
  -4   2  -7    7.92    0.31 
  -4   2  -7    8.36    0.32 
  -4   2  -7    8.62    0.33 
   4  -2   7    8.14    0.29 
   4  -2   7    8.27    0.34 
   4  -2   7    8.11    0.29 
   4  -2   7    8.26    0.30 
   4  -2   7    8.53    0.30 
  -5   2  -7   19.80    0.54 
   5  -2   7   19.18    0.52 
   5  -2   7   18.52    0.57 
   5  -2   7   19.07    0.51 
   5  -2   7   18.24    0.51 
   6  -2   7   11.97    0.39 
   6  -2   7   12.21    0.41 
   6  -2   7   12.09    0.41 
   7  -2   7   15.22    0.47 
   7  -2   7   16.13    0.51 
   7   1  -7    4.80    0.25 
   7   1  -7    4.54    0.38 
   7   1  -7    5.07    0.43 
   6   1  -7   10.68    0.35 
   6   1  -7   10.78    0.40 
   6   1  -7   10.87    0.34 
  -6  -1   7   10.65    0.42 
   5   1  -7    1.90    0.17 
   5   1  -7    1.65    0.15 
  -5  -1   7    1.93    0.22 
  -5  -1   7    1.96    0.21 
   4   1  -7   29.10    0.68 
   4   1  -7   30.39    0.71 
  -4  -1   7   29.33    0.68 
  -4  -1   7   29.47    0.71 
  -4  -1   7   27.98    0.64 
   3   1  -7   22.91    0.53 
   3   1  -7   22.81    0.58 
   3   1  -7   21.82    0.55 
  -3  -1   7   22.93    0.49 
  -3  -1   7   23.64    0.57 
  -3  -1   7   22.84    0.49 
   2   1  -7   13.64    0.39 
   2   1  -7   14.88    0.38 
   2   1  -7   14.67    0.41 
  -2  -1   7   14.66    0.37 
  -2  -1   7   14.38    0.40 
  -2  -1   7   15.35    0.36 
  -2  -1   7   14.28    0.37 
  -2  -1   7   15.14    0.41 
   1   1  -7    0.72    0.10 
   1   1  -7    0.81    0.10 
   1   1  -7    0.75    0.10 
   1   1  -7    0.70    0.10 
  -1  -1   7    0.72    0.10 
  -1  -1   7    0.64    0.08 
  -1  -1   7    0.53    0.08 
  -1  -1   7    0.75    0.08 
  -1  -1   7    0.71    0.09 
   0   1  -7   59.65    1.22 
   0   1  -7   57.20    1.18 
   0   1  -7   55.52    1.22 
   0   1  -7   56.28    1.17 
   0  -1   7   54.03    1.21 
   0  -1   7   56.21    1.19 
   0  -1   7   55.74    1.17 
   0  -1   7   56.94    1.17 
  -1   1  -7    1.97    0.17 
  -1   1  -7    1.79    0.15 
  -1   1  -7    1.91    0.15 
  -1   1  -7    1.75    0.15 
   1  -1   7    1.93    0.13 
   1  -1   7    1.74    0.13 
   1  -1   7    1.72    0.14 
   1  -1   7    1.59    0.15 
  -2   1  -7   20.23    0.49 
  -2   1  -7   19.37    0.50 
  -2   1  -7   19.29    0.52 
   2  -1   7   19.93    0.50 
   2  -1   7   19.59    0.49 
   2  -1   7   19.85    0.49 
  -3   1  -7    0.64    0.11 
  -3   1  -7    0.85    0.12 
  -3   1  -7    0.71    0.10 
  -3   1  -7    0.68    0.11 
   3  -1   7    0.90    0.11 
   3  -1   7    0.76    0.12 
   3  -1   7    0.83    0.10 
   3  -1   7    0.79    0.11 
  -4   1  -7    0.06    0.10 
  -4   1  -7    0.19    0.09 
  -4   1  -7   -0.05    0.09 
   4  -1   7   -0.09    0.08 
   4  -1   7    0.19    0.08 
   4  -1   7    0.06    0.11 
   4  -1   7    0.19    0.10 
   4  -1   7    0.19    0.08 
  -5   1  -7    4.55    0.26 
  -5   1  -7    4.18    0.29 
  -5   1  -7    4.85    0.25 
  -5   1  -7    4.76    0.25 
   5  -1   7    4.67    0.24 
   5  -1   7    4.72    0.23 
   5  -1   7    4.66    0.24 
   5  -1   7    4.60    0.24 
   5  -1   7    4.24    0.29 
  -6   1  -7    0.46    0.17 
   6  -1   7    0.23    0.17 
   6  -1   7    0.20    0.11 
   6  -1   7    0.33    0.13 
   6  -1   7    0.12    0.13 
   7  -1   7    5.27    0.31 
   7  -1   7    4.94    0.27 
   7   0  -7    2.08    0.28 
   6   0  -7    3.36    0.18 
   6   0  -7    3.06    0.20 
   6   0  -7    3.17    0.33 
   5   0  -7    0.01    0.09 
   5   0  -7    0.14    0.12 
   5   0  -7    0.21    0.08 
  -5   0   7    0.24    0.13 
  -5   0   7    0.22    0.07 
  -5   0   7    0.35    0.10 
   4   0  -7   13.80    0.37 
   4   0  -7   13.91    0.36 
   4   0  -7   14.18    0.41 
  -4   0   7   13.72    0.37 
  -4   0   7   13.78    0.41 
   3   0  -7   11.99    0.32 
   3   0  -7   12.46    0.36 
  -3   0   7   11.83    0.30 
  -3   0   7   12.01    0.36 
  -3   0   7   12.08    0.33 
   2   0  -7   29.23    0.69 
   2   0  -7   28.05    0.65 
   2   0  -7   29.75    0.64 
  -2   0   7   29.95    0.69 
  -2   0   7   29.44    0.64 
  -2   0   7   29.80    0.62 
  -2   0   7   28.50    0.63 
   1   0  -7   69.74    1.44 
   1   0  -7   68.79    1.39 
   1   0  -7   66.99    1.39 
   1   0  -7   66.91    1.44 
  -1   0   7   69.21    1.44 
  -1   0   7   69.67    1.41 
  -1   0   7   66.90    1.39 
  -1   0   7   70.27    1.39 
  -1   0   7   67.08    1.41 
   0   0  -7    8.88    0.27 
   0   0  -7    8.26    0.26 
   0   0  -7    8.55    0.26 
   0   0  -7    8.44    0.27 
   0   0   7    8.39    0.26 
   0   0   7    8.32    0.25 
   0   0   7    8.43    0.25 
   0   0   7    8.32    0.27 
  -1   0  -7  103.34    2.08 
  -1   0  -7  104.23    2.08 
  -1   0  -7  104.83    2.14 
  -1   0  -7  103.41    2.16 
   1   0   7  105.75    2.13 
   1   0   7  100.70    2.07 
   1   0   7  107.24    2.13 
  -2   0  -7   16.83    0.43 
  -2   0  -7   16.57    0.44 
  -2   0  -7   16.49    0.42 
  -2   0  -7   16.59    0.45 
   2   0   7   16.88    0.43 
   2   0   7   16.59    0.43 
   2   0   7   16.75    0.42 
   2   0   7   17.31    0.43 
   2   0   7   16.19    0.42 
  -3   0  -7   45.82    1.00 
  -3   0  -7   47.67    1.00 
  -3   0  -7   45.64    1.01 
  -3   0  -7   46.58    1.05 
   3   0   7   46.44    1.01 
   3   0   7   46.17    1.02 
   3   0   7   46.72    1.00 
   3   0   7   45.95    0.99 
   3   0   7   44.49    1.00 
  -4   0  -7    1.30    0.15 
  -4   0  -7    0.94    0.13 
  -4   0  -7    1.06    0.12 
   4   0   7    1.18    0.13 
   4   0   7    1.33    0.16 
   4   0   7    1.09    0.11 
   4   0   7    1.36    0.16 
   4   0   7    1.12    0.14 
  -5   0  -7   60.00    1.29 
  -5   0  -7   60.82    1.30 
  -5   0  -7   59.72    1.28 
   5   0   7   60.92    1.31 
   5   0   7   60.59    1.31 
   5   0   7   59.08    1.32 
   5   0   7   61.08    1.28 
   5   0   7   58.84    1.27 
  -6   0  -7    0.59    0.15 
   6   0   7    0.70    0.14 
   6   0   7    0.63    0.12 
   6   0   7    0.92    0.19 
   6   0   7    0.59    0.14 
   6   0   7    0.49    0.11 
   7   0   7   15.44    0.46 
   7   0   7   16.19    0.49 
   7  -1  -7    0.41    0.22 
   6  -1  -7   42.69    1.06 
   6  -1  -7   42.30    0.97 
   5  -1  -7   12.49    0.32 
   5  -1  -7   12.48    0.39 
   5  -1  -7   12.78    0.32 
  -5   1   7   12.73    0.40 
   4  -1  -7   29.86    0.67 
   4  -1  -7   31.83    0.66 
   4  -1  -7   30.87    0.72 
  -4   1   7   31.11    0.66 
  -4   1   7   30.85    0.73 
  -4   1   7   30.93    0.64 
   3  -1  -7    2.38    0.15 
   3  -1  -7    2.65    0.15 
   3  -1  -7    2.53    0.17 
  -3   1   7    2.58    0.15 
  -3   1   7    2.81    0.17 
  -3   1   7    2.67    0.12 
   2  -1  -7   75.88    1.55 
   2  -1  -7   78.56    1.61 
   2  -1  -7   77.16    1.54 
  -2   1   7   76.89    1.61 
  -2   1   7   74.77    1.54 
  -2   1   7   79.40    1.54 
   1  -1  -7   20.69    0.51 
   1  -1  -7   20.88    0.48 
   1  -1  -7   20.79    0.48 
   1  -1  -7   21.14    0.50 
  -1   1   7   20.22    0.46 
  -1   1   7   20.96    0.51 
  -1   1   7   20.69    0.47 
  -1   1   7   20.84    0.47 
  -1   1   7   20.62    0.47 
   0  -1  -7    5.64    0.21 
   0  -1  -7    5.93    0.21 
   0  -1  -7    5.62    0.19 
   0  -1  -7    5.71    0.20 
   0   1   7    5.64    0.20 
   0   1   7    5.71    0.19 
   0   1   7    5.71    0.21 
   0   1   7    5.70    0.19 
  -1  -1  -7    0.86    0.10 
  -1  -1  -7    1.11    0.12 
  -1  -1  -7    1.03    0.12 
  -1  -1  -7    1.00    0.10 
   1   1   7    1.20    0.11 
   1   1   7    1.22    0.12 
   1   1   7    1.15    0.11 
   1   1   7    1.17    0.11 
  -2  -1  -7   39.68    0.86 
  -2  -1  -7   40.03    0.89 
  -2  -1  -7   38.53    0.85 
  -2  -1  -7   40.55    0.87 
   2   1   7   40.65    0.87 
   2   1   7   39.52    0.86 
   2   1   7   39.29    0.85 
   2   1   7   38.14    0.86 
   2   1   7   40.31    0.88 
  -3  -1  -7   36.25    0.81 
  -3  -1  -7   36.49    0.80 
  -3  -1  -7   36.93    0.85 
   3   1   7   35.87    0.81 
   3   1   7   36.73    0.82 
   3   1   7   35.83    0.81 
   3   1   7   35.56    0.79 
   3   1   7   37.14    0.83 
  -4  -1  -7    7.35    0.26 
  -4  -1  -7    6.71    0.24 
  -4  -1  -7    7.14    0.26 
   4   1   7    7.06    0.28 
   4   1   7    6.52    0.25 
   4   1   7    7.09    0.25 
   4   1   7    7.09    0.26 
  -5  -1  -7    3.28    0.19 
  -5  -1  -7    3.35    0.22 
  -5  -1  -7    3.23    0.20 
   5   1   7    3.74    0.23 
   5   1   7    3.63    0.20 
   5   1   7    3.78    0.21 
  -6  -1  -7    6.09    0.25 
  -6  -1  -7    5.44    0.31 
  -6  -1  -7    6.02    0.29 
  -6  -1  -7    6.07    0.27 
   6   1   7    5.25    0.26 
   6   1   7    5.76    0.24 
   6   1   7    5.64    0.25 
   6   1   7    6.00    0.32 
   6   1   7    5.89    0.28 
  -7  -1  -7    3.15    0.29 
   7   1   7    3.09    0.25 
   7   1   7    3.57    0.23 
   7   1   7    3.61    0.21 
   7   1   7    3.53    0.35 
   8   1   7   12.90    0.45 
   8   1   7   11.91    0.41 
   7  -2  -7    1.53    0.26 
   6  -2  -7    4.76    0.35 
   6  -2  -7    5.03    0.28 
   5  -2  -7    0.85    0.13 
   4  -2  -7    1.11    0.12 
   4  -2  -7    1.60    0.12 
  -4   2   7    1.23    0.13 
   3  -2  -7    4.52    0.16 
   3  -2  -7    4.34    0.20 
   3  -2  -7    4.16    0.16 
  -3   2   7    4.59    0.16 
  -3   2   7    4.66    0.15 
  -3   2   7    4.81    0.21 
   2  -2  -7    8.84    0.24 
   2  -2  -7    8.40    0.24 
   2  -2  -7    8.78    0.27 
  -2   2   7    8.81    0.24 
  -2   2   7    8.84    0.28 
  -2   2   7    8.73    0.23 
   1  -2  -7   39.62    0.85 
   1  -2  -7   40.98    0.89 
   1  -2  -7   41.32    0.87 
   1  -2  -7   42.34    0.85 
   1  -2  -7   39.97    0.89 
  -1   2   7   41.37    0.85 
  -1   2   7   41.12    0.90 
  -1   2   7   41.19    0.84 
  -1   2   7   38.94    0.83 
   0  -2  -7    2.20    0.13 
   0  -2  -7    2.12    0.12 
   0  -2  -7    2.23    0.13 
   0  -2  -7    2.02    0.12 
   0  -2  -7    2.06    0.13 
   0   2   7    2.12    0.11 
   0   2   7    2.15    0.13 
   0   2   7    2.13    0.14 
   0   2   7    1.98    0.11 
  -1  -2  -7   57.13    1.21 
  -1  -2  -7   58.64    1.18 
  -1  -2  -7   55.62    1.17 
  -1  -2  -7   57.10    1.21 
  -1  -2  -7   56.07    1.22 
   1   2   7   58.21    1.18 
   1   2   7   55.99    1.22 
   1   2   7   57.48    1.17 
   1   2   7   59.55    1.20 
  -2  -2  -7   28.63    0.64 
  -2  -2  -7   28.20    0.66 
  -2  -2  -7   27.98    0.64 
  -2  -2  -7   28.34    0.62 
   2   2   7   28.46    0.64 
   2   2   7   27.64    0.62 
   2   2   7   27.79    0.64 
   2   2   7   27.31    0.63 
  -3  -2  -7   44.82    0.96 
  -3  -2  -7   44.91    0.96 
  -3  -2  -7   44.38    0.95 
  -3  -2  -7   45.98    1.00 
   3   2   7   43.84    0.98 
   3   2   7   43.93    0.96 
   3   2   7   43.83    0.94 
   3   2   7   44.93    0.97 
   3   2   7   44.89    0.96 
  -4  -2  -7   13.06    0.39 
  -4  -2  -7   12.33    0.34 
  -4  -2  -7   12.41    0.36 
  -4  -2  -7   12.66    0.35 
   4   2   7   12.17    0.36 
   4   2   7   12.16    0.34 
   4   2   7   12.49    0.35 
   4   2   7   12.90    0.36 
   4   2   7   11.94    0.36 
  -5  -2  -7    4.23    0.22 
  -5  -2  -7    4.05    0.22 
  -5  -2  -7    4.08    0.19 
   5   2   7    4.56    0.25 
   5   2   7    4.25    0.21 
   5   2   7    4.36    0.19 
   5   2   7    4.38    0.22 
   5   2   7    4.37    0.21 
  -6  -2  -7   12.28    0.38 
  -6  -2  -7   12.29    0.39 
  -6  -2  -7   12.12    0.34 
   6   2   7   11.84    0.38 
   6   2   7   11.84    0.37 
   6   2   7   11.09    0.38 
   6   2   7   11.91    0.33 
   6   2   7   11.87    0.42 
  -7  -2  -7    2.77    0.27 
   7   2   7    2.72    0.31 
   7   2   7    2.46    0.23 
   7   2   7    2.39    0.21 
   8   2   7    4.65    0.26 
   8   2   7    4.67    0.30 
   7  -3  -7   14.36    0.59 
   6  -3  -7   24.23    0.70 
   5  -3  -7   12.60    0.43 
   5  -3  -7   12.56    0.38 
   4  -3  -7   42.21    0.94 
   3  -3  -7   49.27    0.96 
   3  -3  -7   47.69    1.04 
   3  -3  -7   48.36    0.99 
   3  -3  -7   44.96    0.95 
   2  -3  -7    6.33    0.19 
   2  -3  -7    6.55    0.20 
   2  -3  -7    6.22    0.19 
   2  -3  -7    6.20    0.23 
  -2   3   7    6.34    0.18 
  -2   3   7    6.89    0.24 
  -2   3   7    6.40    0.19 
   1  -3  -7   34.35    0.74 
   1  -3  -7   33.58    0.76 
   1  -3  -7   33.77    0.72 
   1  -3  -7   34.10    0.73 
   1  -3  -7   33.02    0.71 
  -1   3   7   33.69    0.71 
  -1   3   7   34.54    0.77 
  -1   3   7   34.11    0.71 
   0  -3  -7   30.58    0.69 
   0  -3  -7   30.70    0.67 
   0  -3  -7   31.02    0.68 
   0  -3  -7   31.71    0.69 
   0  -3  -7   30.68    0.66 
   0   3   7   31.37    0.66 
   0   3   7   30.78    0.70 
   0   3   7   30.00    0.65 
   0   3   7   31.47    0.67 
  -1  -3  -7   14.28    0.37 
  -1  -3  -7   14.38    0.37 
  -1  -3  -7   14.69    0.35 
  -1  -3  -7   14.74    0.37 
  -1  -3  -7   14.33    0.37 
   1   3   7   14.56    0.36 
   1   3   7   14.46    0.35 
  -2  -3  -7    0.15    0.06 
  -2  -3  -7    0.04    0.06 
  -2  -3  -7    0.19    0.07 
  -2  -3  -7    0.12    0.06 
  -2  -3  -7    0.14    0.06 
   2   3   7    0.12    0.05 
   2   3   7    0.12    0.06 
   2   3   7    0.24    0.07 
   2   3   7    0.23    0.06 
  -3  -3  -7    2.42    0.15 
  -3  -3  -7    2.47    0.14 
  -3  -3  -7    2.24    0.15 
  -3  -3  -7    2.50    0.16 
  -3  -3  -7    2.25    0.14 
   3   3   7    2.43    0.13 
   3   3   7    2.46    0.15 
   3   3   7    2.42    0.15 
   3   3   7    2.47    0.15 
   3   3   7    2.41    0.14 
  -4  -3  -7    0.31    0.09 
  -4  -3  -7    0.43    0.08 
  -4  -3  -7    0.45    0.09 
  -4  -3  -7    0.31    0.07 
  -4  -3  -7    0.44    0.10 
   4   3   7    0.22    0.08 
   4   3   7    0.41    0.09 
   4   3   7    0.37    0.09 
   4   3   7    0.20    0.08 
   4   3   7    0.35    0.08 
  -5  -3  -7    4.93    0.23 
  -5  -3  -7    4.92    0.24 
  -5  -3  -7    4.98    0.20 
  -5  -3  -7    5.11    0.24 
   5   3   7    4.87    0.25 
   5   3   7    5.19    0.19 
   5   3   7    4.88    0.22 
   5   3   7    4.92    0.22 
   5   3   7    4.76    0.23 
  -6  -3  -7   11.22    0.36 
  -6  -3  -7   10.47    0.30 
  -6  -3  -7   10.83    0.37 
  -6  -3  -7    9.02    0.36 
   6   3   7   10.71    0.36 
   6   3   7   11.74    0.35 
   6   3   7   11.17    0.39 
   6   3   7   11.18    0.36 
  -7  -3  -7    1.13    0.18 
   7   3   7    1.22    0.16 
   7   3   7    1.01    0.15 
   7   3   7    1.60    0.21 
   8   3   7   15.28    0.50 
   8   3   7   15.05    0.45 
   6  -4  -7   20.93    0.63 
   6  -4  -7   20.73    0.57 
   5  -4  -7    2.54    0.22 
   4  -4  -7    7.30    0.20 
   4  -4  -7    7.49    0.27 
   3  -4  -7   11.20    0.27 
   3  -4  -7   10.86    0.33 
   2  -4  -7   15.49    0.35 
   2  -4  -7   15.54    0.41 
   2  -4  -7   15.76    0.36 
   2  -4  -7   15.29    0.36 
  -2   4   7   15.49    0.35 
  -2   4   7   15.71    0.35 
   1  -4  -7   58.78    1.25 
   1  -4  -7   60.53    1.23 
   1  -4  -7   58.74    1.18 
   1  -4  -7   59.25    1.22 
  -1   4   7   58.87    1.19 
  -1   4   7   58.34    1.18 
   0  -4  -7    0.12    0.05 
   0  -4  -7    0.04    0.05 
   0  -4  -7    0.11    0.06 
   0  -4  -7    0.17    0.06 
   0  -4  -7    0.10    0.05 
   0   4   7    0.16    0.05 
   0   4   7    0.11    0.06 
   0   4   7    0.08    0.05 
  -1  -4  -7   46.25    0.96 
  -1  -4  -7   44.51    0.94 
  -1  -4  -7   45.62    0.98 
  -1  -4  -7   46.16    0.97 
  -1  -4  -7   46.41    0.98 
   1   4   7   45.14    0.94 
   1   4   7   45.57    0.99 
   1   4   7   46.44    0.96 
   1   4   7   44.89    0.95 
  -2  -4  -7   46.24    0.99 
  -2  -4  -7   48.34    1.02 
  -2  -4  -7   46.72    1.02 
  -2  -4  -7   48.81    1.03 
  -2  -4  -7   48.91    1.01 
   2   4   7   46.44    1.00 
   2   4   7   47.52    0.99 
   2   4   7   45.74    1.03 
   2   4   7   48.14    1.02 
   2   4   7   48.62    1.01 
  -3  -4  -7   39.20    0.88 
  -3  -4  -7   38.44    0.84 
  -3  -4  -7   38.45    0.86 
  -3  -4  -7   39.99    0.86 
  -3  -4  -7   39.63    0.85 
   3   4   7   39.35    0.84 
   3   4   7   38.93    0.86 
   3   4   7   39.58    0.85 
   3   4   7   38.25    0.85 
   3   4   7   40.34    0.87 
  -4  -4  -7   62.51    1.34 
  -4  -4  -7   61.50    1.30 
  -4  -4  -7   60.56    1.31 
  -4  -4  -7   61.91    1.28 
   4   4   7   61.59    1.32 
   4   4   7   61.05    1.28 
   4   4   7   60.94    1.31 
   4   4   7   60.79    1.29 
  -5  -4  -7   11.83    0.39 
  -5  -4  -7   12.12    0.36 
  -5  -4  -7   11.77    0.36 
  -5  -4  -7   12.07    0.37 
  -5  -4  -7   11.84    0.32 
   5   4   7   12.33    0.38 
   5   4   7   12.18    0.36 
  -6  -4  -7   24.77    0.66 
  -6  -4  -7   24.85    0.62 
  -6  -4  -7   25.19    0.64 
  -6  -4  -7   23.46    0.56 
   6   4   7   25.41    0.61 
   6   4   7   25.21    0.65 
   6   4   7   24.37    0.63 
   6   4   7   24.73    0.63 
  -7  -4  -7    2.56    0.26 
   7   4   7    2.32    0.21 
   7   4   7    2.25    0.22 
   7   4   7    2.32    0.23 
   8   4   7    4.09    0.26 
   8   4   7    4.41    0.30 
   6  -5  -7    1.88    0.21 
   6  -5  -7    2.14    0.20 
   5  -5  -7   19.31    0.52 
   5  -5  -7   19.07    0.54 
   4  -5  -7    2.05    0.10 
   4  -5  -7    2.12    0.19 
   4  -5  -7    2.23    0.19 
   3  -5  -7   51.78    1.13 
   3  -5  -7   51.60    1.05 
   2  -5  -7    0.48    0.06 
   2  -5  -7    0.50    0.09 
   2  -5  -7    0.50    0.07 
   2  -5  -7    0.38    0.06 
  -2   5   7    0.41    0.05 
  -2   5   7    0.43    0.06 
   1  -5  -7   56.86    1.18 
   1  -5  -7   56.85    1.14 
   1  -5  -7   57.30    1.15 
   1  -5  -7   57.33    1.17 
   1  -5  -7   55.87    1.21 
  -1   5   7   56.04    1.13 
  -1   5   7   57.25    1.14 
   0  -5  -7    2.57    0.15 
   0  -5  -7    2.62    0.12 
   0  -5  -7    2.79    0.13 
   0  -5  -7    2.49    0.13 
   0  -5  -7    2.64    0.13 
   0   5   7    2.69    0.11 
   0   5   7    2.81    0.13 
  -1  -5  -7   42.84    0.91 
  -1  -5  -7   43.49    0.94 
  -1  -5  -7   43.28    0.93 
  -1  -5  -7   43.71    0.92 
  -1  -5  -7   44.14    0.93 
   1   5   7   42.93    0.90 
   1   5   7   44.10    0.92 
   1   5   7   43.92    0.92 
  -2  -5  -7   30.56    0.68 
  -2  -5  -7   30.56    0.66 
  -2  -5  -7   29.76    0.68 
  -2  -5  -7   29.89    0.68 
  -2  -5  -7   30.60    0.68 
   2   5   7   29.59    0.66 
   2   5   7   30.63    0.68 
   2   5   7   29.52    0.66 
   2   5   7   29.91    0.67 
  -3  -5  -7   15.37    0.41 
  -3  -5  -7   15.21    0.38 
  -3  -5  -7   14.89    0.40 
   3   5   7   15.48    0.40 
   3   5   7   15.15    0.38 
   3   5   7   14.71    0.39 
  -4  -5  -7   25.05    0.62 
  -4  -5  -7   24.64    0.60 
  -4  -5  -7   25.58    0.59 
  -4  -5  -7   25.23    0.58 
   4   5   7   24.97    0.59 
   4   5   7   25.53    0.59 
   4   5   7   25.02    0.61 
   4   5   7   24.43    0.62 
  -5  -5  -7    1.07    0.12 
  -5  -5  -7    1.26    0.14 
  -5  -5  -7    1.12    0.14 
  -5  -5  -7    1.01    0.12 
  -5  -5  -7    1.22    0.13 
   5   5   7    1.17    0.13 
   5   5   7    1.00    0.12 
   5   5   7    1.07    0.13 
  -6  -5  -7   11.19    0.37 
  -6  -5  -7   10.43    0.37 
  -6  -5  -7   10.48    0.35 
  -6  -5  -7   10.48    0.30 
  -6  -5  -7   10.87    0.39 
   6   5   7   10.41    0.34 
   6   5   7   10.73    0.36 
   6   5   7   10.65    0.38 
   6   5   7   10.76    0.35 
  -7  -5  -7   17.78    0.52 
   7   5   7   18.13    0.56 
   7   5   7   17.39    0.49 
   7   5   7   17.24    0.52 
   8   5   7    5.39    0.29 
   8   5   7    5.64    0.33 
   6  -6  -7    0.21    0.19 
   6  -6  -7    0.30    0.17 
   5  -6  -7    9.09    0.35 
   5  -6  -7    9.30    0.34 
   4  -6  -7    3.10    0.21 
   4  -6  -7    3.24    0.13 
   4  -6  -7    3.32    0.22 
   3  -6  -7    5.58    0.25 
   3  -6  -7    5.32    0.17 
   3  -6  -7    5.45    0.21 
   2  -6  -7   22.42    0.50 
   2  -6  -7   22.07    0.50 
   2  -6  -7   22.25    0.47 
   2  -6  -7   22.25    0.56 
   2  -6  -7   22.66    0.48 
   1  -6  -7    0.19    0.06 
   1  -6  -7    0.17    0.07 
   1  -6  -7    0.25    0.06 
   1  -6  -7    0.17    0.05 
   1  -6  -7    0.27    0.06 
  -1   6   7    0.36    0.06 
   0  -6  -7   46.86    0.97 
   0  -6  -7   47.51    0.98 
   0  -6  -7   46.53    0.96 
   0  -6  -7   45.59    1.01 
   0  -6  -7   46.67    0.97 
   0   6   7   46.06    0.94 
   0   6   7   45.17    0.96 
   0   6   7   46.59    0.96 
  -1  -6  -7    0.14    0.06 
  -1  -6  -7    0.29    0.06 
  -1  -6  -7    0.18    0.07 
  -1  -6  -7    0.28    0.06 
  -1  -6  -7    0.38    0.07 
   1   6   7    0.38    0.06 
   1   6   7    0.38    0.06 
   1   6   7    0.42    0.07 
  -2  -6  -7   95.58    1.91 
  -2  -6  -7   96.78    1.96 
  -2  -6  -7   95.84    1.93 
  -2  -6  -7   96.85    1.97 
  -2  -6  -7   95.74    1.96 
   2   6   7   96.75    1.92 
   2   6   7   93.06    1.94 
   2   6   7   94.99    1.91 
  -3  -6  -7    0.17    0.07 
  -3  -6  -7    0.24    0.07 
  -3  -6  -7    0.19    0.07 
  -3  -6  -7    0.21    0.07 
  -3  -6  -7    0.33    0.09 
   3   6   7    0.17    0.08 
   3   6   7    0.14    0.06 
   3   6   7    0.17    0.07 
   3   6   7    0.30    0.08 
  -4  -6  -7   32.04    0.75 
  -4  -6  -7   30.45    0.73 
  -4  -6  -7   32.87    0.73 
  -4  -6  -7   31.10    0.70 
   4   6   7   31.27    0.73 
   4   6   7   31.04    0.73 
   4   6   7   31.27    0.72 
   4   6   7   32.53    0.72 
  -5  -6  -7    1.76    0.19 
  -5  -6  -7    2.02    0.15 
  -5  -6  -7    2.03    0.19 
  -5  -6  -7    1.72    0.18 
  -5  -6  -7    2.00    0.17 
   5   6   7    1.48    0.14 
   5   6   7    1.62    0.16 
   5   6   7    1.74    0.17 
  -6  -6  -7   34.49    0.80 
  -6  -6  -7   33.56    0.84 
  -6  -6  -7   33.98    0.82 
  -6  -6  -7   32.71    0.74 
  -6  -6  -7   32.75    0.80 
   6   6   7   34.30    0.81 
   6   6   7   34.18    0.82 
   6   6   7   33.24    0.79 
  -7  -6  -7    0.79    0.10 
  -7  -6  -7    1.03    0.18 
  -7  -6  -7    0.80    0.15 
   7   6   7    1.04    0.16 
   7   6   7    0.87    0.19 
   7   6   7    0.81    0.14 
   8   6   7    1.91    0.21 
   8   6   7    1.92    0.20 
   6  -7  -7    0.11    0.18 
   5  -7  -7   12.39    0.43 
   5  -7  -7   12.15    0.40 
   4  -7  -7    0.58    0.11 
   4  -7  -7    0.42    0.07 
   4  -7  -7    0.38    0.12 
   3  -7  -7   99.15    2.04 
   3  -7  -7   96.17    1.96 
   3  -7  -7   97.71    1.99 
   2  -7  -7    0.91    0.10 
   2  -7  -7    1.04    0.11 
   2  -7  -7    0.89    0.09 
   2  -7  -7    1.00    0.11 
   1  -7  -7   18.05    0.42 
   1  -7  -7   17.12    0.38 
   1  -7  -7   17.53    0.40 
   1  -7  -7   18.03    0.42 
   1  -7  -7   17.38    0.46 
  -1   7   7   17.24    0.40 
  -1   7   7   17.37    0.40 
   0  -7  -7   12.03    0.31 
   0  -7  -7   12.03    0.32 
   0  -7  -7   12.58    0.33 
   0  -7  -7   12.02    0.28 
   0  -7  -7   11.96    0.35 
   0   7   7   11.79    0.31 
   0   7   7   12.33    0.32 
  -1  -7  -7   41.45    0.89 
  -1  -7  -7   40.01    0.86 
  -1  -7  -7   41.47    0.90 
  -1  -7  -7   40.21    0.87 
  -1  -7  -7   40.81    0.91 
   1   7   7   41.28    0.88 
   1   7   7   40.91    0.87 
   1   7   7   42.11    0.87 
  -2  -7  -7   10.90    0.31 
  -2  -7  -7   10.89    0.30 
  -2  -7  -7   11.26    0.33 
  -2  -7  -7   11.06    0.32 
  -2  -7  -7   11.22    0.33 
   2   7   7   11.10    0.32 
   2   7   7   11.10    0.32 
   2   7   7   11.41    0.28 
   2   7   7   11.51    0.31 
  -3  -7  -7    2.48    0.16 
  -3  -7  -7    2.31    0.16 
  -3  -7  -7    2.40    0.15 
  -3  -7  -7    2.31    0.15 
  -3  -7  -7    2.46    0.18 
   3   7   7    2.49    0.17 
   3   7   7    2.13    0.16 
   3   7   7    2.45    0.14 
   3   7   7    2.33    0.16 
  -4  -7  -7    5.73    0.22 
  -4  -7  -7    5.64    0.24 
  -4  -7  -7    6.20    0.24 
   4   7   7    5.71    0.25 
   4   7   7    5.90    0.23 
   4   7   7    5.87    0.25 
   4   7   7    5.62    0.22 
  -5  -7  -7    8.25    0.31 
  -5  -7  -7    7.84    0.30 
  -5  -7  -7    7.57    0.29 
  -5  -7  -7    7.79    0.31 
  -5  -7  -7    7.87    0.26 
   5   7   7    8.11    0.29 
   5   7   7    7.63    0.31 
   5   7   7    7.82    0.30 
  -6  -7  -7    2.60    0.25 
  -6  -7  -7    2.98    0.26 
  -6  -7  -7    2.88    0.21 
  -6  -7  -7    2.88    0.18 
  -6  -7  -7    3.20    0.25 
   6   7   7    3.13    0.24 
   6   7   7    2.91    0.26 
   6   7   7    3.11    0.23 
  -7  -7  -7   13.70    0.37 
  -7  -7  -7   14.22    0.49 
  -7  -7  -7   13.94    0.45 
   7   7   7   14.51    0.47 
   7   7   7   14.34    0.50 
   7   7   7   14.30    0.46 
  -8  -7  -7    0.03    0.17 
   8   7   7   -0.09    0.14 
   8   7   7    0.12    0.13 
   5  -8  -7    3.80    0.30 
   4  -8  -7    4.33    0.19 
   4  -8  -7    4.54    0.28 
   3  -8  -7    1.92    0.15 
   3  -8  -7    1.75    0.20 
   2  -8  -7   29.66    0.73 
   2  -8  -7   30.07    0.64 
   2  -8  -7   30.36    0.66 
   2  -8  -7   29.81    0.63 
   1  -8  -7    1.07    0.13 
   1  -8  -7    1.09    0.10 
   1  -8  -7    1.14    0.13 
   1  -8  -7    1.24    0.13 
  -1   8   7    1.12    0.10 
  -1   8   7    1.08    0.11 
   0  -8  -7   22.57    0.54 
   0  -8  -7   21.67    0.58 
   0  -8  -7   23.25    0.54 
   0   8   7   23.34    0.52 
  -1  -8  -7   10.93    0.34 
  -1  -8  -7   11.22    0.33 
  -1  -8  -7   11.16    0.32 
  -1  -8  -7   10.64    0.31 
   1   8   7   11.20    0.29 
   1   8   7   11.09    0.31 
   1   8   7   10.87    0.32 
  -2  -8  -7   70.63    1.48 
  -2  -8  -7   69.96    1.46 
  -2  -8  -7   69.74    1.45 
  -2  -8  -7   70.81    1.45 
  -2  -8  -7   68.41    1.49 
   2   8   7   69.67    1.45 
   2   8   7   71.58    1.46 
   2   8   7   70.89    1.43 
   2   8   7   69.89    1.45 
  -3  -8  -7    0.89    0.10 
  -3  -8  -7    1.02    0.12 
  -3  -8  -7    0.82    0.12 
  -3  -8  -7    0.77    0.12 
   3   8   7    0.91    0.09 
   3   8   7    0.63    0.10 
   3   8   7    0.82    0.10 
   3   8   7    1.00    0.11 
  -4  -8  -7   15.53    0.43 
  -4  -8  -7   15.54    0.43 
  -4  -8  -7   15.51    0.46 
  -4  -8  -7   15.23    0.42 
  -4  -8  -7   15.04    0.43 
   4   8   7   15.34    0.44 
   4   8   7   15.29    0.44 
   4   8   7   15.37    0.43 
   4   8   7   15.18    0.40 
  -5  -8  -7    7.75    0.31 
  -5  -8  -7    7.67    0.27 
  -5  -8  -7    7.62    0.30 
  -5  -8  -7    7.93    0.32 
  -5  -8  -7    7.45    0.32 
   5   8   7    7.45    0.31 
   5   8   7    8.05    0.29 
   5   8   7    7.75    0.32 
   5   8   7    7.15    0.29 
  -6  -8  -7   23.28    0.64 
  -6  -8  -7   22.71    0.61 
  -6  -8  -7   23.52    0.63 
  -6  -8  -7   22.72    0.55 
  -6  -8  -7   23.37    0.64 
   6   8   7   22.43    0.61 
   6   8   7   23.25    0.64 
   6   8   7   23.24    0.62 
  -7  -8  -7    0.57    0.19 
  -7  -8  -7    0.52    0.15 
  -7  -8  -7    0.57    0.12 
   7   8   7    0.25    0.17 
   7   8   7    0.81    0.16 
   7   8   7    0.36    0.15 
  -8  -8  -7    8.51    0.42 
   8   8   7    8.62    0.42 
   8   8   7    8.41    0.40 
   5  -9  -7   13.43    0.51 
   4  -9  -7   54.74    1.14 
   4  -9  -7   53.73    1.24 
   3  -9  -7    3.93    0.20 
   3  -9  -7    3.80    0.26 
   2  -9  -7   20.86    0.58 
   2  -9  -7   21.84    0.48 
   2  -9  -7   21.29    0.52 
   2  -9  -7   21.90    0.49 
  -2   9   7   21.48    0.47 
   1  -9  -7   28.17    0.63 
   1  -9  -7   27.73    0.64 
   1  -9  -7   26.86    0.69 
   1  -9  -7   27.57    0.62 
  -1   9   7   28.64    0.61 
   0  -9  -7   65.24    1.35 
   0  -9  -7   64.88    1.41 
   0  -9  -7   64.00    1.33 
   0  -9  -7   65.73    1.38 
   0   9   7   65.36    1.33 
  -1  -9  -7    0.01    0.08 
  -1  -9  -7    0.04    0.07 
  -1  -9  -7    0.08    0.09 
  -1  -9  -7    0.06    0.07 
   1   9   7    0.01    0.05 
   1   9   7    0.09    0.07 
   1   9   7    0.00    0.07 
  -2  -9  -7   10.02    0.33 
   2   9   7   10.38    0.30 
   2   9   7   10.15    0.31 
   2   9   7   10.31    0.25 
   2   9   7    9.74    0.32 
  -3  -9  -7    0.54    0.11 
  -3  -9  -7    0.47    0.12 
  -3  -9  -7    0.60    0.10 
  -3  -9  -7    0.53    0.10 
  -3  -9  -7    0.50    0.10 
   3   9   7    0.46    0.09 
   3   9   7    0.54    0.11 
   3   9   7    0.45    0.10 
   3   9   7    0.64    0.08 
  -4  -9  -7    4.48    0.23 
  -4  -9  -7    4.35    0.26 
  -4  -9  -7    4.01    0.22 
  -4  -9  -7    4.24    0.24 
  -4  -9  -7    4.28    0.23 
   4   9   7    4.23    0.24 
   4   9   7    4.23    0.23 
   4   9   7    3.97    0.21 
  -5  -9  -7    4.17    0.23 
  -5  -9  -7    4.15    0.30 
  -5  -9  -7    3.87    0.27 
  -5  -9  -7    4.41    0.26 
  -5  -9  -7    4.05    0.23 
   5   9   7    4.04    0.23 
   5   9   7    4.23    0.27 
   5   9   7    3.69    0.27 
   5   9   7    3.72    0.22 
  -6  -9  -7    1.82    0.20 
  -6  -9  -7    1.45    0.16 
  -6  -9  -7    1.72    0.20 
   6   9   7    1.52    0.19 
   6   9   7    1.62    0.18 
   6   9   7    1.22    0.17 
  -7  -9  -7   10.51    0.48 
  -7  -9  -7    9.89    0.40 
  -7  -9  -7   10.19    0.34 
   7   9   7   10.14    0.44 
   7   9   7   10.13    0.42 
   7   9   7   10.11    0.48 
   8   9   7    5.84    0.40 
   8   9   7    6.04    0.40 
   4 -10  -7    0.62    0.18 
   3 -10  -7    0.25    0.13 
   3 -10  -7    0.11    0.11 
   2 -10  -7    7.41    0.25 
   2 -10  -7    7.48    0.27 
   2 -10  -7    7.05    0.32 
   2 -10  -7    7.04    0.23 
  -2  10   7    6.91    0.22 
  -2  10   7    7.02    0.23 
   1 -10  -7    0.20    0.09 
   1 -10  -7    0.18    0.10 
   1 -10  -7    0.13    0.07 
   1 -10  -7    0.19    0.10 
  -1  10   7    0.17    0.07 
  -1  10   7    0.06    0.09 
   0 -10  -7    4.23    0.22 
   0 -10  -7    4.26    0.22 
   0 -10  -7    4.02    0.19 
   0  10   7    4.44    0.21 
  -1 -10  -7   35.92    0.81 
  -1 -10  -7   35.10    0.80 
  -1 -10  -7   35.46    0.82 
   1  10   7   34.45    0.80 
  -2 -10  -7    2.45    0.18 
  -2 -10  -7    2.43    0.22 
  -2 -10  -7    2.24    0.17 
   2  10   7    2.46    0.18 
   2  10   7    2.36    0.16 
   2  10   7    2.39    0.19 
  -3 -10  -7   17.41    0.50 
  -3 -10  -7   16.97    0.48 
  -3 -10  -7   17.37    0.49 
  -3 -10  -7   16.72    0.48 
   3  10   7   17.41    0.48 
   3  10   7   16.92    0.40 
   3  10   7   17.50    0.46 
   3  10   7   16.80    0.48 
  -4 -10  -7    2.70    0.23 
  -4 -10  -7    2.95    0.20 
  -4 -10  -7    3.25    0.23 
  -4 -10  -7    3.07    0.27 
   4  10   7    2.74    0.24 
   4  10   7    2.87    0.24 
   4  10   7    3.00    0.20 
   4  10   7    3.09    0.22 
  -5 -10  -7   26.88    0.70 
  -5 -10  -7   27.16    0.67 
  -5 -10  -7   27.66    0.72 
  -5 -10  -7   25.90    0.69 
   5  10   7   26.66    0.66 
   5  10   7   26.10    0.70 
   5  10   7   26.83    0.71 
  -6 -10  -7    0.26    0.18 
  -6 -10  -7   -0.03    0.18 
  -6 -10  -7    0.07    0.12 
  -6 -10  -7    0.22    0.13 
   6  10   7    0.08    0.18 
   6  10   7    0.06    0.14 
   6  10   7    0.15    0.16 
  -7 -10  -7    6.68    0.32 
  -7 -10  -7    6.81    0.44 
  -7 -10  -7    5.88    0.36 
   7  10   7    6.35    0.38 
   7  10   7    6.69    0.41 
   7  10   7    7.12    0.49 
   3 -11  -7    0.31    0.17 
   3 -11  -7    0.51    0.15 
   2 -11  -7   18.25    0.49 
   2 -11  -7   17.52    0.44 
   2 -11  -7   17.82    0.55 
   2 -11  -7   18.05    0.46 
   1 -11  -7    6.08    0.23 
   1 -11  -7    6.62    0.28 
   1 -11  -7    6.45    0.28 
  -1  11   7    6.06    0.25 
   0 -11  -7   12.03    0.38 
   0 -11  -7   11.17    0.34 
   0 -11  -7   11.51    0.37 
   0  11   7   11.64    0.36 
  -1 -11  -7    1.17    0.16 
  -1 -11  -7    0.64    0.10 
  -1 -11  -7    0.95    0.13 
   1  11   7    0.98    0.14 
  -2 -11  -7    0.36    0.14 
  -2 -11  -7    0.26    0.10 
  -2 -11  -7    0.30    0.10 
   2  11   7    0.26    0.13 
   2  11   7    0.26    0.10 
   2  11   7    0.41    0.10 
  -3 -11  -7    0.23    0.11 
  -3 -11  -7    0.01    0.14 
  -3 -11  -7    0.05    0.09 
   3  11   7    0.00    0.13 
   3  11   7    0.31    0.08 
   3  11   7    0.29    0.11 
  -4 -11  -7    0.61    0.12 
  -4 -11  -7    0.77    0.15 
  -4 -11  -7    0.49    0.14 
  -4 -11  -7    0.94    0.20 
   4  11   7    0.52    0.14 
   4  11   7    0.51    0.15 
   4  11   7    0.58    0.11 
   4  11   7    0.86    0.15 
  -5 -11  -7    0.99    0.17 
  -5 -11  -7    1.34    0.15 
  -5 -11  -7    1.37    0.22 
  -5 -11  -7    1.33    0.19 
   5  11   7    1.46    0.21 
   5  11   7    1.35    0.21 
   5  11   7    1.35    0.16 
  -6 -11  -7    8.78    0.48 
  -6 -11  -7    8.75    0.38 
  -6 -11  -7    8.83    0.43 
  -6 -11  -7    7.77    0.36 
   6  11   7    7.79    0.43 
   6  11   7    8.38    0.47 
   6  11   7    8.75    0.38 
  -7 -11  -7    0.07    0.25 
  -7 -11  -7    0.12    0.17 
   7  11   7    0.35    0.23 
   7  11   7    0.17    0.20 
   2 -12  -7   -0.01    0.15 
   2 -12  -7    0.21    0.09 
   2 -12  -7    0.17    0.15 
   1 -12  -7    1.31    0.17 
   1 -12  -7    1.39    0.15 
   0 -12  -7   11.47    0.39 
   0 -12  -7   10.70    0.34 
  -1 -12  -7   14.46    0.45 
  -1 -12  -7   14.49    0.43 
  -1 -12  -7   15.19    0.47 
  -2 -12  -7    1.46    0.17 
  -2 -12  -7    1.04    0.14 
  -2 -12  -7    1.27    0.18 
   2  12   7    1.17    0.18 
  -3 -12  -7   12.95    0.49 
  -3 -12  -7   13.08    0.43 
  -3 -12  -7   12.19    0.42 
   3  12   7   12.29    0.46 
   3  12   7   13.07    0.41 
  -4 -12  -7    0.72    0.18 
  -4 -12  -7    0.63    0.20 
  -4 -12  -7    0.57    0.13 
   4  12   7    0.63    0.12 
   4  12   7    0.17    0.19 
  -5 -12  -7   23.35    0.68 
  -5 -12  -7   23.19    0.65 
  -5 -12  -7   22.95    0.73 
  -5 -12  -7   20.89    0.62 
   5  12   7   22.13    0.68 
   5  12   7   22.33    0.59 
  -6 -12  -7    1.56    0.23 
  -6 -12  -7    1.76    0.26 
  -6 -12  -7    1.54    0.20 
   6  12   7    1.79    0.22 
   6  12   7    1.69    0.26 
   1 -13  -7   13.36    0.48 
   0 -13  -7    2.36    0.27 
   0 -13  -7    2.33    0.18 
  -1 -13  -7    2.68    0.21 
  -1 -13  -7    3.01    0.27 
  -2 -13  -7    0.11    0.12 
  -2 -13  -7    0.23    0.12 
  -3 -13  -7    2.75    0.26 
  -3 -13  -7    3.09    0.24 
   3  13   7    2.48    0.31 
  -4 -13  -7    5.08    0.29 
  -4 -13  -7    4.97    0.32 
   4  13   7    4.52    0.44 
  -5 -13  -7   -0.21    0.18 
   5  13   7   -0.21    0.21 
   1   7  -8    3.89    0.43 
  -1  -7   8    4.04    0.35 
  -1  -7   8    3.70    0.34 
   0   7  -8    0.93    0.26 
   0  -7   8    1.05    0.25 
   0  -7   8    0.73    0.18 
  -1   7  -8    3.66    0.37 
   1  -7   8    3.36    0.33 
   3   6  -8    3.18    0.38 
   3   6  -8    4.49    0.36 
  -3  -6   8    4.78    0.40 
   2   6  -8    4.38    0.36 
   2   6  -8    4.06    0.33 
  -2  -6   8    4.19    0.35 
  -2  -6   8    4.41    0.45 
   1   6  -8    0.68    0.22 
   1   6  -8    0.61    0.16 
   1   6  -8    0.70    0.18 
  -1  -6   8    0.89    0.18 
  -1  -6   8    0.87    0.22 
   0   6  -8    6.67    0.42 
   0   6  -8    6.38    0.40 
   0  -6   8    7.09    0.41 
   0  -6   8    6.20    0.39 
   0  -6   8    7.05    0.33 
  -1   6  -8    2.15    0.27 
   1  -6   8    2.64    0.29 
   1  -6   8    3.15    0.25 
   1  -6   8    2.09    0.24 
  -2   6  -8   25.02    0.76 
   2  -6   8   25.62    0.69 
   2  -6   8   26.08    0.73 
   2  -6   8   26.93    0.83 
   3  -6   8    1.25    0.22 
   4   5  -8   12.35    0.51 
   4   5  -8   11.61    0.47 
  -4  -5   8   12.65    0.46 
   3   5  -8    3.16    0.32 
   3   5  -8    2.82    0.30 
  -3  -5   8    3.28    0.32 
  -3  -5   8    3.04    0.26 
  -3  -5   8    3.12    0.31 
   2   5  -8    8.78    0.41 
   2   5  -8    9.18    0.41 
   2   5  -8    8.30    0.39 
  -2  -5   8    9.34    0.46 
  -2  -5   8    8.68    0.35 
  -2  -5   8   10.17    0.40 
   1   5  -8   -0.12    0.15 
   1   5  -8   -0.01    0.13 
   1   5  -8    0.05    0.15 
  -1  -5   8    0.14    0.13 
  -1  -5   8    0.23    0.13 
  -1  -5   8    0.06    0.15 
   0   5  -8   10.57    0.42 
   0   5  -8   11.10    0.44 
   0   5  -8   11.90    0.43 
   0  -5   8   11.71    0.41 
   0  -5   8   10.92    0.39 
   0  -5   8   11.99    0.45 
  -1   5  -8    1.11    0.21 
  -1   5  -8    1.01    0.18 
  -1   5  -8    0.89    0.17 
   1  -5   8    0.88    0.17 
   1  -5   8    1.20    0.15 
   1  -5   8    1.11    0.20 
  -2   5  -8    3.58    0.34 
  -2   5  -8    3.50    0.32 
   2  -5   8    3.49    0.30 
   2  -5   8    4.17    0.34 
  -3   5  -8    0.02    0.21 
   3  -5   8    0.30    0.22 
   3  -5   8    0.07    0.15 
   4  -5   8    0.63    0.17 
   5   4  -8    0.86    0.19 
   5   4  -8    0.61    0.21 
   4   4  -8    0.16    0.17 
   4   4  -8    0.14    0.14 
  -4  -4   8    0.17    0.14 
   3   4  -8    0.03    0.13 
   3   4  -8   -0.02    0.15 
   3   4  -8   -0.09    0.13 
  -3  -4   8    0.08    0.14 
  -3  -4   8    0.00    0.11 
  -3  -4   8    0.20    0.19 
   2   4  -8    5.96    0.31 
   2   4  -8    5.89    0.32 
   2   4  -8    6.49    0.32 
  -2  -4   8    6.68    0.36 
  -2  -4   8    6.09    0.32 
   1   4  -8    2.37    0.25 
   1   4  -8    2.26    0.23 
   1   4  -8    2.68    0.25 
  -1  -4   8    2.79    0.21 
  -1  -4   8    2.78    0.28 
  -1  -4   8    2.57    0.20 
  -1  -4   8    2.96    0.24 
   0   4  -8    5.05    0.29 
   0   4  -8    5.87    0.31 
   0   4  -8    5.78    0.28 
   0   4  -8    5.55    0.29 
   0  -4   8    5.64    0.32 
   0  -4   8    6.24    0.27 
   0  -4   8    5.64    0.28 
   0  -4   8    5.33    0.25 
  -1   4  -8    3.70    0.26 
  -1   4  -8    3.35    0.25 
  -1   4  -8    3.86    0.27 
  -1   4  -8    3.82    0.28 
   1  -4   8    3.33    0.28 
   1  -4   8    3.92    0.27 
  -2   4  -8   15.89    0.50 
  -2   4  -8   15.04    0.50 
  -2   4  -8   15.70    0.48 
   2  -4   8   15.05    0.47 
   2  -4   8   15.36    0.49 
  -3   4  -8   44.36    1.05 
   3  -4   8   46.68    1.07 
   3  -4   8   44.45    1.04 
  -4   4  -8    0.45    0.19 
   4  -4   8    0.74    0.18 
   5  -4   8   11.67    0.43 
   5   3  -8    1.02    0.16 
   5   3  -8    0.93    0.20 
   4   3  -8   18.32    0.55 
   4   3  -8   18.76    0.57 
   4   3  -8   19.29    0.54 
  -4  -3   8   19.04    0.57 
  -4  -3   8   19.96    0.45 
  -4  -3   8   19.31    0.46 
   3   3  -8    2.33    0.22 
   3   3  -8    2.26    0.24 
   3   3  -8    1.90    0.19 
  -3  -3   8    2.28    0.18 
  -3  -3   8    1.85    0.21 
  -3  -3   8    1.89    0.21 
  -3  -3   8    2.53    0.23 
   2   3  -8   26.93    0.66 
   2   3  -8   26.40    0.69 
   2   3  -8   25.04    0.67 
  -2  -3   8   27.14    0.69 
  -2  -3   8   26.55    0.63 
  -2  -3   8   27.39    0.66 
  -2  -3   8   27.04    0.63 
  -2  -3   8   26.31    0.67 
   1   3  -8    2.54    0.21 
   1   3  -8    3.21    0.23 
   1   3  -8    3.37    0.24 
  -1  -3   8    3.02    0.26 
  -1  -3   8    3.22    0.19 
  -1  -3   8    2.81    0.19 
   0   3  -8   28.99    0.69 
   0   3  -8   26.77    0.72 
   0   3  -8   28.96    0.70 
   0  -3   8   28.92    0.70 
   0  -3   8   27.93    0.68 
   0  -3   8   29.18    0.69 
  -1   3  -8    3.48    0.24 
  -1   3  -8    3.10    0.22 
  -1   3  -8    3.19    0.24 
  -1   3  -8    3.17    0.23 
   1  -3   8    3.10    0.19 
   1  -3   8    3.50    0.23 
   1  -3   8    3.38    0.24 
   1  -3   8    3.38    0.19 
  -2   3  -8    3.95    0.27 
  -2   3  -8    4.39    0.27 
  -2   3  -8    4.51    0.27 
  -2   3  -8    3.73    0.26 
   2  -3   8    4.20    0.25 
   2  -3   8    3.87    0.21 
   2  -3   8    3.68    0.21 
   2  -3   8    4.45    0.27 
  -3   3  -8    1.36    0.16 
  -3   3  -8    1.12    0.19 
  -3   3  -8    1.37    0.18 
  -3   3  -8    1.41    0.18 
   3  -3   8    1.62    0.20 
   3  -3   8    1.59    0.19 
   3  -3   8    1.35    0.16 
  -4   3  -8    3.40    0.29 
   4  -3   8    3.05    0.26 
   4  -3   8    3.12    0.26 
   4  -3   8    3.08    0.34 
  -5   3  -8    4.33    0.36 
   5  -3   8    3.83    0.27 
   5  -3   8    4.08    0.31 
   5  -3   8    4.01    0.29 
   6  -3   8    0.49    0.15 
   6  -3   8    0.11    0.18 
   6   2  -8    5.13    0.40 
   6   2  -8    5.10    0.29 
   5   2  -8    0.81    0.18 
   5   2  -8    1.13    0.15 
  -5  -2   8    1.11    0.20 
   4   2  -8   10.39    0.39 
   4   2  -8   10.47    0.36 
   4   2  -8    9.92    0.36 
  -4  -2   8   10.53    0.38 
  -4  -2   8   10.27    0.42 
   3   2  -8    5.67    0.27 
   3   2  -8    6.16    0.29 
   3   2  -8    5.74    0.27 
  -3  -2   8    5.84    0.24 
  -3  -2   8    5.93    0.32 
  -3  -2   8    6.00    0.21 
  -3  -2   8    5.58    0.27 
   2   2  -8    1.99    0.20 
   2   2  -8    1.89    0.20 
   2   2  -8    1.91    0.19 
  -2  -2   8    1.45    0.14 
  -2  -2   8    1.53    0.13 
  -2  -2   8    1.79    0.15 
  -2  -2   8    1.48    0.16 
   1   2  -8   10.48    0.34 
   1   2  -8   10.02    0.34 
   1   2  -8   10.17    0.35 
  -1  -2   8   10.37    0.35 
  -1  -2   8   10.48    0.32 
  -1  -2   8   10.19    0.31 
  -1  -2   8   11.06    0.34 
   0   2  -8   22.54    0.60 
   0   2  -8   24.12    0.58 
   0   2  -8   23.20    0.58 
   0  -2   8   23.15    0.57 
   0  -2   8   23.45    0.58 
   0  -2   8   22.74    0.57 
   0  -2   8   23.38    0.57 
  -1   2  -8   38.85    0.93 
  -1   2  -8   40.14    0.90 
  -1   2  -8   41.27    0.90 
   1  -2   8   39.33    0.90 
   1  -2   8   40.46    0.90 
   1  -2   8   39.19    0.91 
   1  -2   8   40.34    0.90 
  -2   2  -8    1.40    0.16 
  -2   2  -8    1.80    0.18 
  -2   2  -8    1.58    0.17 
   2  -2   8    1.73    0.20 
   2  -2   8    1.42    0.16 
   2  -2   8    1.63    0.16 
  -3   2  -8   10.08    0.36 
  -3   2  -8    8.83    0.37 
  -3   2  -8    9.06    0.35 
  -3   2  -8    9.48    0.35 
   3  -2   8   10.59    0.38 
   3  -2   8    9.24    0.32 
  -4   2  -8    2.11    0.25 
  -4   2  -8    1.89    0.19 
  -4   2  -8    2.26    0.25 
   4  -2   8    1.95    0.21 
   4  -2   8    1.79    0.20 
   4  -2   8    1.83    0.21 
   4  -2   8    2.32    0.21 
  -5   2  -8   40.40    0.95 
   5  -2   8   40.16    0.93 
   5  -2   8   39.95    0.94 
   5  -2   8   41.32    0.96 
   6  -2   8    2.26    0.23 
   6  -2   8    2.39    0.24 
   6  -2   8    1.89    0.20 
   6   1  -8   18.59    0.57 
  -6  -1   8   17.54    0.60 
   5   1  -8    0.51    0.15 
   5   1  -8    0.40    0.15 
   5   1  -8    0.61    0.12 
  -5  -1   8    0.49    0.16 
  -5  -1   8    0.52    0.16 
   4   1  -8   22.14    0.58 
   4   1  -8   23.69    0.62 
   4   1  -8   23.65    0.57 
  -4  -1   8   23.83    0.60 
   3   1  -8    6.57    0.26 
   3   1  -8    6.48    0.28 
   3   1  -8    5.76    0.26 
  -3  -1   8    6.42    0.19 
  -3  -1   8    6.44    0.20 
   2   1  -8   20.63    0.51 
   2   1  -8   19.91    0.54 
   2   1  -8   20.27    0.52 
  -2  -1   8   20.38    0.48 
  -2  -1   8   20.63    0.54 
  -2  -1   8   20.51    0.53 
  -2  -1   8   20.53    0.49 
   1   1  -8    7.85    0.28 
   1   1  -8    7.68    0.27 
  -1  -1   8    8.07    0.29 
  -1  -1   8    7.93    0.25 
  -1  -1   8    7.94    0.27 
  -1  -1   8    8.07    0.26 
   0   1  -8   24.43    0.59 
   0   1  -8   24.39    0.59 
   0  -1   8   24.17    0.58 
   0  -1   8   24.69    0.58 
   0  -1   8   24.59    0.59 
  -1   1  -8   20.77    0.52 
  -1   1  -8   20.09    0.51 
  -1   1  -8   19.17    0.53 
   1  -1   8   20.39    0.51 
   1  -1   8   19.77    0.50 
   1  -1   8   19.44    0.51 
   1  -1   8   19.90    0.50 
  -2   1  -8    4.23    0.23 
  -2   1  -8    4.92    0.24 
  -2   1  -8    4.77    0.24 
   2  -1   8    4.53    0.23 
   2  -1   8    4.33    0.20 
   2  -1   8    5.00    0.24 
   2  -1   8    4.05    0.20 
  -3   1  -8    8.55    0.33 
  -3   1  -8    9.19    0.34 
  -3   1  -8    9.40    0.33 
   3  -1   8    8.99    0.32 
   3  -1   8    8.59    0.30 
   3  -1   8    9.12    0.34 
   3  -1   8    8.92    0.31 
  -4   1  -8   15.43    0.46 
  -4   1  -8   15.02    0.49 
  -4   1  -8   14.94    0.47 
   4  -1   8   15.38    0.48 
   4  -1   8   15.19    0.44 
   4  -1   8   14.90    0.44 
   4  -1   8   15.11    0.43 
  -5   1  -8    6.23    0.32 
  -5   1  -8    5.91    0.34 
   5  -1   8    6.21    0.36 
   5  -1   8    5.89    0.28 
   5  -1   8    5.43    0.28 
   5  -1   8    5.87    0.28 
  -6   1  -8    4.73    0.35 
   6  -1   8    4.88    0.28 
   6  -1   8    5.36    0.31 
   6  -1   8    4.56    0.28 
   7  -1   8    1.79    0.21 
   7  -1   8    1.58    0.18 
   6   0  -8    3.20    0.31 
   6   0  -8    3.13    0.21 
   6   0  -8    2.96    0.23 
  -6   0   8    2.85    0.34 
   5   0  -8    0.55    0.13 
   5   0  -8    0.70    0.11 
   5   0  -8    0.68    0.15 
  -5   0   8    1.01    0.14 
   4   0  -8    4.18    0.25 
   4   0  -8    3.93    0.21 
   4   0  -8    3.61    0.20 
  -4   0   8    3.97    0.17 
  -4   0   8    3.84    0.24 
   3   0  -8   18.39    0.50 
   3   0  -8   17.15    0.46 
   3   0  -8   18.69    0.45 
  -3   0   8   18.68    0.50 
  -3   0   8   17.74    0.47 
   2   0  -8    2.09    0.16 
   2   0  -8    2.01    0.18 
   2   0  -8    2.39    0.16 
  -2   0   8    2.20    0.13 
  -2   0   8    1.97    0.16 
  -2   0   8    2.06    0.14 
   1   0  -8   42.11    0.90 
   1   0  -8   41.14    0.90 
   1   0  -8   43.28    0.94 
   1   0  -8   41.65    0.95 
  -1   0   8   40.71    0.90 
  -1   0   8   41.62    0.94 
  -1   0   8   41.25    0.89 
  -1   0   8   43.31    0.91 
  -1   0   8   42.78    0.91 
   0   0  -8    0.75    0.10 
   0   0  -8    1.05    0.12 
   0   0  -8    0.83    0.10 
   0   0  -8    0.86    0.11 
   0   0   8    0.89    0.10 
   0   0   8    1.11    0.12 
   0   0   8    0.82    0.10 
   0   0   8    0.88    0.11 
  -1   0  -8   30.22    0.68 
  -1   0  -8   29.25    0.70 
  -1   0  -8   29.27    0.67 
  -1   0  -8   28.55    0.70 
   1   0   8   28.71    0.67 
   1   0   8   29.21    0.69 
   1   0   8   29.28    0.68 
   1   0   8   30.18    0.68 
  -2   0  -8   14.34    0.40 
  -2   0  -8   13.96    0.40 
  -2   0  -8   14.14    0.41 
   2   0   8   14.88    0.40 
   2   0   8   13.95    0.39 
   2   0   8   14.39    0.40 
   2   0   8   14.88    0.41 
  -3   0  -8   26.97    0.65 
  -3   0  -8   26.75    0.63 
  -3   0  -8   25.98    0.65 
   3   0   8   26.32    0.63 
   3   0   8   25.88    0.63 
   3   0   8   25.80    0.63 
   3   0   8   26.80    0.65 
  -4   0  -8    3.43    0.22 
  -4   0  -8    2.59    0.21 
  -4   0  -8    2.62    0.23 
   4   0   8    2.99    0.19 
   4   0   8    2.69    0.20 
   4   0   8    2.84    0.21 
  -5   0  -8   11.07    0.38 
  -5   0  -8   11.74    0.39 
  -5   0  -8   12.15    0.48 
  -5   0  -8   11.25    0.40 
   5   0   8   10.84    0.37 
   5   0   8   11.30    0.37 
   5   0   8   11.04    0.36 
   5   0   8   11.22    0.37 
   5   0   8   11.32    0.43 
  -6   0  -8    7.90    0.36 
   6   0   8    6.97    0.31 
   6   0   8    7.34    0.41 
   6   0   8    7.33    0.32 
   6   0   8    7.32    0.31 
   7   0   8    5.84    0.31 
   7   0   8    6.23    0.31 
   6  -1  -8   11.12    0.43 
   6  -1  -8   10.49    0.50 
   5  -1  -8    9.82    0.36 
   5  -1  -8    9.48    0.29 
   5  -1  -8    9.68    0.30 
   4  -1  -8   12.47    0.35 
   4  -1  -8   13.50    0.35 
   4  -1  -8   12.68    0.40 
  -4   1   8   13.20    0.36 
  -4   1   8   13.41    0.32 
  -4   1   8   12.37    0.41 
   3  -1  -8   33.66    0.80 
   3  -1  -8   32.03    0.74 
   3  -1  -8   34.98    0.73 
  -3   1   8   32.84    0.79 
  -3   1   8   34.03    0.74 
   2  -1  -8   29.32    0.69 
   2  -1  -8   29.48    0.64 
  -2   1   8   28.98    0.65 
  -2   1   8   27.96    0.69 
   1  -1  -8    2.33    0.16 
   1  -1  -8    2.03    0.16 
   1  -1  -8    2.16    0.16 
   1  -1  -8    2.24    0.15 
  -1   1   8    1.99    0.13 
  -1   1   8    2.24    0.13 
  -1   1   8    2.23    0.14 
  -1   1   8    1.98    0.15 
   0  -1  -8   26.13    0.60 
   0  -1  -8   25.27    0.59 
   0  -1  -8   25.08    0.62 
   0  -1  -8   26.56    0.61 
   0   1   8   25.52    0.59 
   0   1   8   26.81    0.60 
   0   1   8   25.74    0.62 
   0   1   8   24.89    0.58 
  -1  -1  -8    9.67    0.30 
  -1  -1  -8    9.47    0.29 
  -1  -1  -8    9.71    0.31 
  -1  -1  -8    9.85    0.31 
   1   1   8    9.88    0.30 
   1   1   8    9.84    0.30 
   1   1   8    9.78    0.30 
   1   1   8   10.15    0.30 
  -2  -1  -8    0.27    0.09 
  -2  -1  -8    0.36    0.10 
  -2  -1  -8    0.13    0.07 
  -2  -1  -8    0.21    0.08 
   2   1   8    0.32    0.09 
   2   1   8    0.24    0.08 
   2   1   8    0.19    0.08 
   2   1   8    0.26    0.09 
   2   1   8    0.35    0.08 
  -3  -1  -8    2.44    0.19 
  -3  -1  -8    2.57    0.19 
  -3  -1  -8    2.40    0.18 
  -3  -1  -8    2.34    0.19 
   3   1   8    2.67    0.18 
   3   1   8    2.85    0.18 
   3   1   8    2.71    0.19 
   3   1   8    2.31    0.16 
   3   1   8    2.48    0.19 
  -4  -1  -8    0.21    0.09 
  -4  -1  -8    0.26    0.11 
  -4  -1  -8    0.18    0.11 
   4   1   8    0.20    0.10 
   4   1   8    0.21    0.09 
   4   1   8    0.25    0.10 
  -5  -1  -8    0.81    0.13 
  -5  -1  -8    1.37    0.17 
  -5  -1  -8    1.00    0.15 
   5   1   8    0.97    0.13 
   5   1   8    1.11    0.15 
   5   1   8    0.81    0.11 
   5   1   8    0.93    0.15 
   5   1   8    0.94    0.12 
  -6  -1  -8   16.10    0.50 
  -6  -1  -8   15.52    0.45 
   6   1   8   15.63    0.46 
   6   1   8   15.76    0.47 
   6   1   8   16.75    0.55 
   6   1   8   15.46    0.45 
   7   1   8   10.00    0.37 
   7   1   8    9.84    0.38 
   6  -2  -8   11.37    0.49 
   6  -2  -8   10.59    0.41 
   5  -2  -8    2.05    0.22 
   4  -2  -8    5.87    0.27 
   4  -2  -8    5.95    0.21 
   4  -2  -8    6.05    0.21 
  -4   2   8    5.82    0.28 
   3  -2  -8   15.20    0.39 
   3  -2  -8   15.83    0.44 
   3  -2  -8   16.90    0.39 
  -3   2   8   15.73    0.37 
  -3   2   8   15.62    0.39 
  -3   2   8   15.80    0.45 
   2  -2  -8    8.13    0.28 
   2  -2  -8    8.01    0.25 
   2  -2  -8    8.34    0.24 
  -2   2   8    7.84    0.28 
  -2   2   8    8.23    0.25 
  -2   2   8    7.94    0.23 
   1  -2  -8   26.24    0.59 
   1  -2  -8   24.24    0.60 
   1  -2  -8   25.47    0.57 
   1  -2  -8   25.34    0.57 
  -1   2   8   25.48    0.57 
  -1   2   8   24.73    0.54 
  -1   2   8   24.85    0.61 
  -1   2   8   25.06    0.54 
   0  -2  -8   10.75    0.31 
   0  -2  -8   11.20    0.32 
   0  -2  -8   10.46    0.32 
   0  -2  -8   10.97    0.30 
   0   2   8   10.59    0.30 
   0   2   8   10.89    0.29 
   0   2   8   10.95    0.30 
   0   2   8   10.82    0.33 
  -1  -2  -8   28.84    0.67 
  -1  -2  -8   28.14    0.66 
  -1  -2  -8   28.89    0.65 
  -1  -2  -8   28.24    0.64 
   1   2   8   28.96    0.65 
   1   2   8   28.51    0.64 
   1   2   8   28.14    0.67 
   1   2   8   28.12    0.65 
  -2  -2  -8  137.52    2.76 
  -2  -2  -8  133.09    2.71 
  -2  -2  -8  134.05    2.64 
  -2  -2  -8  135.53    2.66 
   2   2   8  135.20    2.72 
   2   2   8  130.91    2.66 
   2   2   8  129.90    2.72 
   2   2   8  132.98    2.64 
   2   2   8  134.45    2.72 
  -3  -2  -8   48.26    1.04 
  -3  -2  -8   47.75    1.02 
  -3  -2  -8   48.82    1.08 
   3   2   8   47.70    1.05 
   3   2   8   46.97    1.05 
   3   2   8   46.83    1.03 
   3   2   8   47.28    1.04 
   3   2   8   46.94    1.01 
  -4  -2  -8   34.78    0.79 
  -4  -2  -8   35.59    0.84 
  -4  -2  -8   34.47    0.79 
  -4  -2  -8   35.38    0.81 
   4   2   8   34.40    0.79 
   4   2   8   33.98    0.79 
   4   2   8   33.67    0.78 
  -5  -2  -8    1.41    0.17 
  -5  -2  -8    2.15    0.20 
  -5  -2  -8    1.84    0.20 
   5   2   8    1.46    0.15 
   5   2   8    1.44    0.17 
   5   2   8    1.78    0.19 
   5   2   8    1.25    0.14 
  -6  -2  -8   18.66    0.55 
  -6  -2  -8   18.26    0.49 
  -6  -2  -8   18.50    0.52 
   6   2   8   19.04    0.52 
   6   2   8   18.30    0.51 
   6   2   8   18.63    0.49 
   6   2   8   19.14    0.58 
  -7  -2  -8    4.09    0.34 
   7   2   8    3.35    0.26 
   7   2   8    4.20    0.26 
   8   2   8   13.67    0.46 
   6  -3  -8    1.97    0.20 
   6  -3  -8    2.36    0.25 
   5  -3  -8   30.74    0.75 
   5  -3  -8   30.65    0.80 
   4  -3  -8   -0.01    0.10 
   3  -3  -8   44.83    0.98 
   3  -3  -8   47.53    1.06 
   3  -3  -8   50.49    0.99 
  -3   3   8   48.01    1.08 
  -3   3   8   48.76    0.97 
  -3   3   8   47.92    0.97 
   2  -3  -8    0.79    0.08 
   2  -3  -8    0.77    0.11 
   2  -3  -8    0.68    0.08 
   2  -3  -8    0.74    0.10 
  -2   3   8    0.80    0.11 
  -2   3   8    0.62    0.08 
  -2   3   8    0.61    0.07 
   1  -3  -8   85.12    1.67 
   1  -3  -8   83.34    1.71 
   1  -3  -8   81.73    1.73 
   1  -3  -8   85.03    1.73 
   1  -3  -8   83.37    1.66 
  -1   3   8   81.74    1.65 
  -1   3   8   82.86    1.74 
  -1   3   8   82.46    1.66 
   0  -3  -8    9.48    0.27 
   0  -3  -8    9.27    0.29 
   0  -3  -8    9.69    0.28 
   0  -3  -8    9.54    0.28 
   0  -3  -8    9.64    0.29 
   0   3   8    9.38    0.27 
   0   3   8    9.70    0.30 
   0   3   8    9.69    0.26 
  -1  -3  -8   18.93    0.48 
  -1  -3  -8   19.23    0.48 
  -1  -3  -8   18.95    0.47 
  -1  -3  -8   19.20    0.47 
  -1  -3  -8   18.46    0.45 
   1   3   8   19.31    0.47 
   1   3   8   19.00    0.46 
   1   3   8   19.19    0.45 
   1   3   8   19.54    0.49 
  -2  -3  -8    0.32    0.07 
  -2  -3  -8    0.43    0.08 
  -2  -3  -8    0.40    0.07 
  -2  -3  -8    0.34    0.08 
  -2  -3  -8    0.49    0.09 
   2   3   8    0.52    0.08 
   2   3   8    0.48    0.09 
   2   3   8    0.46    0.08 
   2   3   8    0.55    0.09 
   2   3   8    0.48    0.09 
  -3  -3  -8    7.87    0.28 
  -3  -3  -8    7.63    0.26 
  -3  -3  -8    7.44    0.26 
  -3  -3  -8    7.52    0.28 
   3   3   8    7.89    0.27 
   3   3   8    7.46    0.26 
   3   3   8    7.60    0.25 
   3   3   8    7.43    0.26 
   3   3   8    7.49    0.25 
  -4  -3  -8   16.60    0.48 
  -4  -3  -8   16.72    0.47 
  -4  -3  -8   16.94    0.45 
  -4  -3  -8   17.04    0.44 
   4   3   8   16.74    0.44 
   4   3   8   16.49    0.44 
   4   3   8   16.43    0.45 
   4   3   8   17.29    0.47 
  -5  -3  -8    0.13    0.11 
  -5  -3  -8    0.00    0.09 
  -5  -3  -8    0.15    0.11 
  -5  -3  -8    0.12    0.10 
   5   3   8    0.04    0.09 
   5   3   8    0.04    0.09 
   5   3   8   -0.01    0.09 
  -6  -3  -8    2.84    0.25 
  -6  -3  -8    2.41    0.25 
  -6  -3  -8    2.57    0.20 
   6   3   8    2.73    0.21 
   6   3   8    2.56    0.27 
   6   3   8    2.84    0.21 
  -7  -3  -8    9.57    0.31 
  -7  -3  -8    9.79    0.40 
   7   3   8    9.98    0.46 
   7   3   8    9.03    0.35 
   7   3   8    9.63    0.37 
   8   3   8   10.26    0.39 
   8   3   8   10.88    0.42 
   6  -4  -8    2.61    0.26 
   6  -4  -8    2.36    0.29 
   5  -4  -8    7.75    0.36 
   5  -4  -8    7.55    0.32 
   4  -4  -8    1.31    0.14 
   3  -4  -8    4.84    0.17 
   3  -4  -8    4.42    0.17 
   2  -4  -8    2.66    0.13 
   2  -4  -8    2.72    0.14 
   2  -4  -8    2.79    0.15 
   2  -4  -8    2.56    0.17 
  -2   4   8    2.82    0.12 
  -2   4   8    2.76    0.14 
   1  -4  -8   13.33    0.37 
   1  -4  -8   12.85    0.32 
   1  -4  -8   13.50    0.34 
   1  -4  -8   13.89    0.35 
   1  -4  -8   13.15    0.34 
  -1   4   8   12.89    0.38 
  -1   4   8   13.20    0.33 
  -1   4   8   13.04    0.33 
   0  -4  -8   74.13    1.52 
   0  -4  -8   74.60    1.50 
   0  -4  -8   73.17    1.48 
   0  -4  -8   73.84    1.53 
   0  -4  -8   72.17    1.54 
   0   4   8   74.41    1.49 
   0   4   8   72.93    1.50 
   0   4   8   74.07    1.56 
  -1  -4  -8   19.57    0.47 
  -1  -4  -8   19.08    0.48 
  -1  -4  -8   19.36    0.49 
  -1  -4  -8   19.33    0.48 
  -1  -4  -8   19.01    0.46 
   1   4   8   19.23    0.47 
   1   4   8   19.44    0.46 
   1   4   8   20.29    0.50 
   1   4   8   19.77    0.46 
  -2  -4  -8   42.67    0.93 
  -2  -4  -8   41.86    0.92 
  -2  -4  -8   42.56    0.94 
  -2  -4  -8   42.99    0.92 
  -2  -4  -8   42.50    0.90 
   2   4   8   40.47    0.91 
   2   4   8   42.03    0.92 
   2   4   8   41.45    0.91 
   2   4   8   42.04    0.90 
   2   4   8   42.37    0.93 
  -3  -4  -8    0.64    0.09 
  -3  -4  -8    0.57    0.10 
  -3  -4  -8    0.55    0.10 
  -3  -4  -8    1.17    0.13 
  -3  -4  -8    0.62    0.10 
   3   4   8    0.74    0.09 
   3   4   8    0.70    0.09 
   3   4   8    0.66    0.10 
   3   4   8    0.69    0.09 
   3   4   8    0.62    0.10 
  -4  -4  -8   85.16    1.80 
  -4  -4  -8   85.41    1.74 
  -4  -4  -8   84.09    1.73 
  -4  -4  -8   82.88    1.71 
  -4  -4  -8   80.19    1.77 
   4   4   8   85.20    1.76 
   4   4   8   84.11    1.74 
   4   4   8   82.56    1.74 
   4   4   8   85.14    1.72 
  -5  -4  -8    7.95    0.29 
  -5  -4  -8    7.84    0.30 
  -5  -4  -8    7.75    0.31 
  -5  -4  -8    7.87    0.32 
  -5  -4  -8    7.84    0.27 
   5   4   8    8.02    0.29 
   5   4   8    7.93    0.30 
   5   4   8    8.32    0.32 
  -6  -4  -8   28.09    0.67 
  -6  -4  -8   29.52    0.78 
  -6  -4  -8   30.00    0.72 
  -6  -4  -8   29.27    0.74 
   6   4   8   27.80    0.74 
   6   4   8   30.76    0.72 
   6   4   8   30.41    0.73 
   6   4   8   30.31    0.76 
  -7  -4  -8    1.58    0.19 
  -7  -4  -8    1.51    0.14 
   7   4   8    1.81    0.18 
   7   4   8    1.93    0.22 
   8   4   8    2.19    0.21 
   8   4   8    2.15    0.26 
   6  -5  -8    0.03    0.20 
   6  -5  -8   -0.08    0.17 
   5  -5  -8   20.79    0.57 
   5  -5  -8   20.73    0.60 
   4  -5  -8    7.32    0.22 
   4  -5  -8    7.37    0.31 
   4  -5  -8    7.58    0.30 
   3  -5  -8   90.79    1.91 
   3  -5  -8   92.18    1.85 
   2  -5  -8   14.94    0.35 
   2  -5  -8   14.45    0.36 
   2  -5  -8   14.97    0.38 
   2  -5  -8   14.86    0.36 
   2  -5  -8   14.66    0.41 
  -2   5   8   14.97    0.34 
  -2   5   8   14.33    0.34 
   1  -5  -8   15.68    0.38 
   1  -5  -8   15.26    0.38 
   1  -5  -8   15.04    0.38 
   1  -5  -8   15.08    0.41 
   1  -5  -8   15.58    0.36 
  -1   5   8   15.77    0.37 
  -1   5   8   15.44    0.36 
   0  -5  -8   44.57    0.93 
   0  -5  -8   42.97    0.91 
   0  -5  -8   44.07    0.94 
   0  -5  -8   42.06    0.96 
   0  -5  -8   43.64    0.94 
   0   5   8   43.51    0.90 
   0   5   8   44.18    0.92 
  -1  -5  -8   46.10    0.97 
  -1  -5  -8   45.51    1.01 
  -1  -5  -8   46.49    1.00 
  -1  -5  -8   47.78    0.99 
  -1  -5  -8   47.11    1.00 
   1   5   8   45.88    0.97 
   1   5   8   45.68    0.98 
   1   5   8   46.18    0.98 
  -2  -5  -8   11.99    0.34 
  -2  -5  -8   12.63    0.36 
  -2  -5  -8   12.46    0.33 
  -2  -5  -8   12.09    0.34 
   2   5   8   12.17    0.33 
   2   5   8   11.90    0.32 
   2   5   8   12.19    0.34 
   2   5   8   12.89    0.35 
  -3  -5  -8    0.25    0.07 
  -3  -5  -8    0.22    0.09 
  -3  -5  -8    0.36    0.09 
  -3  -5  -8    0.30    0.08 
  -3  -5  -8    0.34    0.09 
   3   5   8    0.28    0.08 
   3   5   8    0.33    0.08 
   3   5   8    0.40    0.09 
   3   5   8    0.17    0.07 
  -4  -5  -8    9.36    0.30 
  -4  -5  -8   10.31    0.34 
  -4  -5  -8   10.13    0.32 
  -4  -5  -8    9.97    0.34 
   4   5   8   10.47    0.32 
   4   5   8   10.24    0.34 
   4   5   8    9.33    0.31 
   4   5   8   10.28    0.31 
  -5  -5  -8    1.11    0.14 
  -5  -5  -8    1.06    0.12 
  -5  -5  -8    1.03    0.11 
  -5  -5  -8    1.16    0.14 
  -5  -5  -8    0.85    0.12 
   5   5   8    0.90    0.12 
   5   5   8    0.85    0.12 
   5   5   8    1.31    0.16 
  -6  -5  -8    0.66    0.11 
  -6  -5  -8    0.90    0.14 
  -6  -5  -8    0.47    0.14 
  -6  -5  -8    0.84    0.15 
  -6  -5  -8    0.85    0.15 
   6   5   8    0.92    0.14 
   6   5   8    0.92    0.17 
   6   5   8    0.98    0.15 
   6   5   8    0.70    0.13 
  -7  -5  -8    1.57    0.18 
  -7  -5  -8    1.21    0.19 
   7   5   8    1.48    0.18 
   7   5   8    1.69    0.18 
   7   5   8    1.47    0.21 
   8   5   8   -0.05    0.14 
   8   5   8   -0.08    0.14 
   5  -6  -8   12.22    0.44 
   5  -6  -8   12.10    0.42 
   4  -6  -8    2.72    0.24 
   4  -6  -8    2.63    0.14 
   4  -6  -8    2.98    0.22 
   3  -6  -8    6.82    0.21 
   3  -6  -8    6.63    0.28 
   2  -6  -8    4.62    0.22 
   2  -6  -8    4.77    0.18 
   2  -6  -8    4.63    0.18 
   2  -6  -8    4.98    0.19 
  -2   6   8    5.04    0.16 
  -2   6   8    4.79    0.15 
   1  -6  -8    1.67    0.16 
   1  -6  -8    1.83    0.13 
   1  -6  -8    1.77    0.13 
   1  -6  -8    1.74    0.14 
   1  -6  -8    1.53    0.11 
  -1   6   8    1.56    0.11 
  -1   6   8    1.64    0.11 
   0  -6  -8   10.51    0.32 
   0  -6  -8   10.54    0.30 
   0  -6  -8   10.68    0.30 
   0  -6  -8   10.26    0.28 
   0  -6  -8   10.72    0.29 
   0   6   8    9.44    0.29 
   0   6   8   11.24    0.30 
   0   6   8   10.43    0.24 
  -1  -6  -8    1.00    0.12 
  -1  -6  -8    1.03    0.12 
  -1  -6  -8    1.05    0.11 
  -1  -6  -8    1.10    0.11 
  -1  -6  -8    1.14    0.13 
   1   6   8    0.99    0.09 
   1   6   8    0.98    0.11 
   1   6   8    1.01    0.12 
  -2  -6  -8   43.19    0.93 
  -2  -6  -8   42.73    0.94 
  -2  -6  -8   42.73    0.94 
  -2  -6  -8   42.74    0.94 
  -2  -6  -8   41.44    0.91 
   2   6   8   43.40    0.93 
   2   6   8   42.44    0.93 
   2   6   8   42.60    0.91 
   2   6   8   43.08    0.91 
  -3  -6  -8    1.05    0.13 
  -3  -6  -8    0.73    0.10 
  -3  -6  -8    0.75    0.09 
  -3  -6  -8    0.82    0.10 
  -3  -6  -8    1.31    0.14 
   3   6   8    0.74    0.09 
   3   6   8    0.95    0.11 
   3   6   8    0.86    0.11 
   3   6   8    0.72    0.10 
  -4  -6  -8   16.26    0.42 
  -4  -6  -8   15.87    0.44 
  -4  -6  -8   16.71    0.46 
  -4  -6  -8   16.04    0.45 
  -4  -6  -8   15.82    0.44 
   4   6   8   16.12    0.44 
   4   6   8   16.45    0.45 
   4   6   8   15.64    0.44 
   4   6   8   16.34    0.43 
  -5  -6  -8   15.67    0.47 
  -5  -6  -8   15.11    0.44 
  -5  -6  -8   15.61    0.41 
  -5  -6  -8   15.07    0.46 
  -5  -6  -8   15.72    0.45 
   5   6   8   15.80    0.44 
   5   6   8   14.61    0.44 
   5   6   8   16.83    0.47 
  -6  -6  -8   17.27    0.44 
  -6  -6  -8   17.51    0.51 
  -6  -6  -8   16.77    0.49 
  -6  -6  -8   16.67    0.53 
  -6  -6  -8   17.47    0.52 
   6   6   8   16.63    0.49 
   6   6   8   17.07    0.49 
   6   6   8   17.57    0.53 
  -7  -6  -8    1.45    0.14 
  -7  -6  -8    1.51    0.18 
  -7  -6  -8    1.27    0.19 
   7   6   8    1.76    0.19 
   7   6   8    1.64    0.24 
   7   6   8    1.43    0.17 
   8   6   8    5.72    0.35 
   8   6   8    5.97    0.33 
   5  -7  -8   11.80    0.42 
   5  -7  -8   11.60    0.43 
   4  -7  -8   43.69    1.01 
   4  -7  -8   43.32    0.97 
   4  -7  -8   42.76    0.90 
   3  -7  -8    6.47    0.29 
   3  -7  -8    6.16    0.23 
   3  -7  -8    6.51    0.24 
   3  -7  -8    6.35    0.21 
   2  -7  -8   15.17    0.37 
   2  -7  -8   15.12    0.38 
   2  -7  -8   15.40    0.35 
   2  -7  -8   15.18    0.44 
   1  -7  -8   11.56    0.31 
   1  -7  -8   11.73    0.36 
   1  -7  -8   12.02    0.32 
   1  -7  -8   11.32    0.29 
   1  -7  -8   11.46    0.29 
  -1   7   8   11.40    0.30 
  -1   7   8   11.31    0.29 
   0  -7  -8  136.79    2.88 
   0  -7  -8  141.98    2.84 
   0  -7  -8  139.61    2.77 
   0  -7  -8  144.81    2.85 
   0  -7  -8  142.83    2.78 
   0   7   8  140.66    2.76 
  -1  -7  -8    6.84    0.25 
  -1  -7  -8    6.71    0.25 
  -1  -7  -8    6.54    0.22 
  -1  -7  -8    6.51    0.21 
  -1  -7  -8    6.76    0.24 
   1   7   8    6.69    0.23 
   1   7   8    6.87    0.21 
   1   7   8    6.70    0.23 
  -2  -7  -8   24.26    0.57 
  -2  -7  -8   24.68    0.60 
  -2  -7  -8   24.69    0.60 
  -2  -7  -8   24.59    0.58 
  -2  -7  -8   24.57    0.59 
   2   7   8   24.09    0.58 
   2   7   8   24.71    0.55 
   2   7   8   24.45    0.58 
   2   7   8   25.05    0.58 
  -3  -7  -8    1.33    0.14 
  -3  -7  -8    1.52    0.15 
  -3  -7  -8    1.73    0.15 
  -3  -7  -8    1.49    0.15 
   3   7   8    1.62    0.17 
   3   7   8    1.72    0.15 
   3   7   8    1.62    0.16 
   3   7   8    1.63    0.14 
  -4  -7  -8    0.32    0.11 
  -4  -7  -8    0.29    0.10 
  -4  -7  -8    0.43    0.09 
  -4  -7  -8    0.37    0.11 
  -4  -7  -8    0.31    0.09 
   4   7   8    0.53    0.10 
   4   7   8    0.55    0.12 
   4   7   8    0.43    0.10 
   4   7   8    0.44    0.10 
  -5  -7  -8   17.61    0.51 
  -5  -7  -8   17.48    0.45 
  -5  -7  -8   17.56    0.49 
  -5  -7  -8   16.99    0.50 
   5   7   8   17.61    0.51 
   5   7   8   17.51    0.49 
   5   7   8   16.78    0.48 
   5   7   8   16.91    0.48 
  -6  -7  -8    0.63    0.15 
  -6  -7  -8    0.47    0.12 
  -6  -7  -8    0.37    0.14 
  -6  -7  -8    0.50    0.15 
  -6  -7  -8    0.51    0.12 
   6   7   8    0.69    0.15 
   6   7   8    0.51    0.14 
   6   7   8    0.69    0.16 
  -7  -7  -8   12.69    0.43 
  -7  -7  -8   12.53    0.47 
  -7  -7  -8   11.96    0.36 
   7   7   8   12.18    0.50 
   7   7   8   12.65    0.44 
   7   7   8   12.08    0.43 
  -8  -7  -8    4.53    0.36 
   8   7   8    4.71    0.36 
   8   7   8    4.77    0.32 
   5  -8  -8    4.67    0.34 
   4  -8  -8    2.18    0.20 
   4  -8  -8    2.01    0.17 
   4  -8  -8    1.95    0.20 
   3  -8  -8    0.13    0.12 
   3  -8  -8    0.16    0.08 
   2  -8  -8   33.00    0.69 
   2  -8  -8   33.10    0.80 
   2  -8  -8   33.17    0.71 
   2  -8  -8   33.54    0.73 
   1  -8  -8    6.21    0.22 
   1  -8  -8    6.08    0.26 
   1  -8  -8    6.20    0.20 
  -1   8   8    5.98    0.20 
   0  -8  -8    1.33    0.12 
   0  -8  -8    0.98    0.12 
   0  -8  -8    1.26    0.14 
   0  -8  -8    1.39    0.14 
   0   8   8    1.56    0.13 
  -1  -8  -8    9.71    0.26 
  -1  -8  -8    9.70    0.33 
  -1  -8  -8    9.71    0.29 
  -1  -8  -8   10.15    0.31 
  -1  -8  -8    9.97    0.32 
   1   8   8   10.12    0.27 
  -2  -8  -8   11.92    0.37 
  -2  -8  -8   11.82    0.36 
  -2  -8  -8   11.65    0.32 
  -2  -8  -8   11.79    0.35 
   2   8   8   12.00    0.35 
   2   8   8   11.83    0.30 
   2   8   8   11.90    0.35 
   2   8   8   12.06    0.34 
  -3  -8  -8   29.05    0.70 
  -3  -8  -8   29.36    0.69 
  -3  -8  -8   29.27    0.69 
  -3  -8  -8   29.63    0.68 
   3   8   8   28.37    0.69 
   3   8   8   29.58    0.69 
   3   8   8   29.11    0.65 
   3   8   8   28.85    0.69 
  -4  -8  -8    0.00    0.08 
  -4  -8  -8    0.01    0.10 
  -4  -8  -8    0.16    0.10 
  -4  -8  -8    0.11    0.09 
  -4  -8  -8    0.08    0.11 
   4   8   8    0.07    0.08 
   4   8   8    0.13    0.11 
   4   8   8    0.01    0.09 
  -5  -8  -8   18.02    0.52 
  -5  -8  -8   17.61    0.51 
  -5  -8  -8   18.16    0.47 
  -5  -8  -8   18.07    0.54 
  -5  -8  -8   17.85    0.50 
   5   8   8   17.49    0.52 
   5   8   8   17.59    0.50 
   5   8   8   18.16    0.52 
  -6  -8  -8    7.13    0.36 
  -6  -8  -8    7.47    0.37 
  -6  -8  -8    7.18    0.35 
  -6  -8  -8    7.18    0.31 
  -6  -8  -8    7.51    0.28 
   6   8   8    7.22    0.35 
   6   8   8    6.53    0.37 
   6   8   8    7.43    0.33 
  -7  -8  -8   20.36    0.53 
  -7  -8  -8   21.13    0.61 
  -7  -8  -8   21.19    0.64 
   7   8   8   21.33    0.61 
   7   8   8   21.45    0.61 
   7   8   8   20.58    0.65 
  -8  -8  -8    0.15    0.20 
   8   8   8    0.29    0.18 
   8   8   8   -0.12    0.17 
   4  -9  -8    8.73    0.39 
   3  -9  -8    0.75    0.11 
   3  -9  -8    0.51    0.14 
   2  -9  -8   41.25    0.98 
   2  -9  -8   42.55    0.88 
   2  -9  -8   41.71    0.86 
   2  -9  -8   42.10    0.92 
   1  -9  -8    2.78    0.19 
   1  -9  -8    3.10    0.15 
   1  -9  -8    2.99    0.21 
   1  -9  -8    2.96    0.18 
  -1   9   8    2.54    0.15 
  -1   9   8    2.89    0.16 
   0  -9  -8    0.85    0.11 
   0  -9  -8    0.90    0.12 
   0  -9  -8    0.79    0.10 
   0   9   8    0.93    0.11 
  -1  -9  -8    3.75    0.22 
  -1  -9  -8    3.77    0.21 
  -1  -9  -8    3.80    0.18 
  -1  -9  -8    3.73    0.22 
   1   9   8    3.81    0.17 
  -2  -9  -8    3.23    0.21 
  -2  -9  -8    3.23    0.20 
  -2  -9  -8    3.09    0.16 
  -2  -9  -8    3.48    0.22 
  -2  -9  -8    3.14    0.19 
   2   9   8    3.36    0.19 
   2   9   8    3.61    0.18 
   2   9   8    3.48    0.16 
   2   9   8    3.18    0.20 
  -3  -9  -8   10.78    0.38 
  -3  -9  -8   10.84    0.35 
  -3  -9  -8   11.04    0.36 
  -3  -9  -8   10.83    0.35 
  -3  -9  -8   11.38    0.33 
   3   9   8   10.83    0.35 
   3   9   8   11.36    0.35 
   3   9   8   11.24    0.30 
   3   9   8   11.19    0.36 
  -4  -9  -8    0.23    0.13 
  -4  -9  -8    0.49    0.10 
  -4  -9  -8    0.30    0.12 
  -4  -9  -8    0.41    0.12 
   4   9   8    0.50    0.14 
   4   9   8    0.28    0.11 
   4   9   8    0.35    0.10 
  -5  -9  -8    1.06    0.16 
  -5  -9  -8    0.83    0.13 
  -5  -9  -8    1.02    0.19 
  -5  -9  -8    0.97    0.16 
  -5  -9  -8    0.95    0.14 
   5   9   8    0.84    0.15 
   5   9   8    1.22    0.18 
   5   9   8    0.92    0.14 
  -6  -9  -8    8.67    0.41 
  -6  -9  -8    8.30    0.39 
  -6  -9  -8    7.79    0.40 
  -6  -9  -8    7.69    0.34 
  -6  -9  -8    8.22    0.31 
   6   9   8    7.88    0.40 
   6   9   8    8.19    0.38 
   6   9   8    8.36    0.35 
  -7  -9  -8    0.46    0.16 
  -7  -9  -8    0.68    0.15 
  -7  -9  -8    0.58    0.23 
   7   9   8    1.24    0.20 
   7   9   8    1.14    0.28 
   7   9   8    0.83    0.18 
   4 -10  -8    1.02    0.20 
   3 -10  -8    0.83    0.14 
   3 -10  -8    0.86    0.16 
   2 -10  -8    5.49    0.23 
   2 -10  -8    5.50    0.19 
   2 -10  -8    5.14    0.29 
   2 -10  -8    5.41    0.25 
   1 -10  -8    7.84    0.25 
   1 -10  -8    8.32    0.29 
   1 -10  -8    8.16    0.29 
   1 -10  -8    7.90    0.33 
  -1  10   8    7.98    0.26 
   0 -10  -8    9.53    0.35 
   0 -10  -8    9.26    0.29 
   0 -10  -8    9.56    0.33 
   0 -10  -8    9.71    0.32 
   0  10   8    8.89    0.28 
   0  10   8    9.63    0.30 
  -1 -10  -8   30.95    0.74 
  -1 -10  -8   30.96    0.76 
  -1 -10  -8   31.19    0.74 
  -1 -10  -8   30.55    0.71 
  -2 -10  -8    0.60    0.12 
  -2 -10  -8    0.52    0.11 
  -2 -10  -8    0.52    0.11 
   2  10   8    0.67    0.11 
   2  10   8    0.70    0.13 
   2  10   8    0.91    0.11 
  -3 -10  -8   48.82    1.12 
  -3 -10  -8   49.52    1.10 
  -3 -10  -8   51.00    1.13 
   3  10   8   50.36    1.10 
   3  10   8   49.11    1.10 
   3  10   8   49.57    1.04 
   3  10   8   48.71    1.10 
  -4 -10  -8    0.06    0.12 
  -4 -10  -8    0.03    0.09 
  -4 -10  -8    0.08    0.12 
   4  10   8   -0.02    0.10 
   4  10   8   -0.20    0.11 
   4  10   8   -0.07    0.13 
   4  10   8    0.05    0.10 
  -5 -10  -8   17.85    0.51 
  -5 -10  -8   17.73    0.52 
  -5 -10  -8   17.85    0.54 
   5  10   8   17.86    0.49 
   5  10   8   17.85    0.55 
   5  10   8   18.36    0.55 
  -6 -10  -8    0.97    0.15 
  -6 -10  -8    0.78    0.16 
  -6 -10  -8    0.81    0.21 
   6  10   8    0.73    0.20 
   6  10   8    1.03    0.18 
   6  10   8    0.92    0.20 
  -7 -10  -8   10.60    0.39 
  -7 -10  -8   11.29    0.51 
  -7 -10  -8    9.47    0.43 
   7  10   8   10.24    0.45 
   7  10   8   10.42    0.48 
   3 -11  -8    4.59    0.30 
   3 -11  -8    5.45    0.36 
   2 -11  -8    8.92    0.39 
   2 -11  -8    9.67    0.35 
   2 -11  -8    9.30    0.28 
   2 -11  -8    9.26    0.32 
   1 -11  -8   16.45    0.46 
   1 -11  -8   15.57    0.51 
   1 -11  -8   16.49    0.47 
   1 -11  -8   16.53    0.43 
  -1  11   8   16.59    0.45 
   0 -11  -8    6.16    0.29 
   0 -11  -8    6.05    0.30 
   0 -11  -8    6.22    0.28 
   0 -11  -8    6.05    0.23 
   0  11   8    6.07    0.26 
  -1 -11  -8    1.92    0.19 
  -1 -11  -8    1.86    0.16 
  -1 -11  -8    1.94    0.20 
  -1 -11  -8    1.70    0.20 
  -2 -11  -8    3.57    0.23 
  -2 -11  -8    3.33    0.21 
  -2 -11  -8    3.29    0.28 
  -2 -11  -8    3.12    0.24 
   2  11   8    3.67    0.22 
   2  11   8    3.38    0.24 
  -3 -11  -8    3.60    0.24 
  -3 -11  -8    3.87    0.26 
  -3 -11  -8    3.95    0.24 
  -3 -11  -8    4.52    0.31 
   3  11   8    3.87    0.28 
   3  11   8    4.27    0.19 
  -4 -11  -8    0.89    0.16 
  -4 -11  -8    0.87    0.14 
  -4 -11  -8    0.96    0.19 
  -4 -11  -8    0.88    0.15 
   4  11   8    0.73    0.15 
   4  11   8    1.29    0.20 
   4  11   8    1.15    0.13 
  -5 -11  -8    0.21    0.11 
  -5 -11  -8    0.24    0.14 
  -5 -11  -8   -0.03    0.20 
  -5 -11  -8   -0.06    0.16 
   5  11   8    0.13    0.13 
   5  11   8    0.32    0.17 
  -6 -11  -8    1.13    0.18 
  -6 -11  -8    1.17    0.19 
  -6 -11  -8    1.41    0.28 
  -6 -11  -8    1.50    0.25 
   6  11   8    1.22    0.19 
   6  11   8    1.41    0.24 
   2 -12  -8    1.43    0.20 
   2 -12  -8    1.40    0.14 
   2 -12  -8    1.39    0.19 
   1 -12  -8   14.44    0.50 
   1 -12  -8   14.39    0.40 
   1 -12  -8   14.45    0.46 
   0 -12  -8    2.35    0.25 
   0 -12  -8    2.55    0.17 
   0 -12  -8    2.71    0.24 
  -1 -12  -8   11.51    0.36 
  -1 -12  -8   11.67    0.42 
  -1 -12  -8   11.41    0.40 
  -2 -12  -8    6.17    0.28 
  -2 -12  -8    6.46    0.36 
  -2 -12  -8    6.23    0.29 
  -2 -12  -8    6.26    0.32 
  -3 -12  -8   18.47    0.60 
  -3 -12  -8   18.53    0.54 
  -3 -12  -8   18.97    0.57 
  -3 -12  -8   19.43    0.55 
   3  12   8   18.79    0.57 
   3  12   8   18.94    0.54 
  -4 -12  -8   16.49    0.51 
  -4 -12  -8   16.56    0.52 
  -4 -12  -8   17.61    0.60 
  -4 -12  -8   17.39    0.54 
   4  12   8   16.20    0.56 
   4  12   8   16.58    0.43 
  -5 -12  -8    9.51    0.41 
  -5 -12  -8    9.35    0.37 
  -5 -12  -8    9.50    0.43 
  -5 -12  -8    8.45    0.51 
   5  12   8    8.77    0.46 
   5  12   8    9.39    0.36 
  -6 -12  -8   14.39    0.58 
  -6 -12  -8   14.84    0.52 
   6  12   8   13.94    0.51 
   6  12   8   14.99    0.60 
   0 -13  -8    1.03    0.18 
   0 -13  -8    1.14    0.13 
   0 -13  -8    0.99    0.16 
  -1 -13  -8   13.32    0.46 
  -1 -13  -8   12.89    0.41 
  -2 -13  -8    0.53    0.13 
  -2 -13  -8    0.53    0.14 
  -3 -13  -8    0.32    0.13 
  -3 -13  -8    0.51    0.16 
  -3 -13  -8    0.58    0.16 
   3  13   8    0.31    0.17 
  -4 -13  -8    0.33    0.14 
  -4 -13  -8    0.43    0.17 
  -4 -13  -8    0.30    0.18 
   1   6  -9    1.77    0.27 
  -1  -6   9    1.93    0.23 
  -1  -6   9    2.23    0.30 
   0   6  -9   11.53    0.55 
   0  -6   9   11.08    0.52 
   0  -6   9   11.88    0.47 
   3   5  -9   -0.08    0.21 
   3   5  -9   -0.05    0.18 
  -3  -5   9    0.44    0.21 
   2   5  -9   17.95    0.61 
   2   5  -9   18.51    0.61 
  -2  -5   9   19.41    0.60 
   1   5  -9   -0.19    0.14 
   1   5  -9    0.20    0.19 
  -1  -5   9    0.15    0.20 
  -1  -5   9    0.38    0.17 
   0   5  -9    8.52    0.44 
   0   5  -9    8.69    0.40 
   0   5  -9    8.77    0.44 
   0  -5   9    8.62    0.45 
   0  -5   9    8.93    0.38 
  -1   5  -9    0.11    0.21 
  -1   5  -9    0.02    0.14 
  -1   5  -9    0.60    0.21 
   1  -5   9    0.12    0.14 
   1  -5   9    0.62    0.21 
  -2   5  -9    2.89    0.31 
   2  -5   9    2.25    0.28 
   2  -5   9    2.24    0.25 
  -3   5  -9   -0.01    0.27 
   3  -5   9    0.11    0.20 
   4   4  -9    0.05    0.16 
   4   4  -9    0.32    0.20 
   3   4  -9    0.67    0.17 
   3   4  -9    0.64    0.18 
  -3  -4   9    1.00    0.18 
   2   4  -9    4.45    0.32 
   2   4  -9    4.31    0.32 
  -2  -4   9    4.03    0.28 
  -2  -4   9    4.91    0.40 
  -2  -4   9    3.99    0.32 
   1   4  -9    2.76    0.30 
   1   4  -9    2.71    0.31 
   1   4  -9    2.50    0.25 
  -1  -4   9    3.03    0.28 
  -1  -4   9    2.39    0.24 
  -1  -4   9    2.01    0.22 
   0   4  -9    3.23    0.27 
   0   4  -9    4.18    0.31 
   0   4  -9    4.26    0.33 
   0  -4   9    3.98    0.28 
   0  -4   9    3.94    0.33 
   0  -4   9    3.47    0.28 
  -1   4  -9   13.80    0.49 
  -1   4  -9   15.02    0.51 
  -1   4  -9   14.76    0.51 
   1  -4   9   15.67    0.51 
   1  -4   9   14.39    0.45 
   1  -4   9   14.97    0.50 
  -2   4  -9    0.27    0.15 
  -2   4  -9    0.45    0.21 
  -2   4  -9    0.69    0.20 
   2  -4   9    0.44    0.21 
   2  -4   9    0.73    0.20 
  -3   4  -9   20.19    0.66 
   3  -4   9   20.91    0.62 
   3  -4   9   23.70    0.71 
   4  -4   9    0.46    0.19 
   4   3  -9   13.74    0.47 
   4   3  -9   14.83    0.53 
   3   3  -9   10.18    0.42 
   3   3  -9    9.83    0.40 
  -3  -3   9   10.86    0.38 
  -3  -3   9   10.28    0.34 
   2   3  -9   24.22    0.68 
   2   3  -9   24.95    0.65 
   2   3  -9   24.27    0.66 
  -2  -3   9   25.41    0.68 
  -2  -3   9   24.46    0.61 
   1   3  -9    5.76    0.30 
   1   3  -9    4.80    0.29 
   1   3  -9    5.34    0.30 
  -1  -3   9    5.57    0.29 
  -1  -3   9    4.75    0.25 
  -1  -3   9    5.24    0.34 
   0   3  -9    7.85    0.35 
   0   3  -9    8.15    0.35 
   0   3  -9    7.34    0.34 
   0  -3   9    7.37    0.30 
   0  -3   9    8.57    0.33 
   0  -3   9    7.76    0.33 
   0  -3   9    8.00    0.36 
  -1   3  -9   11.82    0.43 
  -1   3  -9   12.26    0.43 
  -1   3  -9   12.46    0.43 
   1  -3   9   12.37    0.42 
   1  -3   9   12.72    0.43 
  -2   3  -9    2.68    0.26 
  -2   3  -9    2.70    0.30 
   2  -3   9    3.11    0.30 
   2  -3   9    2.98    0.26 
  -3   3  -9    5.68    0.34 
  -3   3  -9    5.66    0.34 
  -3   3  -9    5.43    0.36 
   3  -3   9    5.58    0.32 
   3  -3   9    6.37    0.39 
  -4   3  -9    1.13    0.21 
  -4   3  -9    0.96    0.20 
   4  -3   9    1.39    0.27 
   4  -3   9    1.13    0.19 
   5  -3   9    0.71    0.20 
   5   2  -9    0.49    0.15 
   5   2  -9    0.17    0.19 
   4   2  -9    4.25    0.32 
   4   2  -9    4.12    0.27 
   3   2  -9    0.70    0.14 
   3   2  -9    0.73    0.17 
   3   2  -9    1.10    0.17 
  -3  -2   9    0.86    0.19 
  -3  -2   9    0.66    0.11 
  -3  -2   9    0.61    0.12 
   2   2  -9    0.97    0.16 
   2   2  -9    0.61    0.13 
   2   2  -9    0.75    0.14 
  -2  -2   9    0.57    0.12 
  -2  -2   9    0.98    0.17 
  -2  -2   9    0.81    0.14 
  -2  -2   9    0.73    0.12 
   1   2  -9   17.24    0.51 
   1   2  -9   16.95    0.49 
   1   2  -9   17.12    0.49 
  -1  -2   9   17.54    0.46 
  -1  -2   9   17.79    0.48 
  -1  -2   9   17.17    0.46 
  -1  -2   9   16.41    0.48 
  -1  -2   9   17.05    0.50 
   0   2  -9    3.87    0.25 
   0   2  -9    3.83    0.24 
   0   2  -9    4.12    0.26 
   0  -2   9    4.20    0.23 
   0  -2   9    4.02    0.23 
   0  -2   9    4.20    0.27 
  -1   2  -9    4.56    0.26 
  -1   2  -9    3.80    0.25 
  -1   2  -9    5.06    0.29 
   1  -2   9    4.19    0.25 
   1  -2   9    4.30    0.22 
   1  -2   9    4.57    0.27 
   1  -2   9    4.39    0.23 
  -2   2  -9    0.12    0.12 
  -2   2  -9    0.36    0.14 
  -2   2  -9    0.70    0.16 
  -2   2  -9    0.01    0.13 
   2  -2   9    0.66    0.16 
   2  -2   9    0.34    0.09 
   2  -2   9    0.38    0.10 
   2  -2   9    0.21    0.13 
  -3   2  -9   24.16    0.66 
  -3   2  -9   23.76    0.64 
  -3   2  -9   24.32    0.67 
   3  -2   9   24.16    0.63 
   3  -2   9   25.27    0.67 
   3  -2   9   23.38    0.63 
  -4   2  -9    9.37    0.41 
  -4   2  -9    9.49    0.41 
   4  -2   9    9.15    0.38 
   4  -2   9    9.83    0.45 
   4  -2   9    8.59    0.36 
  -5   2  -9    1.59    0.26 
   5  -2   9    1.74    0.20 
   5  -2   9    2.45    0.26 
   5   1  -9    7.99    0.39 
   5   1  -9    7.06    0.31 
   4   1  -9    1.78    0.17 
   4   1  -9    1.27    0.16 
   4   1  -9    1.63    0.19 
   3   1  -9    8.42    0.33 
   3   1  -9    7.33    0.30 
   3   1  -9    7.93    0.31 
  -3  -1   9    7.79    0.33 
   2   1  -9   25.76    0.62 
   2   1  -9   25.33    0.66 
   2   1  -9   24.72    0.63 
   2   1  -9   24.99    0.63 
  -2  -1   9   24.42    0.59 
  -2  -1   9   24.37    0.64 
  -2  -1   9   25.96    0.60 
  -2  -1   9   26.60    0.65 
   1   1  -9   20.27    0.56 
   1   1  -9   20.39    0.53 
   1   1  -9   20.54    0.53 
  -1  -1   9   21.36    0.55 
  -1  -1   9   20.26    0.52 
  -1  -1   9   20.20    0.51 
  -1  -1   9   20.59    0.51 
   0   1  -9    0.28    0.10 
   0   1  -9    0.31    0.12 
   0   1  -9    0.18    0.10 
   0  -1   9    0.33    0.12 
   0  -1   9    0.12    0.09 
   0  -1   9    0.16    0.09 
  -1   1  -9    8.35    0.31 
  -1   1  -9    8.09    0.32 
   1  -1   9    8.14    0.29 
   1  -1   9    8.25    0.31 
   1  -1   9    8.33    0.31 
  -2   1  -9    1.19    0.15 
  -2   1  -9    1.40    0.17 
  -2   1  -9    1.11    0.14 
   2  -1   9    1.20    0.16 
   2  -1   9    1.20    0.13 
   2  -1   9    1.02    0.14 
   2  -1   9    1.34    0.16 
  -3   1  -9    3.78    0.28 
  -3   1  -9    2.94    0.24 
  -3   1  -9    3.55    0.25 
  -3   1  -9    2.78    0.26 
   3  -1   9    3.79    0.27 
   3  -1   9    3.66    0.22 
   3  -1   9    3.40    0.21 
   3  -1   9    3.68    0.25 
  -4   1  -9    5.96    0.32 
  -4   1  -9    6.43    0.35 
  -4   1  -9    5.88    0.32 
   4  -1   9    6.15    0.37 
   4  -1   9    6.01    0.29 
   4  -1   9    6.06    0.30 
   4  -1   9    6.10    0.29 
  -5   1  -9   -0.08    0.16 
  -5   1  -9    0.04    0.16 
   5  -1   9    0.09    0.14 
   5  -1   9    0.40    0.21 
   5  -1   9   -0.12    0.13 
   5  -1   9    0.18    0.14 
   6  -1   9    8.62    0.39 
   6  -1   9    9.38    0.38 
   5   0  -9    9.47    0.34 
   5   0  -9   11.27    0.42 
   4   0  -9    3.25    0.21 
   4   0  -9    3.69    0.27 
   4   0  -9    3.72    0.25 
  -4   0   9    3.45    0.29 
  -4   0   9    3.13    0.27 
   3   0  -9   12.11    0.38 
   3   0  -9   12.69    0.41 
   3   0  -9   12.60    0.37 
  -3   0   9   12.69    0.40 
  -3   0   9   12.35    0.35 
  -3   0   9   12.60    0.41 
   2   0  -9    3.56    0.22 
   2   0  -9    3.78    0.22 
   2   0  -9    3.51    0.22 
   2   0  -9    3.46    0.21 
  -2   0   9    3.88    0.24 
  -2   0   9    3.51    0.18 
  -2   0   9    3.46    0.17 
   1   0  -9    8.06    0.28 
   1   0  -9    6.96    0.29 
   1   0  -9    8.04    0.29 
   1   0  -9    7.84    0.28 
  -1   0   9    7.56    0.26 
  -1   0   9    7.33    0.25 
  -1   0   9    8.09    0.30 
  -1   0   9    7.13    0.25 
   0   0  -9    6.66    0.27 
   0   0  -9    7.08    0.27 
   0   0  -9    6.96    0.28 
   0   0   9    6.73    0.25 
   0   0   9    6.46    0.27 
   0   0   9    6.99    0.25 
  -1   0  -9   13.10    0.39 
  -1   0  -9   12.98    0.38 
  -1   0  -9   12.77    0.40 
   1   0   9   12.95    0.37 
   1   0   9   12.29    0.37 
   1   0   9   13.01    0.38 
   1   0   9   12.99    0.38 
  -2   0  -9   64.62    1.42 
  -2   0  -9   66.71    1.40 
  -2   0  -9   65.94    1.38 
   2   0   9   64.83    1.38 
   2   0   9   67.32    1.40 
   2   0   9   64.86    1.42 
  -3   0  -9   13.30    0.42 
  -3   0  -9   14.08    0.45 
   3   0   9   13.11    0.40 
   3   0   9   13.56    0.40 
   3   0   9   13.28    0.41 
   3   0   9   13.94    0.44 
   3   0   9   13.71    0.41 
  -4   0  -9    9.73    0.39 
  -4   0  -9    9.08    0.44 
  -4   0  -9    9.31    0.36 
  -4   0  -9    9.66    0.36 
   4   0   9    9.84    0.34 
   4   0   9    9.67    0.34 
   4   0   9    9.71    0.35 
   4   0   9   10.50    0.41 
  -5   0  -9    2.71    0.27 
  -5   0  -9    2.93    0.27 
   5   0   9    2.65    0.25 
   5   0   9    2.61    0.24 
   5   0   9    3.20    0.34 
   5   0   9    3.11    0.23 
  -6   0  -9   18.48    0.58 
  -6   0  -9   18.70    0.57 
   6   0   9   17.38    0.53 
   6   0   9   17.84    0.54 
   6   0   9   18.24    0.53 
   6  -1  -9   -0.12    0.19 
   5  -1  -9   12.75    0.44 
   5  -1  -9   11.26    0.35 
   5  -1  -9   11.61    0.36 
  -5   1   9   12.40    0.48 
   4  -1  -9    0.63    0.13 
   4  -1  -9    0.57    0.14 
   4  -1  -9    0.51    0.11 
  -4   1   9    0.63    0.14 
  -4   1   9    0.60    0.15 
   3  -1  -9   35.93    0.84 
   3  -1  -9   34.19    0.78 
   3  -1  -9   33.92    0.79 
  -3   1   9   36.06    0.79 
  -3   1   9   35.50    0.76 
   2  -1  -9    3.10    0.20 
   2  -1  -9    2.80    0.18 
   2  -1  -9    2.87    0.19 
   2  -1  -9    2.58    0.20 
   1  -1  -9   23.17    0.57 
   1  -1  -9   22.84    0.55 
   1  -1  -9   21.65    0.58 
   1  -1  -9   23.07    0.55 
  -1   1   9   22.86    0.53 
  -1   1   9   23.01    0.55 
  -1   1   9   22.57    0.53 
   0  -1  -9    3.98    0.21 
   0  -1  -9    4.25    0.20 
   0  -1  -9    3.65    0.21 
   0  -1  -9    4.19    0.22 
   0   1   9    4.19    0.19 
   0   1   9    4.36    0.22 
   0   1   9    4.13    0.19 
  -1  -1  -9   31.62    0.74 
  -1  -1  -9   30.57    0.70 
  -1  -1  -9   31.14    0.72 
   1   1   9   29.71    0.70 
   1   1   9   30.14    0.73 
   1   1   9   30.38    0.71 
   1   1   9   30.93    0.71 
  -2  -1  -9    2.79    0.21 
  -2  -1  -9    3.36    0.20 
  -2  -1  -9    3.42    0.23 
   2   1   9    2.84    0.18 
   2   1   9    3.06    0.18 
   2   1   9    3.07    0.20 
   2   1   9    3.13    0.21 
  -3  -1  -9   11.96    0.40 
  -3  -1  -9   11.56    0.39 
  -3  -1  -9   12.17    0.38 
   3   1   9   11.84    0.37 
   3   1   9   11.58    0.36 
   3   1   9   12.39    0.40 
   3   1   9   11.96    0.37 
  -4  -1  -9    8.39    0.33 
  -4  -1  -9    8.64    0.35 
  -4  -1  -9    9.00    0.34 
   4   1   9    8.97    0.33 
   4   1   9    8.31    0.35 
   4   1   9    9.04    0.32 
   4   1   9    8.39    0.31 
  -5  -1  -9    0.92    0.17 
  -5  -1  -9    0.54    0.16 
  -5  -1  -9    0.74    0.15 
   5   1   9    0.84    0.14 
   5   1   9    0.65    0.17 
   5   1   9    0.69    0.14 
   5   1   9    0.82    0.14 
  -6  -1  -9    3.99    0.33 
  -6  -1  -9    3.43    0.29 
   6   1   9    3.71    0.28 
   6   1   9    4.19    0.43 
   6   1   9    3.81    0.25 
   6   1   9    3.64    0.29 
   7   1   9   10.68    0.41 
   7   1   9   10.36    0.39 
   6  -2  -9    0.08    0.23 
   6  -2  -9    0.35    0.20 
   5  -2  -9    6.63    0.33 
   5  -2  -9    6.55    0.24 
   4  -2  -9   -0.03    0.10 
   4  -2  -9    0.05    0.09 
   4  -2  -9    0.02    0.12 
   3  -2  -9    0.56    0.11 
   3  -2  -9    0.53    0.13 
   3  -2  -9    0.50    0.10 
  -3   2   9    0.44    0.11 
  -3   2   9    0.52    0.08 
   2  -2  -9    8.99    0.28 
   2  -2  -9    8.83    0.29 
   2  -2  -9    9.38    0.31 
   2  -2  -9    9.03    0.32 
  -2   2   9    9.35    0.29 
   1  -2  -9    4.92    0.23 
   1  -2  -9    5.37    0.21 
   1  -2  -9    5.50    0.23 
   1  -2  -9    4.93    0.22 
  -1   2   9    5.10    0.18 
  -1   2   9    4.87    0.17 
   0  -2  -9   91.84    1.86 
   0  -2  -9   90.22    1.80 
   0  -2  -9   87.08    1.79 
   0   2   9   87.07    1.84 
   0   2   9   87.71    1.78 
   0   2   9   87.71    1.79 
  -1  -2  -9   12.02    0.36 
  -1  -2  -9   12.75    0.37 
  -1  -2  -9   12.62    0.37 
  -1  -2  -9   12.01    0.35 
   1   2   9   11.81    0.36 
   1   2   9   12.03    0.35 
   1   2   9   12.09    0.35 
   1   2   9   12.45    0.35 
  -2  -2  -9   40.48    0.94 
  -2  -2  -9   40.90    0.92 
  -2  -2  -9   40.38    0.92 
  -2  -2  -9   41.34    0.90 
   2   2   9   40.73    0.91 
   2   2   9   40.05    0.91 
   2   2   9   41.26    0.89 
   2   2   9   39.69    0.92 
  -3  -2  -9    0.61    0.13 
  -3  -2  -9    0.51    0.11 
  -3  -2  -9    0.66    0.13 
  -3  -2  -9    0.59    0.11 
   3   2   9    0.65    0.10 
   3   2   9    0.45    0.10 
   3   2   9    0.54    0.13 
   3   2   9    0.58    0.12 
   3   2   9    0.66    0.11 
  -4  -2  -9   51.74    1.18 
  -4  -2  -9   49.76    1.10 
  -4  -2  -9   51.35    1.13 
  -4  -2  -9   49.79    1.11 
   4   2   9   49.05    1.11 
   4   2   9   50.25    1.11 
   4   2   9   49.40    1.09 
  -5  -2  -9    5.32    0.27 
  -5  -2  -9    5.45    0.30 
  -5  -2  -9    5.71    0.31 
   5   2   9    5.65    0.27 
   5   2   9    5.69    0.35 
   5   2   9    5.51    0.28 
   5   2   9    6.07    0.27 
  -6  -2  -9   20.49    0.59 
  -6  -2  -9   19.42    0.55 
   6   2   9   20.55    0.56 
   6   2   9   19.95    0.55 
   6   2   9   20.47    0.56 
   6   2   9   21.01    0.64 
  -7  -2  -9    1.61    0.20 
   7   2   9    1.46    0.18 
   7   2   9    1.52    0.20 
   6  -3  -9    0.05    0.22 
   6  -3  -9    0.13    0.19 
   5  -3  -9   20.12    0.57 
   4  -3  -9    3.59    0.18 
   4  -3  -9    4.16    0.25 
   4  -3  -9    4.09    0.20 
   3  -3  -9   50.42    1.14 
   3  -3  -9   52.53    1.06 
   3  -3  -9   50.14    1.06 
  -3   3   9   51.06    1.05 
   2  -3  -9   38.79    0.83 
   2  -3  -9   37.86    0.86 
   2  -3  -9   37.24    0.88 
   2  -3  -9   38.69    0.82 
  -2   3   9   38.94    0.82 
   1  -3  -9    7.34    0.24 
   1  -3  -9    6.95    0.25 
   1  -3  -9    7.34    0.26 
  -1   3   9    6.99    0.19 
  -1   3   9    6.94    0.19 
  -1   3   9    6.78    0.27 
   0  -3  -9    6.98    0.27 
   0  -3  -9    7.59    0.24 
   0  -3  -9    7.40    0.25 
   0  -3  -9    7.35    0.27 
   0  -3  -9    7.90    0.27 
   0   3   9    7.44    0.24 
   0   3   9    7.29    0.23 
   0   3   9    7.75    0.26 
  -1  -3  -9   90.65    1.88 
  -1  -3  -9   90.13    1.86 
  -1  -3  -9   88.36    1.86 
  -1  -3  -9   89.25    1.80 
  -1  -3  -9   90.28    1.82 
   1   3   9   90.13    1.80 
   1   3   9   88.88    1.84 
   1   3   9   86.23    1.81 
   1   3   9   89.54    1.87 
  -2  -3  -9   13.46    0.40 
  -2  -3  -9   13.34    0.37 
  -2  -3  -9   13.67    0.41 
  -2  -3  -9   13.13    0.38 
   2   3   9   13.67    0.38 
   2   3   9   13.57    0.39 
   2   3   9   13.69    0.39 
   2   3   9   13.56    0.38 
  -3  -3  -9    1.88    0.17 
  -3  -3  -9    2.19    0.19 
  -3  -3  -9    1.95    0.17 
   3   3   9    1.99    0.18 
   3   3   9    1.95    0.17 
   3   3   9    2.04    0.17 
   3   3   9    1.95    0.17 
  -4  -3  -9    1.65    0.18 
  -4  -3  -9    1.60    0.17 
  -4  -3  -9    1.31    0.15 
  -4  -3  -9    1.65    0.19 
   4   3   9    1.63    0.19 
   4   3   9    1.99    0.18 
   4   3   9    2.02    0.17 
   4   3   9    1.98    0.22 
  -5  -3  -9    1.57    0.18 
  -5  -3  -9    2.03    0.22 
  -5  -3  -9    2.19    0.24 
  -5  -3  -9    1.74    0.16 
   5   3   9    1.74    0.19 
   5   3   9    1.73    0.20 
   5   3   9    1.77    0.20 
   5   3   9    1.66    0.16 
  -6  -3  -9    0.96    0.18 
  -6  -3  -9    1.09    0.15 
  -6  -3  -9    1.30    0.19 
   6   3   9    1.13    0.16 
   6   3   9    0.90    0.17 
   6   3   9    1.11    0.15 
   6   3   9    1.29    0.22 
  -7  -3  -9    4.61    0.37 
  -7  -3  -9    4.31    0.29 
   7   3   9    4.40    0.28 
   7   3   9    4.52    0.29 
   5  -4  -9    2.50    0.26 
   5  -4  -9    2.56    0.25 
   4  -4  -9    1.03    0.16 
   3  -4  -9    4.46    0.20 
   3  -4  -9    4.68    0.20 
   3  -4  -9    4.35    0.24 
   3  -4  -9    4.33    0.18 
  -3   4   9    4.34    0.18 
   2  -4  -9   13.66    0.38 
   2  -4  -9   13.26    0.36 
   2  -4  -9   13.33    0.40 
   2  -4  -9   13.92    0.37 
   2  -4  -9   13.69    0.34 
  -2   4   9   13.84    0.35 
   1  -4  -9    1.72    0.16 
   1  -4  -9    1.34    0.16 
   1  -4  -9    1.51    0.13 
   1  -4  -9    1.60    0.14 
   1  -4  -9    1.60    0.15 
  -1   4   9    1.64    0.15 
  -1   4   9    1.45    0.14 
   0  -4  -9    1.63    0.14 
   0  -4  -9    1.57    0.15 
   0  -4  -9    1.87    0.17 
   0  -4  -9    1.73    0.16 
   0  -4  -9    1.78    0.13 
   0   4   9    1.71    0.13 
   0   4   9    1.74    0.12 
   0   4   9    1.72    0.15 
  -1  -4  -9    3.72    0.20 
  -1  -4  -9    3.85    0.20 
  -1  -4  -9    3.38    0.19 
  -1  -4  -9    3.62    0.17 
  -1  -4  -9    3.71    0.18 
   1   4   9    3.85    0.19 
   1   4   9    3.77    0.18 
   1   4   9    3.84    0.20 
  -2  -4  -9   40.70    0.89 
  -2  -4  -9   41.98    0.93 
  -2  -4  -9   40.87    0.91 
  -2  -4  -9   40.00    0.91 
  -2  -4  -9   41.26    0.91 
   2   4   9   40.92    0.92 
   2   4   9   41.01    0.90 
   2   4   9   41.12    0.91 
   2   4   9   40.08    0.88 
   2   4   9   39.38    0.90 
  -3  -4  -9   36.37    0.82 
  -3  -4  -9   38.33    0.85 
  -3  -4  -9   36.11    0.83 
  -3  -4  -9   35.25    0.84 
  -3  -4  -9   36.85    0.86 
   3   4   9   35.65    0.82 
   3   4   9   36.43    0.84 
   3   4   9   37.51    0.84 
   3   4   9   36.42    0.81 
   3   4   9   36.72    0.84 
  -4  -4  -9   16.04    0.45 
  -4  -4  -9   16.63    0.49 
  -4  -4  -9   16.76    0.48 
  -4  -4  -9   15.99    0.44 
   4   4   9   15.62    0.44 
   4   4   9   16.33    0.48 
   4   4   9   15.99    0.45 
   4   4   9   16.62    0.45 
  -5  -4  -9   10.54    0.40 
  -5  -4  -9   10.67    0.39 
  -5  -4  -9   10.06    0.36 
  -5  -4  -9   10.18    0.34 
   5   4   9   10.47    0.36 
   5   4   9   10.74    0.40 
   5   4   9   10.32    0.35 
  -6  -4  -9   17.58    0.56 
  -6  -4  -9   18.26    0.53 
  -6  -4  -9   17.59    0.48 
   6   4   9   18.23    0.58 
   6   4   9   18.10    0.51 
   6   4   9   17.69    0.51 
  -7  -4  -9    2.00    0.18 
  -7  -4  -9    2.35    0.25 
   7   4   9    2.32    0.25 
   7   4   9    2.84    0.26 
   5  -5  -9   10.10    0.44 
   5  -5  -9    9.84    0.40 
   4  -5  -9   47.03    1.08 
   4  -5  -9   47.17    1.00 
   3  -5  -9    9.38    0.34 
   3  -5  -9    9.79    0.27 
   3  -5  -9    9.42    0.28 
   2  -5  -9   45.91    1.05 
   2  -5  -9   47.61    0.99 
   2  -5  -9   46.49    0.97 
   2  -5  -9   48.01    1.02 
   2  -5  -9   47.17    1.01 
  -2   5   9   47.70    0.96 
   1  -5  -9    4.66    0.19 
   1  -5  -9    4.51    0.20 
   1  -5  -9    4.40    0.17 
   1  -5  -9    4.52    0.22 
  -1   5   9    4.70    0.18 
  -1   5   9    4.34    0.18 
   0  -5  -9  135.45    2.68 
   0  -5  -9  136.97    2.74 
   0  -5  -9  135.54    2.75 
   0   5   9  132.00    2.69 
  -1  -5  -9    9.97    0.31 
  -1  -5  -9    9.62    0.31 
  -1  -5  -9    9.62    0.30 
  -1  -5  -9    9.49    0.28 
  -1  -5  -9    9.99    0.32 
   1   5   9   10.03    0.30 
   1   5   9    9.63    0.29 
   1   5   9    9.66    0.28 
  -2  -5  -9   13.50    0.39 
  -2  -5  -9   13.03    0.38 
  -2  -5  -9   12.99    0.36 
  -2  -5  -9   13.92    0.40 
  -2  -5  -9   12.78    0.38 
   2   5   9   13.27    0.36 
   2   5   9   13.38    0.37 
   2   5   9   13.60    0.37 
   2   5   9   13.34    0.38 
  -3  -5  -9    0.13    0.08 
  -3  -5  -9    0.13    0.09 
  -3  -5  -9    0.29    0.11 
  -3  -5  -9    0.25    0.10 
  -3  -5  -9    0.09    0.08 
   3   5   9    0.02    0.08 
   3   5   9    0.06    0.08 
   3   5   9    0.15    0.10 
   3   5   9    0.25    0.10 
  -4  -5  -9    6.10    0.25 
  -4  -5  -9    6.03    0.29 
  -4  -5  -9    5.86    0.28 
  -4  -5  -9    5.83    0.25 
   4   5   9    6.09    0.27 
   4   5   9    5.37    0.26 
   4   5   9    6.38    0.28 
  -5  -5  -9    5.75    0.29 
  -5  -5  -9    6.01    0.27 
  -5  -5  -9    6.16    0.26 
  -5  -5  -9    6.66    0.32 
  -5  -5  -9    6.74    0.32 
   5   5   9    6.37    0.29 
   5   5   9    6.18    0.28 
   5   5   9    6.37    0.32 
   5   5   9    6.29    0.28 
  -6  -5  -9   -0.05    0.11 
  -6  -5  -9   -0.04    0.14 
  -6  -5  -9    0.04    0.14 
   6   5   9    0.20    0.13 
   6   5   9    0.10    0.17 
   6   5   9    0.14    0.11 
  -7  -5  -9    1.90    0.24 
  -7  -5  -9    1.24    0.15 
   7   5   9    1.58    0.19 
   7   5   9    1.43    0.18 
   7   5   9    1.63    0.26 
   5  -6  -9    5.94    0.39 
   5  -6  -9    6.74    0.35 
   4  -6  -9    3.92    0.28 
   4  -6  -9    3.96    0.27 
   4  -6  -9    3.40    0.19 
   3  -6  -9    0.12    0.08 
   3  -6  -9    0.08    0.11 
   3  -6  -9    0.08    0.11 
   2  -6  -9    6.00    0.22 
   2  -6  -9    6.14    0.24 
   2  -6  -9    5.71    0.19 
   2  -6  -9    5.59    0.26 
   2  -6  -9    5.74    0.21 
  -2   6   9    5.70    0.19 
   1  -6  -9    2.54    0.16 
   1  -6  -9    2.49    0.17 
   1  -6  -9    2.29    0.14 
   1  -6  -9    2.13    0.17 
   1  -6  -9    2.17    0.15 
  -1   6   9    2.33    0.14 
   0  -6  -9    2.47    0.17 
   0  -6  -9    2.30    0.14 
   0  -6  -9    2.44    0.16 
   0  -6  -9    2.58    0.17 
   0  -6  -9    2.33    0.17 
   0   6   9    2.33    0.11 
  -1  -6  -9    8.46    0.28 
  -1  -6  -9    8.55    0.29 
   1   6   9    8.46    0.26 
   1   6   9    8.60    0.27 
   1   6   9    8.29    0.26 
  -2  -6  -9   10.23    0.33 
  -2  -6  -9   10.67    0.34 
  -2  -6  -9   10.76    0.33 
  -2  -6  -9   10.66    0.32 
  -2  -6  -9   10.57    0.33 
   2   6   9   10.88    0.32 
   2   6   9   11.05    0.32 
   2   6   9   10.97    0.33 
   2   6   9   10.63    0.31 
  -3  -6  -9   20.04    0.53 
  -3  -6  -9   19.71    0.50 
  -3  -6  -9   19.49    0.51 
  -3  -6  -9   19.53    0.50 
  -3  -6  -9   18.77    0.49 
   3   6   9   19.07    0.51 
   3   6   9   18.92    0.50 
   3   6   9   19.31    0.50 
   3   6   9   19.10    0.48 
  -4  -6  -9    0.31    0.09 
  -4  -6  -9    0.15    0.10 
  -4  -6  -9    0.25    0.11 
  -4  -6  -9    0.35    0.10 
  -4  -6  -9    0.34    0.11 
   4   6   9    0.23    0.10 
   4   6   9    0.06    0.10 
   4   6   9    0.62    0.13 
  -5  -6  -9   29.24    0.73 
  -5  -6  -9   29.20    0.70 
  -5  -6  -9   30.43    0.76 
  -5  -6  -9   30.35    0.77 
  -5  -6  -9   30.42    0.73 
   5   6   9   29.98    0.72 
   5   6   9   29.54    0.72 
   5   6   9   28.50    0.73 
   5   6   9   30.43    0.76 
  -6  -6  -9    0.38    0.12 
  -6  -6  -9    0.48    0.16 
  -6  -6  -9    0.66    0.13 
  -6  -6  -9    0.53    0.15 
   6   6   9    0.55    0.14 
   6   6   9    0.65    0.17 
   6   6   9    0.34    0.13 
  -7  -6  -9   34.86    0.82 
  -7  -6  -9   35.35    0.90 
   7   6   9   37.93    0.96 
   7   6   9   36.36    0.88 
   7   6   9   37.16    0.90 
   5  -7  -9    0.97    0.19 
   4  -7  -9   10.98    0.40 
   4  -7  -9   10.94    0.40 
   4  -7  -9   11.28    0.31 
   3  -7  -9    0.26    0.12 
   3  -7  -9    0.12    0.11 
   3  -7  -9    0.17    0.09 
   2  -7  -9   40.45    0.89 
   2  -7  -9   40.57    0.88 
   2  -7  -9   41.04    0.95 
   2  -7  -9   41.12    0.84 
   2  -7  -9   41.49    0.86 
  -2   7   9   41.12    0.83 
   1  -7  -9    2.41    0.14 
   1  -7  -9    2.49    0.18 
   1  -7  -9    2.54    0.16 
   1  -7  -9    2.61    0.16 
   1  -7  -9    2.70    0.20 
  -1   7   9    2.71    0.15 
   0  -7  -9    4.13    0.20 
   0  -7  -9    4.44    0.18 
   0  -7  -9    4.12    0.21 
   0  -7  -9    4.37    0.22 
   0  -7  -9    4.37    0.19 
   0   7   9    4.53    0.19 
  -1  -7  -9    4.36    0.19 
  -1  -7  -9    4.36    0.19 
  -1  -7  -9    4.54    0.22 
  -1  -7  -9    4.41    0.22 
  -1  -7  -9    4.13    0.20 
   1   7   9    4.53    0.19 
   1   7   9    4.08    0.19 
  -2  -7  -9    7.27    0.29 
   2   7   9    6.91    0.25 
   2   7   9    7.27    0.26 
   2   7   9    7.21    0.26 
   2   7   9    6.93    0.24 
  -3  -7  -9   11.36    0.35 
  -3  -7  -9   10.18    0.36 
  -3  -7  -9   11.37    0.38 
  -3  -7  -9   10.66    0.35 
  -3  -7  -9   10.97    0.34 
   3   7   9   11.03    0.34 
   3   7   9   11.20    0.35 
   3   7   9   11.00    0.34 
   3   7   9   11.39    0.32 
  -4  -7  -9    3.61    0.21 
  -4  -7  -9    3.60    0.22 
  -4  -7  -9    3.35    0.23 
  -4  -7  -9    3.62    0.26 
  -4  -7  -9    3.59    0.21 
   4   7   9    3.71    0.23 
   4   7   9    3.62    0.21 
   4   7   9    3.72    0.23 
  -5  -7  -9    3.18    0.22 
  -5  -7  -9    3.54    0.22 
  -5  -7  -9    3.40    0.26 
  -5  -7  -9    3.45    0.25 
  -5  -7  -9    3.32    0.28 
   5   7   9    3.40    0.23 
   5   7   9    3.72    0.23 
   5   7   9    3.78    0.25 
   5   7   9    3.33    0.27 
  -6  -7  -9    9.28    0.41 
  -6  -7  -9    8.98    0.33 
  -6  -7  -9    8.85    0.38 
  -6  -7  -9    8.86    0.35 
   6   7   9    8.90    0.36 
   6   7   9    9.98    0.43 
   6   7   9    9.38    0.36 
  -7  -7  -9    0.30    0.20 
  -7  -7  -9    0.40    0.14 
  -7  -7  -9    0.29    0.16 
   7   7   9    0.44    0.15 
   7   7   9    0.66    0.17 
   7   7   9    0.28    0.22 
   4  -8  -9    5.49    0.29 
   4  -8  -9    4.95    0.24 
   4  -8  -9    5.23    0.32 
   3  -8  -9    4.77    0.23 
   3  -8  -9    5.68    0.29 
   3  -8  -9    5.16    0.22 
   3  -8  -9    4.69    0.22 
   2  -8  -9    9.57    0.36 
   2  -8  -9    9.45    0.26 
   2  -8  -9    9.43    0.27 
   2  -8  -9    9.86    0.28 
   2  -8  -9    9.88    0.30 
   2  -8  -9    9.97    0.29 
   1  -8  -9    2.83    0.15 
   1  -8  -9    3.01    0.19 
   1  -8  -9    2.81    0.15 
   1  -8  -9    3.12    0.21 
   1  -8  -9    2.78    0.18 
  -1   8   9    2.70    0.15 
  -1   8   9    3.05    0.16 
   0  -8  -9    9.85    0.29 
   0  -8  -9   10.40    0.31 
   0  -8  -9   10.27    0.32 
   0  -8  -9   10.15    0.34 
   0  -8  -9    9.79    0.27 
   0   8   9    9.77    0.29 
  -1  -8  -9   32.91    0.75 
  -1  -8  -9   31.58    0.72 
  -1  -8  -9   31.62    0.71 
  -1  -8  -9   31.43    0.76 
  -1  -8  -9   31.89    0.75 
   1   8   9   32.48    0.70 
  -2  -8  -9    7.54    0.28 
  -2  -8  -9    7.41    0.26 
  -2  -8  -9    7.50    0.27 
  -2  -8  -9    7.99    0.30 
  -2  -8  -9    7.37    0.28 
   2   8   9    7.52    0.27 
   2   8   9    8.06    0.27 
   2   8   9    7.39    0.27 
  -3  -8  -9   26.16    0.66 
  -3  -8  -9   26.07    0.63 
  -3  -8  -9   25.87    0.64 
  -3  -8  -9   25.51    0.63 
  -3  -8  -9   25.48    0.64 
   3   8   9   25.78    0.63 
   3   8   9   25.80    0.60 
   3   8   9   26.26    0.64 
   3   8   9   25.44    0.63 
  -4  -8  -9    7.59    0.29 
  -4  -8  -9    7.65    0.30 
  -4  -8  -9    8.08    0.31 
  -4  -8  -9    7.86    0.34 
   4   8   9    7.70    0.31 
   4   8   9    7.36    0.31 
   4   8   9    7.50    0.28 
  -5  -8  -9   21.60    0.59 
  -5  -8  -9   22.68    0.64 
  -5  -8  -9   22.06    0.57 
  -5  -8  -9   22.52    0.60 
  -5  -8  -9   21.25    0.60 
   5   8   9   20.83    0.61 
   5   8   9   22.39    0.57 
   5   8   9   22.64    0.60 
  -6  -8  -9    4.81    0.35 
  -6  -8  -9    4.50    0.31 
  -6  -8  -9    4.09    0.35 
  -6  -8  -9    3.82    0.27 
  -6  -8  -9    4.36    0.26 
   6   8   9    4.20    0.29 
   6   8   9    4.58    0.31 
   6   8   9    4.57    0.36 
  -7  -8  -9    9.46    0.36 
  -7  -8  -9    9.42    0.41 
  -7  -8  -9   10.98    0.48 
   7   8   9   10.11    0.42 
   7   8   9    9.14    0.41 
   7   8   9    9.34    0.52 
   4  -9  -9   20.60    0.62 
   3  -9  -9   14.48    0.48 
   3  -9  -9   14.04    0.40 
   2  -9  -9   13.38    0.38 
   2  -9  -9   13.83    0.36 
   2  -9  -9   13.18    0.44 
   2  -9  -9   13.06    0.33 
   1  -9  -9    1.12    0.12 
   1  -9  -9    1.07    0.14 
   1  -9  -9    1.22    0.13 
   1  -9  -9    1.19    0.13 
  -1   9   9    1.18    0.11 
  -1   9   9    1.32    0.12 
   0  -9  -9   14.81    0.39 
   0  -9  -9   14.56    0.43 
   0  -9  -9   14.68    0.45 
   0  -9  -9   14.70    0.42 
   0   9   9   15.24    0.39 
   0   9   9   15.27    0.39 
  -1  -9  -9   14.18    0.35 
  -1  -9  -9   14.13    0.43 
  -1  -9  -9   14.05    0.41 
  -1  -9  -9   13.84    0.38 
  -1  -9  -9   14.11    0.42 
   1   9   9   14.23    0.39 
   1   9   9   14.38    0.36 
  -2  -9  -9    0.01    0.07 
  -2  -9  -9   -0.01    0.09 
  -2  -9  -9    0.07    0.10 
  -2  -9  -9   -0.03    0.12 
  -2  -9  -9    0.02    0.08 
   2   9   9    0.02    0.07 
   2   9   9   -0.10    0.09 
   2   9   9   -0.04    0.10 
  -3  -9  -9    9.80    0.34 
  -3  -9  -9    9.72    0.33 
  -3  -9  -9    9.36    0.34 
  -3  -9  -9   10.00    0.38 
  -3  -9  -9    9.64    0.32 
   3   9   9   10.07    0.30 
   3   9   9    9.88    0.34 
   3   9   9    9.51    0.35 
   3   9   9    9.73    0.34 
  -4  -9  -9    0.64    0.13 
  -4  -9  -9    0.73    0.14 
  -4  -9  -9    0.62    0.13 
  -4  -9  -9    0.78    0.17 
  -4  -9  -9    0.37    0.11 
   4   9   9    0.75    0.16 
   4   9   9    0.59    0.12 
   4   9   9    0.54    0.13 
   4   9   9    0.62    0.14 
  -5  -9  -9    2.39    0.25 
  -5  -9  -9    2.61    0.26 
  -5  -9  -9    2.19    0.21 
  -5  -9  -9    2.18    0.22 
  -5  -9  -9    2.14    0.20 
   5   9   9    2.16    0.23 
   5   9   9    2.51    0.28 
   5   9   9    2.30    0.25 
  -6  -9  -9    0.83    0.19 
  -6  -9  -9    0.99    0.23 
  -6  -9  -9    0.87    0.20 
  -6  -9  -9    0.89    0.15 
   6   9   9    0.93    0.19 
   6   9   9    1.04    0.16 
   6   9   9    0.61    0.17 
  -7  -9  -9   -0.14    0.17 
  -7  -9  -9    0.14    0.21 
  -7  -9  -9   -0.14    0.15 
   7   9   9    0.04    0.18 
   7   9   9    0.47    0.19 
   3 -10  -9    3.37    0.26 
   3 -10  -9    3.62    0.32 
   2 -10  -9    3.30    0.22 
   2 -10  -9    3.19    0.26 
   2 -10  -9    3.13    0.24 
   2 -10  -9    3.41    0.17 
   1 -10  -9   21.77    0.52 
   1 -10  -9   22.25    0.57 
   1 -10  -9   22.28    0.61 
   1 -10  -9   22.49    0.56 
  -1  10   9   21.99    0.52 
   0 -10  -9    3.83    0.23 
   0 -10  -9    3.90    0.23 
   0 -10  -9    3.93    0.24 
   0 -10  -9    3.90    0.19 
   0  10   9    3.73    0.21 
  -1 -10  -9   28.78    0.72 
  -1 -10  -9   29.06    0.70 
  -1 -10  -9   28.22    0.67 
   1  10   9   28.50    0.67 
  -2 -10  -9   19.33    0.51 
  -2 -10  -9   19.48    0.46 
  -2 -10  -9   20.07    0.56 
  -2 -10  -9   19.48    0.53 
  -2 -10  -9   19.50    0.54 
   2  10   9   18.13    0.53 
   2  10   9   19.84    0.50 
   2  10   9   19.94    0.53 
  -3 -10  -9   31.42    0.77 
  -3 -10  -9   30.79    0.75 
  -3 -10  -9   31.66    0.77 
  -3 -10  -9   30.72    0.78 
  -3 -10  -9   31.31    0.72 
   3  10   9   31.01    0.74 
   3  10   9   30.87    0.76 
   3  10   9   31.52    0.76 
   3  10   9   31.31    0.69 
  -4 -10  -9   13.09    0.41 
  -4 -10  -9   12.58    0.42 
  -4 -10  -9   13.05    0.47 
  -4 -10  -9   12.66    0.42 
  -4 -10  -9   12.05    0.41 
   4  10   9   12.04    0.43 
   4  10   9   12.60    0.42 
   4  10   9   12.88    0.37 
   4  10   9   12.85    0.44 
  -5 -10  -9    6.03    0.35 
  -5 -10  -9    6.07    0.31 
  -5 -10  -9    6.09    0.30 
  -5 -10  -9    6.22    0.39 
  -5 -10  -9    6.59    0.34 
   5  10   9    6.34    0.37 
   5  10   9    6.36    0.30 
   5  10   9    6.07    0.35 
  -6 -10  -9   13.66    0.55 
  -6 -10  -9   12.85    0.46 
  -6 -10  -9   13.41    0.44 
  -6 -10  -9   13.62    0.50 
  -6 -10  -9   12.61    0.56 
   6  10   9   13.62    0.52 
   6  10   9   13.62    0.46 
  -7 -10  -9    1.30    0.20 
  -7 -10  -9    1.52    0.28 
   7  10   9    0.95    0.23 
   7  10   9    1.01    0.22 
   2 -11  -9    2.35    0.26 
   2 -11  -9    2.52    0.26 
   2 -11  -9    2.68    0.17 
   1 -11  -9   17.67    0.50 
   1 -11  -9   17.89    0.45 
   1 -11  -9   17.71    0.55 
   0 -11  -9    0.26    0.12 
   0 -11  -9    0.32    0.12 
   0 -11  -9    0.32    0.09 
   0 -11  -9    0.23    0.15 
   0  11   9    0.09    0.11 
  -1 -11  -9   13.37    0.44 
  -1 -11  -9   13.45    0.39 
  -1 -11  -9   13.45    0.45 
  -1 -11  -9   13.76    0.43 
  -2 -11  -9    4.49    0.31 
  -2 -11  -9    4.82    0.24 
  -2 -11  -9    5.14    0.28 
  -2 -11  -9    4.62    0.26 
   2  11   9    4.86    0.26 
   2  11   9    4.45    0.28 
  -3 -11  -9    0.50    0.19 
  -3 -11  -9    0.69    0.13 
  -3 -11  -9    0.83    0.15 
  -3 -11  -9    0.68    0.14 
   3  11   9    0.72    0.16 
   3  11   9    0.86    0.11 
  -4 -11  -9    0.23    0.13 
  -4 -11  -9    0.14    0.14 
  -4 -11  -9   -0.03    0.11 
   4  11   9   -0.11    0.14 
   4  11   9    0.12    0.11 
   4  11   9    0.21    0.17 
  -5 -11  -9    1.24    0.19 
  -5 -11  -9    1.01    0.15 
  -5 -11  -9    1.37    0.22 
   5  11   9    1.35    0.17 
   5  11   9    1.50    0.23 
  -6 -11  -9    0.96    0.21 
  -6 -11  -9    0.91    0.19 
  -6 -11  -9    1.14    0.17 
   6  11   9    1.01    0.26 
   6  11   9    0.98    0.19 
   1 -12  -9    2.66    0.19 
   1 -12  -9    2.56    0.28 
   1 -12  -9    2.72    0.27 
   0 -12  -9    5.15    0.23 
   0 -12  -9    5.30    0.30 
   0 -12  -9    4.82    0.30 
  -1 -12  -9    3.62    0.27 
  -1 -12  -9    3.98    0.27 
  -1 -12  -9    3.75    0.21 
  -2 -12  -9   11.60    0.43 
  -2 -12  -9   11.85    0.39 
  -2 -12  -9   11.91    0.41 
   2  12   9   11.62    0.38 
  -3 -12  -9    0.87    0.15 
  -3 -12  -9    0.83    0.17 
  -3 -12  -9    0.94    0.14 
   3  12   9    0.60    0.18 
  -4 -12  -9   16.13    0.53 
  -4 -12  -9   16.16    0.51 
  -4 -12  -9   17.26    0.54 
   4  12   9   16.51    0.57 
   4  12   9   16.75    0.44 
  -5 -12  -9    0.20    0.17 
  -5 -12  -9    0.03    0.17 
  -5 -12  -9    0.00    0.13 
   0 -13  -9    4.80    0.34 
  -1 -13  -9    8.32    0.38 
  -1 -13  -9    7.57    0.30 
  -1 -13  -9    7.68    0.37 
  -2 -13  -9    0.36    0.16 
  -2 -13  -9    0.37    0.12 
  -2 -13  -9    0.51    0.15 
  -3 -13  -9    5.12    0.31 
  -3 -13  -9    5.11    0.35 
  -3 -13  -9    5.49    0.32 
  -4 -13  -9    0.70    0.20 
  -4 -13  -9    0.82    0.21 
   2   4 -10    0.03    0.17 
   2   4 -10    0.10    0.18 
  -2  -4  10    0.22    0.19 
   1   4 -10    2.10    0.23 
   1   4 -10    2.46    0.27 
  -1  -4  10    2.38    0.23 
  -1  -4  10    1.93    0.28 
   0   4 -10    1.51    0.19 
   0   4 -10    2.00    0.24 
   0  -4  10    1.41    0.20 
  -1   4 -10    8.56    0.41 
  -1   4 -10    9.00    0.46 
  -1   4 -10    9.70    0.50 
   1  -4  10    9.89    0.48 
   1  -4  10   10.20    0.40 
  -2   4 -10    6.66    0.46 
  -2   4 -10    6.29    0.39 
   2  -4  10    6.43    0.42 
   3   3 -10    8.13    0.42 
   3   3 -10    8.94    0.40 
   2   3 -10    4.90    0.33 
   2   3 -10    4.80    0.33 
  -2  -3  10    5.51    0.33 
   1   3 -10   13.36    0.52 
   1   3 -10   13.21    0.47 
   1   3 -10   11.73    0.46 
  -1  -3  10   12.77    0.51 
  -1  -3  10   13.09    0.45 
  -1  -3  10   12.68    0.44 
   0   3 -10    0.33    0.16 
   0   3 -10    0.36    0.15 
   0   3 -10    0.27    0.19 
   0  -3  10    0.35    0.15 
   0  -3  10    0.18    0.19 
  -1   3 -10    9.53    0.42 
  -1   3 -10    8.68    0.39 
  -1   3 -10    9.62    0.45 
   1  -3  10    8.29    0.36 
  -2   3 -10    2.90    0.33 
  -2   3 -10    3.07    0.30 
  -2   3 -10    4.18    0.39 
   2  -3  10    3.33    0.33 
   2  -3  10    3.59    0.38 
  -3   3 -10    0.56    0.19 
  -3   3 -10    0.95    0.23 
   3  -3  10    0.77    0.20 
   3  -3  10    0.51    0.26 
  -4   3 -10    0.33    0.25 
  -4   3 -10    0.37    0.23 
   4  -3  10    0.39    0.22 
   4   2 -10    3.20    0.28 
   4   2 -10    3.69    0.34 
   3   2 -10    0.28    0.15 
   3   2 -10    0.30    0.16 
   2   2 -10    8.35    0.37 
   2   2 -10    8.53    0.42 
   2   2 -10    8.15    0.36 
  -2  -2  10    8.49    0.34 
  -2  -2  10    8.17    0.32 
  -2  -2  10    6.43    0.38 
   1   2 -10    0.65    0.14 
   1   2 -10    0.87    0.19 
   1   2 -10    0.82    0.16 
  -1  -2  10    0.89    0.15 
  -1  -2  10    0.70    0.19 
   0   2 -10    0.74    0.15 
   0   2 -10    0.86    0.18 
   0   2 -10    0.67    0.14 
   0  -2  10    1.12    0.15 
   0  -2  10    0.49    0.13 
   0  -2  10    0.73    0.18 
  -1   2 -10    8.23    0.36 
  -1   2 -10    8.13    0.38 
  -1   2 -10    7.96    0.36 
   1  -2  10    8.39    0.37 
   1  -2  10    7.90    0.36 
  -2   2 -10   31.57    0.79 
  -2   2 -10   31.39    0.81 
  -2   2 -10   31.80    0.82 
   2  -2  10   29.62    0.81 
   2  -2  10   32.76    0.82 
  -3   2 -10    0.65    0.22 
  -3   2 -10    0.47    0.19 
  -3   2 -10    0.28    0.17 
   3  -2  10    0.25    0.21 
   3  -2  10    0.14    0.16 
  -4   2 -10   10.38    0.47 
  -4   2 -10   10.13    0.47 
   4  -2  10   11.96    0.56 
   4  -2  10   10.32    0.44 
   4   1 -10    0.78    0.15 
   4   1 -10    0.92    0.19 
   3   1 -10   25.40    0.66 
   3   1 -10   25.92    0.70 
   2   1 -10    1.43    0.17 
   2   1 -10    1.89    0.21 
   2   1 -10    1.52    0.18 
  -2  -1  10    1.82    0.22 
  -2  -1  10    1.83    0.21 
  -2  -1  10    1.70    0.20 
   1   1 -10   29.03    0.76 
   1   1 -10   29.59    0.73 
   1   1 -10   30.24    0.74 
  -1  -1  10   30.23    0.75 
  -1  -1  10   29.40    0.71 
  -1  -1  10   30.24    0.71 
   0   1 -10    2.31    0.27 
   0   1 -10    2.09    0.22 
   0   1 -10    2.23    0.21 
   0  -1  10    2.19    0.26 
   0  -1  10    2.23    0.22 
   0  -1  10    2.11    0.21 
  -1   1 -10   39.72    0.91 
  -1   1 -10   38.05    0.93 
  -1   1 -10   38.11    0.89 
   1  -1  10   37.56    0.89 
   1  -1  10   38.49    0.89 
   1  -1  10   38.88    0.90 
  -2   1 -10    8.36    0.35 
  -2   1 -10    8.65    0.36 
  -2   1 -10    8.43    0.39 
   2  -1  10    8.46    0.37 
   2  -1  10    9.18    0.36 
  -3   1 -10    3.25    0.28 
  -3   1 -10    3.27    0.33 
  -3   1 -10    2.38    0.27 
   3  -1  10    2.76    0.31 
   3  -1  10    2.56    0.27 
  -4   1 -10    5.89    0.36 
   4  -1  10    6.55    0.42 
   4  -1  10    6.38    0.32 
  -5   1 -10    0.47    0.21 
  -5   1 -10    0.57    0.20 
   5  -1  10    0.44    0.17 
   5  -1  10    0.53    0.15 
   5   0 -10    6.83    0.40 
   5   0 -10    6.01    0.32 
   4   0 -10   -0.04    0.11 
   4   0 -10   -0.08    0.15 
   3   0 -10    1.67    0.19 
   3   0 -10    1.74    0.18 
   3   0 -10    1.81    0.20 
   2   0 -10    3.47    0.25 
   2   0 -10    3.82    0.26 
   2   0 -10    3.90    0.24 
  -2   0  10    3.68    0.21 
  -2   0  10    3.69    0.19 
   1   0 -10    1.30    0.15 
   1   0 -10    1.01    0.16 
   1   0 -10    1.02    0.14 
   1   0 -10    1.04    0.14 
  -1   0  10    1.09    0.14 
  -1   0  10    1.31    0.15 
  -1   0  10    1.19    0.16 
  -1   0  10    1.16    0.13 
  -1   0  10    1.49    0.18 
   0   0 -10   24.25    0.65 
   0   0 -10   25.64    0.64 
   0   0 -10   24.78    0.62 
   0   0 -10   25.49    0.64 
   0   0  10   25.82    0.62 
   0   0  10   25.52    0.63 
   0   0  10   24.70    0.62 
   0   0  10   24.82    0.62 
  -1   0 -10   13.02    0.41 
  -1   0 -10   12.17    0.42 
  -1   0 -10   12.36    0.39 
  -1   0 -10   11.97    0.40 
   1   0  10   12.38    0.39 
   1   0  10   12.48    0.39 
   1   0  10   12.61    0.41 
  -2   0 -10    6.58    0.30 
  -2   0 -10    6.03    0.29 
  -2   0 -10    6.74    0.33 
  -2   0 -10    6.21    0.32 
   2   0  10    6.38    0.30 
   2   0  10    6.44    0.31 
   2   0  10    6.56    0.27 
   2   0  10    5.98    0.27 
  -3   0 -10    0.06    0.12 
  -3   0 -10    0.12    0.16 
   3   0  10    0.24    0.15 
   3   0  10    0.22    0.15 
   3   0  10    0.13    0.11 
  -4   0 -10   28.72    0.78 
  -4   0 -10   28.70    0.75 
  -4   0 -10   29.19    0.74 
   4   0  10   29.80    0.79 
   4   0  10   29.07    0.73 
   4   0  10   28.80    0.73 
   4   0  10   27.77    0.73 
  -5   0 -10    3.40    0.33 
  -5   0 -10    2.84    0.32 
   5   0  10    2.51    0.29 
   5   0  10    3.22    0.26 
   5   0  10    3.59    0.30 
   5   0  10    2.79    0.29 
  -6   0 -10    5.51    0.42 
   6   0  10    5.51    0.35 
   5  -1 -10    8.18    0.32 
   5  -1 -10    8.59    0.42 
   4  -1 -10    4.89    0.26 
   4  -1 -10    6.62    0.32 
   4  -1 -10    6.30    0.33 
   3  -1 -10   14.90    0.46 
   3  -1 -10   13.89    0.42 
  -3   1  10   15.19    0.45 
   2  -1 -10   11.48    0.38 
   2  -1 -10   11.11    0.39 
   2  -1 -10   11.31    0.36 
   2  -1 -10   11.49    0.35 
  -2   1  10   11.33    0.39 
   1  -1 -10    9.65    0.31 
   1  -1 -10    9.77    0.33 
   1  -1 -10    8.98    0.33 
   1  -1 -10    9.10    0.33 
  -1   1  10    9.79    0.30 
  -1   1  10    9.67    0.34 
  -1   1  10    9.22    0.30 
  -1   1  10    9.16    0.33 
   0  -1 -10   16.88    0.50 
   0  -1 -10   17.74    0.50 
   0  -1 -10   18.68    0.50 
   0  -1 -10   18.32    0.48 
   0   1  10   18.30    0.47 
   0   1  10   18.00    0.48 
   0   1  10   18.58    0.49 
  -1  -1 -10   21.77    0.56 
  -1  -1 -10   22.52    0.59 
  -1  -1 -10   21.86    0.59 
  -1  -1 -10   23.12    0.59 
   1   1  10   22.25    0.57 
   1   1  10   21.89    0.58 
   1   1  10   21.95    0.57 
   1   1  10   22.55    0.57 
  -2  -1 -10   27.64    0.69 
  -2  -1 -10   25.80    0.66 
  -2  -1 -10   25.11    0.67 
  -2  -1 -10   27.50    0.70 
   2   1  10   26.34    0.65 
   2   1  10   26.05    0.67 
   2   1  10   27.15    0.67 
  -3  -1 -10    0.05    0.11 
  -3  -1 -10   -0.19    0.11 
  -3  -1 -10   -0.01    0.10 
  -3  -1 -10    0.00    0.14 
   3   1  10   -0.09    0.09 
   3   1  10    0.14    0.10 
   3   1  10    0.08    0.12 
   3   1  10    0.21    0.13 
  -4  -1 -10    5.51    0.34 
  -4  -1 -10    6.34    0.32 
  -4  -1 -10    5.98    0.30 
   4   1  10    5.66    0.31 
   4   1  10    5.75    0.35 
   4   1  10    5.79    0.29 
   4   1  10    6.10    0.28 
  -5  -1 -10    0.32    0.16 
  -5  -1 -10    0.58    0.17 
   5   1  10    0.54    0.22 
   5   1  10    0.28    0.13 
   5   1  10    0.40    0.15 
   5   1  10    0.44    0.16 
  -6  -1 -10    0.44    0.21 
  -6  -1 -10    0.07    0.19 
   6   1  10    0.09    0.14 
   6   1  10    0.48    0.20 
   6   1  10    0.17    0.16 
   5  -2 -10    5.42    0.26 
   5  -2 -10    4.70    0.34 
   4  -2 -10    0.83    0.16 
   4  -2 -10    0.94    0.13 
   4  -2 -10    0.90    0.17 
   3  -2 -10    2.11    0.18 
   3  -2 -10    2.17    0.22 
   3  -2 -10    1.99    0.17 
  -3   2  10    1.54    0.17 
  -3   2  10    2.18    0.23 
   2  -2 -10   10.17    0.32 
   2  -2 -10    9.87    0.35 
   2  -2 -10   10.19    0.35 
   2  -2 -10    9.89    0.33 
  -2   2  10    9.85    0.36 
  -2   2  10   10.66    0.34 
  -2   2  10    9.81    0.30 
   1  -2 -10    1.88    0.19 
   1  -2 -10    1.72    0.19 
   1  -2 -10    1.85    0.20 
   1  -2 -10    1.60    0.16 
  -1   2  10    1.80    0.19 
  -1   2  10    1.78    0.15 
  -1   2  10    1.44    0.14 
   0  -2 -10   10.85    0.34 
   0  -2 -10   11.01    0.37 
   0  -2 -10   11.99    0.38 
   0  -2 -10   11.93    0.37 
   0   2  10   11.61    0.33 
   0   2  10   11.12    0.34 
   0   2  10   12.12    0.36 
  -1  -2 -10    0.24    0.12 
  -1  -2 -10    0.18    0.09 
  -1  -2 -10    0.23    0.10 
  -1  -2 -10    0.18    0.09 
   1   2  10    0.22    0.11 
   1   2  10   -0.01    0.07 
   1   2  10    0.15    0.09 
   1   2  10    0.16    0.09 
  -2  -2 -10   13.92    0.42 
  -2  -2 -10   14.17    0.44 
  -2  -2 -10   13.76    0.44 
   2   2  10   13.89    0.41 
   2   2  10   13.48    0.41 
   2   2  10   14.14    0.42 
   2   2  10   13.56    0.41 
  -3  -2 -10   15.69    0.46 
  -3  -2 -10   15.54    0.49 
  -3  -2 -10   15.74    0.49 
  -3  -2 -10   15.97    0.46 
   3   2  10   15.62    0.46 
   3   2  10   15.82    0.45 
   3   2  10   15.66    0.45 
   3   2  10   15.11    0.47 
   3   2  10   15.83    0.46 
  -4  -2 -10    9.28    0.35 
  -4  -2 -10    9.44    0.40 
  -4  -2 -10    9.25    0.36 
   4   2  10    9.18    0.39 
   4   2  10    9.39    0.36 
   4   2  10    9.28    0.34 
   4   2  10    9.20    0.35 
  -5  -2 -10    2.01    0.24 
  -5  -2 -10    2.27    0.23 
  -5  -2 -10    2.18    0.25 
   5   2  10    2.37    0.27 
   5   2  10    1.88    0.19 
   5   2  10    1.86    0.22 
   5   2  10    2.05    0.20 
  -6  -2 -10    5.74    0.38 
  -6  -2 -10    5.01    0.34 
   6   2  10    5.06    0.48 
   6   2  10    6.23    0.34 
   6   2  10    5.70    0.30 
   6   2  10    5.52    0.35 
   5  -3 -10    6.77    0.37 
   4  -3 -10   29.78    0.65 
   4  -3 -10   28.87    0.73 
   4  -3 -10   25.71    0.63 
   3  -3 -10    1.58    0.16 
   3  -3 -10    1.34    0.13 
   3  -3 -10    1.39    0.16 
  -3   3  10    1.53    0.15 
  -3   3  10    1.79    0.19 
   2  -3 -10   33.96    0.84 
   2  -3 -10   36.42    0.78 
   2  -3 -10   36.02    0.83 
  -2   3  10   34.60    0.86 
  -2   3  10   37.36    0.79 
  -2   3  10   33.98    0.77 
   1  -3 -10   13.55    0.37 
   1  -3 -10   13.22    0.39 
   1  -3 -10   13.26    0.39 
   1  -3 -10   13.47    0.41 
  -1   3  10   13.17    0.31 
  -1   3  10   13.12    0.31 
   0  -3 -10   50.15    1.09 
   0  -3 -10   48.00    1.09 
   0  -3 -10   49.58    1.07 
   0  -3 -10   48.46    1.04 
   0   3  10   47.02    1.04 
   0   3  10   48.59    1.04 
   0   3  10   48.92    1.04 
  -1  -3 -10    6.77    0.27 
  -1  -3 -10    7.27    0.29 
  -1  -3 -10    6.94    0.26 
  -1  -3 -10    7.23    0.29 
   1   3  10    6.97    0.26 
   1   3  10    6.47    0.27 
   1   3  10    6.79    0.26 
   1   3  10    6.79    0.27 
  -2  -3 -10    0.65    0.13 
  -2  -3 -10    0.74    0.14 
  -2  -3 -10    0.61    0.11 
   2   3  10    0.61    0.10 
   2   3  10    0.83    0.13 
   2   3  10    0.85    0.11 
   2   3  10    0.86    0.12 
  -3  -3 -10    0.72    0.15 
  -3  -3 -10    0.56    0.13 
  -3  -3 -10    0.76    0.12 
  -3  -3 -10    0.78    0.13 
   3   3  10    0.53    0.11 
   3   3  10    0.84    0.14 
   3   3  10    0.62    0.12 
   3   3  10    0.82    0.12 
  -4  -3 -10   16.36    0.51 
  -4  -3 -10   15.53    0.46 
  -4  -3 -10   15.51    0.50 
  -4  -3 -10   15.50    0.46 
   4   3  10   14.56    0.46 
   4   3  10   15.84    0.45 
   4   3  10   14.63    0.45 
   4   3  10   16.22    0.51 
   4   3  10   15.98    0.46 
  -5  -3 -10   10.55    0.40 
  -5  -3 -10   10.18    0.37 
  -5  -3 -10   11.14    0.44 
   5   3  10    9.95    0.45 
   5   3  10   10.03    0.39 
   5   3  10   10.29    0.36 
   5   3  10   11.19    0.39 
  -6  -3 -10    0.24    0.16 
   6   3  10    0.69    0.25 
   6   3  10    0.47    0.16 
   6   3  10    0.34    0.12 
   6   3  10    0.55    0.17 
   7   3  10   -0.12    0.14 
   7   3  10    0.21    0.19 
   5  -4 -10    1.24    0.20 
   4  -4 -10    4.27    0.28 
   3  -4 -10   -0.09    0.12 
   3  -4 -10    0.04    0.11 
   3  -4 -10    0.07    0.08 
   3  -4 -10   -0.05    0.11 
  -3   4  10    0.21    0.08 
  -3   4  10   -0.05    0.10 
   2  -4 -10    4.16    0.24 
   2  -4 -10    4.72    0.20 
   2  -4 -10    4.56    0.25 
   2  -4 -10    4.21    0.25 
  -2   4  10    4.48    0.19 
  -2   4  10    4.69    0.21 
  -2   4  10    3.96    0.25 
   1  -4 -10    0.20    0.07 
   1  -4 -10    0.21    0.09 
   1  -4 -10    0.18    0.10 
   1  -4 -10    0.13    0.09 
   1  -4 -10    0.07    0.10 
  -1   4  10    0.01    0.09 
   0  -4 -10   11.89    0.34 
   0  -4 -10   12.95    0.38 
   0  -4 -10   11.90    0.38 
   0  -4 -10   12.21    0.36 
   0  -4 -10   11.89    0.37 
   0   4  10   11.93    0.32 
  -1  -4 -10   25.99    0.61 
  -1  -4 -10   25.33    0.64 
  -1  -4 -10   26.12    0.65 
  -1  -4 -10   27.26    0.65 
  -1  -4 -10   25.94    0.63 
   1   4  10   25.68    0.63 
   1   4  10   26.19    0.66 
   1   4  10   26.38    0.62 
   1   4  10   26.10    0.62 
  -2  -4 -10    3.50    0.20 
  -2  -4 -10    3.74    0.24 
  -2  -4 -10    3.99    0.22 
  -2  -4 -10    4.01    0.25 
  -2  -4 -10    3.66    0.20 
   2   4  10    3.96    0.21 
   2   4  10    4.05    0.22 
   2   4  10    3.96    0.21 
   2   4  10    3.80    0.22 
  -3  -4 -10   35.81    0.83 
  -3  -4 -10   36.78    0.87 
  -3  -4 -10   35.15    0.83 
  -3  -4 -10   35.23    0.83 
   3   4  10   35.10    0.84 
   3   4  10   36.45    0.82 
   3   4  10   34.95    0.84 
   3   4  10   35.29    0.82 
  -4  -4 -10    6.52    0.32 
  -4  -4 -10    6.12    0.28 
  -4  -4 -10    6.22    0.33 
  -4  -4 -10    6.60    0.29 
   4   4  10    5.99    0.29 
   4   4  10    5.82    0.27 
   4   4  10    5.81    0.28 
   4   4  10    5.87    0.31 
   4   4  10    5.84    0.27 
  -5  -4 -10   39.92    0.93 
  -5  -4 -10   39.38    0.98 
   5   4  10   40.21    0.93 
   5   4  10   38.73    0.97 
   5   4  10   39.91    0.93 
   5   4  10   39.96    0.92 
  -6  -4 -10    0.10    0.14 
  -6  -4 -10    0.30    0.17 
   6   4  10   -0.11    0.12 
   6   4  10    0.12    0.20 
   6   4  10    0.20    0.15 
  -7  -4 -10   21.13    0.66 
   7   4  10   21.42    0.60 
   7   4  10   20.30    0.61 
   5  -5 -10    1.45    0.22 
   5  -5 -10    1.41    0.26 
   4  -5 -10   33.42    0.83 
   3  -5 -10    0.26    0.10 
   3  -5 -10    0.01    0.11 
   3  -5 -10    0.24    0.10 
   3  -5 -10    0.24    0.14 
   3  -5 -10    0.27    0.08 
   2  -5 -10   32.21    0.79 
   2  -5 -10   32.24    0.75 
   2  -5 -10   32.62    0.71 
   2  -5 -10   32.04    0.74 
   2  -5 -10   33.43    0.74 
  -2   5  10   33.45    0.71 
  -2   5  10   32.10    0.71 
   1  -5 -10    1.81    0.16 
   1  -5 -10    1.83    0.19 
   1  -5 -10    2.20    0.19 
   1  -5 -10    2.27    0.18 
   1  -5 -10    2.00    0.15 
  -1   5  10    1.64    0.16 
  -1   5  10    2.10    0.14 
   0  -5 -10    4.14    0.23 
   0  -5 -10    3.92    0.21 
   0  -5 -10    3.81    0.20 
   0  -5 -10    3.99    0.22 
   0  -5 -10    3.68    0.18 
   0   5  10    3.80    0.17 
  -1  -5 -10    8.52    0.31 
  -1  -5 -10    7.79    0.30 
  -1  -5 -10    8.52    0.31 
  -1  -5 -10    8.63    0.32 
  -1  -5 -10    8.33    0.28 
   1   5  10    8.21    0.27 
   1   5  10    8.24    0.28 
   1   5  10    8.80    0.31 
   1   5  10    8.58    0.29 
  -2  -5 -10   13.25    0.40 
  -2  -5 -10   13.42    0.40 
  -2  -5 -10   13.79    0.42 
  -2  -5 -10   14.04    0.43 
  -2  -5 -10   13.40    0.38 
   2   5  10   13.43    0.40 
   2   5  10   13.47    0.39 
   2   5  10   13.65    0.41 
   2   5  10   13.80    0.39 
  -3  -5 -10    0.97    0.13 
  -3  -5 -10    1.00    0.12 
  -3  -5 -10    1.11    0.15 
  -3  -5 -10    1.26    0.15 
   3   5  10    1.02    0.12 
   3   5  10    1.01    0.12 
   3   5  10    1.27    0.15 
   3   5  10    1.10    0.13 
   3   5  10    1.23    0.14 
  -4  -5 -10    4.88    0.30 
  -4  -5 -10    3.93    0.27 
   4   5  10    4.15    0.24 
   4   5  10    3.85    0.26 
   4   5  10    4.08    0.26 
   4   5  10    3.83    0.23 
  -5  -5 -10    0.24    0.11 
  -5  -5 -10    0.20    0.15 
  -5  -5 -10    0.01    0.16 
  -5  -5 -10    0.10    0.12 
   5   5  10    0.25    0.12 
   5   5  10    0.26    0.16 
  -6  -5 -10    1.77    0.18 
  -6  -5 -10    1.79    0.21 
  -6  -5 -10    1.95    0.25 
   6   5  10    2.03    0.24 
   6   5  10    1.91    0.25 
   6   5  10    1.86    0.21 
  -7  -5 -10   -0.23    0.21 
  -7  -5 -10   -0.05    0.17 
   7   5  10   -0.27    0.14 
   7   5  10    0.47    0.18 
   4  -6 -10    1.16    0.21 
   4  -6 -10    1.02    0.13 
   4  -6 -10    1.13    0.18 
   3  -6 -10    0.73    0.15 
   3  -6 -10    0.89    0.12 
   3  -6 -10    0.92    0.15 
   3  -6 -10    0.85    0.11 
   2  -6 -10    1.19    0.13 
   2  -6 -10    1.04    0.13 
   2  -6 -10    1.07    0.12 
   2  -6 -10    1.17    0.15 
   2  -6 -10    1.19    0.13 
  -2   6  10    1.02    0.10 
  -2   6  10    1.22    0.12 
   1  -6 -10    9.67    0.34 
   1  -6 -10   10.01    0.32 
   1  -6 -10   10.70    0.33 
   1  -6 -10    9.56    0.28 
   1  -6 -10   10.03    0.31 
  -1   6  10    9.74    0.29 
  -1   6  10    9.61    0.29 
   0  -6 -10    0.18    0.09 
   0  -6 -10    0.07    0.09 
   0  -6 -10    0.15    0.10 
   0  -6 -10    0.00    0.07 
   0  -6 -10    0.15    0.08 
  -1  -6 -10   17.47    0.47 
  -1  -6 -10   17.05    0.48 
  -1  -6 -10   16.87    0.44 
  -1  -6 -10   17.98    0.48 
  -1  -6 -10   17.50    0.48 
   1   6  10   16.76    0.45 
   1   6  10   17.54    0.44 
   1   6  10   17.52    0.45 
  -2  -6 -10    0.10    0.10 
  -2  -6 -10    0.00    0.08 
  -2  -6 -10   -0.06    0.08 
  -2  -6 -10    0.23    0.13 
  -2  -6 -10    0.15    0.09 
   2   6  10    0.21    0.09 
   2   6  10    0.19    0.11 
   2   6  10    0.12    0.08 
  -3  -6 -10   30.58    0.75 
  -3  -6 -10   30.44    0.74 
  -3  -6 -10   31.43    0.74 
  -3  -6 -10   31.54    0.76 
  -3  -6 -10   30.26    0.72 
   3   6  10   30.14    0.71 
   3   6  10   30.54    0.74 
   3   6  10   29.74    0.73 
   3   6  10   30.75    0.72 
  -4  -6 -10    0.74    0.12 
  -4  -6 -10    1.01    0.17 
  -4  -6 -10    0.90    0.13 
  -4  -6 -10    0.47    0.11 
  -4  -6 -10    0.60    0.15 
   4   6  10    0.69    0.15 
   4   6  10    0.63    0.13 
   4   6  10    0.84    0.13 
   4   6  10    0.89    0.17 
  -5  -6 -10   19.38    0.58 
  -5  -6 -10   18.49    0.57 
  -5  -6 -10   18.43    0.53 
   5   6  10   18.28    0.51 
   5   6  10   19.14    0.54 
   5   6  10   18.55    0.58 
  -6  -6 -10   12.12    0.50 
  -6  -6 -10   12.77    0.41 
  -6  -6 -10   11.51    0.42 
   6   6  10   12.48    0.45 
   6   6  10   12.83    0.43 
   6   6  10   12.55    0.51 
  -7  -6 -10   24.85    0.65 
   7   6  10   25.17    0.70 
   7   6  10   24.87    0.69 
   4  -7 -10   15.60    0.44 
   4  -7 -10   15.78    0.51 
   4  -7 -10   15.81    0.51 
   3  -7 -10   16.84    0.46 
   3  -7 -10   17.20    0.45 
   3  -7 -10   16.43    0.51 
   2  -7 -10   34.80    0.74 
   2  -7 -10   35.09    0.79 
   2  -7 -10   35.34    0.77 
   2  -7 -10   34.07    0.84 
   2  -7 -10   35.80    0.79 
  -2   7  10   35.40    0.73 
  -2   7  10   33.62    0.74 
   1  -7 -10   18.86    0.49 
   1  -7 -10   18.82    0.48 
   1  -7 -10   18.11    0.52 
   1  -7 -10   18.94    0.45 
   1  -7 -10   19.41    0.49 
  -1   7  10   18.40    0.46 
  -1   7  10   19.16    0.45 
   0  -7 -10    9.88    0.34 
   0  -7 -10   10.38    0.33 
   0  -7 -10   10.04    0.33 
   0  -7 -10   10.31    0.30 
   0  -7 -10   10.80    0.34 
   0   7  10   10.41    0.31 
  -1  -7 -10   28.58    0.67 
  -1  -7 -10   28.20    0.69 
  -1  -7 -10   27.92    0.68 
  -1  -7 -10   27.43    0.69 
  -1  -7 -10   27.68    0.65 
   1   7  10   28.62    0.64 
   1   7  10   28.68    0.66 
  -2  -7 -10    4.11    0.22 
  -2  -7 -10    4.18    0.23 
  -2  -7 -10    4.31    0.21 
  -2  -7 -10    4.08    0.25 
  -2  -7 -10    3.88    0.23 
   2   7  10    4.15    0.21 
   2   7  10    4.35    0.22 
   2   7  10    4.28    0.22 
  -3  -7 -10   13.17    0.40 
  -3  -7 -10   13.13    0.39 
  -3  -7 -10   13.57    0.44 
  -3  -7 -10   13.56    0.41 
  -3  -7 -10   12.82    0.41 
   3   7  10   12.94    0.38 
   3   7  10   13.13    0.41 
   3   7  10   13.28    0.40 
   3   7  10   13.13    0.40 
  -4  -7 -10    0.06    0.11 
  -4  -7 -10    0.20    0.13 
  -4  -7 -10    0.09    0.10 
  -4  -7 -10    0.29    0.14 
  -4  -7 -10    0.10    0.10 
   4   7  10    0.24    0.11 
   4   7  10    0.20    0.12 
   4   7  10    0.08    0.11 
   4   7  10    0.06    0.12 
  -5  -7 -10    2.06    0.23 
  -5  -7 -10    2.23    0.25 
  -5  -7 -10    2.04    0.21 
  -5  -7 -10    2.18    0.23 
  -5  -7 -10    2.39    0.28 
   5   7  10    1.86    0.22 
   5   7  10    2.21    0.25 
   5   7  10    2.06    0.21 
  -6  -7 -10    0.14    0.21 
  -6  -7 -10    0.03    0.18 
  -6  -7 -10    0.20    0.12 
   6   7  10    0.25    0.19 
   6   7  10    0.18    0.16 
   6   7  10    0.21    0.14 
  -7  -7 -10    1.94    0.29 
  -7  -7 -10    1.63    0.21 
  -7  -7 -10    1.73    0.21 
   7   7  10    1.32    0.20 
   7   7  10    2.10    0.23 
   4  -8 -10    7.13    0.39 
   3  -8 -10    4.19    0.26 
   3  -8 -10    3.77    0.24 
   3  -8 -10    4.23    0.29 
   2  -8 -10    0.84    0.12 
   2  -8 -10    1.02    0.10 
   2  -8 -10    0.85    0.13 
   2  -8 -10    1.12    0.16 
   1  -8 -10   13.05    0.42 
   1  -8 -10   12.31    0.35 
   1  -8 -10   12.32    0.37 
   1  -8 -10   12.96    0.38 
   1  -8 -10   12.65    0.33 
  -1   8  10   12.37    0.34 
   0  -8 -10    3.99    0.23 
   0  -8 -10    3.88    0.18 
   0  -8 -10    3.73    0.20 
   0  -8 -10    4.07    0.23 
   0   8  10    3.76    0.19 
   0   8  10    4.19    0.21 
  -1  -8 -10    6.89    0.25 
  -1  -8 -10    6.81    0.30 
  -1  -8 -10    6.72    0.27 
  -1  -8 -10    6.92    0.26 
  -1  -8 -10    7.12    0.29 
   1   8  10    7.05    0.24 
  -2  -8 -10   18.28    0.50 
  -2  -8 -10   18.50    0.51 
  -2  -8 -10   18.39    0.48 
  -2  -8 -10   17.98    0.48 
  -2  -8 -10   18.66    0.53 
   2   8  10   18.29    0.49 
   2   8  10   18.47    0.49 
   2   8  10   18.67    0.48 
  -3  -8 -10   35.62    0.85 
  -3  -8 -10   35.07    0.83 
  -3  -8 -10   34.26    0.82 
  -3  -8 -10   34.49    0.81 
  -3  -8 -10   35.14    0.83 
   3   8  10   35.15    0.79 
   3   8  10   35.03    0.81 
   3   8  10   35.00    0.83 
   3   8  10   34.03    0.82 
  -4  -8 -10   12.40    0.46 
  -4  -8 -10   11.79    0.39 
  -4  -8 -10   11.16    0.38 
  -4  -8 -10   11.76    0.39 
  -4  -8 -10   10.98    0.40 
   4   8  10   11.97    0.40 
   4   8  10   11.20    0.39 
   4   8  10   11.46    0.41 
  -5  -8 -10    3.24    0.25 
  -5  -8 -10    3.66    0.32 
  -5  -8 -10    3.30    0.23 
  -5  -8 -10    3.29    0.29 
  -5  -8 -10    3.23    0.27 
   5   8  10    3.27    0.25 
   5   8  10    3.45    0.32 
   5   8  10    2.96    0.28 
  -6  -8 -10    8.30    0.37 
  -6  -8 -10    8.77    0.41 
  -6  -8 -10    8.61    0.36 
  -6  -8 -10    8.75    0.46 
   6   8  10    8.77    0.46 
   6   8  10    8.98    0.38 
   6   8  10    8.68    0.39 
  -7  -8 -10    2.65    0.30 
  -7  -8 -10    2.20    0.23 
   7   8  10    3.40    0.34 
   7   8  10    2.47    0.24 
   3  -9 -10    8.53    0.39 
   3  -9 -10    8.18    0.32 
   2  -9 -10    4.02    0.24 
   2  -9 -10    4.07    0.28 
   2  -9 -10    3.87    0.18 
   2  -9 -10    3.81    0.23 
   1  -9 -10   32.47    0.80 
   1  -9 -10   31.98    0.70 
   1  -9 -10   30.63    0.76 
  -1   9  10   31.54    0.69 
   0  -9 -10    0.91    0.14 
   0  -9 -10    0.75    0.12 
   0  -9 -10    0.66    0.14 
   0  -9 -10    0.75    0.10 
   0  -9 -10    0.68    0.10 
   0   9  10    0.79    0.12 
  -1  -9 -10   13.26    0.40 
  -1  -9 -10   13.00    0.37 
  -1  -9 -10   13.51    0.42 
  -1  -9 -10   12.88    0.36 
  -1  -9 -10   13.36    0.42 
   1   9  10   13.35    0.38 
   1   9  10   12.67    0.33 
  -2  -9 -10    1.91    0.16 
  -2  -9 -10    2.19    0.26 
  -2  -9 -10    2.00    0.19 
  -2  -9 -10    2.03    0.20 
  -2  -9 -10    1.93    0.20 
   2   9  10    2.12    0.20 
   2   9  10    1.65    0.18 
   2   9  10    2.07    0.21 
  -3  -9 -10    6.32    0.27 
  -3  -9 -10    5.98    0.28 
  -3  -9 -10    6.27    0.28 
  -3  -9 -10    6.25    0.34 
  -3  -9 -10    5.79    0.27 
   3   9  10    5.64    0.28 
   3   9  10    6.25    0.25 
   3   9  10    5.90    0.28 
   3   9  10    5.62    0.29 
  -4  -9 -10    5.13    0.27 
  -4  -9 -10    5.14    0.34 
  -4  -9 -10    4.53    0.25 
  -4  -9 -10    4.77    0.29 
  -4  -9 -10    5.27    0.27 
   4   9  10    4.72    0.29 
   4   9  10    4.44    0.29 
   4   9  10    4.82    0.29 
   4   9  10    5.11    0.26 
  -5  -9 -10    0.06    0.13 
  -5  -9 -10    0.02    0.14 
  -5  -9 -10   -0.02    0.10 
  -5  -9 -10   -0.37    0.18 
  -5  -9 -10    0.04    0.16 
   5   9  10   -0.08    0.13 
   5   9  10    0.01    0.15 
   5   9  10    0.10    0.15 
  -6  -9 -10    0.47    0.20 
  -6  -9 -10    0.44    0.14 
  -6  -9 -10    0.66    0.17 
  -6  -9 -10    0.87    0.26 
   6   9  10    0.15    0.18 
   6   9  10    0.39    0.17 
   3 -10 -10    0.14    0.17 
   2 -10 -10    0.10    0.08 
   2 -10 -10    0.14    0.14 
   2 -10 -10    0.05    0.13 
   2 -10 -10    0.19    0.15 
   1 -10 -10   13.82    0.37 
   1 -10 -10   13.61    0.42 
   1 -10 -10   14.28    0.47 
   1 -10 -10   14.47    0.43 
   0 -10 -10    7.35    0.30 
   0 -10 -10    7.34    0.25 
   0 -10 -10    7.41    0.32 
   0  10  10    6.35    0.27 
  -1 -10 -10    4.08    0.24 
  -1 -10 -10    3.40    0.27 
  -1 -10 -10    3.53    0.19 
  -1 -10 -10    3.79    0.25 
  -2 -10 -10    9.15    0.34 
  -2 -10 -10    9.14    0.32 
  -2 -10 -10    9.04    0.35 
  -2 -10 -10    9.16    0.30 
  -2 -10 -10    9.81    0.39 
   2  10  10    9.52    0.33 
   2  10  10    9.40    0.35 
  -3 -10 -10    0.11    0.10 
  -3 -10 -10    0.18    0.12 
  -3 -10 -10    0.13    0.18 
  -3 -10 -10    0.19    0.13 
  -3 -10 -10   -0.03    0.11 
   3  10  10    0.08    0.15 
   3  10  10    0.17    0.11 
  -4 -10 -10   15.18    0.48 
  -4 -10 -10   14.91    0.47 
  -4 -10 -10   15.45    0.48 
  -4 -10 -10   15.20    0.54 
  -4 -10 -10   14.51    0.47 
   4  10  10   14.38    0.48 
   4  10  10   14.99    0.43 
   4  10  10   14.86    0.49 
  -5 -10 -10    0.19    0.12 
  -5 -10 -10    0.53    0.15 
  -5 -10 -10    0.35    0.18 
  -5 -10 -10   -0.05    0.20 
  -5 -10 -10    0.24    0.18 
   5  10  10    0.30    0.18 
   5  10  10    0.16    0.15 
  -6 -10 -10    6.38    0.41 
  -6 -10 -10    6.22    0.35 
  -6 -10 -10    6.32    0.33 
  -6 -10 -10    5.76    0.52 
   6  10  10    7.09    0.42 
   6  10  10    6.55    0.37 
   2 -11 -10    6.23    0.36 
   2 -11 -10    5.87    0.23 
   2 -11 -10    5.67    0.34 
   1 -11 -10    7.00    0.34 
   1 -11 -10    7.02    0.25 
   1 -11 -10    7.12    0.33 
   0 -11 -10    0.20    0.13 
   0 -11 -10    0.38    0.14 
   0 -11 -10    0.09    0.08 
  -1 -11 -10   20.66    0.60 
  -1 -11 -10   21.08    0.58 
  -1 -11 -10   20.57    0.53 
  -2 -11 -10    1.13    0.15 
  -2 -11 -10    0.84    0.13 
  -2 -11 -10    0.89    0.15 
   2  11  10    1.22    0.15 
  -3 -11 -10    0.74    0.14 
  -3 -11 -10    0.45    0.14 
  -3 -11 -10    0.32    0.12 
  -3 -11 -10    0.18    0.14 
  -3 -11 -10    0.31    0.22 
   3  11  10    0.54    0.18 
  -4 -11 -10    1.25    0.17 
  -4 -11 -10    1.37    0.19 
  -4 -11 -10    1.47    0.20 
  -4 -11 -10    1.66    0.22 
   4  11  10    1.29    0.16 
   4  11  10    1.38    0.23 
  -5 -11 -10    0.47    0.14 
  -5 -11 -10    0.45    0.16 
  -5 -11 -10    0.34    0.16 
   5  11  10    0.39    0.16 
   0 -12 -10    5.35    0.32 
   0 -12 -10    5.55    0.24 
   0 -12 -10    5.41    0.30 
  -1 -12 -10    0.43    0.11 
  -1 -12 -10    0.26    0.15 
  -1 -12 -10    0.51    0.15 
  -2 -12 -10   24.61    0.68 
  -2 -12 -10   23.97    0.66 
  -2 -12 -10   23.82    0.63 
  -3 -12 -10    4.58    0.29 
  -3 -12 -10    4.28    0.27 
  -3 -12 -10    4.99    0.31 
  -4 -12 -10   17.86    0.56 
  -4 -12 -10   18.98    0.58 
  -4 -12 -10   18.77    0.58 
  -5 -12 -10    7.13    0.40 
  -2 -13 -10   11.18    0.49 
  -2 -13 -10   10.57    0.43 
  -3 -13 -10   -0.04    0.13 
  -3 -13 -10    0.12    0.16 
   1   3 -11   31.04    0.83 
   1   3 -11   28.81    0.88 
  -1  -3  11   32.02    0.81 
   0   3 -11    1.21    0.22 
   0   3 -11    1.77    0.21 
   0  -3  11    1.64    0.29 
   0  -3  11    1.88    0.23 
  -1   3 -11    9.24    0.44 
  -1   3 -11   10.14    0.48 
   1  -3  11   10.67    0.42 
   1  -3  11    9.69    0.50 
  -2   3 -11    0.48    0.24 
  -2   3 -11    0.67    0.20 
   2  -3  11    0.76    0.23 
   2   2 -11    2.38    0.24 
   2   2 -11    2.94    0.29 
   1   2 -11    0.66    0.17 
   1   2 -11    0.39    0.15 
  -1  -2  11    0.59    0.17 
  -1  -2  11    0.46    0.18 
   0   2 -11    4.74    0.34 
   0   2 -11    4.52    0.31 
   0  -2  11    4.17    0.31 
   0  -2  11    4.29    0.39 
  -1   2 -11    4.05    0.31 
  -1   2 -11    3.74    0.33 
  -1   2 -11    4.66    0.41 
   1  -2  11    5.03    0.37 
   1  -2  11    4.67    0.31 
  -2   2 -11    1.37    0.21 
  -2   2 -11    1.51    0.29 
  -2   2 -11    1.43    0.23 
   2  -2  11    1.46    0.21 
  -3   2 -11    0.59    0.20 
  -3   2 -11    0.74    0.22 
   3  -2  11    0.33    0.20 
   3   1 -11   15.35    0.54 
   3   1 -11   15.66    0.49 
   2   1 -11   12.75    0.44 
   2   1 -11   12.02    0.46 
  -2  -1  11   13.26    0.42 
   1   1 -11   10.39    0.40 
   1   1 -11   10.54    0.42 
  -1  -1  11   11.13    0.39 
   0   1 -11   17.02    0.55 
   0   1 -11   17.00    0.53 
   0   1 -11   15.50    0.51 
   0  -1  11   17.73    0.50 
   0  -1  11   16.64    0.54 
   0  -1  11   16.47    0.50 
  -1   1 -11    5.63    0.39 
  -1   1 -11    5.87    0.33 
  -1   1 -11    5.87    0.31 
   1  -1  11    5.84    0.35 
  -2   1 -11   25.35    0.71 
  -2   1 -11   25.79    0.70 
  -2   1 -11   26.34    0.75 
  -3   1 -11    0.61    0.26 
  -3   1 -11    0.07    0.16 
  -3   1 -11    0.24    0.17 
   3  -1  11    0.34    0.23 
   3  -1  11    0.38    0.19 
  -4   1 -11    3.71    0.38 
  -4   1 -11    4.02    0.38 
   4  -1  11    3.84    0.36 
   4  -1  11    3.67    0.37 
   4   0 -11    3.07    0.33 
   3   0 -11    6.27    0.30 
   3   0 -11    5.31    0.33 
   2   0 -11    0.34    0.12 
   2   0 -11    0.15    0.13 
  -2   0  11    0.18    0.12 
   1   0 -11   -0.04    0.16 
   1   0 -11    0.05    0.11 
   1   0 -11   -0.16    0.10 
  -1   0  11    0.10    0.17 
  -1   0  11   -0.02    0.12 
  -1   0  11    0.08    0.13 
   0   0 -11    2.69    0.23 
   0   0 -11    2.54    0.24 
   0   0 -11    3.14    0.24 
   0   0  11    2.99    0.25 
   0   0  11    2.69    0.29 
  -1   0 -11    0.02    0.13 
  -1   0 -11    0.19    0.12 
  -1   0 -11   -0.21    0.18 
   1   0  11    0.13    0.15 
   1   0  11   -0.06    0.11 
  -2   0 -11    5.15    0.30 
  -2   0 -11    6.21    0.32 
  -2   0 -11    5.93    0.38 
   2   0  11    5.34    0.34 
   2   0  11    5.25    0.33 
  -3   0 -11    2.88    0.28 
  -3   0 -11    2.57    0.27 
  -3   0 -11    2.80    0.29 
   3   0  11    2.73    0.25 
   3   0  11    2.86    0.29 
  -4   0 -11    0.62    0.19 
  -4   0 -11    0.86    0.21 
   4   0  11    0.88    0.26 
   4   0  11    0.81    0.18 
  -5   0 -11    0.27    0.21 
  -5   0 -11    0.47    0.25 
   5   0  11    0.54    0.20 
   4  -1 -11    9.82    0.36 
   4  -1 -11   10.53    0.44 
   3  -1 -11    3.77    0.25 
   3  -1 -11    3.18    0.28 
   2  -1 -11   21.67    0.61 
   2  -1 -11   22.16    0.59 
   2  -1 -11   22.21    0.57 
   1  -1 -11    0.50    0.13 
   1  -1 -11    0.42    0.11 
   1  -1 -11    0.22    0.16 
  -1   1  11    0.46    0.12 
  -1   1  11    0.44    0.12 
  -1   1  11    0.35    0.15 
   0  -1 -11   18.97    0.56 
   0  -1 -11   18.93    0.52 
   0   1  11   18.67    0.51 
   0   1  11   19.79    0.50 
   0   1  11   19.00    0.53 
  -1  -1 -11    1.88    0.22 
  -1  -1 -11    1.78    0.21 
  -1  -1 -11    2.19    0.21 
   1   1  11    2.18    0.26 
   1   1  11    1.95    0.22 
  -2  -1 -11   18.23    0.53 
  -2  -1 -11   19.41    0.55 
  -2  -1 -11   19.66    0.58 
   2   1  11   18.97    0.55 
   2   1  11   18.55    0.53 
   2   1  11   19.11    0.54 
  -3  -1 -11    0.24    0.16 
  -3  -1 -11    0.45    0.21 
  -3  -1 -11    0.34    0.14 
   3   1  11    0.15    0.15 
   3   1  11    0.37    0.16 
  -4  -1 -11    1.93    0.22 
  -4  -1 -11    1.63    0.19 
  -4  -1 -11    2.05    0.26 
   4   1  11    2.16    0.21 
   4   1  11    2.00    0.26 
  -5  -1 -11    7.00    0.41 
  -5  -1 -11    7.04    0.41 
   5   1  11    7.98    0.40 
   5   1  11    7.83    0.53 
   5   1  11    8.52    0.35 
   4  -2 -11    2.29    0.23 
   4  -2 -11    2.55    0.25 
   3  -2 -11    2.10    0.21 
   3  -2 -11    2.47    0.21 
   2  -2 -11   15.71    0.44 
   2  -2 -11   15.11    0.49 
   2  -2 -11   15.90    0.47 
  -2   2  11   16.61    0.47 
   1  -2 -11    3.89    0.21 
   1  -2 -11    3.63    0.26 
   1  -2 -11    4.44    0.28 
   1  -2 -11    3.64    0.24 
  -1   2  11    3.89    0.20 
  -1   2  11    3.86    0.20 
   0  -2 -11    4.67    0.24 
   0  -2 -11    4.33    0.25 
   0  -2 -11    5.03    0.30 
   0  -2 -11    4.47    0.27 
   0   2  11    4.50    0.24 
   0   2  11    4.80    0.24 
   0   2  11    4.70    0.24 
   0   2  11    5.05    0.28 
  -1  -2 -11    5.27    0.27 
  -1  -2 -11    5.07    0.25 
  -1  -2 -11    4.76    0.31 
  -1  -2 -11    5.57    0.29 
   1   2  11    5.71    0.29 
   1   2  11    5.10    0.26 
   1   2  11    5.38    0.27 
   1   2  11    5.02    0.25 
  -2  -2 -11    4.89    0.32 
  -2  -2 -11    4.48    0.25 
  -2  -2 -11    4.71    0.32 
  -2  -2 -11    4.63    0.26 
   2   2  11    4.39    0.25 
   2   2  11    4.04    0.25 
   2   2  11    4.96    0.29 
   2   2  11    4.69    0.26 
  -3  -2 -11   24.09    0.67 
  -3  -2 -11   23.62    0.63 
  -3  -2 -11   23.19    0.62 
   3   2  11   23.00    0.62 
   3   2  11   22.79    0.63 
  -4  -2 -11    1.12    0.16 
  -4  -2 -11    0.81    0.18 
  -4  -2 -11    0.81    0.21 
   4   2  11    0.76    0.18 
   4   2  11    0.78    0.17 
   4   2  11    0.78    0.18 
   4   2  11    0.73    0.14 
  -5  -2 -11   15.99    0.55 
  -5  -2 -11   16.34    0.53 
   5   2  11   15.80    0.53 
   5   2  11   16.20    0.55 
   5   2  11   16.35    0.64 
   5   2  11   15.72    0.49 
  -6  -2 -11   -0.14    0.23 
  -6  -2 -11   -0.21    0.20 
   6   2  11   -0.01    0.20 
   4  -3 -11   11.65    0.37 
   4  -3 -11   13.93    0.48 
   3  -3 -11    1.37    0.18 
   3  -3 -11    1.51    0.15 
   3  -3 -11    1.42    0.18 
   2  -3 -11   17.85    0.52 
   2  -3 -11   18.52    0.53 
   2  -3 -11   18.78    0.48 
   2  -3 -11   17.97    0.54 
  -2   3  11   20.20    0.51 
   1  -3 -11    0.16    0.14 
   1  -3 -11    0.12    0.10 
   1  -3 -11    0.09    0.12 
   1  -3 -11    0.28    0.09 
   0  -3 -11    1.44    0.16 
   0  -3 -11    1.54    0.15 
   0  -3 -11    1.85    0.20 
   0  -3 -11    1.60    0.17 
   0   3  11    1.49    0.15 
   0   3  11    1.93    0.22 
   0   3  11    1.51    0.17 
  -1  -3 -11    3.15    0.23 
  -1  -3 -11    3.27    0.27 
  -1  -3 -11    3.20    0.21 
  -1  -3 -11    3.32    0.26 
   1   3  11    2.45    0.20 
   1   3  11    3.26    0.24 
   1   3  11    2.96    0.20 
   1   3  11    3.46    0.22 
  -2  -3 -11    4.66    0.25 
  -2  -3 -11    4.96    0.26 
  -2  -3 -11    4.51    0.30 
  -2  -3 -11    5.20    0.31 
   2   3  11    4.80    0.28 
   2   3  11    4.66    0.26 
   2   3  11    4.12    0.25 
  -3  -3 -11    2.64    0.27 
  -3  -3 -11    3.22    0.25 
  -3  -3 -11    2.48    0.23 
  -3  -3 -11    3.42    0.31 
   3   3  11    2.52    0.23 
   3   3  11    3.11    0.27 
   3   3  11    2.94    0.23 
   3   3  11    2.83    0.25 
  -4  -3 -11    2.13    0.25 
  -4  -3 -11    1.84    0.19 
  -4  -3 -11    2.09    0.24 
   4   3  11    2.16    0.25 
   4   3  11    2.46    0.25 
   4   3  11    2.22    0.22 
   4   3  11    1.91    0.23 
  -5  -3 -11    1.79    0.20 
  -5  -3 -11    2.10    0.27 
  -5  -3 -11    1.49    0.22 
   5   3  11    1.72    0.21 
   5   3  11    1.76    0.19 
   5   3  11    1.97    0.22 
   5   3  11    2.05    0.28 
  -6  -3 -11    0.24    0.19 
  -6  -3 -11    0.26    0.23 
   6   3  11    0.26    0.20 
   6   3  11    0.01    0.14 
   4  -4 -11    1.10    0.19 
   4  -4 -11    0.88    0.13 
   3  -4 -11    2.08    0.18 
   3  -4 -11    2.05    0.24 
   3  -4 -11    1.82    0.21 
   3  -4 -11    1.96    0.19 
   2  -4 -11    0.79    0.15 
   2  -4 -11    0.71    0.15 
   2  -4 -11    0.78    0.11 
   2  -4 -11    0.51    0.12 
  -2   4  11    0.91    0.14 
   1  -4 -11   16.08    0.43 
   1  -4 -11   16.33    0.47 
   1  -4 -11   16.43    0.47 
   1  -4 -11   15.96    0.48 
  -1   4  11   16.06    0.44 
   0  -4 -11    0.13    0.12 
   0  -4 -11    0.31    0.09 
   0  -4 -11    0.26    0.10 
   0  -4 -11    0.05    0.12 
   0   4  11    0.15    0.12 
   0   4  11    0.34    0.09 
   0   4  11    0.26    0.09 
   0   4  11    0.05    0.09 
  -1  -4 -11   19.98    0.51 
  -1  -4 -11   19.83    0.55 
  -1  -4 -11   19.43    0.55 
  -1  -4 -11   19.51    0.54 
   1   4  11   19.03    0.55 
   1   4  11   19.16    0.52 
   1   4  11   19.74    0.51 
   1   4  11   19.61    0.52 
  -2  -4 -11   -0.01    0.13 
  -2  -4 -11   -0.16    0.12 
  -2  -4 -11    0.16    0.11 
  -2  -4 -11    0.07    0.09 
   2   4  11    0.16    0.11 
   2   4  11   -0.01    0.10 
   2   4  11    0.21    0.13 
   2   4  11   -0.04    0.10 
  -3  -4 -11   43.95    1.06 
  -3  -4 -11   43.64    1.01 
  -3  -4 -11   44.77    1.04 
  -3  -4 -11   44.59    0.99 
   3   4  11   44.19    0.99 
   3   4  11   41.59    1.02 
   3   4  11   43.32    1.02 
   3   4  11   43.51    1.01 
  -4  -4 -11    3.74    0.26 
  -4  -4 -11    4.20    0.27 
  -4  -4 -11    4.17    0.35 
   4   4  11    4.20    0.29 
   4   4  11    3.91    0.29 
   4   4  11    3.74    0.27 
   4   4  11    3.77    0.31 
  -5  -4 -11   13.62    0.54 
  -5  -4 -11   13.53    0.45 
   5   4  11   12.67    0.43 
   5   4  11   13.20    0.47 
   5   4  11   13.52    0.46 
   5   4  11   12.48    0.54 
  -6  -4 -11    4.21    0.32 
  -6  -4 -11    3.84    0.36 
   6   4  11    4.32    0.34 
   6   4  11    4.57    0.30 
   6   4  11    4.11    0.49 
   4  -5 -11   23.76    0.68 
   3  -5 -11   14.03    0.37 
   3  -5 -11   14.13    0.47 
   3  -5 -11   13.47    0.47 
   3  -5 -11   14.27    0.41 
   2  -5 -11   17.76    0.52 
   2  -5 -11   16.58    0.47 
   2  -5 -11   16.90    0.48 
   2  -5 -11   16.40    0.49 
   2  -5 -11   17.48    0.44 
  -2   5  11   18.53    0.45 
   1  -5 -11   27.91    0.64 
   1  -5 -11   28.35    0.69 
   1  -5 -11   28.10    0.72 
   1  -5 -11   28.51    0.69 
   1  -5 -11   28.31    0.68 
  -1   5  11   28.14    0.65 
   0  -5 -11    9.99    0.34 
   0  -5 -11   10.08    0.36 
   0  -5 -11    9.91    0.35 
   0  -5 -11    9.90    0.31 
   0  -5 -11   10.14    0.36 
   0   5  11    9.60    0.28 
  -1  -5 -11   18.79    0.51 
  -1  -5 -11   19.01    0.53 
  -1  -5 -11   19.93    0.55 
  -1  -5 -11   18.23    0.53 
  -1  -5 -11   19.30    0.49 
   1   5  11   18.89    0.50 
   1   5  11   18.63    0.49 
   1   5  11   18.88    0.50 
   1   5  11   18.99    0.54 
  -2  -5 -11   10.75    0.40 
  -2  -5 -11   10.21    0.35 
  -2  -5 -11   10.09    0.33 
  -2  -5 -11   10.21    0.38 
  -2  -5 -11    9.94    0.35 
   2   5  11    9.88    0.34 
   2   5  11    9.72    0.36 
   2   5  11   10.01    0.35 
   2   5  11    9.55    0.34 
  -3  -5 -11    0.67    0.13 
  -3  -5 -11    0.48    0.11 
  -3  -5 -11    0.69    0.16 
  -3  -5 -11    0.81    0.18 
  -3  -5 -11    0.69    0.13 
   3   5  11    0.61    0.15 
   3   5  11    0.86    0.14 
   3   5  11    0.56    0.14 
   3   5  11    0.76    0.14 
  -4  -5 -11    0.27    0.16 
  -4  -5 -11    0.38    0.13 
  -4  -5 -11    0.13    0.13 
  -4  -5 -11    0.57    0.19 
   4   5  11    0.17    0.14 
   4   5  11    0.29    0.13 
   4   5  11    0.28    0.16 
  -5  -5 -11    2.55    0.28 
  -5  -5 -11    1.63    0.20 
  -5  -5 -11    1.97    0.20 
   5   5  11    2.22    0.23 
   5   5  11    1.99    0.19 
   5   5  11    2.59    0.28 
  -6  -5 -11    0.04    0.17 
  -6  -5 -11    0.39    0.21 
   6   5  11    0.28    0.26 
   6   5  11    0.21    0.19 
   6   5  11    0.14    0.14 
   4  -6 -11    5.11    0.35 
   3  -6 -11    0.53    0.16 
   3  -6 -11    0.83    0.18 
   3  -6 -11    1.00    0.12 
   3  -6 -11    1.23    0.15 
   2  -6 -11    6.53    0.32 
   2  -6 -11    7.15    0.25 
   2  -6 -11    6.93    0.32 
   2  -6 -11    7.59    0.31 
  -2   6  11    7.61    0.27 
   1  -6 -11    3.38    0.26 
   1  -6 -11    3.21    0.22 
   1  -6 -11    3.36    0.18 
   1  -6 -11    3.30    0.23 
   1  -6 -11    3.48    0.25 
  -1   6  11    3.16    0.21 
   0  -6 -11    0.05    0.10 
   0  -6 -11    0.19    0.13 
   0  -6 -11    0.10    0.10 
   0  -6 -11    0.26    0.09 
   0  -6 -11    0.14    0.12 
  -1  -6 -11   19.99    0.55 
  -1  -6 -11   19.69    0.54 
  -1  -6 -11   19.00    0.54 
  -1  -6 -11   19.94    0.52 
  -1  -6 -11   19.14    0.49 
   1   6  11   19.39    0.51 
   1   6  11   18.75    0.49 
   1   6  11   19.22    0.50 
  -2  -6 -11   28.59    0.72 
  -2  -6 -11   27.30    0.68 
  -2  -6 -11   27.19    0.69 
  -2  -6 -11   27.89    0.71 
  -2  -6 -11   26.90    0.66 
   2   6  11   27.59    0.67 
   2   6  11   27.38    0.67 
   2   6  11   26.92    0.68 
  -3  -6 -11   10.92    0.37 
  -3  -6 -11   11.30    0.38 
  -3  -6 -11   11.13    0.38 
  -3  -6 -11   11.70    0.42 
  -3  -6 -11   11.97    0.46 
   3   6  11   11.62    0.40 
   3   6  11   11.65    0.39 
   3   6  11   11.02    0.37 
  -4  -6 -11   15.03    0.52 
  -4  -6 -11   15.22    0.46 
  -4  -6 -11   15.73    0.53 
  -4  -6 -11   14.61    0.45 
  -4  -6 -11   14.50    0.46 
   4   6  11   15.33    0.50 
   4   6  11   15.29    0.46 
   4   6  11   14.43    0.47 
   4   6  11   15.51    0.47 
  -5  -6 -11   15.36    0.48 
  -5  -6 -11   15.73    0.48 
  -5  -6 -11   15.90    0.58 
  -5  -6 -11   16.17    0.50 
   5   6  11   15.37    0.51 
   5   6  11   15.88    0.57 
   5   6  11   16.63    0.49 
  -6  -6 -11   27.42    0.75 
  -6  -6 -11   27.78    0.72 
   6   6  11   27.53    0.83 
   6   6  11   28.12    0.72 
   6   6  11   27.25    0.75 
   3  -7 -11   31.06    0.81 
   2  -7 -11    2.27    0.25 
   2  -7 -11    2.04    0.18 
   2  -7 -11    2.05    0.16 
   2  -7 -11    1.70    0.18 
  -2   7  11    1.84    0.20 
   1  -7 -11   42.04    0.96 
   1  -7 -11   43.13    0.96 
   1  -7 -11   42.83    0.96 
   1  -7 -11   42.23    1.00 
   1  -7 -11   41.85    0.91 
  -1   7  11   42.27    0.91 
   0  -7 -11    0.17    0.11 
   0  -7 -11    0.12    0.12 
   0  -7 -11    0.11    0.10 
   0  -7 -11    0.15    0.09 
   0  -7 -11    0.17    0.12 
   0   7  11   -0.02    0.10 
  -1  -7 -11   27.30    0.69 
  -1  -7 -11   26.44    0.63 
  -1  -7 -11   26.05    0.68 
  -1  -7 -11   26.89    0.67 
  -1  -7 -11   27.32    0.67 
   1   7  11   27.10    0.62 
   1   7  11   26.80    0.64 
  -2  -7 -11    1.48    0.18 
  -2  -7 -11    1.50    0.17 
  -2  -7 -11    1.33    0.15 
  -2  -7 -11    1.34    0.15 
  -2  -7 -11    1.16    0.13 
   2   7  11    1.44    0.17 
   2   7  11    1.39    0.17 
   2   7  11    1.46    0.15 
  -3  -7 -11    4.78    0.32 
  -3  -7 -11    4.69    0.25 
  -3  -7 -11    4.93    0.27 
  -3  -7 -11    4.74    0.25 
  -3  -7 -11    4.78    0.30 
   3   7  11    4.87    0.26 
   3   7  11    5.10    0.27 
   3   7  11    5.12    0.30 
  -4  -7 -11    0.96    0.19 
  -4  -7 -11    0.92    0.19 
  -4  -7 -11    0.67    0.14 
  -4  -7 -11    0.80    0.15 
  -4  -7 -11    0.87    0.14 
   4   7  11    0.87    0.16 
   4   7  11    0.99    0.18 
   4   7  11    0.95    0.15 
   4   7  11    1.11    0.18 
  -5  -7 -11    0.88    0.16 
  -5  -7 -11    0.97    0.19 
  -5  -7 -11    1.00    0.21 
  -5  -7 -11    0.87    0.13 
   5   7  11    0.98    0.22 
   5   7  11    0.95    0.17 
  -6  -7 -11    0.15    0.16 
  -6  -7 -11    0.23    0.14 
  -6  -7 -11   -0.05    0.20 
   6   7  11    0.43    0.19 
   6   7  11    0.16    0.25 
   6   7  11    0.00    0.16 
   3  -8 -11    5.68    0.34 
   2  -8 -11   -0.01    0.13 
   2  -8 -11    0.41    0.14 
   2  -8 -11    0.34    0.13 
   2  -8 -11    0.24    0.10 
   1  -8 -11    2.64    0.25 
   1  -8 -11    2.07    0.24 
   1  -8 -11    2.38    0.22 
   1  -8 -11    2.59    0.17 
   1  -8 -11    1.93    0.22 
  -1   8  11    2.50    0.22 
   0  -8 -11    1.96    0.21 
   0  -8 -11    1.78    0.20 
   0  -8 -11    2.04    0.21 
   0  -8 -11    1.93    0.15 
   0  -8 -11    1.85    0.19 
   0   8  11    2.04    0.21 
  -1  -8 -11    0.61    0.11 
  -1  -8 -11    0.59    0.12 
  -1  -8 -11    0.43    0.12 
  -1  -8 -11    0.65    0.14 
  -1  -8 -11    0.61    0.16 
   1   8  11    0.64    0.10 
  -2  -8 -11   12.53    0.44 
  -2  -8 -11   11.90    0.39 
  -2  -8 -11   12.19    0.41 
  -2  -8 -11   12.01    0.40 
  -2  -8 -11   11.68    0.37 
   2   8  11   12.14    0.38 
   2   8  11   13.00    0.41 
  -3  -8 -11    0.09    0.10 
  -3  -8 -11   -0.06    0.15 
  -3  -8 -11    0.13    0.14 
  -3  -8 -11    0.14    0.12 
  -3  -8 -11   -0.07    0.11 
   3   8  11    0.07    0.14 
  -4  -8 -11   10.28    0.38 
  -4  -8 -11    9.69    0.45 
  -4  -8 -11    9.44    0.36 
  -4  -8 -11    9.87    0.37 
  -4  -8 -11    9.86    0.41 
   4   8  11   10.27    0.36 
   4   8  11   10.04    0.39 
   4   8  11    9.67    0.40 
  -5  -8 -11    0.40    0.16 
  -5  -8 -11    0.32    0.13 
  -5  -8 -11    0.66    0.23 
  -5  -8 -11    0.17    0.15 
   5   8  11    0.41    0.15 
  -6  -8 -11    6.39    0.35 
  -6  -8 -11    6.21    0.33 
  -6  -8 -11    6.24    0.40 
   6   8  11    5.72    0.35 
   6   8  11    6.18    0.40 
   2  -9 -11    6.37    0.23 
   2  -9 -11    6.03    0.31 
   2  -9 -11    6.59    0.34 
   1  -9 -11    8.80    0.35 
   1  -9 -11    8.08    0.27 
   1  -9 -11    8.13    0.35 
   1  -9 -11    8.45    0.33 
   0  -9 -11    0.82    0.14 
   0  -9 -11    0.81    0.13 
   0  -9 -11    0.92    0.15 
   0  -9 -11    0.83    0.16 
   0  -9 -11    0.86    0.11 
  -1  -9 -11   29.55    0.68 
  -1  -9 -11   28.88    0.71 
  -1  -9 -11   29.20    0.73 
  -1  -9 -11   28.48    0.73 
   1   9  11   28.33    0.62 
   1   9  11   26.70    0.67 
  -2  -9 -11    2.92    0.24 
  -2  -9 -11    3.39    0.23 
  -2  -9 -11    3.23    0.25 
  -2  -9 -11    3.26    0.21 
  -2  -9 -11    3.41    0.30 
   2   9  11    3.33    0.25 
   2   9  11    2.96    0.24 
  -3  -9 -11    4.25    0.27 
  -3  -9 -11    3.89    0.24 
  -3  -9 -11    4.10    0.30 
  -3  -9 -11    4.83    0.35 
  -3  -9 -11    3.89    0.25 
   3   9  11    4.61    0.29 
  -4  -9 -11    2.53    0.22 
  -4  -9 -11    2.40    0.29 
  -4  -9 -11    2.24    0.24 
  -4  -9 -11    2.15    0.25 
  -4  -9 -11    2.70    0.25 
   4   9  11    2.47    0.28 
   4   9  11    2.93    0.26 
  -5  -9 -11    0.71    0.19 
  -5  -9 -11    0.86    0.24 
  -5  -9 -11    0.76    0.17 
  -5  -9 -11    0.68    0.14 
  -5  -9 -11    0.75    0.21 
   5   9  11    0.98    0.17 
  -6  -9 -11    0.22    0.22 
  -6  -9 -11    0.24    0.15 
  -6  -9 -11    0.31    0.19 
   6   9  11    0.27    0.18 
   6   9  11    0.51    0.21 
   2 -10 -11    2.35    0.28 
   2 -10 -11    2.20    0.20 
   2 -10 -11    2.65    0.19 
   1 -10 -11    4.07    0.28 
   1 -10 -11    3.95    0.28 
   1 -10 -11    3.96    0.21 
   0 -10 -11    8.89    0.30 
   0 -10 -11    9.06    0.35 
   0 -10 -11    9.17    0.37 
  -1 -10 -11    0.12    0.09 
  -1 -10 -11   -0.10    0.12 
  -1 -10 -11    0.14    0.12 
  -2 -10 -11   13.70    0.45 
  -2 -10 -11   13.19    0.44 
  -2 -10 -11   13.26    0.41 
   2  10  11   13.46    0.41 
  -3 -10 -11   10.60    0.40 
  -3 -10 -11   11.03    0.38 
  -3 -10 -11   10.41    0.39 
  -3 -10 -11   10.75    0.39 
   3  10  11   10.76    0.42 
  -4 -10 -11   13.37    0.47 
  -4 -10 -11   13.34    0.45 
  -4 -10 -11   13.50    0.45 
  -4 -10 -11   13.68    0.45 
   4  10  11   13.40    0.43 
   4  10  11   13.19    0.48 
  -5 -10 -11    6.78    0.36 
  -5 -10 -11    6.94    0.33 
  -5 -10 -11    7.65    0.46 
  -5 -10 -11    7.52    0.38 
   5  10  11    7.84    0.37 
   1 -11 -11    4.29    0.32 
   1 -11 -11    4.33    0.22 
   0 -11 -11    6.17    0.33 
   0 -11 -11    6.73    0.26 
   0 -11 -11    7.12    0.34 
  -1 -11 -11    0.04    0.13 
  -1 -11 -11    0.09    0.09 
  -1 -11 -11    0.22    0.14 
  -2 -11 -11    5.68    0.32 
  -2 -11 -11    5.49    0.31 
  -2 -11 -11    5.47    0.25 
  -3 -11 -11    1.11    0.18 
  -3 -11 -11    0.94    0.15 
  -3 -11 -11    0.96    0.17 
  -4 -11 -11    2.11    0.23 
  -4 -11 -11    1.65    0.21 
  -4 -11 -11    2.05    0.24 
   4  11  11    1.88    0.19 
  -5 -11 -11    0.25    0.18 
  -5 -11 -11    0.52    0.18 
   5  11  11    0.65    0.19 
  -1 -12 -11   15.38    0.55 
  -1 -12 -11   16.10    0.52 
  -2 -12 -11    1.26    0.15 
  -2 -12 -11    1.71    0.20 
  -2 -12 -11    1.71    0.21 
  -3 -12 -11    2.52    0.24 
  -3 -12 -11    2.65    0.25 
  -3 -12 -11    2.77    0.27 
   1   1 -12    0.09    0.17 
   1   1 -12    0.52    0.18 
  -1  -1  12    0.15    0.18 
   0   1 -12   15.75    0.53 
   0   1 -12   16.11    0.54 
   0  -1  12   16.43    0.52 
  -1   1 -12    1.56    0.22 
  -1   1 -12    1.11    0.19 
   1  -1  12    1.00    0.19 
   1  -1  12    1.06    0.25 
  -2   1 -12    9.06    0.43 
  -2   1 -12    9.46    0.45 
   2  -1  12    9.34    0.48 
   2   0 -12    0.38    0.16 
   2   0 -12    0.46    0.15 
   1   0 -12    5.90    0.33 
   1   0 -12    5.56    0.31 
  -1   0  12    6.02    0.33 
   0   0 -12    0.74    0.16 
   0   0 -12    0.82    0.16 
   0   0  12    0.97    0.18 
   0   0  12    0.75    0.17 
  -1   0 -12    3.03    0.30 
  -1   0 -12    2.35    0.26 
   1   0  12    2.69    0.25 
  -2   0 -12    2.43    0.33 
  -2   0 -12    2.04    0.21 
  -2   0 -12    2.10    0.23 
   2   0  12    1.69    0.26 
  -3   0 -12    6.36    0.51 
  -3   0 -12    7.64    0.42 
  -3   0 -12    7.55    0.40 
   3   0  12    7.43    0.43 
   3  -1 -12    4.17    0.35 
   2  -1 -12   12.39    0.41 
   2  -1 -12   11.94    0.46 
   1  -1 -12    0.04    0.12 
   1  -1 -12   -0.07    0.12 
  -1   1  12    0.00    0.14 
   0  -1 -12   14.72    0.45 
   0  -1 -12   14.23    0.48 
   0   1  12   15.39    0.45 
  -1  -1 -12   10.84    0.48 
  -1  -1 -12    9.82    0.39 
  -1  -1 -12   10.26    0.39 
   1   1  12    9.77    0.40 
   1   1  12    9.88    0.42 
  -2  -1 -12    2.43    0.28 
  -2  -1 -12    2.31    0.26 
  -2  -1 -12    1.72    0.27 
   2   1  12    2.54    0.26 
  -3  -1 -12    0.83    0.18 
  -3  -1 -12    1.02    0.26 
  -3  -1 -12    0.94    0.18 
   3   1  12    1.34    0.23 
  -4  -1 -12    0.00    0.22 
  -4  -1 -12    0.01    0.18 
   4   1  12    0.16    0.21 
   3  -2 -12    0.19    0.16 
   3  -2 -12    0.34    0.15 
   2  -2 -12    1.33    0.15 
   2  -2 -12    1.24    0.19 
   1  -2 -12    2.10    0.20 
   1  -2 -12    1.57    0.19 
  -1   2  12    2.03    0.21 
   0  -2 -12    1.02    0.15 
   0  -2 -12    0.87    0.20 
   0  -2 -12    0.61    0.15 
   0   2  12    0.64    0.17 
   0   2  12    0.95    0.15 
   0   2  12    1.03    0.15 
  -1  -2 -12    8.07    0.33 
  -1  -2 -12    7.47    0.41 
  -1  -2 -12    7.09    0.32 
   1   2  12    7.71    0.36 
  -2  -2 -12    7.05    0.43 
  -2  -2 -12    7.32    0.33 
  -2  -2 -12    7.47    0.34 
   2   2  12    7.96    0.38 
  -3  -2 -12   15.30    0.50 
  -3  -2 -12   17.02    0.60 
  -3  -2 -12   15.61    0.51 
   3   2  12   15.79    0.53 
  -4  -2 -12    1.81    0.25 
  -4  -2 -12    1.71    0.29 
  -4  -2 -12    1.49    0.21 
   4   2  12    0.95    0.21 
  -5  -2 -12    8.02    0.46 
  -5  -2 -12    8.12    0.44 
   5   2  12    7.76    0.45 
   3  -3 -12   22.43    0.57 
   3  -3 -12   21.17    0.64 
   2  -3 -12    5.64    0.26 
   2  -3 -12    5.88    0.32 
   1  -3 -12   14.02    0.47 
   1  -3 -12   14.20    0.41 
   0  -3 -12    4.85    0.25 
   0  -3 -12    5.26    0.28 
   0  -3 -12    4.97    0.33 
   0   3  12    5.09    0.25 
   0   3  12    4.75    0.31 
   0   3  12    5.24    0.26 
  -1  -3 -12    7.11    0.32 
  -1  -3 -12    7.48    0.38 
  -1  -3 -12    7.02    0.30 
   1   3  12    7.30    0.31 
   1   3  12    7.97    0.36 
  -2  -3 -12    2.77    0.24 
  -2  -3 -12    3.14    0.34 
  -2  -3 -12    2.95    0.25 
   2   3  12    2.81    0.27 
   2   3  12    2.04    0.21 
  -3  -3 -12   12.03    0.52 
  -3  -3 -12   11.53    0.43 
  -3  -3 -12   11.50    0.42 
   3   3  12   12.28    0.46 
  -4  -3 -12    0.45    0.18 
  -4  -3 -12    0.61    0.25 
  -4  -3 -12    0.51    0.18 
   4   3  12    0.61    0.20 
  -5  -3 -12    3.36    0.33 
  -5  -3 -12    3.39    0.38 
   5   3  12    3.46    0.29 
   5   3  12    3.31    0.37 
   3  -4 -12    0.00    0.16 
   3  -4 -12    0.25    0.13 
   2  -4 -12    0.12    0.12 
   2  -4 -12    0.11    0.10 
   1  -4 -12    9.15    0.31 
   1  -4 -12    9.25    0.41 
   1  -4 -12    8.91    0.36 
   1  -4 -12    8.97    0.39 
   0  -4 -12    0.33    0.12 
   0  -4 -12    0.37    0.16 
   0  -4 -12    0.34    0.10 
   0  -4 -12    0.17    0.16 
   0   4  12    0.32    0.12 
   0   4  12    0.31    0.15 
   0   4  12    0.38    0.11 
  -1  -4 -12   15.53    0.48 
  -1  -4 -12   16.13    0.52 
  -1  -4 -12   15.64    0.51 
  -1  -4 -12   15.18    0.45 
   1   4  12   15.58    0.48 
   1   4  12   15.57    0.45 
  -2  -4 -12   15.52    0.49 
  -2  -4 -12   15.71    0.47 
  -2  -4 -12   15.37    0.53 
   2   4  12   15.66    0.50 
   2   4  12   15.81    0.48 
  -3  -4 -12   10.36    0.40 
  -3  -4 -12   10.83    0.40 
  -3  -4 -12   11.26    0.49 
   3   4  12   10.78    0.43 
  -4  -4 -12    9.48    0.40 
  -4  -4 -12    9.76    0.40 
  -4  -4 -12   10.04    0.52 
   4   4  12    9.56    0.39 
  -5  -4 -12    6.64    0.39 
  -5  -4 -12    6.53    0.37 
   5   4  12    6.35    0.40 
   5   4  12    6.83    0.35 
   3  -5 -12   13.61    0.49 
   3  -5 -12   14.29    0.40 
   2  -5 -12   -0.09    0.11 
   2  -5 -12   -0.09    0.09 
   2  -5 -12   -0.38    0.16 
   1  -5 -12   37.32    0.88 
   1  -5 -12   35.22    0.89 
   1  -5 -12   37.26    0.89 
   1  -5 -12   36.16    0.82 
   0  -5 -12    0.78    0.12 
   0  -5 -12    0.71    0.17 
   0  -5 -12    0.66    0.13 
   0  -5 -12    0.87    0.17 
   0   5  12    0.70    0.10 
   0   5  12    0.67    0.11 
   0   5  12    0.80    0.15 
  -1  -5 -12   11.87    0.37 
  -1  -5 -12   12.17    0.45 
  -1  -5 -12   11.85    0.45 
  -1  -5 -12   11.24    0.40 
   1   5  12   11.88    0.38 
   1   5  12   12.16    0.41 
  -2  -5 -12    0.13    0.11 
  -2  -5 -12   -0.07    0.10 
  -2  -5 -12    0.27    0.17 
  -2  -5 -12    0.42    0.19 
   2   5  12    0.05    0.14 
  -3  -5 -12    1.70    0.18 
  -3  -5 -12    2.36    0.26 
  -3  -5 -12    1.79    0.19 
   3   5  12    2.09    0.26 
   3   5  12    1.90    0.23 
  -4  -5 -12    0.49    0.16 
  -4  -5 -12    0.48    0.23 
  -4  -5 -12    0.06    0.15 
   4   5  12    0.27    0.15 
   4   5  12    0.17    0.18 
  -5  -5 -12    0.01    0.27 
  -5  -5 -12    0.03    0.15 
  -5  -5 -12   -0.24    0.15 
   5   5  12    0.13    0.17 
   5   5  12    0.08    0.19 
   3  -6 -12    5.85    0.25 
   3  -6 -12    5.56    0.36 
   2  -6 -12    1.16    0.17 
   2  -6 -12    0.68    0.15 
   2  -6 -12    1.51    0.18 
   2  -6 -12    0.93    0.19 
   1  -6 -12    2.50    0.24 
   1  -6 -12    2.06    0.24 
   1  -6 -12    2.55    0.18 
   1  -6 -12    2.48    0.29 
   0  -6 -12    4.11    0.31 
   0  -6 -12    4.62    0.30 
   0  -6 -12    4.35    0.26 
   0  -6 -12    3.84    0.25 
   0  -6 -12    3.90    0.21 
  -1  -6 -12    0.32    0.16 
  -1  -6 -12    0.53    0.17 
  -1  -6 -12    0.12    0.11 
  -1  -6 -12    0.28    0.11 
  -1  -6 -12    0.62    0.13 
   1   6  12    0.48    0.15 
   1   6  12    0.44    0.13 
  -2  -6 -12    5.40    0.26 
  -2  -6 -12    4.59    0.34 
  -2  -6 -12    5.36    0.29 
  -2  -6 -12    5.51    0.28 
  -2  -6 -12    6.26    0.37 
   2   6  12    5.61    0.31 
   2   6  12    5.13    0.29 
  -3  -6 -12    2.14    0.21 
  -3  -6 -12    1.97    0.23 
  -3  -6 -12    2.08    0.24 
  -3  -6 -12    1.85    0.23 
  -3  -6 -12    2.30    0.26 
   3   6  12    1.85    0.19 
   3   6  12    2.18    0.22 
  -4  -6 -12   31.87    0.82 
  -4  -6 -12   32.43    0.82 
  -4  -6 -12   34.47    0.91 
  -4  -6 -12   32.59    0.82 
   4   6  12   34.18    0.82 
   4   6  12   33.21    0.83 
  -5  -6 -12    0.26    0.27 
  -5  -6 -12    0.86    0.18 
  -5  -6 -12    1.05    0.20 
   5   6  12    0.54    0.16 
   5   6  12    0.62    0.21 
  -6  -6 -12    7.31    0.45 
  -6  -6 -12    6.83    0.41 
   6   6  12    7.37    0.45 
   6   6  12    7.45    0.39 
   2  -7 -12    0.22    0.14 
   2  -7 -12    0.10    0.10 
   2  -7 -12    0.24    0.15 
   1  -7 -12   16.36    0.43 
   1  -7 -12   16.74    0.49 
   1  -7 -12   15.77    0.51 
   1  -7 -12   16.21    0.51 
   0  -7 -12    5.21    0.34 
   0  -7 -12    5.36    0.23 
   0  -7 -12    5.36    0.32 
   0  -7 -12    5.50    0.28 
   0  -7 -12    5.13    0.28 
  -1  -7 -12    9.26    0.40 
  -1  -7 -12    9.08    0.39 
  -1  -7 -12    9.31    0.35 
  -1  -7 -12    9.44    0.36 
  -1  -7 -12    8.92    0.31 
   1   7  12    7.85    0.34 
  -2  -7 -12    2.85    0.32 
  -2  -7 -12    2.75    0.23 
  -2  -7 -12    2.65    0.31 
  -2  -7 -12    3.14    0.26 
  -2  -7 -12    2.84    0.22 
   2   7  12    3.31    0.29 
   2   7  12    3.90    0.26 
  -3  -7 -12   14.61    0.53 
  -3  -7 -12   15.24    0.48 
  -3  -7 -12   14.53    0.45 
  -3  -7 -12   15.58    0.47 
   3   7  12   15.79    0.49 
   3   7  12   15.10    0.48 
  -4  -7 -12    0.96    0.17 
  -4  -7 -12    0.80    0.16 
  -4  -7 -12    1.07    0.25 
  -4  -7 -12    0.81    0.14 
   4   7  12    1.15    0.20 
   4   7  12    1.03    0.17 
  -5  -7 -12    0.20    0.12 
  -5  -7 -12   -0.12    0.15 
  -5  -7 -12    0.05    0.24 
  -5  -7 -12    0.26    0.17 
   5   7  12    0.12    0.20 
   5   7  12    0.19    0.16 
   2  -8 -12    0.15    0.16 
   2  -8 -12    0.08    0.11 
   2  -8 -12   -0.01    0.14 
   1  -8 -12    0.20    0.14 
   1  -8 -12    0.20    0.13 
   1  -8 -12    0.19    0.10 
   0  -8 -12    8.09    0.35 
   0  -8 -12    8.32    0.36 
   0  -8 -12    8.10    0.34 
   0  -8 -12    8.56    0.29 
  -1  -8 -12    0.90    0.18 
  -1  -8 -12    1.20    0.16 
  -1  -8 -12    1.06    0.16 
  -1  -8 -12    1.49    0.16 
   1   8  12    1.10    0.13 
  -2  -8 -12   12.75    0.44 
  -2  -8 -12   13.85    0.51 
  -2  -8 -12   13.33    0.43 
  -2  -8 -12   12.89    0.46 
  -2  -8 -12   13.44    0.40 
   2   8  12   11.45    0.42 
   2   8  12   12.85    0.42 
  -3  -8 -12    7.84    0.41 
  -3  -8 -12    8.92    0.34 
  -3  -8 -12    9.31    0.37 
  -3  -8 -12    9.69    0.46 
  -3  -8 -12    8.46    0.35 
   3   8  12    8.92    0.40 
   3   8  12    8.69    0.38 
  -4  -8 -12    6.26    0.31 
  -4  -8 -12    6.40    0.42 
  -4  -8 -12    6.83    0.47 
  -4  -8 -12    5.92    0.32 
  -4  -8 -12    5.78    0.34 
   4   8  12    6.43    0.39 
   4   8  12    6.46    0.33 
  -5  -8 -12    6.58    0.32 
  -5  -8 -12    6.51    0.37 
  -5  -8 -12    6.34    0.35 
   5   8  12    7.14    0.37 
   5   8  12    6.88    0.42 
   1  -9 -12    3.27    0.29 
   1  -9 -12    3.95    0.21 
   1  -9 -12    3.94    0.29 
   0  -9 -12   14.27    0.46 
   0  -9 -12   14.11    0.40 
   0  -9 -12   13.67    0.47 
  -1  -9 -12    3.17    0.20 
  -1  -9 -12    2.47    0.25 
  -1  -9 -12    3.19    0.26 
  -1  -9 -12    2.81    0.28 
  -2  -9 -12   20.47    0.59 
  -2  -9 -12   20.17    0.58 
  -2  -9 -12   20.70    0.58 
  -2  -9 -12   20.53    0.55 
   2   9  12   20.49    0.55 
  -3  -9 -12    0.62    0.16 
  -3  -9 -12    0.65    0.19 
  -3  -9 -12    0.46    0.13 
  -3  -9 -12    0.50    0.13 
   3   9  12    0.39    0.18 
   3   9  12    0.19    0.18 
  -4  -9 -12    4.13    0.31 
  -4  -9 -12    3.47    0.27 
  -4  -9 -12    4.60    0.39 
  -4  -9 -12    3.87    0.30 
   4   9  12    4.21    0.36 
   4   9  12    4.61    0.32 
  -5  -9 -12    1.09    0.17 
  -5  -9 -12    0.95    0.21 
  -5  -9 -12    1.35    0.22 
   5   9  12    1.50    0.21 
   5   9  12    1.12    0.25 
   1 -10 -12    0.55    0.17 
   1 -10 -12    0.47    0.12 
   0 -10 -12    4.17    0.28 
   0 -10 -12    4.36    0.22 
   0 -10 -12    4.48    0.30 
  -1 -10 -12    7.18    0.34 
  -1 -10 -12    7.00    0.34 
  -1 -10 -12    6.59    0.28 
  -2 -10 -12    1.32    0.14 
  -2 -10 -12    1.06    0.17 
  -2 -10 -12    1.60    0.19 
  -3 -10 -12    5.71    0.30 
  -3 -10 -12    5.35    0.28 
  -3 -10 -12    5.30    0.32 
   3  10  12    5.03    0.36 
  -4 -10 -12    0.63    0.18 
  -4 -10 -12    0.90    0.19 
  -4 -10 -12    0.40    0.13 
   4  10  12    0.74    0.19 
  -1 -11 -12    0.13    0.16 
  -1 -11 -12    0.17    0.15 
  -2 -11 -12   22.00    0.59 
  -2 -11 -12   21.71    0.64 
  -2 -11 -12   23.01    0.65 
  -3 -11 -12    1.02    0.17 
  -3 -11 -12    1.09    0.19 
  -3 -11 -12    1.15    0.18 
   0  -1 -13    4.58    0.30 
   0   1  13    4.02    0.34 
  -1  -1 -13    7.55    0.38 
  -1  -1 -13    7.78    0.38 
  -2  -1 -13    2.04    0.24 
  -2  -1 -13    2.34    0.25 
   1  -2 -13    3.73    0.26 
   1  -2 -13    3.52    0.28 
   0  -2 -13    0.71    0.15 
   0  -2 -13    0.42    0.14 
  -1  -2 -13    0.51    0.16 
  -1  -2 -13    0.81    0.17 
   1   2  13    0.31    0.18 
  -2  -2 -13    8.28    0.39 
  -2  -2 -13    8.54    0.39 
  -3  -2 -13    7.02    0.39 
  -3  -2 -13    6.02    0.40 
   3   2  13    6.37    0.45 
   1  -3 -13   19.03    0.60 
   1  -3 -13   20.89    0.54 
   0  -3 -13    2.04    0.22 
   0  -3 -13    1.63    0.20 
   0   3  13    1.76    0.18 
  -1  -3 -13   10.58    0.42 
  -1  -3 -13   11.47    0.40 
   1   3  13   11.24    0.42 
  -2  -3 -13    1.20    0.18 
  -2  -3 -13    0.99    0.17 
   2   3  13    1.22    0.24 
  -3  -3 -13    7.10    0.38 
  -3  -3 -13    6.67    0.37 
   3   3  13    7.52    0.45 
  -4  -3 -13    0.09    0.21 
  -4  -3 -13    0.13    0.19 
   4   3  13    0.23    0.23 
   2  -4 -13    0.23    0.18 
   1  -4 -13    1.67    0.20 
   1  -4 -13    1.34    0.15 
   0  -4 -13    0.46    0.12 
   0  -4 -13    0.63    0.16 
  -1  -4 -13    5.63    0.29 
  -1  -4 -13    5.99    0.32 
   1   4  13    5.55    0.32 
  -2  -4 -13    2.73    0.27 
  -2  -4 -13    3.04    0.26 
   2   4  13    3.01    0.35 
   2   4  13    2.36    0.22 
  -3  -4 -13    1.01    0.18 
  -3  -4 -13    1.05    0.19 
   3   4  13    0.98    0.24 
  -4  -4 -13   14.76    0.52 
  -4  -4 -13   13.99    0.53 
   4   4  13   14.86    0.57 
   2  -5 -13    1.84    0.22 
   1  -5 -13    3.80    0.28 
   1  -5 -13    4.13    0.23 
   0  -5 -13    3.47    0.26 
   0  -5 -13    3.42    0.22 
  -1  -5 -13    7.34    0.34 
  -1  -5 -13    7.34    0.30 
   1   5  13    7.40    0.37 
  -2  -5 -13    0.42    0.15 
  -2  -5 -13    0.41    0.15 
   2   5  13    0.03    0.18 
   2   5  13    0.48    0.18 
  -3  -5 -13    3.06    0.29 
  -3  -5 -13    3.74    0.30 
   3   5  13    3.49    0.38 
  -4  -5 -13    1.08    0.19 
  -4  -5 -13    1.36    0.21 
   4   5  13    1.78    0.26 
   1  -6 -13    0.14    0.13 
   1  -6 -13    0.13    0.11 
   0  -6 -13    8.61    0.31 
   0  -6 -13    8.34    0.36 
   0  -6 -13    9.36    0.38 
  -1  -6 -13    0.46    0.14 
  -1  -6 -13    0.54    0.13 
  -1  -6 -13    0.43    0.14 
  -2  -6 -13   14.99    0.50 
  -2  -6 -13   14.99    0.46 
  -2  -6 -13   15.66    0.49 
  -3  -6 -13   11.45    0.43 
  -3  -6 -13   11.12    0.41 
   3   6  13   12.23    0.49 
  -4  -6 -13    4.97    0.34 
  -4  -6 -13    5.29    0.35 
   4   6  13    5.48    0.43 
   1  -7 -13    1.87    0.21 
   1  -7 -13    2.02    0.19 
   1  -7 -13    1.44    0.19 
   0  -7 -13    7.80    0.35 
   0  -7 -13    7.73    0.29 
   0  -7 -13    7.70    0.45 
   0  -7 -13    8.28    0.37 
  -1  -7 -13    2.15    0.24 
  -1  -7 -13    1.77    0.24 
  -1  -7 -13    1.67    0.19 
  -1  -7 -13    1.79    0.19 
  -2  -7 -13   28.53    0.75 
  -2  -7 -13   28.51    0.71 
  -2  -7 -13   28.70    0.76 
  -2  -7 -13   29.14    0.82 
   2   7  13   27.59    0.72 
  -3  -7 -13    0.16    0.12 
  -3  -7 -13    0.13    0.14 
  -3  -7 -13    0.06    0.14 
  -4  -7 -13    0.57    0.14 
  -4  -7 -13    0.48    0.18 
  -4  -7 -13    0.79    0.19 
   4   7  13    0.74    0.25 
   1  -8 -13    2.68    0.24 
   0  -8 -13    1.52    0.19 
   0  -8 -13    2.03    0.19 
   0  -8 -13    2.10    0.25 
  -1  -8 -13    7.04    0.42 
  -1  -8 -13    7.40    0.29 
  -1  -8 -13    6.66    0.34 
  -1  -8 -13    7.43    0.35 
  -2  -8 -13    1.48    0.18 
  -2  -8 -13    1.45    0.16 
  -2  -8 -13    1.43    0.19 
  -2  -8 -13    1.16    0.24 
  -3  -8 -13    2.17    0.25 
  -3  -8 -13    2.34    0.21 
  -3  -8 -13    2.61    0.29 
   3   8  13    2.13    0.24 
  -4  -8 -13    3.17    0.32 
  -4  -8 -13    3.12    0.30 
  -4  -8 -13    3.68    0.29 
   0  -9 -13   22.86    0.65 
  -1  -9 -13    0.11    0.11 
  -1  -9 -13    0.31    0.15 
  -1  -9 -13    0.22    0.16 
  -2  -9 -13   14.43    0.44 
  -2  -9 -13   14.24    0.49 
  -2  -9 -13   14.59    0.49 
  -3  -9 -13    2.79    0.30 
  -3  -9 -13    2.62    0.25 
  -3  -9 -13    2.00    0.21 
  -4  -9 -13    4.55    0.36 
  -4  -9 -13    5.02    0.34 
  -2 -10 -13    0.24    0.15 
  -2 -10 -13    0.22    0.16 
  -2  -5 -14   12.62    0.45 
  -2  -6 -14    0.72    0.18 
  -2  -6 -14    0.71    0.15 
   0   0   0    0.00    0.00 
;
_shelx_hkl_checksum              81217
#END Tags that were not found in dictionaries
loop_
_space_group_symop_operation_xyz
'x, y, z'
'-x, -y, -z'
loop_
_atom_site_label
_atom_site_type_symbol
_atom_site_fract_x
_atom_site_fract_y
_atom_site_fract_z
_atom_site_U_iso_or_equiv
_atom_site_adp_type
_atom_site_occupancy
_atom_site_site_symmetry_order
_atom_site_calc_flag
_atom_site_refinement_flags_posn
_atom_site_refinement_flags_adp
Br1 Br -0.28111(2) 0.95664(2) -0.08954(2) 0.02220(6) Uani 1 1 d . .
S1 S 0.21712(5) 0.54490(4) 0.12065(4) 0.01441(8) Uani 1 1 d . .
F1 F 0.49837(16) 0.90062(10) 0.42925(10) 0.0259(2) Uani 1 1 d . .
F2 F 0.73680(16) 0.72307(13) 0.48464(12) 0.0330(2) Uani 1 1 d . .
F3 F 0.46136(17) 0.71325(11) 0.61187(10) 0.0272(2) Uani 1 1 d . .
O1 O 0.34761(16) 0.41779(11) 0.12034(11) 0.0179(2) Uani 1 1 d . .
O2 O 0.01246(16) 0.54070(12) 0.16645(12) 0.0196(2) Uani 1 1 d . .
N1 N 0.2340(2) 0.66157(14) -0.03657(13) 0.0173(2) Uani 1 1 d . .
H1N H 0.345(3) 0.653(2) -0.077(2) 0.022(5) Uiso 1 1 d . .
C1 C -0.0817(2) 0.80351(16) -0.11921(16) 0.0184(3) Uani 1 1 d . .
H1 H -0.1240 0.7093 -0.0674 0.022 Uiso 1 1 calc R U
C2 C -0.0389(3) 0.83491(18) -0.27403(17) 0.0226(3) Uani 1 1 d . .
H2A H -0.1626 0.8702 -0.3223 0.027 Uiso 1 1 calc R U
H2B H 0.0324 0.7494 -0.2897 0.027 Uiso 1 1 calc R U
C3 C 0.0903(2) 0.94920(18) -0.32464(16) 0.0212(3) Uani 1 1 d . .
H3A H 0.0076 1.0444 -0.3494 0.025 Uiso 1 1 calc R U
H3B H 0.1781 0.9464 -0.4074 0.025 Uiso 1 1 calc R U
C4 C 0.2125(3) 0.91478(18) -0.20138(17) 0.0229(3) Uani 1 1 d . .
H4A H 0.2111 1.0015 -0.1856 0.027 Uiso 1 1 calc R U
H4B H 0.3512 0.8743 -0.2203 0.027 Uiso 1 1 calc R U
C5 C 0.1146(2) 0.80593(16) -0.07238(16) 0.0175(3) Uani 1 1 d . .
H5 H 0.0924 0.8346 0.0090 0.021 Uiso 1 1 calc R U
C6 C 0.3126(2) 0.60589(15) 0.22798(15) 0.0147(3) Uani 1 1 d . .
C7 C 0.5060(2) 0.63138(16) 0.19839(16) 0.0176(3) Uani 1 1 d . .
H7 H 0.5856 0.6161 0.1223 0.021 Uiso 1 1 calc R U
C8 C 0.5808(2) 0.67956(16) 0.28187(16) 0.0185(3) Uani 1 1 d . .
H8 H 0.7122 0.6982 0.2628 0.022 Uiso 1 1 calc R U
C9 C 0.4626(2) 0.70030(15) 0.39345(15) 0.0163(3) Uani 1 1 d . .
C10 C 0.2702(2) 0.67321(17) 0.42352(16) 0.0191(3) Uani 1 1 d . .
H10 H 0.1914 0.6866 0.5008 0.023 Uiso 1 1 calc R U
C11 C 0.1939(2) 0.62618(16) 0.33932(16) 0.0180(3) Uani 1 1 d . .
H11 H 0.0622 0.6082 0.3579 0.022 Uiso 1 1 calc R U
C12 C 0.5400(2) 0.75863(16) 0.47978(16) 0.0197(3) Uani 1 1 d . .
loop_
_atom_site_aniso_label
_atom_site_aniso_U_11
_atom_site_aniso_U_22
_atom_site_aniso_U_33
_atom_site_aniso_U_23
_atom_site_aniso_U_13
_atom_site_aniso_U_12
Br1 0.01715(9) 0.02280(9) 0.02366(9) -0.01027(7) -0.00068(6) 0.00421(6)
S1 0.01338(17) 0.01443(16) 0.01632(16) -0.00781(13) -0.00181(13) -0.00011(12)
F1 0.0393(6) 0.0159(4) 0.0251(5) -0.0098(4) -0.0025(4) -0.0064(4)
F2 0.0232(5) 0.0441(6) 0.0450(6) -0.0312(5) -0.0100(5) 0.0009(5)
F3 0.0424(6) 0.0253(5) 0.0155(4) -0.0081(4) -0.0042(4) -0.0073(4)
O1 0.0174(5) 0.0150(5) 0.0231(5) -0.0104(4) -0.0034(4) 0.0011(4)
O2 0.0146(5) 0.0225(5) 0.0232(5) -0.0111(4) -0.0005(4) -0.0027(4)
N1 0.0157(6) 0.0188(6) 0.0160(6) -0.0080(5) -0.0014(5) 0.0026(5)
C1 0.0167(7) 0.0181(7) 0.0208(7) -0.0092(6) -0.0026(5) 0.0003(5)
C2 0.0241(8) 0.0278(8) 0.0195(7) -0.0127(6) -0.0023(6) -0.0041(6)
C3 0.0201(7) 0.0238(8) 0.0168(7) -0.0062(6) -0.0006(6) -0.0025(6)
C4 0.0251(8) 0.0232(8) 0.0202(7) -0.0056(6) -0.0020(6) -0.0096(6)
C5 0.0181(7) 0.0167(7) 0.0188(7) -0.0081(6) -0.0027(5) -0.0019(5)
C6 0.0168(7) 0.0119(6) 0.0149(6) -0.0054(5) -0.0029(5) 0.0003(5)
C7 0.0173(7) 0.0197(7) 0.0174(7) -0.0101(6) 0.0013(5) -0.0023(6)
C8 0.0171(7) 0.0191(7) 0.0208(7) -0.0095(6) -0.0011(6) -0.0028(5)
C9 0.0203(7) 0.0119(6) 0.0166(7) -0.0061(5) -0.0041(5) 0.0002(5)
C10 0.0199(7) 0.0203(7) 0.0172(7) -0.0100(6) 0.0003(6) 0.0002(6)
C11 0.0155(7) 0.0188(7) 0.0194(7) -0.0086(6) 0.0007(5) -0.0016(5)
C12 0.0234(8) 0.0177(7) 0.0196(7) -0.0095(6) -0.0032(6) -0.0011(6)
loop_
_atom_type_symbol
_atom_type_description
_atom_type_scat_dispersion_real
_atom_type_scat_dispersion_imag
_atom_type_scat_source
C C 0.0033 0.0016 'International Tables Vol C Tables 4.2.6.8 and 6.1.1.4'
H H 0.0000 0.0000 'International Tables Vol C Tables 4.2.6.8 and 6.1.1.4'
N N 0.0061 0.0033 'International Tables Vol C Tables 4.2.6.8 and 6.1.1.4'
O O 0.0106 0.0060 'International Tables Vol C Tables 4.2.6.8 and 6.1.1.4'
F F 0.0171 0.0103 'International Tables Vol C Tables 4.2.6.8 and 6.1.1.4'
S S 0.1246 0.1234 'International Tables Vol C Tables 4.2.6.8 and 6.1.1.4'
Br Br -0.2901 2.4595 'International Tables Vol C Tables 4.2.6.8 and 6.1.1.4'
loop_
_geom_angle_atom_site_label_1
_geom_angle_atom_site_label_2
_geom_angle_atom_site_label_3
_geom_angle
O2 S1 O1 119.52(7)
O2 S1 N1 108.97(7)
O1 S1 N1 106.19(7)
O2 S1 C6 106.78(7)
O1 S1 C6 107.83(7)
N1 S1 C6 106.97(7)
C5 N1 S1 119.89(10)
C5 N1 H1N 118.4(14)
S1 N1 H1N 113.5(15)
C2 C1 C5 104.20(13)
C2 C1 Br1 110.45(11)
C5 C1 Br1 107.92(10)
C2 C1 H1 111.3
C5 C1 H1 111.3
Br1 C1 H1 111.3
C1 C2 C3 103.54(12)
C1 C2 H2A 111.1
C3 C2 H2A 111.1
C1 C2 H2B 111.1
C3 C2 H2B 111.1
H2A C2 H2B 109.0
C2 C3 C4 105.36(13)
C2 C3 H3A 110.7
C4 C3 H3A 110.7
C2 C3 H3B 110.7
C4 C3 H3B 110.7
H3A C3 H3B 108.8
C3 C4 C5 106.42(12)
C3 C4 H4A 110.4
C5 C4 H4A 110.4
C3 C4 H4B 110.4
C5 C4 H4B 110.4
H4A C4 H4B 108.6
N1 C5 C1 107.15(12)
N1 C5 C4 110.84(13)
C1 C5 C4 104.95(12)
N1 C5 H5 111.2
C1 C5 H5 111.2
C4 C5 H5 111.2
C11 C6 C7 121.59(13)
C11 C6 S1 119.52(11)
C7 C6 S1 118.89(11)
C8 C7 C6 119.01(14)
C8 C7 H7 120.5
C6 C7 H7 120.5
C7 C8 C9 119.68(14)
C7 C8 H8 120.2
C9 C8 H8 120.2
C8 C9 C10 121.10(14)
C8 C9 C12 119.73(14)
C10 C9 C12 119.13(13)
C9 C10 C11 119.41(14)
C9 C10 H10 120.3
C11 C10 H10 120.3
C6 C11 C10 119.21(14)
C6 C11 H11 120.4
C10 C11 H11 120.4
F3 C12 F2 106.95(13)
F3 C12 F1 106.34(12)
F2 C12 F1 106.53(13)
F3 C12 C9 112.25(13)
F2 C12 C9 112.55(13)
F1 C12 C9 111.81(12)
loop_
_geom_bond_atom_site_label_1
_geom_bond_atom_site_label_2
_geom_bond_distance
Br1 C1 1.9756(15)
S1 O2 1.4333(11)
S1 O1 1.4412(11)
S1 N1 1.6126(13)
S1 C6 1.7773(14)
F1 C12 1.3424(18)
F2 C12 1.3405(19)
F3 C12 1.3398(18)
N1 C5 1.4861(19)
N1 H1N 0.83(2)
C1 C2 1.520(2)
C1 C5 1.534(2)
C1 H1 1.0000
C2 C3 1.529(2)
C2 H2A 0.9900
C2 H2B 0.9900
C3 C4 1.540(2)
C3 H3A 0.9900
C3 H3B 0.9900
C4 C5 1.548(2)
C4 H4A 0.9900
C4 H4B 0.9900
C5 H5 1.0000
C6 C11 1.388(2)
C6 C7 1.391(2)
C7 C8 1.390(2)
C7 H7 0.9500
C8 C9 1.390(2)
C8 H8 0.9500
C9 C10 1.390(2)
C9 C12 1.502(2)
C10 C11 1.393(2)
C10 H10 0.9500
C11 H11 0.9500
loop_
_geom_hbond_atom_site_label_D
_geom_hbond_atom_site_label_H
_geom_hbond_atom_site_label_A
_geom_hbond_distance_DH
_geom_hbond_distance_HA
_geom_hbond_distance_DA
_geom_hbond_angle_DHA
_geom_hbond_site_symmetry_A
N1 H1N O1 0.83(2) 2.15(2) 2.9435(17) 162(2) 2_665
