#------------------------------------------------------------------------------
#$Date: 2016-03-21 05:34:46 +0200 (Mon, 21 Mar 2016) $
#$Revision: 178485 $
#$URL: svn://www.crystallography.net/cod/cif/4/03/06/4030655.cif $
#------------------------------------------------------------------------------
#
# This file is available in the Crystallography Open Database (COD),
# http://www.crystallography.net/
#
# All data on this site have been placed in the public domain by the
# contributors.
#
data_4030655
loop_
_publ_author_name
'Iaroshenko, Viktor O.'
'Gevorgyan, Ashot'
'Mkrtchyan, Satenik'
'Arakelyan, Knar'
'Grigoryan, Tatevik'
'Yedoyan, Julietta'
'Villinger, Alexander'
'Langer, Peter'
_publ_section_title
;
 Transition-metal-catalyzed arylation of nitroimidazoles and further
 transformations of manipulable nitro group.
;
_journal_issue                   4
_journal_name_full               'The Journal of organic chemistry'
_journal_page_first              2103
_journal_page_last               2119
_journal_paper_doi               10.1021/jo5025927
_journal_volume                  80
_journal_year                    2015
_chemical_formula_moiety         'C17 H14 N4 O4'
_chemical_formula_sum            'C17 H14 N4 O4'
_chemical_formula_weight         338.32
_chemical_name_systematic
;
 ?
;
_space_group_crystal_system      monoclinic
_space_group_IT_number           7
_space_group_name_Hall           'P -2yac'
_space_group_name_H-M_alt        'P 1 n 1'
_symmetry_space_group_name_Hall  'P -2yac'
_symmetry_space_group_name_H-M   'P 1 n 1'
_atom_sites_solution_hydrogens   geom
_audit_creation_method           SHELXL-2013
_cell_angle_alpha                90
_cell_angle_beta                 117.226(2)
_cell_angle_gamma                90
_cell_formula_units_Z            2
_cell_length_a                   7.5869(4)
_cell_length_b                   14.3161(8)
_cell_length_c                   7.9651(4)
_cell_measurement_reflns_used    3020
_cell_measurement_temperature    173(2)
_cell_measurement_theta_max      31.27
_cell_measurement_theta_min      3.07
_cell_volume                     769.28(7)
_computing_cell_refinement       'Bruker Apex V7.51A'
_computing_data_collection       'Bruker Apex V7.51A'
_computing_data_reduction        'Bruker SAINT'
_computing_molecular_graphics    'ORTEP-3v2.01 (Farrugia, 1997)'
_computing_publication_material  SHELXL-2013
_computing_structure_refinement  'SHELXL-2013 (Sheldrick, 2013)'
_computing_structure_solution    'SHELXS-2013 (Sheldrick, 2013)'
_diffrn_ambient_temperature      173(2)
_diffrn_measured_fraction_theta_full 0.999
_diffrn_measured_fraction_theta_max 1.000
_diffrn_measurement_device_type  'Bruker-Nonius Apex X8-CCD-diffractometer'
_diffrn_measurement_method       'phi and omega scans'
_diffrn_radiation_monochromator  graphite
_diffrn_radiation_source         'sealed tube'
_diffrn_radiation_type           MoK\a
_diffrn_radiation_wavelength     0.71073
_diffrn_reflns_av_R_equivalents  0.0277
_diffrn_reflns_av_unetI/netI     0.0479
_diffrn_reflns_Laue_measured_fraction_full 0.999
_diffrn_reflns_Laue_measured_fraction_max 1.000
_diffrn_reflns_limit_h_max       10
_diffrn_reflns_limit_h_min       -11
_diffrn_reflns_limit_k_max       18
_diffrn_reflns_limit_k_min       -21
_diffrn_reflns_limit_l_max       11
_diffrn_reflns_limit_l_min       -12
_diffrn_reflns_number            11098
_diffrn_reflns_point_group_measured_fraction_full 0.946
_diffrn_reflns_point_group_measured_fraction_max 0.889
_diffrn_reflns_theta_full        25.242
_diffrn_reflns_theta_max         32.492
_diffrn_reflns_theta_min         1.422
_exptl_absorpt_coefficient_mu    0.107
_exptl_absorpt_correction_T_max  0.7464
_exptl_absorpt_correction_T_min  0.6786
_exptl_absorpt_correction_type   multi-scan
_exptl_absorpt_process_details   '(SADABS; Sheldrick, 2004)'
_exptl_crystal_colour            colourless
_exptl_crystal_density_diffrn    1.461
_exptl_crystal_description       block
_exptl_crystal_F_000             352
_exptl_crystal_size_max          0.380
_exptl_crystal_size_mid          0.180
_exptl_crystal_size_min          0.130
_refine_diff_density_max         0.263
_refine_diff_density_min         -0.276
_refine_diff_density_rms         0.046
_refine_ls_abs_structure_details
;
 Flack x determined using 1382 quotients [(I+)-(I-)]/[(I+)+(I-)]
 (Parsons and Flack (2004), Acta Cryst. A60, s61).
;
_refine_ls_abs_structure_Flack   -0.4(5)
_refine_ls_extinction_method     none
_refine_ls_goodness_of_fit_ref   1.037
_refine_ls_hydrogen_treatment    constr
_refine_ls_matrix_type           full
_refine_ls_number_parameters     226
_refine_ls_number_reflns         4956
_refine_ls_number_restraints     2
_refine_ls_restrained_S_all      1.037
_refine_ls_R_factor_all          0.0669
_refine_ls_R_factor_gt           0.0454
_refine_ls_shift/su_max          0.000
_refine_ls_shift/su_mean         0.000
_refine_ls_structure_factor_coef Fsqd
_refine_ls_weighting_details
'w=1/[\s^2^(Fo^2^)+(0.0451P)^2^+0.0659P] where P=(Fo^2^+2Fc^2^)/3'
_refine_ls_weighting_scheme      calc
_refine_ls_wR_factor_gt          0.0919
_refine_ls_wR_factor_ref         0.1051
_reflns_Friedel_coverage         0.771
_reflns_Friedel_fraction_full    0.893
_reflns_Friedel_fraction_max     0.777
_reflns_number_gt                3888
_reflns_number_total             4956
_reflns_threshold_expression     'I > 2\s(I)'
_cod_data_source_file            7c-is_sm786.cif
_cod_data_source_block           is_sm786
_cod_depositor_comments
'Adding full bibliography for 4030648--4030655.cif.'
_cod_database_code               4030655
#BEGIN Tags that were not found in dictionaries:
_shelx_space_group_comment
;
The symmetry employed for this shelxl refinement is uniquely defined
by the following loop, which should always be used as a source of
symmetry information in preference to the above space-group names.
They are only intended as comments.
;
_shelx_estimated_absorpt_t_min   0.960
_shelx_estimated_absorpt_t_max   0.986
_shelxl_version_number           2013-4
_shelx_res_file
;
TITL sm786 in Pn
CELL  0.71073   7.5869  14.3161   7.9651   90.000  117.226   90.000
ZERR     2.00   0.0004   0.0008   0.0004    0.000    0.002    0.000
LATT  -1
SYMM  1/2 + X, - Y, 1/2 + Z
SFAC  C    H    N    O
UNIT  34   28   8    8
MERG   2
OMIT    -3.00  65.00
OMIT     0   2   0
OMIT     1   1   0
FMAP   2
PLAN   10
SIZE     0.130   0.180   0.380
ACTA
BOND   $H
CONF
LIST   4
L.S.   8
TEMP  -100.00
WGHT    0.045100    0.065900
FVAR       0.27360
N1    3    0.589101    0.064624   -0.384638    11.00000    0.03345    0.01916 =
         0.02238   -0.00102    0.00526   -0.00007
N2    3    0.772456    0.151100   -0.131542    11.00000    0.02625    0.01964 =
         0.01829    0.00107    0.00556    0.00153
N3    3    0.464520    0.181946   -0.625745    11.00000    0.02529    0.02630 =
         0.01904    0.00159    0.00541   -0.00098
N4    3    0.840209    0.508409   -0.505375    11.00000    0.03968    0.03368 =
         0.02957    0.00738    0.01562   -0.00493
O1    4    0.405212    0.119128   -0.744044    11.00000    0.04318    0.03224 =
         0.01957   -0.00419    0.00547   -0.00486
O2    4    0.429073    0.264649   -0.665438    11.00000    0.04914    0.02415 =
         0.02859    0.00801    0.00314    0.00291
O3    4    0.822056    0.466223   -0.645390    11.00000    0.08287    0.05292 =
         0.03354   -0.00046    0.03504   -0.01711
O4    4    0.884102    0.590807   -0.478516    11.00000    0.09010    0.03004 =
         0.06183    0.00670    0.04647   -0.01153
C1    1    0.706332    0.064180   -0.202378    11.00000    0.03381    0.01670 =
         0.02221    0.00138    0.00398    0.00096
AFIX  43
H1    2    0.741533    0.009122   -0.127509    11.00000   -1.20000
AFIX   0
C2    1    0.691461    0.213440   -0.279022    11.00000    0.02250    0.01831 =
         0.01773    0.00028    0.00752    0.00134
C3    1    0.579984    0.156361   -0.432381    11.00000    0.02431    0.01931 =
         0.01835    0.00097    0.00561    0.00130
C4    1    0.919991    0.166532    0.065777    11.00000    0.02511    0.02430 =
         0.01644   -0.00062    0.00347   -0.00007
AFIX  23
H4A   2    0.975959    0.230162    0.079134    11.00000   -1.20000
H4B   2    1.029679    0.121160    0.100651    11.00000   -1.20000
AFIX   0
C5    1    0.827359    0.155462    0.198843    11.00000    0.02954    0.03841 =
         0.02033    0.00108    0.00753   -0.00530
AFIX  23
H5A   2    0.718504    0.201311    0.163936    11.00000   -1.20000
H5B   2    0.769359    0.092161    0.183077    11.00000   -1.20000
AFIX   0
C6    1    0.975018    0.169540    0.403283    11.00000    0.02668    0.03278 =
         0.01965    0.00040    0.01038    0.00282
C7    1    1.081455    0.252671    0.463797    11.00000    0.03119    0.03868 =
         0.02265   -0.00351    0.01116   -0.00083
AFIX  43
H7    2    1.066358    0.299458    0.373609    11.00000   -1.20000
AFIX   0
C8    1    1.208792    0.268407    0.652824    11.00000    0.03370    0.05515 =
         0.02670   -0.01250    0.01166   -0.00350
AFIX  43
H8    2    1.280265    0.325435    0.691349    11.00000   -1.20000
AFIX   0
C9    1    1.231549    0.200477    0.785791    11.00000    0.03114    0.07333 =
         0.01948   -0.00831    0.00623    0.00994
AFIX  43
H9    2    1.317060    0.211292    0.915802    11.00000   -1.20000
AFIX   0
C10   1    1.129257    0.117012    0.728248    11.00000    0.04317    0.05780 =
         0.02487    0.01108    0.01452    0.01911
AFIX  43
H10   2    1.145550    0.070250    0.818841    11.00000   -1.20000
AFIX   0
C11   1    1.002192    0.101326    0.537464    11.00000    0.04070    0.03548 =
         0.02532    0.00315    0.01513    0.00552
AFIX  43
H11   2    0.933646    0.043563    0.498869    11.00000   -1.20000
AFIX   0
C12   1    0.730160    0.314666   -0.256700    11.00000    0.02172    0.01843 =
         0.02079   -0.00026    0.00806    0.00059
C13   1    0.770597    0.362659   -0.387196    11.00000    0.02510    0.02344 =
         0.01962   -0.00183    0.00989   -0.00103
AFIX  43
H13   2    0.773620    0.330857   -0.490528    11.00000   -1.20000
AFIX   0
C14   1    0.806256    0.457648   -0.363029    11.00000    0.02697    0.02454 =
         0.02117    0.00387    0.00909   -0.00178
C15   1    0.808386    0.507171   -0.213257    11.00000    0.03364    0.01921 =
         0.02666   -0.00106    0.01078   -0.00354
AFIX  43
H15   2    0.835800    0.572253   -0.199581    11.00000   -1.20000
AFIX   0
C16   1    0.769279    0.458740   -0.084228    11.00000    0.04202    0.02353 =
         0.02646   -0.00557    0.01636   -0.00257
AFIX  43
H16   2    0.770674    0.490682    0.020917    11.00000   -1.20000
AFIX   0
C17   1    0.727876    0.363691   -0.106632    11.00000    0.03334    0.02269 =
         0.02346    0.00065    0.01533   -0.00002
AFIX  43
H17   2    0.697625    0.331731   -0.018479    11.00000   -1.20000
AFIX   0
HKLF    4

REM  sm786 in Pn
REM R1 =  0.0454 for    3888 Fo > 4sig(Fo)  and  0.0669 for all    4956 data
REM    226 parameters refined using      2 restraints

END

WGHT      0.0451      0.0659

REM Highest difference peak  0.263,  deepest hole -0.276,  1-sigma level  0.046
Q1    1   0.8342  0.1702 -0.0382  11.00000  0.05    0.26
Q2    1   1.0005  0.1169  0.4337  11.00000  0.05    0.24
Q3    1   0.7876  0.4799 -0.1660  11.00000  0.05    0.23
Q4    1   0.7363  0.4128 -0.1216  11.00000  0.05    0.23
Q5    1   0.7709  0.5021 -0.3170  11.00000  0.05    0.21
Q6    1   0.7741  0.6135 -0.4988  11.00000  0.05    0.20
Q7    1   0.8994  0.1746  0.2984  11.00000  0.05    0.20
Q8    1   0.7270  0.3551 -0.3260  11.00000  0.05    0.20
Q9    1   0.9871  0.2143  0.4420  11.00000  0.05    0.19
Q10   1   1.1284  0.2555  0.5643  11.00000  0.05    0.19
;
_shelx_res_checksum              92670
_shelx_hkl_file
;
  -1   0   0   -0.18    0.04
  -1   0   0   -0.20    0.04
  -2   0   0  274.21    6.16
  -2   0   0  267.81    5.63
   2   0   0  281.55    6.16
   2   0   0  275.37    5.61
  -3   0   0   -0.03    0.09
   3   0   0   -0.06    0.06
  -3   0   0   -0.02    0.08
  -4   0   0   13.31    0.47
   4   0   0   14.45    0.49
  -4   0   0   13.66    0.51
  -5   0   0    0.06    0.07
  -5   0   0   -0.06    0.06
  -5   0   0    0.02    0.15
   5   0   0   -0.04    0.08
  -5   0   0    0.02    0.12
  -6   0   0    9.95    0.51
  -6   0   0   10.22    0.38
  -6   0   0   10.48    0.37
  -6   0   0    9.34    0.49
  -7   0   0   -0.27    0.16
  -7   0   0    0.20    0.12
  -7   0   0    0.05    0.11
  -7   0   0    0.10    0.15
  -8   0   0    6.23    0.48
  -8   0   0    5.59    0.35
  -8   0   0    4.41    0.43
  -9   0   0   -0.19    0.18
  -9   0   0    0.13    0.16
 -10   0   0    0.96    0.28
 -10   0   0    0.92    0.30
   0  -1   0    0.00    0.01
   0   1   0    0.00    0.00
   1  -1   0   42.39    1.19
  -1  -1   0   56.91    1.14
  -1   1   0   44.34    1.12
  -1   1   0   55.67    1.12
  -1   1   0   48.61    1.19
  -1   1   0   54.52    1.10
   2  -1   0  344.61    7.52
   2  -1   0  340.23    6.86
  -2  -1   0  347.86    7.52
  -2  -1   0  331.96    6.84
  -2   1   0  329.82    7.16
  -2   1   0  349.48    6.87
  -2   1   0  328.19    7.50
   2   1   0  291.92    7.47
  -2   1   0  346.20    7.30
  -3  -1   0   78.90    1.71
   3  -1   0   79.08    1.94
  -3  -1   0   79.06    1.89
  -3   1   0   78.78    1.94
  -3   1   0   79.67    1.77
  -3   1   0   78.43    1.76
  -3   1   0   77.79    1.76
   3   1   0   81.30    1.87
   4  -1   0   28.82    0.86
  -4  -1   0   28.48    0.82
  -4  -1   0   28.11    0.75
  -4   1   0   27.68    0.71
  -4   1   0   28.35    0.71
  -4   1   0   28.66    0.80
  -4   1   0   28.25    0.87
   4   1   0   28.33    0.78
   5  -1   0    6.44    0.35
  -5  -1   0    6.24    0.35
  -5  -1   0    6.83    0.35
   5   1   0    6.26    0.29
  -5   1   0    6.99    0.40
  -5   1   0    6.84    0.29
  -5   1   0    6.49    0.38
  -5   1   0    6.23    0.27
  -6  -1   0    1.95    0.15
  -6  -1   0    2.00    0.25
   6  -1   0    1.98    0.24
  -6  -1   0    2.22    0.28
  -6  -1   0    2.34    0.14
  -6   1   0    2.15    0.29
  -6   1   0    2.07    0.20
  -6   1   0    2.21    0.28
  -6   1   0    2.26    0.21
  -7  -1   0    0.43    0.19
  -7  -1   0    0.49    0.19
  -7  -1   0    0.50    0.13
  -7  -1   0    0.58    0.13
  -7   1   0    0.34    0.15
  -7   1   0    0.64    0.23
  -7   1   0    0.60    0.20
  -7   1   0    0.51    0.15
  -8  -1   0    0.26    0.14
  -8  -1   0    0.55    0.22
  -8  -1   0    0.39    0.14
  -8  -1   0    0.48    0.21
  -8   1   0    0.74    0.19
  -8   1   0    0.54    0.24
  -8   1   0    0.33    0.22
  -9  -1   0    0.84    0.26
  -9  -1   0    0.39    0.22
  -9  -1   0   -0.05    0.13
  -9   1   0    0.60    0.27
  -9   1   0    0.54    0.19
 -10  -1   0    0.41    0.19
 -10  -1   0    0.11    0.23
 -10   1   0    0.74    0.28
   0   2   0   -0.05    0.02
   1  -2   0    9.57    0.32
  -1   2   0    9.01    0.28
  -1   2   0    9.33    0.26
   2  -2   0   76.89    1.88
  -2  -2   0   78.95    1.76
   2  -2   0   75.75    1.70
  -2   2   0   77.09    1.73
  -2   2   0   80.40    1.75
  -2   2   0   76.01    1.70
  -2   2   0   75.39    1.86
  -3  -2   0   25.69    0.61
   3  -2   0   27.25    0.80
   3  -2   0   25.54    0.70
  -3  -2   0   26.55    0.69
  -3   2   0   25.11    0.66
  -3   2   0   26.71    0.72
  -3   2   0   26.70    0.69
  -3   2   0   25.53    0.78
  -4  -2   0   74.56    1.67
   4  -2   0   75.84    1.95
  -4  -2   0   75.83    1.84
  -4   2   0   77.31    1.77
  -4   2   0   76.47    1.79
  -4   2   0   75.65    1.76
  -4   2   0   74.08    1.95
  -5  -2   0    3.16    0.25
  -5  -2   0    3.32    0.25
   5  -2   0    3.76    0.29
  -5   2   0    3.45    0.25
  -5   2   0    4.16    0.34
  -5   2   0    3.37    0.33
  -5   2   0    3.46    0.23
  -6  -2   0    8.33    0.43
  -6  -2   0    8.78    0.43
   6  -2   0    8.80    0.46
  -6   2   0    9.58    0.50
  -6   2   0    8.40    0.49
  -6   2   0    8.03    0.41
  -6   2   0    9.08    0.39
  -7  -2   0    3.24    0.18
  -7  -2   0    2.83    0.32
  -7  -2   0    2.87    0.18
  -7  -2   0    3.46    0.33
  -7   2   0    3.77    0.42
  -7   2   0    3.56    0.37
  -7   2   0    2.34    0.26
  -8  -2   0    0.76    0.15
  -8  -2   0    1.13    0.17
  -8  -2   0    0.85    0.23
  -8  -2   0    0.96    0.24
  -8   2   0    0.55    0.24
  -8   2   0    1.06    0.22
  -9  -2   0    1.99    0.33
  -9  -2   0    2.70    0.37
  -9  -2   0    2.12    0.26
  -9   2   0    2.52    0.34
  -9   2   0    2.50    0.41
 -10  -2   0    0.00    0.16
 -10   2   0    0.34    0.25
   0  -3   0  661.18   14.91
   0   3   0  655.65   14.87
  -1  -3   0  127.26    2.75
   1  -3   0  122.78    2.87
  -1   3   0  121.95    2.61
  -1   3   0  122.21    2.86
  -2  -3   0  116.81    2.57
   2  -3   0  113.15    2.50
  -2  -3   0  117.69    2.57
   2  -3   0  111.67    2.75
  -2   3   0  116.75    2.50
  -2   3   0  117.07    2.75
  -2   3   0  116.22    2.57
  -3  -3   0   12.42    0.35
   3  -3   0   11.68    0.43
   3  -3   0   11.77    0.48
  -3  -3   0   11.77    0.28
  -3   3   0   11.27    0.40
  -3   3   0   12.57    0.49
  -3   3   0   12.45    0.45
  -3   3   0   12.39    0.39
  -4  -3   0   11.93    0.40
   4  -3   0   11.19    0.50
  -4  -3   0   11.80    0.36
  -4   3   0   11.63    0.49
  -4   3   0   11.71    0.41
  -4   3   0   11.13    0.51
  -4   3   0   11.65    0.43
   5  -3   0   24.34    0.87
  -5  -3   0   25.67    0.71
  -5  -3   0   25.67    0.77
  -5   3   0   26.72    0.92
  -5   3   0   26.18    0.84
  -5   3   0   26.27    0.76
  -5   3   0   24.58    0.78
   6  -3   0   13.20    0.60
  -6  -3   0   12.51    0.51
  -6  -3   0   11.71    0.48
  -6   3   0   13.00    0.64
  -6   3   0   12.68    0.50
  -6   3   0   11.85    0.59
  -7  -3   0    1.32    0.22
  -7  -3   0    1.41    0.23
  -7   3   0    1.61    0.24
  -7   3   0    1.66    0.31
  -7   3   0    1.94    0.31
  -8  -3   0    2.07    0.31
  -8  -3   0    1.69    0.27
  -8  -3   0    1.81    0.18
  -8  -3   0    1.81    0.17
  -8   3   0    2.02    0.28
  -8   3   0    2.32    0.38
  -9  -3   0    0.50    0.16
  -9  -3   0    0.41    0.20
  -9  -3   0    0.35    0.21
  -9  -3   0    0.58    0.16
  -9   3   0    0.40    0.24
 -10  -3   0    0.32    0.16
 -10   3   0    0.11    0.25
   0  -4   0   10.82    0.35
   0   4   0   10.52    0.34
  -1  -4   0    6.81    0.21
   1  -4   0    6.93    0.30
   1  -4   0    6.85    0.25
  -1   4   0    6.87    0.29
  -1   4   0    6.32    0.27
   2  -4   0   14.12    0.51
   2  -4   0   14.03    0.46
  -2   4   0   14.18    0.42
  -2   4   0   13.60    0.46
  -2   4   0   13.33    0.49
   3  -4   0   13.27    0.55
  -3  -4   0   14.58    0.38
  -3  -4   0   14.72    0.38
   3  -4   0   15.14    0.51
  -3   4   0   13.98    0.45
  -3   4   0   14.33    0.55
  -3   4   0   14.79    0.52
  -4  -4   0    1.94    0.14
   4  -4   0    2.10    0.27
  -4  -4   0    2.35    0.14
  -4   4   0    2.09    0.26
  -4   4   0    1.97    0.18
  -4   4   0    2.10    0.21
  -4   4   0    2.25    0.25
  -5  -4   0    3.35    0.23
   5  -4   0    2.93    0.33
  -5  -4   0    3.31    0.21
  -5   4   0    3.52    0.25
  -5   4   0    2.73    0.31
  -5   4   0    3.62    0.27
  -5   4   0    3.35    0.36
  -6  -4   0    2.53    0.23
  -6  -4   0    2.79    0.25
   6  -4   0    2.38    0.31
  -6   4   0    3.05    0.28
  -6   4   0    2.52    0.36
  -6   4   0    2.29    0.32
  -7  -4   0    5.31    0.37
   7  -4   0    4.61    0.45
  -7  -4   0    5.17    0.34
  -7   4   0    5.20    0.37
  -7   4   0    5.73    0.45
  -8  -4   0    4.16    0.36
  -8  -4   0    4.37    0.39
  -8   4   0    3.81    0.49
  -9  -4   0    1.46    0.19
  -9  -4   0    1.29    0.18
  -9  -4   0    1.50    0.27
  -9   4   0    2.03    0.41
 -10  -4   0    0.04    0.15
 -10   4   0   -0.11    0.23
   0  -5   0   42.07    0.98
   0  -5   0   42.61    1.09
   0   5   0   43.72    1.08
  -1  -5   0   24.13    0.63
   1  -5   0   24.57    0.64
   1  -5   0   24.35    0.73
   1  -5   0   24.64    0.66
  -1   5   0   23.76    0.71
  -2  -5   0    3.49    0.11
   2  -5   0    3.21    0.21
   2  -5   0    3.54    0.25
  -2  -5   0    3.35    0.11
   2  -5   0    3.36    0.26
  -2   5   0    3.30    0.24
  -2   5   0    3.59    0.25
   3  -5   0    0.37    0.14
   3  -5   0    0.28    0.13
  -3   5   0    0.18    0.08
  -3   5   0    0.16    0.13
  -3   5   0    0.33    0.14
  -4  -5   0   13.73    0.39
  -4  -5   0   13.64    0.39
   4  -5   0   12.64    0.60
  -4   5   0   13.37    0.48
  -4   5   0   13.88    0.61
  -4   5   0   13.53    0.57
  -5  -5   0    8.29    0.31
  -5  -5   0    8.70    0.32
   5  -5   0    8.75    0.50
  -5   5   0    8.64    0.40
  -5   5   0    9.34    0.54
  -5   5   0    9.96    0.52
   6  -5   0    0.04    0.12
  -6  -5   0    0.21    0.11
  -6  -5   0    0.06    0.12
  -6   5   0    0.08    0.19
  -6   5   0    0.36    0.21
  -6   5   0    0.13    0.12
  -7  -5   0    1.02    0.20
   7  -5   0    1.17    0.26
  -7  -5   0    1.21    0.19
  -7   5   0    1.13    0.28
  -8  -5   0    0.11    0.17
  -8   5   0   -0.47    0.16
  -9  -5   0   -0.10    0.08
  -9  -5   0   -0.03    0.10
  -9   5   0   -0.12    0.23
   0  -6   0   25.83    0.74
   0  -6   0   24.64    0.58
   0  -6   0   25.31    0.66
   0  -6   0   25.47    0.58
   0   6   0   26.83    0.72
  -1  -6   0   14.87    0.44
   1  -6   0   14.20    0.48
   1  -6   0   14.48    0.53
   1  -6   0   14.95    0.44
  -1   6   0   14.40    0.51
   2  -6   0   58.01    1.54
  -2  -6   0   56.63    1.30
  -2  -6   0   54.81    1.30
   2  -6   0   56.52    1.37
  -2   6   0   54.95    1.50
  -2   6   0   54.57    1.35
   3  -6   0   31.14    1.02
   3  -6   0   32.28    0.93
  -3   6   0   31.44    1.01
  -3   6   0   32.35    0.92
   4  -6   0   17.98    0.73
  -4  -6   0   17.20    0.44
   4  -6   0   17.63    0.66
  -4  -6   0   17.51    0.44
  -4   6   0   17.85    0.59
  -4   6   0   16.58    0.66
  -4   6   0   17.84    0.73
  -5  -6   0   11.79    0.35
  -5  -6   0   12.18    0.38
   5  -6   0   12.29    0.63
  -5   6   0   13.20    0.61
  -5   6   0   12.31    0.50
  -5   6   0   11.89    0.62
  -6  -6   0    5.47    0.28
  -6  -6   0    5.36    0.25
   6  -6   0    4.78    0.48
  -6   6   0    4.93    0.50
   7  -6   0    0.23    0.19
  -7  -6   0    0.01    0.13
  -7   6   0   -0.02    0.21
  -8  -6   0   -0.03    0.15
  -8   6   0    0.34    0.25
  -9   6   0    0.34    0.25
   0  -7   0    0.26    0.11
   0  -7   0    0.53    0.12
   0  -7   0    0.34    0.06
   0  -7   0    0.31    0.05
   0   7   0    0.62    0.11
   1  -7   0  147.40    3.25
   1  -7   0  148.88    3.58
   1  -7   0  152.37    3.34
  -1  -7   0  150.94    3.46
   1  -7   0  150.56    3.35
  -1   7   0  150.33    3.56
   1   7   0  149.03    3.41
  -2  -7   0   43.30    1.06
   2  -7   0   43.26    1.12
   2  -7   0   43.73    1.28
  -2   7   0   44.29    1.26
   3  -7   0   17.73    0.72
   3  -7   0   18.82    0.67
  -3   7   0   18.00    0.71
  -3   7   0   18.42    0.65
   4  -7   0    5.60    0.43
   4  -7   0    5.72    0.42
  -4   7   0    4.79    0.38
  -4   7   0    4.78    0.38
  -5  -7   0    1.58    0.09
   5  -7   0    1.82    0.31
  -5   7   0    1.44    0.28
   6  -7   0    1.69    0.30
  -6  -7   0    1.72    0.16
  -6   7   0    1.85    0.33
   7  -7   0    1.09    0.26
  -7  -7   0    1.21    0.17
  -7   7   0    1.54    0.33
  -8  -7   0    0.61    0.17
  -8   7   0    1.55    0.37
  -9   7   0    1.57    0.42
   0  -8   0    1.56    0.10
   0  -8   0    1.38    0.17
   0  -8   0    1.68    0.20
   0  -8   0    1.49    0.11
   0   8   0    1.79    0.19
  -1  -8   0   18.38    0.57
   1  -8   0   18.22    0.54
   1  -8   0   17.27    0.59
   1  -8   0   17.87    0.55
   1  -8   0   18.49    0.67
  -1   8   0   17.25    0.62
   1   8   0   17.62    0.51
   2  -8   0    8.57    0.42
   2  -8   0    8.15    0.45
   2  -8   0    8.07    0.36
  -2  -8   0    7.82    0.30
  -2   8   0    7.66    0.43
  -3  -8   0    7.26    0.22
   3  -8   0    7.74    0.44
   3  -8   0    7.31    0.46
  -3  -8   0    7.39    0.23
  -3   8   0    7.55    0.45
   4  -8   0    8.44    0.47
   4  -8   0    6.72    0.49
  -4   8   0    7.48    0.48
   5  -8   0    1.83    0.32
  -5   8   0    1.71    0.32
  -6  -8   0    0.03    0.08
   6  -8   0    0.08    0.15
  -6   8   0   -0.32    0.15
  -7  -8   0    0.29    0.12
   7  -8   0    0.13    0.18
  -7   8   0    0.32    0.24
  -8  -8   0    1.68    0.21
  -8   8   0    1.95    0.42
  -9   8   0    0.16    0.26
   0  -9   0   31.72    0.79
   0  -9   0   31.64    0.97
   0  -9   0   32.69    0.80
   0  -9   0   33.01    0.88
   0   9   0   32.95    0.93
   1  -9   0   16.94    0.53
  -1  -9   0   16.95    0.51
   1  -9   0   17.29    0.61
  -1  -9   0   16.57    0.57
   1  -9   0   17.64    0.68
   1  -9   0   16.38    0.54
   1   9   0   16.63    0.50
  -1   9   0   16.59    0.62
   2  -9   0    5.27    0.31
  -2  -9   0    5.66    0.26
   2  -9   0    5.70    0.39
   2  -9   0    5.86    0.39
  -2   9   0    5.67    0.36
   3  -9   0   20.23    0.75
  -3  -9   0   19.89    0.54
   3  -9   0   20.35    0.84
  -3   9   0   20.41    0.81
   4  -9   0    0.94    0.25
  -4   9   0    0.70    0.24
   5  -9   0    4.16    0.46
  -5   9   0    4.09    0.46
   6  -9   0    1.59    0.33
  -6  -9   0    1.00    0.10
  -6   9   0    1.16    0.29
  -7  -9   0    1.36    0.15
   7  -9   0    0.62    0.23
  -7   9   0    0.84    0.31
   8  -9   0    3.51    0.50
  -8   9   0    3.12    0.52
  -9   9   0    0.71    0.31
   0 -10   0   11.46    0.52
   0 -10   0   12.06    0.38
   0 -10   0   12.47    0.39
   0 -10   0   11.34    0.48
   0  10   0   11.29    0.47
   1 -10   0   12.30    0.56
   1 -10   0   11.59    0.43
   1 -10   0   12.07    0.52
  -1 -10   0   12.06    0.48
  -1 -10   0   11.98    0.44
   1 -10   0   11.13    0.44
  -1  10   0   11.55    0.51
   1  10   0   11.64    0.40
   2 -10   0    2.56    0.32
   2 -10   0    2.85    0.32
   2 -10   0    2.86    0.27
  -2 -10   0    3.56    0.22
  -2  10   0    3.46    0.35
   3 -10   0    5.64    0.41
   3 -10   0    5.46    0.43
  -3 -10   0    5.32    0.23
  -3  10   0    5.18    0.40
   4 -10   0    4.59    0.48
  -4  10   0    4.41    0.46
   5 -10   0    1.15    0.31
  -5  10   0    1.51    0.31
   6 -10   0    6.70    0.54
  -6  10   0    5.83    0.61
  -7 -10   0    1.78    0.15
   7 -10   0    2.59    0.45
  -7  10   0    2.44    0.43
   8 -10   0    0.55    0.22
  -8  10   0    0.90    0.33
  -9  10   0    0.25    0.30
   0 -11   0    2.92    0.28
   0 -11   0    3.41    0.22
   0 -11   0    3.41    0.20
   0 -11   0    3.12    0.32
   0  11   0    3.67    0.26
  -1 -11   0   10.69    0.44
   1 -11   0   10.99    0.55
  -1 -11   0   10.16    0.46
   1 -11   0    9.85    0.43
   1 -11   0   10.97    0.52
   1  11   0   10.34    0.38
  -1  11   0   10.50    0.49
  -2 -11   0    2.10    0.20
   2 -11   0    2.07    0.33
  -2 -11   0    2.34    0.23
   2 -11   0    2.24    0.26
   2 -11   0    2.22    0.29
  -2  11   0    2.06    0.29
  -3 -11   0    3.55    0.20
   3 -11   0    3.34    0.41
  -3  11   0    3.63    0.40
   4 -11   0    8.50    0.59
  -4  11   0    9.09    0.58
   5 -11   0    1.26    0.31
  -5  11   0    0.87    0.26
   6 -11   0    3.22    0.47
  -6  11   0    3.29    0.46
   7 -11   0    0.31    0.23
  -7  11   0   -0.09    0.18
   8 -11   0    0.08    0.19
  -8  11   0   -0.07    0.21
   0 -12   0    3.44    0.22
   0 -12   0    3.44    0.25
   0 -12   0    3.61    0.33
   0 -12   0    3.77    0.37
   0  12   0    3.32    0.26
  -1 -12   0   12.74    0.51
   1 -12   0   13.60    0.59
   1 -12   0   12.29    0.51
  -1 -12   0   13.47    0.56
   1 -12   0   12.90    0.63
  -1  12   0   12.88    0.58
   2 -12   0   11.58    0.53
   2 -12   0   11.84    0.59
  -2 -12   0   11.98    0.45
   2 -12   0   12.44    0.65
  -2 -12   0   11.89    0.49
  -2  12   0   11.99    0.60
   3 -12   0    3.93    0.45
  -3 -12   0    4.34    0.25
  -3 -12   0    4.11    0.24
  -3  12   0    4.22    0.44
   4 -12   0    1.04    0.29
  -4  12   0    1.86    0.34
   5 -12   0    3.85    0.51
  -5  12   0    3.25    0.46
   6 -12   0    0.45    0.24
  -6  12   0    0.36    0.22
   7 -12   0    0.43    0.23
  -7  12   0    0.24    0.23
   8 -12   0    1.03    0.31
  -8  12   0    0.85    0.29
   0 -13   0    0.34    0.18
   0 -13   0    0.19    0.12
   0 -13   0    0.41    0.17
   0 -13   0    0.16    0.10
   0  13   0    0.11    0.11
  -1 -13   0   12.09    0.37
   1 -13   0   12.24    0.52
   1 -13   0   11.74    0.62
  -1 -13   0   13.24    0.54
   1 -13   0   12.64    0.59
  -1 -13   0   12.05    0.37
  -1 -13   0   12.76    0.57
  -1  13   0   12.11    0.58
   2 -13   0    7.92    0.45
  -2 -13   0    7.91    0.38
   2 -13   0    6.35    0.49
  -2 -13   0    7.51    0.40
  -2  13   0    7.14    0.47
  -3 -13   0    0.34    0.13
  -3 -13   0    0.18    0.11
   3 -13   0    0.40    0.23
  -3  13   0    0.29    0.20
   4 -13   0    6.55    0.63
  -4 -13   0    6.32    0.28
  -4  13   0    6.65    0.52
  -5 -13   0    0.11    0.07
   5 -13   0    0.01    0.18
  -5  13   0   -0.25    0.12
   6 -13   0    0.71    0.28
  -6  13   0    0.62    0.29
   7 -13   0   -0.11    0.19
  -7  13   0    0.42    0.24
   8 -13   0    0.38    0.21
  -8  13   0   -0.14    0.23
   0 -14   0   -0.02    0.16
   0 -14   0    0.00    0.11
   0 -14   0    0.03    0.17
   0 -14   0   -0.03    0.09
  -1 -14   0   30.90    1.05
  -1 -14   0   31.50    0.82
  -1 -14   0   31.49    0.97
  -1 -14   0   30.26    0.83
   1 -14   0   31.15    1.05
   1 -14   0   31.65    1.16
   1 -14   0   31.66    0.98
  -1  14   0   31.33    1.07
  -2 -14   0   10.07    0.47
   2 -14   0    9.97    0.63
  -2 -14   0   10.75    0.50
  -2  14   0   11.32    0.61
   3 -14   0    2.00    0.38
  -3 -14   0    1.77    0.20
  -3 -14   0    1.46    0.20
  -3  14   0    1.75    0.34
   4 -14   0    0.48    0.23
  -4 -14   0    0.44    0.12
  -4  14   0    0.05    0.17
  -5 -14   0    1.98    0.16
   5 -14   0    1.89    0.41
  -5  14   0    1.54    0.36
   6 -14   0    0.84    0.31
  -6  14   0    0.79    0.33
   7 -14   0   -0.12    0.18
  -7  14   0    0.30    0.25
   0 -15   0   -0.01    0.15
   0 -15   0    0.22    0.11
   0 -15   0    0.30    0.15
   0 -15   0    0.39    0.20
  -1 -15   0    0.22    0.18
   1 -15   0    0.22    0.19
   1 -15   0    0.49    0.17
  -1 -15   0    0.63    0.12
  -1 -15   0    0.45    0.13
  -1 -15   0    0.69    0.20
  -1  15   0    0.54    0.19
  -2 -15   0    1.45    0.24
   2 -15   0    1.48    0.33
  -2 -15   0    1.21    0.22
  -2  15   0    1.40    0.29
  -3 -15   0    2.85    0.29
  -3 -15   0    3.47    0.29
   3 -15   0    3.66    0.50
  -3  15   0    2.23    0.37
   4 -15   0    1.28    0.33
  -4 -15   0    1.24    0.18
  -4  15   0    1.50    0.33
   5 -15   0    0.48    0.29
  -5 -15   0    0.33    0.12
  -5  15   0    0.36    0.27
   6 -15   0    0.40    0.25
  -6  15   0    0.96    0.31
   7 -15   0    0.06    0.19
  -7  15   0   -0.01    0.18
   0 -16   0   -0.16    0.13
   0 -16   0    0.15    0.17
   1 -16   0    1.13    0.24
  -1 -16   0    1.18    0.25
  -1 -16   0    1.15    0.25
   1 -16   0    0.93    0.28
  -1 -16   0    1.02    0.19
  -1 -16   0    1.01    0.17
  -2 -16   0    0.72    0.20
  -2 -16   0    0.83    0.12
  -2 -16   0    1.10    0.12
   2 -16   0    1.47    0.35
  -2 -16   0    1.08    0.23
  -2  16   0    1.23    0.27
   3 -16   0    1.86    0.40
  -3 -16   0    2.02    0.25
  -3  16   0    2.71    0.41
  -4 -16   0    0.72    0.16
   4 -16   0    0.25    0.25
  -4  16   0    0.60    0.25
   5 -16   0    1.69    0.41
  -5 -16   0    1.66    0.19
  -5  16   0    1.88    0.38
   6 -16   0    0.63    0.31
  -6  16   0   -0.20    0.19
   0 -17   0    0.22    0.16
   0 -17   0    0.69    0.25
  -1 -17   0    4.30    0.42
  -1 -17   0    3.78    0.42
   1 -17   0    3.94    0.41
  -1 -17   0    3.65    0.33
   1 -17   0    3.13    0.46
  -1 -17   0    3.17    0.30
  -2 -17   0    0.93    0.23
  -2 -17   0    0.83    0.22
  -2 -17   0    1.12    0.14
   2 -17   0    0.88    0.31
  -2 -17   0    0.98    0.16
  -3 -17   0    2.15    0.28
   3 -17   0    1.94    0.41
  -3  17   0    2.27    0.39
   4 -17   0    0.79    0.30
  -4 -17   0    0.34    0.15
  -4  17   0    0.49    0.24
   5 -17   0    2.11    0.45
  -5 -17   0    1.82    0.21
  -5  17   0    2.09    0.41
   6 -17   0    0.28    0.25
  -6  17   0    0.31    0.23
   0 -18   0    1.17    0.29
   0 -18   0    0.60    0.21
   1 -18   0   -0.16    0.16
  -1 -18   0    0.13    0.15
  -1 -18   0    0.18    0.18
  -2 -18   0    1.51    0.22
   2 -18   0    1.25    0.33
  -2 -18   0    1.27    0.18
  -2 -18   0    0.98    0.24
  -2 -18   0    1.16    0.26
  -3 -18   0    0.84    0.11
   3 -18   0    0.73    0.31
  -3 -18   0    1.09    0.12
  -3 -18   0    0.72    0.22
  -4 -18   0    0.71    0.19
   4 -18   0    1.05    0.34
  -4  18   0    1.39    0.30
   5 -18   0    0.51    0.26
  -5  18   0    0.27    0.21
   0 -19   0    7.27    0.57
   0 -19   0    7.90    0.52
   1 -19   0    2.80    0.45
  -1 -19   0    2.60    0.39
  -1 -19   0    2.43    0.33
   2 -19   0    1.02    0.33
  -2 -19   0    1.24    0.29
  -2 -19   0    1.30    0.24
  -3 -19   0    3.88    0.40
  -3 -19   0    4.30    0.29
  -3 -19   0    4.47    0.26
   3 -19   0    3.94    0.59
   4 -19   0    0.96    0.33
  -4 -19   0    0.76    0.19
   0 -20   0    0.29    0.25
  -1 -20   0    9.52    0.63
  -1 -20   0    9.36    0.56
   1 -20   0    9.49    0.71
   2 -20   0    0.60    0.32
  -2 -20   0    0.81    0.23
  -3 -20   0    2.31    0.27
   3 -20   0    2.40    0.48
  -3 -20   0    2.33    0.25
   0 -21   0   11.03    0.74
  -1 -21   0    0.22    0.19
  -1 -21   0    0.18    0.18
   1 -21   0    0.70    0.30
  -2 -21   0    1.33    0.27
   2 -21   0    0.25    0.29
 -10   0   1   -0.09    0.14
 -10   0   1   -0.22    0.20
  -9   0   1    3.86    0.36
  -9   0   1    3.61    0.44
  -8   0   1   -0.14    0.14
  -8   0   1   -0.03    0.11
  -8   0   1   -0.11    0.13
  -7   0   1    4.76    0.30
  -7   0   1    5.34    0.29
  -7   0   1    4.89    0.40
  -7   0   1    4.75    0.38
  -6   0   1   -0.10    0.09
   6   0  -1    0.06    0.10
  -6   0   1   -0.05    0.08
  -6   0   1    0.05    0.16
  -6   0   1    0.00    0.14
  -5   0   1   21.98    0.68
  -5   0   1   21.78    0.55
  -5   0   1   21.15    0.72
   5   0  -1   21.90    0.70
  -5   0   1   21.50    0.56
  -4   0   1    0.12    0.11
  -4   0   1   -0.01    0.03
  -4   0   1    0.02    0.04
   4   0  -1   -0.05    0.06
  -4   0   1    0.17    0.09
  -3   0   1   41.87    0.98
   3   0  -1   42.89    1.08
  -3   0   1   42.45    1.09
   3   0  -1   41.57    0.96
   2   0  -1   -0.04    0.07
   2   0  -1    0.55    0.10
   2   0  -1   -0.05    0.07
  -2   0   1   -0.05    0.03
  -2   0   1   -0.06    0.03
  -2   0   1   -0.07    0.07
   1   0  -1  102.26    2.08
  -1   0   1   96.82    2.16
   0   0   1   -0.09    0.02
   0   0  -1   -0.08    0.01
   0   0  -1   -0.04    0.04
   0   0  -1   -0.12    0.03
   0   0  -1   -0.09    0.02
  -1   0  -1  201.18    4.21
  -1   0  -1  202.32    4.61
   1   0   1  211.24    4.61
   1   0   1  203.50    4.20
   2   0   1    0.12    0.07
   2   0   1    0.05    0.07
  -2   0  -1   -0.04    0.09
  -2   0  -1   -0.03    0.08
  -3   0  -1   12.46    0.47
   3   0   1   12.96    0.45
  -3   0  -1   13.04    0.44
  -4   0  -1    0.00    0.14
  -4   0  -1   -0.03    0.10
  -4   0  -1   -0.05    0.06
   4   0   1    0.03    0.08
  -4   0  -1    0.08    0.06
  -5   0  -1   48.42    1.26
  -5   0  -1   46.48    1.14
  -5   0  -1   45.80    1.35
   5   0   1   47.58    1.30
  -5   0  -1   46.88    1.13
  -6   0  -1   -0.03    0.09
  -6   0  -1    0.03    0.15
  -6   0  -1   -0.10    0.17
  -6   0  -1    0.02    0.10
  -7   0  -1    0.88    0.17
  -7   0  -1    1.04    0.25
  -7   0  -1    1.38    0.20
  -7   0  -1    1.12    0.26
  -8   0  -1   -0.22    0.18
  -8   0  -1   -0.13    0.12
  -8   0  -1    0.00    0.16
  -9   0  -1    1.17    0.29
  -9   0  -1    0.54    0.21
 -10  -1   1    1.75    0.35
 -10  -1   1    2.30    0.30
 -10   1   1    2.66    0.44
 -10   1   1    2.38    0.34
  -9  -1   1    0.40    0.22
  -9  -1   1    0.54    0.19
  -9   1   1    0.75    0.21
  -9   1   1    0.65    0.25
  -8  -1   1    5.68    0.35
  -8  -1   1    6.08    0.33
  -8  -1   1    5.99    0.44
  -8   1   1    5.81    0.54
  -8   1   1    6.09    0.37
  -7  -1   1    2.26    0.28
  -7  -1   1    2.51    0.20
  -7  -1   1    2.64    0.32
  -7  -1   1    2.46    0.20
  -7   1   1    2.61    0.24
  -7   1   1    2.40    0.25
  -7   1   1    2.27    0.32
  -7   1   1    2.31    0.30
  -6  -1   1    4.62    0.34
   6  -1  -1    4.37    0.31
  -6  -1   1    4.61    0.17
  -6  -1   1    4.47    0.18
  -6  -1   1    4.42    0.31
  -6   1   1    4.42    0.35
   6   1  -1    4.75    0.26
  -6   1   1    4.06    0.25
  -6   1   1    4.24    0.28
  -6   1   1    4.70    0.35
  -5  -1   1    1.00    0.17
   5  -1  -1    1.10    0.17
  -5  -1   1    0.51    0.15
  -5   1   1    0.38    0.16
  -5   1   1    0.66    0.13
  -5   1   1    0.84    0.18
  -5   1   1    0.68    0.11
   5   1  -1    0.76    0.13
  -4  -1   1   13.28    0.44
  -4  -1   1   14.09    0.48
   4  -1  -1   14.27    0.51
   4   1  -1   13.92    0.45
  -4   1   1   14.56    0.40
  -4   1   1   15.06    0.42
  -4   1   1   13.82    0.48
  -4   1   1   13.34    0.51
   3  -1  -1   13.91    0.41
  -3  -1   1   13.69    0.39
   3  -1  -1   13.64    0.47
  -3  -1   1   13.78    0.43
  -3   1   1   13.78    0.37
   3   1  -1   13.55    0.41
  -3   1   1   13.40    0.43
  -3   1   1   13.30    0.38
  -3   1   1   13.87    0.47
   2  -1  -1  928.24   20.20
  -2  -1   1 1000.00   21.96
  -2  -1   1  976.94   20.02
   2  -1  -1  990.21   22.02
   2   1  -1  989.20   21.82
  -2   1   1  942.22   21.94
  -2   1   1  971.51   21.05
   2   1  -1  974.94   19.86
   2   1  -1  975.48   19.91
  -2   1   1  995.47   21.05
  -1  -1   1   62.14    1.42
  -1  -1   1   62.66    1.29
   1  -1  -1   59.73    1.44
  -1   1   1   53.70    1.43
  -1   1   1   63.34    1.35
   1   1  -1   60.36    1.42
   1   1  -1   64.07    1.29
   0  -1   1  104.45    2.15
   0  -1  -1   92.00    2.24
   0   1  -1   98.31    2.14
   0   1  -1   99.02    2.06
  -1  -1  -1  123.42    2.63
  -1  -1  -1  124.87    2.88
   1  -1   1  124.27    2.67
   1  -1   1  131.63    2.94
  -1   1  -1  127.59    2.93
  -1   1  -1  126.58    2.76
  -1   1  -1  128.08    2.67
   1   1   1  125.77    2.60
   1   1   1  127.75    2.88
  -1   1  -1  128.99    2.76
  -2  -1  -1  108.94    2.36
   2  -1   1  112.74    2.40
  -2  -1  -1  112.69    2.60
   2  -1   1  112.50    2.65
  -2   1  -1  112.08    2.46
  -2   1  -1  111.78    2.42
  -2   1  -1  110.94    2.65
  -2   1  -1  110.08    2.45
   2   1   1  115.47    2.59
  -3  -1  -1   75.79    1.68
  -3  -1  -1   75.80    1.85
   3  -1   1   77.09    1.89
  -3   1  -1   75.51    1.73
  -3   1  -1   73.65    1.70
  -3   1  -1   73.79    1.89
   3   1   1   77.26    1.82
  -3   1  -1   74.26    1.70
  -4  -1  -1   20.19    0.62
   4  -1   1   19.58    0.67
  -4  -1  -1   19.25    0.65
  -4   1  -1   19.58    0.56
  -4   1  -1   19.12    0.69
  -4   1  -1   18.87    0.54
  -4   1  -1   19.94    0.66
   4   1   1   20.12    0.61
  -5  -1  -1   11.56    0.30
  -5  -1  -1   11.75    0.51
  -5  -1  -1   11.56    0.30
   5  -1   1   11.22    0.50
  -5  -1  -1   12.31    0.51
  -5   1  -1   11.16    0.41
  -5   1  -1   11.54    0.42
   5   1   1   11.63    0.44
  -5   1  -1   11.28    0.53
  -5   1  -1   11.70    0.55
  -6  -1  -1    6.56    0.29
  -6  -1  -1    6.72    0.42
  -6  -1  -1    6.52    0.27
  -6  -1  -1    6.82    0.43
  -6   1  -1    7.07    0.36
  -6   1  -1    7.30    0.46
  -6   1  -1    6.69    0.34
  -6   1  -1    7.37    0.48
  -7  -1  -1    3.07    0.26
  -7  -1  -1    3.56    0.25
  -7  -1  -1    3.23    0.37
  -7  -1  -1    3.20    0.35
  -7   1  -1    3.06    0.29
  -7   1  -1    3.48    0.42
  -7   1  -1    3.10    0.38
  -8  -1  -1    0.43    0.24
  -8  -1  -1    0.46    0.16
  -8  -1  -1    0.30    0.19
  -8   1  -1    0.26    0.21
  -8   1  -1    0.25    0.16
  -9  -1  -1    0.03    0.15
  -9  -1  -1    0.18    0.20
  -9   1  -1    0.23    0.23
  -9   1  -1    0.29    0.18
 -10  -2   1    0.53    0.19
 -10  -2   1    1.04    0.27
 -10   2   1    0.54    0.28
  -9  -2   1    1.14    0.20
  -9  -2   1    0.65    0.24
  -9   2   1    0.86    0.29
  -9   2   1    1.00    0.25
  -8  -2   1    3.30    0.23
  -8  -2   1    3.56    0.38
  -8  -2   1    3.50    0.24
  -8   2   1    3.84    0.35
  -8   2   1    3.19    0.41
   7  -2  -1    0.65    0.18
  -7  -2   1    0.88    0.09
  -7  -2   1    0.47    0.17
  -7  -2   1    0.77    0.20
  -7  -2   1    0.65    0.09
  -7   2   1    0.82    0.17
  -7   2   1    0.65    0.22
  -6  -2   1    0.70    0.17
  -6  -2   1    0.33    0.14
   6  -2  -1    0.71    0.18
  -6   2   1    0.55    0.20
  -6   2   1    0.24    0.12
  -6   2   1    0.57    0.20
  -6   2   1    0.47    0.13
   5  -2  -1    2.05    0.24
  -5  -2   1    1.98    0.20
  -5  -2   1    1.67    0.19
  -5   2   1    1.73    0.24
  -5   2   1    1.91    0.25
   5   2  -1    1.68    0.13
  -5   2   1    1.74    0.17
  -5   2   1    2.15    0.21
  -4  -2   1    2.38    0.17
   4  -2  -1    2.50    0.24
  -4  -2   1    2.49    0.18
  -4   2   1    2.55    0.23
  -4   2   1    2.37    0.16
  -4   2   1    2.20    0.24
  -4   2   1    2.22    0.19
   4   2  -1    2.37    0.14
  -3  -2   1   22.19    0.60
  -3  -2   1   21.87    0.54
   3  -2  -1   21.82    0.61
  -3  -2   1   21.73    0.53
   3  -2  -1   22.47    0.69
  -3   2   1   23.39    0.60
  -3   2   1   22.50    0.68
  -3   2   1   22.49    0.58
   2  -2  -1  357.88    7.39
   2  -2  -1  366.52    8.09
  -2  -2   1  363.02    7.36
  -2  -2   1  356.66    8.05
  -2   2   1  358.45    8.08
  -2   2   1  356.07    7.73
   1  -2  -1   45.49    1.13
  -1  -2   1   46.30    1.09
  -1  -2   1   45.89    0.99
   1  -2  -1   46.30    1.05
   1   2  -1   45.12    0.98
  -1   2   1   46.84    1.12
   1   2  -1   45.90    1.08
   0  -2   1   43.47    0.98
   0  -2   1   41.30    0.96
   0  -2  -1   43.80    1.03
   0   2  -1   42.29    0.96
   0   2   1   43.41    1.02
   0   2  -1   44.30    1.06
  -1  -2  -1  130.82    2.89
   1  -2   1  126.31    2.98
   1  -2   1  127.58    2.71
  -1   2  -1  127.58    2.72
  -1   2  -1  127.67    2.97
   2  -2   1    5.89    0.29
  -2  -2  -1    6.23    0.21
   2  -2   1    6.09    0.28
  -2  -2  -1    5.99    0.23
  -2   2  -1    6.26    0.30
  -2   2  -1    6.07    0.23
  -2   2  -1    5.61    0.29
  -2   2  -1    6.66    0.25
   3  -2   1   64.60    1.67
  -3  -2  -1   61.56    1.55
  -3  -2  -1   65.12    1.42
  -3   2  -1   64.78    1.50
   3   2   1   64.58    1.52
  -3   2  -1   61.32    1.66
  -3   2  -1   62.97    1.49
  -3   2  -1   64.96    1.52
  -4  -2  -1    8.26    0.36
  -4  -2  -1    7.85    0.35
   4  -2   1    8.33    0.41
  -4   2  -1    7.35    0.33
  -4   2  -1    8.78    0.44
   4   2   1    7.58    0.29
  -4   2  -1    7.89    0.42
  -4   2  -1    7.84    0.32
   5  -2   1    1.95    0.25
  -5  -2  -1    1.82    0.23
  -5  -2  -1    1.51    0.21
  -5   2  -1    1.51    0.18
  -5   2  -1    1.54    0.19
  -5   2  -1    1.32    0.24
  -5   2  -1    1.24    0.25
   6  -2   1    0.38    0.14
  -6  -2  -1    0.57    0.18
  -6  -2  -1    0.22    0.15
  -6   2  -1    0.26    0.14
  -6   2  -1    0.38    0.18
  -6   2  -1    0.02    0.20
  -6   2  -1    0.62    0.15
  -7  -2  -1    0.23    0.16
  -7  -2  -1    0.30    0.19
  -7  -2  -1    0.28    0.10
  -7  -2  -1    0.24    0.11
  -7   2  -1   -0.18    0.18
  -7   2  -1    0.20    0.20
  -7   2  -1    0.16    0.14
  -8  -2  -1    2.02    0.32
  -8  -2  -1    2.48    0.34
  -8  -2  -1    2.27    0.24
  -8  -2  -1    2.26    0.26
  -8   2  -1    2.37    0.31
  -8   2  -1    2.40    0.39
  -9  -2  -1    0.93    0.27
  -9  -2  -1    0.63    0.19
  -9  -2  -1    0.83    0.26
  -9   2  -1    1.16    0.32
 -10  -3   1    0.20    0.15
 -10   3   1    0.10    0.25
  -9  -3   1    1.04    0.18
  -9  -3   1    0.83    0.17
  -9  -3   1    1.16    0.25
  -9   3   1    1.26    0.33
  -8  -3   1    0.22    0.09
  -8  -3   1    0.13    0.08
  -8  -3   1    0.50    0.19
  -8   3   1    0.03    0.13
  -8   3   1    0.31    0.22
  -7  -3   1    3.19    0.31
  -7  -3   1    2.80    0.27
   7  -3  -1    2.55    0.32
  -7   3   1    3.23    0.30
  -7   3   1    2.96    0.37
  -6  -3   1    1.19    0.18
  -6  -3   1    1.29    0.19
   6  -3  -1    1.04    0.21
  -6   3   1    1.10    0.23
  -6   3   1    1.34    0.24
  -6   3   1    1.17    0.19
  -6   3   1    1.06    0.17
   5  -3  -1    1.09    0.21
  -5  -3   1    1.18    0.16
  -5  -3   1    1.14    0.15
  -5   3   1    1.28    0.22
  -5   3   1    0.96    0.15
  -5   3   1    1.14    0.23
  -5   3   1    1.32    0.18
   4  -3  -1   10.83    0.48
  -4  -3   1   10.73    0.36
  -4  -3   1   10.55    0.32
  -4   3   1   11.25    0.38
  -4   3   1   10.84    0.40
  -4   3   1   10.48    0.43
  -4   3   1   10.15    0.46
  -3  -3   1    2.78    0.15
  -3  -3   1    2.87    0.13
  -3  -3   1    2.91    0.12
   3  -3  -1    2.70    0.22
   3  -3  -1    2.66    0.21
  -3   3   1    3.03    0.22
  -3   3   1    3.07    0.17
  -2  -3   1   41.74    1.00
  -2  -3   1   41.54    0.88
   2  -3  -1   41.21    1.11
  -2   3   1   42.25    1.10
  -2   3   1   42.31    0.99
   1  -3  -1    7.84    0.24
   1  -3  -1    7.03    0.28
  -1  -3   1    7.12    0.23
   1   3  -1    7.15    0.20
  -1   3   1    7.53    0.28
   1   3  -1    7.62    0.24
   0  -3   1   41.63    0.94
   0  -3   1   38.86    0.93
   0  -3  -1   41.56    0.99
   0  -3   1   39.85    0.94
   0   3   1   40.81    0.98
   0   3  -1   41.19    1.03
   0   3  -1   40.66    0.93
   1  -3   1   28.41    0.73
  -1  -3  -1   28.48    0.69
   1  -3   1   28.20    0.79
  -1   3  -1   27.11    0.70
  -1   3  -1   27.79    0.79
  -2  -3  -1   21.46    0.56
  -2  -3  -1   21.35    0.48
   2  -3   1   22.22    0.63
   2  -3   1   19.75    0.67
  -2   3  -1   20.96    0.58
  -2   3  -1   20.87    0.62
  -2   3  -1   21.90    0.69
  -3  -3  -1    5.00    0.23
  -3  -3  -1    5.67    0.22
   3  -3   1    5.37    0.32
  -3   3  -1    4.87    0.31
  -3   3  -1    5.63    0.27
  -3   3  -1    5.48    0.25
  -3   3  -1    5.47    0.33
  -4  -3  -1    6.96    0.30
   4  -3   1    6.98    0.40
  -4  -3  -1    6.52    0.30
  -4   3  -1    6.63    0.33
  -4   3  -1    6.54    0.40
  -4   3  -1    7.00    0.31
  -4   3  -1    6.96    0.41
   5  -3   1    5.63    0.38
  -5  -3  -1    5.51    0.34
  -5  -3  -1    5.69    0.32
  -5   3  -1    5.36    0.31
  -5   3  -1    6.54    0.44
  -5   3  -1    5.80    0.44
  -5   3  -1    5.54    0.34
   6  -3   1   12.17    0.59
  -6  -3  -1   11.78    0.51
  -6  -3  -1   11.02    0.51
  -6   3  -1   11.97    0.62
  -6   3  -1   13.23    0.66
  -6   3  -1   11.72    0.51
  -7  -3  -1   11.73    0.35
  -7  -3  -1   12.30    0.56
  -7  -3  -1   12.21    0.57
  -7  -3  -1   11.79    0.35
  -7   3  -1   12.90    0.57
  -7   3  -1   11.87    0.68
  -8  -3  -1    0.38    0.18
  -8  -3  -1    0.09    0.19
  -8  -3  -1    0.23    0.12
  -8  -3  -1    0.07    0.11
  -8   3  -1    0.48    0.25
  -9  -3  -1    2.41    0.35
  -9  -3  -1    2.51    0.29
  -9   3  -1    2.84    0.47
 -10  -4   1    0.58    0.17
 -10   4   1   -0.06    0.21
  -9  -4   1    0.05    0.09
  -9  -4   1   -0.08    0.10
  -9   4   1    0.25    0.25
  -8  -4   1    1.80    0.26
  -8   4   1    2.48    0.40
   7  -4  -1    5.70    0.42
  -7  -4   1    5.99    0.36
  -7  -4   1    5.91    0.35
  -7   4   1    5.69    0.53
  -7   4   1    6.08    0.38
  -6  -4   1    4.22    0.26
  -6  -4   1    3.79    0.27
   6  -4  -1    4.07    0.40
  -6   4   1    4.24    0.30
  -6   4   1    4.41    0.43
   5  -4  -1    1.14    0.21
  -5  -4   1    1.07    0.14
  -5  -4   1    1.09    0.14
  -5   4   1    1.21    0.17
  -5   4   1    1.22    0.18
  -5   4   1    1.12    0.22
  -4  -4   1    2.97    0.15
   4  -4  -1    2.82    0.25
  -4  -4   1    3.14    0.17
  -4  -4   1    2.87    0.15
   4  -4  -1    2.99    0.29
  -4   4   1    3.16    0.21
  -4   4   1    3.23    0.30
   3  -4  -1   41.44    1.17
  -3  -4   1   41.19    0.99
   3  -4  -1   40.00    1.05
  -3  -4   1   41.20    0.86
  -3   4   1   42.82    1.03
  -3   4   1   40.59    1.15
   2  -4  -1   15.47    0.52
   2  -4  -1   14.98    0.46
   2  -4  -1   15.05    0.44
  -2  -4   1   14.27    0.34
  -2  -4   1   14.64    0.40
  -2   4   1   14.93    0.51
   1  -4  -1    5.62    0.21
   1  -4  -1    5.68    0.20
   1  -4  -1    5.36    0.26
  -1  -4   1    5.33    0.21
  -1   4   1    5.48    0.25
   1   4  -1    5.79    0.22
   1   4  -1    5.59    0.17
   0  -4   1   85.70    1.91
   0  -4   1   82.53    2.05
   0  -4   1   87.31    1.91
   0  -4   1   87.83    1.88
   0  -4  -1   84.62    2.01
   0   4  -1   87.63    2.05
   0   4  -1   86.17    1.86
   0   4   1   86.44    2.00
   1  -4   1    0.88    0.12
  -1  -4  -1    0.91    0.09
   1  -4   1    0.64    0.13
  -1   4  -1    0.97    0.15
  -1   4  -1    0.65    0.14
  -2  -4  -1    1.61    0.10
   2  -4   1    1.34    0.19
   2  -4   1    1.40    0.19
  -2   4  -1    1.80    0.22
  -2   4  -1    1.50    0.20
  -2   4  -1    1.52    0.16
   3  -4   1    9.78    0.47
   3  -4   1   10.72    0.44
  -3  -4  -1   10.03    0.32
  -3  -4  -1   10.19    0.28
  -3   4  -1    9.84    0.48
  -3   4  -1   10.01    0.45
  -3   4  -1    9.36    0.37
  -4  -4  -1    0.34    0.11
   4  -4   1    0.43    0.16
  -4  -4  -1    0.45    0.11
  -4   4  -1    0.36    0.16
  -4   4  -1    0.42    0.20
  -4   4  -1    0.32    0.12
  -4   4  -1    0.33    0.13
   5  -4   1   15.80    0.70
  -5  -4  -1   15.99    0.55
  -5  -4  -1   16.24    0.53
  -5   4  -1   16.16    0.68
  -5   4  -1   15.98    0.59
  -5   4  -1   17.32    0.75
  -6  -4  -1    3.11    0.28
  -6  -4  -1    3.15    0.28
   6  -4   1    2.53    0.33
  -6   4  -1    2.85    0.38
  -6   4  -1    2.57    0.35
  -6   4  -1    2.89    0.30
  -7  -4  -1    2.57    0.30
  -7  -4  -1    2.66    0.30
  -7   4  -1    2.73    0.41
  -7   4  -1    2.80    0.33
  -8  -4  -1    4.34    0.24
  -8  -4  -1    4.41    0.40
  -8  -4  -1    4.18    0.25
  -8   4  -1    5.02    0.57
  -9  -4  -1    1.49    0.22
  -9  -4  -1    1.64    0.28
  -9   4  -1    1.74    0.39
 -10  -5   1    0.65    0.16
 -10  -5   1    0.07    0.12
 -10   5   1    0.28    0.28
  -9  -5   1   -0.03    0.06
  -9  -5   1    0.10    0.08
  -9   5   1    0.32    0.23
  -8   5   1    4.28    0.51
   7  -5  -1    2.27    0.34
  -7  -5   1    2.19    0.24
  -7  -5   1    2.89    0.25
  -7   5   1    2.21    0.36
  -6  -5   1    0.84    0.14
  -6  -5   1    0.84    0.15
   6  -5  -1    1.03    0.22
  -6   5   1    0.81    0.17
  -6   5   1    0.68    0.24
  -5  -5   1    1.18    0.13
  -5  -5   1    1.34    0.14
   5  -5  -1    1.50    0.25
  -5   5   1    1.41    0.25
  -5   5   1    1.28    0.17
  -4  -5   1   11.55    0.30
   4  -5  -1   11.58    0.48
   4  -5  -1   11.01    0.53
  -4  -5   1   11.86    0.30
  -4  -5   1   11.76    0.35
  -4   5   1   11.28    0.53
  -4   5   1   12.39    0.43
  -3  -5   1    2.79    0.13
   3  -5  -1    2.92    0.28
   3  -5  -1    2.75    0.24
  -3   5   1    2.72    0.18
  -3   5   1    2.98    0.27
   2  -5  -1    4.66    0.23
   2  -5  -1    4.95    0.30
  -2  -5   1    4.70    0.16
  -2   5   1    4.47    0.27
   1  -5  -1    7.00    0.32
   1  -5  -1    6.89    0.24
   1  -5  -1    7.76    0.26
  -1  -5   1    7.13    0.26
   1   5  -1    7.50    0.27
  -1   5   1    6.58    0.30
   0  -5   1   24.04    0.64
   0  -5  -1   23.89    0.66
   0  -5   1   23.78    0.60
   0  -5   1   24.42    0.60
   0  -5   1   23.28    0.70
   0   5  -1   24.02    0.62
   0   5   1   24.35    0.65
   0   5  -1   22.78    0.68
   1  -5   1   34.46    1.03
   1  -5   1   38.76    0.94
  -1  -5  -1   37.09    0.91
  -1   5  -1   36.48    0.94
  -1   5  -1   36.95    1.03
  -2  -5  -1    3.50    0.15
   2  -5   1    3.45    0.27
   2  -5   1    3.26    0.26
  -2   5  -1    3.64    0.31
  -2   5  -1    3.33    0.27
  -2   5  -1    3.12    0.21
   3  -5   1    2.91    0.27
   3  -5   1    3.15    0.32
  -3  -5  -1    3.06    0.15
  -3   5  -1    3.40    0.32
  -3   5  -1    3.59    0.31
  -4  -5  -1    0.39    0.10
   4  -5   1    0.13    0.13
  -4  -5  -1    0.16    0.07
  -4   5  -1    0.58    0.18
  -4   5  -1    0.00    0.18
  -4   5  -1    0.30    0.12
  -5  -5  -1    7.45    0.32
  -5  -5  -1    6.88    0.33
   5  -5   1    8.24    0.50
  -5   5  -1    7.09    0.38
  -5   5  -1    6.92    0.50
  -5   5  -1    7.35    0.49
  -6  -5  -1    5.49    0.34
  -6  -5  -1    4.89    0.29
   6  -5   1    4.68    0.46
  -6   5  -1    5.62    0.37
  -6   5  -1    5.68    0.53
  -7  -5  -1    0.30    0.14
  -7  -5  -1    0.36    0.16
  -7   5  -1    0.31    0.21
  -8  -5  -1    0.66    0.21
  -8   5  -1    0.81    0.29
  -9  -5  -1    0.32    0.13
  -9  -5  -1    0.46    0.14
  -9   5  -1    0.12    0.24
 -10  -6   1    1.15    0.17
 -10  -6   1    1.07    0.17
 -10   6   1    1.41    0.37
  -9   6   1    1.09    0.33
   8  -6  -1    1.58    0.32
  -8   6   1    1.04    0.31
   7  -6  -1    3.59    0.43
  -7  -6   1    3.44    0.24
  -7   6   1    3.28    0.45
  -6  -6   1    1.64    0.16
  -6  -6   1    1.57    0.16
   6  -6  -1    1.66    0.29
  -6   6   1    1.85    0.32
  -5  -6   1    1.37    0.12
   5  -6  -1    0.99    0.23
  -5  -6   1    1.41    0.13
  -5  -6   1    1.26    0.12
  -5   6   1    0.97    0.17
  -5   6   1    1.42    0.26
   4  -6  -1    3.18    0.29
  -4  -6   1    3.49    0.15
   4  -6  -1    3.61    0.36
  -4  -6   1    3.26    0.15
  -4   6   1    3.11    0.22
  -4   6   1    4.00    0.36
   3  -6  -1   16.84    0.65
   3  -6  -1   16.72    0.58
  -3   6   1   15.87    0.62
   2  -6  -1   10.70    0.46
  -2  -6   1   10.17    0.29
   2  -6  -1   10.49    0.42
   2  -6  -1   10.01    0.37
  -2   6   1   10.23    0.44
   1  -6  -1   32.48    0.95
   1  -6  -1   34.02    0.83
   1  -6  -1   33.93    0.82
  -1  -6   1   32.79    0.81
  -1  -6   1   33.57    0.90
   1   6  -1   34.40    0.88
  -1   6   1   33.20    0.93
   0  -6   1   41.70    1.02
   0  -6   1   41.67    1.00
   0  -6   1   41.84    0.99
   0  -6   1   39.57    1.12
   0  -6  -1   41.40    1.09
   0   6  -1   42.66    1.00
   0   6   1   43.32    1.07
   0   6  -1   41.46    1.11
  -1  -6  -1   13.37    0.41
   1  -6   1   13.76    0.54
   1  -6   1   13.73    0.49
   1  -6   1   13.78    0.45
  -1   6  -1   13.65    0.52
  -1   6  -1   13.13    0.46
  -2  -6  -1    4.46    0.17
   2  -6   1    4.50    0.33
   2  -6   1    4.61    0.32
  -2   6  -1    4.44    0.31
  -2   6  -1    4.43    0.30
  -3  -6  -1   16.78    0.45
   3  -6   1   16.90    0.70
  -3  -6  -1   16.97    0.44
   3  -6   1   16.24    0.62
  -3   6  -1   16.93    0.68
  -3   6  -1   16.59    0.56
  -3   6  -1   17.42    0.64
  -4  -6  -1    3.69    0.17
   4  -6   1    3.87    0.39
  -4  -6  -1    3.73    0.17
  -4   6  -1    4.14    0.41
  -4   6  -1    3.71    0.35
  -5  -6  -1    3.07    0.19
   5  -6   1    2.77    0.37
  -5  -6  -1    2.99    0.21
  -5   6  -1    3.31    0.41
  -5   6  -1    3.14    0.36
  -6  -6  -1    7.44    0.36
  -6  -6  -1    7.46    0.34
   6  -6   1    6.98    0.51
  -6   6  -1    7.21    0.53
  -7  -6  -1    0.77    0.19
   7  -6   1    0.51    0.22
  -7   6  -1    0.70    0.27
  -8  -6  -1    0.11    0.17
  -8   6  -1    0.14    0.22
  -9  -6  -1    0.07    0.10
  -9  -6  -1    0.13    0.10
  -9   6  -1    0.37    0.30
 -10  -7   1    0.46    0.11
 -10  -7   1    0.19    0.10
 -10   7   1    0.60    0.32
  -9   7   1    1.18    0.36
   8  -7  -1    0.85    0.25
  -8   7   1    0.91    0.32
   7  -7  -1    5.96    0.58
  -7   7   1    5.92    0.59
   6  -7  -1    9.41    0.59
  -6  -7   1    9.06    0.33
  -6   7   1    8.90    0.57
  -5  -7   1    5.70    0.20
  -5  -7   1    5.64    0.20
  -5  -7   1    5.41    0.21
   5  -7  -1    6.32    0.44
  -5   7   1    6.06    0.45
   4  -7  -1    1.88    0.25
  -4  -7   1    1.66    0.10
   4  -7  -1    1.33    0.24
  -4   7   1    1.49    0.25
  -3  -7   1    1.17    0.08
   3  -7  -1    1.31    0.21
   3  -7  -1    1.39    0.16
   3  -7  -1    1.08    0.21
  -3   7   1    0.89    0.19
   2  -7  -1    0.00    0.12
   2  -7  -1    0.23    0.09
   2  -7  -1    0.11    0.11
  -2  -7   1    0.15    0.08
  -2   7   1    0.18    0.11
  -1  -7   1    6.05    0.29
   1  -7  -1    5.85    0.25
  -1  -7   1    5.80    0.27
   1  -7  -1    6.16    0.33
   1   7  -1    5.99    0.26
  -1   7   1    5.55    0.30
   0  -7   1    5.05    0.29
   0  -7  -1    5.08    0.27
   0  -7   1    5.24    0.22
   0  -7   1    4.79    0.29
   0  -7   1    5.06    0.21
   0   7  -1    5.09    0.28
   0   7   1    4.83    0.24
   1  -7   1   37.92    1.14
  -1  -7  -1   38.78    1.01
   1  -7   1   39.87    1.04
  -1   7  -1   38.48    1.12
  -1   7  -1   39.92    1.01
   2  -7   1   12.10    0.51
   2  -7   1   11.08    0.53
   2  -7   1   10.66    0.43
  -2  -7  -1   12.05    0.36
  -2   7  -1   11.63    0.48
  -2   7  -1   11.42    0.52
  -3  -7  -1   10.89    0.31
   3  -7   1   11.11    0.56
  -3  -7  -1   11.11    0.31
   3  -7   1   12.04    0.54
  -3   7  -1   11.03    0.52
  -3   7  -1    9.55    0.52
   4  -7   1    0.12    0.15
  -4  -7  -1    0.22    0.06
  -4   7  -1    0.11    0.16
  -4   7  -1    0.09    0.19
   5  -7   1    0.08    0.15
  -5  -7  -1    0.09    0.09
  -5   7  -1   -0.01    0.15
   6  -7   1    6.77    0.52
  -6  -7  -1    6.73    0.33
  -6   7  -1    7.07    0.56
   7  -7   1    1.84    0.34
  -7  -7  -1    1.35    0.20
  -7   7  -1    2.02    0.39
  -8  -7  -1    0.71    0.20
  -8   7  -1    0.68    0.28
  -9  -7  -1    0.21    0.08
  -9   7  -1    0.46    0.29
  -9   8   1    1.52    0.39
   8  -8  -1    2.41    0.42
  -8   8   1    3.33    0.50
   7  -8  -1    0.15    0.16
  -7   8   1    0.15    0.21
   6  -8  -1    0.33    0.20
  -6   8   1    0.63    0.26
   5  -8  -1    2.20    0.34
  -5   8   1    1.39    0.29
   4  -8  -1    5.36    0.39
   4  -8  -1    5.83    0.42
  -4   8   1    5.37    0.41
   3  -8  -1   22.38    0.83
  -3  -8   1   21.59    0.53
   3  -8  -1   21.41    0.69
   3  -8  -1   22.26    0.74
  -3   8   1   21.72    0.80
   2  -8  -1   17.28    0.56
   2  -8  -1   18.07    0.69
   2  -8  -1   18.15    0.62
  -2  -8   1   18.04    0.55
  -2  -8   1   16.47    0.48
  -2   8   1   17.39    0.65
  -1  -8   1   17.85    0.58
   1  -8  -1   17.46    0.52
   1  -8  -1   16.97    0.63
  -1  -8   1   17.18    0.53
   1   8  -1   17.18    0.55
  -1   8   1   17.54    0.60
   0  -8   1   22.53    0.61
   0  -8   1   22.60    0.75
   0  -8   1   22.41    0.61
   0  -8  -1   21.69    0.70
   0  -8   1   21.52    0.67
   0   8   1   22.36    0.66
   0   8  -1   22.38    0.71
   1  -8   1   35.96    0.95
   1  -8   1   35.92    1.11
   1  -8   1   35.68    0.96
   1  -8   1   34.81    0.99
  -1  -8  -1   36.55    0.96
  -1   8  -1   35.62    1.07
  -1   8  -1   35.10    0.95
  -2  -8  -1   10.67    0.35
   2  -8   1   10.39    0.53
   2  -8   1   10.16    0.43
   2  -8   1    9.85    0.45
  -2   8  -1   10.49    0.51
  -2   8  -1   10.04    0.47
  -3  -8  -1    1.68    0.11
  -3  -8  -1    1.73    0.11
   3  -8   1    1.94    0.30
   3  -8   1    1.60    0.26
  -3   8  -1    1.52    0.26
  -3   8  -1    2.16    0.31
   4  -8   1    2.36    0.34
  -4   8  -1    1.97    0.31
   5  -8   1    0.05    0.19
  -5  -8  -1    0.06    0.08
  -5   8  -1    0.19    0.17
   6  -8   1    0.54    0.22
  -6  -8  -1    0.56    0.13
  -6   8  -1    0.10    0.22
   7  -8   1    4.00    0.49
  -7  -8  -1    3.68    0.28
  -7   8  -1    4.00    0.54
  -8  -8  -1    1.03    0.19
  -8   8  -1    1.30    0.38
  -9   8  -1    0.02    0.24
  -9   9   1    0.26    0.28
   8  -9  -1    0.27    0.21
  -8   9   1    0.33    0.25
   7  -9  -1    2.84    0.43
  -7   9   1    2.69    0.44
  -6  -9   1    5.23    0.21
   6  -9  -1    5.31    0.54
  -6   9   1    5.36    0.56
   5  -9  -1    2.01    0.36
  -5   9   1    2.13    0.35
  -4  -9   1    2.16    0.13
   4  -9  -1    2.00    0.33
   4  -9  -1    2.05    0.29
  -4  -9   1    2.21    0.13
  -4   9   1    2.38    0.33
  -3  -9   1    6.22    0.26
   3  -9  -1    5.55    0.33
   3  -9  -1    5.85    0.41
  -3  -9   1    5.94    0.24
  -3   9   1    5.81    0.39
   2  -9  -1    0.87    0.13
  -2  -9   1    0.81    0.14
  -2  -9   1    1.16    0.16
   2  -9  -1    1.75    0.24
   2  -9  -1    0.99    0.16
   2  -9  -1    0.97    0.20
  -2   9   1    1.09    0.21
   1  -9  -1   13.42    0.51
   1  -9  -1   13.12    0.45
  -1  -9   1   13.14    0.47
   1  -9  -1   12.70    0.55
  -1  -9   1   14.23    0.53
  -1   9   1   13.17    0.52
   1   9  -1   13.10    0.47
   0  -9  -1    5.30    0.31
   0  -9  -1    4.99    0.17
   0  -9   1    4.89    0.24
   0  -9   1    5.14    0.26
   0  -9   1    5.66    0.34
   0  -9   1    4.77    0.33
   0  -9  -1    4.97    0.15
   0   9   1    4.96    0.26
   0   9  -1    5.48    0.31
  -1  -9  -1    6.05    0.30
   1  -9   1    6.33    0.39
   1  -9   1    6.39    0.33
   1  -9   1    5.89    0.38
   1  -9   1    6.47    0.30
  -1   9  -1    6.34    0.37
   2  -9   1    0.78    0.18
  -2  -9  -1    0.81    0.12
   2  -9   1    0.67    0.19
  -2   9  -1    0.48    0.17
  -2   9  -1    0.38    0.16
   3  -9   1    1.59    0.31
   3  -9   1    1.11    0.24
  -3  -9  -1    1.36    0.11
  -3   9  -1    1.67    0.30
   4  -9   1    8.88    0.57
  -4   9  -1    8.83    0.55
   5  -9   1    6.47    0.52
  -5   9  -1    6.02    0.58
   6  -9   1    0.67    0.24
  -6  -9  -1    0.29    0.11
  -6   9  -1   -0.06    0.17
   7  -9   1    0.21    0.21
  -7  -9  -1    0.21    0.12
  -7   9  -1    0.01    0.23
  -8   9  -1    1.61    0.40
  -9  10   1    0.22    0.24
   8 -10  -1    0.53    0.24
  -8  10   1    0.89    0.34
   7 -10  -1    1.34    0.31
  -7  10   1    1.11    0.33
  -6 -10   1    1.11    0.11
   6 -10  -1    1.01    0.29
  -6  10   1    2.07    0.38
  -5 -10   1    1.41    0.10
   5 -10  -1    1.38    0.30
  -5  10   1    1.22    0.29
  -4 -10   1    1.14    0.12
   4 -10  -1    1.04    0.27
  -4 -10   1    1.21    0.12
  -4  10   1    1.79    0.31
   3 -10  -1    1.31    0.21
  -3 -10   1    1.57    0.17
   3 -10  -1    1.21    0.25
  -3 -10   1    1.32    0.15
  -3  10   1    1.87    0.30
   2 -10  -1   10.56    0.41
  -2 -10   1    9.56    0.39
   2 -10  -1   10.88    0.51
   2 -10  -1   10.69    0.55
  -2 -10   1    9.95    0.42
   2 -10  -1   10.30    0.44
  -2  10   1    9.47    0.50
  -1 -10   1   31.05    0.74
  -1 -10   1   30.52    0.87
   1 -10  -1   32.19    0.92
  -1 -10   1   31.81    0.74
  -1 -10   1   31.97    0.97
   1 -10  -1   31.15    1.01
   1 -10  -1   32.12    0.87
  -1  10   1   30.62    0.96
   1  10  -1   31.02    0.89
   0 -10  -1    9.19    0.30
   0 -10  -1   10.14    0.29
   0 -10   1    9.06    0.45
   0 -10  -1    9.56    0.45
   0 -10   1    9.72    0.37
   0 -10   1    9.80    0.49
   0 -10   1    9.53    0.38
   0  10  -1    9.88    0.45
   0  10   1    9.89    0.40
   1 -10   1    0.92    0.21
   1 -10   1    1.03    0.23
   1 -10   1    1.41    0.18
   1 -10   1    1.66    0.21
  -1 -10  -1    1.48    0.19
  -1  10  -1    1.15    0.20
   2 -10   1    1.70    0.27
   2 -10   1    2.50    0.27
   2 -10   1    2.15    0.31
  -2 -10  -1    2.20    0.17
  -2  10  -1    1.81    0.28
  -3 -10  -1    0.73    0.10
   3 -10   1    0.24    0.18
  -3  10  -1    0.85    0.24
   4 -10   1    0.08    0.17
  -4  10  -1    0.53    0.22
   5 -10   1    5.59    0.58
  -5  10  -1    6.17    0.59
   6 -10   1    4.16    0.54
  -6 -10  -1    4.70    0.22
  -6  10  -1    4.86    0.57
  -7 -10  -1    2.69    0.21
   7 -10   1    2.59    0.44
  -7  10  -1    2.15    0.41
  -8  10  -1    0.51    0.30
  -9  11   1    0.13    0.24
   8 -11  -1    0.86    0.29
  -8  11   1    1.74    0.41
   7 -11  -1    0.90    0.30
  -7  11   1    1.25    0.36
  -6 -11   1    1.60    0.12
   6 -11  -1    1.08    0.31
  -6  11   1    1.32    0.31
  -5 -11   1    1.87    0.13
   5 -11  -1    1.99    0.37
  -5  11   1    2.02    0.35
   4 -11  -1    2.34    0.36
  -4 -11   1    2.03    0.15
  -4 -11   1    1.98    0.16
  -4  11   1    2.64    0.38
  -3 -11   1    3.66    0.24
  -3 -11   1    4.08    0.26
   3 -11  -1    3.39    0.35
   3 -11  -1    3.91    0.43
  -3  11   1    4.56    0.45
  -2 -11   1    7.17    0.36
   2 -11  -1    7.14    0.45
   2 -11  -1    7.06    0.47
   2 -11  -1    7.62    0.39
  -2 -11   1    7.15    0.37
  -2  11   1    7.44    0.44
  -1 -11   1    0.36    0.09
   1 -11  -1    0.43    0.18
   1 -11  -1    0.43    0.13
  -1 -11   1    0.61    0.16
  -1 -11   1    0.50    0.09
   1 -11  -1    0.64    0.19
  -1 -11   1    0.47    0.18
  -1  11   1    0.76    0.17
   1  11  -1    0.62    0.13
   0 -11  -1    1.23    0.21
   0 -11   1    1.33    0.23
   0 -11  -1    1.12    0.12
   0 -11   1    1.31    0.16
   0 -11   1    1.09    0.16
   0 -11  -1    1.19    0.12
   0 -11   1    0.97    0.21
   0  11   1    1.36    0.18
   0  11  -1    1.41    0.21
   1 -11   1   11.94    0.57
   1 -11   1   11.39    0.49
   1 -11   1   11.69    0.60
   1 -11   1   10.91    0.46
  -1 -11  -1   11.47    0.48
  -1  11  -1   11.19    0.55
   2 -11   1    3.70    0.42
  -2 -11  -1    3.19    0.22
   2 -11   1    2.98    0.31
   2 -11   1    3.29    0.34
  -2  11  -1    3.00    0.36
   3 -11   1    3.68    0.44
  -3 -11  -1    3.04    0.18
  -3  11  -1    3.41    0.41
   4 -11   1    4.56    0.53
  -4  11  -1    4.34    0.50
   5 -11   1    6.03    0.62
  -5  11  -1    4.90    0.55
   6 -11   1    1.69    0.38
  -6  11  -1    1.16    0.33
   7 -11   1    0.88    0.30
  -7 -11  -1    1.36    0.14
  -7  11  -1    1.57    0.38
  -8  11  -1    0.42    0.26
   8 -12  -1    0.62    0.28
  -8  12   1    1.05    0.32
   7 -12  -1    1.09    0.31
  -7  12   1    1.63    0.37
   6 -12  -1    3.46    0.48
  -6 -12   1    3.25    0.18
  -6  12   1    3.39    0.48
   5 -12  -1    0.97    0.27
  -5 -12   1    0.59    0.11
  -5  12   1    0.98    0.29
  -4 -12   1    7.84    0.32
  -4 -12   1    7.63    0.31
   4 -12  -1    7.37    0.55
  -4  12   1    7.66    0.55
   3 -12  -1   -0.09    0.17
  -3 -12   1    0.09    0.12
  -3 -12   1   -0.03    0.09
  -3  12   1    0.05    0.15
   2 -12  -1    1.97    0.25
  -2 -12   1    1.77    0.22
   2 -12  -1    1.46    0.28
   2 -12  -1    1.58    0.26
  -2 -12   1    1.63    0.23
  -2  12   1    2.04    0.28
  -1 -12   1    1.44    0.16
  -1 -12   1    1.40    0.23
  -1 -12   1    1.59    0.15
   1 -12  -1    1.24    0.25
  -1 -12   1    1.57    0.25
   1 -12  -1    1.39    0.24
   1 -12  -1    1.42    0.20
   1  12  -1    1.41    0.19
  -1  12   1    1.85    0.26
   0 -12   1   11.20    0.45
   0 -12   1   11.68    0.59
   0 -12  -1   11.88    0.55
   0 -12  -1   12.16    0.40
   0 -12  -1   11.66    0.41
   0 -12  -1   11.43    0.51
   0 -12   1   11.01    0.46
   0 -12   1   12.70    0.56
   0  12   1   11.72    0.48
   0  12  -1   12.78    0.54
   1 -12   1    0.81    0.24
   1 -12   1    0.31    0.19
   1 -12   1    0.70    0.18
  -1 -12  -1    0.86    0.18
  -1  12  -1    0.83    0.21
  -2 -12  -1   10.39    0.44
   2 -12   1   10.32    0.61
  -2  12  -1    9.97    0.58
   3 -12   1    0.14    0.18
  -3 -12  -1    0.68    0.12
  -3  12  -1    0.56    0.22
   4 -12   1    1.28    0.33
  -4  12  -1    1.59    0.34
   5 -12   1    1.09    0.34
  -5  12  -1    0.76    0.29
   6 -12   1    0.91    0.33
  -6  12  -1    1.35    0.34
   7 -12   1    0.19    0.21
  -7  12  -1    0.47    0.26
   8 -12   1    0.85    0.29
  -8  12  -1   -0.10    0.22
   8 -13  -1    1.12    0.36
  -8  13   1    2.22    0.46
   7 -13  -1    3.96    0.56
  -7  13   1    3.87    0.56
  -6 -13   1    0.55    0.10
   6 -13  -1    0.69    0.27
  -6  13   1    0.44    0.24
   5 -13  -1    0.15    0.17
  -5 -13   1    0.12    0.10
  -5  13   1    0.24    0.24
  -4 -13   1    6.69    0.33
   4 -13  -1    7.53    0.58
  -4  13   1    6.91    0.52
  -3 -13   1   17.67    0.59
   3 -13  -1   17.20    0.83
  -3 -13   1   17.14    0.62
  -3  13   1   17.32    0.80
   2 -13  -1    0.64    0.17
   2 -13  -1    0.97    0.23
  -2 -13   1    0.65    0.18
  -2 -13   1    0.69    0.18
   2 -13  -1    0.62    0.21
  -2  13   1    1.05    0.24
   1 -13  -1   15.93    0.73
  -1 -13   1   15.95    0.52
  -1 -13   1   17.02    0.70
   1 -13  -1   17.13    0.62
   1 -13  -1   16.44    0.67
  -1 -13   1   16.87    0.65
   1 -13  -1   17.09    0.58
  -1 -13   1   16.39    0.54
  -1  13   1   16.66    0.67
   0 -13  -1   17.02    0.70
   0 -13  -1   16.56    0.54
   0 -13  -1   16.82    0.65
   0 -13   1   16.99    0.61
   0 -13   1   18.85    0.71
   0 -13   1   16.79    0.75
   0 -13  -1   16.57    0.55
   0 -13   1   17.73    0.61
   0  13  -1   16.38    0.67
   1 -13   1    8.77    0.46
  -1 -13  -1    9.34    0.47
  -1 -13  -1    8.87    0.43
   1 -13   1    9.50    0.57
   1 -13   1   10.01    0.54
  -1  13  -1    8.59    0.50
  -2 -13  -1    7.37    0.37
   2 -13   1    6.10    0.59
  -2  13  -1    6.96    0.49
   3 -13   1    2.77    0.42
  -3  13  -1    3.13    0.42
   4 -13   1    2.21    0.41
  -4  13  -1    2.34    0.38
   5 -13   1    0.68    0.30
  -5  13  -1    0.87    0.28
  -6  13  -1   -0.07    0.17
   7 -13   1    0.37    0.23
  -7  13  -1    0.32    0.23
   8 -14  -1    0.64    0.28
  -8  14   1    0.73    0.30
   7 -14  -1   -0.11    0.17
  -7  14   1    0.48    0.26
  -6 -14   1    1.54    0.15
   6 -14  -1    1.40    0.34
  -6  14   1    1.94    0.40
   5 -14  -1    1.03    0.33
  -5 -14   1    1.13    0.15
  -5  14   1    0.48    0.23
  -4 -14   1    0.05    0.12
   4 -14  -1    0.16    0.19
  -4  14   1    0.11    0.15
  -3 -14   1    4.43    0.32
   3 -14  -1    3.88    0.48
  -3 -14   1    4.56    0.31
  -3  14   1    3.80    0.44
   2 -14  -1    1.15    0.23
   2 -14  -1    1.34    0.29
  -2 -14   1    1.43    0.10
  -2 -14   1    1.41    0.23
  -2 -14   1    1.51    0.25
  -2 -14   1    1.36    0.11
  -2  14   1    1.48    0.27
  -1 -14   1    6.46    0.44
  -1 -14   1    6.78    0.35
  -1 -14   1    6.70    0.32
   1 -14  -1    7.48    0.41
  -1 -14   1    6.40    0.44
   1 -14  -1    6.59    0.47
   1 -14  -1    7.36    0.47
  -1  14   1    6.19    0.40
   0 -14  -1    2.15    0.22
   0 -14  -1    1.93    0.21
   0 -14   1    1.81    0.30
   0 -14  -1    1.89    0.26
   0 -14   1    1.90    0.25
   0 -14  -1    1.92    0.29
   0 -14   1    2.10    0.33
   0  14  -1    2.06    0.27
  -1 -14  -1    3.49    0.35
   1 -14   1    3.32    0.34
  -1 -14  -1    3.18    0.16
   1 -14   1    3.10    0.42
  -1 -14  -1    3.55    0.32
  -1 -14  -1    3.35    0.18
  -1  14  -1    3.47    0.39
   2 -14   1    5.11    0.54
  -2 -14  -1    4.89    0.33
  -2 -14  -1    5.32    0.33
  -2  14  -1    5.22    0.50
   3 -14   1    2.14    0.38
  -3  14  -1    2.24    0.37
   4 -14   1    1.66    0.37
  -4  14  -1    1.76    0.35
   5 -14   1    0.21    0.22
  -5  14  -1    0.12    0.20
   6 -14   1    2.32    0.47
  -6  14  -1    1.54    0.37
   7 -14   1    0.26    0.25
  -7  14  -1   -0.12    0.17
   7 -15  -1    0.19    0.19
  -7  15   1    0.35    0.24
  -6 -15   1    0.60    0.12
   6 -15  -1    0.57    0.26
  -6  15   1    0.51    0.27
   5 -15  -1    1.36    0.35
  -5 -15   1    0.95    0.16
  -5  15   1    1.38    0.32
  -4 -15   1    0.80    0.18
   4 -15  -1    0.87    0.28
  -4  15   1    1.41    0.30
   3 -15  -1    6.86    0.55
  -3 -15   1    6.71    0.40
  -3 -15   1    6.01    0.39
  -3  15   1    6.60    0.49
  -2 -15   1    0.02    0.16
  -2 -15   1    0.11    0.07
   2 -15  -1    0.08    0.19
  -2 -15   1    0.31    0.16
   2 -15  -1    0.13    0.16
  -2 -15   1    0.03    0.09
  -2  15   1    0.32    0.17
  -1 -15   1    0.94    0.18
  -1 -15   1    0.80    0.23
  -1 -15   1    0.66    0.15
   1 -15  -1    0.38    0.21
  -1 -15   1    0.74    0.22
   1 -15  -1    0.87    0.20
   0 -15  -1    3.59    0.36
   0 -15   1    3.99    0.45
   0 -15  -1    3.16    0.27
   0 -15   1    3.25    0.37
   0 -15  -1    2.99    0.37
   0 -15   1    4.17    0.37
   0 -15  -1    3.12    0.29
  -1 -15  -1    0.01    0.13
   1 -15   1   -0.13    0.18
  -1 -15  -1    0.34    0.16
  -1 -15  -1    0.01    0.09
  -1 -15  -1    0.14    0.09
   1 -15   1    0.18    0.16
  -1  15  -1    0.12    0.16
  -2 -15  -1    4.19    0.33
   2 -15   1    4.57    0.54
  -2 -15  -1    4.19    0.32
  -2  15  -1    4.57    0.49
   3 -15   1    0.45    0.24
  -3 -15  -1    0.41    0.16
  -3  15  -1    0.80    0.26
   4 -15   1    1.42    0.37
  -4 -15  -1    1.43    0.18
  -4  15  -1    1.31    0.33
   5 -15   1   -0.08    0.20
  -5 -15  -1    0.12    0.09
  -5  15  -1   -0.10    0.18
   6 -15   1    0.05    0.18
  -6  15  -1   -0.26    0.19
   7 -16  -1    0.60    0.28
  -7  16   1    0.71    0.28
   6 -16  -1    0.23    0.24
  -6 -16   1    0.32    0.12
  -6  16   1    0.23    0.22
   5 -16  -1    0.47    0.27
  -5 -16   1    0.42    0.14
  -5  16   1    0.75    0.27
   4 -16  -1    2.31    0.43
  -4 -16   1    2.49    0.27
  -4  16   1    2.69    0.42
  -3 -16   1    2.02    0.28
   3 -16  -1    1.77    0.38
  -3 -16   1    1.65    0.26
  -3  16   1    2.08    0.35
  -2 -16   1    0.17    0.12
  -2 -16   1    0.06    0.15
  -2 -16   1    0.41    0.18
  -2 -16   1    0.12    0.09
   2 -16  -1    0.39    0.25
   1 -16  -1    2.76    0.33
   1 -16  -1    2.93    0.41
  -1 -16   1    3.29    0.40
  -1 -16   1    2.94    0.29
  -1 -16   1    3.33    0.37
  -1 -16   1    3.51    0.32
   0 -16  -1    2.34    0.31
   0 -16  -1    1.72    0.24
   0 -16  -1    2.54    0.36
   0 -16   1    2.14    0.29
   0 -16   1    2.51    0.38
  -1 -16  -1    1.90    0.27
  -1 -16  -1    2.25    0.22
   1 -16   1    2.23    0.37
  -1 -16  -1    2.30    0.32
  -1 -16  -1    1.96    0.20
  -2 -16  -1    1.21    0.23
  -2 -16  -1    0.93    0.20
   2 -16   1    1.54    0.37
  -2  16  -1    1.76    0.34
  -3 -16  -1    0.49    0.17
   3 -16   1    0.47    0.27
  -3  16  -1    0.17    0.18
  -4 -16  -1    1.32    0.18
   4 -16   1    1.19    0.36
  -4  16  -1    1.11    0.30
   5 -16   1    0.10    0.20
  -5 -16  -1    0.12    0.10
  -5  16  -1    0.25    0.25
   6 -16   1    1.12    0.33
  -6  16  -1    0.40    0.23
   6 -17  -1   -0.01    0.21
  -6  17   1    0.23    0.22
   5 -17  -1    0.04    0.22
  -5 -17   1    0.11    0.13
  -5  17   1   -0.07    0.18
   4 -17  -1    0.44    0.29
  -4 -17   1    0.85    0.21
  -4  17   1    0.65    0.26
  -3 -17   1    0.58    0.20
   3 -17  -1    0.20    0.22
  -3 -17   1    0.65    0.19
  -3 -17   1    0.52    0.11
  -3 -17   1    0.67    0.10
  -2 -17   1    0.10    0.18
  -2 -17   1   -0.06    0.15
  -2 -17   1    0.08    0.09
  -2 -17   1   -0.04    0.12
   2 -17  -1   -0.19    0.17
   1 -17  -1    0.46    0.19
  -1 -17   1    0.27    0.16
  -1 -17   1    0.18    0.19
   1 -17  -1    0.25    0.21
   0 -17   1   -0.05    0.15
   0 -17  -1    0.10    0.17
   0 -17   1    0.17    0.19
   0 -17  -1   -0.06    0.13
  -1 -17  -1    0.40    0.19
  -1 -17  -1    0.33    0.20
  -1 -17  -1    0.20    0.15
   1 -17   1    0.77    0.28
  -1 -17  -1    0.33    0.11
   2 -17   1    0.13    0.23
  -2 -17  -1    0.53    0.12
  -2 -17  -1    0.40    0.18
  -2 -17  -1    0.34    0.09
  -2 -17  -1    0.45    0.19
   3 -17   1    0.19    0.24
  -3 -17  -1    0.27    0.15
  -3  17  -1   -0.02    0.19
  -4 -17  -1    0.22    0.14
   4 -17   1    0.55    0.29
  -4  17  -1    0.44    0.25
   5 -17   1    0.24    0.27
  -5  17  -1    0.66    0.27
   6 -18  -1    1.33    0.39
  -6  18   1    1.37    0.38
   5 -18  -1    1.45    0.38
  -5 -18   1    2.10    0.26
  -5  18   1    2.58    0.44
   4 -18  -1    1.72    0.39
  -4 -18   1    1.97    0.28
   3 -18  -1    0.13    0.21
  -3 -18   1    0.17    0.09
  -3 -18   1   -0.13    0.10
  -3 -18   1   -0.24    0.15
  -2 -18   1    0.46    0.17
   2 -18  -1    0.36    0.25
  -2 -18   1    0.74    0.23
   1 -18  -1    0.74    0.21
  -1 -18   1    0.58    0.20
  -1 -18   1    0.52    0.23
   1 -18  -1    0.36    0.22
   0 -18  -1    0.16    0.17
   0 -18   1    0.04    0.17
   0 -18   1   -0.11    0.17
   0 -18  -1   -0.01    0.17
  -1 -18  -1    0.45    0.17
   1 -18   1    0.65    0.29
  -1 -18  -1    0.37    0.21
  -2 -18  -1    0.00    0.11
  -2 -18  -1   -0.05    0.17
   2 -18   1   -0.08    0.21
  -2 -18  -1    0.31    0.11
  -3 -18  -1    1.29    0.23
   3 -18   1    0.55    0.28
   4 -18   1    0.30    0.25
  -4 -18  -1    0.93    0.19
  -4  18  -1    1.49    0.35
   5 -18   1    0.20    0.27
  -5  18  -1    0.36    0.21
   5 -19  -1    0.29    0.27
  -4 -19   1    0.12    0.16
  -4 -19   1    0.57    0.10
  -4 -19   1    0.33    0.12
   4 -19  -1   -0.06    0.26
  -3 -19   1    2.49    0.36
   3 -19  -1    2.57    0.48
  -3 -19   1    3.05    0.30
  -3 -19   1    2.76    0.26
   2 -19  -1    2.21    0.43
  -2 -19   1    1.87    0.27
  -2 -19   1    2.17    0.35
  -1 -19   1    2.15    0.31
  -1 -19   1    1.98    0.38
   1 -19  -1    1.33    0.34
   0 -19  -1    0.73    0.23
   0 -19   1    0.85    0.28
   0 -19  -1    1.22    0.30
  -1 -19  -1    0.71    0.21
  -1 -19  -1    0.89    0.27
   1 -19   1    0.52    0.28
   2 -19   1    2.68    0.49
  -2 -19  -1    2.81    0.29
  -2 -19  -1    2.61    0.26
  -3 -19  -1    0.16    0.14
   3 -19   1   -0.07    0.23
  -3 -19  -1    0.53    0.11
  -3 -19  -1    0.26    0.13
   4 -19   1    0.99    0.34
  -4 -20   1   -0.02    0.08
   4 -20  -1    0.51    0.30
  -4 -20   1   -0.21    0.11
  -3 -20   1    0.39    0.17
   3 -20  -1    0.06    0.16
  -2 -20   1    8.20    0.50
   2 -20  -1    8.00    0.79
  -2 -20   1    9.26    0.60
   1 -20  -1   -0.10    0.20
  -1 -20   1   -0.13    0.14
  -1 -20   1    0.20    0.19
   0 -20   1    4.86    0.59
   0 -20  -1    4.35    0.53
   0 -20  -1    5.08    0.49
  -1 -20  -1    0.46    0.21
  -1 -20  -1    0.57    0.26
   1 -20   1    0.17    0.24
  -2 -20  -1    2.36    0.31
   2 -20   1    1.97    0.44
   3 -20   1    1.38    0.40
  -3 -20  -1    0.35    0.16
  -3 -20  -1    0.60    0.21
  -3 -20  -1    0.72    0.14
  -2 -21   1    0.71    0.23
   2 -21  -1    1.44    0.39
   1 -21  -1    2.55    0.46
  -1 -21   1    2.04    0.40
   0 -21  -1   -0.07    0.19
   0 -21   1   -0.02    0.20
  -1 -21  -1    2.35    0.36
  -1 -21  -1    2.07    0.37
   1 -21   1    2.81    0.47
 -10   0   2    4.99    0.55
 -10   0   2    5.68    0.43
  -9   0   2    0.22    0.20
  -9   0   2   -0.05    0.14
  -8   0   2    2.93    0.36
  -8   0   2    2.79    0.27
  -8   0   2    2.27    0.26
  -7   0   2   -0.02    0.10
  -7   0   2   -0.02    0.11
  -7   0   2    0.03    0.13
   6   0  -2    1.94    0.23
  -6   0   2    1.99    0.26
  -6   0   2    1.66    0.18
  -6   0   2    2.29    0.18
  -5   0   2   -0.05    0.08
   5   0  -2    0.00    0.08
  -5   0   2    0.12    0.12
  -5   0   2    0.03    0.07
  -4   0   2   98.54    2.42
   4   0  -2  100.29    2.41
  -4   0   2   99.67    2.21
  -3   0   2    0.01    0.09
   3   0  -2    0.07    0.09
   3   0  -2    0.01    0.09
  -3   0   2    0.02    0.06
  -3   0   2   -0.03    0.05
  -2   0   2  389.37    8.05
   2   0  -2  388.45    8.05
  -2   0   2  394.72    8.49
  -2   0   2  389.97    8.96
   2   0  -2  399.46    8.80
  -2   0   2  393.15    8.42
   1   0  -2    0.04    0.10
   1   0  -2   -0.05    0.07
  -1   0   2   -0.08    0.05
  -1   0   2   -0.04    0.07
  -1   0   2   -0.05    0.02
   0   0   2   51.60    1.17
   0   0  -2   50.60    1.18
   0   0  -2   52.45    1.19
   0   0  -2   52.12    1.29
   0   0  -2   52.33    1.18
   1   0   2   -0.10    0.08
  -1   0  -2    0.03    0.09
  -1   0  -2    0.07    0.11
  -1   0  -2   -0.05    0.05
  -1   0  -2    0.01    0.05
  -2   0  -2   10.48    0.30
  -2   0  -2   10.26    0.40
   2   0   2   10.79    0.41
  -2   0  -2   10.41    0.30
  -2   0  -2   10.74    0.42
  -3   0  -2   -0.06    0.14
  -3   0  -2   -0.04    0.05
  -3   0  -2    0.00    0.06
  -3   0  -2    0.17    0.12
   3   0   2    0.12    0.09
  -4   0  -2    9.09    0.33
  -4   0  -2    9.00    0.47
   4   0   2    9.62    0.43
  -4   0  -2    9.00    0.47
  -4   0  -2    9.83    0.34
  -5   0  -2    0.15    0.11
  -5   0  -2    0.02    0.09
   5   0   2    0.03    0.10
  -5   0  -2   -0.23    0.16
  -5   0  -2   -0.10    0.12
  -6   0  -2    2.48    0.24
  -6   0  -2    2.08    0.31
  -6   0  -2    2.43    0.25
  -6   0  -2    2.03    0.31
  -7   0  -2   -0.10    0.11
  -7   0  -2    0.27    0.21
  -7   0  -2   -0.21    0.14
  -8   0  -2    0.29    0.17
  -8   0  -2    0.31    0.21
  -9   0  -2   -0.03    0.17
  -9   0  -2    0.09    0.21
 -10  -1   2    0.63    0.21
 -10  -1   2    0.62    0.26
 -10   1   2    0.97    0.31
 -10   1   2    0.74    0.22
  -9  -1   2    1.70    0.33
  -9  -1   2    1.46    0.23
  -9   1   2    1.37    0.24
  -9   1   2    2.12    0.37
  -8  -1   2    1.00    0.18
  -8  -1   2    0.55    0.20
  -8  -1   2    1.24    0.18
  -8   1   2    1.05    0.26
  -8   1   2    1.40    0.22
  -7  -1   2    5.04    0.26
  -7  -1   2    4.92    0.28
  -7  -1   2    5.30    0.37
   7  -1  -2    5.20    0.34
  -7   1   2    4.78    0.39
  -7   1   2    5.41    0.32
  -7   1   2    5.42    0.31
   6  -1  -2    2.08    0.25
  -6  -1   2    1.67    0.13
  -6  -1   2    2.01    0.15
  -6  -1   2    1.69    0.23
   6   1  -2    1.89    0.21
  -6   1   2    1.68    0.18
  -6   1   2    1.95    0.21
  -6   1   2    1.86    0.27
  -5  -1   2   11.80    0.31
  -5  -1   2   11.38    0.30
  -5  -1   2   11.38    0.47
   5  -1  -2   11.60    0.49
   5   1  -2   12.38    0.45
  -5   1   2   12.09    0.41
  -5   1   2   11.37    0.39
  -5   1   2   11.77    0.50
  -4  -1   2   71.02    1.77
   4  -1  -2   70.64    1.80
  -4   1   2   74.05    1.66
  -4   1   2   70.38    1.63
   4   1  -2   70.55    1.75
  -4   1   2   68.97    1.80
  -3  -1   2   35.34    0.96
   3  -1  -2   36.25    0.99
  -3  -1   2   36.42    0.80
  -3  -1   2   34.33    0.81
   3   1  -2   36.11    0.84
  -3   1   2   35.57    0.87
   3   1  -2   36.95    0.96
  -3   1   2   36.03    0.99
  -3   1   2   38.37    0.89
   2  -1  -2   53.63    1.22
  -2  -1   2   53.09    1.20
  -2  -1   2   52.18    1.32
  -2  -1   2   54.12    1.20
   2  -1  -2   52.38    1.34
  -2  -1   2   51.81    1.20
   2   1  -2   54.49    1.32
  -2   1   2   52.88    1.22
   2   1  -2   52.60    1.19
  -2   1   2   54.90    1.34
  -1  -1   2   23.35    0.64
  -1  -1   2   22.07    0.56
  -1  -1   2   22.01    0.58
   1  -1  -2   24.06    0.58
   1  -1  -2   22.41    0.64
   1  -1  -2   22.94    0.59
  -1   1   2   21.78    0.63
   1   1  -2   21.73    0.63
   1   1  -2   22.21    0.58
   0  -1  -2   73.60    1.74
   0  -1  -2   72.37    1.61
   0  -1   2   72.36    1.61
   0  -1  -2   73.17    1.60
   0  -1  -2   71.52    1.61
   0   1  -2   71.65    1.61
   0   1   2   72.52    1.58
   0   1  -2   73.02    1.64
   0   1  -2   73.79    1.76
   1  -1   2   43.29    1.04
  -1  -1  -2   44.65    1.12
  -1  -1  -2   42.16    0.95
  -1  -1  -2   43.23    0.95
  -1  -1  -2   43.58    1.02
  -1   1  -2   43.90    1.03
  -1   1  -2   42.27    1.05
  -1   1  -2   44.43    1.03
  -1   1  -2   44.65    1.15
   1   1   2   41.73    0.98
   2  -1   2   12.77    0.48
  -2  -1  -2   12.72    0.46
  -2  -1  -2   13.13    0.43
   2   1   2   12.59    0.44
  -2   1  -2   12.62    0.46
  -2   1  -2   12.68    0.38
  -2   1  -2   12.57    0.49
  -2   1  -2   13.61    0.40
   3  -1   2   54.37    1.50
  -3  -1  -2   56.00    1.48
  -3  -1  -2   57.54    1.36
   3   1   2   56.14    1.44
  -3   1  -2   55.31    1.34
  -3   1  -2   56.64    1.40
  -3   1  -2   56.53    1.35
  -3   1  -2   57.18    1.53
  -4  -1  -2    0.49    0.07
  -4  -1  -2    0.43    0.18
   4  -1   2    0.45    0.14
  -4  -1  -2    0.58    0.17
  -4  -1  -2    0.64    0.08
  -4   1  -2    0.52    0.19
  -4   1  -2    0.53    0.12
  -4   1  -2    0.53    0.18
   4   1   2    0.55    0.12
  -4   1  -2    0.61    0.13
  -5  -1  -2    1.02    0.22
  -5  -1  -2    1.04    0.12
   5  -1   2    0.98    0.19
  -5  -1  -2    1.16    0.24
  -5  -1  -2    1.20    0.14
  -5   1  -2    1.09    0.23
  -5   1  -2    1.03    0.16
  -5   1  -2    0.98    0.17
  -5   1  -2    0.87    0.24
  -6  -1  -2    2.13    0.30
  -6  -1  -2    2.16    0.21
  -6  -1  -2    2.21    0.31
  -6  -1  -2    2.40    0.22
  -6   1  -2    2.27    0.31
  -6   1  -2    2.33    0.34
  -6   1  -2    2.16    0.25
  -7  -1  -2    1.21    0.27
  -7  -1  -2    1.35    0.21
  -7  -1  -2    1.07    0.26
  -7   1  -2    0.80    0.26
  -7   1  -2    0.68    0.25
  -7   1  -2    0.85    0.20
  -8  -1  -2   -0.05    0.16
  -8  -1  -2    0.05    0.21
  -8  -1  -2   -0.18    0.13
  -8   1  -2   -0.26    0.14
  -8   1  -2    0.28    0.21
  -9  -1  -2    0.63    0.23
  -9  -1  -2    0.48    0.23
  -9   1  -2    0.36    0.24
 -10  -2   2    1.04    0.29
 -10  -2   2    1.19    0.23
 -10   2   2    1.08    0.31
  -9  -2   2    1.46    0.22
  -9  -2   2    1.82    0.23
  -9  -2   2    1.81    0.31
  -9   2   2    2.23    0.38
  -9   2   2    1.75    0.27
  -8  -2   2    0.61    0.15
  -8  -2   2    0.81    0.21
  -8  -2   2    0.56    0.13
  -8   2   2    0.71    0.18
  -8   2   2    0.59    0.22
   7  -2  -2    0.23    0.12
  -7  -2   2    0.18    0.13
  -7  -2   2    0.06    0.07
  -7  -2   2    0.09    0.08
  -7   2   2    0.01    0.16
  -7   2   2   -0.03    0.11
   6  -2  -2   11.51    0.53
  -6  -2   2   12.15    0.50
  -6   2   2   10.69    0.43
  -6   2   2   10.45    0.54
  -6   2   2   11.06    0.45
   6   2  -2   10.73    0.41
  -5  -2   2    0.52    0.14
   5  -2  -2    0.57    0.15
   5   2  -2    0.27    0.09
  -5   2   2    0.38    0.16
  -5   2   2    0.28    0.11
  -5   2   2    0.32    0.12
   4  -2  -2    9.33    0.43
  -4  -2   2    9.48    0.38
  -4   2   2    9.17    0.34
  -4   2   2    9.52    0.42
  -4   2   2   10.15    0.36
   4   2  -2   10.39    0.36
  -3  -2   2  100.20    2.37
  -3  -2   2  101.87    2.17
   3  -2  -2   97.83    2.44
   3   2  -2  102.15    2.36
  -3   2   2   99.63    2.26
  -3   2   2  101.71    2.44
  -2  -2   2  173.76    4.01
  -2  -2   2  175.22    3.77
   2  -2  -2  178.78    4.06
  -2  -2   2  184.67    3.77
  -2  -2   2  174.33    3.66
   2   2  -2  174.42    3.64
  -2   2   2  169.71    4.04
   2   2  -2  173.94    4.00
  -2   2   2  174.49    3.83
  -1  -2   2   20.93    0.56
   1  -2  -2   21.01    0.55
  -1  -2   2   21.52    0.54
  -1  -2   2   21.76    0.54
   1  -2  -2   20.16    0.61
   1   2  -2   20.79    0.61
  -1   2   2   21.33    0.61
   1   2  -2   20.47    0.56
   0  -2   2   25.43    0.67
   0  -2  -2   26.45    0.71
   0  -2   2   26.76    0.66
   0  -2  -2   26.11    0.60
   0  -2  -2   25.35    0.65
   0  -2  -2   25.33    0.59
   0   2  -2   25.51    0.65
   0   2   2   26.60    0.70
   0   2  -2   25.60    0.74
   0   2  -2   25.00    0.67
   1  -2   2   50.38    1.23
  -1  -2  -2   51.14    1.30
   1  -2   2   52.96    1.37
  -1  -2  -2   52.00    1.19
  -1   2  -2   53.79    1.25
  -1   2  -2   53.57    1.25
  -1   2  -2   53.04    1.37
   2  -2   2   27.51    0.86
   2  -2   2   28.35    0.77
  -2  -2  -2   28.63    0.80
  -2  -2  -2   27.97    0.73
  -2   2  -2   29.64    0.76
   2   2   2   28.83    0.77
  -2   2  -2   29.23    0.81
  -2   2  -2   27.49    0.86
   3  -2   2   37.39    1.10
  -3  -2  -2   36.45    1.02
  -3  -2  -2   36.91    0.94
   3   2   2   36.59    0.97
  -3   2  -2   35.84    0.95
  -3   2  -2   36.75    1.11
  -3   2  -2   36.29    0.96
  -3   2  -2   36.12    1.02
   4  -2   2    5.67    0.36
  -4  -2  -2    5.40    0.36
  -4  -2  -2    5.94    0.34
  -4   2  -2    5.67    0.42
  -4   2  -2    6.20    0.32
  -4   2  -2    5.56    0.29
  -4   2  -2    5.89    0.40
   4   2   2    5.38    0.27
  -5  -2  -2    1.53    0.10
  -5  -2  -2    1.56    0.09
  -5  -2  -2    1.70    0.24
   5  -2   2    1.83    0.26
  -5  -2  -2    1.91    0.26
  -5   2  -2    1.88    0.28
  -5   2  -2    1.93    0.23
  -5   2  -2    1.62    0.20
  -5   2  -2    1.88    0.30
  -6  -2  -2    4.05    0.23
  -6  -2  -2    3.33    0.21
  -6  -2  -2    3.27    0.35
  -6  -2  -2    3.48    0.36
  -6   2  -2    3.42    0.31
  -6   2  -2    3.39    0.39
  -6   2  -2    4.09    0.45
  -7  -2  -2    7.72    0.52
  -7  -2  -2    7.85    0.50
  -7  -2  -2    8.35    0.39
  -7  -2  -2    7.60    0.38
  -7   2  -2    8.20    0.47
  -7   2  -2    7.18    0.55
  -8  -2  -2    0.84    0.26
  -8  -2  -2    0.36    0.16
  -8  -2  -2    0.79    0.27
  -8   2  -2    0.04    0.22
  -9  -2  -2    0.80    0.22
  -9   2  -2    0.91    0.30
 -10  -3   2    1.61    0.25
 -10  -3   2    1.22    0.27
 -10   3   2    0.70    0.30
  -9  -3   2    0.70    0.17
  -9  -3   2    1.08    0.17
  -9  -3   2    0.84    0.23
  -9   3   2    1.07    0.30
  -8  -3   2    0.17    0.17
  -8  -3   2    0.22    0.09
  -8  -3   2    0.39    0.10
  -8   3   2    0.28    0.16
  -8   3   2    0.15    0.17
   7  -3  -2    0.05    0.12
  -7  -3   2   -0.10    0.13
  -7   3   2   -0.14    0.11
  -7   3   2    0.32    0.19
   6  -3  -2    4.42    0.35
  -6  -3   2    4.25    0.28
  -6   3   2    4.05    0.28
  -6   3   2    3.98    0.29
  -6   3   2    4.12    0.40
   5  -3  -2   16.95    0.68
  -5  -3   2   17.50    0.59
  -5   3   2   18.03    0.70
  -5   3   2   18.37    0.59
   5   3  -2   18.58    0.52
  -5   3   2   18.30    0.57
  -4  -3   2   16.32    0.48
  -4  -3   2   16.38    0.52
   4  -3  -2   16.59    0.54
   4  -3  -2   16.52    0.62
  -4   3   2   15.84    0.50
  -4   3   2   15.36    0.51
   4   3  -2   16.59    0.48
  -4   3   2   16.84    0.61
   3  -3  -2   15.50    0.56
  -3  -3   2   15.33    0.44
  -3  -3   2   14.96    0.48
  -3   3   2   14.62    0.54
  -3   3   2   15.57    0.46
   3   3  -2   15.58    0.46
  -2  -3   2   66.46    1.61
   2  -3  -2   66.56    1.68
  -2  -3   2   64.78    1.46
   2  -3  -2   67.59    1.54
  -2   3   2   67.21    1.67
   2   3  -2   67.72    1.60
   2   3  -2   64.82    1.43
  -1  -3   2   10.45    0.36
   1  -3  -2    9.71    0.37
   1  -3  -2   10.36    0.30
   1  -3  -2   10.06    0.31
  -1  -3   2   10.20    0.30
  -1  -3   2   10.04    0.30
   1   3  -2    9.69    0.34
   1   3  -2    9.83    0.36
  -1   3   2   10.21    0.36
   0  -3   2   29.71    0.75
   0  -3  -2   29.95    0.80
   0   3   2   30.46    0.79
   0   3  -2   29.44    0.77
   0   3  -2   29.49    0.84
   1  -3   2   40.20    1.12
   1  -3   2   38.94    1.01
  -1  -3  -2   39.48    1.02
  -1  -3  -2   39.55    0.93
  -1   3  -2   39.91    1.01
  -1   3  -2   40.72    1.00
  -1   3  -2   40.67    1.11
  -2  -3  -2    5.79    0.25
   2  -3   2    6.14    0.32
   2  -3   2    5.69    0.34
  -2  -3  -2    5.63    0.26
  -2   3  -2    5.80    0.34
   2   3   2    5.78    0.23
  -2   3  -2    5.78    0.33
  -2   3  -2    5.75    0.27
   3  -3   2    6.34    0.37
  -3  -3  -2    5.89    0.30
  -3  -3  -2    6.05    0.30
  -3   3  -2    6.48    0.31
  -3   3  -2    6.34    0.40
  -3   3  -2    5.56    0.29
   3   3   2    6.10    0.24
  -3   3  -2    5.93    0.40
  -4  -3  -2   11.61    0.47
  -4  -3  -2   12.53    0.48
   4  -3   2   12.77    0.58
  -4   3  -2   12.79    0.59
  -4   3  -2   12.66    0.48
  -4   3  -2   11.96    0.59
  -4   3  -2   12.06    0.48
  -5  -3  -2    1.97    0.24
   5  -3   2    2.03    0.29
  -5  -3  -2    2.41    0.26
  -5   3  -2    2.52    0.33
  -5   3  -2    2.15    0.24
  -5   3  -2    1.88    0.31
  -6  -3  -2    7.04    0.23
  -6  -3  -2    6.86    0.45
  -6  -3  -2    6.45    0.41
  -6  -3  -2    7.01    0.23
  -6   3  -2    7.91    0.43
  -6   3  -2    6.95    0.52
  -6   3  -2    7.32    0.56
  -7  -3  -2    0.59    0.21
  -7  -3  -2    0.62    0.13
  -7  -3  -2    0.85    0.23
  -7  -3  -2    0.95    0.15
  -7   3  -2    1.12    0.30
  -7   3  -2    0.75    0.21
  -8  -3  -2    1.80    0.24
  -8  -3  -2    2.29    0.35
  -8  -3  -2    1.88    0.32
  -8   3  -2    1.76    0.38
  -9  -3  -2    0.08    0.15
  -9   3  -2    0.01    0.22
 -10  -4   2    0.21    0.14
 -10   4   2    0.31    0.28
  -9  -4   2    0.59    0.14
  -9  -4   2    0.40    0.18
  -9  -4   2    0.46    0.12
  -9   4   2    0.56    0.28
  -8  -4   2    0.23    0.15
  -8   4   2    0.55    0.21
  -8   4   2    0.13    0.18
   7  -4  -2    1.14    0.24
  -7  -4   2    1.25    0.21
  -7   4   2    1.33    0.29
  -7   4   2    1.03    0.20
  -6  -4   2    2.90    0.23
   6  -4  -2    3.08    0.35
  -6   4   2    3.01    0.37
  -6   4   2    2.62    0.25
   5  -4  -2    0.36    0.16
  -5  -4   2    0.74    0.13
  -5   4   2    0.62    0.13
  -5   4   2    0.57    0.17
   4  -4  -2   48.51    1.39
   4  -4  -2   47.29    1.23
  -4  -4   2   46.96    1.12
  -4  -4   2   49.66    1.24
  -4   4   2   51.00    1.39
  -4   4   2   48.87    1.22
  -3  -4   2    9.65    0.35
  -3  -4   2    9.50    0.32
   3  -4  -2   10.05    0.44
  -3   4   2    9.66    0.34
  -3   4   2    9.31    0.42
   3   4  -2    9.65    0.31
   2  -4  -2   23.34    0.63
   2  -4  -2   21.83    0.71
  -2  -4   2   23.16    0.60
   2   4  -2   23.25    0.63
   2   4  -2   22.64    0.54
  -2   4   2   22.52    0.70
  -1  -4   2   11.36    0.34
  -1  -4   2   11.57    0.39
   1  -4  -2   10.68    0.41
   1  -4  -2   11.66    0.33
   1  -4  -2   11.00    0.34
  -1  -4   2   11.02    0.33
  -1   4   2   11.48    0.41
   1   4  -2   11.03    0.40
   1   4  -2   11.58    0.37
   0  -4   2   32.25    0.81
   0  -4  -2   31.52    0.86
   0  -4   2   31.78    0.84
   0   4  -2   31.55    0.83
   0   4  -2   32.23    0.91
   0   4   2   33.06    0.85
   1  -4   2    4.78    0.29
  -1  -4  -2    4.69    0.23
   1  -4   2    4.87    0.30
  -1   4  -2    4.52    0.30
  -1   4  -2    4.79    0.29
  -1   4  -2    4.75    0.24
  -2  -4  -2   11.13    0.39
  -2  -4  -2   10.83    0.35
   2  -4   2   11.50    0.46
   2  -4   2   11.37    0.51
  -2   4  -2   11.46    0.49
  -2   4  -2   11.78    0.51
  -2   4  -2   12.20    0.42
  -3  -4  -2   10.76    0.39
  -3  -4  -2   11.03    0.41
   3  -4   2   11.10    0.53
  -3   4  -2   10.67    0.52
  -3   4  -2   11.88    0.45
  -3   4  -2   11.70    0.53
  -4  -4  -2    8.43    0.38
  -4  -4  -2    8.38    0.38
   4  -4   2    8.91    0.49
  -4   4  -2    7.99    0.48
  -4   4  -2    8.77    0.51
  -5  -4  -2   14.47    0.56
   5  -4   2   14.41    0.68
  -5  -4  -2   14.19    0.55
  -5   4  -2   15.48    0.59
  -5   4  -2   14.01    0.67
  -5   4  -2   15.28    0.74
   6  -4   2    1.24    0.27
  -6  -4  -2    1.15    0.21
  -6  -4  -2    1.30    0.23
  -6   4  -2    0.91    0.28
  -6   4  -2    1.26    0.22
  -7  -4  -2    3.16    0.19
  -7  -4  -2    3.76    0.20
  -7  -4  -2    3.65    0.36
  -7  -4  -2    3.77    0.36
  -7   4  -2    4.21    0.51
  -8  -4  -2    0.91    0.17
  -8  -4  -2    0.67    0.16
  -8  -4  -2    0.76    0.24
  -8   4  -2    0.57    0.28
  -9  -4  -2    2.00    0.27
  -9   4  -2    1.69    0.40
 -10  -5   2    0.24    0.13
 -10  -5   2   -0.17    0.11
 -10   5   2    0.09    0.24
  -9  -5   2    1.09    0.13
  -9  -5   2    0.87    0.11
  -9   5   2    0.91    0.29
  -8  -5   2    3.26    0.31
   8  -5  -2    4.02    0.46
  -8   5   2    3.38    0.45
  -7  -5   2    0.22    0.12
   7  -5  -2    0.10    0.16
  -7   5   2    0.40    0.20
  -6  -5   2    3.76    0.24
   6  -5  -2    4.64    0.44
  -6   5   2    3.49    0.27
  -6   5   2    3.71    0.40
  -5  -5   2    1.49    0.17
   5  -5  -2    1.62    0.27
  -5  -5   2    0.95    0.14
  -5   5   2    1.51    0.19
  -5   5   2    1.05    0.23
   4  -5  -2    2.61    0.25
  -4  -5   2    2.59    0.19
  -4  -5   2    2.52    0.18
   4  -5  -2    2.46    0.28
  -4   5   2    2.75    0.30
  -4   5   2    2.68    0.19
  -3  -5   2   14.57    0.42
   3  -5  -2   14.84    0.58
  -3  -5   2   14.04    0.45
   3  -5  -2   15.25    0.52
  -3   5   2   13.80    0.55
   2  -5  -2    7.35    0.30
   2  -5  -2    7.10    0.36
  -2  -5   2    7.77    0.30
  -2   5   2    8.23    0.37
   2   5  -2    7.87    0.30
   1  -5  -2   19.62    0.65
  -1  -5   2   21.20    0.60
  -1  -5   2   21.19    0.56
   1  -5  -2   21.34    0.55
   1  -5  -2   21.69    0.57
  -1  -5   2   21.57    0.55
   1   5  -2   20.92    0.57
  -1   5   2   21.12    0.65
   1   5  -2   22.45    0.65
   0  -5   2   24.47    0.66
   0  -5  -2   23.72    0.69
   0  -5   2   23.86    0.69
   0   5  -2   22.61    0.73
   0   5  -2   22.74    0.67
   0   5   2   24.10    0.67
   1  -5   2    3.82    0.28
  -1  -5  -2    4.45    0.22
   1  -5   2    4.15    0.23
   1  -5   2    4.36    0.30
  -1   5  -2    4.01    0.29
  -1   5  -2    4.30    0.29
   2  -5   2   23.72    0.84
  -2  -5  -2   24.95    0.69
   2  -5   2   24.63    0.77
  -2   5  -2   24.51    0.77
  -2   5  -2   24.24    0.83
  -2   5  -2   24.25    0.72
  -3  -5  -2    9.41    0.34
   3  -5   2    9.24    0.50
  -3  -5  -2    9.86    0.37
  -3   5  -2    9.94    0.42
  -3   5  -2    9.78    0.51
  -3   5  -2   10.04    0.51
   4  -5   2   10.46    0.55
  -4  -5  -2   10.03    0.39
  -4  -5  -2    9.94    0.40
  -4   5  -2   10.50    0.57
  -4   5  -2    8.84    0.44
  -4   5  -2    9.93    0.57
  -5  -5  -2    2.60    0.24
  -5  -5  -2    2.10    0.23
   5  -5   2    1.95    0.32
  -5   5  -2    1.78    0.32
  -6  -5  -2    3.68    0.29
  -6  -5  -2    3.94    0.33
   6  -5   2    3.25    0.41
  -6   5  -2    4.13    0.50
  -7  -5  -2    0.58    0.21
  -7   5  -2    1.13    0.30
  -8  -5  -2    0.73    0.23
  -8  -5  -2    0.90    0.15
  -8  -5  -2    0.75    0.14
  -8   5  -2    0.70    0.31
 -10  -6   2    0.23    0.12
 -10  -6   2    0.02    0.10
 -10   6   2    0.23    0.27
  -9   6   2    4.77    0.60
   8  -6  -2    0.58    0.24
  -8   6   2    0.71    0.25
   7  -6  -2    1.30    0.27
  -7  -6   2    1.56    0.19
  -7   6   2    1.33    0.29
  -6  -6   2    2.30    0.21
   6  -6  -2    2.47    0.35
  -6   6   2    1.79    0.31
  -5  -6   2    4.48    0.23
  -5  -6   2    4.09    0.24
   5  -6  -2    4.91    0.38
  -5   6   2    4.68    0.28
  -5   6   2    5.35    0.41
  -4  -6   2    1.19    0.14
   4  -6  -2    1.88    0.27
   4  -6  -2    1.08    0.21
  -4  -6   2    1.13    0.13
  -4   6   2    1.09    0.21
  -4   6   2    1.30    0.16
   3  -6  -2   11.86    0.53
   3  -6  -2   11.33    0.47
   3  -6  -2   11.79    0.42
  -3  -6   2   11.93    0.37
  -3   6   2   11.73    0.51
   2  -6  -2    0.12    0.07
   2  -6  -2    0.05    0.10
   2  -6  -2    0.18    0.09
  -2  -6   2    0.17    0.11
   2   6  -2    0.09    0.07
  -2   6   2    0.22    0.11
   1  -6  -2   37.17    0.90
   1  -6  -2   37.81    1.06
  -1  -6   2   37.29    0.90
   1  -6  -2   37.32    0.92
  -1  -6   2   36.60    0.90
  -1  -6   2   37.02    0.95
   1   6  -2   38.17    0.91
  -1   6   2   38.10    1.04
   1   6  -2   38.62    1.03
   0  -6   2   15.30    0.53
   0  -6   2   14.70    0.57
   0  -6   2   14.89    0.46
   0  -6  -2   15.06    0.51
   0  -6   2   14.95    0.48
   0   6   2   14.63    0.47
   0   6  -2   14.43    0.50
   0   6  -2   14.28    0.54
  -1  -6  -2    5.00    0.24
   1  -6   2    4.72    0.26
   1  -6   2    3.20    0.23
   1  -6   2    4.64    0.31
  -1   6  -2    4.71    0.32
  -1   6  -2    4.98    0.32
  -2  -6  -2    2.50    0.17
   2  -6   2    2.50    0.29
   2  -6   2    2.49    0.26
  -2   6  -2    2.29    0.26
  -2   6  -2    2.77    0.30
   3  -6   2   13.26    0.62
  -3  -6  -2   12.86    0.40
  -3  -6  -2   13.56    0.44
   3  -6   2   13.14    0.58
  -3   6  -2   13.14    0.51
  -3   6  -2   13.09    0.63
  -3   6  -2   12.56    0.59
   4  -6   2   17.24    0.77
  -4  -6  -2   17.61    0.54
  -4  -6  -2   18.31    0.57
  -4   6  -2   17.35    0.79
  -4   6  -2   17.31    0.74
  -5  -6  -2    3.19    0.25
  -5  -6  -2    2.70    0.21
   5  -6   2    2.29    0.35
  -5   6  -2    3.41    0.44
   6  -6   2    2.15    0.36
  -6  -6  -2    2.58    0.27
  -6   6  -2    2.22    0.39
  -7  -6  -2   -0.06    0.16
  -7   6  -2   -0.04    0.19
  -8  -6  -2    1.47    0.26
  -8  -6  -2    1.23    0.14
  -8  -6  -2    0.97    0.13
  -8   6  -2    1.27    0.39
 -10  -7   2    3.51    0.21
 -10  -7   2    3.24    0.20
 -10   7   2    4.41    0.61
  -9   7   2    2.73    0.47
   8  -7  -2    4.12    0.49
  -8   7   2    4.50    0.54
  -7  -7   2    0.42    0.13
   7  -7  -2    0.19    0.17
  -7   7   2    0.20    0.20
  -6  -7   2    1.35    0.16
   6  -7  -2    1.17    0.26
  -6  -7   2    1.40    0.16
  -6   7   2    2.00    0.34
  -5  -7   2    0.74    0.13
  -5  -7   2    0.64    0.12
   5  -7  -2    0.47    0.20
  -5   7   2    0.62    0.20
   4  -7  -2    0.42    0.17
  -4  -7   2    0.14    0.10
   4  -7  -2    0.41    0.18
  -4   7   2    0.28    0.15
  -3  -7   2   10.95    0.37
   3  -7  -2   10.78    0.42
   3  -7  -2   11.02    0.52
  -3   7   2   10.55    0.50
   2  -7  -2   17.34    0.55
   2  -7  -2   16.71    0.52
  -2  -7   2   16.83    0.52
   2  -7  -2   16.58    0.63
  -2   7   2   16.54    0.61
   2   7  -2   17.62    0.53
  -1  -7   2   18.32    0.57
   1  -7  -2   17.88    0.49
   1  -7  -2   16.68    0.61
  -1  -7   2   17.44    0.49
   1  -7  -2   17.06    0.50
  -1  -7   2   17.25    0.48
   1   7  -2   17.34    0.58
  -1   7   2   18.53    0.60
   0  -7  -2    0.95    0.15
   0  -7   2    1.37    0.16
   0  -7   2    1.16    0.19
   0  -7   2    1.04    0.19
   0  -7   2    1.15    0.14
   0   7  -2    1.15    0.18
   0   7   2    1.19    0.15
   0   7  -2    1.14    0.17
   1  -7   2    4.37    0.32
  -1  -7  -2    4.33    0.24
   1  -7   2    4.31    0.26
  -1   7  -2    4.40    0.31
  -1   7  -2    4.81    0.34
   2  -7   2    2.29    0.28
  -2  -7  -2    2.07    0.16
   2  -7   2    2.23    0.30
  -2   7  -2    2.14    0.29
  -2   7  -2    1.99    0.27
  -3  -7  -2    0.16    0.08
   3  -7   2    0.04    0.16
   3  -7   2    0.03    0.14
  -3   7  -2   -0.25    0.12
  -3   7  -2   -0.04    0.18
  -4  -7  -2    3.55    0.21
  -4  -7  -2    3.70    0.23
   4  -7   2    4.26    0.44
  -4   7  -2    3.99    0.45
   5  -7   2    1.03    0.28
  -5  -7  -2    1.28    0.18
  -5  -7  -2    1.38    0.16
  -5   7  -2    0.97    0.28
  -6  -7  -2    4.85    0.34
   6  -7   2    4.42    0.51
  -6   7  -2    5.11    0.57
  -7  -7  -2    0.26    0.17
  -7   7  -2    0.21    0.22
  -8   7  -2   -0.04    0.24
 -10   8   2    0.68    0.32
  -9   8   2    1.98    0.42
   8  -8  -2    5.68    0.60
  -8   8   2    5.81    0.63
   7  -8  -2    1.78    0.33
  -7   8   2    1.77    0.34
   6  -8  -2    0.19    0.19
  -6  -8   2    0.27    0.09
  -6  -8   2    0.31    0.11
  -6   8   2    0.45    0.22
  -5  -8   2    0.87    0.13
   5  -8  -2    0.59    0.21
  -5   8   2    1.08    0.24
  -4  -8   2    2.19    0.18
   4  -8  -2    2.06    0.31
   4  -8  -2    2.18    0.27
  -4   8   2    2.12    0.29
  -3  -8   2    4.25    0.26
   3  -8  -2    4.46    0.28
   3  -8  -2    3.83    0.37
  -3   8   2    4.61    0.33
   2  -8  -2   17.50    0.69
   2  -8  -2   17.68    0.55
   2  -8  -2   18.18    0.59
  -2  -8   2   18.18    0.56
   2   8  -2   18.68    0.57
  -2   8   2   17.12    0.65
   1  -8  -2    2.65    0.16
   1  -8  -2    3.08    0.19
  -1  -8   2    2.70    0.27
   1  -8  -2    2.98    0.28
  -1  -8   2    2.69    0.18
  -1  -8   2    2.55    0.24
  -1  -8   2    2.61    0.16
  -1   8   2    2.61    0.24
   1   8  -2    2.94    0.22
   0  -8   2    0.56    0.11
   0  -8   2    0.54    0.14
   0  -8   2    0.36    0.16
   0  -8  -2    0.64    0.15
   0  -8   2    0.66    0.18
   0   8   2    0.53    0.11
   0   8  -2    0.27    0.13
   0   8  -2    0.33    0.13
   1  -8   2    4.28    0.28
   1  -8   2    4.05    0.34
  -1  -8  -2    3.88    0.24
   1  -8   2    4.26    0.34
  -1   8  -2    3.84    0.30
  -1   8  -2    3.98    0.32
  -2  -8  -2   11.86    0.42
   2  -8   2   11.47    0.59
   2  -8   2   12.74    0.58
  -2   8  -2   11.63    0.58
  -2   8  -2   12.15    0.55
   3  -8   2   13.88    0.69
   3  -8   2   12.65    0.67
  -3  -8  -2   13.94    0.44
  -3   8  -2   14.68    0.70
  -4  -8  -2   14.78    0.46
  -4  -8  -2   15.05    0.45
   4  -8   2   13.59    0.72
  -4   8  -2   14.51    0.74
  -5  -8  -2    1.60    0.18
   5  -8   2    1.59    0.32
  -5   8  -2    1.87    0.35
  -6  -8  -2    6.40    0.36
   6  -8   2    6.85    0.54
  -6   8  -2    6.24    0.64
  -7  -8  -2    0.27    0.15
  -7   8  -2    0.05    0.23
  -8   8  -2   -0.02    0.22
 -10   9   2   -0.05    0.25
  -9   9   2    0.46    0.31
   8  -9  -2   -0.21    0.12
  -8   9   2    0.06    0.19
   7  -9  -2    2.25    0.39
  -7   9   2    1.68    0.34
  -6  -9   2    4.76    0.25
   6  -9  -2    4.42    0.50
  -6   9   2    5.13    0.52
   5  -9  -2    3.14    0.41
  -5  -9   2    3.03    0.21
  -5   9   2    3.01    0.39
   4  -9  -2    2.83    0.31
  -4  -9   2    2.92    0.21
   4  -9  -2    2.83    0.36
  -4   9   2    3.21    0.38
  -3  -9   2    2.85    0.23
   3  -9  -2    3.48    0.29
   3  -9  -2    3.03    0.31
   3  -9  -2    2.81    0.35
  -3   9   2    3.04    0.32
   2  -9  -2    4.44    0.28
   2  -9  -2    4.91    0.36
   2  -9  -2    4.19    0.24
  -2  -9   2    4.84    0.31
  -2  -9   2    4.05    0.28
   2   9  -2    4.03    0.23
  -2   9   2    4.22    0.31
  -1  -9   2   19.29    0.55
   1  -9  -2   19.62    0.71
   1  -9  -2   18.71    0.54
   1  -9  -2   18.93    0.57
  -1  -9   2   18.62    0.54
  -1  -9   2   17.97    0.63
  -1  -9   2   17.81    0.67
   1   9  -2   19.31    0.65
  -1   9   2   19.48    0.66
   0  -9   2   12.12    0.46
   0  -9   2   12.08    0.53
   0  -9   2   11.70    0.44
   0  -9   2   12.39    0.56
   0  -9  -2   12.10    0.50
   0   9  -2   11.73    0.52
   0   9   2   11.65    0.44
   1  -9   2    6.14    0.42
   1  -9   2    5.31    0.39
  -1  -9  -2    5.32    0.30
   1  -9   2    5.37    0.34
  -1   9  -2    5.18    0.38
  -1   9  -2    5.32    0.35
   2  -9   2    1.00    0.23
  -2  -9  -2    1.22    0.15
   2  -9   2    1.46    0.26
  -2   9  -2    1.24    0.27
  -3  -9  -2    6.38    0.27
   3  -9   2    6.01    0.47
  -3   9  -2    7.20    0.49
  -4  -9  -2   15.05    0.46
   4  -9   2   15.92    0.81
  -4   9  -2   17.20    0.83
  -5  -9  -2    5.97    0.30
   5  -9   2    5.42    0.57
  -5   9  -2    5.89    0.59
   6  -9   2    5.29    0.59
  -6  -9  -2    4.63    0.31
  -6   9  -2    5.16    0.60
  -7  -9  -2   -0.12    0.13
   7  -9   2   -0.46    0.12
  -7   9  -2    0.07    0.26
  -8   9  -2    0.02    0.20
   9 -10  -2    0.35    0.24
  -9  10   2    0.43    0.26
   8 -10  -2    0.79    0.27
  -8  10   2    0.87    0.30
   7 -10  -2    1.91    0.38
  -7  10   2    1.77    0.38
   6 -10  -2    8.26    0.59
  -6 -10   2    7.84    0.32
  -6  10   2    7.39    0.56
  -5 -10   2    9.25    0.36
   5 -10  -2   10.70    0.65
  -5  10   2   10.11    0.60
   4 -10  -2    6.46    0.48
  -4 -10   2    6.22    0.31
  -4  10   2    6.67    0.46
   3 -10  -2    8.69    0.48
  -3 -10   2    8.07    0.38
   3 -10  -2    7.78    0.40
  -3 -10   2    7.97    0.37
   3 -10  -2    7.58    0.49
  -3  10   2    8.14    0.48
  -2 -10   2    5.79    0.35
   2 -10  -2    5.37    0.40
  -2 -10   2    4.95    0.33
   2 -10  -2    5.70    0.33
   2 -10  -2    5.59    0.29
  -2  10   2    5.75    0.37
   2  10  -2    5.35    0.27
  -1 -10   2    1.01    0.22
  -1 -10   2    1.38    0.23
   1 -10  -2    1.11    0.15
   1 -10  -2    1.31    0.22
   1 -10  -2    1.19    0.14
  -1 -10   2    1.23    0.14
  -1 -10   2    1.23    0.16
   1  10  -2    1.14    0.18
  -1  10   2    1.41    0.20
   0 -10   2    1.20    0.19
   0 -10  -2    1.30    0.21
   0 -10   2    1.10    0.16
   0 -10  -2    1.19    0.10
   0 -10  -2    1.13    0.09
   0 -10   2    1.36    0.24
   0 -10   2    1.04    0.21
   0  10   2    1.33    0.17
   0  10  -2    1.61    0.24
  -1 -10  -2    0.15    0.11
   1 -10   2    0.07    0.13
   1 -10   2    0.10    0.15
   1 -10   2    0.01    0.18
  -1  10  -2    0.06    0.14
   2 -10   2   10.24    0.61
  -2 -10  -2   10.39    0.41
   2 -10   2   10.73    0.56
  -2  10  -2   10.67    0.59
   3 -10   2   12.52    0.71
  -3 -10  -2   13.42    0.44
  -3  10  -2   12.89    0.69
   4 -10   2    2.23    0.40
  -4  10  -2    1.30    0.30
   5 -10   2   -0.14    0.19
  -5 -10  -2    0.12    0.11
  -5  10  -2    0.15    0.22
  -6 -10  -2    1.40    0.18
   6 -10   2    1.77    0.37
  -6  10  -2    1.40    0.36
  -7 -10  -2    0.91    0.18
   7 -10   2    0.81    0.27
  -7  10  -2    0.74    0.30
  -8  10  -2    0.76    0.33
   9 -11  -2    0.62    0.23
  -9  11   2    0.85    0.33
   8 -11  -2    2.19    0.43
  -8  11   2    1.27    0.37
  -7 -11   2    0.85    0.14
   7 -11  -2    0.90    0.28
  -7  11   2    0.76    0.28
   6 -11  -2    0.21    0.20
  -6 -11   2    0.33    0.12
  -6  11   2    0.27    0.21
   5 -11  -2    0.70    0.25
  -5 -11   2    0.99    0.15
  -5 -11   2    1.21    0.16
  -5  11   2    0.95    0.25
  -4 -11   2   15.69    0.55
  -4 -11   2   15.26    0.52
   4 -11  -2   15.82    0.78
  -4  11   2   15.11    0.73
  -3 -11   2   12.10    0.50
   3 -11  -2   12.36    0.53
   3 -11  -2   12.31    0.66
   3 -11  -2   12.57    0.59
  -3 -11   2   11.50    0.48
  -3  11   2   13.12    0.63
  -2 -11   2   13.81    0.55
   2 -11  -2   15.45    0.62
   2 -11  -2   14.12    0.67
   2 -11  -2   13.45    0.54
  -2 -11   2   13.82    0.38
  -2 -11   2   13.37    0.38
   2 -11  -2   13.67    0.50
  -2 -11   2   14.65    0.58
  -2  11   2   14.53    0.62
   2  11  -2   13.68    0.50
  -1 -11   2    3.51    0.36
   1 -11  -2    3.64    0.25
  -1 -11   2    3.44    0.32
   1 -11  -2    3.19    0.34
   1 -11  -2    3.61    0.23
  -1 -11   2    3.72    0.25
  -1 -11   2    3.37    0.22
  -1  11   2    3.42    0.27
   1  11  -2    3.26    0.26
   0 -11  -2    4.93    0.22
   0 -11  -2    5.02    0.21
   0 -11   2    5.53    0.33
   0 -11   2    4.93    0.30
   0 -11  -2    4.80    0.33
   0 -11   2    4.91    0.38
   0 -11   2    5.57    0.42
   0  11   2    5.21    0.28
   0  11  -2    4.91    0.35
   1 -11   2   -0.01    0.13
   1 -11   2    0.08    0.15
  -1 -11  -2    0.08    0.12
   1 -11   2    0.44    0.21
  -1  11  -2    0.16    0.16
  -2 -11  -2    3.25    0.24
   2 -11   2    3.54    0.42
  -2  11  -2    3.30    0.41
  -3 -11  -2    9.34    0.37
   3 -11   2   10.15    0.66
  -3  11  -2   10.42    0.64
   4 -11   2    0.03    0.18
  -4  11  -2    0.06    0.19
   5 -11   2    0.24    0.21
  -5 -11  -2    0.38    0.12
  -5  11  -2    0.43    0.27
   6 -11   2    0.21    0.19
  -6 -11  -2   -0.10    0.12
  -6  11  -2   -0.08    0.20
   7 -11   2    0.21    0.22
  -7  11  -2    0.43    0.25
   9 -12  -2    1.61    0.39
  -9  12   2    1.87    0.45
   8 -12  -2    0.32    0.25
  -8  12   2    0.24    0.24
   7 -12  -2    2.08    0.40
  -7 -12   2    2.54    0.21
  -7  12   2    2.20    0.40
   6 -12  -2    4.48    0.57
  -6 -12   2    3.98    0.26
  -6  12   2    5.01    0.56
  -5 -12   2    4.49    0.28
   5 -12  -2    4.71    0.54
  -5  12   2    5.50    0.55
   4 -12  -2    3.34    0.45
  -4 -12   2    3.03    0.26
  -4 -12   2    3.52    0.25
  -4  12   2    4.03    0.46
  -3 -12   2    4.28    0.32
  -3 -12   2    3.44    0.28
   3 -12  -2    3.34    0.41
   3 -12  -2    4.22    0.36
  -3  12   2    3.03    0.37
  -2 -12   2    1.64    0.16
  -2 -12   2    1.97    0.25
   2 -12  -2    2.25    0.26
  -2 -12   2    1.71    0.26
   2 -12  -2    2.19    0.32
  -2 -12   2    2.08    0.17
   2 -12  -2    2.34    0.30
  -2  12   2    2.26    0.29
   1 -12  -2   36.08    1.04
  -1 -12   2   39.08    1.03
  -1 -12   2   37.69    1.04
  -1 -12   2   37.51    1.12
  -1 -12   2   37.13    1.21
   1 -12  -2   39.38    1.03
   1 -12  -2   38.88    1.23
   1  12  -2   37.57    1.14
  -1  12   2   37.89    1.14
   0 -12   2   11.13    0.53
   0 -12  -2   10.65    0.38
   0 -12   2   11.21    0.59
   0 -12   2   12.11    0.58
   0 -12   2   10.76    0.49
   0 -12  -2   11.20    0.54
   0 -12  -2   10.76    0.36
   0  12  -2   10.48    0.53
   1 -12   2    4.72    0.36
  -1 -12  -2    4.96    0.33
   1 -12   2    5.40    0.45
   1 -12   2    5.02    0.49
  -1  12  -2    5.58    0.42
   2 -12   2    0.90    0.25
  -2 -12  -2    0.81    0.15
  -2  12  -2    0.74    0.24
   3 -12   2    0.63    0.27
  -3  12  -2    0.60    0.24
   4 -12   2    4.13    0.55
  -4  12  -2    4.59    0.53
   5 -12   2    0.09    0.23
  -5 -12  -2   -0.01    0.10
  -5  12  -2   -0.13    0.19
   6 -12   2    1.48    0.37
  -6 -12  -2    1.84    0.18
  -6  12  -2    1.57    0.37
   7 -12   2    1.45    0.36
  -7  12  -2    1.12    0.34
   8 -13  -2    3.56    0.55
  -8  13   2    3.35    0.51
   7 -13  -2    1.42    0.35
  -7 -13   2    0.78    0.14
  -7  13   2    0.55    0.26
   6 -13  -2    2.54    0.44
  -6 -13   2    1.94    0.20
  -6  13   2    2.49    0.42
  -5 -13   2    1.39    0.19
   5 -13  -2    1.81    0.36
  -5  13   2    1.12    0.29
  -4 -13   2    1.20    0.20
  -4 -13   2    1.30    0.20
   4 -13  -2    1.66    0.33
  -4  13   2    1.27    0.29
  -3 -13   2    2.94    0.31
  -3 -13   2    3.28    0.31
   3 -13  -2    3.76    0.45
  -3  13   2    3.48    0.41
   2 -13  -2    5.15    0.36
  -2 -13   2    5.06    0.36
  -2 -13   2    4.51    0.37
   2 -13  -2    4.68    0.49
  -2 -13   2    4.69    0.25
   2 -13  -2    5.31    0.44
  -2 -13   2    4.68    0.23
  -2  13   2    4.71    0.43
   1 -13  -2    0.42    0.20
  -1 -13   2    0.23    0.13
   1 -13  -2    0.13    0.09
   1 -13  -2    0.35    0.18
  -1 -13   2    0.26    0.11
  -1 -13   2    0.46    0.20
   1 -13  -2    0.27    0.14
  -1 -13   2   -0.14    0.14
  -1  13   2    0.11    0.10
   1  13  -2    0.13    0.11
   0 -13  -2    1.32    0.24
   0 -13  -2    1.22    0.15
   0 -13  -2    1.42    0.17
   0 -13   2    1.13    0.22
   0 -13   2    1.20    0.26
   0 -13   2    1.60    0.28
   0  13  -2    1.36    0.24
   1 -13   2    0.93    0.22
   1 -13   2    1.49    0.31
  -1 -13  -2    1.79    0.25
  -1  13  -2    1.16    0.26
   2 -13   2    5.80    0.58
  -2 -13  -2    6.11    0.35
  -2  13  -2    6.27    0.48
   3 -13   2    3.08    0.46
  -3  13  -2    3.64    0.47
   4 -13   2    2.55    0.45
  -4  13  -2    2.79    0.45
  -5 -13  -2    0.94    0.14
   5 -13   2    0.43    0.28
  -5  13  -2    0.42    0.28
   6 -13   2    0.57    0.26
  -6  13  -2    0.73    0.31
   7 -13   2    0.36    0.24
  -7  13  -2    0.43    0.25
   8 -14  -2    0.07    0.22
  -8  14   2   -0.24    0.17
   7 -14  -2    0.20    0.22
  -7 -14   2    0.02    0.10
  -7  14   2    0.24    0.22
   6 -14  -2    1.61    0.39
  -6 -14   2    1.96    0.21
  -6  14   2    1.94    0.38
   5 -14  -2    1.06    0.31
  -5 -14   2    0.95    0.18
  -5  14   2    1.65    0.35
  -4 -14   2    0.14    0.13
  -4 -14   2    0.29    0.15
   4 -14  -2    0.15    0.20
  -4  14   2    0.29    0.17
   3 -14  -2    0.04    0.16
  -3 -14   2    0.24    0.15
  -3 -14   2    0.05    0.15
  -3  14   2    0.16    0.17
   2 -14  -2    3.64    0.43
  -2 -14   2    4.54    0.39
   2 -14  -2    4.28    0.38
  -2 -14   2    4.78    0.26
  -2 -14   2    5.15    0.38
  -2 -14   2    4.37    0.28
  -2  14   2    4.84    0.45
   1 -14  -2    0.58    0.20
   1 -14  -2    0.45    0.16
  -1 -14   2    0.46    0.21
   1 -14  -2    0.47    0.21
  -1 -14   2    0.45    0.14
  -1 -14   2    0.51    0.17
  -1 -14   2    0.59    0.21
   0 -14   2    2.67    0.38
   0 -14  -2    1.62    0.18
   0 -14  -2    2.04    0.22
   0 -14   2    2.10    0.27
   0 -14  -2    1.84    0.29
   0  14  -2    1.93    0.29
   1 -14   2   -0.03    0.18
  -1 -14  -2    0.19    0.05
  -1 -14  -2    0.06    0.05
  -1 -14  -2    0.28    0.15
  -1  14  -2    0.05    0.16
   2 -14   2    0.67    0.25
  -2 -14  -2    0.93    0.18
  -2  14  -2    0.91    0.25
   3 -14   2    0.79    0.28
  -3  14  -2    0.86    0.28
   4 -14   2    0.34    0.25
  -4  14  -2    0.38    0.23
   5 -14   2    0.47    0.24
  -5 -14  -2    0.34    0.11
  -5  14  -2    0.45    0.27
   6 -14   2   -0.30    0.17
  -6  14  -2    0.12    0.20
   8 -15  -2    0.75    0.30
  -8  15   2    0.14    0.23
   7 -15  -2    0.22    0.23
  -7 -15   2    0.05    0.11
  -7  15   2    0.48    0.24
   6 -15  -2    1.17    0.37
  -6 -15   2    1.40    0.19
  -6  15   2    1.28    0.33
   5 -15  -2    3.02    0.48
  -5 -15   2    2.92    0.28
  -5  15   2    3.21    0.47
  -4 -15   2    2.63    0.29
   4 -15  -2    1.97    0.40
  -4 -15   2    1.53    0.24
  -4  15   2    2.48    0.39
   3 -15  -2    0.80    0.28
  -3 -15   2    0.90    0.12
  -3 -15   2    1.11    0.23
  -3 -15   2    0.99    0.23
  -3 -15   2    1.12    0.13
  -3  15   2    1.19    0.27
  -2 -15   2    0.10    0.12
  -2 -15   2    0.31    0.12
   2 -15  -2   -0.04    0.14
  -2 -15   2    0.29    0.20
   2 -15  -2    0.45    0.22
  -2 -15   2    0.27    0.18
  -2  15   2    0.38    0.17
   1 -15  -2    2.45    0.33
  -1 -15   2    2.69    0.34
  -1 -15   2    2.92    0.31
  -1 -15   2    2.64    0.37
   1 -15  -2    3.44    0.34
   1 -15  -2    2.88    0.39
   0 -15  -2    3.07    0.28
   0 -15  -2    3.73    0.40
   0 -15   2    3.16    0.35
   0 -15   2    2.89    0.40
   0 -15  -2    3.35    0.35
  -1 -15  -2    2.83    0.18
  -1 -15  -2    2.69    0.21
   1 -15   2    2.34    0.38
  -1 -15  -2    2.96    0.35
  -1  15  -2    2.59    0.38
   2 -15   2    1.20    0.33
  -2 -15  -2    1.63    0.24
  -2  15  -2    1.72    0.34
   3 -15   2   -0.07    0.20
  -3  15  -2    0.63    0.22
   4 -15   2    1.45    0.40
  -4  15  -2    1.57    0.36
  -5 -15  -2    1.70    0.18
   5 -15   2    1.50    0.39
  -5  15  -2    0.82    0.27
   6 -15   2   -0.16    0.21
  -6  15  -2   -0.15    0.14
   7 -16  -2    0.45    0.25
  -7  16   2    0.48    0.24
  -6 -16   2   -0.07    0.12
   6 -16  -2    0.34    0.24
  -6  16   2    0.27    0.20
   5 -16  -2    0.32    0.27
  -5 -16   2   -0.11    0.13
  -5  16   2    0.31    0.22
   4 -16  -2    0.66    0.29
  -4 -16   2    0.54    0.20
  -4  16   2    0.75    0.25
  -3 -16   2    2.02    0.18
  -3 -16   2    1.61    0.27
  -3 -16   2    2.13    0.20
  -3 -16   2    2.18    0.31
   3 -16  -2    1.85    0.37
  -3  16   2    1.84    0.34
  -2 -16   2    1.36    0.19
  -2 -16   2    1.23    0.26
  -2 -16   2    1.13    0.20
  -2 -16   2    1.64    0.29
   2 -16  -2    1.37    0.32
   2 -16  -2    1.21    0.25
  -1 -16   2    0.74    0.20
  -1 -16   2    0.25    0.20
   1 -16  -2    0.34    0.20
   1 -16  -2    0.45    0.17
   0 -16   2    3.83    0.39
   0 -16  -2    3.40    0.37
   0 -16  -2    3.57    0.26
   0 -16  -2    4.54    0.47
   0 -16   2    4.12    0.49
   0 -16  -2    4.36    0.33
  -1 -16  -2    0.39    0.17
   1 -16   2    0.32    0.25
  -1 -16  -2    0.24    0.13
  -1 -16  -2    0.20    0.16
  -1 -16  -2    0.36    0.10
  -1  16  -2    0.35    0.19
  -2 -16  -2   -0.11    0.12
   2 -16   2    0.35    0.22
  -2  16  -2    0.25    0.20
   3 -16   2    0.42    0.23
  -3  16  -2    0.49    0.22
   4 -16   2    1.80    0.44
  -4  16  -2    2.42    0.43
   5 -16   2    0.33    0.27
  -5  16  -2    0.20    0.19
   6 -17  -2    1.06    0.35
  -6 -17   2    0.98    0.19
  -6  17   2    0.38    0.25
   5 -17  -2    0.29    0.24
  -5 -17   2    0.51    0.18
  -5  17   2    0.26    0.28
  -4 -17   2    1.75    0.28
   4 -17  -2    0.92    0.31
  -4 -17   2    1.75    0.15
  -4 -17   2    1.78    0.15
  -4  17   2    2.44    0.41
  -3 -17   2    0.67    0.16
  -3 -17   2    0.38    0.11
  -3 -17   2    0.44    0.21
   3 -17  -2    0.78    0.31
  -3 -17   2    1.14    0.25
  -2 -17   2    1.02    0.21
   2 -17  -2    1.35    0.35
  -2 -17   2    1.34    0.28
   1 -17  -2    0.05    0.16
  -1 -17   2   -0.07    0.16
   1 -17  -2    0.09    0.18
  -1 -17   2    0.00    0.15
   0 -17   2    0.65    0.26
   0 -17  -2    0.42    0.17
   0 -17  -2    0.59    0.22
  -1 -17  -2    0.05    0.16
  -1 -17  -2    0.05    0.09
  -1 -17  -2    0.00    0.13
  -1 -17  -2   -0.02    0.16
   1 -17   2    0.25    0.25
  -2 -17  -2    0.26    0.19
  -2 -17  -2    0.17    0.11
  -2 -17  -2    0.25    0.08
   2 -17   2    0.01    0.20
  -2  17  -2    0.59    0.21
  -3 -17  -2    0.37    0.15
   3 -17   2    0.15    0.24
  -3  17  -2    0.11    0.18
   4 -17   2    0.49    0.30
  -4 -17  -2    0.46    0.15
  -4  17  -2    0.29    0.22
   5 -17   2    1.93    0.45
  -5  17  -2    1.65    0.40
   6 -18  -2    0.14    0.21
  -6  18   2    0.54    0.26
  -5 -18   2    0.34    0.17
   5 -18  -2    0.11    0.19
  -5  18   2    0.50    0.22
   4 -18  -2    0.30    0.25
  -4 -18   2    0.47    0.13
  -4 -18   2    0.63    0.11
  -4 -18   2    0.54    0.21
   3 -18  -2    0.21    0.23
  -3 -18   2    0.24    0.15
  -3 -18   2    0.23    0.18
  -3 -18   2    0.12    0.10
  -2 -18   2    1.28    0.25
  -2 -18   2    1.10    0.28
   2 -18  -2    0.96    0.29
   1 -18  -2   -0.05    0.18
  -1 -18   2   -0.16    0.15
  -1 -18   2    0.10    0.18
   1 -18  -2    0.24    0.18
   0 -18  -2    0.82    0.25
   0 -18   2    0.64    0.28
   0 -18  -2    0.66    0.22
   1 -18   2    0.86    0.29
  -1 -18  -2    0.33    0.19
  -1 -18  -2    0.55    0.18
  -2 -18  -2    0.12    0.10
  -2 -18  -2   -0.08    0.12
  -2 -18  -2    0.27    0.17
   2 -18   2    0.23    0.22
   3 -18   2    0.38    0.25
  -3 -18  -2    0.13    0.15
  -3  18  -2    0.21    0.20
   4 -18   2    0.10    0.20
  -4  18  -2    0.19    0.19
  -5 -19   2    0.04    0.10
   5 -19  -2    0.33    0.26
  -4 -19   2    1.01    0.15
   4 -19  -2    0.72    0.33
  -4 -19   2    0.61    0.24
  -4 -19   2    0.69    0.17
  -3 -19   2    1.93    0.33
   3 -19  -2    2.08    0.42
  -3 -19   2    1.30    0.24
  -2 -19   2    2.70    0.34
  -2 -19   2    1.54    0.33
   2 -19  -2    2.37    0.44
  -1 -19   2   -0.03    0.17
  -1 -19   2    0.10    0.20
   1 -19  -2    0.11    0.20
   1 -19  -2   -0.12    0.17
   0 -19  -2    0.38    0.22
   0 -19  -2    0.71    0.26
   0 -19   2    0.42    0.25
  -1 -19  -2    0.84    0.26
   1 -19   2    1.34    0.37
  -1 -19  -2    1.09    0.23
  -2 -19  -2    0.76    0.15
   2 -19   2    0.72    0.33
  -2 -19  -2    0.53    0.18
  -3 -19  -2    1.59    0.17
  -3 -19  -2    1.35    0.23
   3 -19   2    1.61    0.42
  -3 -19  -2    1.50    0.19
  -4 -20   2    0.30    0.15
   4 -20  -2   -0.19    0.17
   3 -20  -2    1.48    0.40
  -3 -20   2    1.89    0.30
   2 -20  -2    0.37    0.26
  -2 -20   2    0.12    0.18
  -2 -20   2    0.12    0.18
   1 -20  -2    1.27    0.34
  -1 -20   2    1.21    0.34
   0 -20  -2    0.06    0.18
   0 -20  -2    0.52    0.26
   0 -20   2    0.37    0.28
   1 -20   2    0.28    0.26
  -1 -20  -2    0.53    0.22
   2 -20   2    1.60    0.44
  -2 -20  -2    1.17    0.24
  -2 -21   2    0.54    0.22
  -2 -21   2    0.21    0.24
   2 -21  -2    0.26    0.25
   1 -21  -2    0.92    0.31
  -1 -21   2    0.63    0.27
   0 -21   2    0.52    0.26
   0 -21  -2    0.45    0.24
   0 -21  -2    0.32    0.25
   1 -21   2    0.28    0.27
 -11   0   3    1.32    0.34
 -10   0   3   -0.31    0.14
 -10   0   3    0.30    0.23
  -9   0   3    2.71    0.39
  -9   0   3    2.63    0.29
  -8   0   3   -0.02    0.12
  -8   0   3   -0.16    0.14
  -7   0   3    7.25    0.37
  -7   0   3    8.18    0.37
   7   0  -3    8.06    0.42
  -7   0   3    7.47    0.47
  -6   0   3    0.01    0.11
   6   0  -3    0.06    0.11
  -6   0   3    0.03    0.10
  -6   0   3   -0.03    0.09
  -5   0   3   64.67    1.55
  -5   0   3   62.71    1.72
  -5   0   3   67.03    1.54
   5   0  -3   65.73    1.72
   4   0  -3   -0.10    0.10
  -4   0   3   -0.01    0.07
  -4   0   3   -0.11    0.08
  -4   0   3    0.05    0.07
   4   0  -3    0.28    0.12
  -3   0   3    3.39    0.19
   3   0  -3    3.15    0.23
  -3   0   3    3.27    0.18
   3   0  -3    4.15    0.26
  -3   0   3    3.55    0.25
  -2   0   3   -0.16    0.09
   2   0  -3    0.01    0.11
   2   0  -3    0.03    0.09
  -2   0   3    0.10    0.10
  -2   0   3   -0.03    0.07
   1   0  -3   19.49    0.63
  -1   0   3   20.30    0.58
  -1   0   3   19.06    0.62
   1   0  -3   19.69    0.59
   1   0  -3   20.66    0.56
   0   0  -3    0.04    0.09
   0   0  -3   -0.07    0.06
   0   0  -3   -0.04    0.06
   0   0   3    0.11    0.11
   0   0  -3   -0.01    0.12
  -1   0  -3  224.75    5.26
  -1   0  -3  227.90    4.97
  -1   0  -3  230.71    4.96
  -1   0  -3  225.69    4.81
   2   0   3   -0.06    0.09
  -2   0  -3   -0.01    0.14
  -2   0  -3   -0.02    0.07
  -2   0  -3    0.10    0.12
  -3   0  -3    1.70    0.26
  -3   0  -3    1.58    0.24
   3   0   3    2.04    0.24
  -3   0  -3    1.54    0.16
  -3   0  -3    1.63    0.17
   4   0   3    0.15    0.12
  -4   0  -3    0.03    0.10
  -4   0  -3   -0.12    0.13
  -4   0  -3   -0.34    0.17
  -4   0  -3   -0.18    0.08
  -5   0  -3   18.15    0.76
  -5   0  -3   17.40    0.76
  -5   0  -3   18.15    0.63
  -5   0  -3   18.93    0.63
  -6   0  -3    0.19    0.22
  -6   0  -3    0.10    0.16
  -6   0  -3   -0.10    0.11
  -7   0  -3    1.31    0.31
  -7   0  -3    1.19    0.23
  -8   0  -3    0.05    0.19
  -8   0  -3   -0.03    0.14
 -11  -1   3   -0.12    0.16
 -11  -1   3    0.01    0.20
 -11   1   3   -0.15    0.22
 -10  -1   3    0.14    0.17
 -10  -1   3    0.48    0.25
 -10   1   3    0.15    0.17
 -10   1   3    0.34    0.25
  -9  -1   3    0.46    0.22
  -9  -1   3    0.88    0.20
  -9   1   3    1.12    0.22
  -9   1   3    0.70    0.26
  -8  -1   3    4.85    0.46
  -8  -1   3    4.07    0.30
  -8  -1   3    4.38    0.31
  -8   1   3    4.09    0.44
  -8   1   3    4.74    0.34
  -7  -1   3    4.83    0.27
  -7  -1   3    4.59    0.28
   7  -1  -3    5.55    0.37
  -7  -1   3    4.89    0.38
  -7   1   3    4.94    0.45
  -7   1   3    4.68    0.31
  -7   1   3    5.49    0.32
  -6  -1   3    1.97    0.26
   6  -1  -3    2.28    0.27
  -6  -1   3    1.61    0.16
  -6  -1   3    1.67    0.17
   6   1  -3    1.88    0.22
  -6   1   3    1.93    0.27
  -6   1   3    1.78    0.20
  -6   1   3    1.75    0.20
  -5  -1   3   42.49    1.06
   5  -1  -3   42.62    1.25
  -5  -1   3   43.33    1.23
  -5  -1   3   42.63    1.04
   5   1  -3   44.10    1.21
  -5   1   3   42.20    1.11
  -5   1   3   45.50    1.28
  -5   1   3   43.94    1.10
   4  -1  -3   85.73    2.16
  -4  -1   3   84.37    1.93
  -4  -1   3   87.63    1.95
   4  -1  -3   85.27    1.95
  -4  -1   3   84.92    2.14
  -4   1   3   86.79    2.00
  -4   1   3   84.12    1.97
  -4   1   3   81.98    2.15
   4   1  -3   90.16    2.14
   3  -1  -3   20.50    0.69
  -3  -1   3   20.81    0.62
  -3  -1   3   20.83    0.67
  -3  -1   3   20.82    0.57
  -3  -1   3   21.41    0.58
   3  -1  -3   21.53    0.63
  -3   1   3   22.84    0.71
   3   1  -3   22.04    0.61
   3   1  -3   21.02    0.67
  -3   1   3   21.50    0.59
   2  -1  -3   72.27    1.66
  -2  -1   3   74.11    1.66
   2  -1  -3   75.45    1.84
  -2  -1   3   73.95    1.67
  -2  -1   3   72.55    1.82
  -2   1   3   70.73    1.82
  -2   1   3   72.52    1.67
   2   1  -3   72.12    1.82
   2   1  -3   72.23    1.65
  -1  -1   3    7.65    0.33
   1  -1  -3    8.93    0.37
   1  -1  -3    8.45    0.36
  -1  -1   3    8.23    0.29
   1   1  -3    8.21    0.36
  -1   1   3    9.03    0.36
  -1   1   3    8.68    0.34
   1   1  -3    9.15    0.38
   0  -1   3   24.83    0.69
   0  -1  -3   23.58    0.63
   0  -1  -3   24.18    0.74
   0  -1  -3   25.01    0.69
   0  -1  -3   23.40    0.62
   0   1  -3   24.92    0.70
   0   1  -3   24.33    0.75
   0   1   3   23.77    0.65
   0   1  -3   24.35    0.65
  -1  -1  -3   30.42    0.89
  -1  -1  -3   29.94    0.74
   1  -1   3   29.35    0.81
  -1  -1  -3   30.43    0.75
  -1  -1  -3   30.01    0.82
  -1   1  -3   30.21    0.92
  -1   1  -3   29.87    0.78
  -1   1  -3   29.77    0.84
  -1   1  -3   29.60    0.79
  -2  -1  -3    0.80    0.17
  -2  -1  -3    0.87    0.17
  -2  -1  -3    0.80    0.10
   2  -1   3    0.83    0.17
  -2  -1  -3    0.97    0.11
  -2   1  -3    1.00    0.14
   2   1   3    0.50    0.13
  -2   1  -3    0.74    0.17
  -2   1  -3    0.99    0.14
  -2   1  -3    1.16    0.21
   3  -1   3    6.42    0.37
  -3  -1  -3    6.12    0.25
  -3  -1  -3    5.91    0.37
  -3  -1  -3    5.75    0.39
  -3  -1  -3    6.11    0.25
  -3   1  -3    6.89    0.44
  -3   1  -3    6.09    0.30
  -3   1  -3    6.09    0.38
  -3   1  -3    6.02    0.31
   3   1   3    6.64    0.34
  -4  -1  -3   11.30    0.55
   4  -1   3   11.03    0.53
  -4  -1  -3   11.49    0.40
  -4  -1  -3   12.27    0.41
  -4  -1  -3   11.41    0.56
  -4   1  -3   12.50    0.47
   4   1   3   11.12    0.49
  -4   1  -3   12.18    0.60
  -4   1  -3   12.47    0.60
  -4   1  -3   12.45    0.48
  -5  -1  -3    3.35    0.36
  -5  -1  -3    3.24    0.25
  -5  -1  -3    3.15    0.24
  -5  -1  -3    3.73    0.38
  -5   1  -3    3.12    0.37
  -5   1  -3    3.15    0.28
  -5   1  -3    2.83    0.36
  -6  -1  -3   -0.13    0.13
  -6  -1  -3    0.10    0.13
  -6  -1  -3    0.40    0.22
  -6  -1  -3   -0.08    0.11
  -6   1  -3    0.00    0.18
  -6   1  -3   -0.20    0.19
  -6   1  -3   -0.13    0.12
  -7  -1  -3    0.33    0.16
  -7  -1  -3    0.60    0.23
  -7  -1  -3    0.61    0.25
  -7   1  -3    0.07    0.15
  -7   1  -3    0.34    0.22
  -8  -1  -3    0.16    0.18
  -8  -1  -3    0.07    0.17
  -8   1  -3    0.14    0.22
 -11  -2   3   -0.04    0.16
 -11  -2   3    0.23    0.22
 -11   2   3    0.36    0.25
 -10  -2   3    0.07    0.15
 -10  -2   3    0.04    0.19
 -10   2   3   -0.15    0.20
  -9  -2   3    0.07    0.18
  -9  -2   3    0.07    0.14
  -9   2   3    0.11    0.21
  -9   2   3    0.34    0.18
  -8  -2   3    0.46    0.14
  -8  -2   3    0.32    0.13
  -8  -2   3    0.65    0.19
  -8   2   3    0.52    0.17
  -8   2   3    0.28    0.20
  -7  -2   3    3.82    0.22
  -7  -2   3    3.83    0.36
   7  -2  -3    3.75    0.38
  -7   2   3    3.57    0.31
  -7   2   3    3.12    0.37
  -6  -2   3    6.66    0.38
   6  -2  -3    7.82    0.43
  -6  -2   3    7.26    0.26
   6   2  -3    6.30    0.33
  -6   2   3    7.40    0.36
  -6   2   3    6.80    0.34
  -6   2   3    6.86    0.45
  -5  -2   3    9.67    0.29
  -5  -2   3    9.51    0.29
   5  -2  -3    9.11    0.45
  -5  -2   3    9.64    0.43
  -5   2   3    9.36    0.47
   5   2  -3    9.15    0.40
  -5   2   3    9.36    0.38
  -5   2   3    9.80    0.40
   4  -2  -3   76.91    2.02
  -4  -2   3   77.80    1.75
  -4  -2   3   80.36    1.97
  -4  -2   3   78.57    1.76
  -4  -2   3   80.60    1.81
   4   2  -3   78.33    1.94
  -4   2   3   79.75    2.03
  -4   2   3   80.12    1.84
  -4   2   3   73.08    1.85
   3  -2  -3    8.00    0.36
  -3  -2   3    8.00    0.27
   3  -2  -3    7.64    0.37
  -3  -2   3    8.22    0.27
  -3  -2   3    8.17    0.35
  -3  -2   3    7.77    0.35
   3   2  -3    7.58    0.31
   3   2  -3    7.95    0.35
  -3   2   3    8.13    0.30
  -3   2   3    7.86    0.37
  -2  -2   3  133.07    3.21
   2  -2  -3  137.78    2.96
  -2  -2   3  136.78    2.94
  -2  -2   3  139.58    3.02
  -2  -2   3  133.82    3.02
   2  -2  -3  131.49    3.23
   2  -2  -3  138.78    3.04
   2   2  -3  136.02    2.92
  -2   2   3  137.46    3.24
   2   2  -3  136.63    3.21
   1  -2  -3    5.99    0.23
  -1  -2   3    6.06    0.25
   1  -2  -3    6.14    0.31
   1  -2  -3    6.18    0.31
   1   2  -3    6.19    0.31
   1   2  -3    6.01    0.31
  -1   2   3    5.89    0.29
   0  -2  -3   65.48    1.51
   0  -2  -3   65.70    1.53
   0  -2  -3   67.18    1.51
   0  -2   3   66.82    1.55
   0  -2  -3   64.39    1.67
   0   2  -3   68.39    1.56
   0   2  -3   66.29    1.56
   0   2  -3   65.03    1.70
  -1  -2  -3    3.28    0.14
  -1  -2  -3    3.68    0.26
  -1  -2  -3    3.57    0.23
   1  -2   3    3.55    0.27
  -1   2  -3    3.06    0.21
  -1   2  -3    3.35    0.26
  -1   2  -3    3.10    0.26
  -2  -2  -3    8.98    0.25
  -2  -2  -3    9.19    0.25
  -2  -2  -3    9.31    0.41
   2  -2   3    8.53    0.43
  -2  -2  -3    9.34    0.42
  -2   2  -3    9.56    0.37
  -2   2  -3    8.77    0.37
  -2   2  -3    8.78    0.45
   2   2   3    9.26    0.38
  -2   2  -3    8.98    0.46
  -3  -2  -3    4.61    0.17
  -3  -2  -3    4.53    0.32
   3  -2   3    4.80    0.34
  -3  -2  -3    4.88    0.34
  -3  -2  -3    4.23    0.17
  -3   2  -3    5.11    0.29
  -3   2  -3    4.83    0.37
  -3   2  -3    5.08    0.39
   3   2   3    4.54    0.27
  -4  -2  -3    1.93    0.15
  -4  -2  -3    1.97    0.27
  -4  -2  -3    1.94    0.15
   4  -2   3    2.02    0.28
  -4  -2  -3    2.23    0.28
  -4   2  -3    2.01    0.23
  -4   2  -3    1.65    0.28
  -4   2  -3    1.65    0.28
  -5  -2  -3    0.07    0.09
   5  -2   3    0.16    0.14
  -5  -2  -3    0.08    0.09
  -5  -2  -3   -0.26    0.17
  -5  -2  -3    0.16    0.16
  -5   2  -3    0.18    0.13
  -5   2  -3   -0.05    0.20
  -5   2  -3   -0.02    0.14
  -6  -2  -3    0.56    0.21
  -6  -2  -3    0.56    0.23
  -6  -2  -3    0.64    0.15
  -6  -2  -3    0.53    0.14
  -6   2  -3    0.42    0.23
  -6   2  -3    0.30    0.16
  -7  -2  -3    0.54    0.17
  -7  -2  -3    0.42    0.21
  -7  -2  -3    0.43    0.24
  -7   2  -3    0.70    0.27
  -8  -2  -3   -0.11    0.17
  -8  -2  -3    0.06    0.16
  -8   2  -3    0.30    0.22
 -11  -3   3    0.03    0.15
 -11   3   3    0.06    0.24
 -10  -3   3    0.13    0.19
 -10  -3   3   -0.09    0.13
 -10   3   3    0.13    0.22
  -9  -3   3    0.12    0.17
  -9  -3   3    0.35    0.13
  -9  -3   3    0.02    0.12
  -9   3   3    0.17    0.22
   8  -3  -3    0.20    0.15
  -8  -3   3    0.07    0.10
  -8  -3   3    0.30    0.11
  -8  -3   3    0.00    0.15
  -8   3   3    0.36    0.21
  -8   3   3    0.56    0.18
  -7  -3   3    1.18    0.11
  -7  -3   3    1.65    0.24
   7  -3  -3    1.38    0.25
  -7  -3   3    1.16    0.13
  -7   3   3    1.50    0.22
  -7   3   3    1.33    0.27
   6  -3  -3   10.46    0.53
  -6  -3   3   10.13    0.47
  -6   3   3    9.89    0.48
  -6   3   3   10.62    0.56
   6   3  -3   10.43    0.40
  -6   3   3   10.28    0.44
  -5  -3   3    7.15    0.35
   5  -3  -3    6.88    0.40
   5   3  -3    6.82    0.31
  -5   3   3    7.45    0.34
  -5   3   3    6.80    0.41
  -5   3   3    5.70    0.34
   4  -3  -3  108.31    2.74
  -4  -3   3  109.27    2.42
  -4  -3   3  110.59    2.66
  -4   3   3  109.19    2.52
   4   3  -3  110.72    2.62
  -4   3   3  111.63    2.75
  -3  -3   3    4.41    0.18
  -3  -3   3    4.56    0.18
  -3  -3   3    5.07    0.27
  -3  -3   3    4.48    0.26
   3  -3  -3    4.09    0.29
   3   3  -3    4.69    0.26
  -3   3   3    4.50    0.22
  -3   3   3    4.17    0.28
  -2  -3   3    8.37    0.37
  -2  -3   3   10.22    0.32
  -2  -3   3    8.56    0.30
   2  -3  -3    8.37    0.40
  -2  -3   3    8.70    0.36
   2   3  -3    8.25    0.34
  -2   3   3    8.30    0.38
   2   3  -3    8.47    0.37
  -1  -3   3   15.15    0.45
   1  -3  -3   14.94    0.43
   1  -3  -3   14.32    0.45
  -1  -3   3   15.25    0.50
   1  -3  -3   14.39    0.52
  -1   3   3   15.28    0.53
   1   3  -3   15.34    0.50
   1   3  -3   15.02    0.53
   0  -3   3   80.29    1.85
   0  -3  -3   80.06    1.78
   0  -3  -3   79.33    1.98
   0  -3  -3   80.28    1.79
   0  -3  -3   80.49    1.81
   0   3  -3   77.35    2.01
   0   3  -3   81.29    1.85
  -1  -3  -3   21.68    0.63
  -1  -3  -3   21.47    0.67
   1  -3   3   20.42    0.66
  -1   3  -3   21.09    0.69
  -1   3  -3   21.86    0.63
  -1   3  -3   20.48    0.73
  -2  -3  -3    0.30    0.13
   2  -3   3    0.33    0.14
  -2  -3  -3    0.24    0.14
  -2   3  -3    0.36    0.12
  -2   3  -3    0.39    0.18
   2   3   3    0.43    0.12
  -2   3  -3    0.52    0.19
  -3  -3  -3   10.77    0.47
  -3  -3  -3   10.28    0.46
   3  -3   3   10.50    0.53
  -3   3  -3   10.13    0.53
  -3   3  -3   10.20    0.44
  -3   3  -3   10.63    0.44
  -3   3  -3   11.85    0.56
   3   3   3   10.35    0.40
  -4  -3  -3    6.06    0.37
   4  -3   3    6.66    0.43
  -4  -3  -3    6.47    0.42
  -4   3  -3    6.26    0.37
  -4   3  -3    5.98    0.47
  -4   3  -3    5.99    0.45
  -5  -3  -3    7.76    0.29
  -5  -3  -3    8.55    0.49
  -5  -3  -3    8.26    0.46
  -5  -3  -3    8.05    0.29
   5  -3   3    8.47    0.51
  -5   3  -3    7.45    0.54
  -5   3  -3    9.73    0.59
  -6  -3  -3    0.67    0.13
  -6  -3  -3    0.48    0.22
  -6  -3  -3    0.43    0.13
  -6  -3  -3    0.32    0.17
  -6   3  -3    0.74    0.25
  -7  -3  -3    0.66    0.16
  -7  -3  -3    0.46    0.24
  -7  -3  -3    0.30    0.19
  -7   3  -3    0.43    0.26
  -8  -3  -3   -0.07    0.14
  -8  -3  -3    0.26    0.23
  -8   3  -3    0.09    0.23
 -11  -4   3    0.16    0.17
 -11   4   3   -0.01    0.23
 -10  -4   3    0.40    0.16
 -10   4   3    0.07    0.23
  -9  -4   3    0.39    0.17
  -9  -4   3   -0.01    0.11
  -9  -4   3    0.28    0.12
  -9   4   3    0.46    0.25
  -8  -4   3    1.14    0.13
  -8  -4   3    1.15    0.23
   8  -4  -3    0.89    0.23
  -8  -4   3    1.06    0.12
  -8   4   3    1.18    0.31
   7  -4  -3   -0.06    0.13
  -7  -4   3   -0.04    0.12
  -7   4   3   -0.03    0.11
  -7   4   3    0.14    0.19
   6  -4  -3    5.35    0.40
  -6  -4   3    4.66    0.31
  -6   4   3    5.03    0.31
  -6   4   3    5.07    0.46
   5  -4  -3   13.42    0.61
  -5  -4   3   14.44    0.53
  -5  -4   3   13.95    0.50
  -5   4   3   14.23    0.50
  -5   4   3   13.67    0.63
   5   4  -3   13.91    0.46
   4  -4  -3   20.78    0.75
  -4  -4   3   20.35    0.66
  -4  -4   3   20.09    0.61
  -4   4   3   20.66    0.75
  -4   4   3   19.86    0.61
   4   4  -3   19.94    0.61
   3  -4  -3   13.35    0.54
  -3  -4   3   13.12    0.48
  -3  -4   3   13.39    0.35
  -3  -4   3   13.07    0.45
  -3  -4   3   13.10    0.34
   3   4  -3   12.85    0.46
  -3   4   3   13.48    0.53
  -2  -4   3  118.06    2.63
  -2  -4   3  117.52    2.59
   2  -4  -3  116.65    2.88
  -2  -4   3  119.05    2.64
   2  -4  -3  122.02    2.69
   2   4  -3  118.96    2.56
  -2   4   3  118.25    2.87
   2   4  -3  116.28    2.82
   1  -4  -3   42.19    1.12
  -1  -4   3   48.18    1.14
  -1  -4   3   47.25    1.16
   1  -4  -3   47.09    1.26
   1  -4  -3   46.82    1.11
   1   4  -3   46.61    1.15
  -1   4   3   47.19    1.24
   1   4  -3   47.70    1.27
   0  -4  -3   19.80    0.49
   0  -4  -3   20.38    0.65
   0  -4   3   19.81    0.63
   0  -4  -3   19.67    0.49
   0  -4   3   19.15    0.57
   0   4  -3   19.21    0.63
   0   4   3   19.72    0.61
   0   4  -3   19.73    0.68
   1  -4   3   18.99    0.71
  -1  -4  -3   18.70    0.57
   1  -4   3   20.20    0.66
  -1  -4  -3   19.06    0.62
  -1   4  -3   19.16    0.71
  -1   4  -3   19.39    0.59
  -1   4  -3   18.92    0.65
   2  -4   3    4.95    0.36
  -2  -4  -3    4.25    0.27
  -2  -4  -3    3.31    0.26
   2  -4   3    4.15    0.33
  -2   4  -3    4.32    0.39
  -2   4  -3    4.63    0.27
  -2   4  -3    3.52    0.33
   2   4   3    4.14    0.22
  -3  -4  -3    7.37    0.40
  -3  -4  -3    8.17    0.39
   3  -4   3    7.70    0.46
  -3   4  -3    7.50    0.49
  -3   4  -3    8.32    0.40
  -3   4  -3    8.39    0.49
   4  -4   3    8.08    0.50
  -4  -4  -3    8.12    0.44
  -4  -4  -3    8.56    0.43
  -4   4  -3    8.07    0.43
  -4   4  -3    8.46    0.54
  -4   4  -3    8.19    0.54
   5  -4   3    2.64    0.37
  -5  -4  -3    3.28    0.32
  -5  -4  -3    3.41    0.33
  -5   4  -3    2.93    0.31
  -5   4  -3    3.28    0.42
  -6  -4  -3    2.25    0.30
  -6  -4  -3    2.13    0.18
  -6  -4  -3    2.34    0.31
  -6  -4  -3    2.16    0.18
  -6   4  -3    2.36    0.41
  -7  -4  -3    0.94    0.27
  -7  -4  -3    1.09    0.18
  -7  -4  -3    1.09    0.24
  -7  -4  -3    1.07    0.18
  -7   4  -3    0.71    0.29
  -8  -4  -3    0.06    0.20
  -8  -4  -3    0.14    0.14
  -8   4  -3    0.06    0.22
 -10  -5   3    0.47    0.15
 -10  -5   3    0.33    0.14
 -10   5   3    0.23    0.27
  -9  -5   3    0.20    0.11
  -9  -5   3   -0.02    0.13
  -9  -5   3    0.14    0.10
  -9   5   3    0.23    0.20
  -8  -5   3    0.82    0.20
   8  -5  -3    1.12    0.27
  -8   5   3    0.94    0.28
  -7  -5   3   -0.08    0.11
   7  -5  -3    0.14    0.16
  -7   5   3   -0.08    0.14
  -6  -5   3    6.23    0.35
   6  -5  -3    6.17    0.44
  -6   5   3    6.23    0.45
  -6   5   3    6.52    0.35
  -5  -5   3    4.33    0.30
   5  -5  -3    3.99    0.39
  -5  -5   3    4.23    0.27
  -5   5   3    4.75    0.38
  -5   5   3    4.33    0.26
   5   5  -3    4.20    0.20
  -4  -5   3    9.04    0.39
  -4  -5   3    8.49    0.37
   4  -5  -3    8.36    0.46
  -4   5   3    9.02    0.46
   4   5  -3    9.13    0.34
  -4   5   3    8.67    0.35
   3  -5  -3    1.38    0.22
  -3  -5   3    1.48    0.18
   3  -5  -3    1.67    0.17
   3   5  -3    1.64    0.18
  -3   5   3    1.57    0.22
   2  -5  -3   15.92    0.58
  -2  -5   3   15.23    0.45
  -2  -5   3   15.50    0.51
  -2  -5   3   14.40    0.44
   2  -5  -3   14.34    0.48
   2   5  -3   15.82    0.54
  -2   5   3   14.95    0.56
   2   5  -3   14.87    0.47
  -1  -5   3   20.81    0.61
   1  -5  -3   21.83    0.71
  -1  -5   3   21.88    0.67
   1  -5  -3   22.11    0.61
  -1  -5   3   21.42    0.61
   1  -5  -3   21.40    0.58
  -1   5   3   21.72    0.69
   1   5  -3   22.02    0.65
   1   5  -3   20.49    0.70
   0  -5  -3   45.04    1.24
   0  -5  -3   45.08    1.04
   0  -5   3   46.91    1.17
   0  -5  -3   45.81    1.04
   0   5  -3   46.58    1.19
   0   5  -3   48.02    1.32
   0   5   3   46.71    1.22
   1  -5   3   22.61    0.74
  -1  -5  -3   22.05    0.70
  -1  -5  -3   22.30    0.64
   1  -5   3   22.30    0.81
  -1   5  -3   23.61    0.75
  -1   5  -3   21.45    0.78
   2  -5   3   32.18    1.07
  -2  -5  -3   32.66    0.86
  -2  -5  -3   32.75    0.93
   2  -5   3   31.40    0.96
  -2   5  -3   30.75    1.06
  -2   5  -3   31.90    0.92
  -2   5  -3   32.09    0.99
   2   5   3   32.71    0.84
  -3  -5  -3   11.72    0.47
   3  -5   3   11.75    0.60
  -3  -5  -3   12.21    0.48
  -3   5  -3   12.04    0.61
  -3   5  -3   11.12    0.49
  -3   5  -3   11.24    0.59
   4  -5   3    3.05    0.38
  -4  -5  -3    3.25    0.28
  -4  -5  -3    2.90    0.28
  -4   5  -3    3.08    0.35
  -4   5  -3    3.46    0.42
   5  -5   3    3.81    0.45
  -5  -5  -3    3.95    0.34
  -5  -5  -3    4.99    0.33
  -5   5  -3    4.09    0.49
  -6  -5  -3    1.90    0.28
  -6  -5  -3    1.93    0.27
  -6   5  -3    1.98    0.40
  -7  -5  -3    0.54    0.23
  -7  -5  -3    0.62    0.14
  -7  -5  -3    0.67    0.13
  -7   5  -3    0.65    0.29
  -8  -5  -3    0.06    0.13
  -8   5  -3    0.21    0.23
 -10  -6   3    2.54    0.25
 -10  -6   3    3.53    0.26
 -10   6   3    3.00    0.51
  -9   6   3    0.12    0.21
  -8  -6   3    2.79    0.30
   8  -6  -3    3.03    0.42
  -8   6   3    3.18    0.46
  -7  -6   3    0.66    0.16
   7  -6  -3    0.74    0.24
  -7   6   3    0.88    0.25
  -6  -6   3    0.96    0.17
  -6  -6   3    0.47    0.16
   6  -6  -3    0.78    0.22
  -6   6   3    0.80    0.23
  -5  -6   3   14.82    0.54
  -5  -6   3   15.16    0.52
   5  -6  -3   16.81    0.73
   5  -6  -3   15.18    0.62
  -5   6   3   15.24    0.70
  -4  -6   3    1.31    0.18
   4  -6  -3    1.19    0.25
  -4  -6   3    1.21    0.18
   4   6  -3    1.55    0.15
  -4   6   3    1.58    0.24
   3  -6  -3    0.68    0.13
   3  -6  -3    0.51    0.17
  -3  -6   3    0.47    0.15
   3   6  -3    0.67    0.13
  -3   6   3    0.47    0.15
  -2  -6   3    3.37    0.19
   2  -6  -3    3.34    0.27
  -2  -6   3    2.99    0.17
  -2  -6   3    2.60    0.24
   2  -6  -3    3.06    0.19
   2  -6  -3    3.10    0.21
  -2   6   3    2.69    0.26
   2   6  -3    3.06    0.23
  -1  -6   3   12.09    0.42
  -1  -6   3   13.44    0.50
   1  -6  -3   12.26    0.50
  -1  -6   3   12.71    0.42
   1  -6  -3   12.67    0.41
   1  -6  -3   12.54    0.39
   1   6  -3   12.14    0.46
  -1   6   3   11.71    0.48
   1   6  -3   12.29    0.50
   0  -6  -3   21.30    0.69
   0  -6  -3   22.34    0.50
   0  -6   3   18.63    0.68
   0  -6   3   21.06    0.64
   0  -6  -3   20.74    0.49
   0   6  -3   20.91    0.74
   0   6  -3   21.80    0.69
   0   6   3   21.34    0.66
   1  -6   3    7.64    0.42
  -1  -6  -3    7.40    0.35
   1  -6   3    7.32    0.43
  -1   6  -3    7.01    0.42
  -1   6  -3    7.46    0.42
  -2  -6  -3   19.88    0.60
   2  -6   3   19.45    0.79
  -2  -6  -3   20.15    0.65
   2  -6   3   18.58    0.71
  -2   6  -3   19.56    0.74
  -2   6  -3   19.13    0.65
  -2   6  -3   20.82    0.81
  -3  -6  -3   16.59    0.58
  -3  -6  -3   15.66    0.55
   3  -6   3   16.90    0.76
  -3   6  -3   16.07    0.74
  -3   6  -3   16.23    0.70
  -4  -6  -3    2.39    0.25
  -4  -6  -3    1.73    0.22
   4  -6   3    1.85    0.32
  -4   6  -3    2.40    0.38
  -5  -6  -3    5.54    0.35
   5  -6   3    5.91    0.58
  -5  -6  -3    6.05    0.40
  -5   6  -3    6.35    0.62
  -6  -6  -3    0.18    0.19
   6  -6   3    0.04    0.16
  -6   6  -3   -0.07    0.21
  -7  -6  -3    0.31    0.10
  -7  -6  -3    0.12    0.19
  -7  -6  -3    0.52    0.11
  -7   6  -3    0.29    0.26
  -8  -6  -3    0.08    0.12
  -8   6  -3    0.59    0.30
 -10  -7   3    0.39    0.12
 -10  -7   3    0.31    0.12
 -10   7   3    0.08    0.23
  -9   7   3    1.65    0.37
   8  -7  -3    2.08    0.36
  -8   7   3    1.96    0.37
  -7  -7   3    6.21    0.35
   7  -7  -3    6.03    0.58
  -7   7   3    6.24    0.50
  -6  -7   3    8.71    0.40
   6  -7  -3    8.71    0.56
  -6  -7   3    8.73    0.39
  -6   7   3    9.76    0.58
   5  -7  -3    8.59    0.53
  -5  -7   3    8.41    0.38
  -5  -7   3    8.73    0.38
   5  -7  -3    9.19    0.48
  -5   7   3    8.63    0.51
   4  -7  -3   15.64    0.62
  -4  -7   3   15.15    0.52
   4  -7  -3   15.83    0.70
   4   7  -3   14.96    0.46
  -4   7   3   14.96    0.66
   3  -7  -3    1.58    0.19
  -3  -7   3    1.68    0.21
   3  -7  -3    1.53    0.24
  -3   7   3    1.53    0.23
   3   7  -3    1.83    0.19
  -2  -7   3    8.89    0.32
   2  -7  -3    8.94    0.37
  -2  -7   3    9.16    0.42
  -2  -7   3    9.12    0.32
   2  -7  -3    8.70    0.34
   2  -7  -3    8.99    0.45
  -2   7   3    8.39    0.42
   2   7  -3    9.14    0.39
   1  -7  -3    4.21    0.20
  -1  -7   3    4.77    0.24
   1  -7  -3    3.96    0.24
  -1  -7   3    3.90    0.25
   1  -7  -3    4.03    0.28
  -1  -7   3    3.96    0.31
   1   7  -3    4.42    0.30
  -1   7   3    4.15    0.27
   1   7  -3    4.48    0.30
   0  -7   3    7.91    0.35
   0  -7   3    7.31    0.41
   0  -7   3    7.36    0.43
   0  -7  -3    7.53    0.20
   0  -7  -3    7.58    0.37
   0   7   3    6.93    0.32
   0   7  -3    7.56    0.40
   0   7  -3    7.37    0.42
   1  -7   3   10.34    0.54
   1  -7   3   10.10    0.50
   1  -7   3    9.14    0.40
  -1  -7  -3   10.20    0.42
  -1   7  -3    9.98    0.50
  -1   7  -3    9.12    0.51
   2  -7   3   12.44    0.59
  -2  -7  -3   12.82    0.46
  -2  -7  -3   13.21    0.49
   2  -7   3   12.78    0.65
  -2   7  -3   12.27    0.59
  -2   7  -3   13.32    0.63
  -3  -7  -3    1.35    0.19
   3  -7   3    1.74    0.30
  -3  -7  -3    1.46    0.19
  -3   7  -3    1.22    0.27
   4  -7   3   27.16    1.08
  -4  -7  -3   24.98    0.80
  -4  -7  -3   25.15    0.77
  -4   7  -3   26.94    1.08
   5  -7   3    1.51    0.32
  -5  -7  -3    1.50    0.21
  -5  -7  -3    1.64    0.23
  -5   7  -3    1.83    0.37
   6  -7   3    1.02    0.30
  -6  -7  -3    0.97    0.22
  -6   7  -3    0.79    0.32
  -7  -7  -3    0.29    0.19
  -7   7  -3    0.98    0.34
  -8  -7  -3   -0.05    0.10
  -8  -7  -3    0.00    0.10
  -8   7  -3    0.08    0.22
 -10  -8   3    0.03    0.08
 -10  -8   3    0.07    0.09
 -10   8   3    0.34    0.26
   9  -8  -3    1.16    0.31
  -9   8   3    0.85    0.30
   8  -8  -3    3.26    0.46
  -8   8   3    3.89    0.51
  -7  -8   3    1.22    0.19
   7  -8  -3    1.70    0.35
  -7   8   3    1.51    0.31
   6  -8  -3    8.50    0.58
  -6  -8   3    8.84    0.38
  -6  -8   3    7.94    0.38
  -6   8   3    7.82    0.54
  -5  -8   3    4.15    0.29
   5  -8  -3    4.25    0.45
  -5   8   3    3.96    0.43
   4  -8  -3   31.17    0.97
   4  -8  -3   29.91    1.08
  -4  -8   3   29.75    0.83
  -4   8   3   30.46    1.06
  -3  -8   3    7.83    0.39
   3  -8  -3    7.45    0.37
   3  -8  -3    7.22    0.45
  -3   8   3    7.47    0.44
   3   8  -3    7.41    0.33
   2  -8  -3    4.38    0.25
   2  -8  -3    4.54    0.34
  -2  -8   3    4.59    0.33
  -2  -8   3    4.58    0.23
  -2  -8   3    4.46    0.23
   2  -8  -3    4.92    0.28
   2   8  -3    4.23    0.27
  -2   8   3    4.19    0.30
   1  -8  -3    1.72    0.17
  -1  -8   3    1.79    0.18
  -1  -8   3    2.03    0.21
   1  -8  -3    1.70    0.15
  -1  -8   3    1.88    0.24
   1  -8  -3    1.58    0.23
  -1   8   3    1.90    0.22
   1   8  -3    1.82    0.23
   0  -8   3    2.69    0.31
   0  -8  -3    2.63    0.11
   0  -8   3    2.82    0.25
   0  -8   3    2.87    0.31
   0  -8  -3    2.27    0.25
   0   8   3    2.61    0.20
   0   8  -3    3.15    0.28
   0   8  -3    2.61    0.29
  -1  -8  -3   21.55    0.70
   1  -8   3   21.43    0.85
   1  -8   3   20.53    0.76
   1  -8   3   20.94    0.69
  -1   8  -3   19.27    0.73
  -1   8  -3   21.85    0.83
  -2  -8  -3   31.53    0.91
   2  -8   3   31.48    1.14
   2  -8   3   31.75    1.02
  -2   8  -3   29.55    1.09
   3  -8   3    9.60    0.61
  -3  -8  -3   10.28    0.42
  -3  -8  -3   10.14    0.41
  -3   8  -3    9.46    0.59
  -4  -8  -3    5.21    0.29
   4  -8   3    5.34    0.54
  -4  -8  -3    5.38    0.34
  -4   8  -3    5.71    0.56
   5  -8   3    0.22    0.18
  -5  -8  -3    0.08    0.15
  -5   8  -3    0.39    0.23
   6  -8   3    0.13    0.20
  -6  -8  -3    0.24    0.18
  -6   8  -3    0.64    0.30
  -7  -8  -3    0.45    0.20
  -7   8  -3    1.00    0.34
 -10   9   3    0.22    0.25
   9  -9  -3    0.37    0.22
  -9   9   3    0.03    0.24
   8  -9  -3    0.07    0.16
  -8   9   3    0.43    0.23
   7  -9  -3    8.47    0.62
  -7  -9   3    6.83    0.37
  -7   9   3    6.41    0.62
   6  -9  -3    4.51    0.50
  -6  -9   3    4.00    0.29
  -6   9   3    4.36    0.49
   5  -9  -3    1.90    0.33
  -5  -9   3    2.21    0.23
  -5   9   3    2.56    0.37
   4  -9  -3   13.30    0.60
  -4  -9   3   13.38    0.50
   4  -9  -3   12.29    0.65
  -4   9   3   12.63    0.63
   3  -9  -3   18.42    0.78
   3  -9  -3   18.50    0.65
  -3  -9   3   19.28    0.64
  -3   9   3   18.50    0.75
   3   9  -3   18.58    0.60
  -2  -9   3   27.23    0.84
   2  -9  -3   28.98    0.98
  -2  -9   3   26.64    0.74
   2  -9  -3   27.36    0.79
   2  -9  -3   26.91    0.81
  -2  -9   3   27.39    0.74
  -2   9   3   27.38    0.91
   2   9  -3   27.72    0.86
  -1  -9   3   13.32    0.60
   1  -9  -3   12.72    0.45
   1  -9  -3   13.40    0.58
   1  -9  -3   13.54    0.43
  -1  -9   3   13.79    0.48
  -1  -9   3   12.57    0.56
  -1  -9   3   12.96    0.50
  -1   9   3   12.71    0.52
   1   9  -3   12.85    0.55
   0  -9   3   31.63    0.92
   0  -9   3   30.10    1.07
   0  -9   3   32.62    1.00
   0  -9  -3   31.58    0.98
   0  -9  -3   31.65    0.75
   0   9   3   31.33    0.91
   0   9  -3   31.71    1.04
   1  -9   3   31.55    1.12
  -1  -9  -3   30.48    0.94
  -1   9  -3   32.92    1.10
   2  -9   3   10.29    0.61
  -2  -9  -3   11.24    0.45
  -2   9  -3   10.40    0.61
   3  -9   3    0.80    0.26
  -3  -9  -3    0.52    0.15
  -3  -9  -3    0.65    0.14
  -3   9  -3    0.41    0.22
   4  -9   3    5.29    0.56
  -4  -9  -3    6.22    0.35
  -4   9  -3    5.57    0.59
   5  -9   3    0.41    0.22
  -5  -9  -3    0.03    0.14
  -5   9  -3   -0.20    0.17
  -6  -9  -3    1.05    0.22
   6  -9   3    1.63    0.36
  -6   9  -3    1.36    0.34
  -7   9  -3    0.06    0.25
 -10  10   3   -0.33    0.22
   9 -10  -3    0.52    0.25
  -9  10   3   -0.10    0.19
   8 -10  -3    0.46    0.24
  -8  10   3   -0.21    0.19
   7 -10  -3    0.30    0.21
  -7 -10   3    0.16    0.11
  -7  10   3   -0.43    0.15
   6 -10  -3    4.78    0.54
  -6 -10   3    5.05    0.32
  -6  10   3    5.10    0.54
   5 -10  -3   19.03    0.89
  -5 -10   3   19.06    0.63
  -5  10   3   19.41    0.86
  -4 -10   3    5.28    0.35
   4 -10  -3    5.55    0.52
  -4  10   3    5.03    0.48
  -3 -10   3   29.37    0.88
  -3 -10   3   29.67    0.69
   3 -10  -3   29.33    1.06
   3 -10  -3   29.53    0.91
  -3 -10   3   29.01    0.69
  -3  10   3   29.49    1.04
   3  10  -3   29.21    0.85
  -2 -10   3   39.09    1.19
   2 -10  -3   40.13    1.26
   2 -10  -3   39.03    1.05
   2 -10  -3   35.97    1.07
  -2 -10   3   38.12    1.00
  -2 -10   3   38.29    0.99
  -2 -10   3   40.08    1.10
   2  10  -3   37.55    1.11
  -2  10   3   38.16    1.18
  -1 -10   3   33.09    1.00
   1 -10  -3   32.08    1.05
  -1 -10   3   32.24    0.91
   1 -10  -3   32.59    0.89
  -1 -10   3   32.28    1.08
  -1 -10   3   31.68    0.93
   1 -10  -3   31.45    0.85
   1  10  -3   30.74    1.01
  -1  10   3   30.51    0.98
   0 -10   3    6.59    0.39
   0 -10   3    6.59    0.45
   0 -10   3    6.70    0.45
   0 -10  -3    6.95    0.24
   0 -10  -3    6.64    0.39
   0  10   3    6.74    0.33
   0  10  -3    6.84    0.44
   1 -10   3    9.25    0.55
  -1 -10  -3    7.96    0.41
  -1  10  -3    8.58    0.53
   2 -10   3   14.87    0.76
  -2 -10  -3   14.37    0.55
  -2  10  -3   13.67    0.71
  -3 -10  -3   -0.07    0.09
   3 -10   3   -0.22    0.13
  -3  10  -3    0.03    0.15
  -4 -10  -3    3.03    0.26
   4 -10   3    3.87    0.51
  -4  10  -3    3.36    0.47
   5 -10   3    1.48    0.36
  -5 -10  -3    0.91    0.19
  -5  10  -3    0.83    0.29
  -6 -10  -3    0.42    0.17
   6 -10   3    0.27    0.23
  -6  10  -3    0.54    0.28
  -7  10  -3    0.05    0.22
   9 -11  -3    0.03    0.19
  -9  11   3    0.18    0.22
   8 -11  -3    2.34    0.43
  -8  11   3    1.12    0.35
   7 -11  -3    0.08    0.19
  -7 -11   3    0.67    0.16
  -7  11   3    0.64    0.26
   6 -11  -3    0.65    0.25
  -6 -11   3    0.87    0.17
  -6  11   3    0.82    0.28
   5 -11  -3   11.13    0.69
  -5 -11   3   11.50    0.47
  -5  11   3   10.19    0.64
  -4 -11   3    8.20    0.42
   4 -11  -3    8.45    0.57
  -4  11   3    7.84    0.52
   3 -11  -3   48.13    1.51
  -3 -11   3   45.98    1.24
  -3 -11   3   45.37    1.34
   3 -11  -3   45.39    1.30
  -3 -11   3   45.84    1.08
  -3 -11   3   46.11    1.08
  -3  11   3   45.82    1.45
  -2 -11   3    2.31    0.21
   2 -11  -3    2.39    0.26
   2 -11  -3    1.96    0.21
   2 -11  -3    2.59    0.34
  -2 -11   3    2.31    0.20
  -2 -11   3    2.36    0.30
  -2 -11   3    2.03    0.28
   2  11  -3    2.15    0.25
  -2  11   3    2.90    0.32
  -1 -11   3   14.72    0.64
   1 -11  -3   14.39    0.65
   1 -11  -3   14.38    0.48
  -1 -11   3   13.29    0.65
  -1 -11   3   15.11    0.57
  -1 -11   3   14.35    0.53
   1 -11  -3   13.89    0.51
   1  11  -3   13.84    0.61
  -1  11   3   14.06    0.57
   0 -11   3    3.94    0.35
   0 -11   3    4.84    0.47
   0 -11  -3    4.09    0.21
   0 -11   3    5.40    0.46
   0 -11  -3    4.83    0.35
   0  11  -3    4.75    0.37
   1 -11   3   11.79    0.67
  -1 -11  -3   12.13    0.52
  -1  11  -3   11.83    0.64
  -2 -11  -3   18.70    0.68
   2 -11   3   21.19    0.94
  -2  11  -3   19.75    0.88
  -3 -11  -3    0.92    0.16
   3 -11   3    0.29    0.22
  -3  11  -3    0.91    0.29
  -4 -11  -3    3.65    0.28
   4 -11   3    2.90    0.45
  -4  11  -3    3.47    0.48
  -5 -11  -3    0.91    0.19
   5 -11   3    1.05    0.34
  -5  11  -3    0.99    0.31
  -6 -11  -3    0.03    0.14
   6 -11   3    0.38    0.26
  -6  11  -3    0.17    0.21
  -7  11  -3    0.38    0.28
   9 -12  -3    0.41    0.25
  -9  12   3   -0.18    0.16
   8 -12  -3    1.17    0.34
  -8  12   3    0.84    0.32
  -7 -12   3    4.12    0.32
   7 -12  -3    3.94    0.56
  -7  12   3    3.75    0.54
  -6 -12   3    6.43    0.36
   6 -12  -3    6.05    0.64
  -6  12   3    4.87    0.55
   5 -12  -3    3.79    0.48
  -5 -12   3    3.88    0.31
  -5  12   3    4.24    0.48
  -4 -12   3    6.99    0.41
   4 -12  -3    7.03    0.53
  -4 -12   3    6.83    0.41
  -4  12   3    7.70    0.53
  -3 -12   3   17.28    0.66
  -3 -12   3   16.65    0.49
  -3 -12   3   17.32    0.50
   3 -12  -3   15.81    0.78
  -3 -12   3   16.87    0.69
   3 -12  -3   16.76    0.67
  -3  12   3   16.31    0.75
   2 -12  -3    6.47    0.38
  -2 -12   3    5.82    0.43
   2 -12  -3    5.47    0.43
  -2 -12   3    5.69    0.41
  -2 -12   3    6.57    0.33
  -2 -12   3    6.43    0.31
   2  12  -3    4.96    0.33
  -2  12   3    5.65    0.39
   1 -12  -3   12.96    0.52
  -1 -12   3   13.31    0.53
  -1 -12   3   13.90    0.67
  -1 -12   3   13.97    0.64
   1 -12  -3   13.25    0.64
   1 -12  -3   13.63    0.49
  -1 -12   3   13.76    0.57
  -1  12   3   14.54    0.58
   1  12  -3   14.25    0.61
   0 -12  -3    1.47    0.25
   0 -12  -3    1.38    0.17
   0 -12   3    1.00    0.27
   0 -12   3    1.13    0.23
   0 -12   3    1.63    0.28
   0  12  -3    1.51    0.27
  -1 -12  -3   13.70    0.58
   1 -12   3   14.51    0.76
  -1  12  -3   12.85    0.69
   2 -12   3    2.12    0.38
  -2 -12  -3    1.90    0.24
  -2  12  -3    2.18    0.36
   3 -12   3    0.60    0.26
  -3  12  -3    0.96    0.29
  -4 -12  -3    6.79    0.36
   4 -12   3    6.19    0.68
  -4  12  -3    6.14    0.65
   5 -12   3    0.07    0.21
  -5 -12  -3   -0.06    0.13
  -5  12  -3    0.09    0.22
   6 -12   3    0.62    0.23
  -6  12  -3    0.89    0.32
   9 -13  -3    1.39    0.37
  -9  13   3    1.92    0.48
   8 -13  -3    0.41    0.22
  -8  13   3    0.26    0.27
   7 -13  -3    0.81    0.29
  -7 -13   3    1.25    0.20
  -7  13   3    1.23    0.33
   6 -13  -3    3.29    0.51
  -6 -13   3    3.76    0.32
  -6  13   3    4.04    0.53
  -5 -13   3    3.66    0.31
  -5 -13   3    3.42    0.32
   5 -13  -3    3.00    0.44
  -5  13   3    3.43    0.46
  -4 -13   3    2.11    0.27
  -4 -13   3    1.85    0.25
   4 -13  -3    1.98    0.36
  -4  13   3    2.63    0.39
  -3 -13   3   13.72    0.47
  -3 -13   3   13.41    0.62
  -3 -13   3   14.00    0.46
   3 -13  -3   12.42    0.70
  -3 -13   3   13.09    0.59
  -3  13   3   14.03    0.69
  -2 -13   3    8.75    0.39
  -2 -13   3    8.69    0.51
  -2 -13   3    8.19    0.41
   2 -13  -3    8.40    0.55
   2 -13  -3    8.19    0.46
  -2 -13   3    8.45    0.51
  -2  13   3    9.56    0.51
   1 -13  -3   11.75    0.62
   1 -13  -3   12.37    0.51
  -1 -13   3   11.00    0.63
   1 -13  -3   12.08    0.47
  -1 -13   3   12.53    0.62
  -1 -13   3   12.24    0.56
   1  13  -3   11.71    0.57
   0 -13   3    6.84    0.46
   0 -13  -3    7.86    0.35
   0 -13   3    7.73    0.55
   0 -13  -3    7.38    0.31
   0 -13  -3    6.90    0.45
   0  13  -3    7.53    0.49
  -1 -13  -3    1.70    0.25
   1 -13   3    0.73    0.27
  -1  13  -3    1.27    0.28
  -2 -13  -3    1.82    0.25
   2 -13   3    0.93    0.29
  -2  13  -3    1.49    0.33
   3 -13   3    0.46    0.23
  -3  13  -3    0.75    0.26
  -4 -13  -3    0.38    0.14
   4 -13   3    0.57    0.28
  -4  13  -3    0.39    0.23
  -5 -13  -3    0.71    0.17
   5 -13   3    0.97    0.34
  -5  13  -3    0.83    0.30
   6 -13   3    1.48    0.39
  -6  13  -3    0.84    0.32
   8 -14  -3    0.19    0.21
  -8  14   3    0.30    0.27
  -7 -14   3    1.90    0.23
   7 -14  -3    2.04    0.42
  -7  14   3    1.79    0.40
  -6 -14   3   -0.09    0.14
   6 -14  -3    0.27    0.27
  -6  14   3    0.19    0.19
  -5 -14   3    1.03    0.21
   5 -14  -3    1.31    0.32
  -5  14   3    1.63    0.34
  -4 -14   3    0.35    0.07
  -4 -14   3    0.48    0.17
  -4 -14   3    0.26    0.17
  -4 -14   3    0.34    0.07
   4 -14  -3    0.47    0.26
  -4  14   3    0.16    0.19
   3 -14  -3    5.72    0.57
  -3 -14   3    5.96    0.29
  -3 -14   3    5.01    0.29
  -3 -14   3    5.86    0.43
  -3 -14   3    5.94    0.43
  -3  14   3    5.37    0.44
  -2 -14   3    0.96    0.17
   2 -14  -3    0.83    0.20
   2 -14  -3    0.48    0.21
  -2 -14   3    1.23    0.27
  -2 -14   3    0.94    0.19
  -2 -14   3    1.10    0.25
  -2  14   3    0.84    0.21
   1 -14  -3    2.35    0.27
   1 -14  -3    2.87    0.38
  -1 -14   3    1.96    0.34
  -1 -14   3    2.27    0.30
   0 -14  -3    7.22    0.33
   0 -14  -3    5.80    0.43
   0 -14  -3    7.28    0.36
   0 -14   3    6.50    0.51
   0 -14   3    6.54    0.47
   0  14  -3    7.10    0.48
   1 -14   3    1.66    0.36
  -1 -14  -3    1.85    0.14
  -1 -14  -3    1.84    0.14
  -1 -14  -3    2.04    0.28
  -1  14  -3    1.95    0.34
   2 -14   3    4.24    0.53
  -2 -14  -3    3.89    0.31
  -2  14  -3    4.11    0.49
   3 -14   3    1.72    0.37
  -3  14  -3    1.36    0.36
   4 -14   3    2.65    0.48
  -4 -14  -3    2.23    0.25
  -4  14  -3    2.09    0.40
   5 -14   3    1.40    0.39
  -5  14  -3    1.56    0.38
   6 -14   3    0.42    0.24
  -6  14  -3   -0.16    0.22
   8 -15  -3    0.44    0.24
  -8  15   3    0.05    0.22
   7 -15  -3    1.34    0.38
  -7 -15   3    1.30    0.22
  -7  15   3    1.91    0.42
  -6 -15   3    0.55    0.18
   6 -15  -3    1.05    0.32
  -6  15   3    0.84    0.32
   5 -15  -3    4.95    0.61
  -5 -15   3    5.45    0.40
  -5  15   3    5.26    0.59
  -4 -15   3    2.69    0.20
   4 -15  -3    2.25    0.40
  -4 -15   3    2.52    0.19
  -4 -15   3    2.42    0.31
  -4 -15   3    2.78    0.34
  -4  15   3    2.79    0.41
  -3 -15   3    0.15    0.10
  -3 -15   3   -0.04    0.14
  -3 -15   3    0.32    0.14
   3 -15  -3    0.23    0.23
  -3 -15   3   -0.01    0.17
  -3  15   3    0.09    0.15
   2 -15  -3    0.94    0.27
   2 -15  -3    0.89    0.21
  -2 -15   3    0.80    0.25
  -2 -15   3    0.66    0.19
  -2 -15   3    0.89    0.25
   1 -15  -3    0.30    0.16
  -1 -15   3    0.23    0.18
  -1 -15   3    0.07    0.18
   1 -15  -3    0.23    0.18
   0 -15   3    2.17    0.38
   0 -15  -3    1.68    0.22
   0 -15  -3    1.65    0.29
   0 -15  -3    1.89    0.21
   0  15  -3    2.11    0.33
  -1 -15  -3    1.19    0.24
  -1 -15  -3    1.43    0.18
   1 -15   3    0.84    0.28
  -1 -15  -3    1.10    0.14
  -1  15  -3    1.06    0.28
   2 -15   3    0.47    0.24
  -2  15  -3    1.13    0.31
   3 -15   3    3.43    0.54
  -3  15  -3    3.56    0.52
  -4 -15  -3    1.12    0.19
   4 -15   3    0.79    0.32
  -4  15  -3    0.11    0.17
   5 -15   3    1.29    0.39
  -5  15  -3    1.07    0.35
   7 -16  -3    1.00    0.32
  -7  16   3    1.22    0.34
   6 -16  -3    1.22    0.38
  -6 -16   3    1.45    0.23
  -6  16   3    1.70    0.37
  -5 -16   3    0.26    0.19
   5 -16  -3    0.94    0.30
  -5  16   3    0.53    0.26
  -4 -16   3    0.52    0.20
   4 -16  -3    0.44    0.30
  -4 -16   3    0.80    0.15
  -4 -16   3    0.99    0.13
  -4 -16   3    1.06    0.24
  -4  16   3    0.87    0.26
   3 -16  -3    0.73    0.29
  -3 -16   3    0.49    0.17
  -3 -16   3    0.38    0.20
  -3 -16   3    0.67    0.15
  -3 -16   3    0.02    0.20
   2 -16  -3    2.67    0.34
   2 -16  -3    2.29    0.40
  -2 -16   3    2.37    0.38
  -2 -16   3    2.80    0.31
  -1 -16   3    3.60    0.39
   1 -16  -3    3.21    0.42
  -1 -16   3    3.27    0.45
   1 -16  -3    2.71    0.33
   0 -16   3   -0.13    0.18
   0 -16  -3    0.04    0.13
   0 -16  -3    0.15    0.16
  -1 -16  -3    0.65    0.21
   1 -16   3    0.45    0.24
  -1 -16  -3    0.72    0.17
  -1  16  -3    0.45    0.21
   2 -16   3    0.64    0.31
  -2  16  -3    0.33    0.23
   3 -16   3    3.64    0.57
  -3  16  -3    4.69    0.58
   4 -16   3    0.38    0.27
  -4  16  -3    0.32    0.24
   5 -16   3    0.91    0.33
  -5  16  -3    0.59    0.27
   7 -17  -3    0.20    0.26
  -7  17   3    0.34    0.24
  -6 -17   3    0.36    0.17
   6 -17  -3    0.32    0.25
  -6  17   3    0.07    0.17
   5 -17  -3    0.73    0.30
  -5 -17   3    0.93    0.14
  -5 -17   3    0.97    0.15
  -5 -17   3    1.14    0.24
  -5  17   3    1.08    0.31
  -4 -17   3    0.91    0.18
  -4 -17   3    1.47    0.28
  -4 -17   3    0.84    0.24
  -4 -17   3    1.59    0.18
   4 -17  -3    1.17    0.35
   3 -17  -3    2.72    0.45
  -3 -17   3    3.30    0.32
  -3 -17   3    3.58    0.43
   2 -17  -3    1.02    0.30
  -2 -17   3    0.73    0.22
  -2 -17   3    0.64    0.26
  -1 -17   3    2.57    0.36
   1 -17  -3    2.36    0.32
  -1 -17   3    2.89    0.45
   1 -17  -3    2.26    0.38
   0 -17  -3    0.01    0.15
   0 -17   3    0.29    0.22
   0 -17  -3   -0.03    0.15
   1 -17   3    0.07    0.22
  -1 -17  -3    0.09    0.09
  -1 -17  -3    0.17    0.15
  -1 -17  -3    0.01    0.14
  -2 -17  -3    0.41    0.11
   2 -17   3    0.36    0.30
  -2 -17  -3    0.31    0.09
  -2  17  -3    0.73    0.26
   3 -17   3    0.20    0.23
  -3  17  -3    0.48    0.23
   4 -17   3    1.11    0.37
  -4  17  -3    1.27    0.34
  -6 -18   3    1.70    0.14
   6 -18  -3    2.04    0.48
  -6  18   3    1.09    0.31
  -5 -18   3    1.67    0.29
  -5 -18   3    2.01    0.23
   5 -18  -3    1.53    0.41
   4 -18  -3    1.02    0.35
  -4 -18   3    1.51    0.24
   3 -18  -3    1.16    0.34
  -3 -18   3    1.24    0.25
  -3 -18   3    1.00    0.26
  -2 -18   3    0.96    0.25
   2 -18  -3    0.82    0.29
  -2 -18   3    1.24    0.31
   1 -18  -3    1.75    0.30
  -1 -18   3    1.65    0.37
   1 -18  -3    1.40    0.33
   0 -18   3    0.24    0.24
   0 -18  -3    0.35    0.18
   0 -18  -3    0.51    0.23
  -1 -18  -3    2.81    0.37
   1 -18   3    3.91    0.58
  -1 -18  -3    3.12    0.33
  -2 -18  -3    0.37    0.18
   2 -18   3    0.56    0.28
  -3 -18  -3    0.12    0.06
  -3 -18  -3   -0.01    0.06
   3 -18   3    0.19    0.22
  -3  18  -3    0.57    0.21
  -5 -19   3    2.99    0.21
   5 -19  -3    2.39    0.50
  -5 -19   3    1.80    0.24
  -4 -19   3    1.53    0.26
   4 -19  -3    1.52    0.41
  -3 -19   3    0.14    0.19
  -3 -19   3    0.41    0.19
   3 -19  -3    0.63    0.31
  -2 -19   3    1.21    0.32
   2 -19  -3    1.03    0.32
  -2 -19   3    1.26    0.29
   1 -19  -3    0.41    0.24
  -1 -19   3    0.03    0.23
   1 -19  -3   -0.03    0.17
   0 -19  -3    1.80    0.31
   0 -19  -3    1.50    0.32
   0 -19   3    1.84    0.43
   1 -19   3    0.09    0.27
  -1 -19  -3    0.61    0.20
   2 -19   3    0.26    0.30
  -2 -19  -3    0.31    0.17
  -4 -20   3    2.63    0.34
   4 -20  -3    2.22    0.49
   3 -20  -3    0.60    0.31
  -3 -20   3    0.47    0.24
  -3 -20   3    0.26    0.21
  -2 -20   3    0.15    0.23
   2 -20  -3    0.31    0.24
   1 -20  -3    0.79    0.29
  -1 -20   3    0.46    0.28
   0 -20  -3    0.27    0.23
   0 -20   3    0.32    0.23
   0 -20  -3    0.45    0.24
  -1 -20  -3    0.90    0.24
   1 -20   3    1.14    0.37
   1 -21  -3    0.98    0.30
  -1 -21   3    1.04    0.33
 -11   0   4   -0.11    0.20
 -10   0   4    1.56    0.36
 -10   0   4    1.46    0.27
  -9   0   4   -0.01    0.14
  -9   0   4    0.01    0.18
  -8   0   4    2.36    0.27
  -8   0   4    2.79    0.37
  -7   0   4   -0.09    0.14
  -7   0   4    0.09    0.12
   7   0  -4   -0.03    0.10
  -7   0   4    0.05    0.10
  -6   0   4   41.06    1.28
  -6   0   4   41.65    1.10
  -6   0   4   41.44    1.12
   6   0  -4   41.30    1.25
   5   0  -4    0.06    0.13
  -5   0   4    0.17    0.10
  -5   0   4   -0.13    0.10
  -5   0   4   -0.20    0.12
  -4   0   4   53.22    1.33
   4   0  -4   54.39    1.35
  -4   0   4   54.38    1.51
   4   0  -4   54.84    1.51
  -4   0   4   54.70    1.35
  -3   0   4    0.00    0.08
   3   0  -4    0.11    0.11
   3   0  -4    0.02    0.13
  -3   0   4   -0.15    0.08
  -3   0   4   -0.11    0.12
  -2   0   4   25.71    0.75
   2   0  -4   25.20    0.76
  -2   0   4   25.79    0.82
  -2   0   4   25.28    0.69
   2   0  -4   25.22    0.82
   1   0  -4   -0.10    0.09
   1   0  -4   -0.15    0.09
  -1   0   4   -0.06    0.11
   1   0  -4    0.04    0.14
   0   0  -4   17.94    0.55
   0   0  -4   18.50    0.63
   0   0  -4   18.73    0.55
   0   0  -4   17.36    0.65
   0   0   4   18.08    0.59
  -1   0  -4    0.02    0.09
  -1   0  -4    0.09    0.17
  -1   0  -4    0.07    0.10
  -1   0  -4   -0.03    0.13
  -2   0  -4   10.44    0.52
  -2   0  -4    9.73    0.39
  -2   0  -4   10.23    0.52
   2   0   4   10.56    0.50
  -2   0  -4    9.69    0.40
   3   0   4    0.05    0.11
  -3   0  -4    0.04    0.20
  -3   0  -4    0.07    0.11
  -3   0  -4   -0.04    0.15
  -3   0  -4   -0.06    0.10
  -4   0  -4    4.87    0.43
  -4   0  -4    4.42    0.31
  -4   0  -4    4.52    0.44
  -5   0  -4   -0.03    0.16
  -5   0  -4    0.14    0.21
  -6   0  -4    1.32    0.31
  -7   0  -4   -0.10    0.16
  -7   0  -4   -0.16    0.17
 -11  -1   4    0.47    0.26
 -11  -1   4    0.09    0.18
 -11   1   4    0.10    0.26
 -10  -1   4    0.73    0.26
 -10  -1   4    0.26    0.18
 -10   1   4    0.60    0.25
  -9  -1   4   -0.22    0.17
  -9  -1   4    0.11    0.14
  -9   1   4    0.12    0.16
  -9   1   4   -0.09    0.17
  -8  -1   4    0.81    0.18
  -8  -1   4    0.74    0.22
  -8  -1   4    0.90    0.19
  -8   1   4    0.94    0.20
  -8   1   4    1.07    0.26
  -7  -1   4   12.07    0.46
  -7  -1   4   12.19    0.60
   7  -1  -4   11.54    0.57
  -7  -1   4   12.45    0.48
  -7   1   4   11.88    0.50
   7   1  -4   11.68    0.54
  -7   1   4   10.54    0.58
  -6  -1   4    4.15    0.38
  -6  -1   4    5.39    0.29
  -6  -1   4    4.69    0.28
   6  -1  -4    5.18    0.36
  -6   1   4    4.50    0.30
   6   1  -4    4.80    0.32
  -6   1   4    5.13    0.37
  -6   1   4    5.02    0.31
  -5  -1   4   10.30    0.39
   5  -1  -4   10.24    0.48
  -5  -1   4   10.27    0.39
  -5  -1   4   10.17    0.49
  -5   1   4   10.32    0.41
  -5   1   4    9.22    0.40
  -5   1   4    9.84    0.49
   5   1  -4   10.50    0.48
   4  -1  -4   10.98    0.48
  -4  -1   4   11.87    0.41
   4  -1  -4   11.52    0.52
  -4  -1   4   11.77    0.41
  -4  -1   4   11.15    0.49
  -4   1   4   12.18    0.53
   4   1  -4   11.10    0.48
  -4   1   4   11.58    0.42
   4   1  -4   11.12    0.45
  -3  -1   4    3.16    0.25
   3  -1  -4    3.50    0.27
   3  -1  -4    3.52    0.29
  -3  -1   4    3.54    0.22
  -3  -1   4    3.21    0.26
   3   1  -4    3.44    0.27
   3   1  -4    3.87    0.28
  -3   1   4    3.11    0.21
  -3   1   4    3.52    0.32
  -2  -1   4    0.73    0.16
  -2  -1   4    1.12    0.14
   2  -1  -4    1.06    0.20
   2  -1  -4    1.04    0.14
   2  -1  -4    0.77    0.16
   2   1  -4    0.88    0.16
   2   1  -4    1.04    0.19
  -2   1   4    0.86    0.17
   1  -1  -4   54.20    1.49
   1  -1  -4   53.87    1.34
   1  -1  -4   55.23    1.36
  -1  -1   4   54.42    1.36
   1   1  -4   54.63    1.36
  -1   1   4   54.61    1.34
   1   1  -4   56.61    1.37
   1   1  -4   54.46    1.49
   0  -1  -4    3.57    0.21
   0  -1  -4    3.43    0.28
   0  -1  -4    3.60    0.27
   0  -1   4    3.91    0.29
   0  -1  -4    3.64    0.21
   0   1  -4    3.74    0.30
   0   1  -4    3.62    0.28
   0   1  -4    3.72    0.23
  -1  -1  -4    0.05    0.08
  -1  -1  -4   -0.02    0.08
  -1  -1  -4    0.21    0.14
  -1  -1  -4    0.06    0.17
  -1   1  -4    0.04    0.09
  -1   1  -4   -0.10    0.17
  -1   1  -4    0.21    0.10
  -1   1  -4    0.09    0.14
  -2  -1  -4   10.97    0.41
  -2  -1  -4   11.53    0.54
   2  -1   4   10.36    0.51
  -2  -1  -4   11.73    0.54
  -2  -1  -4   11.54    0.41
  -2   1  -4   11.18    0.45
  -2   1  -4   10.97    0.45
  -2   1  -4   12.18    0.57
   2   1   4   11.40    0.51
  -2   1  -4   11.41    0.55
   3  -1   4   11.23    0.54
  -3  -1  -4   11.39    0.56
  -3  -1  -4   11.01    0.56
  -3  -1  -4   10.81    0.42
   3   1   4   10.47    0.49
  -3   1  -4   11.46    0.47
  -3   1  -4   11.74    0.60
  -3   1  -4   10.52    0.46
  -3   1  -4   10.13    0.56
  -4  -1  -4    1.54    0.28
   4  -1   4    1.08    0.22
  -4  -1  -4    1.35    0.28
  -4  -1  -4    1.42    0.20
  -4   1  -4    1.61    0.30
  -4   1  -4    1.58    0.30
  -4   1  -4    1.43    0.22
  -5  -1  -4    3.43    0.40
  -5  -1  -4    2.99    0.29
  -5  -1  -4    3.29    0.40
  -5   1  -4    2.29    0.36
  -5   1  -4    2.70    0.39
  -5   1  -4    2.70    0.30
  -6  -1  -4    1.29    0.30
  -6  -1  -4    1.06    0.29
  -6   1  -4    1.10    0.24
  -6   1  -4    0.34    0.24
  -7  -1  -4    1.08    0.29
  -7   1  -4    1.25    0.35
 -11  -2   4    0.08    0.22
 -11  -2   4    0.02    0.17
 -11   2   4   -0.20    0.19
 -10  -2   4    1.29    0.30
 -10  -2   4    0.92    0.22
 -10   2   4    1.12    0.32
  -9  -2   4    0.82    0.24
  -9  -2   4    0.69    0.19
  -9   2   4    0.98    0.23
  -9   2   4    0.60    0.27
  -8  -2   4    1.30    0.20
  -8  -2   4    1.70    0.22
  -8  -2   4    1.62    0.29
   8  -2  -4    1.12    0.24
  -8   2   4    1.47    0.31
  -8   2   4    1.58    0.24
  -7  -2   4    7.73    0.35
  -7  -2   4    7.21    0.45
   7  -2  -4    8.10    0.48
  -7  -2   4    7.42    0.35
  -7   2   4    7.72    0.49
  -7   2   4    7.72    0.41
  -6  -2   4   12.05    0.44
  -6  -2   4   12.18    0.56
  -6  -2   4   11.70    0.43
   6  -2  -4   11.80    0.58
  -6   2   4   12.16    0.54
   6   2  -4   11.97    0.51
  -6   2   4   12.39    0.49
  -6   2   4   12.35    0.60
  -5  -2   4    1.45    0.22
  -5  -2   4    1.48    0.16
  -5  -2   4    1.72    0.17
   5  -2  -4    2.23    0.25
   5  -2  -4    1.72    0.25
   5   2  -4    1.47    0.21
  -5   2   4    1.63    0.24
  -5   2   4    1.45    0.18
  -4  -2   4    9.16    0.44
   4  -2  -4    9.95    0.45
  -4  -2   4    9.19    0.35
  -4  -2   4    9.07    0.35
   4  -2  -4    9.46    0.47
  -4  -2   4   10.07    0.44
  -4   2   4    8.97    0.45
  -4   2   4    9.08    0.37
   4   2  -4    9.56    0.43
   3  -2  -4   24.38    0.80
  -3  -2   4   24.23    0.72
  -3  -2   4   23.95    0.67
  -3  -2   4   22.76    0.65
   3  -2  -4   24.01    0.73
  -3  -2   4   23.03    0.77
  -3   2   4   23.40    0.66
   3   2  -4   22.00    0.75
   3   2  -4   22.77    0.69
  -3   2   4   23.08    0.79
  -2  -2   4   35.47    1.00
   2  -2  -4   39.20    0.99
   2  -2  -4   38.41    1.02
  -2  -2   4   37.68    0.97
   2  -2  -4   37.64    1.12
   2   2  -4   37.60    1.00
   2   2  -4   39.72    1.12
  -2   2   4   37.46    1.11
   1  -2  -4    1.26    0.20
   1  -2  -4    1.37    0.20
  -1  -2   4    2.19    0.23
   1  -2  -4    1.45    0.15
   1  -2  -4    1.70    0.16
   1   2  -4    1.53    0.21
   1   2  -4    1.34    0.21
  -1   2   4    1.70    0.22
   0  -2  -4    5.74    0.33
   0  -2  -4    5.84    0.26
   0  -2   4    5.80    0.35
   0  -2  -4    5.81    0.36
   0  -2  -4    6.28    0.26
   0   2  -4    5.65    0.35
   0   2  -4    5.25    0.36
   0   2  -4    6.07    0.29
  -1  -2  -4   10.57    0.37
  -1  -2  -4   11.04    0.50
  -1  -2  -4   10.45    0.48
  -1  -2  -4   10.63    0.38
  -1   2  -4   10.72    0.52
  -1   2  -4   10.61    0.42
  -1   2  -4   11.10    0.52
  -2  -2  -4   16.96    0.65
  -2  -2  -4   17.90    0.68
   2  -2   4   16.83    0.70
  -2  -2  -4   16.88    0.52
  -2  -2  -4   17.26    0.51
  -2   2  -4   17.31    0.60
  -2   2  -4   17.51    0.70
  -2   2  -4   16.98    0.59
   2   2   4   16.97    0.63
  -2   2  -4   17.34    0.72
  -3  -2  -4    8.22    0.49
  -3  -2  -4    8.64    0.34
  -3  -2  -4    8.01    0.33
  -3  -2  -4    7.33    0.45
   3  -2   4    7.74    0.47
  -3   2  -4    8.17    0.42
   3   2   4    8.38    0.41
  -3   2  -4    7.73    0.49
  -3   2  -4    8.82    0.54
  -4  -2  -4    1.80    0.19
  -4  -2  -4    1.68    0.19
  -4  -2  -4    1.22    0.26
   4  -2   4    1.90    0.30
  -4  -2  -4    1.75    0.28
  -4   2  -4    1.58    0.30
  -4   2  -4    1.46    0.23
  -4   2  -4    1.64    0.30
  -5  -2  -4    1.26    0.19
  -5  -2  -4    0.66    0.24
  -5  -2  -4    1.43    0.27
  -5  -2  -4    1.62    0.22
  -5   2  -4    1.58    0.33
  -5   2  -4    1.22    0.25
  -6  -2  -4    0.50    0.16
  -6  -2  -4    0.53    0.24
  -6  -2  -4    0.25    0.24
  -6   2  -4    0.18    0.23
  -7  -2  -4    1.03    0.29
  -7   2  -4    1.73    0.38
 -11  -3   4    0.23    0.18
 -11  -3   4    0.01    0.18
 -11   3   4    0.23    0.25
 -10  -3   4    0.91    0.25
 -10  -3   4    0.53    0.19
 -10   3   4    1.43    0.36
  -9  -3   4    0.22    0.20
  -9  -3   4    0.13    0.13
  -9  -3   4    0.23    0.14
  -9   3   4    0.26    0.20
  -8  -3   4    0.27    0.12
  -8  -3   4    0.29    0.13
  -8  -3   4    0.06    0.15
   8  -3  -4    0.35    0.18
  -8   3   4    0.41    0.22
  -8   3   4    0.31    0.17
  -7  -3   4    0.53    0.12
  -7  -3   4    0.92    0.15
  -7  -3   4    0.84    0.20
   7  -3  -4    0.86    0.22
  -7   3   4    0.85    0.18
  -7   3   4    0.91    0.25
  -6  -3   4   18.78    0.56
  -6  -3   4   19.32    0.73
  -6  -3   4   19.71    0.57
   6  -3  -4   20.36    0.81
  -6   3   4   19.21    0.66
  -6   3   4   19.35    0.80
   6   3  -4   18.88    0.66
   5  -3  -4    1.52    0.23
  -5  -3   4    1.19    0.21
  -5  -3   4    1.15    0.14
  -5  -3   4    1.12    0.15
   5  -3  -4    1.52    0.25
  -5  -3   4    1.26    0.21
  -5   3   4    1.56    0.19
  -5   3   4    1.30    0.24
   5   3  -4    1.22    0.18
  -4  -3   4    8.81    0.42
  -4  -3   4    8.97    0.44
  -4  -3   4    9.09    0.34
   4  -3  -4    9.08    0.47
  -4  -3   4    8.98    0.34
   4  -3  -4    9.39    0.46
  -4   3   4    9.05    0.47
   4   3  -4    9.14    0.41
  -4   3   4    9.28    0.37
  -3  -3   4    7.93    0.39
   3  -3  -4    8.35    0.44
  -3  -3   4    8.40    0.33
  -3  -3   4    7.82    0.39
  -3  -3   4    8.02    0.33
   3  -3  -4    8.73    0.42
   3   3  -4    8.35    0.37
   3   3  -4    8.77    0.40
  -3   3   4    8.20    0.43
   2  -3  -4    1.69    0.22
   2  -3  -4    1.73    0.18
   2  -3  -4    2.27    0.25
  -2  -3   4    1.88    0.18
  -2  -3   4    1.85    0.21
  -2   3   4    1.91    0.24
   2   3  -4    1.55    0.21
   2   3  -4    1.66    0.21
   1  -3  -4   71.87    1.90
   1  -3  -4   73.02    1.72
   1  -3  -4   72.15    1.71
   1  -3  -4   72.93    1.73
  -1  -3   4   74.57    1.73
  -1  -3   4   72.68    1.74
   1   3  -4   73.56    1.75
   1   3  -4   71.94    1.91
  -1   3   4   73.91    1.89
   0  -3  -4    1.96    0.17
   0  -3  -4    1.67    0.23
   0  -3   4    2.57    0.26
   0  -3  -4    1.43    0.21
   0  -3  -4    1.99    0.16
   0   3  -4    1.92    0.18
   0   3  -4    1.75    0.23
   0   3  -4    2.01    0.26
  -1  -3  -4   55.60    1.31
  -1  -3  -4   55.60    1.52
  -1  -3  -4   55.66    1.30
   1  -3   4   55.01    1.42
  -1  -3  -4   53.24    1.38
  -1   3  -4   54.32    1.57
  -1   3  -4   55.41    1.40
  -1   3  -4   54.51    1.45
  -2  -3  -4    2.16    0.27
  -2  -3  -4    2.47    0.17
   2  -3   4    2.37    0.30
  -2  -3  -4    1.87    0.26
  -2   3  -4    2.41    0.25
  -2   3  -4    2.33    0.31
  -2   3  -4    2.19    0.31
   2   3   4    2.63    0.26
  -3  -3  -4    6.53    0.27
   3  -3   4    6.94    0.46
  -3  -3  -4    6.72    0.44
  -3  -3  -4    6.09    0.27
  -3  -3  -4    6.22    0.40
  -3   3  -4    6.62    0.38
  -3   3  -4    7.00    0.47
  -3   3  -4    7.58    0.52
  -4  -3  -4    4.05    0.24
  -4  -3  -4    3.77    0.24
  -4  -3  -4    4.07    0.39
  -4  -3  -4    3.40    0.36
   4  -3   4    4.61    0.46
  -4   3  -4    4.00    0.46
  -4   3  -4    3.39    0.33
  -4   3  -4    4.52    0.45
  -5  -3  -4    0.28    0.13
  -5  -3  -4    0.14    0.20
  -5  -3  -4    0.19    0.17
  -5  -3  -4    0.24    0.12
  -5   3  -4   -0.03    0.17
  -6  -3  -4    0.31    0.15
  -6  -3  -4    0.03    0.18
  -6  -3  -4    0.03    0.23
  -6   3  -4    0.42    0.27
  -7  -3  -4    0.35    0.25
  -7  -3  -4    0.30    0.16
  -7  -3  -4    0.58    0.23
  -7   3  -4    0.52    0.27
 -11  -4   4    0.24    0.17
 -11   4   4    0.10    0.25
 -10  -4   4    0.24    0.19
 -10  -4   4    0.13    0.15
 -10   4   4    0.02    0.24
  -9  -4   4    0.02    0.14
  -9  -4   4    0.00    0.12
  -9  -4   4   -0.03    0.11
  -9   4   4   -0.07    0.20
  -8  -4   4    0.60    0.20
  -8  -4   4    0.70    0.14
  -8  -4   4    0.77    0.14
   8  -4  -4    0.52    0.21
  -8   4   4    0.61    0.24
   7  -4  -4    0.97    0.24
  -7  -4   4    1.12    0.14
  -7  -4   4    0.91    0.13
  -7  -4   4    1.16    0.22
  -7   4   4    1.02    0.26
  -6  -4   4    7.20    0.28
  -6  -4   4    6.92    0.40
   6  -4  -4    7.13    0.46
  -6  -4   4    7.14    0.27
   6   4  -4    6.93    0.34
  -6   4   4    6.50    0.36
  -6   4   4    7.82    0.50
  -5  -4   4    0.25    0.15
   5  -4  -4    0.55    0.18
  -5  -4   4    0.49    0.10
  -5  -4   4    0.41    0.16
  -5  -4   4    0.53    0.10
  -5   4   4    0.45    0.17
   5   4  -4    0.38    0.12
  -5   4   4    0.16    0.11
  -4  -4   4   16.44    0.50
  -4  -4   4   16.53    0.49
   4  -4  -4   16.59    0.68
  -4  -4   4   17.48    0.60
  -4  -4   4   16.52    0.62
  -4   4   4   16.21    0.53
   4   4  -4   16.73    0.59
  -4   4   4   16.04    0.66
  -3  -4   4    7.71    0.39
  -3  -4   4    7.56    0.31
  -3  -4   4    8.45    0.40
  -3  -4   4    7.43    0.31
   3  -4  -4    7.49    0.34
   3  -4  -4    8.00    0.43
   3   4  -4    7.85    0.38
  -3   4   4    7.03    0.40
  -2  -4   4   43.41    1.11
   2  -4  -4   44.73    1.28
  -2  -4   4   44.31    1.16
  -2  -4   4   43.66    1.11
   2  -4  -4   43.51    1.16
  -2   4   4   43.83    1.26
   2   4  -4   44.65    1.13
   2   4  -4   43.54    1.25
   1  -4  -4   31.89    0.84
   1  -4  -4   31.72    0.83
  -1  -4   4   31.74    0.86
   1  -4  -4   31.22    0.90
   1  -4  -4   32.01    0.99
   1   4  -4   31.56    1.00
  -1   4   4   31.73    0.96
   1   4  -4   31.09    0.91
   0  -4  -4    1.56    0.22
   0  -4  -4    1.29    0.20
   0  -4  -4    1.08    0.12
   0  -4   4    1.24    0.21
   0  -4  -4    1.09    0.12
   0   4  -4    1.02    0.21
   0   4  -4    1.02    0.21
   1  -4   4   36.36    1.19
  -1  -4  -4   38.02    1.12
  -1  -4  -4   37.45    1.03
  -1  -4  -4   37.17    0.91
  -1  -4  -4   38.22    0.92
  -1   4  -4   37.45    1.20
  -1   4  -4   37.57    1.03
  -1   4  -4   36.74    1.10
  -2  -4  -4    0.40    0.19
   2  -4   4    0.20    0.17
  -2  -4  -4    0.74    0.18
  -2  -4  -4    0.58    0.09
  -2  -4  -4    0.45    0.08
  -2   4  -4    0.21    0.21
  -2   4  -4    0.65    0.15
   2   4   4    0.31    0.12
  -2   4  -4    0.43    0.19
   3  -4   4   22.78    0.93
  -3  -4  -4   23.40    0.60
  -3  -4  -4   23.57    0.80
  -3  -4  -4   23.56    0.83
  -3  -4  -4   23.59    0.60
  -3   4  -4   23.19    0.79
  -3   4  -4   21.92    0.94
  -3   4  -4   23.76    0.89
  -4  -4  -4    5.30    0.38
   4  -4   4    5.17    0.50
  -4  -4  -4    5.04    0.40
  -4  -4  -4    5.06    0.24
  -4  -4  -4    5.26    0.24
  -4   4  -4    4.89    0.50
  -5  -4  -4    0.17    0.21
  -5  -4  -4    0.12    0.15
  -5  -4  -4   -0.02    0.09
  -5  -4  -4    0.32    0.11
   5  -4   4    0.28    0.18
  -5   4  -4    0.21    0.23
  -6  -4  -4    0.85    0.22
  -6  -4  -4    0.75    0.17
  -6  -4  -4    0.52    0.16
  -6  -4  -4    0.72    0.25
  -6   4  -4    0.85    0.30
  -7  -4  -4    1.09    0.30
  -7  -4  -4    1.42    0.24
  -7   4  -4    1.78    0.41
 -11  -5   4    0.76    0.21
 -11   5   4    0.70    0.33
 -10  -5   4    0.43    0.17
 -10   5   4    0.72    0.34
  -9  -5   4    0.25    0.13
  -9  -5   4    0.22    0.12
  -9  -5   4    0.38    0.16
  -9   5   4    0.25    0.21
  -8  -5   4    0.42    0.11
   8  -5  -4    0.21    0.18
  -8  -5   4    0.60    0.12
  -8  -5   4    0.82    0.21
  -8   5   4    0.62    0.24
  -7  -5   4    5.12    0.21
  -7  -5   4    5.93    0.38
   7  -5  -4    6.05    0.47
  -7  -5   4    5.37    0.22
  -7   5   4    5.47    0.53
  -6  -5   4   10.48    0.31
  -6  -5   4   10.74    0.50
  -6  -5   4   10.86    0.50
  -6  -5   4   10.27    0.31
   6  -5  -4   10.90    0.59
  -6   5   4   10.59    0.59
  -5  -5   4    7.02    0.39
  -5  -5   4    5.87    0.23
  -5  -5   4    6.57    0.39
   5  -5  -4    6.42    0.45
  -5  -5   4    6.35    0.24
  -5   5   4    7.42    0.47
   5   5  -4    6.95    0.32
  -4  -5   4    6.17    0.36
  -4  -5   4    6.77    0.38
   4  -5  -4    7.07    0.43
  -4  -5   4    6.26    0.26
  -4  -5   4    6.59    0.27
  -4   5   4    6.25    0.41
   4   5  -4    6.62    0.34
  -3  -5   4   31.97    0.86
   3  -5  -4   33.15    1.07
  -3  -5   4   32.42    0.86
   3  -5  -4   32.69    0.92
  -3  -5   4   32.82    0.93
  -3   5   4   33.35    1.04
   3   5  -4   32.42    0.98
  -2  -5   4    7.06    0.31
  -2  -5   4    7.31    0.40
   2  -5  -4    6.44    0.38
   2  -5  -4    6.38    0.30
   2  -5  -4    6.53    0.31
  -2  -5   4    6.63    0.29
   2   5  -4    6.59    0.36
   2   5  -4    6.95    0.36
  -2   5   4    7.06    0.38
   1  -5  -4    1.57    0.16
   1  -5  -4    1.36    0.20
   1  -5  -4    1.26    0.15
  -1  -5   4    1.39    0.18
  -1  -5   4    1.62    0.23
  -1   5   4    1.31    0.20
   1   5  -4    1.39    0.21
   1   5  -4    1.15    0.20
   0  -5   4   11.67    0.53
   0  -5  -4   12.34    0.50
   0  -5  -4   11.39    0.37
   0  -5  -4   12.43    0.52
   0  -5  -4   11.85    0.38
   0   5  -4   11.62    0.53
   0   5  -4   11.53    0.55
   1  -5   4    3.94    0.40
  -1  -5  -4    4.87    0.35
   1  -5   4    3.92    0.35
  -1  -5  -4    4.58    0.32
  -1  -5  -4    4.49    0.18
  -1  -5  -4    4.60    0.19
  -1   5  -4    4.59    0.39
  -1   5  -4    4.71    0.43
  -1   5  -4    4.52    0.28
   2  -5   4    1.98    0.30
  -2  -5  -4    2.05    0.25
  -2  -5  -4    1.79    0.24
   2   5   4    1.91    0.20
  -2   5  -4    1.75    0.29
  -2   5  -4    1.81    0.31
  -3  -5  -4    3.11    0.31
   3  -5   4    3.37    0.41
  -3  -5  -4    3.23    0.32
  -3   5  -4    2.95    0.41
  -4  -5  -4    0.51    0.07
   4  -5   4    0.56    0.23
  -4  -5  -4    0.46    0.19
  -4  -5  -4    0.35    0.17
  -4  -5  -4    0.47    0.07
  -4   5  -4    0.13    0.19
  -5  -5  -4    6.90    0.29
  -5  -5  -4    6.68    0.28
  -5  -5  -4    6.22    0.42
  -5  -5  -4    6.75    0.48
   5  -5   4    6.58    0.62
  -5   5  -4    7.36    0.68
  -6  -5  -4    0.29    0.22
  -6  -5  -4    0.30    0.12
  -6  -5  -4   -0.03    0.15
  -6  -5  -4    0.06    0.11
  -6   5  -4    0.44    0.28
  -7  -5  -4    3.52    0.32
  -7  -5  -4    3.18    0.40
  -7   5  -4    3.10    0.53
 -10  -6   4    1.13    0.20
 -10  -6   4    1.27    0.20
 -10   6   4    1.31    0.38
   9  -6  -4    0.72    0.23
  -9  -6   4    0.47    0.19
  -9  -6   4    0.59    0.13
  -9  -6   4    0.48    0.12
  -9   6   4    0.52    0.24
  -8  -6   4    0.12    0.07
  -8  -6   4    0.09    0.15
  -8  -6   4    0.16    0.08
   8  -6  -4   -0.07    0.11
  -8   6   4   -0.04    0.17
   7  -6  -4    2.75    0.37
  -7  -6   4    4.06    0.36
  -7   6   4    3.80    0.47
  -6  -6   4   11.17    0.51
  -6  -6   4   11.26    0.49
   6  -6  -4   10.65    0.61
  -6   6   4   10.25    0.62
  -5  -6   4    3.19    0.14
  -5  -6   4    3.20    0.29
   5  -6  -4    3.42    0.38
  -5  -6   4    3.10    0.30
  -5  -6   4    3.50    0.15
  -5   6   4    3.99    0.42
   5   6  -4    3.26    0.22
   4  -6  -4    3.72    0.37
  -4  -6   4    3.64    0.19
  -4  -6   4    3.67    0.31
  -4  -6   4    3.88    0.20
  -4   6   4    3.87    0.37
   4   6  -4    3.52    0.25
  -3  -6   4    5.31    0.36
  -3  -6   4    5.52    0.27
  -3  -6   4    5.36    0.27
   3  -6  -4    5.18    0.30
   3  -6  -4    5.19    0.37
   3   6  -4    5.39    0.32
  -3   6   4    5.54    0.36
   2  -6  -4    4.08    0.32
  -2  -6   4    4.22    0.34
  -2  -6   4    4.07    0.23
  -2  -6   4    3.88    0.26
   2  -6  -4    4.23    0.26
   2  -6  -4    4.19    0.24
   2   6  -4    4.22    0.31
  -2   6   4    3.78    0.30
   1  -6  -4   17.31    0.53
   1  -6  -4   17.96    0.68
  -1  -6   4   17.41    0.58
  -1  -6   4   17.25    0.65
   1   6  -4   17.18    0.67
   1   6  -4   16.78    0.62
  -1   6   4   17.31    0.63
   0  -6   4    4.32    0.36
   0  -6  -4    4.13    0.31
   0  -6   4    4.57    0.28
   0  -6  -4    4.49    0.20
   0  -6  -4    4.68    0.32
   0  -6  -4    4.19    0.21
   0   6  -4    4.46    0.35
   0   6  -4    3.61    0.33
  -1  -6  -4    3.74    0.14
  -1  -6  -4    3.65    0.30
   1  -6   4    3.89    0.37
  -1  -6  -4    3.65    0.14
  -1  -6  -4    3.63    0.28
   1  -6   4    3.31    0.37
  -1   6  -4    3.03    0.37
  -1   6  -4    4.03    0.37
   2  -6   4    8.52    0.55
  -2  -6  -4    8.47    0.44
  -2  -6  -4    9.25    0.46
  -2   6  -4    9.03    0.55
  -3  -6  -4    6.15    0.41
   3  -6   4    6.54    0.49
  -3  -6  -4    6.28    0.38
  -3   6  -4    7.13    0.50
  -4  -6  -4    5.33    0.40
   4  -6   4    5.37    0.54
  -4  -6  -4    5.37    0.37
  -4   6  -4    5.59    0.58
  -5  -6  -4    1.71    0.28
  -5  -6  -4    1.99    0.14
  -5  -6  -4    1.74    0.12
  -5  -6  -4    2.03    0.27
   5  -6   4    1.80    0.35
  -5   6  -4    2.22    0.40
  -6  -6  -4    0.15    0.10
  -6  -6  -4   -0.04    0.19
  -6  -6  -4    0.17    0.10
  -6   6  -4   -0.04    0.20
  -7  -6  -4    2.79    0.28
  -7   6  -4    3.09    0.52
 -10  -7   4    0.45    0.15
 -10  -7   4    0.41    0.14
 -10   7   4    0.51    0.30
  -9  -7   4    0.42    0.11
   9  -7  -4    0.23    0.19
  -9  -7   4    0.18    0.10
  -9   7   4    0.43    0.24
  -8  -7   4    2.35    0.30
   8  -7  -4    1.73    0.32
  -8   7   4    2.28    0.40
   7  -7  -4    5.66    0.56
  -7  -7   4    6.15    0.39
  -7  -7   4    5.18    0.35
  -7   7   4    5.15    0.55
   6  -7  -4    3.33    0.42
  -6  -7   4    3.06    0.29
  -6  -7   4    3.28    0.31
  -6   7   4    3.68    0.46
  -5  -7   4    8.62    0.44
   5  -7  -4    8.20    0.53
  -5   7   4    7.59    0.49
   4  -7  -4    9.12    0.53
  -4  -7   4   10.62    0.47
  -4  -7   4    9.49    0.32
  -4  -7   4    8.84    0.32
   4   7  -4   10.07    0.42
  -4   7   4    9.31    0.52
  -3  -7   4    2.13    0.19
  -3  -7   4    1.78    0.24
   3  -7  -4    1.88    0.29
   3  -7  -4    2.23    0.23
  -3  -7   4    1.99    0.19
  -3   7   4    1.83    0.27
   3   7  -4    2.12    0.24
   2  -7  -4    5.53    0.31
  -2  -7   4    5.44    0.39
   2  -7  -4    5.96    0.38
   2  -7  -4    5.60    0.29
  -2  -7   4    5.26    0.27
  -2  -7   4    5.30    0.29
   2   7  -4    5.30    0.35
  -2   7   4    4.88    0.33
  -1  -7   4    0.73    0.20
   1  -7  -4    0.58    0.14
   1  -7  -4    0.43    0.10
  -1  -7   4    0.48    0.14
   1  -7  -4    0.50    0.15
  -1   7   4    0.51    0.14
   1   7  -4    0.47    0.16
   1   7  -4    0.46    0.17
   0  -7   4    1.24    0.19
   0  -7   4    1.25    0.19
   0  -7  -4    1.46    0.23
   0  -7   4    1.01    0.23
   0  -7  -4    1.06    0.12
   0  -7  -4    1.12    0.12
   0   7   4    1.21    0.18
   0   7  -4    0.79    0.22
   0   7  -4    1.16    0.23
   1  -7   4    2.95    0.33
  -1  -7  -4    2.92    0.29
  -1  -7  -4    2.65    0.27
   1  -7   4    2.59    0.36
  -1   7  -4    3.30    0.39
  -2  -7  -4    8.36    0.42
   2  -7   4    7.92    0.53
  -2  -7  -4    7.63    0.42
  -2   7  -4    7.64    0.54
  -3  -7  -4   13.35    0.56
   3  -7   4   13.36    0.73
  -3  -7  -4   12.74    0.55
  -3   7  -4   12.09    0.71
  -4  -7  -4    0.48    0.19
   4  -7   4    0.68    0.26
  -4  -7  -4    0.18    0.15
  -4   7  -4    0.30    0.20
  -5  -7  -4    4.42    0.40
   5  -7   4    4.52    0.55
  -5  -7  -4    4.02    0.32
  -5   7  -4    3.73    0.51
  -6  -7  -4    2.15    0.18
  -6  -7  -4    2.31    0.18
  -6  -7  -4    2.03    0.32
  -6   7  -4    2.23    0.43
  -7  -7  -4   -0.16    0.09
  -7  -7  -4    0.15    0.11
  -7   7  -4    0.17    0.23
 -10  -8   4    0.27    0.13
 -10  -8   4    0.19    0.11
 -10   8   4   -0.20    0.23
   9  -8  -4   -0.53    0.12
  -9  -8   4    0.05    0.07
  -9   8   4    0.16    0.23
   8  -8  -4    0.10    0.17
  -8  -8   4    0.27    0.17
  -8   8   4    0.07    0.22
  -7  -8   4    0.26    0.15
   7  -8  -4    0.17    0.18
  -7  -8   4   -0.10    0.14
  -7   8   4    0.38    0.20
  -6  -8   4    8.20    0.44
   6  -8  -4    8.92    0.59
  -6   8   4    8.44    0.57
   5  -8  -4    1.26    0.30
  -5  -8   4    1.14    0.20
  -5   8   4    1.47    0.28
  -4  -8   4    8.90    0.31
   4  -8  -4    9.58    0.57
  -4  -8   4    9.35    0.47
  -4  -8   4    9.58    0.33
   4   8  -4    8.55    0.39
  -4   8   4    8.51    0.51
   3  -8  -4    0.83    0.17
  -3  -8   4    0.75    0.15
   3  -8  -4    0.50    0.18
  -3  -8   4    0.57    0.13
  -3  -8   4    0.53    0.19
   3   8  -4    0.78    0.16
  -3   8   4    0.90    0.20
  -2  -8   4    8.59    0.38
   2  -8  -4    7.86    0.35
   2  -8  -4    7.86    0.38
  -2  -8   4    8.39    0.46
  -2  -8   4    7.79    0.35
   2  -8  -4    8.76    0.49
  -2   8   4    7.61    0.43
   2   8  -4    8.33    0.43
   1  -8  -4    0.81    0.20
   1  -8  -4    1.03    0.17
  -1  -8   4    1.23    0.25
  -1  -8   4    0.88    0.18
   1  -8  -4    1.11    0.14
  -1  -8   4    1.30    0.17
  -1   8   4    0.99    0.18
   1   8  -4    1.40    0.23
   0  -8   4    5.83    0.35
   0  -8   4    6.51    0.47
   0  -8  -4    6.56    0.25
   0  -8  -4    7.14    0.40
   0  -8  -4    6.45    0.26
   0   8  -4    6.59    0.43
   0   8   4    6.58    0.33
   1  -8   4   16.55    0.78
  -1  -8  -4   18.20    0.68
  -1   8  -4   17.96    0.79
  -2  -8  -4   26.02    0.81
   2  -8   4   27.27    1.08
  -2  -8  -4   27.03    0.88
  -2   8  -4   26.03    1.04
   3  -8   4    3.96    0.48
  -3  -8  -4    2.94    0.29
  -3  -8  -4    3.01    0.30
  -3   8  -4    3.28    0.44
  -4  -8  -4   11.12    0.53
   4  -8   4   10.40    0.70
  -4  -8  -4   10.14    0.48
  -4   8  -4   11.05    0.70
  -5  -8  -4    1.87    0.28
   5  -8   4    1.86    0.36
  -5   8  -4    1.69    0.37
  -6  -8  -4    2.96    0.35
  -6   8  -4    2.63    0.46
  -7  -8  -4    0.49    0.13
  -7  -8  -4    0.55    0.13
  -7   8  -4    1.33    0.38
 -10  -9   4    0.08    0.09
 -10  -9   4    0.08    0.11
 -10   9   4   -0.05    0.20
   9  -9  -4   -0.02    0.18
  -9   9   4   -0.15    0.18
   8  -9  -4    1.44    0.34
  -8   9   4    2.46    0.44
   7  -9  -4    0.67    0.26
  -7  -9   4    0.47    0.17
  -7   9   4    0.58    0.25
  -6  -9   4    7.69    0.43
   6  -9  -4    7.60    0.58
  -6   9   4    7.24    0.54
  -5  -9   4    6.09    0.40
   5  -9  -4    6.29    0.50
  -5   9   4    7.02    0.50
   4  -9  -4   22.92    0.94
  -4  -9   4   21.03    0.59
  -4  -9   4   21.94    0.74
  -4  -9   4   21.05    0.59
  -4   9   4   22.58    0.89
   3  -9  -4    9.49    0.46
  -3  -9   4   10.16    0.41
  -3  -9   4   10.21    0.51
  -3  -9   4    9.90    0.39
   3  -9  -4    8.57    0.53
   3   9  -4   10.25    0.46
  -3   9   4    9.55    0.52
   2  -9  -4    3.39    0.37
   2  -9  -4    3.70    0.31
   2  -9  -4    3.47    0.25
  -2  -9   4    3.10    0.27
  -2  -9   4    3.59    0.25
  -2  -9   4    3.63    0.35
  -2   9   4    3.53    0.35
   2   9  -4    3.65    0.34
   1  -9  -4   40.08    1.26
  -1  -9   4   41.50    1.14
   1  -9  -4   41.68    1.06
  -1  -9   4   41.71    1.21
   1  -9  -4   41.62    1.10
  -1   9   4   39.89    1.19
   1   9  -4   39.23    1.26
   0  -9   4   18.76    0.68
   0  -9  -4   18.99    0.74
   0  -9  -4   19.85    0.56
   0  -9   4   20.55    0.79
   0  -9   4   19.29    0.83
   0  -9  -4   19.82    0.55
   0   9  -4   20.00    0.82
   0   9   4   19.39    0.66
  -1  -9  -4    7.08    0.41
   1  -9   4    7.37    0.51
  -1   9  -4    6.94    0.50
   2  -9   4    9.24    0.62
  -2  -9  -4    9.41    0.46
  -2  -9  -4    8.74    0.45
  -2   9  -4    8.55    0.57
  -3  -9  -4    2.93    0.29
   3  -9   4    3.17    0.45
  -3  -9  -4    2.90    0.30
  -3   9  -4    3.90    0.49
  -4  -9  -4    2.35    0.28
   4  -9   4    2.05    0.39
  -4   9  -4    1.65    0.39
  -5  -9  -4    1.04    0.24
   5  -9   4    1.02    0.33
  -5   9  -4    0.87    0.33
  -6  -9  -4    2.41    0.31
   6  -9   4    1.43    0.34
  -6   9  -4    1.61    0.44
 -10 -10   4    0.19    0.10
 -10 -10   4    0.22    0.10
 -10  10   4    0.06    0.24
   9 -10  -4    0.26    0.22
  -9  10   4    0.49    0.26
   8 -10  -4   -0.19    0.18
  -8  10   4    0.01    0.18
  -7 -10   4    0.61    0.18
   7 -10  -4    0.14    0.20
  -7  10   4    0.29    0.22
  -6 -10   4    1.83    0.25
   6 -10  -4    1.68    0.35
  -6  10   4    1.98    0.36
   5 -10  -4    8.63    0.58
  -5 -10   4    7.73    0.44
  -5  10   4    7.92    0.54
  -4 -10   4    5.47    0.25
  -4 -10   4    5.23    0.39
   4 -10  -4    5.79    0.46
  -4 -10   4    5.15    0.25
  -4  10   4    5.62    0.43
  -3 -10   4   11.11    0.45
  -3 -10   4   11.25    0.55
   3 -10  -4   11.37    0.62
   3 -10  -4   12.06    0.53
  -3 -10   4   10.82    0.44
  -3  10   4   11.97    0.60
   3  10  -4   11.21    0.49
  -2 -10   4   22.93    0.81
   2 -10  -4   22.44    0.88
  -2 -10   4   22.15    0.71
  -2 -10   4   21.73    0.73
   2 -10  -4   23.07    0.75
   2 -10  -4   21.81    0.70
   2  10  -4   21.90    0.81
  -2  10   4   22.20    0.83
  -1 -10   4    9.01    0.44
  -1 -10   4    9.02    0.53
   1 -10  -4    9.37    0.42
   1 -10  -4    8.90    0.37
  -1 -10   4    9.30    0.55
   1 -10  -4    9.30    0.51
  -1  10   4    8.83    0.44
   1  10  -4    9.33    0.51
   0 -10   4   34.99    1.26
   0 -10  -4   34.44    1.13
   0 -10  -4   36.12    0.91
   0 -10  -4   36.32    0.92
   0  10  -4   36.15    1.22
  -1 -10  -4    5.05    0.36
   1 -10   4    5.21    0.52
  -1  10  -4    5.03    0.50
  -2 -10  -4    7.48    0.41
  -2 -10  -4    7.31    0.42
   2 -10   4    7.28    0.57
  -2  10  -4    6.94    0.54
  -3 -10  -4    3.99    0.33
  -3 -10  -4    3.85    0.29
   3 -10   4    4.46    0.53
  -3  10  -4    3.35    0.47
   4 -10   4    3.99    0.54
  -4 -10  -4    2.14    0.28
  -4  10  -4    2.44    0.43
  -5 -10  -4    1.19    0.23
   5 -10   4    0.86    0.30
  -5  10  -4    1.65    0.38
   6 -10   4   -0.02    0.21
  -6  10  -4    0.24    0.24
   9 -11  -4    0.34    0.20
  -9  11   4    0.53    0.28
   8 -11  -4    0.24    0.20
  -8 -11   4    0.87    0.20
  -8  11   4    1.19    0.33
  -7 -11   4    1.22    0.22
   7 -11  -4    1.03    0.33
  -7  11   4    0.69    0.29
   6 -11  -4    0.16    0.17
  -6 -11   4    0.14    0.15
  -6  11   4    0.27    0.19
  -5 -11   4    9.06    0.48
   5 -11  -4    8.35    0.62
  -5  11   4    9.34    0.60
  -4 -11   4    5.88    0.41
  -4 -11   4    5.31    0.27
  -4 -11   4    5.45    0.27
   4 -11  -4    6.42    0.59
  -4  11   4    5.83    0.46
  -3 -11   4    2.69    0.32
  -3 -11   4    2.21    0.24
   3 -11  -4    2.44    0.30
  -3 -11   4    2.19    0.21
   3 -11  -4    1.64    0.31
  -3  11   4    2.00    0.31
   2 -11  -4    7.23    0.40
  -2 -11   4    7.30    0.48
  -2 -11   4    6.82    0.47
  -2 -11   4    7.00    0.36
   2 -11  -4    6.73    0.47
  -2 -11   4    7.81    0.42
  -2  11   4    6.83    0.43
   2  11  -4    6.93    0.41
  -1 -11   4    1.63    0.29
   1 -11  -4    1.32    0.26
   1 -11  -4    1.37    0.17
  -1 -11   4    1.67    0.29
   1 -11  -4    1.77    0.22
  -1 -11   4    1.63    0.24
  -1  11   4    2.08    0.25
   1  11  -4    1.15    0.24
   0 -11  -4   38.75    1.22
   0 -11  -4   37.84    0.98
   0 -11   4   37.64    1.35
   0 -11  -4   37.84    0.99
   0  11  -4   38.78    1.31
   1 -11   4   13.70    0.76
  -1 -11  -4   13.36    0.59
  -1 -11  -4   13.09    0.35
  -1  11  -4   14.70    0.74
   2 -11   4   15.31    0.83
  -2 -11  -4   12.78    0.57
  -2  11  -4   14.16    0.78
  -3 -11  -4    0.86    0.20
   3 -11   4    0.97    0.32
  -3 -11  -4    0.93    0.19
  -3  11  -4    1.13    0.30
   4 -11   4    0.47    0.27
  -4 -11  -4   -0.03    0.16
  -4  11  -4    0.29    0.23
   5 -11   4    0.28    0.24
  -5 -11  -4   -0.17    0.15
  -5  11  -4   -0.27    0.17
   6 -11   4   -0.14    0.21
  -6  11  -4    0.02    0.21
   9 -12  -4    0.26    0.22
  -9  12   4    0.73    0.30
   8 -12  -4   -0.11    0.19
  -8 -12   4    0.54    0.17
  -8  12   4    0.89    0.29
   7 -12  -4    1.29    0.37
  -7 -12   4    0.73    0.20
  -7  12   4    0.73    0.30
  -6 -12   4    0.33    0.18
   6 -12  -4    0.91    0.28
  -6  12   4    0.87    0.27
  -5 -12   4    8.48    0.48
  -5 -12   4    8.07    0.26
  -5 -12   4    8.40    0.26
   5 -12  -4    9.03    0.65
  -5  12   4    9.10    0.59
  -4 -12   4    9.60    0.38
  -4 -12   4    8.90    0.50
  -4 -12   4    9.01    0.37
   4 -12  -4    9.75    0.65
  -4  12   4    9.46    0.59
  -3 -12   4    1.62    0.22
  -3 -12   4    1.34    0.18
  -3 -12   4    1.09    0.25
  -3 -12   4    1.57    0.28
   3 -12  -4    1.36    0.25
   3 -12  -4    1.19    0.28
  -3  12   4    1.50    0.28
  -2 -12   4    7.68    0.43
   2 -12  -4    7.99    0.53
  -2 -12   4    8.36    0.51
  -2 -12   4    7.54    0.50
   2 -12  -4    6.96    0.42
  -2  12   4    7.00    0.44
   2  12  -4    6.45    0.42
  -1 -12   4    2.54    0.38
   1 -12  -4    3.02    0.36
   1 -12  -4    2.60    0.24
  -1 -12   4    2.71    0.31
   1 -12  -4    2.19    0.25
   1  12  -4    3.60    0.39
   0 -12  -4    4.40    0.42
   0 -12  -4    3.73    0.27
   0 -12   4    4.31    0.49
   0 -12  -4    4.35    0.24
   0  12  -4    3.94    0.45
  -1 -12  -4    0.48    0.08
  -1 -12  -4    0.48    0.18
   1 -12   4    0.70    0.27
  -1 -12  -4    0.64    0.09
  -1  12  -4    0.28    0.23
   2 -12   4    2.52    0.44
  -2 -12  -4    3.30    0.33
  -2  12  -4    3.71    0.50
  -3 -12  -4    4.24    0.35
   3 -12   4    3.49    0.53
  -3  12  -4    3.38    0.50
  -4 -12  -4    2.74    0.30
   4 -12   4    3.21    0.50
  -4  12  -4    2.84    0.48
   5 -12   4    0.30    0.22
  -5 -12  -4    0.37    0.18
  -5  12  -4    0.51    0.25
   6 -12   4    0.29    0.22
  -6  12  -4    0.26    0.24
   9 -13  -4    1.06    0.31
  -9  13   4    0.66    0.27
  -8 -13   4    0.38    0.16
   8 -13  -4    0.47    0.28
  -8  13   4    0.24    0.22
  -7 -13   4    0.76    0.20
   7 -13  -4    0.62    0.27
  -7  13   4    0.92    0.29
   6 -13  -4    2.39    0.44
  -6 -13   4    2.67    0.31
  -6  13   4    3.84    0.53
  -5 -13   4    2.31    0.30
  -5 -13   4    2.11    0.17
  -5 -13   4    2.54    0.17
   5 -13  -4    2.24    0.40
  -5  13   4    2.80    0.42
  -4 -13   4    3.47    0.36
  -4 -13   4    2.89    0.25
   4 -13  -4    2.41    0.39
  -4 -13   4    3.56    0.27
  -4 -13   4    3.66    0.39
  -4  13   4    3.39    0.44
  -3 -13   4    0.52    0.21
  -3 -13   4    0.21    0.20
  -3 -13   4    0.61    0.14
  -3 -13   4    0.16    0.14
   3 -13  -4    0.12    0.19
  -3  13   4    0.70    0.21
   2 -13  -4    6.83    0.50
  -2 -13   4    7.32    0.51
   2 -13  -4    7.42    0.44
  -2 -13   4    7.07    0.44
  -2 -13   4    7.62    0.53
  -2  13   4    7.05    0.45
   1 -13  -4   -0.06    0.08
   1 -13  -4    0.04    0.15
   1 -13  -4    0.11    0.14
  -1 -13   4    0.05    0.15
  -1 -13   4    0.16    0.20
   1  13  -4   -0.12    0.11
   0 -13   4    4.38    0.51
   0 -13  -4    4.29    0.32
   0 -13  -4    5.08    0.40
   0 -13  -4    4.99    0.27
   0  13  -4    5.52    0.52
   1 -13   4    1.19    0.31
  -1 -13  -4    0.98    0.23
  -1 -13  -4    1.16    0.13
  -1 -13  -4    1.10    0.13
  -1  13  -4    1.36    0.29
  -2 -13  -4    3.76    0.36
   2 -13   4    3.02    0.49
  -2  13  -4    3.94    0.52
   3 -13   4    0.57    0.27
  -3 -13  -4    1.02    0.22
  -3  13  -4    1.16    0.33
  -4 -13  -4    5.72    0.41
   4 -13   4    5.58    0.70
  -4  13  -4    5.05    0.63
   5 -13   4    1.25    0.35
  -5  13  -4    1.26    0.35
   8 -14  -4    0.87    0.31
  -8 -14   4    1.60    0.25
  -8  14   4    2.67    0.50
   7 -14  -4    1.02    0.35
  -7 -14   4    1.74    0.27
  -7  14   4    2.25    0.46
  -6 -14   4    1.75    0.29
   6 -14  -4    2.12    0.43
  -6  14   4    1.82    0.37
  -5 -14   4    2.22    0.20
   5 -14  -4    1.59    0.35
  -5 -14   4    2.04    0.30
  -5 -14   4    2.23    0.20
  -5 -14   4    2.27    0.31
  -5  14   4    2.26    0.38
   4 -14  -4    1.08    0.31
  -4 -14   4    1.52    0.17
  -4 -14   4    1.50    0.28
  -4 -14   4    1.51    0.21
  -4 -14   4    1.04    0.26
  -4  14   4    1.25    0.28
  -3 -14   4    7.07    0.42
   3 -14  -4    7.05    0.57
  -3 -14   4    7.14    0.51
  -3 -14   4    7.47    0.51
  -3  14   4    6.74    0.49
  -2 -14   4    1.95    0.29
   2 -14  -4    2.24    0.31
   2 -14  -4    2.39    0.38
  -2 -14   4    1.76    0.33
   1 -14  -4    0.53    0.19
  -1 -14   4    0.40    0.19
  -1 -14   4    0.96    0.27
   1 -14  -4    0.47    0.22
   1  14  -4    1.14    0.25
   0 -14  -4    0.40    0.17
   0 -14  -4    0.54    0.20
   0 -14  -4    0.29    0.12
   0 -14   4    0.11    0.20
   0  14  -4    0.44    0.23
   1 -14   4   -0.05    0.18
  -1 -14  -4    0.68    0.20
  -1 -14  -4    0.54    0.12
  -1 -14  -4    0.40    0.10
  -1  14  -4    0.30    0.23
   2 -14   4    3.34    0.53
  -2 -14  -4    3.90    0.37
  -2  14  -4    3.18    0.48
  -3 -14  -4    1.93    0.28
   3 -14   4    1.96    0.43
  -3  14  -4    1.51    0.35
  -4 -14  -4    1.23    0.23
   4 -14   4    0.98    0.34
  -4  14  -4    1.23    0.34
   5 -14   4    0.50    0.27
  -5  14  -4    1.01    0.35
   8 -15  -4    0.62    0.28
  -8  15   4    0.54    0.29
  -7 -15   4   -0.14    0.14
   7 -15  -4    0.16    0.21
  -7  15   4    0.40    0.25
   6 -15  -4    0.15    0.22
  -6 -15   4   -0.06    0.07
  -6 -15   4   -0.10    0.15
  -6 -15   4    0.00    0.07
  -6  15   4    0.03    0.18
  -5 -15   4    1.92    0.30
  -5 -15   4    2.22    0.32
   5 -15  -4    1.07    0.32
  -5 -15   4    1.66    0.20
  -5 -15   4    1.86    0.21
  -5  15   4    2.27    0.39
   4 -15  -4    1.67    0.35
  -4 -15   4    1.70    0.30
  -4 -15   4    1.83    0.31
  -4 -15   4    2.25    0.22
  -4 -15   4    1.56    0.22
  -4  15   4    1.66    0.33
  -3 -15   4    1.36    0.29
  -3 -15   4    0.98    0.22
   3 -15  -4    1.04    0.29
   2 -15  -4    0.36    0.19
  -2 -15   4    0.52    0.24
   2 -15  -4    0.50    0.25
  -2 -15   4    0.19    0.18
  -1 -15   4    0.82    0.27
   1 -15  -4    0.90    0.26
   1 -15  -4    0.76    0.20
   0 -15  -4    0.26    0.16
   0 -15  -4    0.08    0.16
   0 -15  -4    0.22    0.12
   0 -15   4    0.84    0.28
   0  15  -4    0.30    0.20
   1 -15   4    1.21    0.33
  -1 -15  -4    1.32    0.20
  -1 -15  -4    1.43    0.17
  -1 -15  -4    1.41    0.27
  -1  15  -4    1.50    0.34
  -2 -15  -4    0.03    0.07
   2 -15   4   -0.05    0.22
  -2  15  -4    0.27    0.21
   3 -15   4    1.32    0.36
  -3 -15  -4    1.93    0.27
  -3  15  -4    1.69    0.39
   4 -15   4    1.93    0.45
  -4  15  -4    1.90    0.43
  -7 -16   4    0.09    0.15
   7 -16  -4    0.28    0.25
  -7  16   4    0.63    0.28
   6 -16  -4    0.42    0.26
  -6 -16   4    0.99    0.16
  -6 -16   4    1.04    0.16
  -6 -16   4    0.40    0.21
  -6  16   4    0.51    0.25
  -5 -16   4    0.36    0.20
   5 -16  -4    1.13    0.35
  -5 -16   4    0.89    0.18
  -5 -16   4    0.54    0.22
  -5 -16   4    0.37    0.16
  -5  16   4    0.27    0.22
  -4 -16   4    0.12    0.17
   4 -16  -4    0.07    0.22
  -4 -16   4   -0.04    0.14
  -3 -16   4    0.38    0.23
  -3 -16   4    0.32    0.19
   3 -16  -4    0.49    0.26
   2 -16  -4    3.46    0.40
   2 -16  -4    3.80    0.49
  -2 -16   4    3.95    0.42
  -2 -16   4    3.61    0.47
   1 -16  -4    1.22    0.29
  -1 -16   4    0.89    0.28
   1 -16  -4    0.75    0.21
   0 -16   4    0.90    0.30
   0 -16  -4    0.87    0.21
   0 -16  -4    0.97    0.27
  -1 -16  -4    2.75    0.24
  -1 -16  -4    2.16    0.32
  -1 -16  -4    2.39    0.27
   1 -16   4    1.51    0.41
  -1  16  -4    1.36    0.33
  -2 -16  -4    5.50    0.27
  -2 -16  -4    4.79    0.24
   2 -16   4    4.23    0.59
  -2  16  -4    4.83    0.58
   3 -16   4    0.08    0.23
  -3 -16  -4   -0.08    0.15
  -3  16  -4   -0.18    0.14
   4 -16   4    0.52    0.27
  -4  16  -4    0.41    0.29
  -7 -17   4    0.81    0.14
   7 -17  -4    0.58    0.28
  -7 -17   4    0.51    0.12
  -7  17   4    0.19    0.20
  -6 -17   4   -0.03    0.13
  -6 -17   4   -0.12    0.11
  -6 -17   4   -0.04    0.15
   6 -17  -4   -0.21    0.16
  -6  17   4    0.24    0.19
  -5 -17   4    0.03    0.15
   5 -17  -4   -0.12    0.24
  -4 -17   4    2.34    0.36
   4 -17  -4    1.71    0.40
  -4 -17   4    1.64    0.27
  -3 -17   4    0.31    0.19
   3 -17  -4    0.42    0.27
  -3 -17   4    0.43    0.24
  -2 -17   4    0.29    0.20
   2 -17  -4    0.52    0.26
  -2 -17   4    0.23    0.22
  -1 -17   4    0.66    0.28
   1 -17  -4    0.37    0.23
   1 -17  -4    0.08    0.16
   0 -17  -4    0.78    0.25
   0 -17  -4    1.15    0.25
   0 -17   4    1.03    0.33
   1 -17   4    0.73    0.34
  -1 -17  -4    1.05    0.25
  -1 -17  -4    0.84    0.22
   2 -17   4    1.45    0.37
  -2 -17  -4    0.80    0.14
  -2 -17  -4    0.92    0.17
  -2  17  -4    1.14    0.30
  -3 -17  -4    0.66    0.12
   3 -17   4    0.42    0.31
  -3 -17  -4    0.53    0.10
  -6 -18   4    0.65    0.18
   6 -18  -4    0.23    0.27
  -5 -18   4    1.31    0.25
   5 -18  -4    0.35    0.31
  -4 -18   4    0.17    0.20
  -4 -18   4    0.57    0.21
   4 -18  -4   -0.02    0.24
  -3 -18   4    0.29    0.21
  -3 -18   4    0.10    0.20
   3 -18  -4    0.03    0.21
  -2 -18   4    1.41    0.34
   2 -18  -4    1.36    0.36
   1 -18  -4    0.20    0.19
  -1 -18   4    0.23    0.25
   1 -18  -4    0.86    0.26
   0 -18  -4    0.87    0.26
   0 -18   4    0.47    0.30
   0 -18  -4    0.99    0.25
  -1 -18  -4    0.56    0.21
   1 -18   4    0.81    0.34
  -2 -18  -4    1.24    0.25
   2 -18   4    1.68    0.44
  -5 -19   4    0.11    0.17
   5 -19  -4    0.03    0.24
   4 -19  -4    0.36    0.26
  -4 -19   4    0.37    0.24
  -4 -19   4    0.71    0.24
   3 -19  -4    1.28    0.38
  -3 -19   4    1.07    0.27
  -3 -19   4    1.86    0.38
  -2 -19   4    0.23    0.25
   2 -19  -4    0.28    0.25
   1 -19  -4    1.04    0.32
  -1 -19   4    1.23    0.36
   1 -19  -4    1.53    0.32
   0 -19   4   -0.04    0.22
   0 -19  -4    0.28    0.21
   0 -19  -4    0.12    0.18
  -1 -19  -4    0.59    0.22
   1 -19   4    0.49    0.32
   3 -20  -4    0.53    0.27
  -3 -20   4    0.19    0.23
  -2 -20   4    1.42    0.37
   2 -20  -4    1.20    0.35
   1 -20  -4    1.30    0.33
  -1 -20   4    1.18    0.37
   0 -20  -4   -0.05    0.18
   0 -20   4   -0.01    0.21
   0 -20  -4   -0.05    0.19
 -11   0   5    0.19    0.23
 -10   0   5   -0.03    0.18
  -9   0   5    2.78    0.41
  -9   0   5    2.83    0.33
  -8   0   5    0.17    0.14
  -8   0   5   -0.22    0.14
  -7   0   5    7.05    0.47
  -7   0   5    7.80    0.41
   7   0  -5    6.60    0.44
  -6   0   5    0.01    0.12
   6   0  -5   -0.16    0.11
  -6   0   5   -0.24    0.14
  -6   0   5   -0.05    0.10
  -5   0   5    7.82    0.37
   5   0  -5    7.69    0.45
  -5   0   5    7.82    0.46
  -5   0   5    8.13    0.38
   4   0  -5    0.16    0.16
   4   0  -5    0.09    0.12
  -4   0   5   -0.03    0.11
  -4   0   5   -0.05    0.09
  -3   0   5   16.02    0.52
   3   0  -5   15.76    0.61
   3   0  -5   16.01    0.66
  -3   0   5   16.31    0.59
  -3   0   5   15.59    0.65
  -2   0   5   -0.04    0.10
   2   0  -5   -0.24    0.09
  -2   0   5    0.14    0.13
   2   0  -5    0.18    0.17
  -1   0   5    2.53    0.26
   1   0  -5    2.34    0.30
   1   0  -5    1.68    0.21
   1   0  -5    2.00    0.27
   0   0  -5   -0.11    0.09
   0   0  -5   -0.05    0.18
   0   0  -5    0.13    0.16
  -1   0  -5    9.56    0.53
  -1   0  -5    8.63    0.39
  -1   0  -5    8.37    0.50
  -1   0  -5    8.47    0.39
  -2   0  -5   -0.11    0.20
  -2   0  -5    0.13    0.12
  -2   0  -5    0.00    0.15
   2   0   5    0.03    0.14
  -3   0  -5    4.38    0.33
  -3   0  -5    3.66    0.43
  -3   0  -5    4.11    0.41
   3   0   5    3.85    0.39
  -4   0  -5   -0.11    0.14
  -4   0  -5    0.15    0.22
  -4   0  -5   -0.06    0.16
  -5   0  -5    7.22    0.66
  -5   0  -5    7.53    0.48
  -6   0  -5    0.01    0.21
  -7   0  -5    4.30    0.56
 -11  -1   5    0.32    0.24
 -11   1   5    0.10    0.22
 -10  -1   5    1.66    0.35
 -10  -1   5    1.42    0.28
 -10   1   5    1.56    0.36
  -9  -1   5    1.81    0.33
  -9  -1   5    2.64    0.31
  -9   1   5    1.82    0.37
  -9   1   5    2.59    0.32
  -8  -1   5    2.61    0.28
  -8  -1   5    2.69    0.37
   8  -1  -5    2.57    0.34
  -8   1   5    1.71    0.33
  -8   1   5    2.40    0.29
  -7  -1   5    6.95    0.38
  -7  -1   5    6.06    0.45
   7  -1  -5    7.31    0.46
  -7   1   5    6.86    0.39
   7   1  -5    6.41    0.41
  -7   1   5    5.74    0.46
  -6  -1   5    1.60    0.21
  -6  -1   5    1.25    0.19
   6  -1  -5    1.39    0.25
  -6  -1   5    1.42    0.25
  -6   1   5    1.45    0.21
  -6   1   5    1.27    0.27
   6   1  -5    1.45    0.23
  -5  -1   5    1.06    0.23
   5  -1  -5    1.18    0.23
  -5  -1   5    1.02    0.17
  -5  -1   5    1.02    0.17
   5  -1  -5    1.04    0.21
   5   1  -5    0.93    0.20
  -5   1   5    0.65    0.19
  -5   1   5    0.97    0.17
   4  -1  -5   11.90    0.53
   4  -1  -5   11.50    0.55
  -4  -1   5   11.29    0.55
  -4  -1   5   11.40    0.51
  -4  -1   5   11.47    0.44
   4   1  -5   11.54    0.49
  -4   1   5   10.23    0.52
  -4   1   5   11.47    0.44
   4   1  -5   11.67    0.54
  -3  -1   5    1.37    0.23
  -3  -1   5    1.44    0.17
   3  -1  -5    1.47    0.24
   3  -1  -5    1.45    0.23
   3   1  -5    1.47    0.23
  -3   1   5    1.56    0.24
   3   1  -5    1.58    0.23
   2  -1  -5    0.25    0.13
   2  -1  -5    0.62    0.19
  -2  -1   5    0.23    0.15
   2  -1  -5    0.43    0.15
   2   1  -5    0.60    0.19
   2   1  -5    0.33    0.15
  -2   1   5    0.66    0.17
  -1  -1   5   16.87    0.64
   1  -1  -5   18.27    0.68
   1  -1  -5   18.11    0.59
   1  -1  -5   17.57    0.70
   1   1  -5   18.93    0.68
  -1   1   5   16.69    0.61
   1   1  -5   18.20    0.71
   1   1  -5   19.20    0.60
   0  -1  -5    0.74    0.14
   0  -1  -5    0.94    0.16
   0  -1  -5    0.92    0.23
   0  -1  -5    0.52    0.17
   0   1  -5    0.78    0.20
   0   1  -5    0.66    0.14
   0   1  -5    1.26    0.24
  -1  -1  -5    5.40    0.39
  -1  -1  -5    5.67    0.31
  -1  -1  -5    5.16    0.30
  -1  -1  -5    4.91    0.41
  -1   1  -5    5.54    0.32
  -1   1  -5    6.13    0.37
  -1   1  -5    5.10    0.41
  -1   1  -5    6.27    0.46
  -2  -1  -5    3.46    0.39
  -2  -1  -5    2.78    0.26
  -2  -1  -5    3.50    0.36
   2  -1   5    3.10    0.36
  -2  -1  -5    3.08    0.27
  -2   1  -5    3.31    0.29
  -2   1  -5    3.08    0.36
   2   1   5    3.65    0.36
  -2   1  -5    3.13    0.37
  -3  -1  -5    1.39    0.28
   3  -1   5    0.89    0.22
  -3  -1  -5    0.86    0.26
  -3  -1  -5    0.72    0.18
  -3   1  -5    1.08    0.26
   3   1   5    1.30    0.23
  -3   1  -5    1.16    0.22
  -3   1  -5    1.00    0.29
  -4  -1  -5    0.18    0.19
  -4  -1  -5    0.29    0.16
  -4  -1  -5    0.23    0.24
  -4   1  -5    0.29    0.22
  -4   1  -5    0.25    0.16
  -5  -1  -5    0.33    0.18
  -5  -1  -5    0.20    0.22
  -5   1  -5    0.05    0.17
  -5   1  -5   -0.04    0.19
  -6  -1  -5    1.06    0.32
  -6  -1  -5    1.19    0.28
  -6   1  -5    1.47    0.37
  -7  -1  -5    0.46    0.25
  -7   1  -5    0.96    0.33
 -11  -2   5    0.32    0.23
 -11  -2   5    0.39    0.20
 -11   2   5    0.42    0.26
 -10  -2   5    0.35    0.19
 -10  -2   5    0.45    0.22
 -10   2   5    0.29    0.25
  -9  -2   5    2.12    0.27
  -9  -2   5    1.83    0.34
  -9   2   5    1.75    0.36
   8  -2  -5    8.05    0.52
  -8  -2   5    8.10    0.54
  -8  -2   5    8.82    0.43
  -8   2   5    8.88    0.48
  -8   2   5    7.08    0.55
  -7  -2   5    6.58    0.36
   7  -2  -5    7.21    0.47
  -7  -2   5    6.53    0.36
  -7  -2   5    7.08    0.47
   7   2  -5    6.39    0.40
  -7   2   5    6.27    0.47
  -7   2   5    6.61    0.39
  -6  -2   5    4.55    0.29
  -6  -2   5    5.67    0.41
  -6  -2   5    5.27    0.32
   6  -2  -5    4.53    0.43
  -6   2   5    5.96    0.44
   6   2  -5    5.14    0.35
  -6   2   5    5.21    0.33
  -5  -2   5    0.26    0.16
  -5  -2   5    0.22    0.11
  -5  -2   5    0.34    0.13
   5  -2  -5    0.22    0.17
  -5  -2   5    0.26    0.18
   5  -2  -5    0.07    0.16
  -5   2   5    0.32    0.16
  -5   2   5    0.13    0.12
   5   2  -5    0.10    0.12
  -4  -2   5    2.00    0.27
   4  -2  -5    2.47    0.29
  -4  -2   5    2.06    0.22
   4  -2  -5    2.54    0.31
  -4  -2   5    2.39    0.27
  -4  -2   5    2.38    0.23
  -4   2   5    2.49    0.32
   4   2  -5    1.99    0.26
  -4   2   5    2.31    0.21
  -3  -2   5   10.71    0.49
   3  -2  -5   10.42    0.50
  -3  -2   5   10.92    0.52
  -3  -2   5   11.13    0.42
   3  -2  -5   10.90    0.53
   3   2  -5   10.50    0.48
   3   2  -5   10.21    0.50
  -3   2   5   10.59    0.52
  -2  -2   5   18.10    0.58
  -2  -2   5   19.11    0.67
   2  -2  -5   17.64    0.71
   2  -2  -5   19.34    0.61
   2  -2  -5   18.15    0.67
   2   2  -5   18.54    0.72
  -2   2   5   17.58    0.69
   2   2  -5   17.27    0.66
   1  -2  -5   19.02    0.61
   1  -2  -5   18.16    0.72
  -1  -2   5   19.52    0.69
   1  -2  -5   19.90    0.70
   1   2  -5   18.94    0.74
   1   2  -5   17.72    0.68
   0  -2  -5    3.05    0.23
   0  -2  -5    3.29    0.33
   0  -2   5    3.15    0.30
   0  -2  -5    2.85    0.24
   0  -2  -5    3.36    0.33
   0   2  -5    3.41    0.36
   0   2  -5    3.43    0.25
   0   2  -5    2.80    0.32
  -1  -2  -5   27.61    0.96
  -1  -2  -5   27.61    0.80
  -1  -2  -5   27.00    0.80
  -1  -2  -5   26.81    0.91
  -1   2  -5   28.46    0.95
  -1   2  -5   26.81    0.84
  -1   2  -5   28.04    1.01
  -2  -2  -5    5.11    0.30
  -2  -2  -5    5.00    0.44
  -2  -2  -5    4.35    0.28
  -2  -2  -5    4.87    0.41
   2  -2   5    4.34    0.44
  -2   2  -5    4.52    0.46
  -2   2  -5    4.61    0.43
   2   2   5    3.97    0.37
  -2   2  -5    4.39    0.32
  -3  -2  -5    1.96    0.23
   3  -2   5    2.24    0.33
  -3  -2  -5    1.97    0.31
  -3  -2  -5    2.01    0.32
  -3  -2  -5    1.61    0.22
  -3   2  -5    2.27    0.35
  -3   2  -5    1.66    0.32
  -3   2  -5    2.05    0.27
  -4  -2  -5    2.38    0.36
  -4  -2  -5    2.08    0.26
  -4  -2  -5    2.03    0.33
  -4   2  -5    2.05    0.30
  -4   2  -5    2.30    0.39
  -5  -2  -5    1.05    0.22
  -5  -2  -5    1.02    0.31
  -5  -2  -5    1.05    0.30
  -5   2  -5    1.36    0.34
  -6  -2  -5    0.47    0.23
  -6  -2  -5    0.75    0.22
  -6   2  -5    0.12    0.24
  -7  -2  -5    1.50    0.36
  -7  -2  -5    1.30    0.29
  -7   2  -5    1.21    0.37
 -11  -3   5    1.07    0.32
 -11  -3   5    1.07    0.26
 -11   3   5    1.04    0.35
 -10  -3   5    0.44    0.21
 -10  -3   5    0.77    0.21
 -10   3   5    0.49    0.27
  -9  -3   5    3.22    0.32
  -9  -3   5    4.30    0.47
  -9   3   5    3.29    0.47
  -8  -3   5   -0.09    0.13
   8  -3  -5    0.32    0.18
  -8  -3   5    0.38    0.20
  -8  -3   5    0.29    0.13
  -8   3   5    0.14    0.18
  -7  -3   5    0.43    0.15
   7  -3  -5    0.58    0.22
  -7  -3   5    0.36    0.19
  -7  -3   5    0.53    0.14
  -7   3   5    0.30    0.22
   6  -3  -5    6.83    0.46
  -6  -3   5    6.14    0.33
  -6  -3   5    6.03    0.33
  -6  -3   5    6.54    0.43
   6   3  -5    6.14    0.37
  -6   3   5    6.64    0.46
  -6   3   5    6.68    0.36
  -5  -3   5    3.62    0.25
  -5  -3   5    3.93    0.27
  -5  -3   5    3.39    0.35
  -5  -3   5    4.37    0.36
   5  -3  -5    3.79    0.39
   5  -3  -5    3.24    0.33
  -5   3   5    3.74    0.39
  -5   3   5    3.46    0.26
   5   3  -5    3.92    0.35
  -4  -3   5   22.53    0.83
  -4  -3   5   23.07    0.70
   4  -3  -5   21.77    0.78
   4  -3  -5   23.19    0.87
  -4  -3   5   22.67    0.76
  -4  -3   5   22.78    0.69
   4   3  -5   22.12    0.79
  -4   3   5   22.81    0.86
   3  -3  -5    9.39    0.49
  -3  -3   5    9.61    0.39
   3  -3  -5    8.91    0.49
  -3  -3   5    8.83    0.47
   3   3  -5    9.14    0.46
   3   3  -5    8.97    0.45
  -3   3   5    9.93    0.50
   2  -3  -5   14.92    0.53
  -2  -3   5   14.83    0.51
   2  -3  -5   14.37    0.60
   2  -3  -5   14.78    0.63
  -2   3   5   15.22    0.62
   2   3  -5   14.37    0.59
   2   3  -5   15.41    0.63
   1  -3  -5    1.21    0.17
   1  -3  -5    1.82    0.27
   1  -3  -5    1.42    0.25
  -1  -3   5    1.04    0.21
   1  -3  -5    1.33    0.17
   1   3  -5    1.77    0.26
   1   3  -5    1.37    0.24
   0  -3   5    9.42    0.48
   0  -3  -5    9.70    0.39
   0  -3  -5   10.11    0.52
   0  -3  -5    9.60    0.51
   0  -3  -5    9.55    0.40
   0   3  -5    9.52    0.41
   0   3  -5   10.31    0.55
   0   3  -5    9.90    0.52
  -1  -3  -5    2.63    0.23
  -1  -3  -5    2.64    0.23
  -1  -3  -5    2.85    0.33
  -1  -3  -5    2.03    0.28
  -1   3  -5    3.01    0.37
  -1   3  -5    3.12    0.36
  -1   3  -5    2.25    0.25
  -2  -3  -5    4.33    0.39
  -2  -3  -5    4.09    0.26
   2  -3   5    4.64    0.46
  -2  -3  -5    4.14    0.41
  -2  -3  -5    4.13    0.27
  -2   3  -5    4.35    0.47
  -2   3  -5    4.43    0.32
   2   3   5    4.08    0.36
  -2   3  -5    3.77    0.40
  -3  -3  -5    2.52    0.24
  -3  -3  -5    2.27    0.24
  -3  -3  -5    2.02    0.31
  -3  -3  -5    1.80    0.30
   3  -3   5    2.47    0.35
  -3   3  -5    2.45    0.37
  -4  -3  -5   -0.07    0.11
   4  -3   5   -0.16    0.14
  -4  -3  -5    0.03    0.12
  -4  -3  -5    0.03    0.21
  -4  -3  -5    0.41    0.20
  -4   3  -5    0.06    0.19
  -5  -3  -5    2.56    0.30
  -5  -3  -5    2.75    0.38
  -5  -3  -5    2.62    0.39
  -5   3  -5    2.35    0.43
  -6  -3  -5    0.20    0.20
  -6  -3  -5    0.26    0.18
  -6   3  -5   -0.11    0.21
  -7  -3  -5    0.87    0.25
  -7  -3  -5    1.37    0.33
  -7   3  -5    1.04    0.35
 -11  -4   5    0.77    0.23
 -11  -4   5    1.02    0.28
 -11   4   5    0.93    0.34
 -10  -4   5    0.37    0.17
 -10  -4   5    0.23    0.21
 -10   4   5    0.25    0.28
  -9  -4   5    0.14    0.15
  -9  -4   5    0.22    0.18
  -9   4   5    0.04    0.22
  -8  -4   5    6.67    0.46
  -8  -4   5    5.78    0.35
  -8  -4   5    6.05    0.35
   8  -4  -5    6.18    0.57
  -8   4   5    7.45    0.57
   7  -4  -5    0.02    0.14
  -7  -4   5    0.05    0.15
  -7  -4   5    0.17    0.13
  -7  -4   5    0.23    0.11
  -7   4   5    0.44    0.22
   6  -4  -5    1.21    0.28
  -6  -4   5    1.04    0.22
  -6  -4   5    1.09    0.22
  -6  -4   5    1.02    0.17
  -6  -4   5    0.96    0.16
  -6   4   5    1.03    0.25
   6   4  -5    1.08    0.19
  -5  -4   5    0.18    0.13
  -5  -4   5    0.38    0.18
  -5  -4   5    0.45    0.18
   5  -4  -5    0.77    0.22
  -5  -4   5    0.29    0.11
  -5   4   5    0.55    0.20
   5   4  -5    0.82    0.18
  -4  -4   5    0.66    0.15
   4  -4  -5    1.07    0.24
  -4  -4   5    0.98    0.17
   4  -4  -5    0.99    0.22
  -4  -4   5    1.07    0.22
  -4  -4   5    1.00    0.21
  -4   4   5    0.56    0.19
   4   4  -5    0.72    0.18
  -3  -4   5   10.87    0.50
   3  -4  -5    9.92    0.52
  -3  -4   5   10.74    0.43
   3  -4  -5   10.14    0.43
  -3  -4   5   10.54    0.41
   3  -4  -5   10.14    0.52
  -3   4   5   10.90    0.53
   3   4  -5    9.53    0.49
   3   4  -5    9.67    0.46
  -2  -4   5   10.18    0.42
   2  -4  -5    9.50    0.43
   2  -4  -5   10.82    0.54
   2  -4  -5   10.41    0.51
  -2   4   5   10.85    0.52
   2   4  -5   10.09    0.49
   2   4  -5   11.51    0.53
   1  -4  -5   15.02    0.63
   1  -4  -5   14.19    0.50
  -1  -4   5   14.24    0.61
   1  -4  -5   14.56    0.51
   1  -4  -5   15.43    0.62
  -1   4   5   13.88    0.59
   1   4  -5   14.38    0.65
   1   4  -5   14.68    0.62
   0  -4  -5    1.34    0.25
   0  -4  -5    1.12    0.16
   0  -4  -5    1.29    0.16
   0  -4   5    1.48    0.24
   0  -4  -5    1.06    0.21
   0   4  -5    1.36    0.27
   0   4  -5    1.72    0.29
  -1  -4  -5   12.13    0.58
   1  -4   5   12.68    0.64
  -1  -4  -5   12.00    0.45
  -1  -4  -5   12.63    0.44
  -1  -4  -5   12.18    0.58
  -1   4  -5   12.02    0.62
  -1   4  -5   12.09    0.63
  -2  -4  -5   12.07    0.43
  -2  -4  -5   11.54    0.45
  -2  -4  -5   12.12    0.58
  -2  -4  -5   11.90    0.59
   2  -4   5   12.14    0.66
  -2   4  -5   12.11    0.66
  -3  -4  -5    4.44    0.41
   3  -4   5    4.68    0.49
  -3  -4  -5    4.68    0.29
  -3  -4  -5    4.38    0.43
  -3  -4  -5    4.61    0.27
  -3   4  -5    5.01    0.52
  -4  -4  -5    0.58    0.15
  -4  -4  -5    0.39    0.19
   4  -4   5    0.70    0.23
  -4  -4  -5    0.83    0.17
  -4  -4  -5    0.36    0.22
  -4   4  -5    0.57    0.21
  -5  -4  -5    0.83    0.24
  -5  -4  -5    1.15    0.22
  -5  -4  -5    1.18    0.30
  -5   4  -5    1.79    0.38
  -6  -4  -5    0.96    0.24
  -6  -4  -5    0.88    0.27
  -6  -4  -5    1.40    0.33
  -6   4  -5    1.78    0.42
 -11  -5   5   -0.03    0.15
 -11   5   5    0.05    0.26
 -10  -5   5    0.66    0.24
 -10  -5   5    0.23    0.16
 -10   5   5    0.79    0.31
  -9  -5   5    0.55    0.17
   9  -5  -5   -0.29    0.12
  -9  -5   5    0.26    0.14
  -9  -5   5    0.08    0.16
  -9   5   5    0.55    0.27
  -8  -5   5    3.44    0.38
   8  -5  -5    3.05    0.43
  -8  -5   5    3.50    0.27
  -8  -5   5    2.91    0.27
  -8   5   5    2.77    0.41
  -7  -5   5    0.58    0.14
  -7  -5   5    0.42    0.19
   7  -5  -5    0.82    0.26
  -7  -5   5    0.47    0.14
  -7   5   5    0.63    0.22
  -6  -5   5    1.78    0.27
  -6  -5   5    1.66    0.18
  -6  -5   5    1.44    0.19
   6  -5  -5    1.21    0.28
  -6  -5   5    1.36    0.25
   6   5  -5    1.94    0.26
  -6   5   5    1.37    0.28
   5  -5  -5    0.45    0.19
  -5  -5   5    0.47    0.18
  -5  -5   5    0.38    0.11
  -5  -5   5    0.31    0.19
  -5  -5   5    0.32    0.14
   5   5  -5    0.33    0.13
  -5   5   5    0.21    0.17
   4  -5  -5    0.78    0.23
  -4  -5   5    0.27    0.12
  -4  -5   5    0.42    0.14
  -4  -5   5    0.26    0.18
   4  -5  -5    0.23    0.16
  -4   5   5    0.35    0.17
   4   5  -5    0.46    0.16
  -3  -5   5    0.13    0.17
   3  -5  -5    0.16    0.17
   3  -5  -5   -0.01    0.18
  -3  -5   5    0.19    0.13
   3  -5  -5    0.27    0.12
  -3  -5   5    0.55    0.11
  -3   5   5    0.07    0.13
   3   5  -5    0.05    0.13
  -2  -5   5   10.61    0.52
   2  -5  -5   11.83    0.55
  -2  -5   5   10.81    0.44
   2  -5  -5   10.88    0.46
   2  -5  -5   11.02    0.56
   2   5  -5   11.18    0.51
  -2   5   5   10.53    0.52
   2   5  -5    9.86    0.52
   1  -5  -5    2.19    0.21
  -1  -5   5    2.27    0.28
   1  -5  -5    1.71    0.19
  -1  -5   5    2.11    0.23
   1  -5  -5    2.24    0.29
   1  -5  -5    2.41    0.29
  -1   5   5    2.04    0.25
   1   5  -5    2.11    0.30
   1   5  -5    2.66    0.31
   0  -5  -5    1.26    0.24
   0  -5  -5    0.87    0.14
   0  -5  -5    1.28    0.24
   0  -5  -5    1.03    0.16
   0  -5   5    0.85    0.21
   0   5  -5    1.01    0.25
   0   5  -5    1.10    0.26
  -1  -5  -5   22.08    0.66
  -1  -5  -5   22.20    0.84
   1  -5   5   23.39    0.94
  -1  -5  -5   22.75    0.80
  -1  -5  -5   21.90    0.65
  -1   5  -5   21.95    0.91
   2  -5   5   22.09    0.93
  -2  -5  -5   20.06    0.60
  -2  -5  -5   18.74    0.74
  -2  -5  -5   19.97    0.79
  -2  -5  -5   19.98    0.61
  -2   5  -5   17.94    0.85
  -3  -5  -5    2.72    0.34
  -3  -5  -5    2.56    0.32
  -3  -5  -5    2.81    0.23
  -3  -5  -5    2.78    0.23
   3  -5   5    3.27    0.43
  -3   5  -5    2.87    0.41
  -4  -5  -5    4.01    0.42
  -4  -5  -5    4.13    0.27
  -4  -5  -5    3.55    0.39
   4  -5   5    4.36    0.50
  -4   5  -5    4.28    0.53
  -5  -5  -5    4.13    0.44
  -5  -5  -5    3.79    0.43
  -5  -5  -5    3.87    0.35
  -5   5  -5    3.95    0.54
  -6  -5  -5    1.87    0.32
  -6  -5  -5    1.66    0.34
  -6  -5  -5    1.64    0.26
  -6   5  -5    1.30    0.40
 -11  -6   5    0.01    0.16
 -11   6   5   -0.17    0.23
 -10  -6   5   -0.08    0.14
 -10  -6   5   -0.07    0.16
 -10   6   5   -0.04    0.18
  -9  -6   5    1.23    0.20
  -9  -6   5    1.05    0.26
   9  -6  -5    0.63    0.26
  -9  -6   5    1.24    0.20
  -9   6   5    1.02    0.31
  -8  -6   5    0.97    0.24
  -8  -6   5    0.84    0.16
  -8  -6   5    0.91    0.17
   8  -6  -5    0.44    0.22
  -8   6   5    1.19    0.32
  -7  -6   5    0.85    0.21
   7  -6  -5    0.99    0.28
  -7  -6   5    0.83    0.15
  -7  -6   5    1.16    0.24
  -7  -6   5    1.19    0.16
  -7   6   5    0.63    0.23
   6  -6  -5    6.28    0.50
  -6  -6   5    5.92    0.30
  -6  -6   5    5.80    0.40
  -6  -6   5    5.70    0.30
  -6  -6   5    6.51    0.41
  -6   6   5    6.23    0.47
   5  -6  -5    3.84    0.43
  -5  -6   5    4.03    0.26
  -5  -6   5    3.37    0.33
  -5  -6   5    3.82    0.37
  -5  -6   5    3.42    0.24
  -5   6   5    3.49    0.41
   5   6  -5    3.54    0.28
  -4  -6   5    9.50    0.41
   4  -6  -5    9.52    0.55
  -4  -6   5    9.42    0.41
  -4  -6   5   10.59    0.51
   4   6  -5    9.83    0.47
  -4   6   5    8.50    0.51
  -3  -6   5    2.16    0.21
   3  -6  -5    1.91    0.29
   3  -6  -5    2.00    0.23
  -3  -6   5    2.20    0.28
  -3  -6   5    1.79    0.21
   3   6  -5    1.88    0.25
  -3   6   5    2.16    0.31
   2  -6  -5    0.75    0.22
  -2  -6   5    0.87    0.17
  -2  -6   5    0.59    0.20
   2  -6  -5    0.72    0.14
   2  -6  -5    0.64    0.16
   2  -6  -5    0.70    0.22
  -2   6   5    0.49    0.18
   2   6  -5    0.36    0.17
   2   6  -5    0.93    0.21
  -1  -6   5    0.22    0.10
   1  -6  -5    0.19    0.17
   1  -6  -5    0.32    0.12
   1  -6  -5    0.08    0.12
  -1  -6   5    0.38    0.14
   1  -6  -5    0.11    0.18
   1   6  -5    0.58    0.21
   1   6  -5    0.05    0.17
  -1   6   5    0.26    0.13
   0  -6  -5    6.28    0.43
   0  -6  -5    6.38    0.31
   0  -6   5    6.04    0.46
   0  -6  -5    5.85    0.29
   0  -6  -5    6.21    0.41
   0   6  -5    5.91    0.45
  -1  -6  -5   10.63    0.53
  -1  -6  -5    9.55    0.37
  -1  -6  -5   10.28    0.53
   1  -6   5    9.79    0.59
  -1  -6  -5    9.90    0.37
  -1   6  -5    9.40    0.57
  -2  -6  -5    1.80    0.18
  -2  -6  -5    1.51    0.16
  -2  -6  -5    1.81    0.28
   2  -6   5    1.28    0.28
  -2  -6  -5    1.77    0.27
  -2   6  -5    2.24    0.37
  -3  -6  -5    2.04    0.19
   3  -6   5    1.58    0.33
  -3  -6  -5    1.79    0.28
  -3  -6  -5    2.04    0.30
  -3  -6  -5    1.88    0.18
  -3   6  -5    2.15    0.37
  -4  -6  -5    0.13    0.19
  -4  -6  -5    0.00    0.09
  -4  -6  -5    0.37    0.18
   4  -6   5   -0.07    0.16
  -4   6  -5   -0.04    0.17
  -5  -6  -5    2.30    0.34
  -5  -6  -5    2.61    0.36
  -5  -6  -5    2.43    0.24
  -5   6  -5    2.66    0.48
  -6  -6  -5    1.20    0.29
  -6   6  -5    1.60    0.42
 -10  -7   5    0.08    0.15
 -10   7   5    0.21    0.22
  -9  -7   5    1.46    0.20
  -9  -7   5    1.26    0.27
  -9  -7   5    1.60    0.21
   9  -7  -5    1.54    0.34
  -9   7   5    1.55    0.37
  -8  -7   5    4.50    0.43
  -8  -7   5    4.50    0.27
  -8  -7   5    4.42    0.27
   8  -7  -5    5.25    0.57
  -8   7   5    4.28    0.53
  -7  -7   5    0.24    0.11
  -7  -7   5    0.33    0.19
   7  -7  -5   -0.13    0.17
  -7  -7   5    0.08    0.15
  -7  -7   5    0.41    0.11
  -7   7   5    0.76    0.27
  -6  -7   5    2.77    0.33
  -6  -7   5    3.33    0.23
   6  -7  -5    3.10    0.41
  -6  -7   5    3.10    0.33
  -6  -7   5    3.21    0.22
  -6   7   5    3.44    0.43
  -5  -7   5    0.46    0.19
   5  -7  -5    0.35    0.19
  -5  -7   5    0.28    0.13
  -5  -7   5    0.30    0.11
   5   7  -5    0.51    0.13
  -5   7   5    0.58    0.21
   4  -7  -5    0.39    0.19
  -4  -7   5    0.53    0.15
  -4  -7   5    0.57    0.21
  -4  -7   5    0.45    0.13
  -4   7   5    0.56    0.21
   4   7  -5    0.46    0.15
   3  -7  -5    3.53    0.40
  -3  -7   5    3.35    0.28
  -3  -7   5    3.51    0.24
   3  -7  -5    3.59    0.31
  -3  -7   5    4.40    0.38
  -3   7   5    4.33    0.42
   3   7  -5    4.06    0.32
  -2  -7   5    4.62    0.32
   2  -7  -5    4.67    0.37
  -2  -7   5    4.73    0.40
   2  -7  -5    4.86    0.32
   2  -7  -5    4.79    0.29
  -2   7   5    5.10    0.36
   2   7  -5    4.88    0.38
   1  -7  -5    1.89    0.21
  -1  -7   5    1.58    0.22
   1  -7  -5    1.62    0.27
   1  -7  -5    1.93    0.24
   1  -7  -5    1.50    0.26
  -1   7   5    1.97    0.26
   1   7  -5    1.66    0.28
   0  -7  -5   12.91    0.47
   0  -7  -5   13.53    0.46
   0  -7  -5   12.65    0.59
   0  -7  -5   12.55    0.60
   0   7  -5   13.44    0.68
  -1  -7  -5    1.38    0.25
  -1  -7  -5    1.44    0.16
   1  -7   5    1.29    0.31
  -1  -7  -5    1.36    0.15
  -1  -7  -5    1.81    0.27
  -1   7  -5    0.97    0.26
  -2  -7  -5    4.79    0.40
  -2  -7  -5    4.35    0.35
  -2  -7  -5    4.43    0.22
   2  -7   5    5.23    0.55
  -2  -7  -5    4.86    0.24
  -2   7  -5    4.52    0.51
  -3  -7  -5   -0.01    0.15
  -3  -7  -5    0.15    0.19
  -3  -7  -5   -0.01    0.07
   3  -7   5    0.18    0.17
  -3   7  -5    0.04    0.21
  -4  -7  -5    0.27    0.21
   4  -7   5    0.67    0.25
  -4  -7  -5    0.46    0.11
  -4  -7  -5    0.34    0.17
  -4   7  -5    0.30    0.23
  -5  -7  -5    1.02    0.17
   5  -7   5    0.89    0.29
  -5  -7  -5    0.84    0.27
  -5   7  -5    1.22    0.37
  -6  -7  -5    1.67    0.33
  -6   7  -5    1.88    0.44
 -10  -8   5    0.08    0.15
 -10   8   5   -0.09    0.24
  -9  -8   5    0.31    0.13
   9  -8  -5    0.04    0.18
  -9  -8   5    0.17    0.13
  -9   8   5    0.28    0.20
  -8  -8   5    2.36    0.31
  -8  -8   5    2.24    0.20
   8  -8  -5    2.83    0.45
  -8  -8   5    2.85    0.22
  -8   8   5    2.68    0.44
  -7  -8   5    1.52    0.26
  -7  -8   5    1.36    0.16
  -7  -8   5    1.78    0.18
   7  -8  -5    1.68    0.34
  -7   8   5    1.76    0.34
  -6  -8   5    2.31    0.29
  -6  -8   5    2.24    0.20
   6  -8  -5    2.44    0.38
  -6  -8   5    2.72    0.22
  -6   8   5    2.68    0.38
  -5  -8   5    0.07    0.12
   5  -8  -5    0.51    0.20
  -5  -8   5    0.29    0.11
  -5  -8   5    0.03    0.17
  -5   8   5    0.14    0.19
   4  -8  -5    1.82    0.31
  -4  -8   5    2.16    0.23
  -4  -8   5    2.10    0.28
  -4  -8   5    1.83    0.22
   4   8  -5    2.19    0.27
  -4   8   5    2.00    0.31
  -3  -8   5    5.88    0.31
  -3  -8   5    5.89    0.43
   3  -8  -5    6.08    0.37
   3  -8  -5    5.49    0.43
  -3  -8   5    5.88    0.35
  -3   8   5    6.06    0.43
   3   8  -5    5.75    0.38
  -2  -8   5    3.94    0.31
   2  -8  -5    4.82    0.30
   2  -8  -5    5.13    0.39
  -2  -8   5    5.00    0.43
   2  -8  -5    4.90    0.33
  -2   8   5    4.91    0.36
   2   8  -5    5.35    0.40
  -1  -8   5    0.59    0.17
   1  -8  -5    0.73    0.18
  -1  -8   5    0.51    0.22
   1  -8  -5    0.86    0.21
   1  -8  -5    0.65    0.14
   1   8  -5    1.15    0.26
  -1   8   5    0.36    0.14
   0  -8  -5    7.94    0.33
   0  -8   5    7.00    0.51
   0  -8  -5    7.68    0.35
   0  -8  -5    8.07    0.49
   0  -8  -5    7.30    0.46
   0   8  -5    7.47    0.51
  -1  -8  -5    2.21    0.29
   1  -8   5    2.40    0.38
  -1  -8  -5    2.14    0.18
  -1  -8  -5    2.37    0.19
  -1  -8  -5    2.35    0.31
  -1   8  -5    1.58    0.33
   2  -8   5    0.83    0.25
  -2  -8  -5    0.69    0.21
  -2  -8  -5    0.55    0.11
  -2  -8  -5    0.86    0.12
  -2  -8  -5    0.83    0.21
  -2   8  -5    1.19    0.29
   3  -8   5    3.72    0.51
  -3  -8  -5    3.52    0.19
  -3  -8  -5    3.40    0.36
  -3  -8  -5    3.51    0.35
  -3   8  -5    3.02    0.46
  -4  -8  -5    0.82    0.12
   4  -8   5    0.99    0.29
  -4  -8  -5    1.05    0.23
  -4  -8  -5    1.17    0.27
  -4   8  -5    0.93    0.31
  -5  -8  -5    0.95    0.27
   5  -8   5    0.52    0.23
  -5  -8  -5    0.95    0.15
  -5   8  -5    0.31    0.30
  -6   8  -5   -0.08    0.21
 -10  -9   5    0.06    0.11
 -10  -9   5   -0.03    0.12
 -10   9   5    0.02    0.20
  -9  -9   5    0.14    0.11
  -9  -9   5    0.18    0.12
   9  -9  -5    0.14    0.19
  -9   9   5   -0.25    0.13
   8  -9  -5    1.27    0.31
  -8  -9   5    0.97    0.15
  -8  -9   5    0.72    0.14
  -8   9   5    0.98    0.30
  -7  -9   5    1.63    0.17
   7  -9  -5    1.31    0.33
  -7  -9   5    1.52    0.17
  -7  -9   5    1.33    0.24
  -7   9   5    2.30    0.39
  -6  -9   5    3.03    0.22
  -6  -9   5    3.19    0.22
  -6  -9   5    2.96    0.32
   6  -9  -5    3.01    0.43
  -6   9   5    3.24    0.44
  -5  -9   5    0.25    0.11
  -5  -9   5    0.16    0.12
  -5  -9   5    0.18    0.18
   5  -9  -5    0.22    0.18
  -5   9   5    0.02    0.18
   4  -9  -5    2.47    0.37
  -4  -9   5    2.61    0.25
  -4  -9   5    2.34    0.31
  -4  -9   5    2.46    0.25
   4   9  -5    3.25    0.31
  -4   9   5    2.80    0.37
  -3  -9   5    0.07    0.07
  -3  -9   5   -0.28    0.15
  -3  -9   5    0.10    0.13
   3  -9  -5    0.06    0.13
   3  -9  -5    0.07    0.15
   3   9  -5   -0.05    0.11
  -3   9   5    0.30    0.16
   2  -9  -5    1.43    0.21
   2  -9  -5    1.37    0.27
  -2  -9   5    1.87    0.29
  -2  -9   5    1.06    0.20
  -2   9   5    1.40    0.24
   2   9  -5    1.65    0.27
   1  -9  -5   20.87    0.71
   1  -9  -5   21.70    0.67
   1  -9  -5   19.87    0.82
   1   9  -5   20.89    0.87
  -1   9   5   20.60    0.77
   0  -9  -5    8.64    0.51
   0  -9  -5    8.61    0.50
   0  -9  -5    8.73    0.36
   0  -9  -5    8.75    0.38
   0  -9   5    9.07    0.58
   0   9  -5    9.61    0.60
  -1  -9  -5    1.70    0.17
  -1  -9  -5    1.79    0.27
  -1  -9  -5    1.19    0.25
  -1  -9  -5    1.70    0.16
   1  -9   5    1.88    0.36
  -1   9  -5    1.50    0.31
   2  -9   5    2.24    0.41
  -2  -9  -5    2.50    0.15
  -2  -9  -5    2.27    0.17
  -2  -9  -5    2.43    0.31
  -2  -9  -5    2.24    0.30
  -2   9  -5    3.15    0.43
  -3  -9  -5    3.59    0.17
  -3  -9  -5    2.87    0.34
  -3  -9  -5    3.41    0.36
   3  -9   5    4.12    0.54
  -3   9  -5    3.31    0.47
  -4  -9  -5    5.42    0.24
   4  -9   5    6.19    0.67
  -4  -9  -5    5.82    0.46
  -4   9  -5    5.91    0.66
  -5  -9  -5    2.86    0.36
   5  -9   5    3.06    0.51
  -5  -9  -5    3.58    0.23
  -5   9  -5    2.72    0.49
  -6  -9  -5    0.48    0.14
  -6   9  -5    0.61    0.36
  10 -10  -5    0.29    0.22
 -10 -10   5    0.71    0.18
 -10 -10   5    1.08    0.17
 -10  10   5    0.58    0.28
   9 -10  -5    0.08    0.20
  -9 -10   5   -0.01    0.11
  -9 -10   5    0.09    0.10
  -9  10   5    0.29    0.21
  -8 -10   5    1.76    0.17
  -8 -10   5    1.20    0.16
  -8 -10   5    0.97    0.22
   8 -10  -5    0.72    0.27
  -8  10   5    0.70    0.28
  -7 -10   5    3.26    0.21
  -7 -10   5    3.14    0.35
   7 -10  -5    2.70    0.44
  -7 -10   5    3.18    0.22
  -7  10   5    3.52    0.49
   6 -10  -5    3.31    0.47
  -6 -10   5    2.33    0.21
  -6 -10   5    2.54    0.32
  -6 -10   5    2.68    0.21
  -6  10   5    3.14    0.44
  -5 -10   5    1.32    0.18
  -5 -10   5    1.22    0.18
  -5 -10   5    1.02    0.24
   5 -10  -5    0.97    0.28
  -5  10   5    1.86    0.33
  -4 -10   5    0.21    0.14
   4 -10  -5    0.46    0.22
  -4 -10   5    0.22    0.20
  -4 -10   5    0.65    0.16
  -4  10   5    0.69    0.22
  -3 -10   5    3.72    0.32
   3 -10  -5    3.56    0.43
   3 -10  -5    3.91    0.36
  -3 -10   5    3.67    0.38
  -3  10   5    3.98    0.42
   3  10  -5    3.68    0.36
  -2 -10   5   15.08    0.69
  -2 -10   5   14.78    0.61
   2 -10  -5   15.61    0.74
   2 -10  -5   15.02    0.61
   2  10  -5   15.15    0.70
  -2  10   5   14.75    0.66
   1 -10  -5   16.95    0.58
  -1 -10   5   16.98    0.82
   1 -10  -5   16.20    0.62
   1 -10  -5   16.38    0.75
   1  10  -5   16.87    0.77
  -1  10   5   16.49    0.66
   0 -10  -5    5.66    0.31
   0 -10  -5    5.39    0.43
   0 -10   5    5.71    0.57
   0 -10  -5    5.52    0.29
   0  10  -5    6.17    0.48
  -1 -10  -5    2.17    0.31
   1 -10   5    2.40    0.40
  -1 -10  -5    2.09    0.19
  -1 -10  -5    2.18    0.31
  -1 -10  -5    1.99    0.18
  -1  10  -5    2.61    0.39
   2 -10   5    3.11    0.47
  -2 -10  -5    3.15    0.18
  -2 -10  -5    3.36    0.35
  -2 -10  -5    3.11    0.19
  -2 -10  -5    3.14    0.35
  -2  10  -5    3.50    0.46
  -3 -10  -5    0.60    0.20
   3 -10   5    0.95    0.31
  -3 -10  -5    0.83    0.09
  -3 -10  -5    0.82    0.24
  -3  10  -5    0.55    0.27
  -4 -10  -5    0.10    0.19
  -4 -10  -5    0.08    0.06
   4 -10   5    0.24    0.24
  -4  10  -5   -0.18    0.16
  -5 -10  -5    0.16    0.09
  -5 -10  -5   -0.20    0.17
   5 -10   5    0.17    0.22
  -5  10  -5    0.32    0.26
  -9 -11   5    0.66    0.14
  -9 -11   5    0.87    0.14
   9 -11  -5    0.87    0.30
  -9  11   5    1.50    0.38
   8 -11  -5    1.13    0.31
  -8 -11   5    0.98    0.14
  -8 -11   5    0.88    0.22
  -8 -11   5    1.06    0.14
  -8  11   5    1.26    0.36
   7 -11  -5    0.56    0.26
  -7 -11   5    0.33    0.10
  -7 -11   5    0.14    0.18
  -7 -11   5    0.15    0.11
  -7  11   5    0.44    0.25
  -6 -11   5    0.21    0.17
  -6 -11   5   -0.13    0.08
   6 -11  -5    0.48    0.24
  -6 -11   5   -0.10    0.11
  -6  11   5    0.10    0.18
  -5 -11   5    4.99    0.41
  -5 -11   5    3.88    0.29
  -5 -11   5    4.21    0.31
   5 -11  -5    3.92    0.50
  -5  11   5    4.36    0.51
  -4 -11   5    0.87    0.18
  -4 -11   5    0.90    0.24
  -4 -11   5    1.20    0.16
   4 -11  -5    0.87    0.28
  -4  11   5    0.71    0.23
  -3 -11   5    3.24    0.31
   3 -11  -5    3.73    0.36
  -3 -11   5    3.74    0.40
   3 -11  -5    3.97    0.46
   3  11  -5    3.89    0.38
  -3  11   5    4.03    0.44
   2 -11  -5    7.02    0.51
  -2 -11   5    6.22    0.41
   2 -11  -5    5.74    0.40
  -2  11   5    6.67    0.43
   2  11  -5    6.92    0.46
  -1 -11   5    2.13    0.35
   1 -11  -5    2.25    0.27
   1 -11  -5    2.25    0.34
   1 -11  -5    2.21    0.23
   1  11  -5    2.03    0.32
   0 -11  -5    5.05    0.28
   0 -11  -5    5.60    0.43
   0 -11  -5    5.39    0.31
   0 -11   5    4.91    0.54
   0  11  -5    5.52    0.54
  -1 -11  -5    3.51    0.24
  -1 -11  -5    3.46    0.22
  -1 -11  -5    3.29    0.37
   1 -11   5    2.96    0.45
  -1 -11  -5    3.51    0.35
  -1  11  -5    3.26    0.44
  -2 -11  -5    1.21    0.13
   2 -11   5    0.99    0.29
  -2 -11  -5    0.79    0.22
  -2 -11  -5    1.15    0.13
  -2 -11  -5    0.99    0.23
  -2  11  -5    1.29    0.35
   3 -11   5    0.13    0.22
  -3 -11  -5    0.02    0.05
  -3 -11  -5   -0.05    0.18
  -3 -11  -5   -0.08    0.06
  -3  11  -5    0.27    0.21
   4 -11   5    0.52    0.25
  -4 -11  -5    0.58    0.08
  -4 -11  -5    0.64    0.24
  -4  11  -5    0.76    0.30
   5 -11   5    0.60    0.27
  -5 -11  -5    0.56    0.11
  -5  11  -5    0.33    0.23
   9 -12  -5    0.26    0.22
  -9 -12   5    0.30    0.13
  -9 -12   5    0.35    0.11
  -9  12   5    0.20    0.21
  -8 -12   5    1.98    0.18
  -8 -12   5    2.01    0.29
   8 -12  -5    2.31    0.45
  -8 -12   5    1.98    0.19
  -8  12   5    1.90    0.41
  -7 -12   5    0.30    0.19
  -7 -12   5    0.49    0.14
  -7 -12   5    0.45    0.12
   7 -12  -5    0.17    0.19
  -7  12   5    0.28    0.24
  -6 -12   5    1.66    0.20
   6 -12  -5    2.04    0.39
  -6 -12   5    2.21    0.22
  -6 -12   5    2.05    0.30
  -6  12   5    1.90    0.38
  -5 -12   5    0.17    0.14
   5 -12  -5    0.09    0.19
  -5 -12   5    0.12    0.13
  -5 -12   5    0.44    0.21
  -5  12   5    0.28    0.19
  -4 -12   5    2.28    0.32
  -4 -12   5    3.45    0.24
   4 -12  -5    2.52    0.39
  -4 -12   5    2.19    0.26
  -4  12   5    2.55    0.39
  -3 -12   5    1.39    0.30
  -3 -12   5    1.25    0.22
   3 -12  -5    1.43    0.32
  -3  12   5    0.75    0.24
   2 -12  -5    1.51    0.32
  -2 -12   5    2.00    0.28
  -2 -12   5    1.87    0.35
   2 -12  -5    1.43    0.24
  -2  12   5    1.75    0.28
   2  12  -5    1.71    0.29
   1 -12  -5    8.64    0.55
   1 -12  -5    8.35    0.46
  -1 -12   5    8.86    0.62
   1  12  -5    9.31    0.57
   0 -12  -5    1.24    0.22
   0 -12  -5    1.22    0.26
   0 -12  -5    1.44    0.19
   0 -12   5    1.51    0.35
   0  12  -5    1.47    0.31
  -1 -12  -5    0.54    0.11
  -1 -12  -5    0.53    0.13
  -1 -12  -5    0.62    0.20
   1 -12   5    0.67    0.28
  -1  12  -5    0.20    0.21
  -2 -12  -5    4.60    0.22
   2 -12   5    4.63    0.58
  -2 -12  -5    4.71    0.38
  -2 -12  -5    4.70    0.41
  -2 -12  -5    4.50    0.24
  -2  12  -5    3.96    0.54
   3 -12   5    0.85    0.32
  -3 -12  -5    1.46    0.13
  -3 -12  -5    1.45    0.13
  -3 -12  -5    1.06    0.25
  -3  12  -5    1.53    0.36
  -4 -12  -5    1.30    0.11
  -4 -12  -5    1.31    0.27
   4 -12   5    1.12    0.37
  -4  12  -5    1.27    0.36
  -5 -12  -5    2.41    0.17
   5 -12   5    2.56    0.49
  -5  12  -5    2.70    0.52
   9 -13  -5    0.33    0.21
  -9 -13   5    0.45    0.11
  -9 -13   5    0.22    0.13
  -9  13   5    0.24    0.21
   8 -13  -5    0.03    0.23
  -8 -13   5    0.15    0.12
  -8 -13   5    0.03    0.09
  -8 -13   5   -0.06    0.15
  -8  13   5   -0.07    0.22
   7 -13  -5    1.29    0.37
  -7 -13   5    1.76    0.21
  -7 -13   5    2.23    0.21
  -7 -13   5    1.76    0.30
  -7  13   5    1.43    0.38
   6 -13  -5    3.13    0.51
  -6 -13   5    2.95    0.27
  -6 -13   5    3.06    0.27
  -6 -13   5    3.83    0.39
  -6  13   5    3.39    0.50
   5 -13  -5    0.69    0.25
  -5 -13   5    0.57    0.18
  -5 -13   5    0.27    0.16
  -5 -13   5    0.54    0.22
  -5  13   5    0.49    0.24
  -4 -13   5    0.18    0.16
   4 -13  -5    0.15    0.19
  -4 -13   5    0.25    0.20
  -4  13   5    0.39    0.19
  -3 -13   5    0.69    0.19
   3 -13  -5    0.42    0.21
  -3 -13   5    0.10    0.20
  -3  13   5    0.45    0.20
   2 -13  -5    0.31    0.17
  -2 -13   5    0.66    0.20
   2 -13  -5    0.19    0.20
  -2 -13   5    0.27    0.19
  -1 -13   5    0.21    0.23
   1 -13  -5    0.50    0.22
   1 -13  -5    0.20    0.16
   1  13  -5    0.18    0.18
   0 -13  -5    0.14    0.17
   0 -13  -5    0.09    0.17
   0 -13  -5    0.40    0.12
   0 -13   5    0.53    0.23
   0  13  -5    0.06    0.16
  -1 -13  -5    0.10    0.16
   1 -13   5    0.26    0.22
  -1 -13  -5    0.33    0.12
  -1 -13  -5    0.16    0.09
  -1  13  -5    0.25    0.21
  -2 -13  -5    0.51    0.21
   2 -13   5    0.74    0.27
  -2 -13  -5    0.39    0.18
  -2 -13  -5    0.25    0.10
  -2 -13  -5    0.38    0.10
  -2  13  -5    0.13    0.24
  -3 -13  -5    1.38    0.28
  -3 -13  -5    1.77    0.15
  -3 -13  -5    1.51    0.15
   3 -13   5    1.26    0.36
  -3  13  -5    1.16    0.36
  -4 -13  -5    1.61    0.13
  -4 -13  -5    1.36    0.14
   4 -13   5    1.15    0.35
  -4  13  -5    1.50    0.40
  -8 -14   5    0.17    0.13
  -8 -14   5    0.38    0.17
  -8 -14   5    0.36    0.11
   8 -14  -5    0.16    0.21
  -8  14   5   -0.22    0.19
   7 -14  -5    1.07    0.34
  -7 -14   5    0.55    0.20
  -7 -14   5    0.56    0.16
  -7 -14   5    1.07    0.17
  -7  14   5    0.45    0.29
  -6 -14   5    1.36    0.22
  -6 -14   5    2.11    0.25
  -6 -14   5    1.76    0.30
   6 -14  -5    2.18    0.42
  -6  14   5    2.65    0.45
  -5 -14   5    1.01    0.22
  -5 -14   5    0.83    0.26
   5 -14  -5    0.39    0.24
  -5 -14   5    0.94    0.21
  -5 -14   5    0.59    0.23
  -5  14   5    0.80    0.27
  -4 -14   5    0.39    0.22
   4 -14  -5    0.47    0.27
  -4 -14   5    0.46    0.19
  -4  14   5    0.65    0.23
  -3 -14   5    0.39    0.19
   3 -14  -5    0.60    0.25
  -3 -14   5    0.33    0.22
   2 -14  -5    0.37    0.18
  -2 -14   5   -0.09    0.15
   2 -14  -5    0.07    0.19
   1 -14  -5    0.68    0.24
  -1 -14   5    0.71    0.26
   1 -14  -5    0.82    0.22
   1  14  -5    1.18    0.28
   0 -14  -5    0.36    0.20
   0 -14  -5    0.29    0.20
   0 -14   5    0.66    0.27
   0  14  -5    0.80    0.26
   1 -14   5    0.71    0.28
  -1 -14  -5    0.73    0.15
  -1 -14  -5    0.49    0.21
  -1 -14  -5    0.47    0.12
  -1  14  -5    0.52    0.25
  -2 -14  -5    1.64    0.19
   2 -14   5    1.41    0.37
  -2 -14  -5    1.04    0.26
  -2 -14  -5    1.56    0.17
  -2  14  -5    1.37    0.36
  -3 -14  -5    1.28    0.26
  -3 -14  -5    0.89    0.12
  -3 -14  -5    1.15    0.16
   3 -14   5    0.79    0.34
  -3  14  -5    0.80    0.29
   4 -14   5    0.70    0.31
  -4 -14  -5    0.38    0.09
  -4 -14  -5    0.28    0.10
  -4  14  -5    0.49    0.27
  -8 -15   5    0.65    0.15
   8 -15  -5    0.89    0.32
  -8 -15   5    0.92    0.19
  -8  15   5    0.86    0.31
  -7 -15   5    0.37    0.16
  -7 -15   5    0.66    0.21
  -7 -15   5    0.14    0.13
   7 -15  -5    0.54    0.26
  -7  15   5    0.39    0.23
   6 -15  -5    1.11    0.34
  -6 -15   5    0.99    0.20
  -6 -15   5    0.98    0.25
  -6 -15   5    0.93    0.21
  -6  15   5    0.93    0.32
  -5 -15   5    2.01    0.34
  -5 -15   5    2.00    0.28
   5 -15  -5    1.68    0.40
  -5  15   5    2.70    0.45
   4 -15  -5    1.79    0.36
  -4 -15   5    2.08    0.30
  -4 -15   5    2.51    0.39
  -4  15   5    2.24    0.38
  -3 -15   5    1.47    0.34
   3 -15  -5    1.35    0.33
  -3 -15   5    0.80    0.22
  -2 -15   5    0.53    0.26
   2 -15  -5    0.55    0.24
   2 -15  -5    0.04    0.17
   1 -15  -5    0.11    0.19
  -1 -15   5   -0.04    0.18
   1 -15  -5   -0.03    0.16
   0 -15   5    0.07    0.22
   0 -15  -5   -0.09    0.17
   0 -15  -5    0.03    0.18
   0  15  -5   -0.08    0.17
  -1 -15  -5    0.33    0.20
   1 -15   5    0.80    0.30
  -1 -15  -5    0.62    0.22
  -1 -15  -5    0.60    0.14
  -1  15  -5    0.61    0.25
  -2 -15  -5    1.21    0.27
   2 -15   5    1.62    0.40
  -2 -15  -5    1.46    0.20
  -2 -15  -5    1.34    0.17
  -2  15  -5    1.09    0.30
  -3 -15  -5    0.55    0.13
   3 -15   5    0.60    0.28
  -3 -15  -5    0.88    0.13
  -3  15  -5    1.05    0.32
  -7 -16   5    0.08    0.15
  -7 -16   5    0.56    0.19
   7 -16  -5    0.14    0.19
  -7  16   5    0.22    0.27
  -6 -16   5    0.37    0.18
   6 -16  -5    0.30    0.22
  -6  16   5    0.09    0.21
  -5 -16   5    0.42    0.19
  -5 -16   5    0.63    0.23
   5 -16  -5    0.38    0.25
  -5  16   5    0.67    0.26
  -4 -16   5    0.32    0.21
  -4 -16   5    0.15    0.20
   4 -16  -5    0.24    0.24
  -3 -16   5    0.20    0.20
  -3 -16   5   -0.23    0.17
   3 -16  -5    0.06    0.19
   2 -16  -5    0.37    0.24
  -2 -16   5    0.24    0.20
   1 -16  -5    1.21    0.31
  -1 -16   5    0.92    0.32
   1 -16  -5    0.76    0.23
   0 -16  -5    0.32    0.20
   0 -16  -5    0.78    0.25
   0 -16   5    1.06    0.33
   1 -16   5    2.04    0.46
  -1 -16  -5    2.10    0.31
  -1 -16  -5    3.75    0.42
  -1  16  -5    2.64    0.45
   2 -16   5    0.62    0.32
  -2 -16  -5    0.94    0.16
  -2 -16  -5    0.76    0.24
  -2 -16  -5    0.95    0.16
  -2  16  -5    0.93    0.31
  -3 -16  -5    1.66    0.19
   3 -16   5    1.41    0.41
  -3 -16  -5    2.27    0.24
  -3  16  -5    1.32    0.35
  -6 -17   5   -0.17    0.15
   6 -17  -5   -0.18    0.19
  -6  17   5   -0.21    0.17
  -5 -17   5    0.29    0.21
   5 -17  -5   -0.04    0.23
  -5 -17   5   -0.06    0.17
  -4 -17   5    0.11    0.19
  -4 -17   5    0.94    0.28
   4 -17  -5    0.85    0.31
  -3 -17   5    0.59    0.26
   3 -17  -5    0.39    0.26
  -3 -17   5    0.77    0.28
   2 -17  -5    0.25    0.22
  -2 -17   5    0.32    0.24
   1 -17  -5    0.63    0.23
  -1 -17   5    0.53    0.29
   1 -17  -5    1.12    0.29
   0 -17  -5    0.53    0.23
   0 -17  -5    0.14    0.19
   0 -17   5    0.58    0.30
  -1 -17  -5    1.91    0.30
   1 -17   5    1.69    0.42
   2 -17   5    0.41    0.30
  -2 -17  -5    1.35    0.27
  -2  17  -5    0.73    0.31
   6 -18  -5    0.32    0.27
  -5 -18   5    0.00    0.19
  -5 -18   5   -0.09    0.18
   5 -18  -5    0.27    0.29
  -4 -18   5    0.01    0.22
  -4 -18   5    0.11    0.19
   4 -18  -5   -0.05    0.20
   3 -18  -5   -0.33    0.16
  -3 -18   5    0.02    0.22
   2 -18  -5    0.09    0.18
  -2 -18   5    0.17    0.24
   1 -18  -5    0.56    0.23
  -1 -18   5   -0.02    0.21
   1 -18  -5    0.28    0.23
   0 -18  -5    2.63    0.41
   0 -18  -5    2.59    0.36
   0 -18   5    2.39    0.48
  -1 -18  -5   -0.08    0.19
   1 -18   5   -0.08    0.17
  -4 -19   5    0.04    0.23
   4 -19  -5    0.20    0.21
  -4 -19   5    0.23    0.21
   3 -19  -5    0.30    0.24
  -3 -19   5    0.35    0.22
   2 -19  -5    0.15    0.21
  -2 -19   5    0.07    0.23
   1 -19  -5    0.31    0.25
  -1 -19   5    0.38    0.28
   0 -19  -5    0.95    0.29
   0 -19   5    0.79    0.31
   0 -19  -5    0.19    0.20
 -11   0   6    0.18    0.22
 -10   0   6    0.96    0.32
  -9   0   6    0.30    0.23
  -8   0   6    2.46    0.40
  -8   0   6    2.10    0.29
   8   0  -6    2.48    0.35
   7   0  -6   -0.03    0.13
  -7   0   6   -0.12    0.12
  -7   0   6    0.07    0.16
   6   0  -6    7.14    0.47
  -6   0   6    7.50    0.40
  -6   0   6    6.91    0.48
  -5   0   6   -0.03    0.11
  -5   0   6    0.07    0.15
   5   0  -6    0.04    0.14
   4   0  -6   14.65    0.69
  -4   0   6   16.78    0.58
   4   0  -6   16.47    0.67
  -4   0   6   16.44    0.72
  -3   0   6    0.01    0.13
   3   0  -6    0.11    0.15
  -3   0   6    0.12    0.14
   3   0  -6   -0.10    0.18
   2   0  -6   32.08    1.11
  -2   0   6   33.42    1.01
   2   0  -6   31.74    1.03
   1   0  -6    0.30    0.11
   1   0  -6   -0.03    0.20
   1   0  -6    0.40    0.18
   0   0  -6    7.07    0.51
   0   0  -6    6.06    0.45
   0   0  -6    6.96    0.37
  -1   0  -6    0.04    0.11
  -1   0  -6    0.12    0.18
  -1   0  -6    0.40    0.24
  -2   0  -6    0.36    0.25
  -2   0  -6    0.46    0.24
   2   0   6    0.59    0.21
  -2   0  -6    0.75    0.18
  -3   0  -6    0.21    0.16
  -3   0  -6   -0.08    0.17
  -4   0  -6    1.89    0.37
  -5   0  -6   -0.06    0.19
  -6   0  -6    3.16    0.51
 -11  -1   6    0.34    0.27
 -11   1   6    0.34    0.24
 -10  -1   6    0.04    0.21
 -10   1   6    0.35    0.24
  -9  -1   6    2.18    0.39
  -9  -1   6    2.26    0.30
  -9   1   6    1.83    0.37
  -8  -1   6    4.16    0.47
   8  -1  -6    3.00    0.40
  -8  -1   6    3.36    0.34
  -8   1   6    3.57    0.47
  -7  -1   6    4.67    0.47
   7  -1  -6    5.78    0.53
  -7  -1   6    5.02    0.35
   7   1  -6    4.86    0.45
  -7   1   6    5.36    0.53
   6  -1  -6   16.43    0.76
  -6  -1   6   16.64    0.62
  -6  -1   6   16.68    0.77
   6   1  -6   17.30    0.74
  -6   1   6   16.41    0.63
  -6   1   6   17.53    0.80
   5  -1  -6   10.11    0.58
  -5  -1   6   10.10    0.56
  -5  -1   6    9.78    0.45
  -5   1   6   10.28    0.58
   5   1  -6   10.71    0.56
   4  -1  -6   33.57    1.13
  -4  -1   6   32.48    0.94
  -4  -1   6   32.64    1.12
   4  -1  -6   31.87    1.02
  -4   1   6   32.71    1.12
   4   1  -6   32.35    1.01
   4   1  -6   32.61    1.11
   3  -1  -6    0.38    0.21
  -3  -1   6    0.44    0.18
  -3  -1   6    0.44    0.18
   3  -1  -6    0.26    0.16
  -3   1   6    0.23    0.16
   3   1  -6    0.22    0.16
   3   1  -6    0.23    0.20
   2  -1  -6   14.47    0.67
   2  -1  -6   14.35    0.65
   2  -1  -6   14.74    0.56
  -2  -1   6   14.43    0.61
   2   1  -6   15.57    0.66
   2   1  -6   14.75    0.69
   1  -1  -6   19.80    0.77
   1  -1  -6   17.62    0.79
   1  -1  -6   19.87    0.66
   1   1  -6   19.22    0.82
   1   1  -6   19.66    0.77
   0  -1  -6    9.78    0.45
   0  -1  -6    9.89    0.57
   0  -1  -6   10.36    0.59
   0   1  -6    9.62    0.58
   0   1  -6    9.78    0.57
   0   1  -6    9.60    0.44
  -1  -1  -6    7.51    0.54
  -1  -1  -6    6.69    0.38
  -1  -1  -6    5.32    0.49
  -1   1  -6    6.57    0.39
  -1   1  -6    6.33    0.52
  -1   1  -6    5.27    0.52
   2  -1   6    0.54    0.21
  -2  -1  -6    1.19    0.21
  -2  -1  -6    0.73    0.27
  -2  -1  -6    0.57    0.21
  -2   1  -6    0.65    0.18
  -2   1  -6    0.70    0.25
   2   1   6    1.09    0.25
  -3  -1  -6    4.04    0.48
   3  -1   6    5.20    0.51
  -3  -1  -6    4.47    0.39
  -3   1  -6    3.96    0.49
  -4  -1  -6    0.60    0.27
  -4  -1  -6    0.30    0.19
  -4   1  -6    0.21    0.27
  -5  -1  -6    2.10    0.39
  -5   1  -6    1.78    0.39
  -6  -1  -6    2.35    0.43
  -6   1  -6    2.02    0.44
 -11  -2   6    0.91    0.30
 -11   2   6    0.55    0.31
 -10  -2   6    0.30    0.19
 -10  -2   6    0.15    0.21
 -10   2   6    0.57    0.26
  -9  -2   6    4.63    0.52
  -9  -2   6    5.04    0.39
  -9   2   6    3.99    0.51
  -8  -2   6    4.84    0.50
   8  -2  -6    5.42    0.53
  -8  -2   6    5.09    0.37
  -8   2   6    5.55    0.57
   7  -2  -6    6.26    0.48
  -7  -2   6    6.97    0.40
  -7  -2   6    7.16    0.50
  -7   2   6    6.75    0.51
   7   2  -6    6.29    0.44
  -6  -2   6   10.64    0.48
  -6  -2   6   10.57    0.59
   6  -2  -6   11.00    0.62
  -6   2   6   10.51    0.61
   6   2  -6   10.50    0.56
   5  -2  -6    6.85    0.50
  -5  -2   6    7.35    0.48
  -5  -2   6    7.48    0.39
  -5  -2   6    7.29    0.46
   5   2  -6    7.88    0.48
  -5   2   6    7.14    0.48
   4  -2  -6    2.15    0.30
  -4  -2   6    2.29    0.24
  -4  -2   6    2.41    0.32
   4  -2  -6    2.30    0.34
  -4  -2   6    1.78    0.27
  -4   2   6    1.98    0.30
   4   2  -6    2.16    0.28
   4   2  -6    2.19    0.31
  -3  -2   6   14.59    0.60
  -3  -2   6   14.41    0.53
   3  -2  -6   14.30    0.64
   3  -2  -6   14.07    0.68
  -3   2   6   14.11    0.66
   3   2  -6   14.15    0.65
   3   2  -6   14.20    0.63
  -2  -2   6    2.77    0.32
   2  -2  -6    2.54    0.27
   2  -2  -6    2.28    0.32
   2  -2  -6    2.38    0.31
   2   2  -6    2.71    0.32
  -2   2   6    2.81    0.33
   2   2  -6    2.72    0.34
  -1  -2   6   27.69    0.93
   1  -2  -6   28.30    0.87
   1  -2  -6   31.04    1.06
   1  -2  -6   29.46    0.98
   1   2  -6   28.04    0.97
   1   2  -6   28.46    1.04
   0  -2  -6    6.78    0.38
   0  -2  -6    7.35    0.51
   0  -2  -6    6.94    0.48
   0   2  -6    7.09    0.51
   0   2  -6    7.25    0.50
  -1  -2  -6    4.60    0.44
  -1  -2  -6    4.18    0.44
  -1  -2  -6    4.16    0.31
  -1   2  -6    4.42    0.47
  -2  -2  -6    1.67    0.24
   2  -2   6    1.73    0.32
  -2  -2  -6    1.84    0.32
  -2  -2  -6    1.36    0.29
  -2   2  -6    1.47    0.33
   2   2   6    1.62    0.27
  -3  -2  -6    1.50    0.24
  -3  -2  -6    0.93    0.30
  -3  -2  -6    1.10    0.29
   3  -2   6    0.81    0.25
  -3   2  -6    1.10    0.31
  -4  -2  -6    0.13    0.17
  -4  -2  -6   -0.11    0.17
  -4   2  -6   -0.14    0.20
  -5  -2  -6    0.75    0.31
  -5  -2  -6    0.77    0.22
  -5   2  -6    0.30    0.27
  -6  -2  -6    0.33    0.24
  -6   2  -6    0.20    0.29
 -11  -3   6    0.67    0.28
 -11   3   6    0.89    0.33
 -10  -3   6    4.60    0.54
 -10  -3   6    4.10    0.41
 -10   3   6    4.36    0.58
  -9  -3   6    2.28    0.38
  -9  -3   6    3.06    0.33
  -9   3   6    2.55    0.43
  -8  -3   6    0.37    0.16
  -8  -3   6    0.32    0.21
   8  -3  -6   -0.08    0.16
  -8   3   6    0.06    0.21
  -7  -3   6    0.82    0.19
  -7  -3   6    0.59    0.23
   7  -3  -6    1.14    0.28
  -7   3   6    0.52    0.24
   7   3  -6    0.63    0.18
   6  -3  -6    0.44    0.23
  -6  -3   6    0.53    0.17
  -6  -3   6    0.63    0.20
  -6   3   6    0.16    0.19
   6   3  -6    0.29    0.16
  -5  -3   6    1.25    0.21
  -5  -3   6    1.30    0.26
   5  -3  -6    1.37    0.28
  -5  -3   6    1.57    0.29
   5   3  -6    1.24    0.24
  -5   3   6    1.31    0.28
   4  -3  -6    4.83    0.46
  -4  -3   6    4.97    0.39
   4  -3  -6    4.97    0.47
  -4  -3   6    4.56    0.39
  -4  -3   6    4.78    0.32
  -4   3   6    4.81    0.46
   4   3  -6    5.54    0.41
   3  -3  -6    4.01    0.39
   3  -3  -6    4.06    0.41
  -3  -3   6    3.71    0.28
  -3   3   6    3.91    0.40
   3   3  -6    3.68    0.36
   3   3  -6    4.19    0.40
   2  -3  -6   14.28    0.58
  -2  -3   6   15.83    0.66
   2  -3  -6   15.51    0.70
   2  -3  -6   15.70    0.69
   2   3  -6   15.65    0.71
  -2   3   6   15.23    0.67
   2   3  -6   15.37    0.67
   1  -3  -6   34.63    1.17
  -1  -3   6   33.27    1.06
   1  -3  -6   33.31    1.07
   1  -3  -6   35.47    1.00
   1   3  -6   32.51    1.16
   1   3  -6   32.02    1.14
   0  -3  -6   10.94    0.61
   0  -3  -6   11.37    0.61
   0  -3  -6   11.68    0.49
   0   3  -6   12.17    0.66
  -1  -3  -6    2.20    0.34
  -1  -3  -6    2.34    0.25
  -1  -3  -6    2.82    0.36
  -1   3  -6    2.43    0.37
  -2  -3  -6    6.21    0.48
   2  -3   6    6.45    0.49
  -2  -3  -6    6.67    0.52
  -2  -3  -6    6.39    0.39
  -2   3  -6    5.63    0.56
  -3  -3  -6    2.14    0.36
   3  -3   6    1.85    0.34
  -3  -3  -6    1.85    0.34
  -3  -3  -6    1.47    0.24
  -3   3  -6    1.41    0.35
  -4  -3  -6    2.61    0.33
  -4  -3  -6    3.56    0.45
  -4   3  -6    2.60    0.46
  -5  -3  -6    1.22    0.27
  -5  -3  -6    1.76    0.37
  -5   3  -6    2.43    0.47
  -6  -3  -6    1.38    0.36
  -6  -3  -6    1.29    0.31
  -6   3  -6    1.45    0.41
 -11  -4   6    0.20    0.21
 -11  -4   6    0.69    0.26
 -11   4   6    0.91    0.37
 -10  -4   6    0.82    0.30
 -10  -4   6    1.10    0.24
 -10   4   6    1.27    0.35
   9  -4  -6   -0.15    0.09
  -9  -4   6    0.08    0.20
  -9  -4   6    0.07    0.16
  -9   4   6   -0.13    0.21
   8  -4  -6    0.87    0.26
  -8  -4   6    0.53    0.23
  -8  -4   6    0.72    0.19
  -8   4   6    0.30    0.24
  -7  -4   6    0.60    0.18
   7  -4  -6    0.52    0.23
  -7  -4   6    0.85    0.25
  -7   4   6    0.75    0.23
  -6  -4   6    0.44    0.16
   6  -4  -6    0.36    0.19
  -6  -4   6    0.79    0.22
  -6  -4   6    0.29    0.19
   6   4  -6    0.60    0.18
  -6   4   6    0.17    0.19
   5  -4  -6    0.28    0.18
  -5  -4   6    0.15    0.15
  -5  -4   6    0.12    0.17
  -5  -4   6   -0.01    0.13
  -5   4   6    0.12    0.19
   5   4  -6   -0.03    0.12
  -4  -4   6    7.12    0.39
   4  -4  -6    8.28    0.54
  -4  -4   6    8.68    0.50
  -4   4   6    7.59    0.50
   4   4  -6    7.71    0.47
  -3  -4   6    6.67    0.44
  -3  -4   6    6.03    0.35
   3  -4  -6    5.39    0.44
   3  -4  -6    4.80    0.46
  -3   4   6    6.44    0.43
   3   4  -6    6.30    0.44
   2  -4  -6    2.08    0.25
   2  -4  -6    2.16    0.31
  -2  -4   6    2.71    0.32
   2  -4  -6    2.01    0.30
   2   4  -6    2.53    0.33
  -2   4   6    2.03    0.29
  -1  -4   6   16.64    0.72
   1  -4  -6   17.55    0.63
   1  -4  -6   17.90    0.77
   1  -4  -6   18.76    0.75
   1   4  -6   17.09    0.78
   0  -4  -6   33.49    0.99
   0  -4  -6   33.14    1.01
   0  -4  -6   32.95    1.16
   0  -4  -6   35.60    1.11
   0   4  -6   33.21    1.21
  -1  -4  -6    6.81    0.48
  -1  -4  -6    6.43    0.49
  -1  -4  -6    6.67    0.37
  -1  -4  -6    6.78    0.37
   1  -4   6    6.54    0.51
  -1   4  -6    6.32    0.50
   2  -4   6    1.04    0.28
  -2  -4  -6    1.26    0.28
  -2  -4  -6    1.03    0.19
  -2  -4  -6    0.90    0.26
  -2   4  -6    0.69    0.25
  -3  -4  -6    2.34    0.36
  -3  -4  -6    1.98    0.33
  -3  -4  -6    2.15    0.27
   3  -4   6    2.05    0.37
  -3   4  -6    1.68    0.37
  -4  -4  -6    0.80    0.26
  -4  -4  -6    0.58    0.28
  -4  -4  -6    1.36    0.25
  -4   4  -6    0.42    0.29
  -5  -4  -6   -0.02    0.21
  -5  -4  -6   -0.15    0.14
  -5   4  -6    0.03    0.20
  -6  -4  -6    1.53    0.35
  -6  -4  -6    1.43    0.31
  -6   4  -6    1.39    0.40
 -11  -5   6    0.48    0.20
 -11  -5   6    0.00    0.20
 -11   5   6    0.33    0.29
 -10  -5   6    0.65    0.21
 -10  -5   6    0.41    0.22
 -10   5   6    0.25    0.23
   9  -5  -6    1.04    0.27
  -9  -5   6    1.35    0.24
  -9  -5   6    1.07    0.28
  -9   5   6    1.26    0.33
   8  -5  -6    5.71    0.57
  -8  -5   6    5.53    0.52
  -8  -5   6    5.83    0.38
  -8   5   6    5.78    0.59
   7  -5  -6    0.07    0.17
  -7  -5   6    0.40    0.19
  -7  -5   6    0.12    0.14
  -7   5   6   -0.01    0.18
   6  -5  -6    1.08    0.27
  -6  -5   6    1.06    0.25
  -6  -5   6    1.51    0.27
  -6  -5   6    1.22    0.20
   6   5  -6    1.51    0.24
  -6   5   6    1.16    0.28
  -5  -5   6    3.87    0.38
  -5  -5   6    3.33    0.39
   5  -5  -6    2.85    0.38
  -5  -5   6    4.10    0.31
  -5   5   6    3.92    0.44
   5   5  -6    2.83    0.33
  -4  -5   6    6.01    0.36
   4  -5  -6    5.98    0.46
  -4  -5   6    6.92    0.46
  -4   5   6    5.59    0.43
   4   5  -6    5.87    0.41
   3  -5  -6    0.35    0.18
   3  -5  -6    0.22    0.21
   3  -5  -6    0.29    0.14
  -3  -5   6    0.25    0.14
  -3  -5   6    0.59    0.20
  -3   5   6    0.36    0.17
   3   5  -6    0.13    0.14
   2  -5  -6    0.83    0.24
  -2  -5   6    0.44    0.18
   2  -5  -6    0.49    0.19
   2  -5  -6    0.92    0.19
   2   5  -6    0.47    0.20
  -2   5   6    0.70    0.21
   1  -5  -6    2.82    0.27
   1  -5  -6    2.60    0.34
   1  -5  -6    2.62    0.34
   1   5  -6    2.61    0.37
   0  -5  -6    4.70    0.29
   0  -5  -6    4.36    0.31
   0  -5  -6    4.36    0.41
   0  -5  -6    4.07    0.43
   0   5  -6    4.89    0.50
  -1  -5  -6    3.25    0.27
  -1  -5  -6    3.15    0.37
  -1  -5  -6    3.04    0.38
  -1  -5  -6    3.14    0.28
   1  -5   6    2.48    0.40
  -1   5  -6    3.08    0.43
  -2  -5  -6    0.39    0.24
  -2  -5  -6    0.61    0.22
   2  -5   6    0.91    0.30
  -2  -5  -6    0.46    0.16
  -2  -5  -6    0.79    0.16
  -2   5  -6    0.88    0.27
  -3  -5  -6    1.26    0.29
  -3  -5  -6    1.17    0.21
  -3  -5  -6    0.54    0.25
   3  -5   6    0.88    0.27
  -3   5  -6    0.63    0.27
  -4  -5  -6   -0.06    0.14
   4  -5   6    0.02    0.19
  -4  -5  -6   -0.25    0.22
  -4  -5  -6    0.19    0.18
  -4   5  -6   -0.02    0.19
  -5  -5  -6    0.34    0.19
  -5  -5  -6    0.99    0.29
  -5   5  -6   -0.13    0.24
 -11  -6   6    0.05    0.17
 -11   6   6    0.03    0.24
 -10  -6   6    0.79    0.27
 -10  -6   6    0.91    0.23
 -10   6   6    0.77    0.28
   9  -6  -6    0.06    0.16
  -9  -6   6    0.04    0.18
  -9  -6   6   -0.03    0.15
  -9   6   6   -0.12    0.20
   8  -6  -6    3.70    0.49
  -8  -6   6    2.93    0.30
  -8  -6   6    2.79    0.39
  -8   6   6    3.29    0.47
  -7  -6   6    0.24    0.15
   7  -6  -6    0.46    0.21
  -7  -6   6    0.17    0.18
  -7  -6   6    0.28    0.15
  -7  -6   6    0.41    0.20
  -7   6   6    0.11    0.18
  -6  -6   6    2.22    0.25
  -6  -6   6    2.35    0.32
  -6  -6   6    1.92    0.31
  -6  -6   6    2.10    0.25
   6  -6  -6    2.22    0.35
  -6   6   6    2.73    0.40
  -5  -6   6   -0.03    0.14
  -5  -6   6    0.32    0.18
   5  -6  -6    0.33    0.19
   5   6  -6    0.31    0.15
  -5   6   6    0.56    0.23
   4  -6  -6    3.71    0.43
  -4  -6   6    3.91    0.38
  -4  -6   6    3.20    0.30
  -4   6   6    4.25    0.44
   4   6  -6    4.09    0.39
   3  -6  -6    1.84    0.30
   3  -6  -6    1.45    0.29
   3  -6  -6    1.46    0.22
  -3  -6   6    1.53    0.22
  -3  -6   6    1.75    0.29
  -3   6   6    1.78    0.30
   3   6  -6    1.69    0.29
   2  -6  -6    0.46    0.18
   2  -6  -6    0.03    0.14
   2  -6  -6    0.45    0.22
   2   6  -6    0.27    0.17
  -2   6   6    0.31    0.14
   1  -6  -6    4.90    0.34
   1  -6  -6    4.90    0.46
   1  -6  -6    4.54    0.42
   1   6  -6    5.03    0.48
   0  -6  -6   14.24    0.54
   0  -6  -6   14.99    0.71
   0  -6  -6   14.71    0.68
   0  -6  -6   15.18    0.57
   0   6  -6   15.42    0.77
  -1  -6  -6    1.00    0.17
  -1  -6  -6    1.09    0.26
   1  -6   6    1.32    0.30
  -1  -6  -6    1.20    0.19
  -1  -6  -6    1.00    0.25
  -1   6  -6    1.01    0.27
   2  -6   6    1.71    0.36
  -2  -6  -6    1.46    0.20
  -2  -6  -6    1.33    0.27
  -2  -6  -6    1.57    0.30
  -2  -6  -6    1.62    0.22
  -2   6  -6    0.77    0.29
  -3  -6  -6    1.02    0.28
  -3  -6  -6    0.72    0.18
  -3  -6  -6    1.16    0.28
   3  -6   6    0.89    0.30
  -3   6  -6    0.68    0.26
  -4  -6  -6    2.26    0.28
  -4  -6  -6    2.33    0.38
   4  -6   6    2.74    0.44
  -4  -6  -6    1.95    0.35
  -4   6  -6    1.93    0.40
  -5  -6  -6    1.62    0.28
  -5  -6  -6    2.83    0.41
  -5  -6  -6    1.51    0.34
  -5   6  -6    2.18    0.45
 -10  -7   6   -0.09    0.15
 -10  -7   6    0.05    0.19
 -10   7   6    0.05    0.21
  -9  -7   6    0.60    0.19
  -9  -7   6    0.42    0.23
   9  -7  -6    0.54    0.23
  -9   7   6    0.26    0.23
  -8  -7   6   -0.07    0.14
   8  -7  -6   -0.20    0.16
  -8  -7   6    0.12    0.15
  -8   7   6    0.11    0.19
  -7  -7   6    0.41    0.16
  -7  -7   6    0.06    0.16
  -7  -7   6   -0.02    0.19
   7  -7  -6   -0.12    0.13
  -7  -7   6    0.39    0.15
  -7   7   6    0.44    0.25
  -6  -7   6    3.56    0.32
   6  -7  -6    4.28    0.49
  -6  -7   6    3.99    0.39
  -6  -7   6    5.10    0.32
  -6   7   6    4.40    0.51
  -5  -7   6    3.97    0.40
  -5  -7   6    3.76    0.32
   5  -7  -6    3.81    0.45
  -5   7   6    4.31    0.48
   5   7  -6    3.36    0.35
  -4  -7   6    8.78    0.45
   4  -7  -6    9.49    0.58
  -4  -7   6    8.73    0.52
  -4   7   6    9.34    0.56
   4   7  -6    8.72    0.49
   3  -7  -6    6.90    0.53
  -3  -7   6    5.89    0.38
  -3  -7   6    6.74    0.47
   3  -7  -6    5.90    0.46
   3  -7  -6    6.92    0.40
   3   7  -6    6.29    0.44
  -3   7   6    6.57    0.46
   2  -7  -6    5.08    0.50
   2  -7  -6    4.60    0.36
   2  -7  -6    5.17    0.44
  -2   7   6    5.12    0.39
   2   7  -6    4.33    0.45
   1  -7  -6    1.47    0.27
   1  -7  -6    1.76    0.26
   1  -7  -6    1.81    0.31
   1   7  -6    1.34    0.31
   0  -7  -6    9.17    0.43
   0  -7  -6    9.50    0.56
   0  -7  -6    9.96    0.43
   0  -7  -6    8.93    0.55
   0   7  -6    9.22    0.60
  -1  -7  -6    0.38    0.22
  -1  -7  -6    0.43    0.20
  -1  -7  -6    0.40    0.14
   1  -7   6    0.01    0.20
  -1  -7  -6    0.33    0.13
  -1   7  -6    0.37    0.21
   2  -7   6    0.86    0.26
  -2  -7  -6    0.83    0.16
  -2  -7  -6    0.56    0.24
  -2  -7  -6    0.55    0.16
  -2  -7  -6    0.77    0.23
  -2   7  -6    0.84    0.31
  -3  -7  -6    1.12    0.26
  -3  -7  -6    0.96    0.19
   3  -7   6    1.00    0.29
  -3  -7  -6    0.92    0.19
  -3  -7  -6    1.43    0.30
  -3   7  -6    1.14    0.32
   4  -7   6    0.73    0.28
  -4  -7  -6    0.42    0.17
  -4  -7  -6    0.98    0.28
  -4  -7  -6    0.35    0.21
  -4   7  -6    0.17    0.26
  -5  -7  -6   -0.12    0.14
  -5  -7  -6   -0.21    0.20
  -5   7  -6    0.86    0.36
 -10  -8   6    0.28    0.18
 -10   8   6    0.28    0.24
   9  -8  -6    1.05    0.31
  -9  -8   6    0.49    0.18
  -9  -8   6    0.64    0.23
  -9   8   6    0.61    0.26
  -8  -8   6    2.81    0.29
   8  -8  -6    2.59    0.44
  -8   8   6    3.51    0.51
  -7  -8   6    1.75    0.30
   7  -8  -6    1.36    0.34
  -7  -8   6    1.19    0.21
  -7  -8   6    1.48    0.22
  -7   8   6    1.77    0.36
  -6  -8   6    1.06    0.27
  -6  -8   6    0.87    0.19
  -6  -8   6    1.31    0.21
   6  -8  -6    0.85    0.25
  -6   8   6    1.32    0.30
  -5  -8   6    1.83    0.29
  -5  -8   6    1.23    0.22
   5  -8  -6    1.25    0.29
  -5   8   6    2.00    0.35
  -4  -8   6    0.63    0.18
   4  -8  -6    0.86    0.27
  -4  -8   6    0.85    0.24
   4   8  -6    1.01    0.23
  -4   8   6    0.90    0.26
   3  -8  -6   13.04    0.64
  -3  -8   6   14.59    0.59
  -3  -8   6   13.61    0.67
   3  -8  -6   13.55    0.72
  -3   8   6   13.01    0.66
   3   8  -6   13.90    0.67
   2  -8  -6    5.66    0.38
   2  -8  -6    4.89    0.44
   2  -8  -6    5.21    0.51
   2   8  -6    5.70    0.44
  -2   8   6    5.09    0.39
   1  -8  -6    4.91    0.48
   1  -8  -6    5.43    0.46
   1  -8  -6    5.46    0.39
   1   8  -6    6.18    0.56
   0  -8  -6    1.26    0.19
   0  -8  -6    0.97    0.26
   0  -8  -6    0.87    0.25
   0  -8   6    1.28    0.31
   0  -8  -6    1.24    0.19
   0   8  -6    0.88    0.26
  -1  -8  -6    0.17    0.20
  -1  -8  -6    0.08    0.11
   1  -8   6    0.21    0.21
  -1  -8  -6    0.06    0.15
  -1  -8  -6    0.22    0.13
  -1   8  -6    0.03    0.19
  -2  -8  -6    3.76    0.40
  -2  -8  -6    3.86    0.29
  -2  -8  -6    3.75    0.27
   2  -8   6    4.02    0.53
  -2  -8  -6    4.23    0.43
  -2   8  -6    3.45    0.48
  -3  -8  -6    0.50    0.22
   3  -8   6    0.59    0.27
  -3  -8  -6    0.81    0.26
  -3  -8  -6    1.04    0.19
  -3  -8  -6    0.25    0.12
  -3   8  -6    0.60    0.25
  -4  -8  -6    0.20    0.15
   4  -8   6    0.21    0.22
  -4  -8  -6   -0.05    0.21
  -4  -8  -6    0.42    0.19
  -4   8  -6    0.60    0.30
  -5  -8  -6    2.31    0.30
  -5   8  -6    2.04    0.47
  10  -9  -6    0.74    0.24
 -10  -9   6    0.85    0.22
 -10   9   6    0.52    0.29
  -9  -9   6    0.14    0.16
   9  -9  -6    0.29    0.20
  -9   9   6   -0.10    0.23
   8  -9  -6    0.91    0.31
  -8  -9   6    0.40    0.16
  -8  -9   6    0.48    0.23
  -8  -9   6    0.70    0.18
  -8   9   6    0.71    0.27
  -7  -9   6    0.75    0.18
  -7  -9   6    0.77    0.17
  -7  -9   6    0.66    0.23
   7  -9  -6    1.20    0.33
  -7   9   6    1.31    0.32
  -6  -9   6    4.35    0.42
  -6  -9   6    4.26    0.33
   6  -9  -6    3.49    0.47
  -6  -9   6    4.08    0.34
  -6   9   6    3.91    0.49
  -5  -9   6    0.39    0.22
   5  -9  -6    0.49    0.24
  -5  -9   6    0.76    0.19
  -5   9   6    1.01    0.29
  -4  -9   6    1.53    0.24
  -4  -9   6    1.54    0.28
   4  -9  -6    1.36    0.29
  -4   9   6    1.82    0.32
   4   9  -6    1.33    0.25
   3  -9  -6    4.70    0.50
  -3  -9   6    4.10    0.37
  -3   9   6    4.67    0.45
   3   9  -6    4.95    0.47
   2  -9  -6   22.46    0.85
   2  -9  -6   18.66    0.86
   2  -9  -6   20.09    0.75
  -2   9   6   20.40    0.83
   2   9  -6   19.73    0.87
   1  -9  -6    1.05    0.22
   1  -9  -6    1.76    0.32
   1  -9  -6    0.94    0.26
   1   9  -6    1.33    0.29
  -1   9   6    1.38    0.23
   0  -9  -6    2.70    0.26
   0  -9  -6    2.44    0.26
   0  -9   6    1.90    0.36
   0  -9  -6    2.37    0.34
   0  -9  -6    2.53    0.34
   0   9  -6    3.01    0.43
  -1  -9  -6    1.47    0.21
  -1  -9  -6    1.78    0.30
  -1  -9  -6    1.46    0.19
   1  -9   6    1.76    0.36
  -1  -9  -6    1.18    0.27
  -1   9  -6    2.01    0.37
   2  -9   6    0.71    0.29
  -2  -9  -6    0.61    0.16
  -2  -9  -6    0.36    0.19
  -2  -9  -6    0.35    0.13
  -2  -9  -6    0.77    0.24
  -2   9  -6    0.05    0.22
  -3  -9  -6    0.54    0.15
   3  -9   6    0.86    0.34
  -3  -9  -6    0.96    0.19
  -3  -9  -6    1.24    0.26
  -3  -9  -6    0.78    0.27
  -3   9  -6    0.61    0.28
  -4  -9  -6    0.17    0.15
  -4  -9  -6    0.13    0.22
   4  -9   6    0.38    0.26
  -4   9  -6    0.22    0.24
  -5  -9  -6    1.45    0.25
  -5   9  -6    1.55    0.42
  10 -10  -6    1.86    0.42
 -10 -10   6    2.32    0.31
 -10  10   6    2.16    0.46
   9 -10  -6    0.42    0.23
  -9 -10   6    0.03    0.16
  -9  10   6    0.03    0.18
   8 -10  -6    0.40    0.23
  -8 -10   6    0.09    0.14
  -8 -10   6   -0.06    0.13
  -8  10   6    0.15    0.19
  -7 -10   6    0.12    0.14
   7 -10  -6    0.27    0.21
  -7 -10   6    0.44    0.15
  -7 -10   6    0.71    0.24
  -7  10   6    0.66    0.27
  -6 -10   6    0.00    0.18
  -6 -10   6   -0.05    0.13
   6 -10  -6   -0.26    0.17
  -6  10   6    0.00    0.15
  -5 -10   6    1.17    0.21
   5 -10  -6    1.61    0.34
  -5 -10   6    1.56    0.28
  -5  10   6    1.47    0.31
  -4 -10   6    1.98    0.27
   4 -10  -6    1.69    0.34
  -4  10   6    2.42    0.37
   3 -10  -6    6.88    0.52
  -3 -10   6    6.82    0.43
   3  10  -6    6.43    0.45
  -3  10   6    6.75    0.47
   2 -10  -6    4.65    0.40
   2 -10  -6    5.25    0.52
   2  10  -6    5.14    0.50
  -2  10   6    4.94    0.46
   1 -10  -6    1.33    0.30
  -1 -10   6    1.45    0.35
   1 -10  -6    1.48    0.31
   1 -10  -6    1.96    0.28
   1  10  -6    1.81    0.32
   0 -10  -6    0.32    0.22
   0 -10  -6    0.42    0.15
   0 -10  -6    0.35    0.20
   0 -10   6    0.13    0.20
   0  10  -6    0.22    0.21
   1 -10   6    3.75    0.51
  -1 -10  -6    3.96    0.28
  -1 -10  -6    2.80    0.38
  -1 -10  -6    3.67    0.32
  -1 -10  -6    3.36    0.39
  -1  10  -6    2.98    0.45
  -2 -10  -6    1.99    0.32
  -2 -10  -6    1.85    0.21
  -2 -10  -6    2.43    0.35
  -2 -10  -6    1.84    0.23
   2 -10   6    1.44    0.35
  -2  10  -6    1.79    0.39
  -3 -10  -6    0.92    0.25
   3 -10   6    0.76    0.28
  -3 -10  -6    0.54    0.24
  -3 -10  -6    0.60    0.15
  -3 -10  -6    0.80    0.18
  -3  10  -6    0.25    0.20
  -4 -10  -6    0.41    0.23
   4 -10   6    0.66    0.27
  -4 -10  -6    0.53    0.17
  -4  10  -6    0.68    0.33
   9 -11  -6    0.89    0.31
  -9 -11   6    0.32    0.18
  -9  11   6    0.36    0.29
  -8 -11   6    2.83    0.29
   8 -11  -6    2.17    0.43
  -8  11   6    2.78    0.48
  -7 -11   6    0.57    0.26
  -7 -11   6    0.56    0.17
   7 -11  -6    0.26    0.21
  -7  11   6    0.11    0.19
   6 -11  -6    0.07    0.22
  -6 -11   6    0.00    0.19
  -6 -11   6    0.06    0.15
  -6  11   6   -0.20    0.16
  -5 -11   6    0.25    0.17
   5 -11  -6    0.16    0.21
  -5  11   6    0.51    0.23
   4 -11  -6    1.29    0.34
  -4 -11   6    1.31    0.24
  -4  11   6    1.58    0.33
  -3 -11   6   14.97    0.64
   3 -11  -6   15.56    0.82
   3  11  -6   14.47    0.72
  -3  11   6   15.08    0.73
   2 -11  -6    1.83    0.28
   2 -11  -6    1.47    0.32
   2  11  -6    1.82    0.34
   1 -11  -6    0.01    0.18
   1 -11  -6    0.41    0.22
  -1 -11   6    0.26    0.25
   1 -11  -6    0.42    0.22
   1  11  -6    0.13    0.19
   0 -11  -6    0.15    0.12
   0 -11  -6    0.03    0.18
   0 -11   6   -0.13    0.17
   0 -11  -6    0.18    0.18
   0  11  -6   -0.18    0.17
  -1 -11  -6    1.20    0.19
  -1 -11  -6    1.58    0.30
  -1 -11  -6    1.31    0.29
   1 -11   6    1.04    0.34
  -1 -11  -6    2.03    0.25
  -1  11  -6    1.10    0.32
  -2 -11  -6    4.44    0.29
  -2 -11  -6    4.28    0.45
   2 -11   6    4.23    0.60
  -2 -11  -6    5.33    0.48
  -2 -11  -6    4.79    0.33
  -2  11  -6    4.87    0.59
  -3 -11  -6    1.33    0.21
   3 -11   6    1.80    0.40
  -3 -11  -6    1.57    0.20
  -3 -11  -6    0.84    0.28
  -3  11  -6    1.03    0.32
  -4 -11  -6    0.46    0.16
   4 -11   6    0.70    0.26
  -4  11  -6    0.29    0.25
  -9 -12   6    0.00    0.15
   9 -12  -6    0.04    0.18
  -9  12   6    0.00    0.21
  -8 -12   6    1.16    0.22
   8 -12  -6    0.37    0.27
  -8  12   6    1.16    0.34
   7 -12  -6    3.36    0.54
  -7 -12   6    2.98    0.31
  -7  12   6    3.07    0.49
   6 -12  -6    2.40    0.44
  -6 -12   6    3.27    0.32
  -6  12   6    3.23    0.48
   5 -12  -6    3.17    0.47
  -5 -12   6    3.44    0.34
  -5  12   6    4.02    0.49
   4 -12  -6    2.42    0.41
  -4 -12   6    1.84    0.28
  -4  12   6    1.37    0.31
   3 -12  -6    4.36    0.51
  -3 -12   6    4.25    0.40
  -3  12   6    5.02    0.50
   2 -12  -6    8.37    0.59
  -2 -12   6    7.59    0.61
   2 -12  -6    7.93    0.50
   2  12  -6    7.56    0.54
  -1 -12   6    0.34    0.25
   1 -12  -6    0.37    0.20
   1 -12  -6    0.53    0.23
   1  12  -6    0.57    0.22
   0 -12  -6    2.30    0.35
   0 -12  -6    1.73    0.33
   0 -12   6    1.75    0.39
   0 -12  -6    2.06    0.30
   0  12  -6    1.40    0.33
  -1 -12  -6    2.42    0.36
   1 -12   6    2.15    0.43
  -1 -12  -6    2.62    0.27
  -1 -12  -6    1.43    0.30
  -1  12  -6    2.46    0.43
  -2 -12  -6   -0.03    0.20
  -2 -12  -6   -0.04    0.16
  -2 -12  -6   -0.02    0.12
   2 -12   6   -0.38    0.19
  -2 -12  -6    0.12    0.11
  -2  12  -6    0.01    0.22
   3 -12   6    0.43    0.29
  -3 -12  -6    0.07    0.22
  -3 -12  -6    0.06    0.10
  -3 -12  -6    0.09    0.13
  -3  12  -6    0.08    0.21
   4 -12   6    0.22    0.23
  -4 -12  -6    0.31    0.15
  -4  12  -6    0.05    0.24
  -9 -13   6    0.64    0.21
   9 -13  -6    1.35    0.35
  -9  13   6    0.80    0.32
   8 -13  -6    0.56    0.29
  -8 -13   6    0.50    0.19
  -8  13   6    0.54    0.28
   7 -13  -6    0.36    0.24
  -7 -13   6    0.48    0.18
  -7  13   6   -0.06    0.20
   6 -13  -6    1.53    0.36
  -6 -13   6    1.33    0.25
  -6  13   6    1.54    0.36
   5 -13  -6    3.59    0.51
  -5 -13   6    3.58    0.36
  -5  13   6    4.20    0.51
   4 -13  -6    0.30    0.22
  -4 -13   6    0.82    0.22
  -4  13   6    0.24    0.17
   3 -13  -6    2.93    0.46
  -3 -13   6    3.05    0.45
   2 -13  -6    1.76    0.30
   2 -13  -6    1.97    0.38
  -2 -13   6    1.87    0.38
   2  13  -6    1.98    0.34
   1 -13  -6    2.89    0.41
   1 -13  -6    3.83    0.39
  -1 -13   6    2.33    0.43
   1  13  -6    3.48    0.46
   0 -13  -6    2.80    0.39
   0 -13   6    2.50    0.47
   0 -13  -6    2.21    0.36
   0 -13  -6    2.50    0.33
   0  13  -6    2.96    0.46
  -1 -13  -6    0.10    0.18
  -1 -13  -6    0.04    0.21
   1 -13   6    0.13    0.22
  -1 -13  -6    0.41    0.14
  -1  13  -6    0.41    0.23
  -2 -13  -6    1.89    0.32
   2 -13   6    1.61    0.40
  -2 -13  -6    2.26    0.35
  -2 -13  -6    2.19    0.27
  -2  13  -6    1.85    0.42
  -3 -13  -6    0.29    0.23
   3 -13   6    0.35    0.27
  -3 -13  -6    0.26    0.14
  -3  13  -6    0.87    0.34
  -8 -14   6    1.16    0.24
   8 -14  -6    1.08    0.36
  -8  14   6    0.69    0.27
   7 -14  -6    1.37    0.36
  -7 -14   6    1.01    0.23
  -7  14   6    1.69    0.39
   6 -14  -6    0.05    0.20
  -6 -14   6    0.54    0.20
  -6  14   6    0.61    0.25
  -5 -14   6    2.08    0.31
   5 -14  -6    1.49    0.36
  -5  14   6    2.03    0.38
   4 -14  -6    0.06    0.19
  -4 -14   6    0.19    0.19
  -4 -14   6   -0.30    0.18
  -3 -14   6    2.81    0.44
   3 -14  -6    2.95    0.46
   2 -14  -6    0.50    0.24
  -2 -14   6    0.39    0.26
   2 -14  -6    0.38    0.21
   1 -14  -6    0.12    0.17
  -1 -14   6   -0.09    0.18
   1 -14  -6    0.16    0.20
   1  14  -6    0.22    0.18
   0 -14  -6    1.09    0.29
   0 -14  -6    0.99    0.26
   0 -14   6    1.11    0.36
   0 -14  -6    1.09    0.28
   0  14  -6    1.50    0.35
  -1 -14  -6    1.31    0.20
   1 -14   6    0.89    0.35
  -1 -14  -6    1.02    0.28
  -1 -14  -6    1.13    0.28
  -1  14  -6    1.61    0.39
   2 -14   6    0.75    0.31
  -2 -14  -6    1.41    0.31
  -2 -14  -6    1.49    0.23
  -2  14  -6    1.39    0.35
  -3 -14  -6    0.63    0.18
   3 -14   6    0.72    0.32
  -3  14  -6    0.17    0.22
  -7 -15   6    0.85    0.24
   7 -15  -6    1.46    0.38
  -7  15   6    1.10    0.35
   6 -15  -6    0.84    0.33
  -6 -15   6    0.70    0.22
  -6 -15   6    0.93    0.31
  -6  15   6    0.98    0.28
   5 -15  -6    1.91    0.42
  -5 -15   6    2.23    0.32
  -5 -15   6    3.09    0.45
  -5  15   6    4.22    0.54
  -4 -15   6    1.36    0.29
   4 -15  -6    1.26    0.35
  -4 -15   6    1.03    0.31
  -3 -15   6    2.86    0.46
   3 -15  -6    3.72    0.53
   2 -15  -6    0.83    0.29
  -2 -15   6    1.24    0.35
   1 -15  -6    3.29    0.38
  -1 -15   6    2.18    0.44
   1 -15  -6    2.85    0.43
   0 -15  -6    4.23    0.51
   0 -15  -6    3.39    0.39
   0 -15   6    4.44    0.61
   0  15  -6    4.18    0.53
  -1 -15  -6    2.71    0.35
   1 -15   6    1.91    0.45
  -1 -15  -6    3.18    0.41
  -1 -15  -6    2.69    0.39
  -1  15  -6    2.50    0.46
   2 -15   6    1.79    0.46
  -2 -15  -6    1.60    0.32
  -2  15  -6    1.92    0.45
   7 -16  -6    0.26    0.27
  -7 -16   6    0.16    0.18
  -7  16   6    0.77    0.28
  -6 -16   6    0.46    0.24
   6 -16  -6   -0.25    0.18
  -6 -16   6    0.24    0.20
  -6  16   6    0.45    0.22
   5 -16  -6   -0.37    0.19
  -5 -16   6    0.80    0.29
  -5 -16   6    0.30    0.20
   4 -16  -6    1.17    0.36
  -4 -16   6    1.75    0.38
  -3 -16   6    0.09    0.22
   3 -16  -6    0.39    0.24
   2 -16  -6    0.12    0.20
  -2 -16   6    0.54    0.29
   1 -16  -6    0.40    0.22
  -1 -16   6    0.08    0.26
   1 -16  -6    0.30    0.22
   0 -16  -6    6.02    0.51
   0 -16   6    5.68    0.71
   0 -16  -6    7.27    0.67
   1 -16   6    0.63    0.28
  -1 -16  -6   -0.04    0.21
  -1 -16  -6    0.35    0.24
  -1  16  -6    0.45    0.26
   2 -16   6    1.57    0.41
  -2  16  -6    1.57    0.39
   6 -17  -6    0.33    0.26
  -6 -17   6    0.23    0.19
  -5 -17   6    0.11    0.22
   5 -17  -6   -0.07    0.22
  -5 -17   6    0.09    0.19
  -4 -17   6    0.57    0.27
   4 -17  -6    0.85    0.33
   3 -17  -6    0.39    0.27
  -3 -17   6    0.23    0.23
  -2 -17   6    1.05    0.37
   2 -17  -6    2.16    0.42
   1 -17  -6    0.07    0.20
   1 -17  -6    0.11    0.22
  -1 -17   6    0.69    0.31
   0 -17  -6    1.18    0.30
   0 -17   6    1.18    0.37
   0 -17  -6    0.49    0.23
  -1 -17  -6   -0.24    0.19
   1 -17   6    0.27    0.29
   5 -18  -6    0.13    0.26
  -5 -18   6    0.19    0.24
  -4 -18   6    0.54    0.29
   4 -18  -6    0.27    0.25
  -3 -18   6    0.34    0.26
   3 -18  -6   -0.15    0.19
  -2 -18   6    1.11    0.36
   2 -18  -6    0.12    0.21
  -1 -18   6    5.33    0.70
   1 -18  -6    5.31    0.60
 -11   0   7    0.52    0.30
 -10   0   7    0.56    0.27
  -9   0   7    0.06    0.18
  -8   0   7   -0.02    0.15
   8   0  -7   -0.16    0.13
   7   0  -7    8.67    0.57
  -7   0   7    8.74    0.60
   6   0  -7    0.41    0.20
  -6   0   7    0.13    0.17
  -5   0   7   23.01    0.96
   5   0  -7   23.04    0.95
   4   0  -7    0.02    0.15
  -4   0   7   -0.12    0.14
   3   0  -7   71.59    2.10
   2   0  -7    0.13    0.21
   1   0  -7   28.35    1.10
   0   0  -7   -0.10    0.19
  -1   0  -7    5.62    0.57
   2   0   7    0.14    0.19
  -2   0  -7    0.06    0.22
  -3   0  -7    1.47    0.37
  -4   0  -7    0.01    0.21
  -5   0  -7    3.15    0.52
 -11  -1   7    0.08    0.23
 -11   1   7   -0.06    0.23
 -10  -1   7    0.47    0.25
 -10   1   7    1.49    0.39
  -9  -1   7    0.97    0.28
  -9   1   7    1.19    0.34
   8  -1  -7    0.52    0.22
  -8  -1   7    0.76    0.27
  -8   1   7    0.53    0.27
  -7  -1   7    0.16    0.18
   7  -1  -7    0.13    0.18
   7   1  -7    0.47    0.20
  -7   1   7    0.70    0.26
   6  -1  -7    6.23    0.49
  -6  -1   7    5.85    0.56
   6   1  -7    7.22    0.51
  -6   1   7    6.43    0.49
  -5  -1   7   12.45    0.69
   5  -1  -7   13.43    0.69
   5   1  -7   12.76    0.68
  -5   1   7   13.56    0.72
  -4  -1   7    1.10    0.26
   4  -1  -7    2.58    0.36
  -4   1   7    1.99    0.32
   4   1  -7    1.82    0.33
   3  -1  -7   48.42    1.55
  -3   1   7   48.04    1.54
   3   1  -7   45.92    1.53
   2  -1  -7   22.71    0.94
   2   1  -7   22.44    0.95
   1  -1  -7   11.36    0.65
   1   1  -7   10.65    0.63
   0  -1  -7    5.03    0.50
   0   1  -7    5.05    0.52
  -1  -1  -7    3.82    0.46
  -1   1  -7    3.70    0.48
  -2  -1  -7    0.43    0.27
   2  -1   7    0.14    0.20
  -2   1  -7    0.29    0.27
  -3  -1  -7    0.30    0.24
  -3   1  -7    0.13    0.25
  -4  -1  -7    2.08    0.41
  -4   1  -7    1.37    0.36
  -5  -1  -7    1.27    0.34
  -5   1  -7    1.35    0.39
 -11  -2   7    0.66    0.32
 -11   2   7    0.96    0.36
 -10  -2   7    1.11    0.31
 -10   2   7    1.43    0.39
  -9  -2   7    1.94    0.38
  -9   2   7    2.21    0.43
  -8  -2   7    2.23    0.39
   8  -2  -7    2.90    0.42
  -8   2   7    2.60    0.42
   7  -2  -7    3.77    0.47
  -7  -2   7    2.95    0.36
  -7  -2   7    3.66    0.45
   7   2  -7    3.30    0.41
  -7   2   7    2.79    0.41
   6  -2  -7    4.75    0.51
  -6  -2   7    4.64    0.49
   6   2  -7    5.24    0.51
  -6   2   7    5.92    0.47
   5  -2  -7    3.81    0.45
  -5  -2   7    3.04    0.39
   5   2  -7    3.67    0.43
  -5   2   7    3.43    0.42
   4  -2  -7   22.37    0.94
   4   2  -7   21.78    0.92
  -4   2   7   21.74    0.92
   3  -2  -7    2.45    0.37
   3   2  -7    2.04    0.33
  -3   2   7    3.11    0.39
   2  -2  -7    3.66    0.42
   2   2  -7    2.58    0.37
   1  -2  -7   29.44    1.13
   1   2  -7   30.37    1.16
   0  -2  -7    9.68    0.62
   0  -2  -7    8.75    0.46
   0   2  -7   10.23    0.63
  -1  -2  -7   15.95    0.67
  -1  -2  -7   17.08    0.84
  -1   2  -7   15.92    0.86
  -2  -2  -7    2.25    0.40
  -2  -2  -7    2.54    0.32
   2  -2   7    3.51    0.47
  -2   2  -7    2.49    0.44
  -3  -2  -7    5.74    0.63
  -3   2  -7    5.00    0.60
  -4  -2  -7    1.49    0.37
  -4   2  -7    1.50    0.42
  -5  -2  -7    1.94    0.41
  -5   2  -7    1.55    0.42
 -11  -3   7    1.71    0.39
 -11   3   7    0.68    0.33
 -10  -3   7    0.37    0.24
 -10   3   7   -0.06    0.24
   9  -3  -7    3.28    0.45
  -9  -3   7    3.97    0.40
  -9  -3   7    3.97    0.50
  -9   3   7    2.91    0.47
  -8  -3   7    1.32    0.33
   8  -3  -7    1.00    0.26
  -8  -3   7    1.19    0.24
  -8   3   7    1.17    0.33
  -7  -3   7    4.90    0.37
   7  -3  -7    4.24    0.51
  -7  -3   7    4.73    0.52
  -7   3   7    4.02    0.49
   7   3  -7    4.23    0.44
  -6  -3   7    3.13    0.32
  -6  -3   7    3.18    0.41
   6  -3  -7    2.59    0.40
  -6   3   7    3.28    0.42
   6   3  -7    3.58    0.41
   5  -3  -7    4.06    0.47
  -5  -3   7    4.38    0.47
  -5   3   7    4.62    0.50
   5   3  -7    3.85    0.43
   4  -3  -7    1.99    0.32
  -4   3   7    1.32    0.30
   4   3  -7    1.78    0.32
   3  -3  -7    7.69    0.54
   3   3  -7    7.22    0.51
  -3   3   7    7.63    0.50
   2  -3  -7    5.23    0.51
   2   3  -7    5.22    0.51
   1  -3  -7    2.60    0.38
   1  -3  -7    2.55    0.29
   1   3  -7    2.68    0.39
   0  -3  -7    0.10    0.12
   0  -3  -7    0.20    0.20
   0  -3  -7    0.06    0.27
   0   3  -7   -0.01    0.20
  -1  -3  -7    5.85    0.55
  -1  -3  -7    6.48    0.42
   1  -3   7    5.90    0.59
  -1   3  -7    5.15    0.57
   2  -3   7    2.39    0.39
  -2  -3  -7    2.75    0.41
  -2  -3  -7    2.44    0.30
  -2   3  -7    2.05    0.39
  -3  -3  -7    7.62    0.49
  -3  -3  -7    7.89    0.60
  -3   3  -7    5.66    0.64
  -4  -3  -7    1.02    0.32
  -4   3  -7    1.05    0.37
  -5  -3  -7    2.12    0.44
  -5   3  -7    2.66    0.50
 -11  -4   7    0.13    0.25
 -11   4   7    0.24    0.28
 -10  -4   7    2.89    0.38
 -10  -4   7    2.63    0.43
 -10   4   7    2.92    0.49
  -9  -4   7    0.68    0.22
  -9  -4   7    0.40    0.24
   9  -4  -7    0.50    0.21
  -9   4   7    0.77    0.28
  -8  -4   7    1.76    0.36
  -8  -4   7    2.18    0.29
   8  -4  -7    1.57    0.33
  -8   4   7    2.25    0.42
  -7  -4   7    1.06    0.22
  -7  -4   7    0.96    0.28
   7  -4  -7    0.71    0.23
  -7   4   7    1.00    0.28
   6  -4  -7    0.64    0.27
  -6  -4   7    0.39    0.21
  -6  -4   7    0.67    0.19
   6   4  -7    0.61    0.22
  -6   4   7    0.99    0.29
  -5  -4   7    1.71    0.25
   5  -4  -7    1.24    0.31
   5   4  -7    1.51    0.28
  -5   4   7    1.14    0.28
   4  -4  -7   -0.19    0.17
   4   4  -7   -0.12    0.13
  -4   4   7   -0.10    0.13
   3  -4  -7   12.69    0.69
   3   4  -7   12.74    0.69
  -3   4   7   13.10    0.68
   2  -4  -7   11.71    0.68
   2   4  -7   12.47    0.69
   1  -4  -7    1.82    0.26
   1  -4  -7    2.43    0.36
   1  -4  -7    2.15    0.35
   1   4  -7    2.07    0.37
   0  -4  -7    0.42    0.15
   0  -4  -7    0.50    0.24
   0  -4  -7    0.27    0.25
   0   4  -7    0.11    0.20
  -1  -4  -7    1.76    0.34
   1  -4   7    2.67    0.41
  -1  -4  -7    2.20    0.28
  -1  -4  -7    2.29    0.41
  -1   4  -7    2.05    0.40
  -2  -4  -7    1.20    0.24
   2  -4   7    1.40    0.34
  -2  -4  -7    1.13    0.31
  -2   4  -7    0.69    0.27
   3  -4   7    1.31    0.32
  -3  -4  -7    1.29    0.25
  -3  -4  -7    0.85    0.30
  -3   4  -7    1.48    0.37
  -4  -4  -7    0.12    0.19
  -4  -4  -7    0.83    0.28
  -4   4  -7    0.00    0.21
  -5  -4  -7    5.62    0.65
  -5   4  -7    5.83    0.72
 -11  -5   7    0.06    0.23
 -11   5   7    0.08    0.24
 -10  -5   7    1.16    0.32
 -10  -5   7    1.04    0.27
 -10   5   7    1.45    0.38
   9  -5  -7    0.17    0.21
  -9  -5   7    0.30    0.19
  -9  -5   7    0.25    0.21
  -9   5   7    0.46    0.26
   8  -5  -7    0.64    0.23
  -8  -5   7    0.60    0.26
  -8  -5   7    0.76    0.22
  -8   5   7    0.85    0.29
  -7  -5   7    1.21    0.29
   7  -5  -7    0.92    0.29
  -7  -5   7    1.11    0.23
  -7   5   7    1.11    0.28
   6  -5  -7    2.07    0.34
  -6  -5   7    1.42    0.30
  -6  -5   7    1.72    0.26
  -6   5   7    1.49    0.33
   6   5  -7    1.31    0.26
  -5  -5   7    1.74    0.26
   5  -5  -7    2.32    0.37
  -5   5   7    1.91    0.35
   5   5  -7    2.05    0.32
   4  -5  -7    0.75    0.25
  -4   5   7    0.72    0.24
   4   5  -7    0.54    0.20
   3  -5  -7    0.86    0.25
   3   5  -7    0.96    0.28
  -3   5   7    1.36    0.27
   2  -5  -7   19.38    0.89
   2   5  -7   20.46    0.90
   1  -5  -7    5.80    0.43
   1  -5  -7    6.36    0.50
   1  -5  -7    6.47    0.53
   1   5  -7    6.18    0.50
   0  -5  -7    6.48    0.51
   0  -5  -7    6.64    0.40
   0  -5  -7    6.27    0.53
   0   5  -7    6.29    0.61
  -1  -5  -7    3.03    0.41
   1  -5   7    3.35    0.48
  -1  -5  -7    3.76    0.36
  -1  -5  -7    4.02    0.47
  -1   5  -7    3.79    0.51
  -2  -5  -7    4.32    0.39
  -2  -5  -7    4.48    0.51
   2  -5   7    4.65    0.56
  -2   5  -7    4.35    0.55
   3  -5   7    1.38    0.35
  -3  -5  -7    0.77    0.23
  -3  -5  -7    1.68    0.35
  -3   5  -7    0.68    0.32
  -4  -5  -7    3.08    0.39
  -4  -5  -7    2.61    0.44
  -4   5  -7    2.35    0.46
 -10  -6   7    0.14    0.19
 -10  -6   7    0.33    0.21
 -10   6   7   -0.08    0.21
   9  -6  -7    0.08    0.20
  -9  -6   7    0.26    0.21
  -9  -6   7    0.50    0.26
  -9   6   7    0.97    0.31
   8  -6  -7    0.61    0.27
  -8  -6   7    0.70    0.22
  -8  -6   7    0.56    0.24
  -8   6   7    0.71    0.27
  -7  -6   7    2.96    0.42
   7  -6  -7    2.61    0.42
  -7  -6   7    3.11    0.32
  -7   6   7    3.14    0.46
  -6  -6   7    6.67    0.42
   6  -6  -7    5.98    0.60
  -6   6   7    7.11    0.55
   6   6  -7    6.52    0.45
   5  -6  -7    2.28    0.38
  -5  -6   7    2.68    0.31
   5   6  -7    2.44    0.34
  -5   6   7    1.85    0.33
   4  -6  -7    0.85    0.26
   4   6  -7    0.86    0.24
  -4   6   7    0.21    0.20
   3  -6  -7    4.88    0.52
   3   6  -7    4.16    0.46
  -3   6   7    3.74    0.42
   2  -6  -7    2.97    0.33
   2  -6  -7    2.65    0.38
  -2   6   7    3.94    0.43
   2   6  -7    2.92    0.40
   1  -6  -7   10.46    0.63
   1  -6  -7   10.81    0.56
   1  -6  -7   11.51    0.67
   1   6  -7   10.09    0.66
   0  -6  -7    0.25    0.23
   0  -6  -7    0.55    0.17
   0  -6  -7    0.27    0.22
   0   6  -7    0.39    0.24
  -1  -6  -7    2.26    0.29
   1  -6   7    1.73    0.36
  -1  -6  -7    1.69    0.34
  -1  -6  -7    1.42    0.32
  -1   6  -7    1.54    0.35
   2  -6   7    0.40    0.22
  -2  -6  -7    0.16    0.20
  -2  -6  -7    0.54    0.28
  -2  -6  -7    0.55    0.19
  -2   6  -7    0.59    0.29
   3  -6   7    0.65    0.28
  -3  -6  -7    0.81    0.20
  -3  -6  -7    0.55    0.24
  -3   6  -7    0.09    0.18
  -4  -6  -7    0.34    0.18
  -4  -6  -7   -0.03    0.19
  -4   6  -7    0.11    0.21
 -10  -7   7    1.45    0.31
 -10  -7   7    1.25    0.27
 -10   7   7    0.48    0.25
   9  -7  -7    0.20    0.21
  -9  -7   7    0.07    0.17
  -9  -7   7   -0.02    0.17
  -9   7   7    0.00    0.16
  -8  -7   7    1.41    0.25
   8  -7  -7    0.78    0.29
  -8  -7   7    0.66    0.26
  -8   7   7    1.35    0.34
   7  -7  -7   -0.05    0.15
  -7  -7   7    0.12    0.17
  -7   7   7   -0.09    0.15
  -6  -7   7    1.35    0.24
   6  -7  -7    1.37    0.32
  -6   7   7    1.14    0.30
   5  -7  -7    4.42    0.51
  -5  -7   7    5.10    0.38
  -5   7   7    5.68    0.57
   5   7  -7    5.25    0.48
   4  -7  -7    1.90    0.36
  -4   7   7    1.42    0.30
   4   7  -7    1.67    0.31
   3  -7  -7    0.58    0.26
  -3   7   7    0.68    0.23
   3   7  -7    0.45    0.23
   2  -7  -7    6.67    0.51
   2  -7  -7    6.79    0.45
  -2   7   7    7.47    0.49
   2   7  -7    8.44    0.58
   1  -7  -7    2.05    0.35
   1  -7  -7    2.45    0.32
   1  -7  -7    2.33    0.37
   1   7  -7    2.96    0.43
   0  -7   7    4.22    0.53
   0  -7  -7    3.68    0.44
   0  -7  -7    3.81    0.43
   0  -7  -7    4.09    0.36
   0   7  -7    3.42    0.48
  -1  -7  -7    0.96    0.28
  -1  -7  -7    0.32    0.17
   1  -7   7    0.53    0.27
  -1  -7  -7    0.42    0.26
  -1   7  -7    1.00    0.30
   2  -7   7    0.34    0.24
  -2  -7  -7    0.74    0.20
  -2  -7  -7    0.85    0.30
  -2  -7  -7    0.46    0.24
  -2   7  -7    0.47    0.24
  -3  -7  -7    1.02    0.23
   3  -7   7    0.94    0.30
  -3  -7  -7    0.57    0.25
  -3   7  -7    0.88    0.34
  -4  -7  -7    0.13    0.22
  -4  -7  -7   -0.08    0.16
  -4   7  -7   -0.17    0.19
 -10  -8   7    1.24    0.26
  10  -8  -7    0.56    0.26
 -10   8   7    1.62    0.40
  -9  -8   7    0.00    0.16
   9  -8  -7   -0.03    0.19
  -9   8   7   -0.16    0.17
   8  -8  -7    1.75    0.38
  -8  -8   7    2.10    0.29
  -8   8   7    1.64    0.38
  -7  -8   7    1.10    0.23
   7  -8  -7    1.74    0.35
  -7   8   7    1.02    0.33
  -6  -8   7    1.85    0.28
   6  -8  -7    2.14    0.38
  -6   8   7    1.89    0.38
   5  -8  -7    1.29    0.32
  -5  -8   7    1.08    0.24
   5   8  -7    1.27    0.27
  -5   8   7    1.17    0.28
   4  -8  -7   14.65    0.80
   4   8  -7   14.21    0.72
  -4   8   7   13.87    0.74
   3  -8  -7    2.55    0.40
  -3   8   7    2.75    0.38
   3   8  -7    2.16    0.36
   2  -8  -7    5.59    0.56
   2  -8  -7    4.82    0.41
  -2   8   7    5.19    0.41
   2   8  -7    4.14    0.48
   1  -8  -7    0.50    0.22
   1  -8  -7    0.94    0.24
   1   8  -7    0.42    0.25
   0  -8   7   -0.08    0.20
   0  -8  -7    0.40    0.17
   0  -8  -7    0.22    0.23
   0  -8  -7   -0.01    0.17
   0   8  -7    0.29    0.21
   1  -8   7    1.23    0.35
  -1  -8  -7    1.11    0.28
  -1  -8  -7    0.98    0.21
  -1  -8  -7    0.83    0.29
  -1   8  -7    1.47    0.38
  -2  -8  -7    0.84    0.27
  -2  -8  -7    1.07    0.23
   2  -8   7    0.25    0.22
  -2  -8  -7    1.10    0.31
  -2   8  -7    1.15    0.30
  -3  -8  -7    1.19    0.29
  -3  -8  -7    1.02    0.24
   3  -8   7    1.02    0.34
  -3   8  -7    0.98    0.34
  -4  -8  -7    1.71    0.29
  -4   8  -7    2.22    0.46
 -10  -9   7    0.17    0.21
  10  -9  -7    0.27    0.21
 -10   9   7    0.57    0.29
  -9  -9   7    0.46    0.19
   9  -9  -7    0.96    0.29
  -9   9   7    0.39    0.26
   8  -9  -7    0.27    0.20
  -8  -9   7    0.27    0.19
  -8   9   7    0.27    0.21
  -7  -9   7    0.04    0.17
   7  -9  -7    0.27    0.21
  -7   9   7    0.37    0.24
  -6  -9   7    3.37    0.35
   6  -9  -7    3.17    0.46
  -6   9   7    3.49    0.49
   5  -9  -7    9.67    0.66
  -5  -9   7    8.33    0.50
  -5   9   7   10.15    0.66
   4  -9  -7    3.69    0.48
   4   9  -7    3.90    0.44
  -4   9   7    3.90    0.48
   3  -9  -7    0.79    0.28
   3   9  -7    0.45    0.22
  -3   9   7    0.84    0.25
   2  -9  -7    1.65    0.28
   2  -9  -7    2.12    0.38
   2   9  -7    2.01    0.36
  -2   9   7    1.44    0.27
   1  -9  -7    0.63    0.23
   1  -9  -7    1.70    0.33
   1   9  -7    1.05    0.28
   0  -9  -7    4.57    0.35
   0  -9  -7    3.04    0.43
   0  -9   7    2.97    0.46
   0  -9  -7    3.56    0.42
   0   9  -7    3.40    0.50
  -1  -9  -7    0.18    0.16
  -1  -9  -7    0.40    0.23
   1  -9   7    0.34    0.26
  -1  -9  -7    0.05    0.24
  -1   9  -7    0.45    0.23
  -2  -9  -7    0.25    0.18
  -2  -9  -7    0.69    0.24
   2  -9   7    0.66    0.28
  -2  -9  -7    0.17    0.26
  -2   9  -7    0.28    0.25
  -3  -9  -7    0.39    0.26
   3  -9   7    0.33    0.25
  -3  -9  -7    0.25    0.21
  -3  -9  -7    0.32    0.18
  -3   9  -7   -0.05    0.19
  -4  -9  -7    0.30    0.18
   4  -9   7    0.17    0.21
  -4   9  -7    0.14    0.27
   9 -10  -7    0.88    0.29
  -9 -10   7    0.35    0.21
  -9  10   7    0.66    0.29
   8 -10  -7    1.68    0.41
  -8 -10   7    1.80    0.28
  -8  10   7    2.10    0.42
   7 -10  -7    0.64    0.30
  -7 -10   7    1.64    0.27
  -7  10   7    0.66    0.26
   6 -10  -7    1.27    0.35
  -6 -10   7    1.36    0.26
  -6  10   7    1.34    0.35
   5 -10  -7    1.96    0.37
  -5 -10   7    1.58    0.27
  -5  10   7    1.97    0.37
   4 -10  -7    4.79    0.55
  -4  10   7    5.39    0.57
   4  10  -7    5.07    0.50
   3 -10  -7    0.63    0.25
  -3  10   7    0.35    0.21
   3  10  -7    0.74    0.25
   2 -10  -7    0.17    0.21
   2 -10  -7    0.27    0.20
   2  10  -7    0.58    0.22
   1 -10  -7    1.17    0.27
  -1 -10   7    1.45    0.37
   1 -10  -7    1.47    0.32
   1  10  -7    1.13    0.30
   0 -10  -7    6.87    0.60
   0 -10  -7    7.31    0.56
   0 -10  -7    8.98    0.47
   0 -10   7    7.50    0.75
   0  10  -7    7.08    0.70
  -1 -10  -7    0.62    0.18
  -1 -10  -7    0.65    0.24
   1 -10   7    0.89    0.34
  -1 -10  -7    0.96    0.29
  -1  10  -7    1.08    0.32
  -2 -10  -7    1.59    0.31
   2 -10   7    1.36    0.39
  -2 -10  -7    1.35    0.26
  -2 -10  -7    0.87    0.31
  -2  10  -7    1.27    0.33
  -3 -10  -7    3.27    0.45
  -3 -10  -7    3.72    0.38
   3 -10   7    3.65    0.58
  -3 -10  -7    3.90    0.47
  -3  10  -7    3.28    0.55
  -9 -11   7    0.57    0.22
   9 -11  -7    0.87    0.29
  -9  11   7    0.85    0.32
  -8 -11   7    0.93    0.24
   8 -11  -7    0.42    0.28
  -8  11   7    1.39    0.36
  -7 -11   7    0.89    0.23
   7 -11  -7    1.24    0.36
  -7  11   7    1.10    0.33
   6 -11  -7    1.14    0.34
  -6 -11   7    1.57    0.27
  -6  11   7    1.55    0.36
   5 -11  -7    1.49    0.34
  -5 -11   7    1.42    0.26
  -5  11   7    1.52    0.34
   4 -11  -7    6.79    0.67
  -4  11   7    8.58    0.57
   3 -11  -7    3.40    0.48
  -3  11   7    2.77    0.40
   3  11  -7    2.48    0.39
   2 -11  -7    1.00    0.31
   2  11  -7    1.22    0.29
   1 -11  -7    0.65    0.25
  -1 -11   7    0.61    0.25
   1 -11  -7    0.18    0.20
   1  11  -7    0.81    0.28
   0 -11  -7    1.23    0.30
   0 -11   7    2.48    0.49
   0 -11  -7    1.95    0.33
   0  11  -7    1.83    0.39
  -1 -11  -7    0.79    0.26
  -1 -11  -7    1.27    0.33
  -1 -11  -7    1.29    0.23
   1 -11   7    1.84    0.42
  -1  11  -7    1.13    0.31
   2 -11   7    1.94    0.44
  -2 -11  -7    1.96    0.35
  -2 -11  -7    1.54    0.26
  -2 -11  -7    0.90    0.28
  -2  11  -7    1.33    0.33
  -3 -11  -7    0.62    0.20
   3 -11   7    0.84    0.36
  -3 -11  -7    0.56    0.27
  -3  11  -7    0.58    0.29
   9 -12  -7   -0.37    0.18
  -9 -12   7   -0.24    0.15
  -9  12   7    0.17    0.19
  -8 -12   7    0.49    0.21
   8 -12  -7    0.54    0.26
  -8  12   7    1.00    0.32
   7 -12  -7    0.64    0.26
  -7 -12   7    0.51    0.21
  -7  12   7    1.01    0.34
   6 -12  -7   -0.29    0.18
  -6 -12   7    0.22    0.19
  -6  12   7    0.17    0.21
   5 -12  -7    7.76    0.75
  -5 -12   7    7.46    0.50
  -5  12   7    7.43    0.58
   4 -12  -7    0.77    0.29
  -4  12   7    0.70    0.24
   3 -12  -7    0.10    0.19
  -2 -12   7    1.57    0.38
   2 -12  -7    1.55    0.36
   2  12  -7    1.10    0.28
   1 -12  -7    0.63    0.25
  -1 -12   7    1.40    0.36
   1 -12  -7    1.41    0.33
   1  12  -7    0.58    0.26
   0 -12   7    3.07    0.50
   0 -12  -7    2.94    0.38
   0 -12  -7    3.10    0.44
   0  12  -7    3.32    0.49
  -1 -12  -7    1.83    0.25
  -1 -12  -7    1.70    0.33
   1 -12   7    1.53    0.41
  -1  12  -7    0.85    0.29
  -2 -12  -7   -0.14    0.21
  -2 -12  -7   -0.02    0.14
   2 -12   7   -0.10    0.24
  -2 -12  -7    0.19    0.21
  -2  12  -7    0.61    0.31
   3 -12   7    0.11    0.25
  -3 -12  -7    0.23    0.18
  -3  12  -7   -0.32    0.24
   8 -13  -7    0.63    0.31
  -8 -13   7    0.49    0.21
  -8  13   7    0.53    0.28
   7 -13  -7    1.57    0.40
  -7 -13   7    0.98    0.24
  -7  13   7    0.98    0.33
  -6 -13   7    0.82    0.25
   6 -13  -7    0.81    0.30
  -6  13   7    0.59    0.25
  -5 -13   7    0.38    0.24
   5 -13  -7   -0.26    0.21
  -5  13   7   -0.07    0.17
   4 -13  -7    6.94    0.72
  -3 -13   7    0.50    0.27
   3 -13  -7    0.48    0.26
  -2 -13   7    1.67    0.40
   2 -13  -7    1.89    0.39
   2  13  -7    1.30    0.29
   1 -13  -7    2.96    0.44
  -1 -13   7    3.94    0.57
   1 -13  -7    2.98    0.39
   1  13  -7    2.89    0.44
   0 -13  -7    0.57    0.26
   0 -13   7    1.42    0.37
   0 -13  -7    1.57    0.34
   0  13  -7    1.37    0.34
   1 -13   7   -0.19    0.15
  -1 -13  -7   -0.11    0.19
  -1  13  -7    0.08    0.20
   2 -13   7    0.30    0.23
  -2  13  -7   -0.25    0.15
   8 -14  -7    0.38    0.29
  -8 -14   7    0.09    0.19
  -8  14   7    0.25    0.21
   7 -14  -7    0.54    0.29
  -7 -14   7    0.31    0.21
  -7  14   7   -0.07    0.18
  -6 -14   7    1.34    0.28
   6 -14  -7    0.54    0.28
  -6  14   7    0.53    0.25
   5 -14  -7    1.52    0.38
  -5  14   7    1.02    0.29
  -4 -14   7    3.51    0.51
   4 -14  -7    2.57    0.48
  -3 -14   7    0.66    0.29
   3 -14  -7    1.00    0.32
  -2 -14   7   10.77    0.79
   2 -14  -7   10.03    0.72
   1 -14  -7    1.55    0.35
  -1 -14   7    1.29    0.37
   1 -14  -7    0.27    0.22
   1  14  -7    1.27    0.32
   0 -14   7   -0.01    0.18
   0 -14  -7    0.05    0.17
   0 -14  -7   -0.19    0.21
   0  14  -7    0.14    0.20
  -1 -14  -7    0.60    0.27
  -1 -14  -7    0.64    0.26
   1 -14   7    0.81    0.34
  -1  14  -7    0.31    0.23
   2 -14   7    1.34    0.37
  -2  14  -7    0.85    0.31
  -7 -15   7    0.53    0.23
   7 -15  -7   -0.01    0.20
  -7  15   7    0.19    0.23
  -6 -15   7    0.68    0.24
   6 -15  -7   -0.05    0.22
  -6  15   7    0.28    0.23
   5 -15  -7    1.38    0.38
  -5 -15   7    1.13    0.35
   4 -15  -7    0.33    0.30
  -4 -15   7    0.40    0.28
   3 -15  -7    0.87    0.30
  -3 -15   7    1.13    0.38
  -2 -15   7    1.72    0.45
   2 -15  -7    3.40    0.51
  -1 -15   7    1.60    0.44
   1 -15  -7    1.32    0.35
   0 -15  -7    2.28    0.40
   0 -15   7    3.12    0.56
   0 -15  -7    2.20    0.37
   0  15  -7    2.65    0.49
  -1 -15  -7   -0.17    0.24
   1 -15   7   -0.02    0.27
  -1  15  -7    0.02    0.19
   6 -16  -7    0.82    0.35
  -6 -16   7    0.83    0.32
   5 -16  -7    0.54    0.28
  -5 -16   7    0.18    0.24
  -4 -16   7    0.72    0.33
   4 -16  -7    0.27    0.25
  -3 -16   7    1.57    0.40
   3 -16  -7    0.41    0.27
  -2 -16   7    0.30    0.28
   2 -16  -7    0.66    0.27
   1 -16  -7    0.41    0.23
  -1 -16   7    0.30    0.25
   0 -16  -7    0.19    0.25
   0 -16  -7    1.22    0.32
   0 -16   7    1.20    0.40
  -5 -17   7   -0.08    0.19
   5 -17  -7    0.44    0.29
   4 -17  -7    0.15    0.25
  -4 -17   7   -0.29    0.19
   3 -17  -7    0.69    0.31
  -3 -17   7    1.16    0.37
   2 -17  -7    2.15    0.43
  -2 -17   7    2.28    0.50
   1 -17  -7    1.81    0.38
  -1 -17   7    1.68    0.46
 -11   0   8    0.06    0.24
 -10   0   8    0.45    0.25
  -9   0   8    0.14    0.20
   8   0  -8    2.69    0.41
  -8   0   8    3.31    0.49
  -7   0   8   -0.14    0.19
   7   0  -8   -0.04    0.18
   6   0  -8    1.21    0.30
  -6   0   8    1.56    0.32
   5   0  -8    0.16    0.18
  -5   0   8    0.11    0.19
   4   0  -8    7.63    0.56
   3   0  -8    0.19    0.19
   2   0  -8    7.01    0.54
   1   0  -8   -0.11    0.16
   0   0  -8    4.46    0.53
  -1   0  -8   -0.11    0.21
  -2   0  -8    1.28    0.33
  -3   0  -8   -0.19    0.22
  -4   0  -8    4.13    0.64
 -11  -1   8   -0.13    0.21
 -11   1   8   -0.30    0.19
 -10  -1   8    0.61    0.29
 -10   1   8    0.26    0.24
  -9  -1   8    0.63    0.27
  -9   1   8    0.32    0.27
   8  -1  -8    0.18    0.18
  -8  -1   8    0.43    0.25
  -8   1   8   -0.05    0.16
   8   1  -8    0.28    0.21
  -7  -1   8    1.19    0.32
   7  -1  -8    1.42    0.30
   7   1  -8    1.11    0.28
  -7   1   8    1.17    0.31
   6  -1  -8    3.70    0.47
  -6  -1   8    3.92    0.48
   6   1  -8    4.32    0.49
  -6   1   8    4.65    0.54
  -5  -1   8    6.22    0.60
   5  -1  -8    6.37    0.52
   5   1  -8    7.31    0.56
  -5   1   8    7.39    0.55
   4  -1  -8    4.56    0.51
   4   1  -8    4.78    0.53
  -4   1   8    4.05    0.49
   3  -1  -8    8.29    0.59
   3   1  -8    9.21    0.61
   2  -1  -8    1.10    0.29
   2   1  -8    2.06    0.36
   1  -1  -8    0.88    0.31
   1   1  -8    1.12    0.29
   0  -1  -8    1.71    0.37
   0   1  -8    1.45    0.34
   1  -1   8    5.06    0.56
  -1  -1  -8    4.41    0.57
  -1   1  -8    4.45    0.57
  -2  -1  -8    3.32    0.51
  -2   1  -8    3.26    0.53
  -3  -1  -8    6.68    0.73
  -3   1  -8    6.71    0.72
  -4  -1  -8    0.22    0.23
  -4   1  -8    0.32    0.30
 -11  -2   8    1.25    0.37
 -11   2   8    0.76    0.34
 -10  -2   8   -0.09    0.21
 -10   2   8   -0.22    0.18
  -9  -2   8    1.33    0.34
  -9   2   8    0.85    0.33
  -8  -2   8    0.21    0.22
   8  -2  -8    0.28    0.18
  -8   2   8    0.46    0.24
  -7  -2   8    0.11    0.19
   7  -2  -8    0.30    0.21
   7   2  -8    0.27    0.19
  -7   2   8    0.03    0.19
  -6  -2   8    0.21    0.21
   6  -2  -8    0.13    0.17
  -6   2   8    0.13    0.18
   6   2  -8    0.18    0.19
  -5  -2   8    1.26    0.30
   5  -2  -8    1.13    0.31
   5   2  -8    1.58    0.34
  -5   2   8    1.69    0.34
   4  -2  -8    7.12    0.55
   4   2  -8    6.86    0.53
  -4   2   8    8.81    0.59
   3  -2  -8    0.80    0.26
   3   2  -8    1.05    0.28
   2  -2  -8    1.02    0.30
   2   2  -8    1.33    0.31
   1  -2  -8    2.69    0.41
   1   2  -8    2.26    0.38
   0  -2  -8    3.15    0.45
   0   2  -8    2.95    0.47
   1  -2   8    9.26    0.66
  -1  -2  -8    8.93    0.66
  -1   2  -8    9.10    0.70
  -2  -2  -8    1.13    0.35
  -2   2  -8    1.27    0.35
  -3  -2  -8    2.68    0.47
  -3   2  -8    2.04    0.44
  -4  -2  -8    2.12    0.44
  -4   2  -8    2.10    0.48
 -10  -3   8    0.43    0.28
 -10   3   8    1.01    0.34
  -9  -3   8    0.18    0.23
   9  -3  -8    0.41    0.21
  -9   3   8    0.25    0.25
  -8  -3   8    0.49    0.27
   8  -3  -8   -0.17    0.18
  -8   3   8    0.21    0.21
   7  -3  -8    1.82    0.39
  -7  -3   8    1.34    0.34
  -7   3   8    1.59    0.34
   7   3  -8    1.32    0.30
  -6  -3   8    0.58    0.27
   6  -3  -8    0.80    0.25
   6   3  -8    0.14    0.16
  -6   3   8    0.72    0.28
   5  -3  -8    2.79    0.41
  -5   3   8    2.01    0.36
   5   3  -8    1.80    0.35
   4  -3  -8    3.57    0.48
   4   3  -8    3.81    0.46
  -4   3   8    3.69    0.46
   3  -3  -8    8.61    0.59
   3   3  -8    9.07    0.60
   2  -3  -8    3.27    0.46
   2   3  -8    3.08    0.43
   1  -3  -8    2.99    0.43
   1   3  -8    2.83    0.44
   0  -3  -8    0.35    0.23
   0   3  -8    0.26    0.24
   1  -3   8    0.14    0.17
  -1  -3  -8    0.35    0.22
  -1   3  -8    0.38    0.25
   2  -3   8    1.35    0.33
  -2  -3  -8    1.05    0.30
  -2   3  -8    0.58    0.29
  -3  -3  -8    7.18    0.73
  -3   3  -8    6.20    0.72
  -4  -3  -8   -0.12    0.23
  -4   3  -8   -0.14    0.27
 -10  -4   8    0.52    0.29
 -10   4   8    0.56    0.29
  -9  -4   8    0.42    0.25
   9  -4  -8    0.40    0.22
  -9   4   8    0.12    0.24
  -8  -4   8    1.28    0.34
   8  -4  -8    1.61    0.37
  -8   4   8    1.52    0.37
   7  -4  -8    0.03    0.17
  -7  -4   8    0.05    0.18
  -7   4   8   -0.05    0.17
   6  -4  -8    0.95    0.27
  -6   4   8    0.42    0.23
   6   4  -8    0.52    0.22
   5  -4  -8    1.50    0.34
   5   4  -8    0.95    0.28
  -5   4   8    1.55    0.33
   4  -4  -8    0.72    0.24
  -4   4   8    0.72    0.23
   4   4  -8    0.74    0.26
   3  -4  -8    4.19    0.49
   3   4  -8    4.07    0.50
   2  -4  -8    4.88    0.54
   2   4  -8    4.72    0.53
   1  -4  -8    0.93    0.27
   1   4  -8    0.81    0.27
   0  -4  -8    0.96    0.28
   0   4  -8    1.01    0.33
   1  -4   8    1.18    0.33
  -1  -4  -8    1.76    0.39
  -1   4  -8    1.65    0.38
  -2  -4  -8    1.58    0.36
   2  -4   8    2.08    0.42
  -2   4  -8    2.65    0.48
  -3  -4  -8    1.70    0.39
  -3   4  -8    1.25    0.39
 -10  -5   8   -0.18    0.22
 -10   5   8    0.28    0.30
  -9  -5   8    0.23    0.23
   9  -5  -8    0.05    0.21
  -9   5   8    0.41    0.24
   8  -5  -8    0.57    0.27
  -8  -5   8    1.11    0.31
  -8   5   8    0.48    0.24
  -7  -5   8    0.53    0.26
   7  -5  -8    0.73    0.26
  -7   5   8    0.66    0.25
   6  -5  -8    0.51    0.24
   6   5  -8    0.60    0.23
  -6   5   8    0.17    0.17
   5  -5  -8    0.03    0.20
  -5   5   8    0.32    0.22
   5   5  -8   -0.23    0.11
   4  -5  -8    1.47    0.34
   4   5  -8    2.10    0.37
  -4   5   8    1.49    0.30
   3  -5  -8    7.93    0.58
  -3   5   8    7.39    0.54
   3   5  -8    8.90    0.60
   2  -5  -8    0.42    0.22
   2   5  -8    0.64    0.24
   1  -5  -8    0.14    0.21
   1   5  -8    0.48    0.24
   0  -5  -8    0.81    0.30
   0   5  -8    0.87    0.31
   1  -5   8    0.40    0.25
  -1  -5  -8    1.02    0.31
  -1   5  -8    0.93    0.32
  -2  -5  -8    0.37    0.25
   2  -5   8    0.26    0.19
  -2   5  -8    0.18    0.23
  -3  -5  -8   12.12    0.78
  -3   5  -8   12.26    0.87
 -10  -6   8    0.88    0.30
 -10   6   8    0.66    0.29
  -9  -6   8    0.91    0.30
   9  -6  -8    0.78    0.27
  -9   6   8    0.97    0.31
   8  -6  -8    0.03    0.16
  -8   6   8    0.02    0.18
   7  -6  -8    0.29    0.23
  -7   6   8    0.19    0.21
   6  -6  -8    0.15    0.21
   6   6  -8    0.08    0.16
  -6   6   8    0.33    0.23
   5  -6  -8    0.13    0.22
   5   6  -8    0.16    0.15
  -5   6   8    0.35    0.20
   4  -6  -8    4.80    0.55
  -4   6   8    4.97    0.54
   4   6  -8    5.31    0.54
   3  -6  -8    0.21    0.19
  -3   6   8    0.10    0.18
   3   6  -8    0.28    0.19
   2  -6  -8    1.58    0.33
   2   6  -8    1.72    0.36
   1  -6  -8    0.50    0.24
   1   6  -8    0.76    0.29
   0  -6  -8    0.37    0.25
   0  -6   8    0.31    0.24
   0   6  -8    0.12    0.25
   1  -6   8    0.61    0.27
  -1  -6  -8    1.11    0.30
  -1   6  -8    0.42    0.25
   2  -6   8    1.94    0.41
  -2  -6  -8    1.85    0.38
  -2   6  -8    2.28    0.45
  -3  -6  -8    1.05    0.32
  -3   6  -8    0.85    0.34
  10  -7  -8    0.35    0.25
 -10   7   8    0.49    0.27
   9  -7  -8    0.17    0.20
  -9   7   8    1.24    0.35
   8  -7  -8    1.93    0.38
  -8   7   8    0.84    0.30
   7  -7  -8    0.46    0.28
  -7   7   8    1.00    0.30
   6  -7  -8    0.12    0.23
  -6   7   8   -0.17    0.18
   5  -7  -8    3.13    0.48
  -5   7   8    2.97    0.44
   5   7  -8    2.86    0.40
   4  -7  -8   -0.02    0.22
   4   7  -8    0.87    0.28
  -4   7   8    0.70    0.24
   3  -7  -8    1.37    0.34
   3   7  -8    1.39    0.31
  -3   7   8    1.03    0.26
   2  -7  -8    0.04    0.24
   2   7  -8    0.18    0.22
   1  -7  -8    1.18    0.32
   1   7  -8    1.13    0.33
   0  -7   8    1.20    0.34
   0  -7  -8    1.00    0.29
   0   7  -8    0.41    0.28
  -1  -7  -8    0.95    0.20
   1  -7   8    0.39    0.27
  -1  -7  -8    0.74    0.28
  -1   7  -8    0.45    0.29
  -2  -7  -8    1.74    0.36
   2  -7   8    1.61    0.37
  -2  -7  -8    1.45    0.27
  -2   7  -8    1.13    0.37
   3  -7   8    0.80    0.33
  -3  -7  -8    1.20    0.32
  -3   7  -8    1.12    0.38
  10  -8  -8   -0.03    0.17
 -10   8   8    0.10    0.27
   9  -8  -8    0.60    0.23
  -9   8   8    0.97    0.32
   8  -8  -8    1.23    0.34
  -8   8   8    1.09    0.35
   7  -8  -8    2.12    0.40
  -7   8   8    2.40    0.45
   6  -8  -8    0.72    0.26
  -6   8   8    0.58    0.24
   5  -8  -8    0.04    0.21
  -5   8   8   -0.04    0.14
   5   8  -8    0.44    0.20
   4  -8  -8    0.14    0.24
   4   8  -8    0.26    0.20
  -4   8   8   -0.21    0.15
   3  -8  -8    0.14    0.23
   3   8  -8    0.05    0.16
  -3   8   8    0.35    0.19
   2  -8  -8    2.05    0.40
   2   8  -8    2.90    0.42
   1  -8  -8    0.33    0.24
   1   8  -8    0.78    0.27
   0  -8   8    0.32    0.23
   0  -8  -8    0.70    0.27
   0  -8  -8    1.19    0.20
   0   8  -8    0.63    0.31
  -1  -8  -8    1.11    0.22
   1  -8   8    1.15    0.34
  -1  -8  -8    0.73    0.30
  -1   8  -8    0.20    0.20
  -2  -8  -8    1.05    0.31
  -2  -8  -8    1.53    0.28
   2  -8   8    1.15    0.34
  -2   8  -8    0.80    0.33
   3  -8   8    0.41    0.30
  -3  -8  -8    1.07    0.33
  -3  -8  -8    0.98    0.26
  -3   8  -8    0.58    0.31
  -9  -9   8    0.43    0.23
   9  -9  -8   -0.07    0.17
  -9   9   8    0.80    0.32
   8  -9  -8   -0.25    0.18
  -8  -9   8   -0.16    0.17
  -8   9   8   -0.34    0.20
   7  -9  -8    0.44    0.24
  -7   9   8    0.26    0.22
   6  -9  -8    3.59    0.53
  -6   9   8    3.83    0.51
   5  -9  -8    0.67    0.29
  -5   9   8    0.25    0.19
   4  -9  -8    0.41    0.25
   4   9  -8    0.39    0.21
  -4   9   8    0.26    0.18
   3  -9  -8    0.16    0.19
  -3   9   8    0.37    0.19
   3   9  -8    0.21    0.19
   2  -9  -8    2.49    0.43
   2   9  -8    3.47    0.49
  -1  -9   8   -0.47    0.18
   1  -9  -8    0.24    0.21
   1   9  -8    0.15    0.24
   0  -9  -8    0.86    0.30
   0  -9   8    1.54    0.39
   0  -9  -8    1.16    0.30
   0   9  -8    0.39    0.27
   1  -9   8    2.28    0.47
  -1  -9  -8    2.94    0.34
  -1  -9  -8    1.99    0.38
  -1   9  -8    2.38    0.46
   2  -9   8    0.54    0.27
  -2  -9  -8    0.56    0.25
  -2  -9  -8    0.73    0.20
  -2   9  -8    0.23    0.26
  -9 -10   8   -0.07    0.18
   9 -10  -8    0.31    0.24
  -9  10   8   -0.04    0.20
  -8 -10   8    1.12    0.27
   8 -10  -8    0.82    0.31
  -8  10   8    0.62    0.27
   7 -10  -8   -0.05    0.22
  -7  10   8    0.27    0.24
   6 -10  -8    1.82    0.39
  -6  10   8    1.46    0.33
   5 -10  -8    2.30    0.45
  -5  10   8    2.40    0.43
   4 -10  -8    0.03    0.19
   4  10  -8    0.35    0.23
  -4  10   8    0.09    0.17
   3 -10  -8    2.46    0.44
   3  10  -8    1.75    0.36
   2 -10  -8    1.34    0.35
   2  10  -8    2.09    0.39
   1 -10  -8    1.38    0.35
  -1 -10   8    1.10    0.35
   1  10  -8    0.64    0.28
   0 -10   8    1.95    0.45
   0 -10  -8    0.77    0.28
   0 -10  -8    1.24    0.31
   0  10  -8    0.66    0.28
   1 -10   8    0.83    0.33
  -1 -10  -8    0.16    0.20
  -1 -10  -8    0.95    0.22
  -1  10  -8    0.78    0.32
  -2 -10  -8    1.53    0.33
   2 -10   8    1.30    0.38
  -2  10  -8    1.96    0.43
  -9 -11   8    0.38    0.22
   9 -11  -8    0.03    0.20
  -9  11   8    0.46    0.24
  -8 -11   8    2.49    0.37
   8 -11  -8    0.89    0.30
  -8  11   8    1.08    0.36
   7 -11  -8    0.68    0.30
  -7  11   8    0.11    0.21
   6 -11  -8    1.85    0.42
  -6  11   8    1.72    0.37
   5 -11  -8    0.68    0.29
  -5  11   8    0.27    0.24
   4 -11  -8    0.72    0.33
  -4  11   8    1.32    0.32
   3 -11  -8    0.84    0.30
   3  11  -8    0.47    0.25
  -2 -11   8    1.09    0.38
   2 -11  -8    0.82    0.32
   2  11  -8    1.24    0.32
  -1 -11   8    0.70    0.31
   1 -11  -8    0.32    0.23
   1  11  -8    0.19    0.19
   0 -11   8    1.10    0.35
   0 -11  -8    0.87    0.29
   0 -11  -8    0.46    0.28
   0  11  -8    0.88    0.30
  -1 -11  -8    0.84    0.27
  -1 -11  -8    1.62    0.23
   1 -11   8    0.14    0.24
  -1  11  -8    1.09    0.34
  -2 -11  -8    1.00    0.22
  -2 -11  -8    0.21    0.24
   2 -11   8    0.01    0.23
  -2  11  -8    0.67    0.32
   8 -12  -8    0.75    0.29
  -8  12   8    0.79    0.29
   7 -12  -8    0.42    0.29
  -7  12   8    0.72    0.26
   6 -12  -8    1.07    0.35
  -6  12   8    1.02    0.32
   5 -12  -8    0.08    0.20
  -5  12   8    0.06    0.15
   4 -12  -8    0.35    0.26
   3 -12  -8    2.35    0.45
  -2 -12   8    0.00    0.19
   2 -12  -8    0.06    0.22
   2  12  -8   -0.15    0.19
   1 -12  -8    1.36    0.34
  -1 -12   8    1.77    0.44
   1  12  -8    1.32    0.31
   0 -12  -8    2.27    0.43
   0 -12   8    2.53    0.49
   0  12  -8    1.15    0.32
  -1 -12  -8    0.40    0.23
   1 -12   8    0.12    0.22
  -1 -12  -8    0.31    0.23
  -1  12  -8    0.20    0.20
   8 -13  -8   -0.04    0.19
  -8  13   8    0.05    0.16
   7 -13  -8    0.09    0.21
  -7  13   8   -0.02    0.18
   6 -13  -8    0.16    0.25
  -6  13   8    0.15    0.18
   5 -13  -8    1.18    0.37
   4 -13  -8    0.97    0.34
  -3 -13   8    0.05    0.23
   3 -13  -8    0.34    0.26
   2 -13  -8    1.09    0.35
  -2 -13   8    0.93    0.36
   2  13  -8    0.49    0.22
  -1 -13   8    0.30    0.28
   1 -13  -8    0.22    0.25
   1  13  -8    0.15    0.21
   0 -13  -8    0.23    0.23
   0 -13   8    0.26    0.24
   0  13  -8   -0.42    0.16
   1 -13   8    0.67    0.33
  -1 -13  -8   -0.26    0.23
  -1 -13  -8    0.45    0.24
  -1  13  -8    0.12    0.19
   7 -14  -8    0.56    0.26
  -7  14   8    0.00    0.16
   6 -14  -8    0.01    0.23
  -6  14   8    0.01    0.18
   5 -14  -8    0.30    0.30
  -4 -14   8    0.34    0.26
   4 -14  -8    0.49    0.28
   3 -14  -8    0.64    0.34
  -3 -14   8    1.32    0.40
  -2 -14   8    0.07    0.25
   2 -14  -8    0.06    0.24
  -1 -14   8    0.89    0.35
   1 -14  -8    0.92    0.33
   1  14  -8    0.64    0.26
   0 -14   8    0.38    0.31
   0 -14  -8    0.16    0.22
   0  14  -8    0.22    0.25
   6 -15  -8   -0.02    0.23
   5 -15  -8    0.26    0.29
  -5 -15   8    0.24    0.27
   4 -15  -8    0.97    0.34
  -4 -15   8    1.27    0.37
  -3 -15   8   -0.37    0.22
   3 -15  -8   -0.08    0.23
   2 -15  -8    1.34    0.38
  -2 -15   8    1.74    0.45
   1 -15  -8    3.49    0.50
  -1 -15   8    2.74    0.57
  -4 -16   8    0.55    0.34
   4 -16  -8    0.41    0.30
   3 -16  -8    0.05    0.24
  -3 -16   8   -0.26    0.23
 -10   0   9   -0.07    0.23
  -9   0   9   -0.36    0.16
   8   0  -9    0.03    0.20
  -8   0   9   -0.08    0.21
   7   0  -9    0.54    0.26
  -7   0   9    0.99    0.30
   6   0  -9    0.08    0.20
  -6   0   9    0.06    0.17
   5   0  -9   10.28    0.71
   4   0  -9   -0.11    0.20
   3   0  -9    1.05    0.31
   2   0  -9   -0.17    0.20
   1   0  -9   11.57    0.78
   0   0  -9    0.19    0.24
  -1   0  -9    1.97    0.43
  -2   0  -9    0.20    0.26
 -10  -1   9    0.62    0.31
 -10   1   9    0.64    0.34
  -9  -1   9    0.58    0.31
  -9   1   9    0.54    0.26
  -8  -1   9   -0.11    0.19
   8  -1  -9   -0.09    0.18
  -8   1   9    0.62    0.27
   8   1  -9   -0.01    0.19
   7  -1  -9    0.17    0.20
  -7  -1   9   -0.01    0.22
   7   1  -9   -0.08    0.16
  -7   1   9    0.23    0.20
  -6  -1   9    4.65    0.57
   6  -1  -9    5.52    0.60
   6   1  -9    4.45    0.52
  -6   1   9    5.56    0.62
   5  -1  -9    3.44    0.50
  -5   1   9    3.45    0.48
   5   1  -9    3.56    0.50
   4  -1  -9    4.31    0.54
   4   1  -9    4.03    0.52
   3  -1  -9    0.43    0.24
   3   1  -9    0.99    0.29
   2  -1  -9    0.54    0.25
   2   1  -9    0.31    0.26
   1  -1  -9    3.20    0.48
   1   1  -9    4.51    0.57
   0  -1  -9    0.03    0.21
   0   1  -9   -0.02    0.22
  -1  -1  -9    2.16    0.44
  -1   1  -9    3.33    0.53
  -2  -1  -9    2.19    0.48
  -2   1  -9    1.51    0.42
 -10  -2   9    0.07    0.21
 -10   2   9    0.46    0.27
   9  -2  -9    1.94    0.38
  -9  -2   9    1.48    0.38
  -9   2   9    0.95    0.35
   8  -2  -9    1.81    0.38
  -8  -2   9    1.69    0.40
  -8   2   9    2.62    0.47
   7  -2  -9   -0.04    0.15
  -7  -2   9    0.33    0.25
  -7   2   9   -0.27    0.15
   7   2  -9    0.73    0.24
   6  -2  -9    1.32    0.33
  -6   2   9    1.43    0.35
   6   2  -9    1.52    0.33
   5  -2  -9    5.58    0.63
  -5   2   9    6.32    0.64
   5   2  -9    7.28    0.57
   4  -2  -9    3.43    0.49
   4   2  -9    2.91    0.45
   3  -2  -9    4.16    0.54
   3   2  -9    4.36    0.56
   2  -2  -9    0.31    0.25
   2   2  -9    0.19    0.24
   1  -2  -9    5.39    0.60
   1   2  -9    5.09    0.61
   0  -2  -9    0.81    0.33
   0   2  -9    1.07    0.31
  -1  -2  -9    3.05    0.51
   1  -2   9    3.05    0.49
  -1   2  -9    3.65    0.59
  -2  -2  -9    1.55    0.39
  -2   2  -9    1.28    0.41
 -10  -3   9   -0.15    0.23
 -10   3   9    0.06    0.19
  -9  -3   9    0.35    0.29
   9  -3  -9    0.55    0.25
  -9   3   9    0.54    0.26
   8  -3  -9   -0.03    0.19
  -8  -3   9    0.15    0.22
  -8   3   9    0.44    0.23
  -7  -3   9    0.12    0.21
   7  -3  -9    0.34    0.25
  -7   3   9    0.43    0.24
   7   3  -9    0.16    0.18
   6  -3  -9   10.16    0.71
  -6   3   9   10.06    0.71
   6   3  -9    7.98    0.61
   5  -3  -9    8.03    0.63
  -5   3   9    9.04    0.65
   5   3  -9    8.26    0.63
   4  -3  -9    0.25    0.23
   4   3  -9    0.18    0.24
   3  -3  -9    0.23    0.22
   3   3  -9    0.66    0.27
   2  -3  -9    1.50    0.37
   2   3  -9    1.74    0.39
   1  -3  -9    2.94    0.48
   1   3  -9    2.02    0.41
   0  -3  -9    0.61    0.29
   0   3  -9    0.60    0.28
  -1  -3  -9    4.88    0.62
   1  -3   9    5.21    0.62
  -1   3  -9    5.09    0.65
  -2  -3  -9    0.79    0.32
  -2   3  -9    0.76    0.34
 -10  -4   9    0.42    0.27
 -10   4   9    0.13    0.23
   9  -4  -9    0.44    0.24
  -9  -4   9    0.18    0.27
  -9   4   9    0.87    0.32
  -8  -4   9    0.77    0.32
   8  -4  -9    0.94    0.29
  -8   4   9    1.35    0.35
   7  -4  -9    4.05    0.55
   7   4  -9    2.76    0.42
  -7   4   9    3.94    0.54
   6  -4  -9    0.77    0.27
   6   4  -9    0.69    0.28
  -6   4   9    0.80    0.29
   5  -4  -9    0.85    0.28
  -5   4   9    0.79    0.30
   5   4  -9    0.83    0.27
   4  -4  -9    4.09    0.54
   4   4  -9    3.10    0.48
  -4   4   9    4.03    0.51
   3  -4  -9    2.15    0.40
   3   4  -9    1.96    0.38
   2  -4  -9    0.22    0.26
   2   4  -9    0.76    0.28
   1  -4  -9    1.48    0.38
   1   4  -9    0.80    0.30
   0  -4  -9    0.31    0.27
   0   4  -9    0.17    0.22
   1  -4   9    9.41    0.87
  -1  -4  -9    8.82    0.69
  -1   4  -9    9.57    0.75
  -2  -4  -9    1.80    0.42
  -2   4  -9    1.84    0.44
 -10  -5   9    0.23    0.21
 -10   5   9    0.75    0.33
   9  -5  -9    0.59    0.24
  -9  -5   9    0.54    0.30
  -9   5   9    0.27    0.23
   8  -5  -9    0.23    0.23
  -8   5   9    0.13    0.24
   7  -5  -9    1.79    0.38
  -7   5   9    2.19    0.43
   6  -5  -9    0.55    0.28
  -6   5   9    0.38    0.25
   6   5  -9    0.56    0.23
   5  -5  -9    0.03    0.19
  -5   5   9    0.33    0.22
   5   5  -9    0.31    0.22
   4  -5  -9    3.71    0.52
   4   5  -9    3.52    0.48
  -4   5   9    2.50    0.41
   3  -5  -9    1.21    0.34
   3   5  -9    0.91    0.30
   2  -5  -9    0.00    0.22
   2   5  -9    0.22    0.20
   1  -5  -9    1.01    0.32
   1   5  -9    1.03    0.34
   0  -5   9    2.64    0.50
   0  -5  -9    2.52    0.45
   0   5  -9    2.54    0.47
   1  -5   9    0.60    0.31
  -1  -5  -9    0.42    0.29
  -1   5  -9    0.72    0.34
  -2  -5  -9    3.76    0.54
  -2   5  -9    3.06    0.53
  10  -6  -9    0.62    0.27
 -10   6   9    0.44    0.29
   9  -6  -9    0.02    0.21
  -9   6   9    0.40    0.25
   8  -6  -9   -0.07    0.21
  -8   6   9    0.15    0.22
   7  -6  -9    0.82    0.32
  -7   6   9    1.43    0.35
   6  -6  -9    0.17    0.22
   6   6  -9    0.34    0.19
  -6   6   9    0.03    0.18
   5  -6  -9    4.63    0.58
  -5   6   9    3.79    0.52
   5   6  -9    3.19    0.47
   4  -6  -9    2.46    0.43
  -4   6   9    2.92    0.43
   4   6  -9    3.46    0.49
   3  -6  -9    2.05    0.40
   3   6  -9    3.52    0.51
   2  -6  -9    0.99    0.33
   2   6  -9    1.25    0.37
   1  -6  -9   -0.21    0.15
   1   6  -9    0.20    0.25
   0  -6  -9    1.79    0.37
   0  -6   9    2.47    0.47
   0   6  -9    0.97    0.35
  -1  -6  -9    3.64    0.55
   1  -6   9    5.48    0.67
  -1   6  -9    3.96    0.60
  -2  -6  -9    0.75    0.30
  -2   6  -9    1.78    0.45
   9  -7  -9    0.21    0.19
  -9   7   9   -0.43    0.14
   8  -7  -9   -0.09    0.21
  -8   7   9    0.19    0.23
   7  -7  -9    0.38    0.27
  -7   7   9    0.34    0.22
   6  -7  -9    0.40    0.22
  -6   7   9    0.96    0.33
   5  -7  -9    0.70    0.30
  -5   7   9    0.67    0.27
   5   7  -9    0.48    0.25
   4  -7  -9    0.69    0.27
  -4   7   9    0.74    0.23
   4   7  -9    0.61    0.26
   3  -7  -9    2.35    0.42
   3   7  -9    1.10    0.35
   2  -7  -9    0.12    0.23
   2   7  -9    0.77    0.28
   1  -7  -9   -0.06    0.22
   1   7  -9   -0.30    0.20
   0  -7  -9    1.54    0.37
   0  -7   9    0.76    0.33
   0   7  -9    1.02    0.33
  -1  -7  -9    6.71    0.70
   1  -7   9    7.25    0.79
  -1   7  -9    6.76    0.75
   2  -7   9    3.83    0.60
  -2  -7  -9    2.53    0.45
  -2   7  -9    2.50    0.50
   9  -8  -9    1.68    0.42
  -9   8   9    0.97    0.34
   8  -8  -9    0.40    0.23
  -8   8   9    0.47    0.23
   7  -8  -9    0.54    0.24
  -7   8   9    0.22    0.21
   6  -8  -9   -0.21    0.17
  -6   8   9    0.17    0.24
   5  -8  -9    0.06    0.21
   5   8  -9    0.18    0.20
  -5   8   9    0.69    0.26
   4  -8  -9    0.96    0.33
   4   8  -9    0.49    0.26
  -4   8   9    1.02    0.29
   3  -8  -9    0.37    0.30
   3   8  -9    0.61    0.26
   2  -8  -9    0.08    0.21
   2   8  -9    0.25    0.23
   1  -8  -9    2.60    0.46
  -1  -8   9    1.72    0.41
   1   8  -9    1.44    0.37
   0  -8  -9    1.34    0.37
   0  -8   9    0.63    0.30
   0   8  -9    0.97    0.35
  -1  -8  -9    0.18    0.25
   1  -8   9    0.25    0.25
  -1   8  -9    0.05    0.24
   9  -9  -9    1.04    0.35
  -9   9   9    0.87    0.32
   8  -9  -9    3.39    0.56
  -8   9   9    3.83    0.56
   7  -9  -9    1.20    0.34
  -7   9   9    1.31    0.37
   6  -9  -9    1.51    0.38
  -6   9   9    0.61    0.28
   5  -9  -9   -0.17    0.18
  -5   9   9   -0.03    0.19
   4  -9  -9   -0.03    0.19
  -4   9   9    0.09    0.15
   4   9  -9    0.32    0.24
   3  -9  -9    2.21    0.43
   3   9  -9    1.32    0.34
   2  -9  -9    0.59    0.29
   2   9  -9    0.62    0.26
  -1  -9   9    1.20    0.37
   1  -9  -9    1.71    0.40
   1   9  -9    1.15    0.34
   0  -9  -9    0.99    0.33
   0  -9   9    2.45    0.50
   0   9  -9    1.57    0.40
  -1  -9  -9    0.41    0.25
   1  -9   9    0.26    0.26
  -1   9  -9    0.39    0.27
   8 -10  -9    1.93    0.45
  -8  10   9    1.29    0.38
   7 -10  -9    4.12    0.62
  -7  10   9    5.08    0.64
   6 -10  -9    1.44    0.37
  -6  10   9    1.67    0.39
   5 -10  -9    4.17    0.59
  -5  10   9    4.97    0.59
   4 -10  -9    0.91    0.34
   4  10  -9    1.10    0.33
   3 -10  -9   -0.10    0.18
   3  10  -9    0.47    0.24
   2 -10  -9    1.65    0.39
   2  10  -9    1.60    0.39
   1 -10  -9    0.78    0.30
  -1 -10   9    1.08    0.37
   1  10  -9    0.50    0.25
   0 -10  -9    0.32    0.24
   0 -10   9   -0.17    0.23
   0  10  -9   -0.11    0.22
   8 -11  -9    0.06    0.23
  -8  11   9    0.47    0.23
   7 -11  -9    4.39    0.65
  -7  11   9    5.07    0.64
   6 -11  -9    0.23    0.22
  -6  11   9    0.34    0.23
   5 -11  -9    2.69    0.50
  -5  11   9    1.76    0.39
   4 -11  -9   -0.10    0.23
   3 -11  -9    1.80    0.42
   3  11  -9    2.49    0.43
  -2 -11   9    0.98    0.38
   2 -11  -9    1.33    0.37
   2  11  -9    0.68    0.26
  -1 -11   9    1.50    0.40
   1 -11  -9    1.21    0.36
   1  11  -9    1.46    0.39
   0 -11   9    0.24    0.27
   0 -11  -9    0.60    0.27
   0  11  -9    0.42    0.27
   7 -12  -9    0.18    0.26
  -7  12   9    0.15    0.16
   6 -12  -9    2.39    0.48
  -6  12   9    2.97    0.47
   5 -12  -9    0.94    0.33
   4 -12  -9    0.93    0.36
   3 -12  -9    2.88    0.49
  -2 -12   9    1.25    0.39
   2 -12  -9    0.79    0.34
   2  12  -9    1.31    0.34
  -1 -12   9   -0.08    0.26
   1 -12  -9   -0.21    0.17
   1  12  -9    0.31    0.25
   6 -13  -9    0.21    0.25
   5 -13  -9    0.43    0.33
   4 -13  -9    2.22    0.46
   3 -13  -9    1.97    0.44
  -3 -13   9    1.59    0.41
  -2 -13   9   -0.10    0.23
   2 -13  -9    0.41    0.25
   1 -13  -9    0.36    0.27
  -1 -13   9   -0.03    0.27
   1  13  -9    0.69    0.26
   5 -14  -9    0.00    0.22
   4 -14  -9    0.58    0.32
  -4 -14   9    0.19    0.31
  -3 -14   9    1.14    0.41
   3 -14  -9    0.71    0.33
 -10   0  10    1.16    0.37
  -9   0  10   -0.21    0.23
   8   0 -10    3.55    0.52
  -8   0  10    3.92    0.56
   7   0 -10    0.03    0.21
  -7   0  10   -0.10    0.17
   6   0 -10    1.32    0.35
   5   0 -10   -0.18    0.18
   4   0 -10    0.24    0.27
   3   0 -10    0.00    0.22
   2   0 -10    0.16    0.25
   1   0 -10   -0.16    0.17
   0   0 -10   -0.06    0.19
  -1   0 -10    0.03    0.24
 -10  -1  10    0.91    0.33
 -10   1  10    0.46    0.28
  -9  -1  10   -0.03    0.20
  -9   1  10   -0.04    0.20
   8  -1 -10    3.13    0.50
  -8  -1  10    2.34    0.48
   8   1 -10    2.47    0.43
  -8   1  10    3.44    0.54
  -7  -1  10    2.31    0.43
   7  -1 -10    2.19    0.45
   7   1 -10    2.77    0.47
  -7   1  10    2.42    0.45
   6  -1 -10    2.64    0.47
   6   1 -10    2.26    0.44
  -6   1  10    2.38    0.44
   5  -1 -10    0.50    0.26
   5   1 -10    0.57    0.29
   4  -1 -10    0.24    0.21
   4   1 -10    0.99    0.33
   3  -1 -10    3.83    0.56
   3   1 -10    3.38    0.53
   2  -1 -10    0.26    0.22
   2   1 -10    0.27    0.25
   1  -1 -10    1.13    0.40
   1   1 -10    0.53    0.29
   0  -1 -10    0.14    0.29
   0   1 -10    0.36    0.30
  -1  -1 -10    0.25    0.31
  -1   1 -10    1.09    0.43
   9  -2 -10    0.38    0.26
  -9  -2  10    0.30    0.32
  -9   2  10    0.64    0.31
  -8  -2  10    0.61    0.31
   8  -2 -10    0.47    0.27
  -8   2  10    0.24    0.23
   7  -2 -10    7.32    0.74
  -7   2  10    6.45    0.70
   7   2 -10    7.08    0.69
   6  -2 -10    6.13    0.68
   6   2 -10    6.31    0.68
  -6   2  10    6.63    0.72
   5  -2 -10    4.86    0.60
   5   2 -10    4.27    0.57
   4  -2 -10    0.47    0.26
   4   2 -10    0.43    0.25
   3  -2 -10    4.17    0.57
   3   2 -10    4.25    0.59
   2  -2 -10    0.03    0.20
   2   2 -10   -0.09    0.18
   1  -2 -10    1.94    0.42
   1   2 -10    2.51    0.49
   0  -2 -10    2.18    0.47
   0   2 -10    1.40    0.37
  -1  -2 -10    0.26    0.29
  -1   2 -10   -0.09    0.27
  -9  -3  10    0.63    0.32
   9  -3 -10    0.65    0.30
  -9   3  10    0.94    0.35
   8  -3 -10    2.18    0.43
  -8   3  10    1.68    0.41
   7  -3 -10    3.15    0.51
   7   3 -10    3.20    0.48
  -7   3  10    2.60    0.47
   6  -3 -10    4.00    0.56
  -6   3  10    3.71    0.55
   6   3 -10    4.29    0.55
   5  -3 -10    2.89    0.47
   5   3 -10    4.40    0.57
   4  -3 -10    0.36    0.25
   4   3 -10   -0.15    0.21
   3  -3 -10    0.91    0.36
   3   3 -10    0.89    0.34
   2  -3 -10    0.30    0.27
   2   3 -10    0.21    0.27
   1  -3 -10    1.44    0.42
   1   3 -10    1.20    0.39
   0  -3 -10    2.73    0.52
   0  -3  10    2.02    0.44
   0   3 -10    1.76    0.43
  -1  -3 -10    0.62    0.32
  -1   3 -10    0.03    0.22
   9  -4 -10    0.40    0.23
  -9   4  10    0.61    0.31
   8  -4 -10    2.22    0.46
  -8   4  10    2.73    0.49
   7  -4 -10    0.88    0.30
  -7   4  10    1.05    0.32
   7   4 -10    0.83    0.28
   6  -4 -10    0.94    0.32
  -6   4  10    0.82    0.29
   6   4 -10    1.19    0.34
   5  -4 -10    0.22    0.22
   5   4 -10    0.09    0.20
   4  -4 -10    3.43    0.54
   4   4 -10    2.53    0.46
   3  -4 -10    2.79    0.47
   3   4 -10    3.05    0.52
   2  -4 -10    0.16    0.28
   2   4 -10    0.03    0.20
   1  -4 -10    1.07    0.34
   1   4 -10    0.27    0.24
   0  -4  10   -0.16    0.22
   0  -4 -10    0.47    0.26
   0   4 -10    0.30    0.29
  -1  -4 -10    2.27    0.48
  -1   4 -10    1.88    0.46
   9  -5 -10    1.24    0.35
  -9   5  10    1.45    0.42
   8  -5 -10    1.27    0.35
  -8   5  10    1.37    0.39
   7  -5 -10    1.43    0.36
  -7   5  10    1.97    0.41
   6  -5 -10    0.60    0.27
   6   5 -10    0.05    0.19
  -6   5  10   -0.26    0.13
   5  -5 -10    5.23    0.64
   5   5 -10    4.45    0.55
  -5   5  10    5.51    0.64
   4  -5 -10    2.16    0.42
   4   5 -10    1.98    0.38
   3  -5 -10    0.77    0.31
   3   5 -10    1.25    0.36
   2  -5 -10    1.75    0.41
   2   5 -10    1.52    0.38
   1  -5 -10    8.59    0.84
   1   5 -10    9.29    0.75
   0  -5 -10    2.13    0.46
   0  -5  10    2.33    0.48
   0   5 -10    2.69    0.51
   9  -6 -10   -0.03    0.16
  -9   6  10    0.41    0.28
   8  -6 -10    0.32    0.21
  -8   6  10    1.06    0.36
   7  -6 -10    0.40    0.24
  -7   6  10    0.37    0.28
   6  -6 -10    2.81    0.48
   6   6 -10    3.08    0.47
  -6   6  10    2.30    0.43
   5  -6 -10    0.44    0.24
   5   6 -10    0.47    0.23
  -5   6  10   -0.13    0.21
   4  -6 -10    0.04    0.18
   4   6 -10   -0.16    0.18
   3  -6 -10    0.74    0.31
   3   6 -10    0.25    0.24
   2  -6 -10    0.50    0.30
   2   6 -10    0.87    0.31
   1  -6 -10    0.37    0.31
   1   6 -10    0.65    0.33
   0  -6 -10    4.70    0.63
   0  -6  10    3.99    0.61
   0   6 -10    3.30    0.56
   9  -7 -10   -0.48    0.20
  -9   7  10    0.24    0.20
   8  -7 -10   -0.17    0.21
  -8   7  10    0.21    0.24
   7  -7 -10    0.38    0.27
  -7   7  10   -0.20    0.18
   6  -7 -10    2.08    0.45
  -6   7  10    3.25    0.52
   5  -7 -10    0.07    0.19
   5   7 -10    0.68    0.27
  -5   7  10   -0.10    0.17
   4  -7 -10   -0.05    0.21
   4   7 -10    0.74    0.31
   3  -7 -10    1.99    0.45
   3   7 -10    2.07    0.43
   2  -7 -10    0.21    0.24
   2   7 -10    0.60    0.32
   1  -7 -10    1.20    0.38
  -1  -7  10    1.16    0.38
   1   7 -10    0.87    0.35
   0  -7 -10    3.77    0.58
   0  -7  10    4.51    0.66
   0   7 -10    4.56    0.66
   8  -8 -10    0.84    0.31
  -8   8  10    0.53    0.31
   7  -8 -10    2.75    0.50
  -7   8  10    2.36    0.47
   6  -8 -10   -0.11    0.18
  -6   8  10    0.23    0.23
   5  -8 -10    3.14    0.53
  -5   8  10    4.36    0.57
   5   8 -10    4.48    0.58
   4  -8 -10    0.32    0.30
   4   8 -10    0.93    0.30
   3  -8 -10    0.18    0.27
   3   8 -10    0.39    0.26
   2  -8 -10    4.06    0.60
   2   8 -10    5.23    0.67
   1  -8 -10    7.27    0.76
  -1  -8  10    6.47    0.78
   1   8 -10    6.17    0.74
   8  -9 -10    1.72    0.42
  -8   9  10    1.57    0.39
   7  -9 -10    2.54    0.49
  -7   9  10    4.13    0.61
   6  -9 -10    2.32    0.48
  -6   9  10    2.98    0.51
   5  -9 -10    1.24    0.36
  -5   9  10    2.21    0.40
   4  -9 -10    1.18    0.38
   4   9 -10    0.63    0.29
   3  -9 -10    2.69    0.52
   3   9 -10    3.59    0.55
   2  -9 -10    1.93    0.44
   2   9 -10    1.86    0.42
   1  -9 -10    0.09    0.23
  -1  -9  10    0.60    0.36
   1   9 -10    0.17    0.25
   7 -10 -10    1.57    0.45
  -7  10  10    2.26    0.45
   6 -10 -10    0.51    0.28
  -6  10  10    0.92    0.29
   5 -10 -10    5.64    0.70
   4 -10 -10    2.30    0.49
   3 -10 -10    1.78    0.46
   3  10 -10    1.66    0.36
  -2 -10  10    1.61    0.47
   2 -10 -10    1.30    0.40
   2  10 -10    1.30    0.33
   6 -11 -10    6.08    0.76
  -6  11  10    4.65    0.62
   5 -11 -10    2.25    0.47
   4 -11 -10    7.06    0.79
   3 -11 -10    0.05    0.25
   3  11 -10    0.57    0.26
   2 -11 -10    1.46    0.40
  -2 -11  10    2.01    0.46
   2  11 -10    2.37    0.46
   5 -12 -10    1.58    0.44
   4 -12 -10    1.57    0.45
  -8   0  11    0.09    0.26
   8   0 -11    0.30    0.21
   7   0 -11   -0.08    0.17
   6   0 -11   -0.39    0.17
   5   0 -11   -0.04    0.23
   4   0 -11   -0.06    0.20
   3   0 -11    5.09    0.66
   2   0 -11    0.25    0.24
   1   0 -11    0.27    0.29
   8  -1 -11    2.51    0.47
  -8   1  11    1.45    0.39
   8   1 -11    1.73    0.39
   7  -1 -11    0.74    0.29
   7   1 -11    0.01    0.19
   6  -1 -11    0.07    0.16
   6   1 -11   -0.03    0.20
   5  -1 -11    0.34    0.30
   5   1 -11    0.03    0.19
   4  -1 -11    0.72    0.31
   4   1 -11    0.31    0.26
   3  -1 -11    0.37    0.29
   3   1 -11    0.66    0.31
   2  -1 -11   -0.10    0.22
   2   1 -11   -0.28    0.21
   1  -1 -11    0.25    0.29
   1   1 -11    0.33    0.26
   8  -2 -11    0.05    0.21
  -8   2  11    0.29    0.23
   7  -2 -11    0.21    0.28
  -7   2  11    0.25    0.22
   7   2 -11    0.47    0.24
   6  -2 -11    0.22    0.23
   6   2 -11    0.65    0.29
   5  -2 -11    1.19    0.37
   5   2 -11    2.03    0.46
   4  -2 -11    0.50    0.32
   4   2 -11    1.17    0.38
   3  -2 -11    0.18    0.23
   3   2 -11    0.52    0.28
   2  -2 -11    1.98    0.46
   2   2 -11    1.47    0.39
   1  -2 -11    0.21    0.27
   1   2 -11    0.25    0.31
   8  -3 -11    0.74    0.26
  -8   3  11    0.53    0.27
   7  -3 -11    0.63    0.29
  -7   3  11    1.18    0.34
   7   3 -11    0.73    0.28
   6  -3 -11    0.39    0.30
   6   3 -11    0.92    0.33
   5  -3 -11   -0.35    0.16
   5   3 -11    0.40    0.25
   4  -3 -11    0.76    0.34
   4   3 -11    0.73    0.30
   3  -3 -11    0.42    0.28
   3   3 -11    0.68    0.29
   2  -3 -11    1.23    0.37
   2   3 -11    1.38    0.35
   1  -3 -11    1.62    0.44
   1   3 -11    1.95    0.46
   8  -4 -11    0.96    0.34
  -8   4  11    0.93    0.34
   7  -4 -11    0.24    0.28
  -7   4  11    0.42    0.26
   6  -4 -11   -0.25    0.15
   6   4 -11   -0.02    0.19
   5  -4 -11    0.80    0.33
   5   4 -11    0.77    0.29
   4  -4 -11    0.76    0.31
   4   4 -11    0.21    0.24
   3  -4 -11    0.57    0.33
   3   4 -11    0.87    0.35
   2  -4 -11    1.79    0.46
   2   4 -11    1.83    0.43
   8  -5 -11    0.09    0.24
  -8   5  11    0.32    0.23
   7  -5 -11    0.29    0.25
  -7   5  11   -0.08    0.21
   6  -5 -11    0.05    0.21
   6   5 -11    0.09    0.22
   5  -5 -11   -0.08    0.20
   5   5 -11    0.03    0.20
   4  -5 -11    0.69    0.30
   4   5 -11    0.33    0.26
   3  -5 -11    0.10    0.23
   3   5 -11   -0.10    0.18
   2  -5 -11    2.17    0.50
   2   5 -11    1.50    0.40
   7  -6 -11    1.21    0.35
  -7   6  11    1.45    0.37
   6  -6 -11    0.40    0.28
   6   6 -11    0.55    0.27
  -6   6  11    0.68    0.26
   5  -6 -11    0.46    0.29
   5   6 -11   -0.40    0.13
   4  -6 -11    0.03    0.22
   4   6 -11    0.03    0.21
   3  -6 -11   -0.20    0.25
   3   6 -11    0.40    0.24
   2  -6 -11    1.88    0.47
   2   6 -11    1.00    0.37
   7  -7 -11    1.25    0.40
  -7   7  11    0.62    0.27
   6  -7 -11    0.23    0.26
  -6   7  11    0.31    0.23
   5  -7 -11   -0.06    0.20
   5   7 -11   -0.30    0.20
   4  -7 -11   -0.23    0.21
   4   7 -11   -0.17    0.19
   3  -7 -11    1.38    0.43
   3   7 -11    0.72    0.32
   6  -8 -11   -0.12    0.24
  -6   8  11    0.03    0.19
   5  -8 -11    0.34    0.25
   4  -8 -11    0.46    0.34
   4   8 -11    0.27    0.26
   3  -8 -11    1.34    0.41
   3   8 -11    1.66    0.43
   6   0 -12    1.09    0.30
   5   0 -12   -0.04    0.25
   6  -1 -12    0.14    0.28
   6   1 -12   -0.20    0.18
   5  -1 -12    2.67    0.53
   5   1 -12    2.68    0.49
   5  -2 -12    0.55    0.32
   5   2 -12    0.38    0.26
   0   0   0    0.00    0.00
;
_shelx_hkl_checksum              58475
#END Tags that were not found in dictionaries
loop_
_space_group_symop_operation_xyz
'x, y, z'
'x+1/2, -y, z+1/2'
loop_
_atom_site_label
_atom_site_type_symbol
_atom_site_fract_x
_atom_site_fract_y
_atom_site_fract_z
_atom_site_U_iso_or_equiv
_atom_site_adp_type
_atom_site_occupancy
_atom_site_site_symmetry_order
_atom_site_calc_flag
_atom_site_refinement_flags_posn
_atom_site_refinement_flags_adp
N1 N 0.5891(3) 0.06462(13) -0.3846(3) 0.0279(4) Uani 1 1 d . .
N2 N 0.7725(3) 0.15110(13) -0.1315(2) 0.0232(4) Uani 1 1 d . .
N3 N 0.4645(3) 0.18195(13) -0.6257(3) 0.0254(4) Uani 1 1 d . .
N4 N 0.8402(3) 0.50841(15) -0.5054(3) 0.0344(5) Uani 1 1 d . .
O1 O 0.4052(3) 0.11913(12) -0.7440(2) 0.0351(4) Uani 1 1 d . .
O2 O 0.4291(3) 0.26465(12) -0.6654(3) 0.0396(5) Uani 1 1 d . .
O3 O 0.8221(4) 0.46622(15) -0.6454(3) 0.0532(6) Uani 1 1 d . .
O4 O 0.8841(4) 0.59081(13) -0.4785(3) 0.0561(6) Uani 1 1 d . .
C1 C 0.7063(3) 0.06418(15) -0.2024(3) 0.0276(5) Uani 1 1 d . .
H1 H 0.7415 0.0091 -0.1275 0.033 Uiso 1 1 calc R U
C2 C 0.6915(3) 0.21344(13) -0.2790(3) 0.0202(4) Uani 1 1 d . .
C3 C 0.5800(3) 0.15636(15) -0.4324(3) 0.0223(4) Uani 1 1 d . .
C4 C 0.9200(3) 0.16653(16) 0.0658(3) 0.0243(4) Uani 1 1 d . .
H4A H 0.9760 0.2302 0.0791 0.029 Uiso 1 1 calc R U
H4B H 1.0297 0.1212 0.1007 0.029 Uiso 1 1 calc R U
C5 C 0.8274(4) 0.15546(18) 0.1988(3) 0.0309(5) Uani 1 1 d . .
H5A H 0.7185 0.2013 0.1639 0.037 Uiso 1 1 calc R U
H5B H 0.7694 0.0922 0.1831 0.037 Uiso 1 1 calc R U
C6 C 0.9750(3) 0.16954(16) 0.4033(3) 0.0265(5) Uani 1 1 d . .
C7 C 1.0815(4) 0.25267(18) 0.4638(3) 0.0313(5) Uani 1 1 d . .
H7 H 1.0664 0.2995 0.3736 0.038 Uiso 1 1 calc R U
C8 C 1.2088(4) 0.2684(2) 0.6528(4) 0.0393(6) Uani 1 1 d . .
H8 H 1.2803 0.3254 0.6913 0.047 Uiso 1 1 calc R U
C9 C 1.2315(4) 0.2005(2) 0.7858(4) 0.0434(7) Uani 1 1 d . .
H9 H 1.3171 0.2113 0.9158 0.052 Uiso 1 1 calc R U
C10 C 1.1293(4) 0.1170(2) 0.7282(4) 0.0423(7) Uani 1 1 d . .
H10 H 1.1455 0.0702 0.8188 0.051 Uiso 1 1 calc R U
C11 C 1.0022(4) 0.10133(18) 0.5375(4) 0.0338(5) Uani 1 1 d . .
H11 H 0.9336 0.0436 0.4989 0.041 Uiso 1 1 calc R U
C12 C 0.7302(3) 0.31467(13) -0.2567(3) 0.0210(4) Uani 1 1 d . .
C13 C 0.7706(3) 0.36266(15) -0.3872(3) 0.0229(4) Uani 1 1 d . .
H13 H 0.7736 0.3309 -0.4905 0.027 Uiso 1 1 calc R U
C14 C 0.8063(3) 0.45765(15) -0.3630(3) 0.0250(4) Uani 1 1 d . .
C15 C 0.8084(4) 0.50717(15) -0.2133(3) 0.0277(5) Uani 1 1 d . .
H15 H 0.8358 0.5723 -0.1996 0.033 Uiso 1 1 calc R U
C16 C 0.7693(4) 0.45874(15) -0.0842(4) 0.0304(5) Uani 1 1 d . .
H16 H 0.7707 0.4907 0.0209 0.036 Uiso 1 1 calc R U
C17 C 0.7279(4) 0.36369(14) -0.1066(3) 0.0256(4) Uani 1 1 d . .
H17 H 0.6976 0.3317 -0.0185 0.031 Uiso 1 1 calc R U
loop_
_atom_site_aniso_label
_atom_site_aniso_U_11
_atom_site_aniso_U_22
_atom_site_aniso_U_33
_atom_site_aniso_U_23
_atom_site_aniso_U_13
_atom_site_aniso_U_12
N1 0.0335(10) 0.0192(8) 0.0224(10) -0.0010(7) 0.0053(8) -0.0001(7)
N2 0.0263(9) 0.0196(8) 0.0183(9) 0.0011(7) 0.0056(7) 0.0015(7)
N3 0.0253(9) 0.0263(9) 0.0190(9) 0.0016(7) 0.0054(7) -0.0010(7)
N4 0.0397(11) 0.0337(11) 0.0296(12) 0.0074(9) 0.0156(9) -0.0049(9)
O1 0.0432(10) 0.0322(8) 0.0196(8) -0.0042(7) 0.0055(7) -0.0049(8)
O2 0.0491(11) 0.0242(8) 0.0286(10) 0.0080(7) 0.0031(8) 0.0029(8)
O3 0.0829(17) 0.0529(13) 0.0335(12) -0.0005(10) 0.0350(11) -0.0171(12)
O4 0.0901(18) 0.0300(10) 0.0618(15) 0.0067(10) 0.0465(14) -0.0115(11)
C1 0.0338(12) 0.0167(9) 0.0222(11) 0.0014(8) 0.0040(9) 0.0010(9)
C2 0.0225(9) 0.0183(8) 0.0177(10) 0.0003(7) 0.0075(7) 0.0013(7)
C3 0.0243(9) 0.0193(9) 0.0184(10) 0.0010(8) 0.0056(8) 0.0013(8)
C4 0.0251(10) 0.0243(10) 0.0164(10) -0.0006(7) 0.0035(8) -0.0001(8)
C5 0.0295(11) 0.0384(13) 0.0203(11) 0.0011(9) 0.0075(9) -0.0053(10)
C6 0.0267(10) 0.0328(11) 0.0196(11) 0.0004(9) 0.0104(8) 0.0028(9)
C7 0.0312(11) 0.0387(13) 0.0227(12) -0.0035(9) 0.0112(9) -0.0008(10)
C8 0.0337(13) 0.0552(16) 0.0267(14) -0.0125(12) 0.0117(11) -0.0035(12)
C9 0.0311(12) 0.073(2) 0.0195(12) -0.0083(13) 0.0062(10) 0.0099(14)
C10 0.0432(15) 0.0578(17) 0.0249(13) 0.0111(12) 0.0145(11) 0.0191(13)
C11 0.0407(13) 0.0355(12) 0.0253(13) 0.0032(10) 0.0151(10) 0.0055(11)
C12 0.0217(9) 0.0184(9) 0.0208(10) -0.0003(7) 0.0081(8) 0.0006(7)
C13 0.0251(10) 0.0234(9) 0.0196(10) -0.0018(8) 0.0099(8) -0.0010(8)
C14 0.0270(10) 0.0245(9) 0.0212(10) 0.0039(8) 0.0091(8) -0.0018(8)
C15 0.0336(11) 0.0192(9) 0.0267(12) -0.0011(8) 0.0108(9) -0.0035(9)
C16 0.0420(13) 0.0235(10) 0.0265(12) -0.0056(9) 0.0164(10) -0.0026(10)
C17 0.0333(11) 0.0227(9) 0.0235(10) 0.0006(8) 0.0153(9) 0.0000(9)
loop_
_atom_type_symbol
_atom_type_description
_atom_type_scat_dispersion_real
_atom_type_scat_dispersion_imag
_atom_type_scat_source
C C 0.0033 0.0016 'International Tables Vol C Tables 4.2.6.8 and 6.1.1.4'
H H 0.0000 0.0000 'International Tables Vol C Tables 4.2.6.8 and 6.1.1.4'
N N 0.0061 0.0033 'International Tables Vol C Tables 4.2.6.8 and 6.1.1.4'
O O 0.0106 0.0060 'International Tables Vol C Tables 4.2.6.8 and 6.1.1.4'
loop_
_geom_angle_atom_site_label_1
_geom_angle_atom_site_label_2
_geom_angle_atom_site_label_3
_geom_angle
C1 N1 C3 103.67(18)
C1 N2 C2 107.61(17)
C1 N2 C4 122.37(17)
C2 N2 C4 129.74(18)
O2 N3 O1 123.4(2)
O2 N3 C3 118.74(19)
O1 N3 C3 117.90(19)
O4 N4 O3 123.2(2)
O4 N4 C14 118.4(2)
O3 N4 C14 118.4(2)
N1 C1 N2 112.87(19)
N1 C1 H1 123.6
N2 C1 H1 123.6
N2 C2 C3 102.92(16)
N2 C2 C12 123.26(19)
C3 C2 C12 133.8(2)
N1 C3 C2 112.92(19)
N1 C3 N3 118.48(19)
C2 C3 N3 128.59(19)
N2 C4 C5 111.09(18)
N2 C4 H4A 109.4
C5 C4 H4A 109.4
N2 C4 H4B 109.4
C5 C4 H4B 109.4
H4A C4 H4B 108.0
C6 C5 C4 112.67(18)
C6 C5 H5A 109.1
C4 C5 H5A 109.1
C6 C5 H5B 109.1
C4 C5 H5B 109.1
H5A C5 H5B 107.8
C11 C6 C7 118.3(2)
C11 C6 C5 120.7(2)
C7 C6 C5 120.9(2)
C8 C7 C6 121.3(3)
C8 C7 H7 119.3
C6 C7 H7 119.3
C7 C8 C9 119.8(3)
C7 C8 H8 120.1
C9 C8 H8 120.1
C10 C9 C8 119.8(3)
C10 C9 H9 120.1
C8 C9 H9 120.1
C9 C10 C11 120.2(3)
C9 C10 H10 119.9
C11 C10 H10 119.9
C6 C11 C10 120.6(3)
C6 C11 H11 119.7
C10 C11 H11 119.7
C13 C12 C17 119.04(18)
C13 C12 C2 119.68(19)
C17 C12 C2 121.28(19)
C14 C13 C12 118.5(2)
C14 C13 H13 120.7
C12 C13 H13 120.7
C15 C14 C13 123.3(2)
C15 C14 N4 118.5(2)
C13 C14 N4 118.2(2)
C16 C15 C14 117.6(2)
C16 C15 H15 121.2
C14 C15 H15 121.2
C15 C16 C17 120.6(2)
C15 C16 H16 119.7
C17 C16 H16 119.7
C16 C17 C12 120.8(2)
C16 C17 H17 119.6
C12 C17 H17 119.6
loop_
_geom_bond_atom_site_label_1
_geom_bond_atom_site_label_2
_geom_bond_distance
N1 C1 1.310(3)
N1 C3 1.360(3)
N2 C1 1.364(3)
N2 C2 1.376(3)
N2 C4 1.470(3)
N3 O2 1.223(2)
N3 O1 1.229(2)
N3 C3 1.428(3)
N4 O4 1.218(3)
N4 O3 1.219(3)
N4 C14 1.465(3)
C1 H1 0.9500
C2 C3 1.389(3)
C2 C12 1.473(3)
C4 C5 1.524(3)
C4 H4A 0.9900
C4 H4B 0.9900
C5 C6 1.509(3)
C5 H5A 0.9900
C5 H5B 0.9900
C6 C11 1.392(3)
C6 C7 1.395(3)
C7 C8 1.386(3)
C7 H7 0.9500
C8 C9 1.389(4)
C8 H8 0.9500
C9 C10 1.384(4)
C9 H9 0.9500
C10 C11 1.396(4)
C10 H10 0.9500
C11 H11 0.9500
C12 C13 1.392(3)
C12 C17 1.393(3)
C13 C14 1.383(3)
C13 H13 0.9500
C14 C15 1.381(3)
C15 C16 1.380(4)
C15 H15 0.9500
C16 C17 1.390(3)
C16 H16 0.9500
C17 H17 0.9500
loop_
_geom_torsion_atom_site_label_1
_geom_torsion_atom_site_label_2
_geom_torsion_atom_site_label_3
_geom_torsion_atom_site_label_4
_geom_torsion
C3 N1 C1 N2 0.0(3)
C2 N2 C1 N1 0.2(3)
C4 N2 C1 N1 -174.2(2)
C1 N2 C2 C3 -0.4(2)
C4 N2 C2 C3 173.6(2)
C1 N2 C2 C12 -179.8(2)
C4 N2 C2 C12 -5.8(4)
C1 N1 C3 C2 -0.2(3)
C1 N1 C3 N3 179.0(2)
N2 C2 C3 N1 0.4(3)
C12 C2 C3 N1 179.7(2)
N2 C2 C3 N3 -178.7(2)
C12 C2 C3 N3 0.6(4)
O2 N3 C3 N1 168.3(2)
O1 N3 C3 N1 -11.5(3)
O2 N3 C3 C2 -12.7(4)
O1 N3 C3 C2 167.6(2)
C1 N2 C4 C5 -75.4(3)
C2 N2 C4 C5 111.5(3)
N2 C4 C5 C6 179.24(19)
C4 C5 C6 C11 -125.1(2)
C4 C5 C6 C7 57.6(3)
C11 C6 C7 C8 -1.1(4)
C5 C6 C7 C8 176.2(2)
C6 C7 C8 C9 -0.1(4)
C7 C8 C9 C10 1.0(4)
C8 C9 C10 C11 -0.6(4)
C7 C6 C11 C10 1.6(4)
C5 C6 C11 C10 -175.8(2)
C9 C10 C11 C6 -0.7(4)
N2 C2 C12 C13 135.8(2)
C3 C2 C12 C13 -43.4(4)
N2 C2 C12 C17 -44.0(3)
C3 C2 C12 C17 136.8(3)
C17 C12 C13 C14 -0.3(3)
C2 C12 C13 C14 179.96(19)
C12 C13 C14 C15 1.6(3)
C12 C13 C14 N4 -177.4(2)
O4 N4 C14 C15 5.6(3)
O3 N4 C14 C15 -174.0(2)
O4 N4 C14 C13 -175.4(2)
O3 N4 C14 C13 5.0(3)
C13 C14 C15 C16 -1.2(3)
N4 C14 C15 C16 177.8(2)
C14 C15 C16 C17 -0.5(4)
C15 C16 C17 C12 1.8(4)
C13 C12 C17 C16 -1.3(3)
C2 C12 C17 C16 178.4(2)
