#------------------------------------------------------------------------------
#$Date: 2016-03-21 05:27:59 +0200 (Mon, 21 Mar 2016) $
#$Revision: 178479 $
#$URL: svn://www.crystallography.net/cod/cif/4/03/00/4030013.cif $
#------------------------------------------------------------------------------
#
# This file is available in the Crystallography Open Database (COD),
# http://www.crystallography.net/
#
# All data on this site have been placed in the public domain by the
# contributors.
#
data_4030013
loop_
_publ_author_name
'Varun, Begur Vasanthkumar'
'Prabhu, Kandikere Ramaiah'
_publ_section_title
;
 Regioselective thiolation of arenes and heteroarenes: C-h
 functionalization strategy for C-s bond formation.
;
_journal_issue                   20
_journal_name_full               'The Journal of organic chemistry'
_journal_page_first              9655
_journal_page_last               9668
_journal_paper_doi               10.1021/jo501793q
_journal_volume                  79
_journal_year                    2014
_chemical_formula_moiety         'C15 H13 N O3 S'
_chemical_formula_sum            'C15 H13 N O3 S'
_chemical_formula_weight         287.32
_chemical_name_systematic
;
 ?
;
_space_group_crystal_system      triclinic
_space_group_IT_number           2
_space_group_name_Hall           '-P 1'
_space_group_name_H-M_alt        'P -1'
_symmetry_space_group_name_Hall  '-P 1'
_symmetry_space_group_name_H-M   'P -1'
_atom_sites_solution_hydrogens   mixed
_atom_sites_solution_primary     direct
_audit_creation_date             2014-08-06
_audit_creation_method
;
Olex2 1.2
(compiled 2014.07.22 svn.r2960 for OlexSys, GUI svn.r4862)
;
_cell_angle_alpha                94.770(11)
_cell_angle_beta                 102.372(9)
_cell_angle_gamma                109.924(10)
_cell_formula_units_Z            2
_cell_length_a                   7.6639(12)
_cell_length_b                   8.4973(14)
_cell_length_c                   11.1966(16)
_cell_measurement_reflns_used    3890
_cell_measurement_temperature    296(2)
_cell_measurement_theta_max      27.35
_cell_measurement_theta_min      2.26
_cell_volume                     659.83(19)
_computing_molecular_graphics    'Olex2 (Dolomanov et al., 2009)'
_computing_publication_material  'Olex2 (Dolomanov et al., 2009)'
_computing_structure_refinement  'ShelXL (Sheldrick, 2008)'
_computing_structure_solution    'ShelXS (Sheldrick, 2008)'
_diffrn_ambient_temperature      296(2)
_diffrn_measured_fraction_theta_full 0.996
_diffrn_measured_fraction_theta_max 0.943
_diffrn_measurement_device_type  'Bruker APEX-II CCD'
_diffrn_measurement_method       '\f and \w scans'
_diffrn_radiation_monochromator  graphite
_diffrn_radiation_type           MoK\a
_diffrn_radiation_wavelength     0.71073
_diffrn_reflns_av_R_equivalents  0.0372
_diffrn_reflns_av_unetI/netI     0.0385
_diffrn_reflns_Laue_measured_fraction_full 0.996
_diffrn_reflns_Laue_measured_fraction_max 0.943
_diffrn_reflns_limit_h_max       10
_diffrn_reflns_limit_h_min       -10
_diffrn_reflns_limit_k_max       10
_diffrn_reflns_limit_k_min       -11
_diffrn_reflns_limit_l_max       14
_diffrn_reflns_limit_l_min       -14
_diffrn_reflns_number            10918
_diffrn_reflns_point_group_measured_fraction_full 0.996
_diffrn_reflns_point_group_measured_fraction_max 0.943
_diffrn_reflns_theta_full        25.000
_diffrn_reflns_theta_max         28.355
_diffrn_reflns_theta_min         1.890
_diffrn_standards_number         0
_exptl_absorpt_coefficient_mu    0.251
_exptl_absorpt_correction_type   none
_exptl_crystal_colour            colourless
_exptl_crystal_colour_primary    colourless
_exptl_crystal_density_diffrn    1.446
_exptl_crystal_description       block
_exptl_crystal_F_000             300
_exptl_crystal_size_max          0.3
_exptl_crystal_size_mid          0.28
_exptl_crystal_size_min          0.2
_refine_diff_density_max         0.181
_refine_diff_density_min         -0.239
_refine_diff_density_rms         0.037
_refine_ls_extinction_method     none
_refine_ls_goodness_of_fit_ref   1.026
_refine_ls_hydrogen_treatment    mixed
_refine_ls_matrix_type           full
_refine_ls_number_parameters     186
_refine_ls_number_reflns         3116
_refine_ls_number_restraints     0
_refine_ls_restrained_S_all      1.026
_refine_ls_R_factor_all          0.0581
_refine_ls_R_factor_gt           0.0397
_refine_ls_shift/su_max          0.000
_refine_ls_shift/su_mean         0.000
_refine_ls_structure_factor_coef Fsqd
_refine_ls_weighting_details
;
 w=1/[\s^2^(Fo^2^)+(0.0374P)^2^+0.1703P]
 where P=(Fo^2^+2Fc^2^)/3
;
_refine_ls_weighting_scheme      calc
_refine_ls_wR_factor_gt          0.0923
_refine_ls_wR_factor_ref         0.1013
_reflns_Friedel_coverage         0.000
_reflns_number_gt                2333
_reflns_number_total             3116
_reflns_threshold_expression     'I > 2\s(I)'
_cod_data_source_file            jo501793q_si_004.cif
_cod_data_source_block           15
_cod_depositor_comments
'Adding full bibliography for 4030011--4030013.cif.'
_cod_original_cell_volume        659.83(18)
_cod_database_code               4030013
#BEGIN Tags that were not found in dictionaries:
_shelxl_version_number           2013-2
_shelx_space_group_comment
;
The symmetry employed for this shelxl refinement is uniquely defined
by the following loop, which should always be used as a source of
symmetry information in preference to the above space-group names.
They are only intended as comments.
;
_shelx_estimated_absorpt_t_max   0.951
_shelx_estimated_absorpt_t_min   0.928
_olex2_refinement_description
;
1. Others
 Fixed Sof: H10A(0.5) H10B(0.5) H10C(0.5) H10D(0.5) H10E(0.5) H10F(0.5)
 Fixed Uiso: H3(0.049) H8(0.054) H10A(0.101) H10B(0.101) H10C(0.101)
 H10D(0.101) H10E(0.101) H10F(0.101) H11A(0.09) H11B(0.09) H11C(0.09)
 H13(0.056) H14(0.06) H15(0.056) H16(0.057)
 Fixed X: H3(0.6511) H8(0.8899) H10A(0.9751) H10B(0.8421) H10C(0.8236)
 H10D(0.7854) H10E(0.9184) H10F(0.9369) H11A(0.911) H11B(1.0147) H11C(0.7942)
 H13(0.2412) H14(0.4757) H15(0.5311) H16(0.7902)
 Fixed Y: H3(0.4966) H8(-0.0292) H10A(-0.201) H10B(-0.2529) H10C(-0.3864)
 H10D(-0.3593) H10E(-0.3073) H10F(-0.1738) H11A(0.7032) H11B(0.8923)
 H11C(0.7989) H13(-0.3104) H14(-0.385) H15(0.1744) H16(0.3595)
 Fixed Z: H3(0.3531) H8(0.1752) H10A(0.0421) H10B(-0.0934) H10C(-0.0037) H10D(-
 0.0788) H10E(0.0568) H10F(-0.033) H11A(0.3311) H11B(0.3987) H11C(0.3841) H13(-
 0.0326) H14(-0.0927) H15(0.5891) H16(0.7425)
;
_shelx_res_file
;
TITL new in P-1
CELL  0.71073   7.6639   8.4973  11.1966   94.770  102.372  109.924
ZERR     2.00   0.0012   0.0014   0.0016    0.011    0.009    0.010
LATT   1
SFAC  C    N    O    S    H
UNIT  30   2    6    2    26
MERG   2
HTAB O1 O5
EQIV $1 -x+2, -y+1, -z+1
HTAB O1 N1_$1
HTAB O1 O5
HTAB O1 N1_$1
FMAP   2
PLAN   10
SIZE     0.200   0.280   0.300
ACTA    50.00
BOND   $H
CONF
L.S.  10
TEMP    23.00
WGHT    0.037400    0.170300
FVAR       0.42969
C1    1    0.879919    0.535116    0.639131    11.00000    0.03897    0.04324 =
         0.03861    0.00428    0.01034    0.01467
C2    1    0.836052    0.577443    0.522743    11.00000    0.03896    0.03497 =
         0.04230    0.00914    0.01398    0.01446
C3    1    0.680405    0.467677    0.431197    11.00000    0.04157    0.04478 =
         0.03942    0.00903    0.00984    0.01866
AFIX  43
H3    5    0.651058    0.496571    0.353081    11.00000   -1.20000
AFIX   0
C4    1    0.569390    0.316107    0.455827    11.00000    0.03478    0.04101 =
         0.04650    0.00262    0.01034    0.01257
C5    1    0.462541    0.067701    0.257107    11.00000    0.03519    0.03582 =
         0.04113    0.00667    0.00306    0.00584
C7    1    0.622303   -0.043014    0.171498    11.00000    0.03630    0.03646 =
         0.03579    0.01009    0.00299    0.00797
C8    1    0.760768   -0.085999    0.134533    11.00000    0.03719    0.04591 =
         0.04509    0.01158    0.00549    0.01047
AFIX  43
H8    5    0.889943   -0.029183    0.175176    11.00000   -1.20000
AFIX   0
C9    1    0.704271   -0.216647    0.034744    11.00000    0.04893    0.04507 =
         0.04702    0.01299    0.01307    0.01572
C10   1    0.849007   -0.268846   -0.008912    11.00000    0.06199    0.06666 =
         0.07331    0.00214    0.02125    0.02382
AFIX 123
H10A  5    0.975075   -0.200977    0.042144    10.50000   -1.50000
H10B  5    0.842056   -0.252935   -0.093449    10.50000   -1.50000
H10C  5    0.823619   -0.386430   -0.003703    10.50000   -1.50000
H10D  5    0.785425   -0.359250   -0.078816    10.50000   -1.50000
H10E  5    0.918444   -0.307293    0.056777    10.50000   -1.50000
H10F  5    0.936881   -0.173798   -0.032969    10.50000   -1.50000
AFIX   0
C11   1    0.915924    0.785446    0.397180    11.00000    0.06445    0.05269 =
         0.06871    0.02983    0.02248    0.01990
AFIX 137
H11A  5    0.910963    0.703170    0.331088    11.00000   -1.50000
H11B  5    1.014662    0.892348    0.398676    11.00000   -1.50000
H11C  5    0.794203    0.798893    0.384075    11.00000   -1.50000
AFIX   0
C12   1    0.432636   -0.127719    0.109314    11.00000    0.03811    0.03492 =
         0.03958    0.01082    0.00502    0.00789
C13   1    0.370388   -0.256057    0.008856    11.00000    0.04031    0.03932 =
         0.04603    0.00411   -0.00049    0.00327
AFIX  43
H13   5    0.241176   -0.310362   -0.032583    11.00000   -1.20000
AFIX   0
C14   1    0.510762   -0.298154   -0.025767    11.00000    0.05928    0.04068 =
         0.04194    0.00281    0.00823    0.01212
AFIX  43
H14   5    0.475654   -0.385040   -0.092672    11.00000   -1.20000
AFIX   0
C15   1    0.608899    0.276084    0.571861    11.00000    0.04371    0.04172 =
         0.05594    0.01460    0.01811    0.01149
AFIX  43
H15   5    0.531118    0.174404    0.589075    11.00000   -1.20000
AFIX   0
C16   1    0.764392    0.386736    0.663514    11.00000    0.04789    0.05315 =
         0.04210    0.01680    0.01298    0.01638
AFIX  43
H16   5    0.790217    0.359500    0.742490    11.00000   -1.20000
AFIX   0
N1    2    0.635940    0.083423    0.266626    11.00000    0.03541    0.03954 =
         0.04007    0.00442    0.00264    0.00777
O1    3    1.034105    0.637734    0.729993    11.00000    0.04689    0.06011 =
         0.04081    0.00582    0.00490    0.00422
O2    3    0.327347   -0.057246    0.164725    11.00000    0.03169    0.03892 =
         0.04972    0.00314    0.00054    0.00594
O5    3    0.956969    0.729527    0.511298    11.00000    0.05203    0.04183 =
         0.05357    0.01451    0.01040    0.00770
S1    4    0.364482    0.179001    0.340081    11.00000    0.03513    0.05430 =
         0.06300   -0.00485    0.00565    0.01192
H1O   5    1.105764    0.712964    0.699500    11.00000    0.07374
HKLF    4  1.0  1.00  0.00  0.00  0.00  1.00  0.00  0.00  0.00  1.00

REM  new in P-1
REM R1 =  0.0397 for    2333 Fo > 4sig(Fo)  and  0.0581 for all    3116 data
REM    186 parameters refined using      0 restraints

END

WGHT      0.0374      0.1701

REM Highest difference peak  0.181,  deepest hole -0.239,  1-sigma level  0.037
Q1    1   0.5983  0.3982  0.4536  11.00000  0.05    0.18
Q2    1   0.5356 -0.0634  0.1147  11.00000  0.05    0.18
Q3    1   0.5541  0.3005  0.5059  11.00000  0.05    0.17
Q4    1   0.8646  0.5514  0.5798  11.00000  0.05    0.17
Q5    1   0.8517  0.4337  0.6327  11.00000  0.05    0.16
Q6    1   0.7180  0.5241  0.4961  11.00000  0.05    0.16
Q7    1   0.4920  0.2598  0.4034  11.00000  0.05    0.16
Q8    1   0.5518  0.0308  0.2925  11.00000  0.05    0.15
Q9    1   0.4240  0.1002  0.3131  11.00000  0.05    0.15
Q10   1   0.6570  0.3597  0.4397  11.00000  0.05    0.15
;
_shelx_res_checksum              12016
_shelx_hkl_file
;
  -1   0   0  316.60   13.24
  -1   0   0  326.38   13.10
  -1   0   0  329.49   13.25
   1   0   0  328.42   13.25
   1   0   0  340.99   13.25
   1   0   0  311.97   12.72
   1   0   0  324.63   13.10
  -2   0   0   11.71    0.60
  -2   0   0   12.47    0.59
  -2   0   0   13.05    0.60
  -2   0   0    9.79    0.68
  -2   0   0   12.15    0.64
  -2   0   0   11.37    0.65
   2   0   0   12.29    0.67
   2   0   0   12.87    0.59
   2   0   0   12.01    0.61
  -3   0   0  209.41    7.77
  -3   0   0  201.86    8.35
  -3   0   0  198.84    7.94
  -3   0   0  199.20    8.18
   3   0   0  201.28    7.95
   3   0   0  203.13    8.32
   3   0   0  180.20    7.75
  -4   0   0  109.18    4.63
  -4   0   0  110.15    4.79
  -4   0   0  108.50    4.49
  -4   0   0  109.96    4.38
   4   0   0  103.83    4.38
   4   0   0  111.57    4.76
  -5   0   0   10.81    0.83
  -5   0   0    9.18    0.66
  -5   0   0    9.29    0.64
   5   0   0    9.74    0.78
  -6   0   0    4.81    0.73
  -6   0   0    5.61    0.61
   6   0   0    5.47    0.77
  -7   0   0   11.34    0.87
  -7   0   0   14.50    1.53
   7   0   0   11.29    1.21
  -8   0   0    7.20    1.08
  -8   0   0    5.98    0.78
   8   0   0    5.47    0.99
  -9   0   0   -0.11    0.31
  -9   0   0   -0.29    0.53
   9   0   0   -0.51    0.51
   9  -1   0    5.63    1.06
  -9   1   0    5.22    0.73
  -9   1   0    5.10    1.04
   8  -1   0   -0.29    0.39
  -8   1   0   -0.15    0.23
  -8   1   0    0.96    0.54
   7  -1   0    8.85    1.04
  -7   1   0    9.22    0.74
  -7   1   0    7.32    0.99
   6  -1   0    0.15    0.32
  -6   1   0    0.52    0.36
  -6   1   0    0.67    0.25
  -6   1   0    0.52    0.25
   5  -1   0    4.88    0.59
  -5   1   0    5.01    0.69
  -5   1   0    4.10    0.45
  -5   1   0    5.02    0.49
   4  -1   0    0.12    0.18
  -4   1   0   -0.21    0.15
  -4   1   0   -0.05    0.10
  -4   1   0    0.01    0.11
   3  -1   0  103.80    4.68
  -3   1   0  117.01    4.45
  -3   1   0  108.61    4.71
  -3   1   0  109.79    4.36
   2  -1   0  163.22    6.76
   2  -1   0  164.32    6.32
   2  -1   0  164.15    6.62
   2  -1   0  169.35    6.37
   2  -1   0  155.55    6.76
  -2   1   0  160.97    6.33
  -2   1   0  165.67    6.78
   1  -1   0  181.95    7.34
   1  -1   0  182.31    7.02
   1  -1   0  183.17    7.34
   1  -1   0  172.95    6.89
  -1   1   0  174.94    6.89
  -1   1   0  178.54    7.34
  -1   1   0  185.30    7.02
  -1   1   0  175.81    7.34
   0  -1   0   43.86    1.98
   0  -1   0   48.70    1.92
   0  -1   0   50.17    1.92
   0   1   0   47.22    1.92
   0   1   0   48.24    1.92
   0   1   0   46.04    1.98
  -1  -1   0  759.92   31.07
   1   1   0  784.75   31.35
  -2  -1   0  147.16    5.91
  -2  -1   0  141.23    5.91
  -2  -1   0  153.07    5.54
  -2  -1   0  144.92    5.57
  -2  -1   0  118.44    5.93
  -2  -1   0  138.72    5.69
   2   1   0  142.86    5.56
   2   1   0  143.84    5.70
   2   1   0  149.00    5.55
   2   1   0  143.23    5.93
   2   1   0  138.50    5.57
  -3  -1   0   66.03    2.84
  -3  -1   0   59.77    2.76
  -3  -1   0   61.72    2.65
  -3  -1   0   58.07    2.54
   3   1   0   60.64    2.65
   3   1   0   66.20    2.80
   3   1   0   62.08    2.56
  -4  -1   0   64.94    2.92
  -4  -1   0   62.75    2.78
  -4  -1   0   60.65    2.67
  -4  -1   0   64.14    2.99
   4   1   0   66.25    2.96
   4   1   0   64.14    2.70
  -5  -1   0   17.77    1.04
  -5  -1   0   19.10    0.98
  -5  -1   0   18.08    1.12
  -5  -1   0   17.51    1.17
   5   1   0   16.96    1.13
   5   1   0   16.29    0.97
  -6  -1   0    0.36    0.38
  -6  -1   0   -0.12    0.20
   6   1   0    0.03    0.35
  -7  -1   0   11.45    1.41
  -7  -1   0    8.20    0.88
   7   1   0    7.93    1.03
  -8  -1   0    2.68    0.83
  -8  -1   0    3.98    0.69
   8   1   0    3.19    0.82
   9  -2   0   16.41    1.48
  -9   2   0   15.68    1.73
  -9   2   0   13.47    1.04
   8  -2   0    5.61    0.89
  -8   2   0    4.48    0.60
  -8   2   0    3.73    0.79
   7  -2   0    0.36    0.38
  -7   2   0    0.45    0.27
  -7   2   0    0.35    0.41
  -7   2   0    0.43    0.26
   6  -2   0   37.23    2.05
  -6   2   0   38.97    1.82
  -6   2   0   40.93    2.13
  -6   2   0   37.53    1.82
   5  -2   0    0.29    0.25
  -5   2   0    0.74    0.29
  -5   2   0    0.24    0.19
  -5   2   0    0.56    0.19
   4  -2   0    7.74    0.58
  -4   2   0    7.50    0.59
  -4   2   0    7.25    0.49
   3  -2   0    7.96    0.45
   3  -2   0    8.88    0.57
  -3   2   0    8.93    0.57
  -3   2   0    8.04    0.49
   2  -2   0  368.00   14.65
   2  -2   0  356.64   14.01
   2  -2   0  361.08   14.66
  -2   2   0  358.57   14.66
  -2   2   0  350.76   13.76
   1  -2   0   73.87    2.96
   1  -2   0   67.80    3.01
  -1   2   0   73.78    3.01
  -1   2   0   78.93    3.00
  -1   2   0   72.33    3.00
  -1   2   0   69.58    2.93
   0  -2   0  223.89    8.56
   0  -2   0  213.13    8.86
   0  -2   0  208.94    8.59
   0   2   0  224.51    8.60
  -1  -2   0  100.48    4.40
  -1  -2   0  106.11    4.19
  -1  -2   0  105.37    4.33
  -1  -2   0  106.86    4.37
   1   2   0  100.26    4.06
   1   2   0  106.83    4.24
   1   2   0  103.14    4.34
   1   2   0  105.70    4.06
  -2  -2   0   12.57    0.62
  -2  -2   0   10.59    0.70
  -2  -2   0   10.93    0.65
  -2  -2   0   12.09    0.68
  -2  -2   0   11.50    0.75
  -2  -2   0   12.42    0.56
   2   2   0   11.89    0.68
   2   2   0   11.23    0.59
   2   2   0   12.26    0.68
   2   2   0   10.77    0.61
  -3  -2   0    7.45    0.46
  -3  -2   0    8.13    0.58
  -3  -2   0    8.55    0.66
  -3  -2   0    8.12    0.63
   3   2   0    6.86    0.58
   3   2   0    7.12    0.51
   3   2   0    9.12    0.53
  -4  -2   0    0.05    0.12
  -4  -2   0    0.33    0.29
  -4  -2   0    0.32    0.28
  -4  -2   0    0.10    0.18
   4   2   0    0.19    0.23
   4   2   0    0.03    0.14
  -5  -2   0   23.47    1.44
  -5  -2   0   22.73    1.29
  -5  -2   0   19.93    1.36
   5   2   0   23.60    1.39
  -6  -2   0    3.18    0.63
  -6  -2   0    4.62    0.65
   6   2   0    4.39    0.76
  -7  -2   0    5.13    0.98
  -7  -2   0    5.56    0.80
   7   2   0    6.24    0.95
  -8  -2   0    0.06    0.51
  -8  -2   0   -0.43    0.36
   8   2   0    0.66    0.51
   9  -3   0    0.36    0.46
  -9   3   0   -0.12    0.47
   8  -3   0    0.94    0.48
  -8   3   0    1.36    0.52
  -8   3   0    0.99    0.33
   7  -3   0    1.90    0.51
  -7   3   0    1.39    0.36
  -7   3   0    1.48    0.47
  -7   3   0    1.38    0.33
   6  -3   0    6.07    0.72
  -6   3   0    5.21    0.74
  -6   3   0    7.13    0.68
  -6   3   0    6.27    0.60
   5  -3   0    1.90    0.24
   5  -3   0    1.99    0.40
  -5   3   0    2.32    0.43
  -5   3   0    2.05    0.32
   4  -3   0    9.83    0.55
   4  -3   0    8.72    0.64
  -4   3   0    8.81    0.56
  -4   3   0    9.49    0.67
   3  -3   0   33.01    1.50
   3  -3   0   33.62    1.57
   3  -3   0   33.50    1.57
  -3   3   0   32.94    1.43
  -3   3   0   35.48    1.58
   2  -3   0   67.46    2.86
   2  -3   0   68.32    2.90
   2  -3   0   70.30    2.90
  -2   3   0   68.41    2.69
  -2   3   0   69.34    2.90
   1  -3   0   15.29    0.79
   1  -3   0   16.43    0.85
   1  -3   0   17.22    0.83
  -1   3   0   16.46    0.79
   0  -3   0    1.45    0.29
   0  -3   0    1.55    0.23
   0  -3   0    1.21    0.23
   0   3   0    1.29    0.22
  -1  -3   0   73.48    3.05
  -1  -3   0   70.99    3.05
  -1  -3   0   71.54    3.08
  -1  -3   0   67.91    3.18
  -1  -3   0   75.76    3.02
   1   3   0   61.15    3.02
   1   3   0   74.33    3.05
   1   3   0   74.43    2.85
   1   3   0   76.76    2.84
  -2  -3   0   22.54    1.15
  -2  -3   0   20.57    1.21
  -2  -3   0   22.81    1.08
  -2  -3   0   20.11    1.07
  -2  -3   0   22.35    1.14
   2   3   0   21.45    1.00
   2   3   0   22.10    1.10
   2   3   0   21.00    0.99
  -3  -3   0    6.96    0.73
  -3  -3   0    5.02    0.43
  -3  -3   0    5.51    0.61
  -3  -3   0    4.87    0.55
   3   3   0    6.03    0.45
   3   3   0    5.49    0.56
   3   3   0    4.83    0.42
  -4  -3   0  143.10    6.18
  -4  -3   0  135.44    6.20
  -4  -3   0  148.82    5.97
   4   3   0  135.96    5.70
   4   3   0  142.83    6.12
  -5  -3   0    1.33    0.44
  -5  -3   0    0.82    0.44
  -5  -3   0    1.11    0.37
   5   3   0    1.12    0.43
  -6  -3   0    0.19    0.28
  -6  -3   0   -0.08    0.29
   6   3   0   -0.07    0.32
  -7  -3   0    8.49    1.00
  -7  -3   0    7.16    1.07
   9  -4   0    2.43    0.69
  -9   4   0    1.69    0.65
   8  -4   0    0.04    0.37
  -8   4   0   -0.25    0.19
  -8   4   0    0.36    0.45
  -8   4   0   -0.06    0.23
   7  -4   0    1.72    0.43
  -7   4   0    1.70    0.38
  -7   4   0    1.64    0.33
  -7   4   0    1.13    0.43
   6  -4   0    2.42    0.34
   6  -4   0    3.24    0.53
  -6   4   0    2.40    0.49
  -6   4   0    3.88    0.49
   5  -4   0   19.69    1.09
   5  -4   0   18.62    0.94
  -5   4   0   16.13    1.08
  -5   4   0   17.11    0.94
   4  -4   0   92.97    3.72
   4  -4   0   92.93    3.91
   4  -4   0   92.17    3.88
  -4   4   0   85.28    3.90
  -4   4   0   82.60    3.59
   3  -4   0   15.62    0.83
   3  -4   0   17.08    0.85
   3  -4   0   15.71    0.88
  -3   4   0   14.62    0.73
  -3   4   0   16.96    0.84
   2  -4   0   66.26    2.83
   2  -4   0   64.55    2.85
  -2   4   0   68.64    2.79
   1  -4   0   87.15    3.75
   1  -4   0   88.11    3.68
   1  -4   0   87.89    3.65
  -1   4   0   87.58    3.63
   0  -4   0   11.47    0.71
   0  -4   0   12.67    0.75
   0  -4   0   12.35    0.79
  -1  -4   0  105.01    4.53
  -1  -4   0  101.31    4.33
  -1  -4   0  107.35    4.36
  -1  -4   0  100.74    4.30
   1   4   0   99.11    4.05
   1   4   0  103.43    4.33
   1   4   0  106.02    4.05
  -2  -4   0   34.53    1.58
  -2  -4   0   31.48    1.54
  -2  -4   0   31.26    1.71
  -2  -4   0   31.19    1.51
  -2  -4   0   32.59    1.60
   2   4   0   30.43    1.41
   2   4   0   30.30    1.52
   2   4   0   33.28    1.41
  -3  -4   0   32.41    1.70
  -3  -4   0   34.23    1.61
  -3  -4   0   31.38    1.69
  -3  -4   0   31.49    1.83
   3   4   0   32.36    1.51
   3   4   0   33.19    1.66
   3   4   0   33.26    1.55
  -4  -4   0    0.30    0.38
  -4  -4   0    0.13    0.27
  -4  -4   0    0.25    0.30
   4   4   0   -0.12    0.27
  -5  -4   0   45.66    2.46
  -5  -4   0   38.52    2.33
  -5  -4   0   44.14    2.26
   5   4   0   45.01    2.31
  -6  -4   0    6.15    0.82
  -6  -4   0    6.45    0.97
  -7  -4   0    0.63    0.46
  -7  -4   0    0.81    0.45
   9  -5   0    1.23    0.54
  -9   5   0    1.89    0.65
   8  -5   0    9.44    1.04
  -8   5   0   10.47    0.77
  -8   5   0    9.73    1.10
  -8   5   0    9.80    0.84
   7  -5   0    1.90    0.32
   7  -5   0    1.57    0.43
  -7   5   0    1.79    0.39
  -7   5   0    1.74    0.50
   6  -5   0    3.22    0.52
   6  -5   0    4.77    0.50
  -6   5   0    3.97    0.59
  -6   5   0    5.03    0.54
   5  -5   0   70.56    3.06
   5  -5   0   70.64    3.19
  -5   5   0   69.90    2.96
  -5   5   0   71.12    3.20
   4  -5   0   42.13    1.94
   4  -5   0   40.63    1.95
   4  -5   0   41.87    1.96
  -4   5   0   42.57    1.79
  -4   5   0   41.77    1.94
   3  -5   0   34.22    1.48
   3  -5   0   30.08    1.57
  -3   5   0   32.74    1.34
  -3   5   0   33.49    1.50
  -3   5   0   30.34    1.46
   2  -5   0   46.30    2.24
   2  -5   0   51.16    2.21
   1  -5   0   20.53    1.15
   1  -5   0   22.45    1.14
   1  -5   0   21.06    1.17
   0  -5   0   12.25    0.81
   0  -5   0   13.28    0.81
   0  -5   0   11.58    0.85
  -1  -5   0   11.10    0.77
  -1  -5   0   11.60    0.86
  -1  -5   0   11.40    0.77
  -1  -5   0   10.41    0.59
   1   5   0    9.79    0.54
   1   5   0   11.37    0.56
   1   5   0   10.33    0.59
  -2  -5   0  120.84    5.08
  -2  -5   0  115.50    5.05
  -2  -5   0  113.56    5.29
  -2  -5   0  123.32    5.02
  -2  -5   0  121.53    5.13
   2   5   0  117.43    5.05
   2   5   0  116.77    4.76
   2   5   0  121.74    4.76
  -3  -5   0   -0.04    0.27
  -3  -5   0    0.17    0.27
  -3  -5   0   -0.30    0.22
  -3  -5   0   -0.36    0.33
   3   5   0   -0.03    0.23
   3   5   0   -0.20    0.15
   3   5   0    0.36    0.21
  -4  -5   0    1.32    0.51
  -4  -5   0    1.04    0.38
  -4  -5   0    1.47    0.43
  -5  -5   0   18.35    1.32
  -5  -5   0   18.16    1.30
  -5  -5   0   15.80    1.38
  -6  -5   0    4.51    0.79
  -6  -5   0    5.63    0.91
   9  -6   0    0.13    0.43
  -9   6   0    0.70    0.37
   8  -6   0   -0.08    0.32
  -8   6   0   -0.01    0.24
   7  -6   0    2.92    0.44
   7  -6   0    2.78    0.59
  -7   6   0    2.79    0.55
  -7   6   0    3.08    0.48
   6  -6   0   -0.12    0.25
   6  -6   0   -0.01    0.22
  -6   6   0    0.03    0.25
  -6   6   0   -0.04    0.17
   5  -6   0    0.75    0.28
   5  -6   0    0.44    0.27
  -5   6   0    0.66    0.23
  -5   6   0    0.91    0.28
   4  -6   0    7.09    0.61
   4  -6   0    5.82    0.49
  -4   6   0    6.88    0.43
  -4   6   0    7.01    0.50
   3  -6   0   24.25    1.38
   3  -6   0   26.58    1.28
   2  -6   0   38.57    1.98
   2  -6   0   42.51    1.96
   1  -6   0    0.34    0.25
   1  -6   0    0.22    0.21
   1  -6   0    0.31    0.26
   0  -6   0   15.02    1.04
   0  -6   0   16.10    0.99
   0  -6   0   14.37    0.99
  -1  -6   0    8.94    0.77
  -1  -6   0    9.55    0.96
  -1  -6   0    7.66    0.80
   1   6   0    9.82    0.53
   1   6   0    8.43    0.51
  -2  -6   0   51.87    2.50
  -2  -6   0   46.68    2.62
  -2  -6   0   52.65    2.47
  -2  -6   0   50.27    2.34
   2   6   0   49.35    2.19
   2   6   0   52.82    2.18
  -3  -6   0    1.25    0.39
  -3  -6   0    1.06    0.44
  -3  -6   0    2.42    0.60
  -3  -6   0    1.37    0.38
   3   6   0    1.18    0.28
  -4  -6   0   -0.26    0.31
  -4  -6   0   -0.13    0.31
  -4  -6   0    0.25    0.45
  -5  -6   0    0.31    0.42
  -5  -6   0    0.22    0.39
  -5  -6   0    0.24    0.51
   9  -7   0    1.52    0.58
  -9   7   0    0.21    0.34
   8  -7   0    1.01    0.51
  -8   7   0    1.67    0.42
   7  -7   0    2.85    0.51
   7  -7   0    2.87    0.55
  -7   7   0    2.74    0.47
   6  -7   0   12.42    0.92
   6  -7   0   13.11    0.93
  -6   7   0   12.68    0.80
   5  -7   0    0.58    0.29
   5  -7   0    0.22    0.27
  -5   7   0    0.98    0.24
   4  -7   0    2.06    0.44
  -4   7   0    2.55    0.28
   3  -7   0   -0.05    0.23
   3  -7   0    0.53    0.28
   2  -7   0    3.42    0.53
   2  -7   0    2.67    0.49
   1  -7   0    7.27    0.78
   1  -7   0    8.21    0.84
   1  -7   0    8.96    0.85
   0  -7   0    2.68    0.49
   0  -7   0    2.02    0.49
   0  -7   0    2.59    0.57
  -1  -7   0    4.45    0.66
  -1  -7   0    4.92    0.79
  -1  -7   0    3.75    0.61
   1   7   0    4.10    0.35
   1   7   0    3.60    0.36
  -2  -7   0   23.08    1.41
  -2  -7   0   17.65    1.35
  -2  -7   0   22.63    1.56
   2   7   0   21.63    1.11
   2   7   0   21.46    1.09
  -3  -7   0   24.03    1.51
  -3  -7   0   21.97    1.63
  -3  -7   0   19.87    1.24
  -3  -7   0   21.78    1.39
   3   7   0   19.79    1.18
  -4  -7   0   -0.04    0.33
  -4  -7   0   -0.32    0.35
  -4  -7   0   -0.01    0.46
   9  -8   0    0.84    0.52
  -9   8   0    0.78    0.41
   8  -8   0   -0.67    0.34
  -8   8   0    0.29    0.28
   7  -8   0    9.50    0.96
   7  -8   0    9.22    0.94
  -7   8   0    9.89    0.75
   6  -8   0   -0.23    0.25
   6  -8   0    0.19    0.28
  -6   8   0    0.03    0.18
   5  -8   0    2.92    0.54
  -5   8   0    2.48    0.34
   4  -8   0    8.85    0.71
   4  -8   0    7.17    0.86
   3  -8   0    0.01    0.25
   3  -8   0    0.79    0.37
   2  -8   0    0.72    0.38
   2  -8   0    0.53    0.34
   1  -8   0   13.60    1.11
   1  -8   0   16.60    1.14
   0  -8   0   10.73    1.13
   0  -8   0   10.85    1.06
   0  -8   0    9.48    1.00
  -1  -8   0    7.18    0.87
  -1  -8   0    8.49    1.06
  -1  -8   0    6.98    0.87
   1   8   0    6.93    0.49
   1   8   0    5.72    0.46
  -2  -8   0    0.55    0.44
  -2  -8   0    0.97    0.41
  -2  -8   0    2.10    0.62
   2   8   0    1.74    0.32
  -3  -8   0    2.19    0.70
  -3  -8   0    1.34    0.49
   8  -9   0    0.87    0.43
   8  -9   0    0.73    0.48
  -8   9   0    0.85    0.33
   7  -9   0    0.75    0.40
   7  -9   0    0.91    0.40
  -7   9   0    0.79    0.31
   6  -9   0    2.96    0.60
  -6   9   0    2.85    0.40
   5  -9   0    1.32    0.47
  -5   9   0    1.60    0.28
   4  -9   0    1.34    0.47
   3  -9   0    3.02    0.60
   3  -9   0    2.09    0.53
   2  -9   0    0.99    0.45
   2  -9   0    1.17    0.45
   1  -9   0   -0.18    0.33
   1  -9   0   -0.56    0.36
   0  -9   0    8.66    1.09
   0  -9   0    7.15    0.94
  -1  -9   0    6.64    0.93
  -1  -9   0   10.15    1.21
  -1  -9   0    6.11    0.89
   1   9   0    7.29    0.55
   1   9   0    7.37    0.56
  -2  -9   0    1.49    0.59
  -2  -9   0    0.26    0.46
  -2  -9   0    0.09    0.52
   2   9   0    0.79    0.27
   7 -10   0    0.02    0.36
  -7  10   0   -0.08    0.25
   6 -10   0    0.36    0.37
  -6  10   0    0.37    0.23
   5 -10   0    0.31    0.36
   4 -10   0    5.14    0.79
   3 -10   0    6.30    0.82
   3 -10   0    5.49    0.83
   2 -10   0   -0.08    0.38
   2 -10   0   -0.06    0.38
   1 -10   0    0.28    0.40
   1 -10   0    0.64    0.51
   0 -10   0   -0.42    0.39
   0 -10   0    0.34    0.50
   0 -10   0    0.67    0.43
   5 -11   0   -0.25    0.33
   4 -11   0    0.71    0.43
   3 -11   0    1.18    0.56
   2 -11   0    0.10    0.43
   2 -11   0   -0.01    0.51
   2 -11   1    1.00    0.54
   3 -11   1    3.60    0.76
   4 -11   1    0.64    0.48
   5 -11   1   -0.25    0.37
  -1 -10   1    1.92    0.72
  -1 -10   1    2.49    0.66
   0 -10   1    5.78    0.88
   0 -10   1    5.45    0.97
   0 -10   1    5.07    0.83
   1 -10   1    1.70    0.66
   1 -10   1    2.38    0.65
   2 -10   1    3.20    0.69
   2 -10   1    2.35    0.63
   3 -10   1    0.49    0.39
   4 -10   1   17.52    1.36
   5 -10   1    0.28    0.36
  -6  10  -1    0.69    0.27
  -7  10  -1    0.89    0.33
   7 -10   1    1.14    0.47
  -2  -9   1   -0.07    0.50
  -2  -9   1   -0.14    0.40
  -1  -9   1   -0.40    0.34
  -1  -9   1    0.68    0.54
  -1  -9   1    0.91    0.46
   0  -9   1    0.41    0.50
   0  -9   1    0.66    0.45
   0  -9   1    0.15    0.38
   1  -9   1   17.30    1.37
   1  -9   1   18.34    1.38
   1  -9   1   21.67    1.38
   2  -9   1    3.33    0.62
   2  -9   1    2.65    0.59
   3  -9   1   -0.25    0.26
   3  -9   1   -0.14    0.35
   4  -9   1   12.16    1.04
  -5   9  -1    7.32    0.52
   5  -9   1    6.78    0.86
  -6   9  -1    0.02    0.20
   6  -9   1   -0.23    0.27
  -7   9  -1    2.44    0.44
   7  -9   1    2.79    0.60
   7  -9   1    2.61    0.55
  -8   9  -1    0.72    0.37
   8  -9   1    0.37    0.44
  -3  -8   1    3.23    0.76
  -3  -8   1    3.09    0.67
   2   8  -1    0.07    0.22
  -2  -8   1   -0.13    0.38
  -2  -8   1    0.10    0.39
  -1  -8   1   -0.20    0.32
  -1  -8   1   -0.25    0.36
  -1  -8   1    0.30    0.34
   0  -8   1   -0.19    0.28
   0  -8   1    0.02    0.34
   0  -8   1    0.08    0.36
   1  -8   1    1.68    0.46
   1  -8   1    1.61    0.45
   1  -8   1    2.26    0.49
   2  -8   1    0.48    0.32
   2  -8   1   -0.16    0.25
   3  -8   1    0.79    0.34
   3  -8   1    1.33    0.42
   4  -8   1    3.89    0.61
  -5   8  -1    0.31    0.18
   5  -8   1    0.36    0.30
  -6   8  -1   -0.13    0.16
   6  -8   1    0.21    0.28
   6  -8   1    0.28    0.32
  -7   8  -1   -0.34    0.21
   7  -8   1    0.05    0.31
   7  -8   1   -0.38    0.30
  -8   8  -1    1.51    0.42
   8  -8   1    1.23    0.51
  -9   8  -1    0.35    0.38
   9  -8   1   -0.10    0.45
  -4  -7   1    0.31    0.48
  -4  -7   1    0.00    0.27
  -4  -7   1    0.38    0.42
  -3  -7   1    2.53    0.68
  -3  -7   1    2.04    0.43
  -3  -7   1    1.50    0.50
   2   7  -1    2.76    0.37
   2   7  -1    2.59    0.36
  -2  -7   1    2.69    0.64
  -2  -7   1    3.57    0.64
  -1  -7   1   -0.04    0.27
  -1  -7   1   -0.38    0.25
  -1  -7   1   -0.28    0.32
   0  -7   1    1.73    0.48
   0  -7   1    2.42    0.47
   0  -7   1    1.87    0.45
   1  -7   1   18.46    1.19
   1  -7   1   17.38    1.18
   1  -7   1   20.01    1.17
   2  -7   1    0.30    0.25
   2  -7   1    0.00    0.26
   3  -7   1    2.90    0.49
   3  -7   1    3.42    0.45
  -4   7  -1    2.47    0.28
   4  -7   1    3.14    0.52
  -5   7  -1    1.86    0.31
   5  -7   1    1.22    0.31
   5  -7   1    1.02    0.36
  -6   7  -1   10.67    0.76
   6  -7   1   12.53    0.91
   6  -7   1   13.72    0.93
  -7   7  -1    1.31    0.37
   7  -7   1    1.84    0.47
   7  -7   1    1.40    0.38
  -8   7  -1    1.17    0.39
   8  -7   1    1.32    0.52
  -9   7  -1   -0.21    0.29
   9  -7   1    0.37    0.45
  -5  -6   1    3.33    0.68
  -5  -6   1    2.22    0.59
  -4  -6   1    5.89    0.93
  -4  -6   1    5.98    0.76
  -4  -6   1    6.37    0.86
   3   6  -1    1.08    0.29
  -3  -6   1    1.14    0.36
  -3  -6   1    1.00    0.50
  -3  -6   1    1.34    0.40
   2   6  -1    0.07    0.18
   2   6  -1    0.05    0.15
  -2  -6   1    0.29    0.30
  -2  -6   1   -0.19    0.33
  -2  -6   1    0.32    0.20
  -2  -6   1    0.24    0.30
  -1  -6   1   26.86    1.43
  -1  -6   1   22.71    1.40
  -1  -6   1   25.04    1.51
   0  -6   1   12.91    0.90
   0  -6   1   13.58    0.94
   0  -6   1   16.29    1.03
   1  -6   1    0.33    0.26
   1  -6   1    0.32    0.25
   1  -6   1    0.68    0.25
   2  -6   1  125.19    5.48
   2  -6   1  135.62    5.53
   3  -6   1   17.25    1.06
  -4   6  -1    5.62    0.40
  -4   6  -1    6.22    0.47
   4  -6   1    6.13    0.48
   4  -6   1    5.46    0.48
   4  -6   1    6.70    0.68
  -5   6  -1   52.89    2.27
  -5   6  -1   54.17    2.48
   5  -6   1   53.22    2.44
   5  -6   1   49.85    2.43
  -6   6  -1    9.04    0.69
  -6   6  -1    9.49    0.82
   6  -6   1   11.25    0.83
   6  -6   1   10.28    0.75
  -7   6  -1    5.80    0.68
  -7   6  -1    6.19    0.82
   7  -6   1    6.04    0.62
   7  -6   1    5.85    0.73
  -8   6  -1    1.01    0.32
   8  -6   1    0.84    0.42
   9  -6   1    7.04    1.01
  -6  -5   1    0.49    0.46
  -6  -5   1    0.40    0.42
  -5  -5   1    5.33    0.78
  -5  -5   1    6.00    0.80
  -4  -5   1    8.96    0.91
  -4  -5   1    6.94    0.81
  -4  -5   1    6.98    0.97
   3   5  -1    6.82    0.63
   3   5  -1    8.07    0.58
  -3  -5   1    6.77    0.77
  -3  -5   1    8.06    0.93
  -3  -5   1    8.47    0.67
   2   5  -1    4.05    0.37
   2   5  -1    3.50    0.37
   2   5  -1    3.39    0.40
  -2  -5   1    3.69    0.50
  -2  -5   1    3.40    0.51
  -2  -5   1    4.27    0.45
  -2  -5   1    2.33    0.54
  -2  -5   1    3.61    0.38
  -1  -5   1   14.57    0.96
  -1  -5   1   16.33    0.98
  -1  -5   1   17.26    1.08
   0  -5   1   43.83    2.03
   0  -5   1   42.10    1.97
   0  -5   1   42.75    2.08
   1  -5   1    6.79    0.57
   1  -5   1    6.61    0.50
   1  -5   1    5.84    0.52
  -2   5  -1    3.06    0.34
   2  -5   1    3.32    0.36
   2  -5   1    2.77    0.40
  -3   5  -1    5.39    0.40
  -3   5  -1    5.09    0.33
  -3   5  -1    4.60    0.36
   3  -5   1    5.02    0.38
   3  -5   1    5.00    0.53
  -4   5  -1    1.25    0.23
  -4   5  -1    1.80    0.25
  -4   5  -1    1.33    0.29
   4  -5   1    1.44    0.30
   4  -5   1    1.93    0.34
   4  -5   1    1.06    0.29
  -5   5  -1    1.08    0.26
  -5   5  -1    1.55    0.37
   5  -5   1    0.77    0.30
   5  -5   1    1.67    0.32
  -6   5  -1   31.29    1.57
  -6   5  -1   33.57    1.80
   6  -5   1   29.69    1.73
   6  -5   1   33.68    1.55
  -7   5  -1   23.96    1.23
  -7   5  -1   25.27    1.35
  -7   5  -1   24.26    1.57
   7  -5   1   22.54    1.49
  -8   5  -1    2.28    0.47
  -8   5  -1    2.17    0.63
   8  -5   1    1.46    0.52
  -9   5  -1   -0.03    0.49
   9  -5   1   -0.15    0.45
  -7  -4   1    4.87    0.83
  -7  -4   1    5.66    0.96
  -6  -4   1    0.05    0.37
  -6  -4   1   -0.14    0.32
   5   4  -1    0.86    0.41
  -5  -4   1    0.34    0.34
  -5  -4   1    0.54    0.33
   4   4  -1   68.09    3.16
   4   4  -1   64.45    2.92
  -4  -4   1   70.23    3.18
  -4  -4   1   69.62    3.34
  -4  -4   1   68.49    3.21
   3   4  -1   79.88    3.15
   3   4  -1   75.38    3.37
  -3  -4   1   72.89    3.38
  -3  -4   1   74.80    3.56
  -3  -4   1   78.37    3.43
  -3  -4   1   72.18    3.33
   2   4  -1   12.91    0.67
   2   4  -1   12.61    0.66
   2   4  -1   12.43    0.73
  -2  -4   1   11.00    0.88
  -2  -4   1   14.34    0.87
  -2  -4   1   12.84    0.75
  -2  -4   1   12.40    0.71
  -2  -4   1   13.06    0.79
   1   4  -1   32.60    1.44
  -1  -4   1   30.68    1.63
  -1  -4   1   32.02    1.46
  -1  -4   1   33.90    1.56
  -1  -4   1   31.75    1.54
   0  -4   1   39.87    1.79
   0  -4   1   40.05    1.87
   0  -4   1   38.93    1.82
  -1   4  -1   44.89    1.94
   1  -4   1   42.98    1.99
   1  -4   1   45.03    2.01
   1  -4   1   45.09    1.93
  -2   4  -1    0.01    0.08
  -3   4  -1    3.25    0.29
  -3   4  -1    3.84    0.36
  -3   4  -1    3.85    0.29
   3  -4   1    5.00    0.38
   3  -4   1    4.72    0.40
   3  -4   1    4.78    0.40
  -4   4  -1    7.28    0.50
  -4   4  -1    8.80    0.62
   4  -4   1    7.45    0.58
   4  -4   1    7.65    0.53
  -5   4  -1    6.27    0.67
  -5   4  -1    6.27    0.49
   5  -4   1    6.25    0.65
   5  -4   1    5.41    0.44
  -6   4  -1    2.55    0.35
  -6   4  -1    2.16    0.39
  -6   4  -1    2.10    0.47
   6  -4   1    2.70    0.53
  -7   4  -1    0.63    0.24
  -7   4  -1    0.93    0.44
  -7   4  -1    0.68    0.33
   7  -4   1    0.95    0.43
  -8   4  -1    3.05    0.57
  -8   4  -1    2.32    0.68
   8  -4   1    2.27    0.63
  -9   4  -1   -0.02    0.43
   9  -4   1    0.36    0.50
  -7  -3   1   -0.30    0.32
  -7  -3   1   -0.10    0.39
   6   3  -1    8.48    0.95
  -6  -3   1    7.95    0.95
  -6  -3   1    8.60    0.94
  -5  -3   1    5.38    0.68
  -5  -3   1    4.88    0.71
   4   3  -1   64.46    2.97
   4   3  -1   63.50    2.74
  -4  -3   1   65.59    3.07
  -4  -3   1   61.28    2.89
  -4  -3   1   63.60    3.04
   3   3  -1   42.25    1.77
   3   3  -1   38.68    1.91
  -3  -3   1   37.09    1.96
  -3  -3   1   43.56    2.06
  -3  -3   1   39.66    1.91
   2   3  -1   51.87    2.03
   2   3  -1   46.61    2.03
   2   3  -1   47.47    2.18
  -2  -3   1   46.36    2.30
  -2  -3   1   48.69    2.22
  -2  -3   1   48.36    2.17
  -2  -3   1   50.90    2.14
  -2  -3   1   51.24    2.21
   1   3  -1    3.00    0.27
   1   3  -1    3.43    0.22
   1   3  -1    3.25    0.22
   1   3  -1    3.77    0.39
  -1  -3   1    3.02    0.24
  -1  -3   1    3.71    0.39
  -1  -3   1    3.93    0.30
  -1  -3   1    3.88    0.39
  -1  -3   1    4.57    0.48
   0   3  -1   55.92    2.32
   0  -3   1   54.23    2.41
   0  -3   1   54.71    2.35
   0  -3   1   55.18    2.32
  -1   3  -1    9.30    0.50
   1  -3   1    9.47    0.50
   1  -3   1    9.45    0.53
   1  -3   1    9.95    0.59
  -2   3  -1    0.34    0.10
  -2   3  -1    0.22    0.12
  -2   3  -1    0.16    0.10
   2  -3   1    0.03    0.13
   2  -3   1    0.27    0.14
   2  -3   1    0.46    0.18
  -3   3  -1   74.63    3.26
  -3   3  -1   73.04    3.01
   3  -3   1   77.15    3.26
   3  -3   1   75.21    3.08
   3  -3   1   74.79    3.28
  -4   3  -1   -0.06    0.18
  -4   3  -1    0.32    0.16
   4  -3   1    0.25    0.13
   4  -3   1    0.07    0.19
  -5   3  -1    8.21    0.72
  -5   3  -1    8.46    0.60
  -5   3  -1    8.88    0.54
  -5   3  -1    8.20    0.60
   5  -3   1    9.04    0.72
  -6   3  -1  163.02    6.57
  -6   3  -1  160.19    6.57
  -6   3  -1  159.89    7.09
   6  -3   1  165.72    7.07
  -7   3  -1   22.91    1.40
  -7   3  -1   27.83    1.69
  -7   3  -1   26.88    1.34
   7  -3   1   27.29    1.65
  -8   3  -1    0.17    0.39
  -8   3  -1   -0.20    0.21
   8  -3   1    0.73    0.46
  -9   3  -1    5.65    1.01
   9  -3   1    5.40    1.02
   8   2  -1    1.36    0.61
  -8  -2   1    0.93    0.46
  -8  -2   1    0.13    0.54
   7   2  -1    5.68    0.89
  -7  -2   1    3.04    0.71
  -7  -2   1    4.56    0.67
   6   2  -1   26.49    1.62
  -6  -2   1   23.60    1.43
  -6  -2   1   23.19    1.60
   5   2  -1   55.59    2.64
  -5  -2   1   55.34    2.52
  -5  -2   1   48.07    2.66
   4   2  -1   22.12    1.08
   4   2  -1   18.97    1.17
  -4  -2   1   19.86    1.25
  -4  -2   1   20.04    0.99
  -4  -2   1   21.71    1.16
  -4  -2   1   21.85    1.24
   3   2  -1   84.86    3.69
   3   2  -1   88.38    3.44
  -3  -2   1   83.03    3.72
  -3  -2   1   85.46    3.38
  -3  -2   1   84.47    3.58
  -3  -2   1   79.45    3.74
   2   2  -1   14.77    0.80
   2   2  -1   14.79    0.81
   2   2  -1   13.76    0.71
  -2  -2   1   16.04    0.82
  -2  -2   1   12.82    0.83
  -2  -2   1   15.60    0.89
  -2  -2   1   15.70    0.79
  -2  -2   1   16.35    0.68
   1   2  -1   58.96    2.41
   1   2  -1   55.46    2.43
   1   2  -1   57.86    2.27
   1   2  -1   59.48    2.26
  -1  -2   1   57.84    2.52
  -1  -2   1   57.03    2.38
  -1  -2   1   55.67    2.40
  -1  -2   1   58.68    2.45
  -1  -2   1   55.56    2.43
   0   2  -1   11.56    0.56
   0  -2   1   10.69    0.61
   0  -2   1   11.14    0.60
   0  -2   1   11.52    0.57
  -1   2  -1   92.67    3.71
  -1   2  -1   91.27    3.86
  -1   2  -1   96.10    3.85
   1  -2   1   93.91    3.75
   1  -2   1   91.64    3.71
   1  -2   1   95.64    3.85
  -2   2  -1    3.90    0.28
  -2   2  -1    4.19    0.34
   2  -2   1    3.89    0.34
   2  -2   1    3.99    0.29
   2  -2   1    3.84    0.34
  -3   2  -1   12.50    0.73
  -3   2  -1   11.79    0.62
   3  -2   1   11.17    0.56
   3  -2   1   11.66    0.70
  -4   2  -1   25.47    1.38
  -4   2  -1   26.36    1.17
  -4   2  -1   25.49    1.21
  -4   2  -1   27.21    1.24
   4  -2   1   23.15    1.33
  -5   2  -1    5.65    0.56
  -5   2  -1    5.55    0.67
  -5   2  -1    5.32    0.41
  -5   2  -1    3.93    0.48
   5  -2   1    6.16    0.67
  -6   2  -1    4.73    0.73
  -6   2  -1    3.17    0.46
  -6   2  -1    3.46    0.42
   6  -2   1    3.98    0.65
  -7   2  -1   49.82    2.66
  -7   2  -1   48.40    2.26
   7  -2   1   48.93    2.60
  -8   2  -1   10.51    0.81
  -8   2  -1   12.37    1.41
   8  -2   1   12.21    1.30
  -9   2  -1    1.61    0.69
   9  -2   1    1.36    0.68
   8   1  -1    0.76    0.54
  -8  -1   1    0.90    0.41
  -8  -1   1    0.61    0.53
   7   1  -1    8.83    1.10
  -7  -1   1   11.35    0.91
  -7  -1   1   13.64    1.18
   6   1  -1   29.59    1.67
  -6  -1   1   27.44    1.48
  -6  -1   1   22.14    1.59
   4   1  -1    5.11    0.42
   4   1  -1    5.75    0.59
  -4  -1   1    4.79    0.65
  -4  -1   1    4.55    0.38
  -4  -1   1    5.72    0.56
   3   1  -1  254.90   10.64
   3   1  -1  263.73   10.30
   3   1  -1  263.61    9.98
  -3  -1   1  250.55   10.23
  -3  -1   1  268.09    9.95
  -3  -1   1  239.26   10.68
   2   1  -1   32.23    1.51
   2   1  -1   31.63    1.46
   2   1  -1   36.08    1.40
  -2  -1   1   34.17    1.51
  -2  -1   1   34.41    1.47
  -2  -1   1   34.21    1.37
  -2  -1   1   32.23    1.52
  -2  -1   1   27.91    1.53
   1   1  -1   51.91    2.22
   1   1  -1   54.78    2.18
   1   1  -1   55.59    2.13
   1   1  -1   55.55    2.29
   1   1  -1   52.81    2.30
  -1  -1   1   52.66    2.22
  -1  -1   1   55.09    2.28
  -1  -1   1   55.09    2.30
  -1  -1   1   53.32    2.12
  -1  -1   1   53.43    2.13
  -1   1  -1    0.67    0.10
  -1   1  -1    0.74    0.15
  -1   1  -1    0.72    0.11
  -1   1  -1    0.55    0.12
  -1   1  -1    1.14    0.13
   1  -1   1    0.72    0.11
   1  -1   1    0.67    0.15
   1  -1   1    0.90    0.15
  -2   1  -1   52.63    2.16
  -2   1  -1   57.55    2.18
  -2   1  -1   53.95    2.35
  -2   1  -1   53.25    2.15
  -2   1  -1   53.47    2.22
   2  -1   1   48.69    2.23
   2  -1   1   57.19    2.34
   2  -1   1   51.91    2.16
   2  -1   1   52.52    2.36
  -3   1  -1   11.61    0.74
  -3   1  -1   11.57    0.64
  -3   1  -1   12.19    0.64
  -3   1  -1   11.66    0.62
  -3   1  -1   11.53    0.59
   3  -1   1   12.29    0.73
  -4   1  -1  159.39    6.73
  -4   1  -1  163.65    6.45
  -4   1  -1  161.03    6.96
  -4   1  -1  166.22    6.53
   4  -1   1  162.47    6.93
  -5   1  -1    9.11    0.91
  -5   1  -1    8.59    0.57
  -5   1  -1    8.21    0.60
   5  -1   1    7.96    0.81
  -6   1  -1   -0.37    0.28
  -6   1  -1   -0.11    0.13
  -6   1  -1    0.02    0.19
   6  -1   1   -0.15    0.28
  -7   1  -1   20.03    1.44
  -7   1  -1   18.94    1.11
   7  -1   1   16.77    1.35
  -8   1  -1    3.68    0.83
  -8   1  -1    2.88    0.52
   8  -1   1    3.91    0.84
  -9   1  -1    0.46    0.50
   9  -1   1    0.03    0.61
   9   0  -1    1.03    0.71
  -9   0   1    1.71    0.55
  -9   0   1   -0.34    0.53
   8   0  -1    3.99    0.81
  -8   0   1    3.99    0.83
  -8   0   1    3.61    0.62
   7   0  -1    0.92    0.49
  -7   0   1    0.83    0.45
  -7   0   1    0.99    0.38
   6   0  -1   -0.18    0.29
  -6   0   1    0.20    0.29
  -6   0   1    0.00    0.20
  -6   0   1    0.18    0.22
   5   0  -1   43.10    2.19
  -5   0   1   45.04    1.96
  -5   0   1   43.61    2.26
  -5   0   1   42.81    2.03
   4   0  -1    1.04    0.28
   4   0  -1    0.90    0.21
  -4   0   1    1.39    0.28
  -4   0   1    1.26    0.23
  -4   0   1    1.56    0.38
   3   0  -1   15.70    0.87
   3   0  -1   15.57    0.76
  -3   0   1   15.29    0.81
  -3   0   1   13.91    0.89
  -3   0   1   16.43    0.77
   2   0  -1  227.78    8.71
   2   0  -1  231.91    9.29
  -2   0   1  223.75    8.71
  -2   0   1  238.26    9.32
  -2   0   1  225.14    9.28
  -2   0   1  207.27    8.92
   1   0  -1   36.19    1.53
   1   0  -1   35.09    1.41
   1   0  -1   35.27    1.53
  -1   0   1   35.86    1.53
  -1   0   1   34.83    1.41
  -1   0   1   35.43    1.53
   0   0  -1   98.25    4.12
   0   0  -1   98.42    4.14
   0   0  -1  100.19    4.17
   0   0  -1   96.66    3.89
   0   0   1  108.48    3.90
   0   0   1  104.62    4.17
   0   0   1  107.05    4.13
   0   0   1   94.71    3.90
  -1   0  -1  329.92   12.99
  -1   0  -1  324.24   12.85
  -1   0  -1  310.35   12.44
  -1   0  -1  329.44   12.21
  -1   0  -1  321.03   13.01
  -1   0  -1  322.57   12.21
   1   0   1  314.97   12.21
   1   0   1  326.16   12.21
   1   0   1  314.47   12.98
   1   0   1  304.40   13.00
   1   0   1  309.74   12.85
   1   0   1  313.08   12.44
  -2   0  -1    3.56    0.29
  -2   0  -1    3.98    0.34
  -2   0  -1    4.87    0.44
  -2   0  -1    3.64    0.27
  -2   0  -1    4.20    0.27
   2   0   1    3.75    0.28
   2   0   1    4.09    0.36
   2   0   1    4.42    0.31
   2   0   1    4.07    0.29
  -3   0  -1   31.22    1.37
  -3   0  -1   32.10    1.37
  -3   0  -1   31.86    1.55
  -3   0  -1   28.05    1.44
   3   0   1   30.83    1.38
   3   0   1   30.40    1.36
   3   0   1   29.72    1.50
  -4   0  -1   69.78    3.01
  -4   0  -1   70.32    3.15
  -4   0  -1   69.47    2.84
  -4   0  -1   66.29    2.86
   4   0   1   61.55    3.07
  -5   0  -1    1.29    0.34
  -5   0  -1    0.71    0.31
  -5   0  -1    0.97    0.26
  -5   0  -1    0.77    0.24
   5   0   1    1.45    0.39
  -6   0  -1    2.83    0.45
  -6   0  -1    2.22    0.56
   6   0   1    2.00    0.52
  -7   0  -1    0.20    0.27
  -7   0  -1    0.54    0.44
   7   0   1    0.48    0.47
  -8   0  -1    3.88    0.61
  -8   0  -1    3.35    0.81
   8   0   1    2.92    0.72
   9  -1  -1   -0.19    0.50
  -9   1   1   -0.70    0.45
  -9   1   1   -0.36    0.28
   8  -1  -1    3.26    0.73
  -8   1   1    2.79    0.51
  -8   1   1    3.52    0.77
   7  -1  -1   54.77    2.94
  -7   1   1   57.56    2.68
  -7   1   1   60.22    3.03
   6  -1  -1   70.72    3.37
  -6   1   1   66.64    3.42
  -6   1   1   71.46    3.13
  -6   1   1   72.58    3.07
   5  -1  -1    0.37    0.24
  -5   1   1   -0.10    0.12
  -5   1   1   -0.08    0.13
  -5   1   1   -0.01    0.22
   4  -1  -1    0.48    0.23
  -4   1   1    0.43    0.22
  -4   1   1    0.92    0.21
  -4   1   1    0.75    0.19
   3  -1  -1   57.86    2.51
  -3   1   1   59.16    2.32
  -3   1   1   51.41    2.52
   2  -1  -1  543.88   22.16
   2  -1  -1  561.53   22.18
   2  -1  -1  530.38   20.83
  -2   1   1  541.71   22.17
   1  -1  -1    2.97    0.26
   1  -1  -1    2.81    0.23
   1  -1  -1    2.71    0.16
   1  -1  -1    2.88    0.21
  -1   1   1    3.07    0.22
  -1   1   1    2.19    0.16
  -1   1   1    2.67    0.21
   0  -1  -1  170.33    6.56
   0  -1  -1  164.87    6.40
   0  -1  -1  161.57    6.86
   0  -1  -1  169.24    6.41
   0  -1  -1  168.17    6.82
   0  -1  -1  169.33    6.83
   0  -1  -1  165.19    6.59
   0   1   1  165.93    6.86
   0   1   1  175.20    6.42
   0   1   1  163.70    6.59
   0   1   1  167.13    6.41
   0   1   1  164.70    6.82
  -1  -1  -1   19.01    0.89
  -1  -1  -1   20.67    0.94
  -1  -1  -1   20.86    0.87
  -1  -1  -1   19.34    0.97
  -1  -1  -1   20.31    0.84
  -1  -1  -1   19.28    0.98
  -1  -1  -1   18.63    0.84
   1   1   1   20.29    0.93
   1   1   1   19.56    0.86
   1   1   1   18.43    0.89
   1   1   1   20.31    0.86
  -2  -1  -1   19.33    0.87
  -2  -1  -1   18.46    1.00
  -2  -1  -1   19.47    0.84
  -2  -1  -1   19.58    0.93
  -2  -1  -1   19.29    1.03
   2   1   1   19.90    0.89
   2   1   1   18.19    0.98
   2   1   1   18.99    0.89
   2   1   1   17.99    0.92
  -3  -1  -1    2.56    0.41
  -3  -1  -1    2.48    0.29
  -3  -1  -1    2.03    0.29
  -3  -1  -1    2.19    0.36
   3   1   1    2.53    0.30
   3   1   1    2.06    0.30
   3   1   1    2.22    0.36
   3   1   1    1.98    0.30
  -4  -1  -1   15.58    0.85
  -4  -1  -1   16.86    0.92
  -4  -1  -1   17.14    1.02
  -4  -1  -1   15.52    1.06
   4   1   1   15.57    0.88
   4   1   1   16.04    1.02
  -5  -1  -1   18.48    1.06
  -5  -1  -1   17.72    1.16
  -5  -1  -1   18.63    1.26
  -5  -1  -1   18.99    1.00
   5   1   1   18.86    1.21
   5   1   1   15.99    1.03
  -6  -1  -1    3.07    0.60
  -6  -1  -1    3.92    0.66
  -6  -1  -1    2.85    0.50
   6   1   1    3.15    0.62
  -7  -1  -1   -0.37    0.26
  -7  -1  -1    0.31    0.41
   7   1   1   -0.16    0.41
  -8  -1  -1    8.80    1.34
  -8  -1  -1    6.81    0.86
   8   1   1    7.16    1.10
   9  -2  -1    0.58    0.54
  -9   2   1    1.25    0.63
  -9   2   1    0.86    0.36
   8  -2  -1    0.93    0.46
  -8   2   1    1.80    0.43
  -8   2   1    1.47    0.51
   7  -2  -1   10.29    1.09
  -7   2   1   10.89    0.82
  -7   2   1   11.24    0.82
  -7   2   1   11.22    1.03
   6  -2  -1  100.48    4.79
  -6   2   1   99.74    4.42
  -6   2   1  114.40    4.91
  -6   2   1  113.01    4.53
   5  -2  -1   42.47    2.03
  -5   2   1   35.99    1.79
  -5   2   1   42.98    2.08
   4  -2  -1   31.82    1.40
   4  -2  -1   27.36    1.56
  -4   2   1   35.86    1.65
  -4   2   1   34.06    1.45
   3  -2  -1    0.06    0.18
   3  -2  -1    0.31    0.15
  -3   2   1    1.02    0.18
  -3   2   1    0.09    0.15
   1  -2  -1   17.04    0.85
   1  -2  -1   16.73    0.83
   1  -2  -1   17.33    0.81
   1  -2  -1   17.14    0.78
  -1   2   1   18.68    0.80
  -1   2   1   16.61    0.78
  -1   2   1   15.87    0.69
  -1   2   1   17.31    0.71
   0  -2  -1    8.03    0.47
   0  -2  -1    8.45    0.56
   0  -2  -1    8.14    0.43
   0  -2  -1    5.73    0.54
   0  -2  -1    8.85    0.51
   0   2   1    9.02    0.39
   0   2   1    8.29    0.48
   0   2   1    8.07    0.37
   0   2   1    8.41    0.44
  -1  -2  -1  299.24   11.65
  -1  -2  -1  292.68   12.06
  -1  -2  -1  296.55   11.55
  -1  -2  -1  283.94   12.09
  -1  -2  -1  288.85   12.04
  -1  -2  -1  284.79   11.29
   1   2   1  305.11   12.06
   1   2   1  307.40   11.66
   1   2   1  290.50   11.33
   1   2   1  296.32   11.32
  -2  -2  -1   48.37    2.00
  -2  -2  -1   44.87    2.19
  -2  -2  -1   52.47    2.08
  -2  -2  -1   53.93    2.28
  -2  -2  -1   43.05    2.13
  -2  -2  -1   50.06    2.29
   2   2   1   48.30    2.05
   2   2   1   51.13    2.22
   2   2   1   49.96    2.04
  -3  -2  -1  103.30    4.56
  -3  -2  -1  106.40    4.57
  -3  -2  -1  103.65    4.18
  -3  -2  -1  103.04    4.15
  -3  -2  -1  104.89    4.37
   3   2   1  100.00    4.51
   3   2   1  106.35    4.21
  -4  -2  -1    5.33    0.49
  -4  -2  -1    4.71    0.62
  -4  -2  -1    4.16    0.53
  -4  -2  -1    5.30    0.65
   4   2   1    5.71    0.55
   4   2   1    5.51    0.64
  -5  -2  -1    2.66    0.55
  -5  -2  -1    2.32    0.52
  -5  -2  -1    2.38    0.44
   5   2   1    3.01    0.59
  -6  -2  -1    3.18    0.64
  -6  -2  -1    2.28    0.62
  -6  -2  -1    2.79    0.53
   6   2   1    2.88    0.64
  -7  -2  -1    0.01    0.31
  -7  -2  -1   -0.31    0.41
   7   2   1    0.46    0.48
  -8  -2  -1    5.50    0.82
  -8  -2  -1    7.06    1.13
   8   2   1    6.80    1.20
   9  -3  -1    0.55    0.50
  -9   3   1    0.47    0.54
  -9   3   1    0.64    0.35
   8  -3  -1    1.32    0.52
  -8   3   1    0.77    0.33
  -8   3   1    0.45    0.42
   7  -3  -1   14.30    1.11
  -7   3   1   14.02    0.94
  -7   3   1   14.12    0.96
  -7   3   1   15.22    1.15
   6  -3  -1   19.71    0.97
   6  -3  -1   20.47    1.26
  -6   3   1   21.66    1.30
  -6   3   1   19.42    1.10
   5  -3  -1   20.47    1.17
   5  -3  -1   20.11    0.97
  -5   3   1   18.99    1.01
  -5   3   1   19.35    1.16
   4  -3  -1    5.06    0.51
   4  -3  -1    4.36    0.37
  -4   3   1    5.32    0.52
  -4   3   1    4.33    0.38
   3  -3  -1   62.38    2.87
   3  -3  -1   66.26    2.78
   3  -3  -1   67.52    2.88
  -3   3   1   68.77    2.88
  -3   3   1   65.08    2.66
   2  -3  -1   65.54    2.83
   2  -3  -1   65.24    2.83
   2  -3  -1   66.75    2.83
   2  -3  -1   66.80    2.80
  -2   3   1   65.46    2.61
  -2   3   1   68.19    2.82
   1  -3  -1   81.16    3.39
   1  -3  -1   80.64    3.48
   1  -3  -1   82.06    3.42
  -1   3   1   82.32    3.36
   0  -3  -1   34.67    1.60
   0  -3  -1   35.90    1.59
   0  -3  -1   36.40    1.63
   0  -3  -1   36.02    1.71
   0   3   1   35.15    1.55
   0   3   1   37.26    1.61
  -1  -3  -1    0.28    0.14
  -1  -3  -1    0.41    0.24
  -1  -3  -1    0.40    0.17
  -1  -3  -1    0.27    0.20
  -1  -3  -1    0.08    0.14
   1   3   1    0.27    0.14
   1   3   1    0.16    0.10
   1   3   1    0.20    0.10
  -2  -3  -1   99.56    4.24
  -2  -3  -1  101.16    4.37
  -2  -3  -1  100.11    4.15
  -2  -3  -1  100.51    4.32
  -2  -3  -1   98.92    4.44
   2   3   1  103.97    4.34
   2   3   1  100.40    4.05
   2   3   1  102.10    4.04
  -3  -3  -1   64.17    2.77
  -3  -3  -1   58.15    2.87
  -3  -3  -1   61.69    2.63
  -3  -3  -1   64.27    2.96
   3   3   1   62.62    2.83
   3   3   1   60.91    2.60
   3   3   1   59.39    2.63
  -4  -3  -1   27.77    1.32
  -4  -3  -1   27.31    1.65
  -4  -3  -1   29.21    1.52
  -4  -3  -1   28.60    1.64
   4   3   1   26.23    1.42
   4   3   1   27.53    1.40
   4   3   1   28.55    1.58
  -5  -3  -1   14.64    1.13
  -5  -3  -1   12.30    1.10
  -5  -3  -1   14.98    1.02
   5   3   1   13.66    1.07
  -6  -3  -1    2.21    0.62
  -6  -3  -1    2.18    0.59
  -6  -3  -1    2.21    0.50
   6   3   1    2.05    0.60
  -7  -3  -1    4.98    0.75
  -7  -3  -1    6.16    1.01
  10  -4  -1    1.20    0.68
 -10   4   1    1.39    0.72
   9  -4  -1    1.73    0.60
  -9   4   1    1.39    0.57
  -9   4   1    1.58    0.43
   8  -4  -1   15.44    1.28
  -8   4   1   17.68    1.07
  -8   4   1   15.21    1.08
  -8   4   1   16.12    1.30
   7  -4  -1   19.93    1.32
   7  -4  -1   19.11    1.00
  -7   4   1   21.91    1.38
  -7   4   1   19.68    1.16
   6  -4  -1   43.57    1.96
   6  -4  -1   41.65    2.18
  -6   4   1   45.61    2.01
  -6   4   1   42.50    2.20
   5  -4  -1    0.84    0.25
   5  -4  -1    0.75    0.27
  -5   4   1    1.01    0.24
  -5   4   1    0.94    0.29
   4  -4  -1  168.91    7.08
   4  -4  -1  171.73    6.81
   4  -4  -1  171.88    7.09
  -4   4   1  156.82    6.61
  -4   4   1  172.70    7.09
   3  -4  -1  193.01    7.67
   3  -4  -1  191.87    7.91
   3  -4  -1  184.04    7.91
  -3   4   1  192.70    7.91
  -3   4   1  192.07    7.40
   2  -4  -1   71.25    3.19
   2  -4  -1   71.26    3.15
  -2   4   1   75.91    3.12
  -2   4   1   77.14    3.12
   1  -4  -1    4.27    0.48
   1  -4  -1    4.14    0.47
   0  -4  -1   27.12    1.35
   0  -4  -1   26.48    1.42
   0  -4  -1   28.07    1.35
   0   4   1   27.65    1.22
  -1  -4  -1   51.96    2.28
  -1  -4  -1   49.71    2.46
  -1  -4  -1   52.56    2.33
  -1  -4  -1   52.86    2.35
  -1  -4  -1   51.35    2.32
   1   4   1   52.06    2.28
   1   4   1   49.75    2.13
   1   4   1   54.48    2.13
  -2  -4  -1   75.74    3.32
  -2  -4  -1   75.66    3.28
  -2  -4  -1   73.12    3.26
  -2  -4  -1   74.78    3.19
  -2  -4  -1   68.65    3.43
   2   4   1   72.38    3.05
   2   4   1   77.46    3.05
   2   4   1   74.01    3.26
  -3  -4  -1    0.24    0.36
  -3  -4  -1    0.60    0.23
  -3  -4  -1   -0.02    0.25
  -3  -4  -1   -0.09    0.26
   3   4   1    0.24    0.19
   3   4   1    0.03    0.16
   3   4   1    0.30    0.25
  -4  -4  -1    9.19    0.90
  -4  -4  -1    8.83    0.65
  -4  -4  -1    9.63    1.07
  -4  -4  -1    9.09    0.83
   4   4   1    8.25    0.77
   4   4   1    8.59    0.70
  -5  -4  -1    3.72    0.67
  -5  -4  -1    4.04    0.65
  -5  -4  -1    3.68    0.75
  -6  -4  -1    0.63    0.48
  -6  -4  -1    0.77    0.39
  -6  -4  -1    1.04    0.52
   9  -5  -1    1.95    0.64
  -9   5   1    1.41    0.57
   8  -5  -1    4.51    0.75
  -8   5   1    3.67    0.58
  -8   5   1    2.97    0.66
   7  -5  -1    5.11    0.53
   7  -5  -1    4.32    0.67
  -7   5   1    4.34    0.57
  -7   5   1    5.40    0.73
   6  -5  -1   11.92    0.77
   6  -5  -1   10.58    0.87
  -6   5   1   12.41    0.76
  -6   5   1   10.13    0.84
   5  -5  -1   11.42    0.77
   5  -5  -1   11.81    0.81
  -5   5   1   10.81    0.79
  -5   5   1   12.47    0.71
   4  -5  -1    8.28    0.60
   4  -5  -1    8.01    0.64
   4  -5  -1    8.45    0.59
  -4   5   1    8.58    0.51
  -4   5   1    9.05    0.60
   3  -5  -1   66.64    3.05
   3  -5  -1   72.04    3.02
   3  -5  -1   70.71    3.05
  -3   5   1   68.23    2.78
  -3   5   1   70.58    3.00
   2  -5  -1   75.79    3.30
   2  -5  -1   73.61    3.26
   1  -5  -1   30.00    1.47
   1  -5  -1   29.14    1.52
   1  -5  -1   28.81    1.49
   0  -5  -1    1.70    0.35
   0  -5  -1    1.23    0.30
   0  -5  -1    2.05    0.42
  -1  -5  -1    8.78    0.61
  -1  -5  -1   10.45    0.73
  -1  -5  -1   10.26    0.75
  -1  -5  -1   10.10    0.83
   1   5   1    9.67    0.53
   1   5   1    9.44    0.58
   1   5   1    8.99    0.53
  -2  -5  -1   40.82    1.94
  -2  -5  -1   39.92    2.15
  -2  -5  -1   41.51    1.95
  -2  -5  -1   37.52    1.97
   2   5   1   37.07    1.75
   2   5   1   39.94    1.89
   2   5   1   39.08    1.75
  -3  -5  -1   56.39    2.71
  -3  -5  -1   63.43    3.08
  -3  -5  -1   58.07    2.83
  -3  -5  -1   62.23    2.86
   3   5   1   55.96    2.82
   3   5   1   61.46    2.60
   3   5   1   60.41    2.64
  -4  -5  -1    0.49    0.34
  -4  -5  -1    0.50    0.31
  -4  -5  -1    0.45    0.36
  -4  -5  -1    0.47    0.50
   4   5   1    0.58    0.29
  -5  -5  -1    9.38    1.11
  -5  -5  -1    8.10    0.97
  -5  -5  -1    8.37    1.12
  -6  -5  -1    3.41    0.82
  -6  -5  -1    2.89    0.75
  -6  -5  -1    3.12    0.71
   9  -6  -1    2.18    0.65
  -9   6   1    1.19    0.40
   8  -6  -1    0.73    0.45
  -8   6   1    1.21    0.37
   7  -6  -1    3.54    0.49
   7  -6  -1    3.46    0.59
  -7   6   1    3.13    0.59
  -7   6   1    2.42    0.42
   6  -6  -1    6.72    0.70
   6  -6  -1    7.34    0.76
  -6   6   1    6.79    0.56
  -6   6   1    6.87    0.74
   5  -6  -1   12.90    0.84
   5  -6  -1   10.94    0.85
  -5   6   1   13.01    0.83
  -5   6   1   12.23    0.72
   4  -6  -1    5.87    0.48
   4  -6  -1    4.81    0.42
   4  -6  -1    5.58    0.62
  -4   6   1    4.91    0.37
  -4   6   1    5.55    0.44
   3  -6  -1    7.91    0.68
   3  -6  -1    9.29    0.66
   2  -6  -1    3.73    0.51
   2  -6  -1    3.34    0.48
   1  -6  -1   42.52    2.07
   1  -6  -1   44.37    2.16
   1  -6  -1   42.38    2.12
   0  -6  -1    2.26    0.52
   0  -6  -1    3.23    0.50
   0  -6  -1    3.64    0.53
  -1  -6  -1    4.46    0.74
  -1  -6  -1    5.14    0.68
  -1  -6  -1    5.91    0.69
  -1  -6  -1    5.97    0.49
   1   6   1    6.45    0.44
   1   6   1    5.75    0.43
  -2  -6  -1    0.48    0.31
  -2  -6  -1    0.32    0.37
  -2  -6  -1    0.00    0.21
  -2  -6  -1    0.20    0.31
   2   6   1   -0.12    0.13
   2   6   1    0.04    0.17
  -3  -6  -1    4.37    0.70
  -3  -6  -1    5.34    0.67
  -3  -6  -1    4.60    0.63
  -3  -6  -1    6.00    0.89
   3   6   1    3.82    0.51
  -4  -6  -1    0.02    0.42
  -4  -6  -1    0.19    0.37
  -4  -6  -1    0.78    0.39
  -5  -6  -1   -0.04    0.42
  -5  -6  -1    0.40    0.53
  -5  -6  -1    0.01    0.39
   9  -7  -1    0.38    0.48
  -9   7   1    0.74    0.37
   8  -7  -1    0.75    0.46
  -8   7   1    0.02    0.21
   7  -7  -1    0.90    0.40
   7  -7  -1    1.04    0.37
  -7   7   1    0.84    0.31
   6  -7  -1    0.95    0.37
   6  -7  -1    1.29    0.39
  -6   7   1    1.52    0.32
   5  -7  -1    0.59    0.32
   5  -7  -1    0.83    0.32
  -5   7   1    0.34    0.21
   4  -7  -1    0.88    0.36
  -4   7   1    1.64    0.24
   3  -7  -1    1.15    0.37
   3  -7  -1    1.10    0.35
   2  -7  -1    2.41    0.49
   2  -7  -1    3.03    0.54
   1  -7  -1    1.17    0.37
   1  -7  -1    0.25    0.36
   0  -7  -1   18.99    1.25
   0  -7  -1   19.06    1.36
   0  -7  -1   18.52    1.26
  -1  -7  -1   -0.19    0.31
  -1  -7  -1    0.24    0.33
  -1  -7  -1    0.07    0.25
   1   7   1   -0.04    0.16
   1   7   1   -0.14    0.12
  -2  -7  -1    6.02    0.73
  -2  -7  -1    5.32    0.77
  -2  -7  -1    3.09    0.68
   2   7   1    4.88    0.52
   2   7   1    5.62    0.60
  -3  -7  -1    6.29    1.02
  -3  -7  -1    5.65    0.83
  -3  -7  -1    6.99    0.85
  -3  -7  -1    7.70    0.80
   3   7   1    7.20    0.72
  -4  -7  -1    0.02    0.38
  -4  -7  -1    0.98    0.52
  -4  -7  -1    0.26    0.51
   9  -8  -1    0.98    0.54
  -9   8   1    0.20    0.35
   8  -8  -1    0.08    0.33
   8  -8  -1    0.75    0.50
  -8   8   1    0.91    0.35
   7  -8  -1    3.79    0.64
   7  -8  -1    3.29    0.60
  -7   8   1    4.24    0.55
   6  -8  -1    0.41    0.29
   6  -8  -1    0.13    0.30
  -6   8   1    0.08    0.19
   5  -8  -1   10.22    1.01
  -5   8   1   10.33    0.64
   4  -8  -1   48.18    2.47
   4  -8  -1   51.83    2.34
  -4   8   1   46.12    2.02
   3  -8  -1   -0.17    0.32
   3  -8  -1    0.56    0.35
   2  -8  -1    6.94    0.85
   2  -8  -1   11.07    1.04
   1  -8  -1   15.89    1.19
   1  -8  -1   15.84    1.23
   0  -8  -1    6.19    0.82
   0  -8  -1    7.54    0.96
   0  -8  -1    7.62    0.90
  -1  -8  -1    0.28    0.43
  -1  -8  -1   -0.62    0.28
  -1  -8  -1    0.09    0.33
   1   8   1    0.30    0.20
   1   8   1    0.09    0.16
  -2  -8  -1    1.03    0.56
  -2  -8  -1    1.58    0.55
  -2  -8  -1    1.38    0.48
   2   8   1    1.27    0.33
  -3  -8  -1    0.53    0.43
  -3  -8  -1    0.28    0.52
  -3  -8  -1    0.34    0.43
   3   8   1    0.72    0.32
   8  -9  -1    3.62    0.69
   8  -9  -1    4.52    0.76
  -8   9   1    3.79    0.59
   7  -9  -1    1.33    0.46
   7  -9  -1    1.63    0.50
  -7   9   1    1.09    0.35
   6  -9  -1   -0.39    0.28
  -6   9   1    0.14    0.19
   5  -9  -1   -0.07    0.31
  -5   9   1    0.42    0.19
   4  -9  -1    1.52    0.47
   4  -9  -1    1.31    0.45
   3  -9  -1    1.19    0.46
   3  -9  -1    1.80    0.52
   2  -9  -1    6.34    0.87
   2  -9  -1    4.40    0.75
   1  -9  -1   16.25    1.29
   1  -9  -1   17.60    1.35
   0  -9  -1    2.06    0.57
   0  -9  -1    3.17    0.61
   0  -9  -1    2.81    0.66
  -1  -9  -1    0.97    0.46
  -1  -9  -1    1.47    0.62
  -1  -9  -1    0.92    0.50
   1   9   1    1.03    0.27
  -2  -9  -1    0.84    0.52
  -2  -9  -1    0.74    0.49
  -2  -9  -1    1.28    0.54
   2   9   1    0.82    0.26
   7 -10  -1    1.65    0.53
  -7  10   1    0.75    0.32
   6 -10  -1    2.44    0.62
  -6  10   1    4.48    0.49
   5 -10  -1    0.74    0.43
  -5  10   1    0.90    0.25
   4 -10  -1    1.05    0.44
   3 -10  -1    0.95    0.44
   3 -10  -1    0.68    0.44
   2 -10  -1   -0.17    0.36
   2 -10  -1   -0.20    0.39
   1 -10  -1    0.73    0.52
   1 -10  -1    0.48    0.37
   0 -10  -1    1.08    0.49
   0 -10  -1    1.78    0.69
   5 -11  -1   -0.07    0.37
   4 -11  -1    0.52    0.46
   3 -11  -1    0.20    0.45
   2 -11   2    0.79    0.54
   3 -11   2    0.96    0.54
   4 -11   2   -0.05    0.40
   5 -11   2    0.55    0.50
  -1 -10   2    1.31    0.60
   0 -10   2    3.17    0.72
   1 -10   2    1.10    0.50
   1 -10   2    1.78    0.55
   2 -10   2    0.65    0.45
   3 -10   2    0.70    0.42
   4 -10   2   -0.21    0.30
  -5  10  -2    6.14    0.50
   5 -10   2    4.91    0.81
  -6  10  -2    0.15    0.23
   6 -10   2    0.27    0.40
  -7  10  -2    0.11    0.21
  -2  -9   2   11.17    1.24
  -1  -9   2   -0.25    0.38
   0  -9   2    1.03    0.47
   0  -9   2    0.22    0.36
   1  -9   2   14.40    1.24
   1  -9   2   19.00    1.29
   2  -9   2   -0.25    0.26
   3  -9   2    0.37    0.37
   4  -9   2    0.18    0.38
  -5   9  -2    5.46    0.46
   5  -9   2    4.17    0.71
  -6   9  -2    1.93    0.37
   6  -9   2    2.03    0.52
  -7   9  -2    0.02    0.27
   7  -9   2   -0.17    0.34
  -8   9  -2   -0.25    0.28
   8  -9   2    0.61    0.48
  -3  -8   2    7.00    0.93
   2   8  -2   15.03    0.88
  -2  -8   2   18.26    1.30
  -1  -8   2   -0.09    0.36
  -1  -8   2   -0.15    0.29
   0  -8   2    7.47    0.82
   0  -8   2    5.23    0.79
   0  -8   2    5.31    0.77
   1  -8   2    9.47    0.83
   1  -8   2   10.04    0.89
   1  -8   2    8.73    0.96
   2  -8   2    6.79    0.80
   3  -8   2    0.53    0.34
   4  -8   2    0.78    0.38
  -5   8  -2    1.92    0.31
   5  -8   2    3.40    0.59
  -6   8  -2    5.25    0.56
   6  -8   2    5.48    0.72
   6  -8   2    4.82    0.61
  -7   8  -2    3.79    0.56
   7  -8   2    2.99    0.58
  -8   8  -2    0.58    0.36
   8  -8   2    0.76    0.51
  -5  -7   2    2.44    0.70
  -5  -7   2    3.46    0.67
  -4  -7   2    1.13    0.41
  -4  -7   2    1.26    0.49
  -3  -7   2    4.58    0.59
  -3  -7   2    6.45    0.86
   2   7  -2    6.30    0.50
  -2  -7   2    7.16    0.84
  -2  -7   2    6.10    0.87
  -1  -7   2    8.65    0.98
  -1  -7   2    8.97    0.89
  -1  -7   2    8.23    0.88
   0  -7   2    2.02    0.42
   0  -7   2    1.57    0.43
   0  -7   2    1.78    0.47
   1  -7   2    1.52    0.40
   1  -7   2    0.92    0.31
   1  -7   2    0.88    0.37
   2  -7   2   29.46    1.65
   3  -7   2   15.76    1.08
  -4   7  -2   28.73    1.31
   4  -7   2   30.27    1.63
  -5   7  -2    0.04    0.16
   5  -7   2    0.16    0.27
   5  -7   2    0.22    0.23
  -6   7  -2   -0.13    0.19
   6  -7   2   -0.16    0.27
   6  -7   2    0.08    0.27
  -7   7  -2    1.39    0.35
   7  -7   2    1.12    0.43
  -8   7  -2    1.93    0.46
   8  -7   2    1.13    0.44
  -9   7  -2    2.33    0.52
   9  -7   2    2.45    0.63
  -6  -6   2    5.55    0.92
  -5  -6   2    0.35    0.41
  -5  -6   2   -0.12    0.34
  -4  -6   2   -0.18    0.28
  -4  -6   2    0.13    0.36
   3   6  -2   22.75    1.19
  -3  -6   2   25.05    1.48
  -3  -6   2   22.80    1.30
   2   6  -2   17.03    0.88
  -2  -6   2   16.67    1.13
  -2  -6   2   16.64    1.21
  -2  -6   2   17.36    0.95
  -1  -6   2    9.32    0.84
  -1  -6   2    9.40    0.79
  -1  -6   2   10.13    0.79
   0  -6   2    5.09    0.63
   0  -6   2    5.50    0.65
   0  -6   2    6.00    0.61
   1  -6   2    2.83    0.45
   1  -6   2    3.05    0.42
   1  -6   2    3.18    0.47
   2  -6   2   14.61    0.81
   2  -6   2   11.53    0.89
  -3   6  -2   18.82    0.93
  -3   6  -2   19.15    0.96
   3  -6   2   18.44    1.13
  -4   6  -2   64.88    2.77
  -4   6  -2   68.24    2.94
  -4   6  -2   63.17    2.72
   4  -6   2   67.27    2.93
   4  -6   2   65.62    2.98
   4  -6   2   68.30    2.99
  -5   6  -2   37.63    1.88
  -5   6  -2   37.45    1.72
   5  -6   2   39.38    1.90
   5  -6   2   37.01    1.86
  -6   6  -2    6.42    0.75
  -6   6  -2    6.81    0.67
   6  -6   2    6.61    0.74
  -7   6  -2    4.15    0.70
  -7   6  -2    3.48    0.53
   7  -6   2    3.97    0.68
  -8   6  -2    8.30    0.91
   8  -6   2    6.05    0.91
   9  -6   2    4.66    0.84
  -6  -5   2    0.85    0.47
  -6  -5   2    0.43    0.45
  -5  -5   2   10.78    1.01
  -5  -5   2   13.02    1.09
  -4  -5   2    1.50    0.43
  -4  -5   2    1.42    0.39
   3   5  -2    2.59    0.35
   3   5  -2    2.11    0.41
  -3  -5   2    3.11    0.48
  -3  -5   2    2.39    0.49
   2   5  -2   21.00    0.94
   2   5  -2   18.35    1.01
  -2  -5   2   19.24    1.24
  -2  -5   2   16.88    0.97
  -2  -5   2   20.65    1.19
  -2  -5   2   20.63    1.05
  -1  -5   2   29.22    1.46
  -1  -5   2   28.23    1.54
  -1  -5   2   27.98    1.48
   0  -5   2   38.84    1.79
   0  -5   2   36.74    1.85
   0  -5   2   38.79    1.86
   1  -5   2   25.96    1.29
   1  -5   2   27.37    1.33
   1  -5   2   26.93    1.39
  -2   5  -2   27.05    1.23
   2  -5   2   25.41    1.36
  -3   5  -2    0.17    0.11
  -3   5  -2    0.29    0.12
  -3   5  -2    0.21    0.14
   3  -5   2    0.01    0.18
   3  -5   2    0.11    0.15
  -4   5  -2    1.68    0.33
  -4   5  -2    2.21    0.24
  -4   5  -2    1.93    0.28
   4  -5   2    1.94    0.34
   4  -5   2    1.41    0.34
   4  -5   2    2.71    0.39
  -5   5  -2    8.14    0.72
  -5   5  -2    9.41    0.64
  -5   5  -2    9.65    0.63
   5  -5   2    8.81    0.72
  -6   5  -2   -0.26    0.16
  -6   5  -2   -0.06    0.28
   6  -5   2   -0.57    0.22
  -7   5  -2    3.77    0.58
  -7   5  -2    3.75    0.68
   7  -5   2    2.98    0.62
  -8   5  -2   -0.06    0.38
  -8   5  -2    0.48    0.30
   8  -5   2    0.21    0.39
  -9   5  -2    0.81    0.49
   9  -5   2    0.06    0.53
  -7  -4   2    0.90    0.53
  -7  -4   2    1.80    0.59
  -6  -4   2   -0.16    0.32
  -6  -4   2    0.08    0.36
   5   4  -2    9.41    0.94
  -5  -4   2    9.67    1.04
  -5  -4   2    8.07    0.91
   4   4  -2   29.73    1.47
   4   4  -2   29.83    1.62
  -4  -4   2   31.19    1.68
  -4  -4   2   30.76    1.66
   3   4  -2    2.69    0.39
   3   4  -2    1.05    0.24
  -3  -4   2    1.68    0.35
  -3  -4   2    0.97    0.32
  -3  -4   2    0.97    0.24
   2   4  -2   21.60    0.96
   2   4  -2   20.70    1.05
  -2  -4   2   21.80    1.22
  -2  -4   2   19.21    1.12
  -2  -4   2   20.40    1.07
  -2  -4   2   19.10    1.01
   1   4  -2    2.17    0.25
  -1  -4   2    2.38    0.40
  -1  -4   2    1.63    0.30
  -1  -4   2    2.20    0.34
   0   4  -2  205.44    8.11
   0  -4   2  197.88    8.13
   0  -4   2  201.54    8.10
   0  -4   2  204.50    8.37
  -1   4  -2    2.04    0.25
   1  -4   2    1.81    0.31
   1  -4   2    2.24    0.26
  -2   4  -2    1.80    0.22
  -2   4  -2    1.32    0.18
   2  -4   2    1.51    0.20
   2  -4   2    1.00    0.25
  -3   4  -2  168.64    7.03
  -3   4  -2  166.93    6.58
   3  -4   2  167.48    7.06
   3  -4   2  168.48    6.77
   3  -4   2  169.07    7.02
  -4   4  -2    0.14    0.14
  -4   4  -2   -0.03    0.12
  -4   4  -2    0.00    0.17
   4  -4   2    0.04    0.19
  -5   4  -2    3.66    0.42
  -5   4  -2    2.96    0.49
  -5   4  -2    3.45    0.42
   5  -4   2    2.94    0.47
  -6   4  -2   22.90    1.47
  -6   4  -2   24.40    1.29
  -6   4  -2   22.79    1.11
   6  -4   2   24.78    1.46
  -7   4  -2    3.39    0.50
  -7   4  -2    2.97    0.37
  -7   4  -2    2.54    0.61
   7  -4   2    4.01    0.67
  -8   4  -2    8.00    1.07
   8  -4   2    6.02    0.94
  -9   4  -2    0.51    0.51
   9  -4   2    0.20    0.57
  -8  -3   2   -0.56    0.43
  -8  -3   2   -0.23    0.40
  -7  -3   2   -0.57    0.38
  -7  -3   2    0.06    0.31
   6   3  -2    2.51    0.60
  -6  -3   2    3.29    0.61
  -6  -3   2    1.96    0.54
   5   3  -2    4.77    0.65
  -5  -3   2    4.64    0.70
  -5  -3   2    4.34    0.63
   4   3  -2    5.60    0.54
   4   3  -2    6.22    0.67
  -4  -3   2    5.49    0.63
  -4  -3   2    6.68    0.76
   3   3  -2    1.16    0.29
   3   3  -2    1.67    0.27
  -3  -3   2    1.35    0.30
  -3  -3   2    0.88    0.27
   2   3  -2   25.04    1.11
   2   3  -2   25.41    1.23
  -2  -3   2   23.45    1.20
  -2  -3   2   25.95    1.26
  -2  -3   2   27.12    1.28
   1   3  -2   16.91    0.83
   1   3  -2   17.21    0.74
   1   3  -2   17.24    0.88
  -1  -3   2   16.14    0.80
  -1  -3   2   17.42    0.88
  -1  -3   2   16.88    0.85
   0   3  -2  188.60    7.74
   0   3  -2  188.32    7.51
   0  -3   2  189.49    7.51
  -1   3  -2    7.77    0.45
  -1   3  -2    8.52    0.44
   1  -3   2    8.15    0.45
   1  -3   2    8.25    0.44
   1  -3   2    8.84    0.55
  -2   3  -2    0.35    0.11
  -2   3  -2    0.27    0.14
  -2   3  -2    0.39    0.11
   2  -3   2    0.46    0.17
   2  -3   2    0.34    0.15
   2  -3   2    0.20    0.16
  -3   3  -2   44.00    2.02
  -3   3  -2   43.91    1.85
  -3   3  -2   42.80    1.85
   3  -3   2   42.87    2.00
   3  -3   2   43.68    2.04
  -4   3  -2    6.78    0.65
  -4   3  -2    4.91    0.42
  -4   3  -2    4.68    0.42
   4  -3   2    6.00    0.52
  -5   3  -2    4.03    0.60
  -5   3  -2    3.71    0.31
  -5   3  -2    4.43    0.52
  -5   3  -2    5.07    0.52
   5  -3   2    3.93    0.53
  -6   3  -2    3.80    0.69
  -6   3  -2    3.61    0.37
  -6   3  -2    2.80    0.45
   6  -3   2    3.16    0.58
  -7   3  -2    4.98    0.65
  -7   3  -2    4.80    0.50
  -7   3  -2    5.82    0.86
   7  -3   2    5.69    0.82
  -8   3  -2    5.43    0.94
   8  -3   2    6.23    0.96
  -9   3  -2    5.91    1.12
   9  -3   2    3.50    0.84
   8   2  -2    3.92    0.85
  -8  -2   2    2.84    0.65
  -8  -2   2    4.02    0.87
   7   2  -2   23.01    1.59
  -7  -2   2   21.54    1.41
  -7  -2   2   20.66    1.55
   6   2  -2   13.08    1.09
  -6  -2   2   10.67    0.99
  -6  -2   2   12.44    0.94
   5   2  -2   15.56    1.05
   5   2  -2   14.18    0.90
  -5  -2   2   15.28    1.06
  -5  -2   2   14.67    1.01
   4   2  -2   16.63    0.94
   4   2  -2   18.57    1.08
  -4  -2   2   19.02    0.90
  -4  -2   2   17.87    1.06
  -4  -2   2   18.42    1.11
   3   2  -2   33.87    1.61
   3   2  -2   30.96    1.46
  -3  -2   2   32.54    1.41
  -3  -2   2   34.41    1.64
  -3  -2   2   33.59    1.59
   2   2  -2   37.94    1.72
   2   2  -2   37.60    1.74
   2   2  -2   38.90    1.59
  -2  -2   2   35.60    1.71
  -2  -2   2   39.60    1.78
  -2  -2   2   38.58    1.72
  -2  -2   2   38.28    1.56
   1   2  -2  619.50   23.91
   1   2  -2  617.95   24.82
   1   2  -2  595.16   23.32
  -1  -2   2  606.13   24.80
  -1  -2   2  644.94   24.84
  -1  -2   2  579.07   23.90
  -1   2  -2  222.97    8.64
  -1   2  -2  217.02    9.22
  -1   2  -2  230.98    8.63
   1  -2   2  222.32    9.23
   1  -2   2  228.71    9.20
  -2   2  -2   65.82    2.71
  -2   2  -2   66.61    2.94
  -2   2  -2   70.42    2.72
   2  -2   2   69.01    2.92
   2  -2   2   64.95    2.94
  -3   2  -2   61.49    2.52
  -3   2  -2   58.88    2.74
  -3   2  -2   61.35    2.52
   3  -2   2   61.29    2.73
  -4   2  -2    0.15    0.13
  -4   2  -2    0.23    0.11
  -4   2  -2    0.05    0.16
  -4   2  -2    0.14    0.14
   4  -2   2    0.14    0.20
  -5   2  -2    1.43    0.32
  -5   2  -2    0.23    0.25
  -5   2  -2    0.58    0.17
  -5   2  -2    0.66    0.22
   5  -2   2    0.52    0.27
  -6   2  -2    9.56    0.72
  -6   2  -2   10.52    1.07
  -6   2  -2    8.12    0.58
   6  -2   2    9.69    1.01
  -7   2  -2    0.09    0.35
  -7   2  -2    0.15    0.20
   7  -2   2    0.19    0.37
  -8   2  -2    6.33    0.98
   8  -2   2    4.14    0.82
  -9   2  -2    2.56    0.85
   9  -2   2    1.94    0.70
   9   1  -2    1.67    0.74
  -9  -1   2    1.57    0.73
  -9  -1   2    0.99    0.52
   8   1  -2    5.26    0.92
  -8  -1   2    5.32    0.93
  -8  -1   2    4.86    0.76
   7   1  -2   -0.10    0.37
  -7  -1   2   -0.13    0.31
  -7  -1   2   -0.49    0.26
   6   1  -2   36.49    2.02
  -6  -1   2   37.31    2.05
  -6  -1   2   35.61    1.89
   5   1  -2   16.19    0.95
   5   1  -2   17.43    1.10
  -5  -1   2   15.98    1.09
  -5  -1   2   17.12    1.03
  -5  -1   2   16.55    0.90
   4   1  -2   11.31    0.69
   4   1  -2   12.93    0.82
  -4  -1   2   12.41    0.83
  -4  -1   2   12.32    0.78
  -4  -1   2   12.11    0.67
   3   1  -2   35.23    1.56
   3   1  -2   35.17    1.70
  -3  -1   2   35.97    1.53
  -3  -1   2   37.46    1.67
  -3  -1   2   35.48    1.73
   2   1  -2   39.59    1.64
   2   1  -2   39.07    1.79
  -2  -1   2   38.80    1.81
  -2  -1   2   39.78    1.78
  -2  -1   2   38.60    1.74
  -2  -1   2   41.33    1.63
   1   1  -2  374.75   14.17
   1   1  -2  362.81   15.09
  -1  -1   2  361.71   14.52
  -1  -1   2  363.85   14.15
  -1  -1   2  372.81   15.09
  -1  -1   2  383.05   15.09
   0   1  -2  940.56   38.16
  -1   1  -2  894.62   36.30
  -1   1  -2  909.83   35.88
   1  -1   2  875.41   36.30
  -2   1  -2  198.39    7.59
  -2   1  -2  192.62    7.64
  -2   1  -2  197.62    7.95
  -2   1  -2  206.13    7.59
  -2   1  -2  185.68    8.12
   2  -1   2  193.58    7.65
   2  -1   2  191.17    7.58
   2  -1   2  193.82    8.09
  -3   1  -2  156.89    6.10
  -3   1  -2  150.10    6.13
  -3   1  -2  152.64    6.57
  -3   1  -2  153.83    6.37
  -3   1  -2  157.25    6.10
   3  -1   2  145.84    6.14
   3  -1   2  165.94    6.56
  -4   1  -2  257.15    9.98
  -4   1  -2  260.42   10.45
  -4   1  -2  260.84   10.10
  -4   1  -2  234.28   10.69
   4  -1   2  260.27   10.69
  -5   1  -2   -0.20    0.13
  -5   1  -2   -0.31    0.21
  -5   1  -2    0.04    0.17
  -5   1  -2    0.08    0.14
   5  -1   2   -0.11    0.20
  -6   1  -2    3.32    0.51
  -6   1  -2    2.56    0.59
  -6   1  -2    4.05    0.47
  -6   1  -2    3.74    0.51
   6  -1   2    3.25    0.61
  -7   1  -2   14.94    1.31
  -7   1  -2   14.25    0.95
   7  -1   2   16.73    1.31
  -8   1  -2    0.06    0.25
  -8   1  -2   -0.27    0.38
   8  -1   2    0.07    0.44
  -9   1  -2    0.57    0.57
   9  -1   2    0.13    0.57
   9   0  -2   20.15    1.70
  -9   0   2   16.42    1.30
  -9   0   2   20.39    1.74
   8   0  -2    2.19    0.69
  -8   0   2    2.44    0.56
  -8   0   2    3.13    0.75
   7   0  -2   66.19    3.23
  -7   0   2   62.90    2.98
  -7   0   2   61.40    3.22
   6   0  -2   25.67    1.56
  -6   0   2   26.03    1.58
  -6   0   2   24.78    1.42
  -6   0   2   26.78    1.33
   5   0  -2    3.13    0.49
  -5   0   2    3.25    0.48
  -5   0   2    3.18    0.46
  -5   0   2    3.09    0.38
   4   0  -2   13.41    0.74
   4   0  -2   13.88    0.86
  -4   0   2   13.12    0.79
  -4   0   2   12.00    0.83
  -4   0   2   14.04    0.73
   3   0  -2   41.04    1.99
   3   0  -2   45.47    1.83
  -3   0   2   41.88    2.00
  -3   0   2   42.77    1.81
  -3   0   2   44.00    1.92
   2   0  -2   14.80    0.69
   2   0  -2   14.57    0.79
  -2   0   2   14.24    0.68
  -2   0   2   15.99    0.81
   1   0  -2   59.12    2.58
   1   0  -2   61.19    2.59
   1   0  -2   62.58    2.39
  -1   0   2   61.29    2.59
  -1   0   2   58.03    2.58
  -1   0   2   60.56    2.39
   0   0  -2   94.85    3.59
   0   0  -2   91.12    3.60
   0   0  -2   89.04    3.83
   0   0  -2   93.74    3.84
   0   0  -2   90.68    3.89
   0   0   2   89.11    3.83
   0   0   2   89.48    3.88
   0   0   2   94.81    3.60
   0   0   2   95.95    3.60
  -1   0  -2  156.13    5.98
  -1   0  -2  154.07    6.42
  -1   0  -2  158.00    6.32
  -1   0  -2  137.70    6.36
  -1   0  -2  145.97    5.96
  -1   0  -2  145.37    6.05
   1   0   2  161.41    6.38
   1   0   2  154.54    6.06
   1   0   2  160.63    5.98
   1   0   2  160.42    5.98
  -2   0  -2    1.08    0.18
  -2   0  -2    0.94    0.18
  -2   0  -2    1.13    0.29
  -2   0  -2    1.41    0.18
  -2   0  -2    0.94    0.25
   2   0   2    1.38    0.20
   2   0   2    1.06    0.24
   2   0   2    1.85    0.23
   2   0   2    1.01    0.17
  -3   0  -2   59.94    2.66
  -3   0  -2   58.24    2.50
  -3   0  -2   54.07    2.50
  -3   0  -2   57.24    2.76
   3   0   2   59.59    2.51
   3   0   2   63.46    2.74
   3   0   2   62.21    2.52
   3   0   2   64.43    2.55
  -4   0  -2    0.40    0.19
  -4   0  -2    0.37    0.25
  -4   0  -2    0.51    0.18
  -4   0  -2    0.84    0.28
   4   0   2    0.46    0.26
  -5   0  -2   19.61    1.27
  -5   0  -2   19.06    1.03
  -5   0  -2   16.86    1.09
  -5   0  -2   18.57    1.02
   5   0   2   18.16    1.20
  -6   0  -2   14.81    1.07
  -6   0  -2   16.94    1.28
  -6   0  -2   15.68    0.99
   6   0   2   14.58    1.17
  -7   0  -2    1.85    0.64
  -7   0  -2    1.35    0.39
   7   0   2    1.49    0.55
  -8   0  -2    4.60    0.91
  -8   0  -2    4.50    0.63
   8   0   2    4.28    0.90
   9  -1  -2   -0.26    0.46
  -9   1   2    0.39    0.53
  -9   1   2    0.38    0.37
   8  -1  -2    7.26    1.02
  -8   1   2    6.59    0.79
  -8   1   2    6.65    0.99
   7  -1  -2   14.25    1.15
  -7   1   2   13.29    1.12
  -7   1   2   13.12    0.97
   6  -1  -2   24.25    1.45
  -6   1   2   24.19    1.32
  -6   1   2   22.39    1.23
  -6   1   2   23.48    1.46
   5  -1  -2   23.85    1.37
  -5   1   2   25.37    1.30
  -5   1   2   23.53    1.21
  -5   1   2   25.40    1.41
   4  -1  -2   40.34    1.91
  -4   1   2   38.03    1.72
  -4   1   2   39.40    1.91
   3  -1  -2   37.30    1.71
  -3   1   2   35.91    1.54
  -3   1   2   34.36    1.70
   2  -1  -2  643.76   27.38
   2  -1  -2  693.98   27.39
  -2   1   2  680.26   27.39
   1  -1  -2   86.62    3.51
   1  -1  -2   92.75    3.53
   1  -1  -2   92.41    3.79
   1  -1  -2   88.09    3.81
   1  -1  -2   87.51    3.78
  -1   1   2   93.75    3.78
  -1   1   2   87.18    3.51
  -1   1   2   91.91    3.80
   0  -1  -2   29.42    1.22
   0  -1  -2   28.73    1.20
   0  -1  -2   29.76    1.38
   0  -1  -2   26.82    1.38
   0  -1  -2   29.73    1.31
   0   1   2   30.26    1.32
   0   1   2   29.52    1.23
   0   1   2   26.21    1.26
   0   1   2   29.49    1.21
  -1  -1  -2    1.09    0.16
  -1  -1  -2    0.92    0.19
  -1  -1  -2    0.95    0.24
  -1  -1  -2    1.03    0.27
  -1  -1  -2    0.93    0.16
   1   1   2    1.03    0.19
   1   1   2    1.10    0.17
   1   1   2    1.29    0.19
   1   1   2    0.93    0.15
  -2  -1  -2  358.90   14.35
  -2  -1  -2  364.64   15.19
  -2  -1  -2  376.56   15.37
  -2  -1  -2  372.43   14.68
  -2  -1  -2  377.02   14.52
   2   1   2  388.34   14.69
   2   1   2  375.09   14.38
   2   1   2  361.35   14.38
   2   1   2  377.81   15.31
  -3  -1  -2   58.97    2.52
  -3  -1  -2   56.19    2.73
  -3  -1  -2   60.49    2.46
  -3  -1  -2   57.53    2.67
   3   1   2   60.06    2.50
   3   1   2   53.38    2.67
   3   1   2   61.61    2.49
  -4  -1  -2   12.75    0.78
  -4  -1  -2   11.66    0.72
  -4  -1  -2   12.24    0.92
  -4  -1  -2   13.31    0.90
   4   1   2   11.64    0.78
   4   1   2   13.17    0.89
   4   1   2   12.50    0.76
  -5  -1  -2    0.77    0.35
  -5  -1  -2    0.90    0.39
  -5  -1  -2    0.99    0.30
   5   1   2    1.08    0.39
  -6  -1  -2    5.62    0.65
  -6  -1  -2    6.99    0.86
  -6  -1  -2    4.74    0.81
   6   1   2    5.88    0.85
  -7  -1  -2    6.98    1.00
  -7  -1  -2    6.96    0.78
  -7  -1  -2    6.89    0.95
   7   1   2    5.39    0.93
  -8  -1  -2    1.20    0.66
  -8  -1  -2    0.47    0.39
   8   1   2    0.38    0.56
   9  -2  -2    0.83    0.59
  -9   2   2    0.26    0.35
  -9   2   2    0.75    0.52
   8  -2  -2    1.33    0.54
  -8   2   2    1.35    0.42
  -8   2   2    1.61    0.53
   7  -2  -2    8.47    0.94
  -7   2   2    5.74    0.64
  -7   2   2    7.46    0.89
  -7   2   2    7.47    0.78
   6  -2  -2    1.89    0.44
   6  -2  -2    1.42    0.24
  -6   2   2    2.03    0.36
  -6   2   2    1.01    0.37
  -6   2   2    1.77    0.38
   5  -2  -2   10.74    0.60
   5  -2  -2    9.70    0.77
  -5   2   2   10.56    0.66
  -5   2   2   11.30    0.81
   4  -2  -2   36.55    1.83
   4  -2  -2   38.35    1.67
  -4   2   2   38.23    1.85
  -4   2   2   38.07    1.66
   3  -2  -2    0.71    0.23
  -3   2   2    0.28    0.17
  -3   2   2    0.48    0.16
   1  -2  -2   60.25    2.73
   1  -2  -2   63.82    2.63
   1  -2  -2   63.16    2.68
   1  -2  -2   62.91    2.47
   1  -2  -2   60.29    2.72
  -1   2   2   63.02    2.48
  -1   2   2   62.66    2.50
  -1   2   2   65.67    2.68
   0  -2  -2   43.23    1.78
   0  -2  -2   43.51    1.92
   0  -2  -2   43.08    2.06
   0  -2  -2   44.12    2.02
   0  -2  -2   45.02    1.95
   0  -2  -2   45.43    1.93
   0   2   2   46.01    1.93
   0   2   2   46.09    1.82
   0   2   2   43.71    1.81
   0   2   2   48.16    1.97
  -1  -2  -2   57.07    2.38
  -1  -2  -2   47.40    2.51
  -1  -2  -2   54.73    2.34
  -1  -2  -2   56.09    2.23
  -1  -2  -2   56.37    2.50
  -1  -2  -2   57.41    2.45
   1   2   2   56.85    2.27
   1   2   2   50.91    2.26
   1   2   2   58.79    2.45
   1   2   2   58.59    2.38
  -2  -2  -2   42.17    1.95
  -2  -2  -2   40.39    1.73
  -2  -2  -2   38.07    1.79
  -2  -2  -2   38.86    1.66
  -2  -2  -2   38.48    1.91
   2   2   2   40.32    1.72
   2   2   2   36.15    1.84
   2   2   2   40.40    1.71
  -3  -2  -2   33.33    1.63
  -3  -2  -2   34.35    1.77
  -3  -2  -2   29.55    1.49
  -3  -2  -2   32.96    1.76
  -3  -2  -2   34.27    1.51
   3   2   2   36.18    1.74
   3   2   2   35.53    1.59
   3   2   2   36.49    1.58
  -4  -2  -2   32.18    1.47
  -4  -2  -2   31.82    1.39
  -4  -2  -2   30.22    1.74
  -4  -2  -2   31.59    1.76
  -4  -2  -2   30.17    1.58
   4   2   2   31.46    1.54
   4   2   2   32.62    1.58
   4   2   2   32.75    1.72
  -5  -2  -2   39.77    1.97
  -5  -2  -2   35.65    2.16
  -5  -2  -2   39.75    2.15
   5   2   2   42.34    2.17
  -6  -2  -2   -0.31    0.28
  -6  -2  -2    0.14    0.27
  -6  -2  -2   -0.13    0.36
   6   2   2    0.34    0.35
  -7  -2  -2    4.36    0.84
  -7  -2  -2    4.80    0.85
  -7  -2  -2    3.40    0.62
   7   2   2    2.94    0.72
  10  -3  -2    0.96    0.63
 -10   3   2    1.54    0.74
   9  -3  -2    7.32    1.06
  -9   3   2    6.29    1.03
  -9   3   2    6.46    0.77
   8  -3  -2   -0.08    0.36
  -8   3   2    0.32    0.37
  -8   3   2   -0.08    0.22
   7  -3  -2    6.71    0.84
  -7   3   2    8.15    0.94
  -7   3   2    6.87    0.75
  -7   3   2    8.76    0.80
   6  -3  -2   28.13    1.38
   6  -3  -2   26.79    1.61
  -6   3   2   28.62    1.64
  -6   3   2   33.17    1.49
   5  -3  -2   78.90    3.63
   5  -3  -2   79.99    3.37
  -5   3   2   83.00    3.66
  -5   3   2   80.21    3.35
   4  -3  -2   37.07    1.69
   4  -3  -2   38.25    1.82
  -4   3   2   37.99    1.82
  -4   3   2   35.70    1.64
   3  -3  -2    0.19    0.18
   3  -3  -2    0.04    0.17
   3  -3  -2    0.06    0.15
   3  -3  -2    0.38    0.22
  -3   3   2   -0.01    0.11
  -3   3   2    0.06    0.14
   2  -3  -2   73.69    3.23
   2  -3  -2   72.93    3.21
   2  -3  -2   71.26    3.13
   2  -3  -2   77.37    3.20
  -2   3   2   75.09    2.95
  -2   3   2   76.12    3.18
   1  -3  -2    0.74    0.24
   1  -3  -2    0.82    0.27
   1  -3  -2    0.42    0.13
   1  -3  -2    0.48    0.21
  -1   3   2    0.37    0.15
  -1   3   2    0.29    0.10
  -1   3   2    0.59    0.14
  -1   3   2    0.49    0.11
   0  -3  -2  138.75    5.78
   0  -3  -2  141.57    5.89
   0  -3  -2  146.08    5.97
   0  -3  -2  141.38    6.01
   0  -3  -2  146.86    5.76
   0   3   2  140.29    5.91
   0   3   2  139.76    5.53
   0   3   2  140.20    5.76
   0   3   2  142.78    5.52
  -1  -3  -2  156.64    6.68
  -1  -3  -2  150.13    6.40
  -1  -3  -2  154.35    6.35
  -1  -3  -2  158.23    6.65
   1   3   2  162.51    6.58
   1   3   2  162.32    6.17
   1   3   2  156.91    6.17
  -2  -3  -2   65.15    2.90
  -2  -3  -2   64.85    3.02
  -2  -3  -2   67.75    2.84
  -2  -3  -2   65.98    3.09
   2   3   2   66.21    2.96
   2   3   2   68.90    2.76
   2   3   2   64.28    2.76
  -3  -3  -2    8.79    0.75
  -3  -3  -2    9.20    0.71
  -3  -3  -2    9.18    0.60
  -3  -3  -2    8.99    0.90
   3   3   2    9.63    0.72
   3   3   2    9.52    0.63
   3   3   2    8.65    0.62
  -4  -3  -2   22.48    1.44
  -4  -3  -2   22.77    1.42
  -4  -3  -2   21.70    1.28
  -4  -3  -2   22.44    1.11
   4   3   2   21.12    1.33
   4   3   2   21.45    1.22
  -5  -3  -2   38.19    2.06
  -5  -3  -2   40.77    2.29
  -5  -3  -2   38.64    2.27
   5   3   2   44.64    2.26
  -6  -3  -2   13.42    1.05
  -6  -3  -2   13.61    1.22
  -6  -3  -2   13.46    1.38
   6   3   2   12.75    1.16
  -7  -3  -2    0.19    0.50
  -7  -3  -2   -0.75    0.40
  -7  -3  -2    0.03    0.39
  10  -4  -2   -0.49    0.51
 -10   4   2    0.24    0.60
   9  -4  -2    4.93    0.89
  -9   4   2    3.53    0.61
   8  -4  -2   18.87    1.41
  -8   4   2   18.48    1.40
  -8   4   2   18.04    1.19
  -8   4   2   17.13    1.14
   7  -4  -2    0.08    0.21
   7  -4  -2    0.16    0.29
  -7   4   2    0.79    0.38
  -7   4   2    0.18    0.23
   6  -4  -2    7.39    0.57
   6  -4  -2    8.21    0.74
  -6   4   2    7.21    0.60
  -6   4   2    7.13    0.80
   5  -4  -2   15.05    0.98
   5  -4  -2   15.70    0.92
   5  -4  -2   16.13    0.90
  -5   4   2   15.16    0.86
  -5   4   2   16.02    0.99
   4  -4  -2  162.94    7.36
   4  -4  -2  170.81    7.29
   4  -4  -2  169.29    7.01
   4  -4  -2  175.72    7.18
  -4   4   2  174.79    7.29
  -4   4   2  183.11    6.82
   3  -4  -2    0.34    0.16
   3  -4  -2    0.37    0.18
   3  -4  -2    0.33    0.21
   3  -4  -2    0.45    0.22
  -3   4   2    0.71    0.18
  -3   4   2    0.61    0.14
   2  -4  -2    1.15    0.29
   2  -4  -2    0.92    0.23
   2  -4  -2    0.69    0.24
   2  -4  -2    0.70    0.17
  -2   4   2    0.64    0.14
  -2   4   2    0.83    0.13
  -2   4   2    0.70    0.16
   1  -4  -2   46.61    2.16
   1  -4  -2   47.89    2.23
   1  -4  -2   46.95    2.12
  -1   4   2   47.52    1.89
  -1   4   2   47.17    1.91
  -1   4   2   46.72    2.04
   0  -4  -2  121.69    4.99
   0  -4  -2  121.86    5.08
   0  -4  -2  120.80    5.02
   0  -4  -2  122.05    5.22
   0   4   2  120.40    4.72
   0   4   2  116.24    5.02
   0   4   2  118.30    4.70
  -1  -4  -2   -0.02    0.17
  -1  -4  -2    0.14    0.25
  -1  -4  -2   -0.04    0.16
  -1  -4  -2    0.18    0.17
   1   4   2   -0.08    0.09
   1   4   2   -0.05    0.13
   1   4   2   -0.01    0.10
  -2  -4  -2    5.72    0.74
  -2  -4  -2    5.07    0.60
  -2  -4  -2    5.77    0.63
  -2  -4  -2    5.28    0.56
  -2  -4  -2    6.19    0.53
   2   4   2    5.49    0.46
   2   4   2    5.90    0.59
   2   4   2    5.42    0.51
  -3  -4  -2   20.63    1.24
  -3  -4  -2   17.49    1.34
  -3  -4  -2   20.50    1.13
  -3  -4  -2   22.63    1.30
   3   4   2   21.97    1.24
   3   4   2   20.11    1.10
   3   4   2   20.87    1.12
  -4  -4  -2    1.73    0.44
  -4  -4  -2    1.38    0.43
  -4  -4  -2    1.96    0.55
  -4  -4  -2    2.51    0.39
   4   4   2    2.71    0.54
   4   4   2    1.66    0.37
  -5  -4  -2    5.89    0.81
  -5  -4  -2    6.45    0.88
  -5  -4  -2    7.58    1.02
  -6  -4  -2    8.17    1.19
  -6  -4  -2   10.15    1.22
  -6  -4  -2    8.31    1.00
  10  -5  -2    1.20    0.69
   9  -5  -2    0.05    0.46
  -9   5   2   -0.26    0.39
  -9   5   2   -0.12    0.28
   8  -5  -2   -0.09    0.33
  -8   5   2   -0.12    0.24
  -8   5   2    0.04    0.36
   7  -5  -2    1.87    0.49
   7  -5  -2    1.77    0.36
  -7   5   2    1.01    0.42
  -7   5   2    2.15    0.42
   6  -5  -2    0.16    0.29
   6  -5  -2   -0.01    0.22
  -6   5   2    0.24    0.23
  -6   5   2    0.09    0.27
   5  -5  -2   17.35    1.03
   5  -5  -2   15.59    0.98
  -5   5   2   17.07    1.01
  -5   5   2   15.13    0.87
   4  -5  -2    0.85    0.27
   4  -5  -2    1.07    0.30
   4  -5  -2    0.96    0.25
   4  -5  -2    1.15    0.29
  -4   5   2    1.35    0.27
  -4   5   2    1.19    0.21
   3  -5  -2    5.09    0.58
   3  -5  -2    4.96    0.45
   3  -5  -2    4.25    0.52
   3  -5  -2    4.67    0.39
  -3   5   2    5.29    0.39
  -3   5   2    5.08    0.33
   2  -5  -2    1.28    0.34
   2  -5  -2    0.91    0.28
  -2   5   2    1.56    0.20
   1  -5  -2    0.07    0.20
   1  -5  -2    0.12    0.23
  -1   5   2    0.22    0.12
  -1   5   2    0.06    0.08
  -1   5   2    0.27    0.10
   0  -5  -2    3.41    0.38
   0  -5  -2    2.06    0.39
   0  -5  -2    2.86    0.44
   0  -5  -2    2.23    0.44
   0   5   2    2.79    0.29
   0   5   2    2.65    0.26
   0   5   2    2.98    0.33
  -1  -5  -2   14.05    0.93
  -1  -5  -2   14.92    1.06
  -1  -5  -2   14.55    0.96
  -1  -5  -2   15.44    0.89
  -1  -5  -2   13.71    0.79
   1   5   2   14.32    0.83
   1   5   2   15.27    0.77
   1   5   2   13.33    0.75
  -2  -5  -2  105.68    4.44
  -2  -5  -2  105.15    4.78
  -2  -5  -2   97.21    4.49
  -2  -5  -2  105.72    4.57
   2   5   2  101.90    4.51
   2   5   2  106.32    4.26
   2   5   2  102.14    4.23
  -3  -5  -2    1.25    0.35
  -3  -5  -2    0.09    0.39
  -3  -5  -2    0.70    0.36
  -3  -5  -2    0.57    0.33
   3   5   2    0.42    0.26
  -4  -5  -2   -0.06    0.31
  -4  -5  -2    0.22    0.33
  -4  -5  -2    0.23    0.24
  -4  -5  -2    0.39    0.39
   4   5   2   -0.13    0.17
  -5  -5  -2    8.24    1.00
  -5  -5  -2    9.37    1.10
  -5  -5  -2    7.93    1.19
  -6  -5  -2    2.02    0.68
  -6  -5  -2    3.38    0.78
   9  -6  -2    5.38    0.92
  -9   6   2    5.61    0.77
   8  -6  -2    3.28    0.68
  -8   6   2    3.11    0.52
   7  -6  -2    1.69    0.41
   7  -6  -2    1.39    0.44
  -7   6   2    1.49    0.47
  -7   6   2    1.65    0.39
   6  -6  -2    2.10    0.42
   6  -6  -2    1.59    0.41
  -6   6   2    1.68    0.40
  -6   6   2    1.83    0.35
   5  -6  -2   22.72    1.32
   5  -6  -2   23.96    1.29
  -5   6   2   21.64    1.24
  -5   6   2   21.75    1.12
   4  -6  -2    0.00    0.18
   4  -6  -2    0.08    0.23
   4  -6  -2    0.19    0.17
   4  -6  -2   -0.04    0.25
  -4   6   2    0.01    0.11
  -4   6   2    0.01    0.15
   3  -6  -2    0.65    0.29
   3  -6  -2    0.13    0.23
  -3   6   2    0.69    0.15
  -3   6   2    0.39    0.14
   2  -6  -2    1.65    0.40
   2  -6  -2    1.18    0.34
   1  -6  -2   32.00    1.68
   1  -6  -2   30.73    1.71
   0  -6  -2    2.44    0.48
   0  -6  -2    2.79    0.47
   0  -6  -2    2.13    0.48
   0   6   2    3.10    0.33
   0   6   2    2.19    0.27
  -1  -6  -2   28.26    1.59
  -1  -6  -2   28.96    1.74
  -1  -6  -2   25.65    1.59
  -1  -6  -2   30.10    1.47
   1   6   2   27.72    1.33
   1   6   2   29.20    1.34
  -2  -6  -2    2.52    0.52
  -2  -6  -2    2.03    0.43
  -2  -6  -2    3.91    0.73
  -2  -6  -2    2.64    0.50
   2   6   2    2.03    0.36
   2   6   2    3.14    0.41
  -3  -6  -2   12.54    0.95
  -3  -6  -2   13.09    1.05
  -3  -6  -2   11.91    1.32
  -3  -6  -2   10.42    0.89
   3   6   2   10.62    0.80
  -4  -6  -2    0.04    0.40
  -4  -6  -2    1.32    0.49
  -4  -6  -2    0.35    0.51
   4   6   2    0.64    0.31
  -5  -6  -2    8.75    1.08
  -5  -6  -2    6.50    0.97
  -5  -6  -2    6.43    1.15
   9  -7  -2    0.35    0.46
  -9   7   2    0.36    0.36
   8  -7  -2    3.46    0.59
   8  -7  -2    3.29    0.70
  -8   7   2    3.97    0.59
   7  -7  -2   11.24    1.10
   7  -7  -2    8.83    0.92
  -7   7   2    9.10    0.73
   6  -7  -2    1.32    0.39
   6  -7  -2    1.75    0.43
  -6   7   2    2.06    0.36
   5  -7  -2   18.35    1.06
   5  -7  -2   16.57    1.13
   5  -7  -2   17.67    1.06
  -5   7   2   15.54    0.89
   4  -7  -2   51.56    2.49
   4  -7  -2   55.64    2.44
  -4   7   2   45.27    2.09
   3  -7  -2   -0.06    0.24
   3  -7  -2   -0.30    0.27
  -3   7   2    0.01    0.11
   2  -7  -2    1.97    0.44
   2  -7  -2    1.90    0.49
   1  -7  -2   32.26    1.84
   1  -7  -2   35.12    1.92
   0  -7  -2  100.09    4.55
   0  -7  -2  105.93    4.76
   0  -7  -2  110.95    4.59
   0   7   2   96.31    4.10
   0   7   2  101.37    4.12
  -1  -7  -2    0.86    0.43
  -1  -7  -2    0.27    0.28
  -1  -7  -2    0.06    0.31
   1   7   2    0.28    0.18
   1   7   2    0.16    0.20
  -2  -7  -2    0.77    0.50
  -2  -7  -2   -0.14    0.27
  -2  -7  -2    0.23    0.39
   2   7   2    0.40    0.24
  -3  -7  -2   11.29    1.15
  -3  -7  -2    9.13    1.18
  -3  -7  -2   11.70    0.96
  -3  -7  -2   10.39    1.03
   3   7   2    9.60    0.81
  -4  -7  -2    1.54    0.70
  -4  -7  -2    3.10    0.64
  -4  -7  -2    0.98    0.54
   4   7   2    1.02    0.35
   9  -8  -2    0.45    0.50
  -9   8   2    0.14    0.29
   8  -8  -2    0.29    0.44
   8  -8  -2    0.84    0.41
  -8   8   2    0.98    0.36
   7  -8  -2    2.84    0.59
   7  -8  -2    2.64    0.57
  -7   8   2    2.21    0.43
   6  -8  -2    1.30    0.44
   6  -8  -2    1.77    0.44
  -6   8   2    1.41    0.30
   5  -8  -2    0.31    0.27
   5  -8  -2    0.01    0.30
  -5   8   2    0.04    0.16
   4  -8  -2   25.80    1.39
   4  -8  -2   21.21    1.45
  -4   8   2   22.47    1.07
   3  -8  -2   16.71    1.23
   3  -8  -2   18.29    1.22
   2  -8  -2    3.58    0.64
   2  -8  -2    3.07    0.59
   1  -8  -2    1.44    0.51
   1  -8  -2    1.85    0.50
   0  -8  -2    1.04    0.41
   0  -8  -2    0.95    0.47
   0   8   2    0.76    0.21
   0   8   2    1.02    0.25
  -1  -8  -2    4.64    0.83
  -1  -8  -2    4.28    0.71
  -1  -8  -2    4.08    0.74
   1   8   2    3.79    0.46
  -2  -8  -2    0.75    0.44
  -2  -8  -2    0.26    0.44
  -2  -8  -2    0.26    0.34
   2   8   2    0.18    0.22
  -3  -8  -2    0.96    0.53
  -3  -8  -2    1.24    0.50
  -3  -8  -2    1.60    0.47
  -3  -8  -2    1.27    0.64
   3   8   2    0.82    0.32
   8  -9  -2    2.25    0.58
   8  -9  -2    0.74    0.49
  -8   9   2    2.02    0.47
   7  -9  -2   -0.18    0.32
   7  -9  -2    0.06    0.35
  -7   9   2   -0.46    0.21
   6  -9  -2    2.50    0.59
  -6   9   2    3.23    0.42
   5  -9  -2    0.14    0.32
  -5   9   2   -0.11    0.17
   4  -9  -2    1.76    0.49
   4  -9  -2    1.37    0.48
   3  -9  -2    3.43    0.64
   3  -9  -2    3.45    0.64
   2  -9  -2    0.75    0.46
   2  -9  -2    1.29    0.51
   1  -9  -2    0.01    0.43
   1  -9  -2    1.13    0.42
   0  -9  -2    0.56    0.38
   0  -9  -2    0.44    0.51
   0   9   2    0.45    0.21
   0   9   2    0.76    0.25
  -1  -9  -2    0.49    0.42
  -1  -9  -2   -0.24    0.32
  -1  -9  -2    0.02    0.47
   1   9   2    0.61    0.24
   7 -10  -2    1.02    0.50
  -7  10   2    2.06    0.39
   6 -10  -2    1.25    0.45
  -6  10   2    2.28    0.36
   5 -10  -2    0.40    0.37
  -5  10   2    0.56    0.23
   4 -10  -2    1.01    0.49
   3 -10  -2    1.63    0.55
   3 -10  -2    0.70    0.55
   2 -10  -2    1.08    0.55
   2 -10  -2    1.64    0.58
   1 -10  -2    0.60    0.53
   1 -10  -2    0.96    0.45
   0 -10  -2    0.02    0.39
   0 -10  -2    0.81    0.53
   0  10   2    0.15    0.19
   4 -11  -2    0.51    0.50
  -1 -10   3    0.66    0.52
   0 -10   3    1.57    0.53
   1 -10   3    2.87    0.60
  -5  10  -3   15.74    0.89
  -6  10  -3   -0.14    0.22
  -7  10  -3    1.72    0.43
  -2  -9   3    4.20    0.78
  -1  -9   3    0.23    0.39
   0  -9   3   -0.27    0.34
   1  -9   3    3.13    0.61
   2  -9   3    1.93    0.51
   3  -9   3    1.09    0.42
   4  -9   3   -0.15    0.29
  -5   9  -3    5.95    0.51
  -5   9  -3    6.30    0.54
  -6   9  -3    0.01    0.21
   6  -9   3   -0.06    0.26
  -7   9  -3    0.21    0.26
   7  -9   3    0.47    0.41
  -4  -8   3   -0.37    0.35
  -3  -8   3    2.39    0.65
   2   8  -3    0.71    0.25
  -2  -8   3    0.60    0.41
  -1  -8   3    5.46    0.75
   0  -8   3    4.15    0.62
   1  -8   3   -0.08    0.24
   2  -8   3    5.99    0.76
   2  -8   3    5.11    0.64
   3  -8   3    8.16    0.89
  -4   8  -3    2.03    0.30
   4  -8   3    1.69    0.45
  -5   8  -3    5.38    0.56
  -5   8  -3    5.90    0.50
   5  -8   3    6.23    0.55
  -6   8  -3    2.24    0.39
   6  -8   3    1.55    0.42
  -7   8  -3    0.44    0.29
   7  -8   3    0.66    0.40
  -8   8  -3    1.94    0.48
   8  -8   3    0.55    0.45
  -5  -7   3    2.17    0.59
  -5  -7   3    0.88    0.45
  -4  -7   3   10.01    1.12
  -4  -7   3   10.06    0.99
  -3  -7   3   -0.10    0.31
   2   7  -3    0.54    0.22
  -2  -7   3    0.10    0.32
  -1  -7   3   31.27    1.72
   0  -7   3    6.21    0.69
   1  -7   3    1.49    0.41
   1  -7   3    2.98    0.44
   2  -7   3   11.50    0.91
   2  -7   3   11.83    0.81
   3  -7   3    2.28    0.47
  -4   7  -3    1.96    0.30
  -4   7  -3    2.55    0.32
   4  -7   3    2.21    0.35
  -5   7  -3    8.94    0.64
  -5   7  -3    9.29    0.64
   5  -7   3    9.25    0.72
  -6   7  -3   11.05    0.78
   6  -7   3   11.15    0.89
  -7   7  -3    2.27    0.45
   7  -7   3    1.46    0.50
  -8   7  -3    0.64    0.36
   8  -7   3    0.57    0.45
  -6  -6   3    0.57    0.51
  -6  -6   3    1.24    0.49
  -5  -6   3   16.42    1.27
  -5  -6   3   20.59    1.45
  -4  -6   3   17.68    1.27
  -4  -6   3   14.19    1.07
   3   6  -3    1.40    0.32
  -3  -6   3    2.19    0.50
  -3  -6   3    1.41    0.38
   2   6  -3    1.58    0.26
  -2  -6   3    1.70    0.42
  -1  -6   3    9.19    0.75
   0  -6   3    0.88    0.28
   1  -6   3   -0.08    0.17
   2  -6   3   19.20    1.00
   2  -6   3   18.12    1.12
  -3   6  -3    2.86    0.32
  -3   6  -3    2.79    0.30
  -3   6  -3    4.06    0.31
  -3   6  -3    2.86    0.33
   3  -6   3    2.48    0.32
   3  -6   3    3.26    0.39
  -4   6  -3    2.25    0.31
  -4   6  -3    0.86    0.27
  -4   6  -3    1.49    0.27
   4  -6   3    1.52    0.37
   4  -6   3    0.70    0.26
  -5   6  -3    0.01    0.15
  -5   6  -3    0.02    0.23
  -5   6  -3   -0.15    0.14
   5  -6   3   -0.29    0.24
  -6   6  -3    5.24    0.71
  -6   6  -3    5.82    0.66
   6  -6   3    5.26    0.69
  -7   6  -3    0.59    0.30
   7  -6   3    0.12    0.34
  -8   6  -3    3.76    0.61
   8  -6   3    4.00    0.82
   9  -6   3    1.12    0.65
  -6  -5   3    2.89    0.66
  -6  -5   3    2.08    0.60
  -5  -5   3    0.56    0.37
  -5  -5   3    1.11    0.49
  -4  -5   3    1.35    0.38
  -4  -5   3    1.52    0.44
   3   5  -3   36.86    1.89
   3   5  -3   37.85    1.74
  -3  -5   3   40.90    1.94
  -3  -5   3   38.05    1.99
   2   5  -3   13.34    0.69
   2   5  -3   12.60    0.79
  -2  -5   3   11.51    0.71
  -2  -5   3   14.01    0.80
  -2  -5   3   13.43    0.91
   1   5  -3    8.13    0.51
  -1  -5   3    6.42    0.58
   0  -5   3   36.89    1.72
  -1   5  -3    8.11    0.52
   1  -5   3    7.90    0.53
  -2   5  -3    6.19    0.41
  -2   5  -3    5.60    0.39
   2  -5   3    5.80    0.41
  -3   5  -3   24.42    1.09
  -3   5  -3   23.59    1.08
  -3   5  -3   22.75    1.03
  -3   5  -3   23.66    1.18
   3  -5   3   22.93    1.24
   3  -5   3   23.12    1.17
  -4   5  -3   18.24    1.01
  -4   5  -3   17.51    0.91
  -4   5  -3   13.77    0.86
   4  -5   3   17.63    1.00
   4  -5   3   18.58    1.08
  -5   5  -3    0.75    0.33
  -5   5  -3    1.22    0.28
  -5   5  -3    0.67    0.24
   5  -5   3    0.88    0.33
  -6   5  -3   21.15    1.17
  -6   5  -3   19.76    1.32
   6  -5   3   19.54    1.31
  -7   5  -3    0.26    0.37
  -7   5  -3   -0.16    0.17
   7  -5   3    0.11    0.35
  -8   5  -3    0.50    0.47
  -8   5  -3    0.27    0.27
   8  -5   3   -0.32    0.36
   9  -5   3    0.73    0.52
  -7  -4   3    1.75    0.64
  -7  -4   3    1.84    0.51
  -6  -4   3    5.25    0.76
  -6  -4   3    4.16    0.74
   5   4  -3   14.67    1.13
  -5  -4   3   17.04    1.17
  -5  -4   3   14.62    1.11
   4   4  -3    1.38    0.30
   4   4  -3    1.61    0.40
  -4  -4   3    1.47    0.38
  -4  -4   3    1.00    0.35
   3   4  -3   11.96    0.82
   3   4  -3   12.29    0.71
  -3  -4   3   12.46    0.82
  -3  -4   3   12.84    0.88
  -3  -4   3   12.36    0.77
   2   4  -3    9.12    0.62
   2   4  -3    9.08    0.53
  -2  -4   3   10.44    0.65
  -2  -4   3    8.69    0.66
  -2  -4   3    8.98    0.58
   1   4  -3    3.61    0.26
   1   4  -3    3.41    0.36
  -1  -4   3    3.40    0.31
  -1  -4   3    3.49    0.40
   0   4  -3   26.02    1.21
   0   4  -3   25.57    1.19
   0  -4   3   24.41    1.21
  -1   4  -3    5.55    0.40
  -1   4  -3    6.64    0.40
   1  -4   3    5.91    0.40
   1  -4   3    6.26    0.39
  -2   4  -3    7.21    0.48
  -2   4  -3    6.78    0.39
  -2   4  -3    6.68    0.40
  -2   4  -3    6.04    0.36
   2  -4   3    7.12    0.46
   2  -4   3    6.19    0.49
  -3   4  -3   85.63    3.51
  -3   4  -3   85.37    3.79
  -3   4  -3   93.89    3.53
   3  -4   3   83.09    3.76
   3  -4   3   85.97    3.84
  -4   4  -3    0.98    0.29
  -4   4  -3    1.38    0.26
  -4   4  -3    1.39    0.26
   4  -4   3    1.34    0.31
  -5   4  -3   -0.12    0.15
  -5   4  -3   -0.18    0.13
  -5   4  -3   -0.11    0.21
   5  -4   3   -0.06    0.21
  -6   4  -3   36.15    1.98
  -6   4  -3   34.24    1.72
   6  -4   3   31.57    1.87
  -7   4  -3   42.12    2.15
  -7   4  -3   46.92    2.50
   7  -4   3   42.46    2.41
  -8   4  -3    0.17    0.44
   8  -4   3    0.03    0.43
  -9   4  -3    6.30    1.07
   9  -4   3    5.22    1.00
  -8  -3   3   -0.03    0.42
  -8  -3   3   -0.13    0.38
  -7  -3   3    0.73    0.44
  -7  -3   3    1.23    0.61
   6   3  -3    1.06    0.50
  -6  -3   3    1.39    0.44
  -6  -3   3    0.32    0.37
   5   3  -3    7.39    0.80
  -5  -3   3    6.87    0.77
  -5  -3   3    5.59    0.77
   4   3  -3   18.30    1.02
   4   3  -3   20.48    1.19
  -4  -3   3   20.12    1.19
  -4  -3   3   19.61    1.19
   3   3  -3  103.68    4.22
   3   3  -3  106.55    4.55
  -3  -3   3  108.22    4.46
  -3  -3   3  100.17    4.56
   2   3  -3    0.03    0.16
   2   3  -3    0.30    0.13
  -2  -3   3    0.30    0.18
  -2  -3   3    0.10    0.14
  -2  -3   3    0.51    0.22
   1   3  -3  221.43    9.09
   1   3  -3  224.90    8.49
   1   3  -3  223.18    8.80
  -1  -3   3  205.81    8.78
  -1  -3   3  233.99    9.09
  -1  -3   3  210.75    9.05
   0   3  -3  190.84    7.51
   0   3  -3  187.11    7.80
   0   3  -3  196.62    7.28
   0  -3   3  191.83    7.78
   0  -3   3  179.23    7.75
   0  -3   3  185.77    7.50
  -1   3  -3    0.61    0.14
  -1   3  -3    0.55    0.12
  -1   3  -3    0.73    0.13
  -1   3  -3    0.79    0.22
   1  -3   3    0.62    0.13
   1  -3   3    0.06    0.17
   1  -3   3    0.68    0.20
  -2   3  -3   64.12    2.47
  -2   3  -3   57.63    2.46
  -2   3  -3   60.03    2.68
   2  -3   3   60.90    2.65
   2  -3   3   59.42    2.72
  -3   3  -3   10.90    0.65
  -3   3  -3   12.39    0.65
  -3   3  -3   11.17    0.76
   3  -3   3   11.91    0.74
  -4   3  -3   18.32    0.92
  -4   3  -3   16.59    1.04
  -4   3  -3   17.33    0.92
   4  -3   3   15.09    1.00
  -5   3  -3    6.17    0.52
  -5   3  -3    6.49    0.63
  -5   3  -3    5.74    0.72
   5  -3   3    6.27    0.71
  -6   3  -3    8.05    0.70
  -6   3  -3   10.79    1.10
   6  -3   3    9.05    0.98
  -7   3  -3   12.40    1.32
  -7   3  -3   11.16    0.87
   7  -3   3    8.97    1.05
  -8   3  -3    6.01    1.08
   8  -3   3    6.85    0.98
  -9   3  -3    1.54    0.76
   9  -3   3    1.40    0.66
   8   2  -3    0.22    0.54
  -8  -2   3    0.00    0.46
  -8  -2   3    0.69    0.41
   7   2  -3   -0.32    0.41
  -7  -2   3   -0.46    0.31
  -7  -2   3   -0.46    0.25
   6   2  -3   29.45    1.77
  -6  -2   3   29.80    1.68
  -6  -2   3   28.51    1.78
   5   2  -3    6.65    0.57
   5   2  -3    7.54    0.79
  -5  -2   3    6.24    0.79
  -5  -2   3    6.03    0.71
   4   2  -3   13.80    0.89
   4   2  -3   12.29    0.75
  -4  -2   3   13.79    0.87
  -4  -2   3   13.09    0.90
  -4  -2   3   11.89    0.68
   3   2  -3    1.09    0.21
   3   2  -3    0.81    0.25
  -3  -2   3    0.93    0.24
  -3  -2   3    1.02    0.17
  -3  -2   3    1.47    0.31
   2   2  -3  284.40   10.62
   2   2  -3  275.99   11.34
  -2  -2   3  248.06   11.34
  -2  -2   3  281.64   11.32
  -2  -2   3  283.44   10.58
  -2  -2   3  273.65   10.94
   1   2  -3  129.57    5.46
   1   2  -3  133.83    5.07
  -1  -2   3  129.19    5.43
  -1  -2   3  127.87    5.44
  -1  -2   3  129.42    5.04
  -1  -2   3  130.59    5.25
   0   2  -3  996.59   40.28
   0  -2   3  998.29   38.67
   0  -2   3  970.63   40.27
   0  -2   3 1000.00   37.83
  -1   2  -3  800.18   33.28
   1  -2   3  839.86   33.25
   1  -2   3  803.39   33.28
   1  -2   3  826.22   31.23
  -2   2  -3    0.15    0.10
  -2   2  -3    0.03    0.17
  -2   2  -3    0.26    0.14
   2  -2   3   -0.30    0.08
   2  -2   3   -0.16    0.15
  -3   2  -3    0.16    0.18
  -3   2  -3    0.41    0.16
  -3   2  -3    0.22    0.13
   3  -2   3    0.18    0.18
  -4   2  -3   74.03    3.07
  -4   2  -3   73.18    3.06
  -4   2  -3   71.30    3.10
  -4   2  -3   68.82    3.34
   4  -2   3   75.61    3.34
  -5   2  -3    0.65    0.25
  -5   2  -3    1.35    0.28
  -5   2  -3    0.70    0.17
  -5   2  -3    0.54    0.33
   5  -2   3    0.73    0.32
  -6   2  -3    0.65    0.30
  -6   2  -3    0.38    0.17
  -6   2  -3    0.60    0.41
  -6   2  -3    0.09    0.22
   6  -2   3    0.36    0.33
  -7   2  -3   13.92    0.88
  -7   2  -3   16.03    1.33
   7  -2   3   15.28    1.28
  -8   2  -3    2.07    0.67
   8  -2   3    4.05    0.86
  -9   2  -3    1.34    0.75
   9   1  -3    2.66    0.88
  -9  -1   3    2.78    0.85
   8   1  -3   -0.49    0.46
  -8  -1   3   -0.34    0.29
  -8  -1   3   -0.27    0.40
   7   1  -3    0.71    0.44
  -7  -1   3   -0.18    0.26
  -7  -1   3   -0.06    0.35
   6   1  -3   25.70    1.58
  -6  -1   3   25.33    1.46
  -6  -1   3   24.43    1.58
   5   1  -3    8.35    0.74
   5   1  -3    6.77    0.56
  -5  -1   3    6.92    0.52
  -5  -1   3    8.29    0.82
  -5  -1   3    7.88    0.67
   4   1  -3    0.13    0.22
   4   1  -3    0.28    0.16
  -4  -1   3   -0.01    0.19
  -4  -1   3    0.13    0.13
  -4  -1   3    0.25    0.20
   3   1  -3   86.37    3.40
   3   1  -3   83.27    3.67
  -3  -1   3   85.32    3.55
  -3  -1   3   84.57    3.36
  -3  -1   3   78.12    3.68
   2   1  -3    0.58    0.13
   2   1  -3    0.77    0.23
  -2  -1   3    0.90    0.16
  -2  -1   3    0.71    0.21
  -2  -1   3    1.62    0.24
   1   1  -3   36.75    1.70
   1   1  -3   36.92    1.52
  -1  -1   3   34.80    1.67
  -1  -1   3   37.82    1.51
  -1  -1   3   37.27    1.67
   0   1  -3  406.40   16.72
   0   1  -3  415.87   17.83
   0   1  -3  437.50   16.71
   0  -1   3  450.25   17.78
   0  -1   3  466.82   16.70
   0  -1   3  437.08   17.82
  -1   1  -3    7.98    0.47
  -1   1  -3    8.37    0.54
  -1   1  -3    8.64    0.46
  -1   1  -3    8.47    0.60
   1  -1   3    6.94    0.53
  -2   1  -3    2.69    0.30
  -2   1  -3    2.19    0.31
  -2   1  -3    1.81    0.35
  -2   1  -3    2.88    0.29
   2  -1   3    1.69    0.29
   2  -1   3    2.55    0.29
  -3   1  -3    2.18    0.30
  -3   1  -3    2.13    0.38
  -3   1  -3    2.38    0.23
  -3   1  -3    1.79    0.28
  -3   1  -3    2.34    0.33
   3  -1   3    2.34    0.32
   3  -1   3    1.87    0.22
   3  -1   3    2.69    0.40
  -4   1  -3    7.70    0.57
  -4   1  -3    8.44    0.59
  -4   1  -3    8.48    0.75
  -4   1  -3    7.61    0.48
   4  -1   3    8.32    0.50
   4  -1   3    7.41    0.68
  -5   1  -3    1.05    0.24
  -5   1  -3    0.91    0.34
  -5   1  -3    0.76    0.35
  -5   1  -3    1.25    0.29
   5  -1   3    0.89    0.34
  -6   1  -3    0.16    0.20
  -6   1  -3    0.01    0.34
  -6   1  -3    0.04    0.25
   6  -1   3    0.05    0.31
  -7   1  -3    0.01    0.22
  -7   1  -3   -0.30    0.28
  -7   1  -3    0.56    0.50
   7  -1   3   -0.27    0.37
  -8   1  -3    1.48    0.66
   8  -1   3    1.19    0.63
   9   0  -3    1.16    0.72
  -9   0   3    0.95    0.63
  -9   0   3    0.52    0.38
   8   0  -3   31.75    2.03
  -8   0   3   28.63    2.01
  -8   0   3   31.85    1.80
   7   0  -3   19.03    1.41
  -7   0   3   17.99    1.39
  -7   0   3   19.26    1.26
   6   0  -3   35.60    1.92
  -6   0   3   32.28    1.91
  -6   0   3   33.12    1.77
  -6   0   3   33.97    1.63
   5   0  -3   14.92    1.01
  -5   0   3   14.11    1.01
  -5   0   3   15.08    0.84
  -5   0   3   15.26    0.94
   4   0  -3   24.80    1.26
   4   0  -3   27.31    1.44
  -4   0   3   25.07    1.36
  -4   0   3   29.27    1.26
  -4   0   3   29.45    1.48
   3   0  -3   72.79    2.97
   3   0  -3   74.05    3.24
  -3   0   3   70.77    2.95
  -3   0   3   74.28    3.25
   2   0  -3   11.53    0.57
   2   0  -3   10.08    0.68
  -2   0   3   11.48    0.57
  -2   0   3   11.90    0.69
   1   0  -3    1.78    0.18
  -1   0   3    1.14    0.16
   0   0  -3  126.05    4.84
   0   0  -3  130.16    5.25
   0   0  -3  131.40    4.83
   0   0  -3  122.99    5.16
   0   0   3  110.84    4.83
   0   0   3  116.32    4.83
   0   0   3  126.25    5.16
  -1   0  -3   19.11    1.04
  -1   0  -3   19.60    1.10
  -1   0  -3   20.03    0.94
  -1   0  -3   20.42    0.92
   1   0   3   21.75    0.92
   1   0   3   20.42    0.94
   1   0   3   20.26    1.05
   1   0   3   20.88    0.94
  -2   0  -3    0.60    0.24
  -2   0  -3    0.16    0.19
  -2   0  -3    0.34    0.14
  -2   0  -3    0.28    0.11
   2   0   3    0.16    0.13
   2   0   3    0.02    0.11
   2   0   3    0.32    0.11
   2   0   3    0.47    0.21
  -3   0  -3   41.66    1.90
  -3   0  -3   40.77    2.00
  -3   0  -3   38.33    1.72
  -3   0  -3   40.59    1.75
   3   0   3   34.13    1.90
   3   0   3   41.13    1.73
   3   0   3   38.98    1.77
  -4   0  -3   15.04    0.85
  -4   0  -3   15.35    1.07
  -4   0  -3   15.41    0.95
  -4   0  -3   14.01    0.81
   4   0   3   14.64    0.89
   4   0   3   15.55    1.02
  -5   0  -3    4.73    0.52
  -5   0  -3    4.34    0.52
  -5   0  -3    6.86    0.77
  -5   0  -3    5.56    0.76
   5   0   3    5.65    0.72
  -6   0  -3    6.46    0.81
  -6   0  -3    5.81    0.63
  -6   0  -3    4.86    0.81
   6   0   3    6.56    0.91
  -7   0  -3    4.20    0.85
  -7   0  -3    3.71    0.57
  -7   0  -3    5.10    0.78
   7   0   3    4.21    0.81
  -8   0  -3    5.92    1.10
   8   0   3    9.85    1.31
   9  -1  -3    4.10    0.90
  -9   1   3    3.36    0.65
  -9   1   3    5.80    1.12
   8  -1  -3    3.78    0.78
  -8   1   3    3.76    0.64
  -8   1   3    4.92    0.85
   7  -1  -3   -0.38    0.30
  -7   1   3    0.55    0.33
  -7   1   3    0.43    0.39
   6  -1  -3    2.01    0.49
  -6   1   3    1.06    0.29
  -6   1   3    1.96    0.42
  -6   1   3    1.17    0.40
   5  -1  -3   39.32    2.00
  -5   1   3   40.30    1.78
  -5   1   3   38.20    2.02
   4  -1  -3    6.19    0.56
  -4   1   3    6.14    0.55
  -4   1   3    5.80    0.43
   3  -1  -3  118.05    5.04
  -3   1   3  119.38    5.04
  -3   1   3  115.65    4.65
   2  -1  -3  220.51    8.96
   2  -1  -3  209.96    8.37
  -2   1   3  217.03    8.94
  -2   1   3  214.64    8.35
   1  -1  -3   72.76    3.12
   1  -1  -3   73.52    3.10
   1  -1  -3   69.43    2.81
  -1   1   3   68.65    2.82
  -1   1   3   70.84    3.06
   0  -1  -3    3.61    0.44
   0  -1  -3    4.21    0.49
   0  -1  -3    2.99    0.25
   0  -1  -3    3.11    0.28
   0   1   3    3.07    0.31
   0   1   3    3.09    0.26
   0   1   3    3.09    0.26
  -1  -1  -3   43.32    1.83
  -1  -1  -3   41.53    2.01
  -1  -1  -3   40.79    1.78
  -1  -1  -3   42.97    1.99
   1   1   3   40.84    1.82
   1   1   3   41.97    1.94
   1   1   3   43.38    1.80
   1   1   3   44.38    1.80
  -2  -1  -3  388.97   16.31
  -2  -1  -3  375.09   15.70
  -2  -1  -3  418.44   16.50
   2   1   3  396.86   15.71
   2   1   3  422.31   15.42
   2   1   3  383.27   16.40
   2   1   3  405.43   15.42
  -3  -1  -3    0.05    0.10
  -3  -1  -3    0.02    0.21
  -3  -1  -3    0.10    0.11
  -3  -1  -3    0.01    0.12
  -3  -1  -3    0.21    0.23
   3   1   3   -0.02    0.13
   3   1   3   -0.09    0.13
   3   1   3    0.06    0.18
  -4  -1  -3    3.88    0.61
  -4  -1  -3    4.02    0.58
  -4  -1  -3    3.23    0.40
  -4  -1  -3    4.02    0.46
   4   1   3    4.42    0.51
   4   1   3    5.53    0.65
   4   1   3    3.72    0.47
  -5  -1  -3   63.35    2.99
  -5  -1  -3   58.79    3.07
  -5  -1  -3   59.62    2.76
   5   1   3   64.05    3.06
  -6  -1  -3   -0.20    0.35
  -6  -1  -3   -0.24    0.25
  -6  -1  -3    0.14    0.32
   6   1   3   -0.61    0.30
  -7  -1  -3   -0.02    0.40
  -7  -1  -3    0.41    0.34
  -7  -1  -3    0.02    0.41
   7   1   3    0.57    0.46
  -8  -1  -3    0.80    0.58
   8   1   3   -0.72    0.48
   9  -2  -3    7.57    1.13
  -9   2   3    6.10    0.83
  -9   2   3    7.63    1.15
   8  -2  -3    8.80    1.11
  -8   2   3   10.08    1.21
  -8   2   3   10.53    0.89
   7  -2  -3   13.58    0.78
   7  -2  -3   13.46    1.12
  -7   2   3   15.36    1.18
  -7   2   3   13.71    1.00
  -7   2   3   14.40    0.93
   6  -2  -3    6.70    0.77
   6  -2  -3    6.70    0.60
  -6   2   3    6.95    0.85
  -6   2   3    7.00    0.57
   5  -2  -3   16.74    1.05
  -5   2   3   15.85    0.87
  -5   2   3   15.22    1.03
   4  -2  -3   98.79    4.43
  -4   2   3  105.11    4.09
  -4   2   3   99.61    4.44
   3  -2  -3   78.94    3.50
  -3   2   3   78.70    3.20
  -3   2   3   80.37    3.48
   2  -2  -3   58.16    2.87
   2  -2  -3   67.22    2.90
   2  -2  -3   68.20    2.64
   2  -2  -3   64.56    2.86
  -2   2   3   64.43    2.62
  -2   2   3   67.90    2.86
   1  -2  -3   75.50    3.31
   1  -2  -3   75.77    2.99
   1  -2  -3   76.13    3.31
   1  -2  -3   68.19    3.22
  -1   2   3   75.28    2.99
  -1   2   3   75.60    3.02
  -1   2   3   79.84    3.24
   0  -2  -3   19.54    1.10
   0  -2  -3   19.93    1.10
   0  -2  -3   18.61    0.87
   0  -2  -3   19.69    0.97
   0   2   3   19.54    0.90
   0   2   3   19.02    0.89
   0   2   3   20.96    0.97
  -1  -2  -3   40.08    1.92
  -1  -2  -3   38.49    1.88
  -1  -2  -3   38.37    1.75
  -1  -2  -3   39.29    1.73
  -1  -2  -3   37.67    1.63
   1   2   3   35.31    1.72
   1   2   3   39.92    1.68
   1   2   3   38.86    1.80
   1   2   3   39.81    1.67
  -2  -2  -3   27.18    1.30
  -2  -2  -3   25.71    1.34
  -2  -2  -3   28.34    1.52
  -2  -2  -3   29.92    1.27
  -2  -2  -3   28.91    1.52
   2   2   3   27.86    1.42
   2   2   3   27.16    1.32
   2   2   3   27.85    1.31
  -3  -2  -3   56.26    2.47
  -3  -2  -3   59.55    2.61
  -3  -2  -3   59.64    2.50
  -3  -2  -3   58.86    2.83
  -3  -2  -3   57.11    2.80
   3   2   3   60.68    2.56
   3   2   3   59.55    2.76
   3   2   3   56.58    2.54
  -4  -2  -3    1.26    0.24
  -4  -2  -3    1.73    0.45
  -4  -2  -3    1.19    0.32
  -4  -2  -3    0.87    0.40
   4   2   3    1.36    0.29
   4   2   3    1.58    0.41
  -5  -2  -3    3.15    0.64
  -5  -2  -3    2.60    0.60
  -5  -2  -3    3.17    0.51
   5   2   3    2.50    0.58
   5   2   3    2.82    0.54
  -6  -2  -3   17.51    1.32
  -6  -2  -3   11.58    1.34
  -6  -2  -3   17.36    1.14
   6   2   3   15.18    1.30
  -7  -2  -3    3.97    0.67
  -7  -2  -3    5.77    1.00
  -7  -2  -3    2.94    0.82
   7   2   3    5.39    0.93
  10  -3  -3    0.30    0.60
 -10   3   3    0.72    0.56
 -10   3   3    0.11    0.37
   9  -3  -3    0.39    0.50
  -9   3   3   -0.31    0.28
  -9   3   3    0.49    0.52
   8  -3  -3    2.28    0.63
  -8   3   3    3.54    0.72
   7  -3  -3   21.50    1.43
   7  -3  -3   20.91    1.12
  -7   3   3   22.09    1.22
  -7   3   3   21.96    1.45
   6  -3  -3    0.08    0.26
   6  -3  -3    0.10    0.19
  -6   3   3   -0.01    0.23
  -6   3   3    0.04    0.19
   5  -3  -3    0.57    0.27
   5  -3  -3    0.33    0.21
  -5   3   3    0.61    0.21
  -5   3   3    0.42    0.25
   4  -3  -3  609.77   24.46
   4  -3  -3  608.89   24.72
   4  -3  -3  594.48   23.59
  -4   3   3  598.41   23.17
  -4   3   3  602.46   24.71
   3  -3  -3   75.24    3.18
   3  -3  -3   72.13    3.00
   3  -3  -3   77.17    3.30
   3  -3  -3   73.92    3.27
  -3   3   3   76.17    3.01
  -3   3   3   71.51    3.26
   2  -3  -3   33.17    1.59
   2  -3  -3   29.41    1.63
   2  -3  -3   35.08    1.58
   2  -3  -3   33.91    1.64
  -2   3   3   33.22    1.41
  -2   3   3   35.48    1.56
   1  -3  -3    6.28    0.55
   1  -3  -3    6.92    0.45
   1  -3  -3    6.41    0.58
   1  -3  -3    6.04    0.50
  -1   3   3    6.51    0.43
  -1   3   3    6.62    0.38
  -1   3   3    5.95    0.39
   0  -3  -3   37.02    1.66
   0  -3  -3   37.70    1.81
   0  -3  -3   33.56    1.61
   0  -3  -3   36.04    1.72
   0   3   3   32.57    1.63
   0   3   3   34.70    1.50
   0   3   3   34.74    1.50
  -1  -3  -3   17.30    0.93
  -1  -3  -3   18.95    0.99
  -1  -3  -3   17.20    1.02
  -1  -3  -3   13.72    1.05
  -1  -3  -3   18.49    0.96
   1   3   3   15.78    0.93
   1   3   3   18.27    0.87
   1   3   3   17.30    0.87
  -2  -3  -3   16.27    0.96
  -2  -3  -3   17.11    1.11
  -2  -3  -3   16.50    1.05
  -2  -3  -3   15.48    0.91
   2   3   3   17.39    0.99
   2   3   3   16.54    0.89
   2   3   3   15.61    0.89
  -3  -3  -3   45.07    2.15
  -3  -3  -3   46.82    2.03
  -3  -3  -3   43.94    2.29
  -3  -3  -3   41.99    2.30
   3   3   3   45.16    2.05
   3   3   3   44.41    2.22
   3   3   3   44.39    2.05
  -4  -3  -3    2.31    0.47
  -4  -3  -3    2.96    0.61
  -4  -3  -3    3.01    0.38
  -4  -3  -3    2.87    0.55
   4   3   3    2.83    0.48
   4   3   3    2.38    0.51
  -5  -3  -3    0.77    0.39
  -5  -3  -3    0.30    0.29
  -5  -3  -3   -0.44    0.34
   5   3   3    0.35    0.36
   5   3   3   -0.03    0.19
  -6  -3  -3    0.57    0.41
  -6  -3  -3    0.97    0.51
  -6  -3  -3    1.02    0.58
   6   3   3    1.74    0.53
  -7  -3  -3   -0.06    0.37
  -7  -3  -3    0.04    0.52
  -7  -3  -3    0.56    0.56
  10  -4  -3    1.05    0.65
 -10   4   3    0.69    0.57
 -10   4   3    0.81    0.43
   9  -4  -3    3.10    0.74
  -9   4   3    3.19    0.76
  -9   4   3    2.96    0.59
   8  -4  -3    3.71    0.74
  -8   4   3    4.10    0.75
  -8   4   3    6.15    0.69
   7  -4  -3    6.03    0.63
   7  -4  -3    7.11    0.83
  -7   4   3    6.25    0.80
  -7   4   3    6.87    0.68
   6  -4  -3    8.67    0.81
   6  -4  -3    7.64    0.63
   6  -4  -3    7.21    0.81
  -6   4   3    8.74    0.87
  -6   4   3    7.70    0.62
   5  -4  -3    0.17    0.25
   5  -4  -3    0.24    0.23
   5  -4  -3    0.01    0.18
  -5   4   3    0.21    0.17
  -5   4   3    0.25    0.21
   4  -4  -3  136.37    5.91
   4  -4  -3  146.26    5.78
   4  -4  -3  130.95    5.97
  -4   4   3  145.02    5.97
  -4   4   3  139.32    5.53
   3  -4  -3   62.86    2.74
   3  -4  -3   60.78    2.75
   3  -4  -3   60.19    2.80
   3  -4  -3   64.58    2.80
  -3   4   3   61.00    2.51
  -3   4   3   60.16    2.73
   2  -4  -3   10.17    0.73
   2  -4  -3    8.51    0.58
   2  -4  -3    9.58    0.68
   2  -4  -3    8.65    0.65
  -2   4   3   10.31    0.55
  -2   4   3    8.83    0.49
  -2   4   3   10.42    0.59
   1  -4  -3  100.45    4.52
   1  -4  -3  107.00    4.45
   1  -4  -3  102.22    4.35
   1  -4  -3  100.84    4.33
  -1   4   3  102.32    4.34
  -1   4   3  101.12    4.04
  -1   4   3  103.35    4.08
   0  -4  -3   19.54    1.23
   0  -4  -3   19.86    1.12
   0  -4  -3   19.32    1.01
   0  -4  -3   21.38    1.12
   0   4   3   20.03    1.04
   0   4   3   20.36    0.95
   0   4   3   19.90    0.95
  -1  -4  -3    4.50    0.55
  -1  -4  -3    5.64    0.58
  -1  -4  -3    5.03    0.57
  -1  -4  -3    5.14    0.68
  -1  -4  -3    5.27    0.43
   1   4   3    5.03    0.41
   1   4   3    4.80    0.40
   1   4   3    6.00    0.48
  -2  -4  -3   31.66    1.68
  -2  -4  -3   33.05    1.59
  -2  -4  -3   32.48    1.63
  -2  -4  -3   28.02    1.74
   2   4   3   31.66    1.49
   2   4   3   32.47    1.61
   2   4   3   27.66    1.47
  -3  -4  -3    2.04    0.38
  -3  -4  -3    2.24    0.47
  -3  -4  -3    1.99    0.47
  -3  -4  -3    2.65    0.59
   3   4   3    2.74    0.44
   3   4   3    1.49    0.40
  -4  -4  -3    1.52    0.34
  -4  -4  -3    1.24    0.53
  -4  -4  -3    1.16    0.40
  -4  -4  -3    0.79    0.38
   4   4   3    1.59    0.41
   4   4   3    0.28    0.33
  -5  -4  -3    1.87    0.57
  -5  -4  -3    1.99    0.52
  -5  -4  -3    1.88    0.62
   5   4   3    1.91    0.47
  -6  -4  -3   10.65    1.14
  -6  -4  -3   11.89    1.44
  -6  -4  -3   11.56    1.31
  10  -5  -3    1.65    0.73
 -10   5   3    1.33    0.69
   9  -5  -3    0.49    0.51
  -9   5   3    0.38    0.43
   8  -5  -3    1.29    0.50
  -8   5   3    0.55    0.37
  -8   5   3    1.09    0.33
   7  -5  -3    0.22    0.32
   7  -5  -3    0.50    0.28
  -7   5   3   -0.11    0.21
  -7   5   3    0.25    0.34
   6  -5  -3   68.31    3.00
   6  -5  -3   66.03    3.16
   6  -5  -3   63.76    2.99
  -6   5   3   66.28    3.14
  -6   5   3   65.80    2.86
   5  -5  -3   20.66    1.16
   5  -5  -3   19.69    1.18
   5  -5  -3   19.45    1.20
  -5   5   3   20.54    1.19
  -5   5   3   20.46    1.04
   4  -5  -3    0.15    0.21
   4  -5  -3    0.49    0.24
   4  -5  -3    0.01    0.22
   4  -5  -3    0.59    0.20
  -4   5   3    0.07    0.14
  -4   5   3    0.05    0.12
   3  -5  -3   -0.15    0.17
   3  -5  -3   -0.20    0.15
   3  -5  -3    0.04    0.21
   3  -5  -3   -0.01    0.13
  -3   5   3   -0.06    0.10
  -3   5   3    0.11    0.13
   2  -5  -3    6.43    0.56
   2  -5  -3    6.13    0.65
   2  -5  -3    6.61    0.47
   2  -5  -3    7.54    0.78
  -2   5   3    6.71    0.45
  -2   5   3    6.97    0.44
  -2   5   3    6.87    0.41
   1  -5  -3   60.92    2.65
   1  -5  -3   56.70    2.80
   1  -5  -3   59.54    2.70
   1  -5  -3   56.79    2.56
  -1   5   3   57.01    2.56
  -1   5   3   60.49    2.41
  -1   5   3   56.37    2.37
   0  -5  -3   25.78    1.23
   0  -5  -3   23.72    1.36
   0  -5  -3   25.26    1.31
   0  -5  -3   23.06    1.46
   0   5   3   24.48    1.23
   0   5   3   23.81    1.14
   0   5   3   25.06    1.15
  -1  -5  -3    6.49    0.69
  -1  -5  -3    8.08    0.60
  -1  -5  -3    8.09    0.81
  -1  -5  -3    6.46    0.83
  -1  -5  -3    8.20    0.69
   1   5   3    6.74    0.58
   1   5   3    7.08    0.54
   1   5   3    7.22    0.52
  -2  -5  -3   33.03    1.71
  -2  -5  -3   31.09    1.84
  -2  -5  -3   30.68    1.61
  -2  -5  -3   28.61    1.65
   2   5   3   27.41    1.57
   2   5   3   29.94    1.49
   2   5   3   31.13    1.49
  -3  -5  -3   44.11    2.32
  -3  -5  -3   44.45    2.16
  -3  -5  -3   46.27    2.30
  -3  -5  -3   43.85    2.50
   3   5   3   43.88    2.10
  -4  -5  -3    1.67    0.50
  -4  -5  -3    1.13    0.43
  -4  -5  -3    1.24    0.54
   4   5   3    1.73    0.38
  -5  -5  -3    0.49    0.46
  -5  -5  -3    0.18    0.47
  -5  -5  -3   -0.38    0.35
   5   5   3   -0.02    0.25
   9  -6  -3   -0.12    0.42
  -9   6   3   -0.10    0.27
   8  -6  -3    0.68    0.34
   8  -6  -3    0.50    0.40
  -8   6   3    0.17    0.28
   7  -6  -3    0.20    0.26
   7  -6  -3    0.31    0.37
  -7   6   3    0.44    0.29
  -7   6   3    0.06    0.32
   6  -6  -3   10.61    0.90
   6  -6  -3   12.31    0.83
   6  -6  -3    9.60    0.86
  -6   6   3   10.89    0.74
  -6   6   3   12.08    0.90
   5  -6  -3    1.74    0.43
   5  -6  -3    1.85    0.41
   5  -6  -3    2.02    0.45
  -5   6   3    1.75    0.31
  -5   6   3    2.18    0.40
   4  -6  -3   13.64    0.86
   4  -6  -3   14.27    1.00
   4  -6  -3   15.57    1.00
   4  -6  -3   14.28    0.94
  -4   6   3   13.76    0.83
  -4   6   3   13.47    0.74
   3  -6  -3    0.90    0.21
   3  -6  -3    1.21    0.32
   3  -6  -3    1.38    0.35
   3  -6  -3    1.60    0.42
  -3   6   3    1.31    0.21
  -3   6   3    1.28    0.24
   2  -6  -3    0.05    0.22
   2  -6  -3    0.29    0.33
   2  -6  -3    0.28    0.26
  -2   6   3    0.14    0.12
  -2   6   3    0.10    0.13
   1  -6  -3    2.67    0.55
   1  -6  -3    2.33    0.30
   1  -6  -3    2.82    0.39
   1  -6  -3    2.78    0.50
  -1   6   3    2.94    0.34
  -1   6   3    2.44    0.28
  -1   6   3    2.51    0.32
   0  -6  -3   48.90    2.22
   0  -6  -3   45.08    2.31
   0  -6  -3   46.70    2.45
   0   6   3   47.63    2.03
   0   6   3   44.97    2.01
  -1  -6  -3    2.88    0.55
  -1  -6  -3    2.79    0.50
  -1  -6  -3    2.70    0.61
  -1  -6  -3    3.23    0.47
   1   6   3    2.85    0.39
   1   6   3    2.41    0.36
  -2  -6  -3    0.80    0.34
  -2  -6  -3    0.09    0.36
  -2  -6  -3    0.43    0.30
  -2  -6  -3    0.69    0.40
   2   6   3    0.22    0.22
  -3  -6  -3    8.65    0.86
  -3  -6  -3    7.64    0.92
  -3  -6  -3    6.61    1.01
  -3  -6  -3    7.56    0.89
   3   6   3    7.42    0.79
  -4  -6  -3    3.27    0.69
  -4  -6  -3    2.75    0.65
  -4  -6  -3    2.68    0.75
   4   6   3    2.57    0.54
   9  -7  -3    0.36    0.55
  -9   7   3    2.07    0.51
   8  -7  -3    1.20    0.41
   8  -7  -3    0.97    0.50
  -8   7   3    0.66    0.34
   7  -7  -3    1.06    0.43
   7  -7  -3    1.43    0.46
  -7   7   3    0.95    0.31
   6  -7  -3    3.15    0.57
   6  -7  -3    2.17    0.47
  -6   7   3    2.08    0.35
   5  -7  -3    2.61    0.53
   5  -7  -3    3.55    0.53
  -5   7   3    2.87    0.37
   4  -7  -3    3.58    0.58
   4  -7  -3    3.36    0.48
   4  -7  -3    3.49    0.63
  -4   7   3    2.59    0.33
   3  -7  -3    1.41    0.46
   3  -7  -3    0.78    0.37
  -3   7   3    0.93    0.20
   2  -7  -3   15.02    1.13
   2  -7  -3   14.38    1.08
  -2   7   3   15.18    0.79
  -2   7   3   14.20    0.74
   1  -7  -3   32.69    1.86
   1  -7  -3   37.58    1.99
  -1   7   3   33.57    1.52
  -1   7   3   32.00    1.48
   0  -7  -3   14.62    1.20
   0  -7  -3   14.66    1.09
   0   7   3   13.87    0.79
   0   7   3   14.66    0.82
  -1  -7  -3   20.65    1.33
  -1  -7  -3   21.69    1.39
  -1  -7  -3   17.20    1.41
  -1  -7  -3   18.45    1.12
   1   7   3   17.70    1.03
  -2  -7  -3    2.38    0.58
  -2  -7  -3    3.06    0.56
  -2  -7  -3    1.97    0.50
  -2  -7  -3    1.88    0.61
   2   7   3    1.73    0.37
  -3  -7  -3    5.27    0.83
  -3  -7  -3    4.21    0.92
  -3  -7  -3    4.55    0.68
  -3  -7  -3    4.07    0.67
   3   7   3    5.52    0.69
   9  -8  -3    0.37    0.51
  -9   8   3    0.97    0.40
   8  -8  -3    2.77    0.61
   8  -8  -3    3.02    0.68
  -8   8   3    3.51    0.56
   7  -8  -3    5.69    0.79
   7  -8  -3    5.72    0.81
  -7   8   3    6.22    0.66
   6  -8  -3    0.01    0.30
   6  -8  -3   -0.22    0.26
  -6   8   3   -0.09    0.18
   5  -8  -3    3.73    0.61
   5  -8  -3    3.75    0.64
   5  -8  -3    3.11    0.50
  -5   8   3    2.47    0.35
   4  -8  -3    2.72    0.55
   4  -8  -3    2.39    0.52
  -4   8   3    2.53    0.31
   3  -8  -3   -0.03    0.31
   3  -8  -3    0.49    0.34
  -3   8   3   -0.08    0.14
   2  -8  -3   13.44    1.07
   2  -8  -3   13.72    1.10
  -2   8   3   11.11    0.66
  -2   8   3   12.22    0.72
   1  -8  -3   -0.03    0.30
   1  -8  -3   -0.41    0.35
  -1   8   3   -0.04    0.17
  -1   8   3    0.42    0.19
   0  -8  -3    1.19    0.58
   0  -8  -3    0.72    0.39
   0   8   3    0.81    0.23
   0   8   3    0.87    0.26
  -1  -8  -3    0.36    0.48
  -1  -8  -3    0.11    0.32
   1   8   3    0.26    0.22
  -2  -8  -3   -0.18    0.33
  -2  -8  -3   -0.43    0.45
  -2  -8  -3   -0.11    0.41
   2   8   3   -0.06    0.22
   8  -9  -3    0.85    0.46
   8  -9  -3    1.46    0.55
  -8   9   3    0.98    0.36
   7  -9  -3    4.06    0.73
   7  -9  -3    3.07    0.62
  -7   9   3    2.85    0.46
   6  -9  -3    6.65    0.92
  -6   9   3    6.22    0.60
   5  -9  -3   -0.30    0.27
  -5   9   3    0.16    0.21
   4  -9  -3    0.80    0.43
   4  -9  -3    0.81    0.36
  -4   9   3    0.49    0.21
   3  -9  -3    1.84    0.53
   3  -9  -3    1.91    0.57
  -3   9   3    1.51    0.26
   2  -9  -3   16.79    1.32
   2  -9  -3   15.97    1.29
  -2   9   3   15.69    0.83
  -2   9   3   15.45    0.87
   1  -9  -3    0.12    0.46
   1  -9  -3   -0.49    0.27
  -1   9   3   -0.12    0.16
  -1   9   3    0.17    0.18
   0  -9  -3    0.01    0.50
   0  -9  -3    0.48    0.35
   0   9   3    0.35    0.22
  -1  -9  -3    2.56    0.64
  -1  -9  -3    4.50    0.92
   1   9   3    2.76    0.45
   7 -10  -3    0.84    0.44
  -7  10   3   -0.03    0.25
   6 -10  -3   -0.32    0.31
  -6  10   3   -0.14    0.20
   5 -10  -3    1.04    0.48
  -5  10   3    0.73    0.26
   4 -10  -3    0.88    0.49
   4 -10  -3   -0.20    0.36
  -4  10   3    0.04    0.19
   3 -10  -3    0.19    0.44
   3 -10  -3   -0.24    0.43
  -3  10   3    0.19    0.21
   2 -10  -3    0.33    0.41
   2 -10  -3    0.01    0.45
  -2  10   3    0.24    0.20
   1 -10  -3    0.47    0.45
   1 -10  -3    0.91    0.61
  -1  10   3    1.39    0.29
  -1 -10   4    0.02    0.43
   0 -10   4    2.55    0.63
   1 -10   4    2.25    0.58
  -5  10  -4    9.41    0.70
  -6  10  -4    0.34    0.27
  -2  -9   4    1.42    0.46
  -1  -9   4    1.62    0.54
   0  -9   4    1.17    0.43
   1  -9   4    0.45    0.35
   2  -9   4   13.48    1.01
  -4   9  -4    0.18    0.20
  -4   9  -4    0.39    0.20
  -5   9  -4    1.40    0.33
  -6   9  -4    2.27    0.40
   6  -9   4    2.53    0.47
  -7   9  -4   -0.05    0.25
   7  -9   4    0.17    0.36
  -4  -8   4    2.90    0.71
  -3  -8   4    1.74    0.58
   2   8  -4    4.12    0.45
  -2  -8   4    5.91    0.81
  -1  -8   4    6.12    0.80
   0  -8   4    4.15    0.62
   1  -8   4    0.32    0.32
   2  -8   4    0.12    0.28
  -4   8  -4    8.80    0.59
  -4   8  -4    8.11    0.58
  -5   8  -4    0.65    0.24
   5  -8   4    0.41    0.30
  -6   8  -4    8.00    0.68
   6  -8   4    7.15    0.80
  -7   8  -4    5.34    0.70
   7  -8   4    4.78    0.74
  -8   8  -4    1.21    0.42
   8  -8   4    0.87    0.53
  -5  -7   4    0.13    0.41
  -5  -7   4    0.29    0.40
  -4  -7   4    1.53    0.48
  -4  -7   4    0.70    0.36
  -3  -7   4    2.02    0.40
  -3  -7   4    2.31    0.53
   2   7  -4    3.78    0.41
  -2  -7   4    4.76    0.68
   1   7  -4    7.07    0.47
  -1  -7   4    8.00    0.83
   0  -7   4   16.70    1.07
   1  -7   4    0.03    0.20
   2  -7   4    0.98    0.28
  -3   7  -4    1.86    0.27
  -3   7  -4    2.17    0.28
  -4   7  -4    5.12    0.50
  -4   7  -4    4.28    0.45
   4  -7   4    4.48    0.50
  -5   7  -4    0.60    0.24
   5  -7   4    0.30    0.30
  -6   7  -4    2.00    0.42
   6  -7   4    2.39    0.51
  -7   7  -4    9.28    0.93
   7  -7   4    8.45    0.96
  -8   7  -4    2.29    0.53
   8  -7   4    3.21    0.71
  -6  -6   4    2.39    0.60
  -6  -6   4    1.89    0.63
  -5  -6   4    2.82    0.63
  -5  -6   4    2.60    0.67
  -4  -6   4    3.20    0.65
  -4  -6   4    4.03    0.63
   3   6  -4   30.38    1.50
  -3  -6   4   30.87    1.64
  -3  -6   4   33.17    1.82
   2   6  -4    8.20    0.55
  -2  -6   4    8.18    0.84
   1   6  -4   17.60    0.86
  -1  -6   4   19.23    1.14
   0  -6   4    1.47    0.33
   1  -6   4    9.90    0.67
  -2   6  -4   13.77    0.75
  -2   6  -4   14.59    0.69
  -2   6  -4   12.25    0.68
   2  -6   4   15.07    0.79
  -3   6  -4   14.29    0.85
  -3   6  -4   16.25    0.79
  -3   6  -4   14.68    0.78
  -3   6  -4   14.46    0.74
   3  -6   4   14.17    0.89
   3  -6   4   15.89    0.87
  -4   6  -4    0.53    0.21
  -4   6  -4    0.49    0.21
  -4   6  -4    0.57    0.25
   4  -6   4    0.86    0.29
  -5   6  -4    1.90    0.45
  -5   6  -4    2.45    0.40
  -5   6  -4    1.49    0.33
   5  -6   4    1.96    0.43
  -6   6  -4   16.98    1.06
  -6   6  -4   16.02    1.29
   6  -6   4   18.60    1.23
  -7   6  -4    0.46    0.28
   7  -6   4    0.71    0.39
  -8   6  -4    3.09    0.60
   8  -6   4    4.25    0.78
  -6  -5   4   -0.50    0.35
  -6  -5   4   -0.10    0.40
  -5  -5   4    2.56    0.57
  -5  -5   4    3.82    0.68
  -4  -5   4   -0.04    0.30
  -4  -5   4    0.32    0.27
   3   5  -4    2.44    0.45
   3   5  -4    1.48    0.29
  -3  -5   4    1.15    0.38
  -3  -5   4    1.36    0.35
   2   5  -4   23.60    1.12
   2   5  -4   21.86    1.25
  -2  -5   4   24.36    1.34
  -2  -5   4   26.21    1.26
  -2  -5   4   23.39    1.19
   1   5  -4    0.47    0.21
   1   5  -4    0.54    0.15
  -1  -5   4    0.89    0.26
  -1  -5   4    0.73    0.19
   0  -5   4    6.40    0.52
  -1   5  -4    0.52    0.19
  -1   5  -4    0.40    0.16
   1  -5   4    0.43    0.16
   1  -5   4    0.44    0.16
  -2   5  -4    0.41    0.19
  -2   5  -4    0.34    0.12
  -2   5  -4    0.30    0.12
  -2   5  -4    1.34    0.23
   2  -5   4    0.40    0.14
   2  -5   4    0.35    0.18
   2  -5   4    0.31    0.17
  -3   5  -4   13.90    0.87
  -3   5  -4   14.55    0.78
  -3   5  -4   15.02    0.78
   3  -5   4   15.03    0.86
   3  -5   4   14.19    0.93
  -4   5  -4    0.72    0.27
  -4   5  -4    0.45    0.20
  -4   5  -4    0.27    0.18
   4  -5   4    0.58    0.26
  -5   5  -4    6.46    0.77
  -5   5  -4    5.81    0.62
  -5   5  -4    5.88    0.61
   5  -5   4    5.52    0.68
  -6   5  -4   26.98    1.69
  -6   5  -4   30.09    1.53
   6  -5   4   28.96    1.70
  -7   5  -4   56.13    2.47
  -7   5  -4   49.50    2.73
   7  -5   4   44.82    2.65
  -8   5  -4    0.22    0.46
   8  -5   4   -0.26    0.42
  -7  -4   4    0.12    0.40
  -7  -4   4    0.60    0.48
  -6  -4   4    0.56    0.42
  -6  -4   4    0.56    0.43
   5   4  -4    0.66    0.42
  -5  -4   4    0.82    0.40
  -5  -4   4    0.23    0.29
   4   4  -4    4.28    0.60
   4   4  -4    3.79    0.47
  -4  -4   4    3.98    0.59
  -4  -4   4    3.41    0.54
   3   4  -4    3.49    0.39
   3   4  -4    3.62    0.52
  -3  -4   4    4.05    0.54
  -3  -4   4    4.24    0.54
   2   4  -4    2.71    0.30
   2   4  -4    3.53    0.44
  -2  -4   4    3.37    0.38
  -2  -4   4    3.51    0.44
  -2  -4   4    2.81    0.43
   1   4  -4   31.04    1.32
   1   4  -4   29.83    1.50
  -1  -4   4   30.98    1.46
  -1  -4   4   32.07    1.49
  -1  -4   4   29.82    1.43
   0   4  -4   64.01    2.79
   0   4  -4   60.18    2.67
   0   4  -4   66.41    2.54
   0  -4   4   61.67    2.73
   0  -4   4   63.98    2.68
   0  -4   4   61.41    2.72
  -1   4  -4   14.50    0.68
  -1   4  -4   14.20    0.70
  -1   4  -4   13.71    0.70
  -1   4  -4   14.55    0.82
   1  -4   4   13.88    0.77
   1  -4   4   13.77    0.71
   1  -4   4   13.45    0.79
  -2   4  -4   43.48    1.86
  -2   4  -4   43.17    1.85
  -2   4  -4   44.57    2.05
   2  -4   4   42.73    2.00
   2  -4   4   44.47    2.07
  -3   4  -4   16.90    0.88
  -3   4  -4   17.81    1.03
  -3   4  -4   15.83    0.88
   3  -4   4   18.39    1.01
  -4   4  -4   15.28    0.83
  -4   4  -4   13.18    0.82
  -4   4  -4   14.81    0.97
   4  -4   4   12.50    0.90
  -5   4  -4    0.02    0.28
  -5   4  -4    0.01    0.18
   5  -4   4   -0.02    0.22
  -6   4  -4    0.59    0.29
  -6   4  -4    0.45    0.39
   6  -4   4    0.38    0.37
  -7   4  -4    0.42    0.42
  -7   4  -4    0.02    0.28
   7  -4   4    0.30    0.42
  -8   4  -4    3.77    0.82
   8  -4   4    3.07    0.73
  -8  -3   4    3.14    0.71
  -8  -3   4    2.55    0.75
  -7  -3   4    1.39    0.57
  -7  -3   4    2.84    0.62
   6   3  -4   -0.57    0.37
  -6  -3   4   -0.16    0.25
  -6  -3   4   -0.18    0.27
   5   3  -4   11.13    1.07
  -5  -3   4   12.40    0.96
  -5  -3   4   11.69    0.94
   4   3  -4    4.34    0.59
   4   3  -4    4.72    0.50
  -4  -3   4    4.78    0.64
  -4  -3   4    4.25    0.62
   3   3  -4    1.17    0.33
   3   3  -4    1.09    0.22
  -3  -3   4    1.10    0.31
  -3  -3   4    1.21    0.32
   2   3  -4  163.84    6.38
   2   3  -4  163.95    6.87
  -2  -3   4  158.05    6.81
  -2  -3   4  163.69    6.64
  -2  -3   4  164.02    6.87
   1   3  -4   10.75    0.71
   1   3  -4   11.26    0.57
  -1  -3   4   11.14    0.66
  -1  -3   4   11.10    0.66
  -1  -3   4   10.92    0.66
   0   3  -4  230.33    8.66
   0   3  -4  227.59    9.31
   0  -3   4  222.43    8.87
   0  -3   4  221.35    9.27
   0  -3   4  216.60    9.23
  -1   3  -4   13.48    0.65
  -1   3  -4   12.91    0.66
  -1   3  -4   11.68    0.78
   1  -3   4   12.77    0.59
   1  -3   4   11.71    0.74
   1  -3   4   12.21    0.76
  -2   3  -4    1.13    0.25
  -2   3  -4    0.92    0.19
  -2   3  -4    0.86    0.27
  -2   3  -4    0.86    0.19
   2  -3   4    1.03    0.25
  -3   3  -4   75.50    3.10
  -3   3  -4   73.11    3.10
  -3   3  -4   73.02    3.39
   3  -3   4   76.35    3.34
  -4   3  -4    1.09    0.35
  -4   3  -4    1.37    0.28
  -4   3  -4    1.21    0.26
   4  -3   4    0.81    0.28
  -5   3  -4   16.78    0.98
  -5   3  -4   15.66    1.13
   5  -3   4   13.59    1.05
  -6   3  -4    1.04    0.33
  -6   3  -4    0.87    0.46
   6  -3   4    1.47    0.47
  -7   3  -4    0.67    0.51
   7  -3   4   -0.09    0.36
  -8   3  -4    1.49    0.65
   8  -3   4    1.19    0.53
   8   2  -4    1.56    0.70
  -8  -2   4    1.11    0.47
  -8  -2   4    1.01    0.54
   7   2  -4   27.32    1.84
  -7  -2   4   26.10    1.80
  -7  -2   4   30.38    1.75
   6   2  -4   10.57    1.09
  -6  -2   4   10.88    0.97
  -6  -2   4    9.65    1.00
   5   2  -4   -0.04    0.28
  -5  -2   4    0.03    0.23
  -5  -2   4   -0.13    0.19
   4   2  -4   19.07    1.00
   4   2  -4   18.88    1.16
  -4  -2   4   19.13    1.13
  -4  -2   4   20.39    1.19
  -4  -2   4   18.37    0.94
   3   2  -4    3.25    0.34
   3   2  -4    3.07    0.44
  -3  -2   4    3.11    0.42
  -3  -2   4    2.55    0.28
  -3  -2   4    2.79    0.46
   2   2  -4   22.33    1.20
   2   2  -4   24.22    1.05
  -2  -2   4   22.78    1.15
  -2  -2   4   24.29    1.21
  -2  -2   4   20.81    1.00
   1   2  -4    5.15    0.32
   1   2  -4    4.43    0.48
  -1  -2   4    4.61    0.30
  -1  -2   4    5.19    0.39
  -1  -2   4    4.67    0.46
  -1  -2   4    5.18    0.42
   0   2  -4    3.27    0.29
   0   2  -4    2.40    0.38
   0  -2   4    2.44    0.31
   0  -2   4    1.86    0.31
   0  -2   4    2.18    0.24
   0  -2   4    2.18    0.22
  -1   2  -4  243.14    9.40
  -1   2  -4  232.27   10.09
  -1   2  -4  236.92    9.38
   1  -2   4  263.04   10.05
   1  -2   4  234.17    9.36
  -2   2  -4   28.57    1.47
  -2   2  -4   26.20    1.27
  -2   2  -4   28.73    1.35
  -2   2  -4   30.14    1.29
   2  -2   4   25.79    1.25
   2  -2   4   28.94    1.42
  -3   2  -4   42.19    1.94
  -3   2  -4   45.58    1.90
  -3   2  -4   39.33    1.89
  -3   2  -4   37.82    2.09
   3  -2   4   47.41    2.09
   3  -2   4   43.17    1.88
  -4   2  -4   49.37    2.23
  -4   2  -4   51.04    2.49
  -4   2  -4   50.91    2.21
  -4   2  -4   47.15    2.20
   4  -2   4   48.25    2.41
  -5   2  -4   19.93    1.10
  -5   2  -4   18.61    1.07
  -5   2  -4   19.45    1.32
   5  -2   4   17.83    1.25
  -6   2  -4    2.84    0.62
  -6   2  -4    3.50    0.54
  -6   2  -4    3.62    0.52
  -6   2  -4    3.50    0.38
   6  -2   4    2.77    0.63
  -7   2  -4    0.31    0.44
   7  -2   4    0.40    0.44
  -8   2  -4    0.79    0.62
   8  -2   4    0.56    0.49
   9   1  -4    4.45    1.01
  -9  -1   4    2.84    0.67
  -9  -1   4    2.49    0.77
   8   1  -4    4.19    0.87
  -8  -1   4    5.04    0.76
  -8  -1   4    4.04    0.87
   7   1  -4   44.16    2.43
  -7  -1   4   40.63    2.39
  -7  -1   4   42.07    2.24
   6   1  -4   58.72    2.91
  -6  -1   4   55.71    2.91
  -6  -1   4   57.93    2.77
   5   1  -4   18.04    1.01
   5   1  -4   18.02    1.19
  -5  -1   4   18.47    1.13
  -5  -1   4   17.03    1.16
  -5  -1   4   17.81    0.95
   4   1  -4   42.73    1.80
   4   1  -4   37.74    1.98
  -4  -1   4   39.03    2.00
  -4  -1   4   37.73    1.73
  -4  -1   4   41.17    1.92
   3   1  -4   73.74    3.53
   3   1  -4   83.02    3.25
  -3  -1   4   82.05    3.42
  -3  -1   4   76.64    3.21
  -3  -1   4   81.76    3.56
   2   1  -4    0.64    0.15
   2   1  -4    0.52    0.22
  -2  -1   4    0.97    0.24
  -2  -1   4    0.89    0.16
   1   1  -4   35.73    1.55
   1   1  -4   36.77    1.79
  -1  -1   4   37.17    1.55
  -1  -1   4   37.95    1.72
   0   1  -4    1.25    0.17
   0   1  -4    1.17    0.21
   0   1  -4    0.62    0.27
   0  -1   4    1.05    0.23
  -1   1  -4   32.44    1.56
  -1   1  -4   32.15    1.45
  -1   1  -4   32.48    1.66
  -1   1  -4   33.44    1.42
   1  -1   4   32.75    1.59
  -2   1  -4   38.85    1.77
  -2   1  -4   41.51    2.02
  -2   1  -4   38.89    1.89
  -2   1  -4   41.82    1.78
   2  -1   4   41.23    1.69
   2  -1   4   41.99    1.78
   2  -1   4   40.52    1.94
  -3   1  -4   26.49    1.53
  -3   1  -4   27.64    1.39
  -3   1  -4   28.20    1.33
  -3   1  -4   26.44    1.20
   3  -1   4   27.46    1.20
   3  -1   4   27.07    1.45
   3  -1   4   28.27    1.32
  -4   1  -4   22.04    1.14
  -4   1  -4   20.06    1.00
  -4   1  -4   21.51    1.35
  -4   1  -4   21.37    1.17
   4  -1   4   20.89    1.28
   4  -1   4   21.12    1.02
   4  -1   4   22.44    1.16
  -5   1  -4    3.60    0.50
  -5   1  -4    3.56    0.39
  -5   1  -4    3.62    0.53
  -5   1  -4    3.94    0.66
   5  -1   4    3.25    0.60
  -6   1  -4   20.23    1.06
  -6   1  -4   22.00    1.50
  -6   1  -4   18.16    1.21
   6  -1   4   17.84    1.37
  -7   1  -4    0.73    0.48
  -7   1  -4    0.43    0.40
   7  -1   4   -0.20    0.40
  -8   1  -4    7.53    1.21
   8  -1   4    8.01    1.17
   9   0  -4   -0.38    0.55
  -9   0   4   -0.02    0.34
  -9   0   4   -0.39    0.44
   8   0  -4   15.57    1.38
  -8   0   4   14.60    1.15
  -8   0   4   12.21    1.36
   7   0  -4    0.43    0.43
  -7   0   4    0.08    0.36
  -7   0   4   -0.51    0.26
   6   0  -4   21.26    1.41
  -6   0   4   22.01    1.17
  -6   0   4   21.98    1.42
  -6   0   4   20.69    1.29
   5   0  -4   -0.41    0.20
  -5   0   4    0.14    0.24
  -5   0   4    0.17    0.20
  -5   0   4   -0.04    0.13
   4   0  -4    0.86    0.23
   4   0  -4    0.53    0.27
  -4   0   4    0.57    0.18
  -4   0   4    1.04    0.33
   3   0  -4    5.21    0.58
   3   0  -4    4.31    0.41
  -3   0   4    4.82    0.54
  -3   0   4    4.14    0.34
   2   0  -4   22.29    0.99
   2   0  -4   21.66    1.17
  -2   0   4   21.32    1.12
  -2   0   4   21.01    0.98
   1   0  -4  115.77    4.61
   1   0  -4  115.13    5.00
   1   0  -4  114.78    4.57
  -1   0   4  118.62    4.58
   0   0  -4   22.41    1.02
   0   0  -4   18.80    1.19
   0   0  -4   21.24    0.98
   0   0  -4   22.83    1.18
   0   0   4   22.60    1.11
   0   0   4   22.15    1.01
   0   0   4   22.42    1.01
  -1   0  -4    1.11    0.19
  -1   0  -4    0.60    0.25
  -1   0  -4    0.61    0.30
  -1   0  -4    0.29    0.15
   1   0   4    0.66    0.15
   1   0   4    0.40    0.14
   1   0   4    0.67    0.14
   1   0   4    0.46    0.22
  -2   0  -4  184.37    7.30
  -2   0  -4  185.65    7.89
  -2   0  -4  184.49    7.75
   2   0   4  187.17    7.31
   2   0   4  190.66    7.82
   2   0   4  181.48    7.33
   2   0   4  182.18    7.37
  -3   0  -4   18.29    1.21
  -3   0  -4   21.31    1.03
  -3   0  -4   19.84    0.95
  -3   0  -4   16.72    1.11
   3   0   4   19.11    0.95
   3   0   4   18.75    1.13
   3   0   4   20.08    1.03
  -4   0  -4   39.21    1.71
  -4   0  -4   33.34    1.62
  -4   0  -4   37.55    1.99
  -4   0  -4   34.18    1.83
   4   0   4   32.02    1.70
   4   0   4   37.55    1.91
  -5   0  -4    1.06    0.44
  -5   0  -4    1.58    0.43
  -5   0  -4    1.64    0.32
   5   0   4    1.82    0.37
   5   0   4    1.96    0.49
  -6   0  -4   -0.12    0.33
  -6   0  -4    0.80    0.29
  -6   0  -4    1.22    0.46
   6   0   4    0.94    0.48
  -7   0  -4    5.16    0.94
  -7   0  -4    7.61    0.97
   7   0   4    7.91    1.14
  -8   0  -4    0.54    0.61
   8   0   4    0.77    0.56
   9  -1  -4    3.05    0.82
  -9   1   4    3.07    0.83
  -9   1   4    1.36    0.48
   8  -1  -4    0.13    0.43
  -8   1   4   -0.20    0.35
  -8   1   4    0.19    0.35
   7  -1  -4   29.06    1.84
  -7   1   4   29.86    1.70
  -7   1   4   31.93    1.89
   6  -1  -4   16.73    1.20
  -6   1   4   16.17    1.16
  -6   1   4   16.65    0.95
  -6   1   4   15.82    1.08
   5  -1  -4    0.95    0.33
  -5   1   4    0.93    0.35
  -5   1   4    1.21    0.27
   4  -1  -4    0.29    0.27
  -4   1   4    0.37    0.18
  -4   1   4    0.44    0.24
   3  -1  -4   20.75    1.12
  -3   1   4   19.36    1.09
  -3   1   4   18.54    0.93
   2  -1  -4   32.77    1.67
  -2   1   4   32.99    1.45
  -2   1   4   35.15    1.63
   1  -1  -4   10.03    0.71
   1  -1  -4    8.94    0.70
  -1   1   4    8.70    0.51
  -1   1   4   10.23    0.55
  -1   1   4    9.43    0.60
   0  -1  -4  217.57    8.99
   0  -1  -4  228.77    9.12
   0   1   4  212.14    8.97
   0   1   4  219.36    8.42
   0   1   4  203.78    8.42
  -1  -1  -4   41.33    2.02
  -1  -1  -4   40.26    1.97
   1   1   4   43.08    1.78
   1   1   4   37.83    1.92
   1   1   4   41.82    1.78
   1   1   4   38.48    1.76
  -2  -1  -4   55.38    2.58
  -2  -1  -4   57.90    2.54
  -2  -1  -4   52.66    2.30
   2   1   4   52.59    2.30
   2   1   4   45.83    2.27
   2   1   4   54.18    2.48
   2   1   4   53.63    2.28
  -3  -1  -4   43.34    1.85
  -3  -1  -4   43.05    2.14
  -3  -1  -4   40.75    2.18
  -3  -1  -4   41.87    1.91
   3   1   4   42.99    2.12
   3   1   4   42.54    1.93
   3   1   4   40.06    1.92
  -4  -1  -4   52.83    2.52
  -4  -1  -4   50.68    2.29
  -4  -1  -4   49.54    2.60
   4   1   4   49.76    2.52
   4   1   4   47.96    2.31
  -5  -1  -4   25.34    1.57
  -5  -1  -4   24.67    1.35
  -5  -1  -4   21.30    1.58
   5   1   4   27.55    1.47
   5   1   4   26.56    1.62
  -6  -1  -4   -0.24    0.37
  -6  -1  -4    0.17    0.27
  -6  -1  -4   -0.20    0.39
   6   1   4   -0.23    0.34
  -7  -1  -4    3.18    0.85
  -7  -1  -4    2.62    0.68
  -7  -1  -4    3.58    0.57
   7   1   4    2.52    0.76
   9  -2  -4    9.68    1.27
  -9   2   4   11.46    1.17
  -9   2   4   12.51    1.50
   8  -2  -4    1.95    0.59
  -8   2   4    1.24    0.41
  -8   2   4    1.78    0.52
   7  -2  -4    7.27    0.93
  -7   2   4    7.14    0.76
  -7   2   4    8.69    0.97
  -7   2   4    7.80    0.88
   6  -2  -4   43.54    2.31
  -6   2   4   44.10    2.03
  -6   2   4   44.63    2.32
   5  -2  -4   55.37    2.67
  -5   2   4   54.67    2.38
  -5   2   4   55.26    2.67
   4  -2  -4   31.08    1.51
  -4   2   4   24.43    1.22
  -4   2   4   24.65    1.41
   3  -2  -4   22.80    1.22
   3  -2  -4   21.04    1.23
  -3   2   4   21.88    1.17
  -3   2   4   21.56    1.03
   2  -2  -4   68.11    3.03
   2  -2  -4   69.35    2.74
   2  -2  -4   60.22    3.02
  -2   2   4   67.76    2.73
  -2   2   4   68.06    2.96
   1  -2  -4   15.65    0.97
   1  -2  -4   14.61    0.95
   1  -2  -4   15.16    0.75
  -1   2   4   14.67    0.78
  -1   2   4   16.29    0.76
  -1   2   4   16.11    0.85
   0  -2  -4  362.86   14.82
   0  -2  -4  371.01   14.97
   0  -2  -4  351.93   13.90
   0   2   4  358.10   13.94
   0   2   4  378.18   13.93
   0   2   4  341.21   14.25
  -1  -2  -4   38.94    1.75
  -1  -2  -4   39.38    2.05
  -1  -2  -4   42.28    2.05
   1   2   4   41.93    1.80
   1   2   4   42.73    1.81
   1   2   4   39.97    1.95
  -2  -2  -4    1.00    0.32
  -2  -2  -4    0.94    0.35
  -2  -2  -4    1.08    0.24
  -2  -2  -4    0.89    0.19
  -2  -2  -4    0.68    0.22
   2   2   4    0.76    0.20
   2   2   4    0.95    0.27
   2   2   4    0.67    0.22
  -3  -2  -4   18.71    1.20
  -3  -2  -4   19.00    1.23
  -3  -2  -4   18.27    1.03
  -3  -2  -4   17.87    0.95
  -3  -2  -4   17.17    0.94
   3   2   4   16.63    0.99
   3   2   4   17.31    1.13
   3   2   4   18.06    1.02
  -4  -2  -4    4.38    0.56
  -4  -2  -4    4.75    0.75
  -4  -2  -4    4.96    0.46
  -4  -2  -4    4.60    0.72
   4   2   4    5.44    0.73
   4   2   4    4.23    0.55
  -5  -2  -4   22.03    1.28
  -5  -2  -4   22.48    1.51
  -5  -2  -4   21.21    1.50
   5   2   4   19.39    1.26
   5   2   4   19.01    1.40
  -6  -2  -4    5.74    0.93
  -6  -2  -4    6.44    0.79
  -6  -2  -4    6.27    0.92
   6   2   4    6.30    0.97
  -7  -2  -4   -0.21    0.45
  -7  -2  -4   -0.53    0.33
  -7  -2  -4   -0.27    0.50
   7   2   4    0.49    0.46
  10  -3  -4    1.92    0.74
 -10   3   4    0.50    0.44
 -10   3   4    0.22    0.55
   9  -3  -4    4.61    0.89
  -9   3   4    5.96    0.82
  -9   3   4    3.22    0.79
   8  -3  -4    2.30    0.63
  -8   3   4    1.55    0.55
  -8   3   4    2.00    0.51
   7  -3  -4    0.26    0.24
   7  -3  -4    0.06    0.32
  -7   3   4   -0.09    0.22
  -7   3   4    0.23    0.30
   6  -3  -4   21.33    1.14
   6  -3  -4   20.33    1.31
  -6   3   4   20.19    1.11
  -6   3   4   18.55    1.27
   5  -3  -4   26.94    1.62
  -5   3   4   29.36    1.42
  -5   3   4   34.13    1.68
   4  -3  -4  122.63    5.50
   4  -3  -4  131.60    5.56
  -4   3   4  124.42    5.10
  -4   3   4  131.97    5.53
   3  -3  -4   48.44    2.10
   3  -3  -4   50.12    2.38
   3  -3  -4   52.26    2.39
  -3   3   4   50.77    2.11
  -3   3   4   50.11    2.32
   2  -3  -4   25.30    1.40
   2  -3  -4   25.80    1.42
  -2   3   4   25.89    1.18
  -2   3   4   28.05    1.33
   1  -3  -4   23.18    1.46
   1  -3  -4   29.29    1.45
   1  -3  -4   30.63    1.41
   1  -3  -4   26.38    1.52
  -1   3   4   29.85    1.31
  -1   3   4   30.01    1.28
  -1   3   4   30.39    1.41
   0  -3  -4   98.90    4.32
   0  -3  -4   95.70    4.07
   0  -3  -4   96.97    4.28
   0   3   4   97.05    3.89
   0   3   4   94.78    4.18
   0   3   4   95.26    3.90
  -1  -3  -4   13.49    0.82
  -1  -3  -4   13.22    0.96
  -1  -3  -4   12.77    0.90
   1   3   4   13.30    0.82
   1   3   4   12.44    0.73
   1   3   4   12.96    0.74
  -2  -3  -4   16.13    1.15
  -2  -3  -4   17.13    0.98
  -2  -3  -4   18.15    1.15
  -2  -3  -4   17.16    1.02
   2   3   4   15.82    0.93
   2   3   4   16.77    1.03
   2   3   4   16.40    0.93
  -3  -3  -4   -0.16    0.26
  -3  -3  -4    0.54    0.24
  -3  -3  -4    0.50    0.30
  -3  -3  -4   -0.32    0.18
   3   3   4    0.02    0.24
   3   3   4    0.13    0.18
  -4  -3  -4    8.04    0.82
  -4  -3  -4    9.13    1.04
  -4  -3  -4    8.27    0.96
  -4  -3  -4    7.17    0.58
   4   3   4    8.10    0.79
   4   3   4    9.27    1.01
  -5  -3  -4    0.04    0.29
  -5  -3  -4   -0.22    0.36
  -5  -3  -4    0.34    0.38
   5   3   4    0.05    0.37
   5   3   4    0.06    0.23
  -6  -3  -4    3.05    0.64
  -6  -3  -4    3.43    0.79
  -6  -3  -4    6.09    1.00
  10  -4  -4    3.85    0.91
 -10   4   4    2.74    0.65
 -10   4   4    6.00    1.09
   9  -4  -4    1.25    0.60
  -9   4   4    1.28    0.44
  -9   4   4    2.33    0.70
   8  -4  -4    0.72    0.46
  -8   4   4   -0.13    0.34
  -8   4   4    0.16    0.23
   7  -4  -4    0.51    0.37
   7  -4  -4    0.03    0.22
  -7   4   4    0.34    0.24
  -7   4   4   -0.20    0.25
   6  -4  -4   11.71    0.86
   6  -4  -4   12.72    1.01
   6  -4  -4   13.17    0.94
  -6   4   4   11.77    0.95
  -6   4   4   12.35    0.81
   5  -4  -4   -0.21    0.19
   5  -4  -4    0.20    0.28
   5  -4  -4   -0.05    0.18
  -5   4   4   -0.10    0.19
  -5   4   4    0.12    0.17
   4  -4  -4    6.97    0.69
   4  -4  -4    7.81    0.78
   4  -4  -4    6.98    0.64
  -4   4   4    7.65    0.51
  -4   4   4    7.83    0.61
   3  -4  -4   21.71    1.24
   3  -4  -4   19.48    1.16
   3  -4  -4   18.44    1.18
  -3   4   4   21.25    1.11
  -3   4   4   22.04    1.00
   2  -4  -4   14.48    0.92
   2  -4  -4   13.57    0.97
   2  -4  -4   14.16    0.93
   2  -4  -4   14.23    0.85
  -2   4   4   16.03    0.80
  -2   4   4   14.93    0.83
  -2   4   4   14.89    0.75
   1  -4  -4    7.12    0.69
   1  -4  -4    6.04    0.48
   1  -4  -4    7.04    0.81
   1  -4  -4    7.02    0.71
  -1   4   4    7.17    0.46
  -1   4   4    6.25    0.48
  -1   4   4    5.98    0.42
   0  -4  -4   -0.12    0.26
   0  -4  -4    0.34    0.15
   0  -4  -4   -0.15    0.17
   0  -4  -4    0.02    0.23
   0   4   4    0.11    0.13
   0   4   4    0.20    0.12
   0   4   4   -0.08    0.14
  -1  -4  -4    1.78    0.38
  -1  -4  -4    1.92    0.48
  -1  -4  -4    2.50    0.41
  -1  -4  -4    1.81    0.40
   1   4   4    2.04    0.32
   1   4   4    2.34    0.35
   1   4   4    1.74    0.36
  -2  -4  -4    0.63    0.29
  -2  -4  -4    0.38    0.32
  -2  -4  -4    0.43    0.26
  -2  -4  -4    0.70    0.38
   2   4   4    0.74    0.25
   2   4   4    0.35    0.20
   2   4   4    0.72    0.30
  -3  -4  -4    9.16    0.80
  -3  -4  -4    7.55    0.88
  -3  -4  -4    9.38    0.72
  -3  -4  -4    7.37    0.96
   3   4   4    9.45    0.92
   3   4   4    8.27    0.68
  -4  -4  -4    7.54    1.05
  -4  -4  -4    7.98    0.97
  -4  -4  -4    6.70    0.81
  -4  -4  -4    7.27    0.70
   4   4   4    6.89    0.90
   4   4   4    8.23    0.87
  -5  -4  -4    7.84    1.05
  -5  -4  -4    7.25    1.08
  -5  -4  -4   10.62    1.04
   5   4   4    8.24    0.97
  -6  -4  -4    1.21    0.58
  -6  -4  -4    1.13    0.62
  -6  -4  -4    0.38    0.44
  10  -5  -4    1.37    0.70
 -10   5   4    0.68    0.49
   9  -5  -4    3.18    0.77
  -9   5   4    4.13    0.77
   8  -5  -4    2.40    0.60
   8  -5  -4    3.02    0.53
  -8   5   4    2.08    0.60
  -8   5   4    2.43    0.45
   7  -5  -4    9.02    0.78
   7  -5  -4    8.89    0.77
   7  -5  -4    6.82    0.88
  -7   5   4    6.65    0.86
  -7   5   4    8.55    0.70
   6  -5  -4   37.43    1.88
   6  -5  -4   35.11    1.97
   6  -5  -4   36.09    1.88
  -6   5   4   35.33    1.93
  -6   5   4   36.27    1.73
   5  -5  -4   10.10    0.83
   5  -5  -4   12.00    0.86
   5  -5  -4   10.34    0.84
  -5   5   4   10.26    0.80
  -5   5   4   10.71    0.69
   4  -5  -4   36.42    1.92
   4  -5  -4   38.68    1.96
   4  -5  -4   42.24    1.99
  -4   5   4   38.33    1.87
  -4   5   4   36.13    1.68
   3  -5  -4    5.23    0.56
   3  -5  -4    5.62    0.71
   3  -5  -4    6.43    0.70
   3  -5  -4    6.03    0.65
  -3   5   4    5.66    0.42
  -3   5   4    6.56    0.51
   2  -5  -4   26.94    1.51
   2  -5  -4   27.03    1.30
   2  -5  -4   25.46    1.42
   2  -5  -4   22.60    1.36
  -2   5   4   25.79    1.21
  -2   5   4   24.54    1.15
  -2   5   4   23.65    1.25
   1  -5  -4   62.03    2.86
   1  -5  -4   61.16    2.75
   1  -5  -4   62.14    2.99
   1  -5  -4   59.15    2.83
  -1   5   4   63.65    2.76
  -1   5   4   59.91    2.57
  -1   5   4   60.43    2.54
   0  -5  -4   14.96    0.89
   0  -5  -4   16.38    1.02
   0  -5  -4   15.00    1.03
   0  -5  -4   14.80    1.15
   0   5   4   14.75    0.83
   0   5   4   15.35    0.84
   0   5   4   15.20    0.90
  -1  -5  -4    1.32    0.46
  -1  -5  -4    0.93    0.38
  -1  -5  -4    1.14    0.35
   1   5   4    1.82    0.36
   1   5   4    1.19    0.27
   1   5   4    1.49    0.31
  -2  -5  -4    0.24    0.37
  -2  -5  -4   -0.05    0.30
  -2  -5  -4   -0.14    0.25
  -2  -5  -4    0.06    0.24
   2   5   4   -0.13    0.16
   2   5   4   -0.22    0.23
  -3  -5  -4    2.45    0.64
  -3  -5  -4    2.21    0.52
  -3  -5  -4    3.24    0.60
  -3  -5  -4    2.09    0.42
   3   5   4    2.56    0.45
  -4  -5  -4    0.40    0.42
  -4  -5  -4   -0.32    0.40
  -4  -5  -4    0.24    0.33
   4   5   4    0.18    0.28
  -5  -5  -4    0.26    0.47
  -5  -5  -4    0.49    0.43
  -5  -5  -4    0.00    0.47
   5   5   4    0.74    0.42
   9  -6  -4    0.77    0.54
  -9   6   4    0.31    0.34
   8  -6  -4    0.70    0.44
   8  -6  -4    2.40    0.49
  -8   6   4    1.41    0.38
   7  -6  -4    1.79    0.52
   7  -6  -4    2.00    0.50
   7  -6  -4    3.63    0.59
  -7   6   4    2.82    0.56
  -7   6   4    1.95    0.39
   6  -6  -4   21.26    1.37
   6  -6  -4   22.79    1.34
   6  -6  -4   21.17    1.37
  -6   6   4   23.08    1.36
  -6   6   4   22.06    1.18
   5  -6  -4   20.41    1.28
   5  -6  -4   20.02    1.28
   5  -6  -4   24.09    1.32
  -5   6   4   17.36    1.15
  -5   6   4   20.65    1.06
   4  -6  -4   56.81    2.77
   4  -6  -4   58.19    2.79
   4  -6  -4   61.32    2.77
  -4   6   4   54.52    2.42
  -4   6   4   57.08    2.64
   3  -6  -4   26.39    1.58
   3  -6  -4   26.50    1.46
   3  -6  -4   26.42    1.53
  -3   6   4   26.51    1.22
  -3   6   4   25.69    1.32
   2  -6  -4   24.23    1.51
   2  -6  -4   25.61    1.44
   2  -6  -4   28.02    1.61
  -2   6   4   27.91    1.26
  -2   6   4   24.47    1.19
   1  -6  -4   29.85    1.73
   1  -6  -4   34.41    1.68
   1  -6  -4   28.37    1.84
  -1   6   4   29.77    1.43
  -1   6   4   33.55    1.58
  -1   6   4   32.84    1.48
   0  -6  -4   47.74    2.35
   0  -6  -4   49.86    2.60
   0  -6  -4   47.31    2.41
   0   6   4   51.07    2.15
   0   6   4   45.45    2.11
  -1  -6  -4   -0.26    0.24
  -1  -6  -4    0.07    0.32
  -1  -6  -4   -0.17    0.25
   1   6   4    0.00    0.17
  -2  -6  -4    2.51    0.54
  -2  -6  -4    3.04    0.57
  -2  -6  -4    3.23    0.73
  -2  -6  -4    1.80    0.47
   2   6   4    1.79    0.39
  -3  -6  -4   10.07    1.05
  -3  -6  -4    9.39    1.04
  -3  -6  -4    8.66    0.87
  -3  -6  -4   10.61    1.33
   3   6   4    8.94    0.78
  -4  -6  -4   11.27    1.23
  -4  -6  -4    9.78    1.12
  -4  -6  -4    6.57    1.13
   4   6   4   12.56    0.99
   9  -7  -4   -0.27    0.45
  -9   7   4    1.11    0.41
   8  -7  -4    5.18    0.72
   8  -7  -4    4.36    0.79
  -8   7   4    4.62    0.65
   7  -7  -4   11.59    1.04
   7  -7  -4   11.45    0.98
  -7   7   4   12.14    0.85
   6  -7  -4    1.98    0.49
   6  -7  -4    2.97    0.53
   6  -7  -4    2.09    0.55
  -6   7   4    1.83    0.35
   5  -7  -4   -0.13    0.27
   5  -7  -4   -0.18    0.31
   5  -7  -4    0.07    0.24
  -5   7   4    0.02    0.16
   4  -7  -4   11.37    0.96
   4  -7  -4   11.57    0.88
   4  -7  -4   10.56    0.96
  -4   7   4   11.08    0.67
   3  -7  -4   29.09    1.74
   3  -7  -4   28.83    1.70
   3  -7  -4   30.20    1.57
  -3   7   4   28.02    1.33
   2  -7  -4    4.07    0.63
   2  -7  -4    3.97    0.71
   2  -7  -4    3.93    0.52
  -2   7   4    3.07    0.37
  -2   7   4    3.85    0.44
   1  -7  -4    1.41    0.49
   1  -7  -4    0.58    0.35
   1  -7  -4    1.08    0.35
  -1   7   4    1.11    0.28
  -1   7   4    1.29    0.26
   0  -7  -4    2.93    0.64
   0  -7  -4    2.72    0.45
   0  -7  -4    3.07    0.56
   0   7   4    2.47    0.36
   0   7   4    3.29    0.43
  -1  -7  -4    8.84    1.14
  -1  -7  -4   10.68    0.85
  -1  -7  -4    9.50    1.01
   1   7   4   11.53    0.77
  -2  -7  -4    0.36    0.45
  -2  -7  -4   -0.35    0.30
  -2  -7  -4   -0.41    0.31
  -2  -7  -4    0.29    0.40
   2   7   4    0.14    0.26
  -3  -7  -4    0.13    0.41
  -3  -7  -4   -0.46    0.49
  -3  -7  -4    0.67    0.48
  -3  -7  -4   -0.07    0.34
   3   7   4   -0.13    0.29
   9  -8  -4   -0.31    0.47
  -9   8   4   -0.19    0.30
   8  -8  -4    2.84    0.68
   8  -8  -4    2.08    0.58
  -8   8   4    2.12    0.48
   7  -8  -4    1.23    0.48
   7  -8  -4    0.23    0.39
  -7   8   4    1.04    0.32
   6  -8  -4    1.60    0.44
   6  -8  -4    1.37    0.47
  -6   8   4    1.44    0.33
   5  -8  -4    1.76    0.51
   5  -8  -4    1.08    0.41
   5  -8  -4    0.91    0.38
  -5   8   4    1.29    0.27
   4  -8  -4    1.07    0.41
   4  -8  -4    0.69    0.37
  -4   8   4    1.35    0.27
   3  -8  -4   -0.07    0.30
   3  -8  -4   -0.55    0.30
  -3   8   4    0.05    0.16
  -3   8   4   -0.01    0.20
   2  -8  -4    8.98    1.01
   2  -8  -4    9.58    1.12
  -2   8   4    9.08    0.65
  -2   8   4    9.41    0.61
   1  -8  -4   11.21    1.19
   1  -8  -4   14.95    1.27
  -1   8   4   14.95    0.88
  -1   8   4   14.49    0.84
   0  -8  -4    0.09    0.39
   0  -8  -4    0.87    0.43
   0   8   4    0.19    0.20
  -1  -8  -4    3.60    0.69
  -1  -8  -4    3.84    0.84
  -1  -8  -4    4.47    0.60
   1   8   4    4.55    0.57
  -2  -8  -4    7.02    0.93
  -2  -8  -4    5.99    1.12
  -2  -8  -4    6.51    0.79
   2   8   4    6.69    0.75
   8  -9  -4    0.36    0.47
   8  -9  -4    0.57    0.46
  -8   9   4    0.41    0.30
   7  -9  -4    3.88    0.70
   7  -9  -4    3.23    0.65
  -7   9   4    4.84    0.56
   6  -9  -4    2.04    0.51
   6  -9  -4    1.49    0.51
  -6   9   4    1.37    0.33
   5  -9  -4    1.23    0.53
   5  -9  -4    0.99    0.43
  -5   9   4    0.82    0.26
   4  -9  -4   -0.04    0.41
   4  -9  -4    0.88    0.44
  -4   9   4    0.45    0.23
   3  -9  -4    9.64    1.09
   3  -9  -4   10.49    1.15
  -3   9   4    8.67    0.62
   2  -9  -4    5.94    0.95
   2  -9  -4    5.89    0.89
  -2   9   4    6.32    0.51
   1  -9  -4    3.39    0.67
   1  -9  -4    1.92    0.68
  -1   9   4    2.86    0.39
   0  -9  -4    0.02    0.34
   0  -9  -4   -0.23    0.40
   0   9   4    0.60    0.29
   6 -10  -4    2.08    0.63
  -6  10   4    1.59    0.35
   5 -10  -4    0.09    0.43
  -5  10   4    0.33    0.25
   4 -10  -4    2.17    0.66
   4 -10  -4    2.49    0.71
  -4  10   4    2.11    0.36
   3 -10  -4    0.19    0.43
   3 -10  -4    0.24    0.54
  -3  10   4    0.18    0.23
   2 -10  -4    0.01    0.51
   2 -10  -4    0.34    0.45
  -2  10   4    0.26    0.22
  -1 -10   5    0.10    0.45
   0 -10   5    0.05    0.41
   1 -10   5    1.45    0.50
  -4  10  -5    0.49    0.26
  -5  10  -5    1.95    0.38
  -6  10  -5    0.28    0.30
  -2  -9   5    0.51    0.47
   1   9  -5    2.61    0.35
  -1  -9   5    3.43    0.66
   0  -9   5    0.18    0.39
   1  -9   5    4.20    0.64
   2  -9   5    0.78    0.36
  -4   9  -5    1.39    0.32
  -4   9  -5    1.90    0.34
  -5   9  -5    0.53    0.25
  -6   9  -5    0.70    0.31
   6  -9   5    0.98    0.39
  -7   9  -5    0.62    0.35
   7  -9   5    0.74    0.47
  -4  -8   5    0.88    0.55
  -3  -8   5    0.20    0.41
  -2  -8   5    5.46    0.79
   1   8  -5    6.09    0.47
  -1  -8   5    6.69    0.82
   0  -8   5    0.35    0.32
   1  -8   5    0.90    0.36
   2  -8   5    0.38    0.30
  -3   8  -5   21.70    1.08
  -3   8  -5   20.58    1.07
  -4   8  -5   12.61    0.80
  -4   8  -5   13.35    0.81
   4  -8   5   13.88    0.85
  -5   8  -5    4.54    0.56
   5  -8   5    4.33    0.58
  -6   8  -5    1.00    0.37
   6  -8   5    0.80    0.38
  -7   8  -5    0.40    0.32
   7  -8   5    0.31    0.44
  -5  -7   5    1.51    0.61
  -5  -7   5    1.66    0.54
  -4  -7   5    5.52    0.90
  -4  -7   5    6.29    0.76
  -3  -7   5    0.37    0.42
  -3  -7   5    0.03    0.28
   2   7  -5    0.14    0.19
  -2  -7   5   -0.09    0.31
   1   7  -5    0.27    0.17
  -1  -7   5    0.08    0.29
   0   7  -5    6.08    0.43
   0  -7   5    6.96    0.71
   1  -7   5   35.96    1.75
  -2   7  -5    4.60    0.40
  -2   7  -5    5.12    0.41
   2  -7   5    5.56    0.55
  -3   7  -5   -0.01    0.14
  -3   7  -5    0.19    0.16
  -4   7  -5    0.98    0.27
  -4   7  -5    0.55    0.23
   4  -7   5    0.79    0.31
  -5   7  -5    3.69    0.52
   5  -7   5    3.20    0.56
  -6   7  -5    0.39    0.28
   6  -7   5    0.95    0.43
  -7   7  -5    0.23    0.30
   7  -7   5    0.78    0.47
  -8   7  -5    0.93    0.42
   8  -7   5    1.05    0.59
  -6  -6   5    4.91    0.84
  -6  -6   5    6.12    1.04
  -5  -6   5    0.76    0.37
  -5  -6   5   -0.71    0.33
  -4  -6   5   -0.20    0.31
  -4  -6   5    0.10    0.30
   3   6  -5   11.20    0.79
  -3  -6   5   11.46    1.00
  -3  -6   5   12.14    0.88
   2   6  -5    0.29    0.17
  -2  -6   5   -0.02    0.29
  -2  -6   5    0.44    0.23
   1   6  -5    1.73    0.26
  -1  -6   5    1.26    0.37
   0   6  -5    0.42    0.15
   0   6  -5    0.50    0.25
   0  -6   5    0.74    0.28
  -1   6  -5   58.71    2.37
  -1   6  -5   54.10    2.57
   1  -6   5   59.88    2.54
  -2   6  -5    0.01    0.18
  -2   6  -5    0.02    0.12
  -2   6  -5   -0.10    0.12
  -2   6  -5    0.04    0.13
   2  -6   5   -0.03    0.15
   2  -6   5    0.20    0.11
   2  -6   5   -0.01    0.18
  -3   6  -5    1.03    0.31
  -3   6  -5    1.86    0.30
  -3   6  -5    1.45    0.28
   3  -6   5    1.76    0.34
  -4   6  -5    6.39    0.60
  -4   6  -5    6.21    0.53
  -4   6  -5    7.10    0.74
   4  -6   5    5.22    0.62
  -5   6  -5    0.74    0.34
  -5   6  -5    0.92    0.32
   5  -6   5    0.41    0.34
  -6   6  -5    3.39    0.54
   6  -6   5    2.99    0.57
  -7   6  -5    0.17    0.30
   7  -6   5    0.30    0.42
   8  -6   5    0.47    0.48
  -6  -5   5    0.10    0.41
  -6  -5   5   -0.13    0.39
  -5  -5   5   -0.49    0.31
  -5  -5   5   -0.44    0.29
  -4  -5   5    2.57    0.51
  -4  -5   5    3.58    0.61
   3   5  -5   18.56    1.00
   3   5  -5   18.11    1.17
  -3  -5   5   18.58    1.20
  -3  -5   5   19.43    1.14
   2   5  -5   -0.15    0.14
   2   5  -5   -0.13    0.24
  -2  -5   5    0.08    0.24
  -2  -5   5   -0.19    0.15
  -2  -5   5    0.11    0.19
   1   5  -5    8.97    0.67
   1   5  -5    9.17    0.53
  -1  -5   5    9.46    0.59
  -1  -5   5    7.84    0.58
  -1  -5   5    9.76    0.69
   0   5  -5   20.11    1.12
   0   5  -5   20.25    0.94
   0  -5   5   19.09    1.05
   0  -5   5   20.43    1.03
   0  -5   5   20.64    1.03
  -1   5  -5    2.55    0.31
  -1   5  -5    2.96    0.31
  -1   5  -5    3.11    0.35
  -1   5  -5    2.59    0.40
   1  -5   5    2.92    0.34
   1  -5   5    3.42    0.41
   1  -5   5    2.94    0.36
  -2   5  -5    1.07    0.30
  -2   5  -5    1.55    0.25
  -2   5  -5    1.25    0.24
   2  -5   5    1.23    0.32
   2  -5   5    1.32    0.28
  -3   5  -5    2.51    0.43
  -3   5  -5    2.55    0.36
  -3   5  -5    2.78    0.36
   3  -5   5    2.62    0.40
   3  -5   5    3.38    0.53
  -4   5  -5    1.23    0.29
  -4   5  -5    1.04    0.25
  -4   5  -5    1.47    0.39
   4  -5   5    1.07    0.33
  -5   5  -5    0.49    0.26
  -5   5  -5    0.85    0.38
   5  -5   5    0.49    0.33
  -6   5  -5    3.56    0.68
  -6   5  -5    2.87    0.51
   6  -5   5    3.24    0.69
  -7   5  -5   16.49    1.13
  -7   5  -5   15.23    1.35
   7  -5   5   13.66    1.27
   8  -5   5    2.79    0.68
  -7  -4   5    4.96    0.93
  -7  -4   5    5.17    0.87
  -6  -4   5    5.52    0.81
  -6  -4   5    4.81    0.76
   5   4  -5   10.97    1.13
  -5  -4   5   11.50    0.98
  -5  -4   5    9.63    1.03
   4   4  -5    9.90    0.88
  -4  -4   5   10.27    0.99
  -4  -4   5   10.26    0.83
   3   4  -5   42.67    1.83
   3   4  -5   39.14    2.03
  -3  -4   5   38.93    2.01
  -3  -4   5   41.48    2.04
   2   4  -5   -0.08    0.11
   2   4  -5   -0.03    0.21
  -2  -4   5   -0.17    0.14
  -2  -4   5    0.00    0.17
  -2  -4   5    0.01    0.18
   1   4  -5   78.84    3.52
   1   4  -5   79.62    3.19
  -1  -4   5   76.26    3.43
  -1  -4   5   80.31    3.38
  -1  -4   5   78.87    3.45
   0   4  -5  533.02   19.87
   0   4  -5  508.80   21.23
   0  -4   5  526.17   20.33
   0  -4   5  510.64   21.13
   0  -4   5  505.51   21.15
  -1   4  -5  140.91    5.49
  -1   4  -5  143.02    5.52
  -1   4  -5  132.09    5.96
   1  -4   5  142.46    5.94
   1  -4   5  141.13    5.57
   1  -4   5  133.75    5.90
  -2   4  -5    0.36    0.17
  -2   4  -5    0.47    0.26
  -2   4  -5    0.08    0.13
   2  -4   5    0.24    0.20
   2  -4   5    0.42    0.25
  -3   4  -5    3.05    0.39
  -3   4  -5    3.47    0.51
  -3   4  -5    3.57    0.41
   3  -4   5    2.64    0.41
  -4   4  -5   44.64    2.20
  -4   4  -5   40.34    1.94
  -4   4  -5   40.01    1.94
   4  -4   5   43.46    2.13
  -5   4  -5    4.17    0.56
  -5   4  -5    4.36    0.69
   5  -4   5    6.21    0.76
  -6   4  -5    1.27    0.55
  -6   4  -5    1.86    0.42
   6  -4   5    1.98    0.53
  -7   4  -5    2.74    0.72
   7  -4   5    2.13    0.63
  -8   4  -5    2.83    0.76
   8  -4   5    4.87    0.92
  -8  -3   5   -0.25    0.43
  -8  -3   5   -0.36    0.34
  -7  -3   5    2.73    0.76
  -7  -3   5    1.84    0.57
   6   3  -5    0.69    0.47
  -6  -3   5    0.47    0.36
  -6  -3   5   -0.12    0.31
   5   3  -5    3.45    0.60
  -5  -3   5    3.75    0.66
  -5  -3   5    4.27    0.65
   4   3  -5    8.93    0.79
   4   3  -5    8.41    0.62
  -4  -3   5    8.09    0.74
  -4  -3   5    9.12    0.76
   3   3  -5    7.61    0.52
   3   3  -5    7.33    0.66
  -3  -3   5    7.18    0.64
  -3  -3   5    7.62    0.63
   2   3  -5   29.28    1.58
   2   3  -5   32.33    1.40
  -2  -3   5   31.94    1.56
  -2  -3   5   29.48    1.51
   1   3  -5   72.76    3.18
   1   3  -5   70.95    2.85
  -1  -3   5   70.15    2.98
  -1  -3   5   70.87    3.11
  -1  -3   5   64.84    3.08
   0   3  -5  185.45    7.13
   0   3  -5  185.68    7.74
   0  -3   5  177.77    7.61
   0  -3   5  179.20    7.67
   0  -3   5  183.65    7.28
  -1   3  -5  360.59   13.72
  -1   3  -5  344.17   14.69
  -1   3  -5  359.95   13.69
   1  -3   5  350.99   13.88
   1  -3   5  354.46   14.61
  -2   3  -5   30.54    1.40
  -2   3  -5   29.56    1.47
  -2   3  -5   30.13    1.37
  -2   3  -5   30.48    1.59
   2  -3   5   27.92    1.50
  -3   3  -5   37.96    1.77
  -3   3  -5   38.80    1.76
  -3   3  -5   38.14    1.99
   3  -3   5   39.59    1.94
   3  -3   5   38.70    1.74
  -4   3  -5   19.79    1.09
  -4   3  -5   19.96    1.11
  -4   3  -5   21.02    1.32
   4  -3   5   19.21    1.23
  -5   3  -5   56.25    2.89
  -5   3  -5   59.55    2.59
   5  -3   5   53.32    2.81
  -6   3  -5   10.41    0.82
  -6   3  -5    7.82    1.00
   6  -3   5    9.22    1.05
  -7   3  -5    3.26    0.74
   7  -3   5    2.82    0.68
  -8   3  -5    4.33    0.93
   8  -3   5    7.97    1.20
   8   2  -5    1.08    0.60
  -8  -2   5    2.26    0.62
  -8  -2   5    1.26    0.58
   7   2  -5    0.27    0.47
  -7  -2   5    0.40    0.40
  -7  -2   5    0.92    0.46
   6   2  -5    1.04    0.50
  -6  -2   5    0.96    0.45
  -6  -2   5    0.87    0.42
   5   2  -5    0.07    0.31
  -5  -2   5   -0.39    0.20
  -5  -2   5    0.02    0.24
   4   2  -5    1.62    0.29
   4   2  -5    1.15    0.37
  -4  -2   5    1.77    0.43
  -4  -2   5    1.34    0.24
  -4  -2   5    1.19    0.34
   3   2  -5    0.37    0.24
   3   2  -5    0.25    0.14
  -3  -2   5    0.17    0.12
  -3  -2   5   -0.07    0.15
  -3  -2   5    0.07    0.17
   2   2  -5    3.22    0.47
   2   2  -5    3.79    0.33
  -2  -2   5    3.60    0.43
  -2  -2   5    3.49    0.43
  -2  -2   5    3.85    0.30
   1   2  -5    0.28    0.23
   1   2  -5   -0.06    0.08
  -1  -2   5   -0.01    0.14
  -1  -2   5    0.15    0.14
  -1  -2   5   -0.02    0.10
   0   2  -5   43.22    1.78
   0   2  -5   40.79    2.05
   0   2  -5   42.65    1.82
   0  -2   5   40.62    1.94
   0  -2   5   41.34    1.76
  -1   2  -5    1.02    0.30
  -1   2  -5    1.08    0.21
  -1   2  -5    0.83    0.29
  -1   2  -5    1.21    0.24
   1  -2   5    1.21    0.21
  -2   2  -5    5.70    0.65
  -2   2  -5    5.73    0.52
  -2   2  -5    6.32    0.48
  -2   2  -5    6.02    0.45
   2  -2   5    6.08    0.44
   2  -2   5    6.27    0.55
  -3   2  -5   18.57    0.99
  -3   2  -5   17.98    0.93
  -3   2  -5   15.79    1.10
  -3   2  -5   17.65    0.95
   3  -2   5   13.31    0.86
   3  -2   5   16.45    1.05
  -4   2  -5    1.44    0.37
  -4   2  -5    1.17    0.29
  -4   2  -5    1.28    0.43
   4  -2   5    0.74    0.23
   4  -2   5    1.03    0.36
  -5   2  -5    9.41    0.73
  -5   2  -5    8.71    0.72
  -5   2  -5    9.74    1.08
   5  -2   5    8.11    0.94
  -6   2  -5    3.89    0.59
  -6   2  -5    4.81    0.79
   6  -2   5    3.56    0.71
  -7   2  -5    0.12    0.47
   7  -2   5    0.21    0.46
  -8   2  -5    0.26    0.45
   8  -2   5    0.04    0.52
   9   1  -5    1.26    0.71
  -9  -1   5    0.93    0.46
  -9  -1   5    1.13    0.60
   8   1  -5    4.70    0.91
  -8  -1   5    2.85    0.77
  -8  -1   5    4.00    0.72
   7   1  -5    0.09    0.44
  -7  -1   5    0.27    0.36
  -7  -1   5    0.58    0.40
   6   1  -5    1.43    0.48
  -6  -1   5    1.22    0.44
  -6  -1   5    0.96    0.40
   5   1  -5   13.09    0.83
   5   1  -5   14.03    1.04
  -5  -1   5   11.72    0.94
  -5  -1   5   12.43    0.92
  -5  -1   5   12.41    0.76
   4   1  -5   45.55    2.34
   4   1  -5   48.30    2.08
  -4  -1   5   48.26    2.35
  -4  -1   5   47.84    2.05
  -4  -1   5   45.22    2.23
   3   1  -5   20.71    1.02
   3   1  -5   20.32    1.20
  -3  -1   5   20.71    1.19
  -3  -1   5   21.65    1.00
   2   1  -5   32.69    1.71
   2   1  -5   33.49    1.49
  -2  -1   5   34.06    1.67
  -2  -1   5   34.89    1.48
   1   1  -5   87.41    3.53
   1   1  -5   83.71    3.91
  -1  -1   5   92.78    3.85
   0   1  -5   42.14    1.88
   0   1  -5   44.83    1.85
   0   1  -5   43.81    2.09
   0   1  -5   47.03    2.17
   0  -1   5   40.61    2.01
  -1   1  -5   51.62    2.53
  -1   1  -5   52.27    2.24
  -1   1  -5   51.02    2.41
  -1   1  -5   51.53    2.22
   1  -1   5   52.83    2.22
   1  -1   5   54.57    2.45
  -2   1  -5    6.66    0.52
  -2   1  -5    7.40    0.51
  -2   1  -5    8.61    0.64
  -2   1  -5    7.77    0.71
   2  -1   5    8.07    0.54
   2  -1   5    8.30    0.43
   2  -1   5    7.75    0.63
  -3   1  -5   11.69    0.94
  -3   1  -5   13.29    0.79
  -3   1  -5   13.32    0.88
   3  -1   5   12.29    0.89
   3  -1   5   12.00    0.64
   3  -1   5   13.31    0.78
  -4   1  -5   36.92    1.87
  -4   1  -5   34.67    1.73
  -4   1  -5   37.99    2.06
   4  -1   5   34.97    1.95
   4  -1   5   35.82    1.61
   4  -1   5   37.33    1.78
  -5   1  -5    9.29    0.87
  -5   1  -5    7.07    0.52
  -5   1  -5    7.17    0.71
  -5   1  -5    8.65    1.00
   5  -1   5    7.28    0.94
  -6   1  -5    0.31    0.38
  -6   1  -5    0.86    0.46
   6  -1   5    1.25    0.48
  -7   1  -5    4.95    0.79
  -7   1  -5    4.36    0.88
   7  -1   5    4.17    0.84
  -8   1  -5    1.79    0.69
   8  -1   5    2.63    0.85
   9   0  -5    0.03    0.57
  -9   0   5    0.62    0.55
  -9   0   5    0.40    0.43
   8   0  -5    3.45    0.78
  -8   0   5    3.82    0.75
  -8   0   5    2.97    0.62
   7   0  -5   -0.09    0.38
  -7   0   5   -0.09    0.29
  -7   0   5   -0.20    0.25
   6   0  -5   -0.35    0.28
  -6   0   5    0.15    0.29
  -6   0   5   -0.27    0.25
   5   0  -5    0.23    0.32
  -5   0   5    0.44    0.28
  -5   0   5    0.00    0.15
  -5   0   5   -0.10    0.18
   4   0  -5  141.43    6.14
  -4   0   5  136.70    6.11
  -4   0   5  143.24    5.62
   3   0  -5    4.69    0.38
   3   0  -5    4.47    0.56
  -3   0   5    5.30    0.39
  -3   0   5    5.43    0.59
   2   0  -5   36.29    1.59
   2   0  -5   36.03    1.86
  -2   0   5   36.25    1.59
  -2   0   5   38.53    1.79
   1   0  -5  224.86    8.67
   1   0  -5  224.04    8.63
   1   0  -5  215.94    9.25
   1   0  -5  221.19    9.35
  -1   0   5  219.61    8.63
  -1   0   5  223.88    9.24
   0   0  -5    0.17    0.25
   0   0  -5    0.10    0.14
   0   0  -5   -0.13    0.22
   0   0  -5    0.17    0.11
   0   0   5    0.03    0.11
   0   0   5    0.15    0.15
  -1   0  -5   32.34    1.48
  -1   0  -5   31.03    1.65
  -1   0  -5   31.98    1.73
   1   0   5   35.40    1.50
   1   0   5   32.71    1.44
   1   0   5   30.24    1.64
  -2   0  -5  119.88    4.86
  -2   0  -5  118.14    5.19
  -2   0  -5  116.28    5.31
   2   0   5  121.96    4.85
   2   0   5  120.15    4.87
   2   0   5  121.62    5.23
  -3   0  -5    3.66    0.57
  -3   0  -5    3.53    0.43
  -3   0  -5    4.36    0.62
   3   0   5    2.87    0.34
   3   0   5    4.48    0.58
   3   0   5    3.85    0.49
  -4   0  -5    6.95    0.88
  -4   0  -5    6.91    0.55
  -4   0  -5    7.67    0.62
  -4   0  -5    7.61    0.83
   4   0   5    7.86    0.65
   4   0   5   10.46    1.05
  -5   0  -5   33.40    2.10
  -5   0  -5   35.69    1.70
  -5   0  -5   36.57    1.95
   5   0   5   36.18    1.87
   5   0   5   35.22    2.06
  -6   0  -5    3.87    0.53
  -6   0  -5    5.52    0.83
  -6   0  -5    6.41    0.99
   6   0   5    5.69    0.88
  -7   0  -5   -0.12    0.44
  -7   0  -5   -0.21    0.41
   7   0   5    0.24    0.50
   9  -1  -5    7.17    1.14
  -9   1   5    5.90    0.88
  -9   1   5    6.95    1.13
   8  -1  -5    2.91    0.74
  -8   1   5    2.57    0.58
  -8   1   5    3.64    0.79
   7  -1  -5    4.23    0.74
  -7   1   5    5.62    0.76
  -7   1   5    5.12    0.81
   6  -1  -5   15.87    1.19
  -6   1   5   15.74    0.93
  -6   1   5   14.65    1.13
   5  -1  -5   67.53    3.42
  -5   1   5   73.39    3.44
  -5   1   5   76.54    3.08
   4  -1  -5   98.44    4.25
  -4   1   5   89.39    4.20
   3  -1  -5   31.70    1.70
  -3   1   5   33.48    1.48
  -3   1   5   32.65    1.66
   2  -1  -5   37.09    1.60
   2  -1  -5   31.42    1.78
   2  -1  -5   37.59    1.85
  -2   1   5   34.52    1.72
  -2   1   5   35.90    1.55
   1  -1  -5    1.38    0.39
   1  -1  -5    1.63    0.38
   1  -1  -5    1.65    0.25
  -1   1   5    1.88    0.29
  -1   1   5    1.75    0.25
  -1   1   5    1.31    0.26
   0  -1  -5   17.67    1.13
   0  -1  -5   17.63    1.08
   0  -1  -5   17.81    0.89
   0   1   5   17.94    0.90
   0   1   5   17.17    0.89
   0   1   5   16.19    0.96
  -1  -1  -5    2.42    0.43
  -1  -1  -5    2.24    0.44
  -1  -1  -5    1.23    0.24
   1   1   5    2.86    0.33
   1   1   5    1.91    0.29
   1   1   5    3.14    0.48
   1   1   5    3.27    0.38
  -2  -1  -5  114.99    5.23
  -2  -1  -5  119.66    5.32
   2   1   5  120.31    4.87
   2   1   5  120.34    5.22
  -3  -1  -5   20.32    1.36
  -3  -1  -5   20.42    1.39
  -3  -1  -5   22.01    1.15
   3   1   5   23.60    1.34
   3   1   5   22.17    1.19
  -4  -1  -5    3.00    0.61
  -4  -1  -5    2.89    0.42
  -4  -1  -5    2.92    0.36
  -4  -1  -5    2.77    0.57
   4   1   5    2.47    0.46
   4   1   5    3.79    0.66
  -5  -1  -5   18.83    1.13
  -5  -1  -5   18.40    1.43
  -5  -1  -5   18.76    1.33
   5   1   5   18.72    1.21
   5   1   5   19.62    1.39
  -6  -1  -5   17.41    1.47
  -6  -1  -5   16.36    1.34
  -6  -1  -5   16.32    1.09
   6   1   5   17.43    1.43
  -7  -1  -5    0.56    0.59
  -7  -1  -5    0.89    0.60
   7   1   5    1.41    0.73
   9  -2  -5    1.21    0.60
  -9   2   5    0.42    0.45
  -9   2   5    0.04    0.33
   8  -2  -5    0.34    0.41
  -8   2   5    0.78    0.40
  -8   2   5    0.29    0.38
   7  -2  -5    1.37    0.49
  -7   2   5    1.50    0.50
  -7   2   5    1.83    0.39
   6  -2  -5    5.08    0.74
  -6   2   5    3.74    0.64
  -6   2   5    4.67    0.56
   5  -2  -5    6.07    0.73
  -5   2   5    6.20    0.75
  -5   2   5    5.90    0.50
   4  -2  -5   10.12    0.77
  -4   2   5    8.72    0.70
  -4   2   5    7.97    0.57
   3  -2  -5   96.89    4.22
   3  -2  -5   92.12    4.22
   3  -2  -5   97.25    3.85
  -3   2   5   93.01    4.15
  -3   2   5   91.70    3.82
   2  -2  -5    1.82    0.39
   2  -2  -5    2.04    0.42
   2  -2  -5    2.75    0.30
  -2   2   5    2.75    0.37
  -2   2   5    2.13    0.28
   1  -2  -5   24.52    1.18
   1  -2  -5   24.53    1.42
   1  -2  -5   25.59    1.46
  -1   2   5   27.50    1.33
  -1   2   5   26.28    1.23
  -1   2   5   25.79    1.19
   0  -2  -5    7.30    0.75
   0  -2  -5    6.80    0.46
   0  -2  -5    8.46    0.85
   0   2   5    6.94    0.50
   0   2   5    7.15    0.50
  -1  -2  -5    9.58    0.81
  -1  -2  -5    8.00    0.56
  -1  -2  -5    9.70    0.81
   1   2   5    9.46    0.62
   1   2   5    9.60    0.62
   1   2   5   10.02    0.72
  -2  -2  -5   20.81    1.36
  -2  -2  -5   22.51    1.11
  -2  -2  -5   20.88    1.15
  -2  -2  -5   23.09    1.39
   2   2   5   23.79    1.19
   2   2   5   21.27    1.27
   2   2   5   20.77    1.14
  -3  -2  -5    8.23    0.91
  -3  -2  -5    8.33    0.63
  -3  -2  -5    8.79    0.96
  -3  -2  -5    8.08    0.69
   3   2   5    9.13    0.94
   3   2   5    9.70    0.70
  -4  -2  -5    5.31    0.63
  -4  -2  -5    5.05    0.51
  -4  -2  -5    5.35    0.80
  -4  -2  -5    4.73    0.76
   4   2   5    5.41    0.64
   4   2   5    7.28    0.86
  -5  -2  -5    0.70    0.34
  -5  -2  -5    0.79    0.44
  -5  -2  -5    1.53    0.51
   5   2   5    1.50    0.50
   5   2   5    0.70    0.38
  -6  -2  -5    0.02    0.47
  -6  -2  -5    0.37    0.49
  -6  -2  -5    0.01    0.31
   6   2   5    0.05    0.48
   9  -3  -5    4.41    0.87
  -9   3   5    4.34    0.92
  -9   3   5    3.60    0.68
   8  -3  -5    0.62    0.45
  -8   3   5    0.40    0.41
   7  -3  -5    2.83    0.60
   7  -3  -5    4.04    0.55
  -7   3   5    3.11    0.65
  -7   3   5    4.30    0.58
   6  -3  -5   22.92    1.46
  -6   3   5   21.28    1.41
  -6   3   5   22.66    1.21
   5  -3  -5   16.51    1.16
  -5   3   5   19.58    1.18
  -5   3   5   18.03    0.98
   4  -3  -5    1.17    0.24
   4  -3  -5    1.46    0.39
   4  -3  -5    1.43    0.37
  -4   3   5    1.07    0.23
  -4   3   5    1.01    0.28
   3  -3  -5    1.37    0.23
   3  -3  -5    1.41    0.36
   3  -3  -5    1.49    0.39
  -3   3   5    0.75    0.19
  -3   3   5    0.76    0.23
   2  -3  -5   37.84    1.65
   2  -3  -5   38.91    1.96
   2  -3  -5   38.74    1.95
  -2   3   5   35.79    1.81
  -2   3   5   37.44    1.65
   1  -3  -5   20.93    1.29
   1  -3  -5   20.59    1.29
  -1   3   5   23.12    1.16
  -1   3   5   21.07    1.03
  -1   3   5   20.19    1.05
   0  -3  -5  112.14    5.07
   0  -3  -5  113.64    4.80
   0  -3  -5  117.98    5.10
   0   3   5  114.87    4.63
   0   3   5  111.03    4.62
   0   3   5  115.06    4.97
  -1  -3  -5   17.57    1.17
  -1  -3  -5   19.48    1.07
  -1  -3  -5   17.18    1.21
   1   3   5   16.80    1.05
   1   3   5   17.00    0.96
   1   3   5   17.70    0.96
  -2  -3  -5   84.36    3.54
  -2  -3  -5   79.29    3.88
  -2  -3  -5   84.85    3.85
   2   3   5   85.17    3.49
   2   3   5   72.49    3.68
   2   3   5   80.03    3.45
  -3  -3  -5   70.89    3.43
  -3  -3  -5   68.24    3.41
  -3  -3  -5   69.83    3.17
  -3  -3  -5   70.86    3.07
   3   3   5   66.55    3.31
   3   3   5   68.09    3.07
  -4  -3  -5    1.79    0.59
  -4  -3  -5    2.84    0.62
  -4  -3  -5    2.51    0.50
  -4  -3  -5    2.93    0.43
   4   3   5    2.80    0.62
   4   3   5    2.65    0.50
  -5  -3  -5    5.38    0.74
  -5  -3  -5    4.57    0.87
  -5  -3  -5    5.03    0.89
   5   3   5    5.77    0.87
   5   3   5    4.87    0.69
  -6  -3  -5   10.82    1.11
  -6  -3  -5   10.88    1.37
  -6  -3  -5   12.19    1.47
   9  -4  -5    0.77    0.53
  -9   4   5    1.81    0.67
   8  -4  -5    0.62    0.48
   8  -4  -5    1.15    0.37
  -8   4   5    1.17    0.52
  -8   4   5    1.35    0.39
   7  -4  -5    5.95    0.84
   7  -4  -5    5.13    0.78
   7  -4  -5    5.14    0.65
  -7   4   5    5.77    0.81
  -7   4   5    6.05    0.67
   6  -4  -5   12.72    0.91
   6  -4  -5   11.54    1.00
   6  -4  -5   10.68    0.94
  -6   4   5   12.78    0.82
  -6   4   5   13.29    1.00
   5  -4  -5    3.75    0.62
   5  -4  -5    3.42    0.56
   5  -4  -5    3.76    0.58
  -5   4   5    4.32    0.57
  -5   4   5    3.36    0.43
   4  -4  -5    2.56    0.46
   4  -4  -5    3.22    0.52
   4  -4  -5    2.51    0.49
  -4   4   5    2.65    0.36
  -4   4   5    1.68    0.38
   3  -4  -5    0.05    0.26
   3  -4  -5    0.28    0.24
   3  -4  -5   -0.11    0.22
  -3   4   5   -0.05    0.12
  -3   4   5    0.06    0.14
   2  -4  -5   39.75    1.95
   2  -4  -5   38.34    2.05
   2  -4  -5   37.35    2.01
  -2   4   5   41.18    1.89
  -2   4   5   40.24    1.72
  -2   4   5   36.94    1.77
   1  -4  -5   30.13    1.62
   1  -4  -5   29.98    1.70
   1  -4  -5   32.02    1.77
  -1   4   5   30.58    1.42
  -1   4   5   32.24    1.47
   0  -4  -5   21.49    1.30
   0  -4  -5   20.85    1.38
   0  -4  -5   19.93    1.21
   0   4   5   21.01    1.20
   0   4   5   21.68    1.09
   0   4   5   20.47    1.08
  -1  -4  -5    1.61    0.51
  -1  -4  -5    2.65    0.45
  -1  -4  -5    1.94    0.48
   1   4   5    1.70    0.33
   1   4   5    2.37    0.38
   1   4   5    2.61    0.46
  -2  -4  -5    3.59    0.69
  -2  -4  -5    3.37    0.52
  -2  -4  -5    2.53    0.53
   2   4   5    3.01    0.46
   2   4   5    2.82    0.51
  -3  -4  -5   24.75    1.54
  -3  -4  -5   25.90    1.74
  -3  -4  -5   26.49    1.46
  -3  -4  -5   26.65    1.69
   3   4   5   26.11    1.46
   3   4   5   28.48    1.61
  -4  -4  -5    2.20    0.57
  -4  -4  -5    1.08    0.56
  -4  -4  -5    1.72    0.48
   4   4   5    2.00    0.45
  -5  -4  -5    1.87    0.63
  -5  -4  -5    1.83    0.54
  -5  -4  -5    2.82    0.80
   5   4   5    1.86    0.52
   9  -5  -5   -0.03    0.50
  -9   5   5    0.39    0.38
   8  -5  -5    0.49    0.33
   8  -5  -5    0.59    0.48
  -8   5   5    1.53    0.53
  -8   5   5    0.21    0.29
   7  -5  -5    3.85    0.64
   7  -5  -5    4.36    0.63
   7  -5  -5    4.25    0.70
  -7   5   5    4.05    0.66
  -7   5   5    3.66    0.55
   6  -5  -5   67.95    3.15
   6  -5  -5   67.15    3.21
   6  -5  -5   64.02    3.26
  -6   5   5   70.90    2.96
  -6   5   5   67.68    3.25
   5  -5  -5    7.81    0.86
   5  -5  -5    6.39    0.79
   5  -5  -5    7.81    0.83
  -5   5   5    7.95    0.60
  -5   5   5    6.35    0.75
   4  -5  -5    3.79    0.63
   4  -5  -5    3.10    0.55
   4  -5  -5    4.96    0.68
  -4   5   5    3.43    0.41
  -4   5   5    3.02    0.45
   3  -5  -5    3.70    0.61
   3  -5  -5    3.22    0.56
   3  -5  -5    4.66    0.63
  -3   5   5    3.20    0.38
  -3   5   5    3.45    0.47
   2  -5  -5   36.44    2.03
   2  -5  -5   40.65    1.98
   2  -5  -5   35.91    1.82
   2  -5  -5   36.95    1.93
  -2   5   5   35.84    1.64
  -2   5   5   35.02    1.78
  -2   5   5   38.40    1.71
   1  -5  -5    2.10    0.53
   1  -5  -5    1.75    0.42
   1  -5  -5    2.07    0.46
   1  -5  -5    1.85    0.38
  -1   5   5    2.42    0.36
  -1   5   5    1.91    0.37
  -1   5   5    1.76    0.29
   0  -5  -5   17.96    1.19
   0  -5  -5   20.96    1.39
   0  -5  -5   17.32    1.17
   0   5   5   17.81    0.99
   0   5   5   18.37    1.08
   0   5   5   17.39    1.00
  -1  -5  -5   43.14    2.21
  -1  -5  -5   41.63    2.12
  -1  -5  -5   39.27    2.32
   1   5   5   39.59    2.07
   1   5   5   42.55    1.96
  -2  -5  -5    0.05    0.29
  -2  -5  -5    0.01    0.26
  -2  -5  -5   -0.05    0.34
   2   5   5    0.07    0.22
  -3  -5  -5    0.62    0.45
  -3  -5  -5    1.06    0.43
  -3  -5  -5    1.87    0.54
  -3  -5  -5    1.53    0.39
   3   5   5    1.14    0.37
  -4  -5  -5    5.99    1.06
  -4  -5  -5    5.23    0.86
  -4  -5  -5    4.09    0.70
   4   5   5    5.08    0.77
   9  -6  -5    3.58    0.81
   8  -6  -5    0.32    0.36
  -8   6   5    0.26    0.29
   7  -6  -5    0.83    0.42
   7  -6  -5    0.54    0.37
   7  -6  -5    0.34    0.34
  -7   6   5    0.06    0.22
   6  -6  -5    1.24    0.40
   6  -6  -5    1.15    0.45
   6  -6  -5    1.36    0.45
  -6   6   5    1.10    0.37
  -6   6   5    1.22    0.32
   5  -6  -5    0.57    0.35
   5  -6  -5    0.12    0.35
   5  -6  -5    0.23    0.26
  -5   6   5    0.09    0.16
  -5   6   5    0.24    0.24
   4  -6  -5   33.63    1.87
   4  -6  -5   33.87    1.90
   4  -6  -5   34.69    1.86
  -4   6   5   31.94    1.71
  -4   6   5   34.00    1.57
   3  -6  -5   15.54    1.11
   3  -6  -5   15.85    1.09
   3  -6  -5   16.45    1.20
  -3   6   5   14.15    0.90
  -3   6   5   14.52    0.82
   2  -6  -5    3.68    0.59
   2  -6  -5    3.26    0.65
   2  -6  -5    4.50    0.65
  -2   6   5    2.92    0.41
  -2   6   5    4.00    0.41
   1  -6  -5    6.45    0.92
   1  -6  -5    5.95    0.72
   1  -6  -5    6.70    0.81
  -1   6   5    6.31    0.52
  -1   6   5    5.80    0.59
   0  -6  -5    0.74    0.34
   0  -6  -5    0.18    0.34
   0  -6  -5   -0.63    0.23
   0   6   5    0.17    0.19
  -1  -6  -5    1.24    0.44
  -1  -6  -5    1.36    0.56
  -1  -6  -5    1.75    0.45
   1   6   5    2.24    0.39
  -2  -6  -5    1.87    0.47
  -2  -6  -5    1.95    0.63
  -2  -6  -5    2.13    0.52
   2   6   5    2.16    0.44
  -3  -6  -5    0.88    0.55
  -3  -6  -5    1.13    0.49
  -3  -6  -5    0.71    0.37
   3   6   5    0.49    0.32
   9  -7  -5   -0.24    0.47
  -9   7   5    0.35    0.36
   8  -7  -5   24.88    1.61
   8  -7  -5   24.41    1.69
  -8   7   5   24.58    1.42
   7  -7  -5    5.08    0.74
   7  -7  -5    5.18    0.80
  -7   7   5    5.23    0.61
   6  -7  -5    2.01    0.52
   6  -7  -5    2.47    0.58
   6  -7  -5    1.87    0.50
  -6   7   5    1.70    0.36
   5  -7  -5    0.26    0.30
   5  -7  -5    0.30    0.36
   5  -7  -5    0.74    0.39
  -5   7   5    0.06    0.19
   4  -7  -5   -0.23    0.24
   4  -7  -5    0.05    0.33
   4  -7  -5    0.24    0.30
  -4   7   5    0.18    0.18
   3  -7  -5    1.50    0.44
   3  -7  -5    1.39    0.42
   3  -7  -5    1.08    0.46
  -3   7   5    1.09    0.23
   2  -7  -5    0.14    0.31
   2  -7  -5    0.09    0.28
   2  -7  -5    0.55    0.43
  -2   7   5    0.16    0.16
  -2   7   5   -0.06    0.17
   1  -7  -5    2.11    0.49
   1  -7  -5    1.36    0.55
   1  -7  -5    2.28    0.47
  -1   7   5    1.57    0.32
   0  -7  -5    1.59    0.47
   0  -7  -5    0.37    0.43
   0  -7  -5    1.36    0.43
   0   7   5    0.70    0.25
  -1  -7  -5    0.38    0.46
  -1  -7  -5    0.24    0.36
  -1  -7  -5    1.25    0.44
   1   7   5    1.11    0.33
  -2  -7  -5   -0.40    0.34
  -2  -7  -5   -0.02    0.45
  -2  -7  -5    0.99    0.42
   2   7   5    0.42    0.32
   8  -8  -5   -0.09    0.45
   8  -8  -5    0.07    0.38
  -8   8   5    0.04    0.29
   7  -8  -5    4.59    0.81
   7  -8  -5    3.66    0.70
  -7   8   5    3.97    0.55
   6  -8  -5    1.17    0.47
   6  -8  -5    1.33    0.49
  -6   8   5    1.25    0.31
   5  -8  -5    0.21    0.35
   5  -8  -5    0.03    0.38
   5  -8  -5    0.54    0.45
  -5   8   5   -0.22    0.17
   4  -8  -5    2.27    0.57
   4  -8  -5    2.47    0.53
   4  -8  -5    1.13    0.52
  -4   8   5    1.94    0.33
   3  -8  -5    3.40    0.74
   3  -8  -5    2.44    0.58
  -3   8   5    3.55    0.42
   2  -8  -5   11.60    1.20
   2  -8  -5   15.61    1.28
  -2   8   5   11.63    0.76
   1  -8  -5    0.35    0.40
   1  -8  -5   -0.10    0.38
  -1   8   5    0.25    0.20
   0  -8  -5   -0.02    0.41
   0  -8  -5   -0.44    0.27
   0  -8  -5    0.20    0.29
   0   8   5    0.58    0.26
  -1  -8  -5    2.84    0.57
  -1  -8  -5    2.55    0.78
  -1  -8  -5    2.63    0.59
   1   8   5    2.63    0.50
   7  -9  -5    0.04    0.38
   7  -9  -5   -0.34    0.39
  -7   9   5    0.06    0.24
   6  -9  -5   -0.43    0.36
   6  -9  -5   -0.03    0.36
  -6   9   5    0.01    0.23
   5  -9  -5    4.07    0.78
   5  -9  -5    4.28    0.84
   5  -9  -5    4.48    0.70
  -5   9   5    4.42    0.53
   4  -9  -5    1.16    0.55
   4  -9  -5   -0.15    0.36
  -4   9   5    1.01    0.28
   3  -9  -5    5.40    0.87
   3  -9  -5    4.19    0.86
  -3   9   5    5.17    0.53
   2  -9  -5    0.60    0.52
   2  -9  -5    0.27    0.39
  -2   9   5    0.39    0.23
   1  -9  -5    1.82    0.56
   1  -9  -5    1.53    0.63
  -1   9   5    0.87    0.28
   0  -9  -5    0.40    0.58
   0  -9  -5   -0.05    0.35
   0   9   5   -0.07    0.23
   5 -10  -5    0.50    0.40
  -5  10   5    0.88    0.30
   4 -10  -5   10.79    1.30
   4 -10  -5   15.07    1.34
  -4  10   5   14.67    0.88
   3 -10  -5   -0.34    0.39
   3 -10  -5    0.17    0.52
  -3  10   5   -0.01    0.17
   0 -10   6    1.51    0.56
  -3  10  -6    1.44    0.33
  -4  10  -6    1.45    0.37
  -5  10  -6    0.58    0.32
  -2  -9   6    0.01    0.42
  -1  -9   6    0.11    0.38
   0   9  -6    3.22    0.36
   0  -9   6    4.37    0.69
   1  -9   6   -0.16    0.35
  -2   9  -6    1.70    0.29
  -3   9  -6    5.35    0.54
  -3   9  -6    5.12    0.55
  -4   9  -6   -0.19    0.23
  -5   9  -6    0.98    0.33
  -6   9  -6    3.97    0.59
   6  -9   6    2.50    0.55
  -3  -8   6    4.38    0.76
  -2  -8   6    2.32    0.60
   1   8  -6    0.99    0.25
  -1  -8   6    1.55    0.46
   0   8  -6   -0.12    0.13
   0  -8   6   -0.02    0.28
  -1   8  -6   -0.04    0.15
   1  -8   6   -0.04    0.27
  -2   8  -6    0.06    0.20
  -2   8  -6   -0.19    0.17
   2  -8   6    0.64    0.29
  -3   8  -6    9.14    0.68
  -3   8  -6   11.28    0.70
  -4   8  -6   -0.18    0.19
   4  -8   6    0.10    0.24
  -5   8  -6    0.07    0.25
   5  -8   6    0.19    0.35
  -6   8  -6    0.19    0.27
   6  -8   6    0.59    0.40
  -7   8  -6    0.08    0.31
   7  -8   6    0.48    0.43
  -5  -7   6    0.08    0.44
  -5  -7   6    0.90    0.45
  -4  -7   6    0.25    0.32
  -4  -7   6    0.07    0.46
  -3  -7   6    1.94    0.55
  -3  -7   6    1.43    0.40
   2   7  -6   15.67    0.92
  -2  -7   6   16.72    1.21
   1   7  -6    0.15    0.17
  -1  -7   6   -0.04    0.26
   0   7  -6    4.13    0.41
   0  -7   6    5.20    0.61
  -1   7  -6   35.49    1.61
   1  -7   6   36.79    1.77
  -2   7  -6    0.10    0.18
  -2   7  -6   -0.07    0.15
   2  -7   6   -0.35    0.18
  -3   7  -6   -0.12    0.16
  -3   7  -6   -0.01    0.18
   3  -7   6   -0.10    0.21
  -4   7  -6    0.07    0.20
   4  -7   6    0.93    0.34
  -5   7  -6    8.47    0.83
   5  -7   6    7.63    0.84
  -6   7  -6   17.21    1.14
   6  -7   6   17.51    1.30
  -7   7  -6    5.75    0.79
   7  -7   6    5.03    0.81
  -5  -6   6    5.06    0.78
  -5  -6   6    4.01    0.77
  -4  -6   6    3.14    0.58
  -4  -6   6    3.17    0.61
  -3  -6   6    8.79    0.97
  -3  -6   6   10.29    0.81
   2   6  -6    1.11    0.27
  -2  -6   6    0.93    0.37
  -2  -6   6    1.53    0.35
   1   6  -6    0.00    0.16
  -1  -6   6    0.32    0.28
  -1  -6   6   -0.05    0.18
   0   6  -6   12.04    0.71
   0  -6   6   13.99    0.88
  -1   6  -6   38.83    1.72
  -1   6  -6   35.64    1.74
  -1   6  -6   38.26    1.92
   1  -6   6   41.17    1.87
   1  -6   6   40.68    1.81
  -2   6  -6    1.72    0.30
  -2   6  -6    2.25    0.33
  -2   6  -6    2.13    0.41
   2  -6   6    2.33    0.29
   2  -6   6    2.22    0.36
  -3   6  -6    0.17    0.20
  -3   6  -6    0.16    0.19
  -3   6  -6    0.25    0.26
   3  -6   6    0.20    0.25
  -4   6  -6    4.40    0.70
  -4   6  -6    5.88    0.62
   4  -6   6    5.02    0.63
  -5   6  -6    0.28    0.25
   5  -6   6    0.28    0.34
  -6   6  -6    9.13    0.94
   6  -6   6    9.80    1.10
  -7   6  -6   12.09    1.00
   7  -6   6   12.59    1.33
   8  -6   6    0.79    0.53
  -6  -5   6   -0.17    0.37
  -6  -5   6   -0.52    0.37
  -5  -5   6    3.39    0.67
  -5  -5   6    4.35    0.73
  -4  -5   6    1.01    0.41
  -4  -5   6    0.78    0.35
   3   5  -6    5.63    0.56
  -3  -5   6    6.79    0.73
  -3  -5   6    4.85    0.67
   2   5  -6   24.98    1.23
   2   5  -6   23.52    1.44
  -2  -5   6   26.12    1.38
  -2  -5   6   25.85    1.42
   1   5  -6   36.25    1.87
   1   5  -6   36.59    1.63
  -1  -5   6   36.77    1.79
  -1  -5   6   38.46    1.79
  -1  -5   6   35.23    1.76
   0   5  -6    2.39    0.43
   0   5  -6    2.10    0.29
   0  -5   6    1.81    0.34
   0  -5   6    2.31    0.35
   0  -5   6    2.19    0.34
  -1   5  -6    0.19    0.15
  -1   5  -6    0.07    0.13
  -1   5  -6    0.71    0.30
   1  -5   6    0.08    0.16
   1  -5   6    0.09    0.20
   1  -5   6    0.54    0.25
  -2   5  -6    3.98    0.55
  -2   5  -6    4.14    0.45
  -2   5  -6    4.73    0.46
   2  -5   6    2.86    0.43
   2  -5   6    4.22    0.55
  -3   5  -6    1.07    0.35
  -3   5  -6    1.05    0.27
  -3   5  -6    0.65    0.22
   3  -5   6    0.33    0.24
  -4   5  -6    5.28    0.61
  -4   5  -6    5.95    0.76
   4  -5   6    4.89    0.65
  -5   5  -6    2.98    0.51
  -5   5  -6    3.74    0.67
   5  -5   6    1.76    0.49
  -6   5  -6    1.74    0.60
  -6   5  -6    1.76    0.48
   6  -5   6    1.30    0.53
  -7   5  -6    3.20    0.60
  -7   5  -6    2.20    0.69
   7  -5   6    1.97    0.62
   8  -5   6    4.90    0.94
  -7  -4   6    2.63    0.77
  -7  -4   6    3.42    0.73
  -6  -4   6    1.99    0.56
  -6  -4   6    1.87    0.54
   5   4  -6   18.47    1.43
  -5  -4   6   21.74    1.39
  -5  -4   6   18.31    1.32
   4   4  -6   -0.04    0.35
  -4  -4   6    0.16    0.23
  -4  -4   6   -0.21    0.24
   3   4  -6    0.06    0.18
   3   4  -6   -0.03    0.30
  -3  -4   6   -0.12    0.21
  -3  -4   6    0.05    0.23
   2   4  -6    5.47    0.45
   2   4  -6    6.04    0.71
  -2  -4   6    6.04    0.62
  -2  -4   6    5.03    0.57
   1   4  -6   10.74    0.81
   1   4  -6   10.48    0.62
  -1  -4   6   11.29    0.73
  -1  -4   6   10.73    0.72
  -1  -4   6   10.36    0.73
   0   4  -6   23.47    1.30
   0   4  -6   22.18    1.05
   0  -4   6   21.75    1.09
   0  -4   6   20.84    1.19
   0  -4   6   20.57    1.15
  -1   4  -6    0.39    0.16
  -1   4  -6    0.48    0.20
  -1   4  -6    0.58    0.29
   1  -4   6    0.23    0.14
   1  -4   6    1.65    0.35
  -2   4  -6   24.49    1.25
  -2   4  -6   25.71    1.23
  -2   4  -6   25.53    1.36
  -2   4  -6   24.28    1.43
   2  -4   6   25.48    1.36
  -3   4  -6    0.54    0.25
  -3   4  -6    0.13    0.28
  -3   4  -6    0.26    0.19
   3  -4   6   -0.04    0.21
  -4   4  -6   10.45    0.77
  -4   4  -6   11.45    0.97
   4  -4   6    9.03    0.83
  -5   4  -6    9.65    0.80
  -5   4  -6   10.85    1.16
   5  -4   6   10.31    1.08
  -6   4  -6   11.91    0.99
  -6   4  -6   15.97    1.52
   6  -4   6   15.51    1.24
  -7   4  -6    2.38    0.71
   7  -4   6    1.46    0.57
  -8   4  -6    0.99    0.64
   8  -4   6    0.42    0.52
  -8  -3   6    1.24    0.60
  -8  -3   6    1.56    0.61
  -7  -3   6    9.48    1.11
  -7  -3   6    8.59    1.12
   6   3  -6   14.97    1.29
  -6  -3   6   13.39    1.20
  -6  -3   6   16.08    1.21
   5   3  -6    1.85    0.54
  -5  -3   6    3.49    0.63
  -5  -3   6    2.27    0.50
   4   3  -6    4.85    0.53
   4   3  -6    5.80    0.75
  -4  -3   6    5.21    0.68
  -4  -3   6    6.76    0.77
   3   3  -6    1.20    0.25
   3   3  -6    1.46    0.41
  -3  -3   6    2.24    0.42
  -3  -3   6    2.50    0.43
   2   3  -6    5.04    0.62
   2   3  -6    4.55    0.39
  -2  -3   6    3.98    0.50
  -2  -3   6    4.01    0.49
   1   3  -6    6.49    0.45
   1   3  -6    6.95    0.72
  -1  -3   6    5.31    0.48
  -1  -3   6    7.04    0.55
   0   3  -6    1.02    0.25
   0   3  -6    0.93    0.20
   0   3  -6    0.87    0.31
   0  -3   6    1.01    0.26
   0  -3   6    0.76    0.21
  -1   3  -6    3.47    0.55
  -1   3  -6    3.89    0.42
  -1   3  -6    3.55    0.37
   1  -3   6    3.19    0.45
   1  -3   6    2.81    0.27
  -2   3  -6    2.81    0.52
  -2   3  -6    3.08    0.46
  -2   3  -6    1.82    0.30
  -2   3  -6    2.98    0.39
   2  -3   6    2.15    0.30
   2  -3   6    2.44    0.40
  -3   3  -6    1.03    0.25
  -3   3  -6    1.62    0.31
  -3   3  -6    2.12    0.48
  -3   3  -6    1.86    0.38
   3  -3   6    1.68    0.40
   3  -3   6    1.25    0.27
  -4   3  -6   18.20    1.29
  -4   3  -6   17.30    1.05
  -4   3  -6   17.73    1.07
   4  -3   6   17.36    1.20
  -5   3  -6   42.44    2.05
  -5   3  -6   41.89    2.36
   5  -3   6   39.67    2.24
  -6   3  -6    1.20    0.54
   6  -3   6    0.74    0.45
  -7   3  -6   -0.29    0.44
   7  -3   6    0.60    0.50
  -8   3  -6    3.07    0.88
   8  -3   6    3.11    0.87
   8   2  -6   -0.04    0.51
  -8  -2   6    0.27    0.45
  -8  -2   6    0.40    0.42
   7   2  -6   16.36    1.43
  -7  -2   6   14.14    1.52
  -7  -2   6   15.31    1.25
   6   2  -6   30.27    1.97
  -6  -2   6   33.43    1.98
  -6  -2   6   34.70    1.90
   5   2  -6   19.89    1.41
  -5  -2   6   20.98    1.36
  -5  -2   6   22.63    1.35
   4   2  -6   26.36    1.50
   4   2  -6   22.78    1.23
  -4  -2   6   24.80    1.40
  -4  -2   6   25.33    1.19
  -4  -2   6   24.46    1.45
   3   2  -6    2.91    0.37
   3   2  -6    3.47    0.54
  -3  -2   6    3.89    0.38
  -3  -2   6    3.62    0.54
  -3  -2   6    3.83    0.49
   2   2  -6   37.99    1.71
   2   2  -6   39.92    2.02
  -2  -2   6   36.56    1.82
  -2  -2   6   38.22    1.90
  -2  -2   6   40.13    1.68
   1   2  -6    8.01    0.50
   1   2  -6    7.54    0.68
  -1  -2   6    8.44    0.61
  -1  -2   6    7.62    0.48
   0   2  -6    0.93    0.20
   0   2  -6    0.21    0.16
   0   2  -6    0.45    0.28
   0  -2   6    0.25    0.13
   0  -2   6    0.24    0.16
  -1   2  -6    6.24    0.66
  -1   2  -6    6.13    0.48
  -1   2  -6    5.45    0.43
  -1   2  -6    4.62    0.63
   1  -2   6    6.18    0.64
   1  -2   6    5.66    0.43
  -2   2  -6   75.36    3.20
  -2   2  -6   76.01    3.44
  -2   2  -6   75.66    3.23
  -2   2  -6   81.04    3.63
   2  -2   6   76.16    3.20
   2  -2   6   76.55    3.50
  -3   2  -6    0.79    0.31
  -3   2  -6    0.20    0.18
  -3   2  -6    0.32    0.20
  -3   2  -6    0.34    0.32
   3  -2   6    0.18    0.23
   3  -2   6    0.04    0.11
  -4   2  -6    7.79    0.79
  -4   2  -6    7.85    0.77
  -4   2  -6    9.25    1.02
   4  -2   6    7.83    0.87
  -5   2  -6    0.09    0.24
  -5   2  -6    0.27    0.33
  -5   2  -6    0.15    0.31
   5  -2   6    0.25    0.36
  -6   2  -6    2.42    0.49
  -6   2  -6    1.63    0.56
   6  -2   6    1.34    0.54
  -7   2  -6   -0.31    0.39
   7  -2   6    0.16    0.46
   8   1  -6    0.49    0.58
  -8  -1   6   -0.06    0.38
  -8  -1   6   -0.03    0.37
   7   1  -6    7.63    1.06
  -7  -1   6    7.59    0.94
  -7  -1   6    6.15    0.95
   6   1  -6   -0.14    0.33
  -6  -1   6    0.23    0.33
  -6  -1   6    0.27    0.33
   5   1  -6    1.46    0.50
  -5  -1   6    1.04    0.41
  -5  -1   6    1.57    0.40
   4   1  -6   18.63    1.18
   4   1  -6   13.65    0.88
  -4  -1   6   15.94    1.04
  -4  -1   6   16.86    0.89
  -4  -1   6   19.26    1.14
   3   1  -6   21.32    1.04
   3   1  -6   20.15    1.25
  -3  -1   6   17.16    1.15
  -3  -1   6   21.52    1.01
   2   1  -6    0.15    0.24
   2   1  -6    0.06    0.12
  -2  -1   6   -0.07    0.14
  -2  -1   6    0.09    0.09
   1   1  -6  155.13    5.87
   1   1  -6  129.53    5.89
   1   1  -6  157.32    6.46
  -1  -1   6  151.18    6.32
   0   1  -6    3.79    0.61
   0   1  -6    3.70    0.53
   0   1  -6    3.95    0.38
   0   1  -6    3.64    0.39
   0  -1   6    2.85    0.33
   0  -1   6    4.15    0.51
  -1   1  -6    0.13    0.15
  -1   1  -6    0.15    0.24
  -1   1  -6    0.15    0.14
  -1   1  -6    0.19    0.30
   1  -1   6   -0.10    0.16
   1  -1   6   -0.09    0.11
  -2   1  -6   31.89    1.88
  -2   1  -6   34.85    1.64
  -2   1  -6   34.65    1.79
   2  -1   6   33.53    1.79
   2  -1   6   35.17    1.50
   2  -1   6   35.40    1.62
  -3   1  -6  129.72    5.35
  -3   1  -6  123.17    5.65
  -3   1  -6  132.78    5.88
   3  -1   6  135.91    5.78
   3  -1   6  131.06    5.33
   3  -1   6  129.45    5.24
  -4   1  -6    0.82    0.38
  -4   1  -6    0.84    0.28
  -4   1  -6    0.69    0.38
   4  -1   6    0.30    0.34
   4  -1   6    0.82    0.26
  -5   1  -6   -0.15    0.35
  -5   1  -6   -0.28    0.31
   5  -1   6    0.17    0.35
  -6   1  -6    5.78    0.78
  -6   1  -6    4.62    0.86
   6  -1   6    5.22    0.87
  -7   1  -6    1.04    0.61
   7  -1   6    1.61    0.70
   9   0  -6    0.94    0.74
  -9   0   6    0.98    0.63
  -9   0   6    0.27    0.46
   8   0  -6    2.89    0.75
  -8   0   6    2.37    0.61
  -8   0   6    2.63    0.69
   7   0  -6   14.57    1.26
  -7   0   6   11.83    1.04
  -7   0   6   11.81    1.33
   6   0  -6   13.44    1.14
  -6   0   6   14.18    1.05
  -6   0   6   11.26    1.04
   5   0  -6    0.79    0.39
  -5   0   6    0.41    0.22
  -5   0   6    0.41    0.27
   4   0  -6   23.26    1.40
  -4   0   6   22.63    1.14
  -4   0   6   22.46    1.35
   3   0  -6   19.52    1.20
  -3   0   6   17.27    0.92
  -3   0   6   18.02    1.10
   2   0  -6   64.15    2.89
   2   0  -6   64.98    3.22
  -2   0   6   73.45    3.16
  -2   0   6   72.24    2.87
   1   0  -6    3.87    0.59
   1   0  -6    6.03    0.67
   1   0  -6    4.49    0.45
  -1   0   6    4.26    0.42
  -1   0   6    5.44    0.56
   0   0  -6  110.39    4.80
   0   0  -6  102.29    4.66
   0   0  -6  103.17    4.31
   0   0   6  108.26    4.30
  -1   0  -6    8.87    0.75
  -1   0  -6    9.32    0.62
  -1   0  -6    8.60    0.90
   1   0   6    7.37    0.69
   1   0   6    8.87    0.55
   1   0   6    9.88    0.62
  -2   0  -6   14.99    1.06
  -2   0  -6   17.50    1.18
  -2   0  -6   16.32    0.92
   2   0   6   16.55    1.05
   2   0   6   14.00    0.80
   2   0   6   15.12    0.91
  -3   0  -6    6.27    0.88
  -3   0  -6    5.50    0.59
  -3   0  -6    5.51    0.76
   3   0   6    5.03    0.68
   3   0   6    5.52    0.58
  -4   0  -6   20.40    1.43
  -4   0  -6   18.76    1.30
   4   0   6   18.97    1.32
   4   0   6   18.10    1.13
  -5   0  -6    3.15    0.73
  -5   0  -6    2.14    0.57
   5   0   6    2.15    0.55
  -6   0  -6    0.47    0.54
  -6   0  -6    0.92    0.46
   6   0   6    0.00    0.42
  -7   0  -6    1.33    0.69
  -7   0  -6    1.95    0.62
   7   0   6    0.93    0.68
   9  -1  -6    4.02    0.95
  -9   1   6    3.32    0.82
  -9   1   6    6.30    0.92
   8  -1  -6    0.69    0.57
  -8   1   6   -0.03    0.34
  -8   1   6    0.02    0.33
   7  -1  -6    1.32    0.51
  -7   1   6    0.07    0.28
  -7   1   6    0.62    0.38
   6  -1  -6   51.89    2.71
  -6   1   6   53.50    2.70
  -6   1   6   48.96    2.31
   5  -1  -6   19.79    1.30
  -5   1   6   17.34    1.22
  -5   1   6   20.08    1.06
   4  -1  -6    4.26    0.65
  -4   1   6    4.91    0.50
  -4   1   6    4.15    0.57
   3  -1  -6  221.19    9.51
  -3   1   6  224.50    9.42
   2  -1  -6   23.70    1.17
   2  -1  -6   22.84    1.38
   2  -1  -6   24.04    1.41
  -2   1   6   22.92    1.29
  -2   1   6   23.61    1.13
   1  -1  -6   61.17    2.91
   1  -1  -6   59.62    2.97
   1  -1  -6   62.37    2.62
  -1   1   6   61.30    2.59
  -1   1   6   62.83    2.83
   0  -1  -6   30.17    1.42
   0  -1  -6   31.18    1.73
   0  -1  -6   29.69    1.66
   0   1   6   30.43    1.42
   0   1   6   29.80    1.44
  -1  -1  -6   11.55    0.68
  -1  -1  -6   11.04    0.88
  -1  -1  -6   11.07    0.92
   1   1   6   10.73    0.81
   1   1   6    9.44    0.66
   1   1   6    9.86    0.67
  -2  -1  -6    3.05    0.58
  -2  -1  -6    2.61    0.56
  -2  -1  -6    2.00    0.36
   2   1   6    1.89    0.43
   2   1   6    2.61    0.42
  -3  -1  -6   34.10    2.06
  -3  -1  -6   37.25    2.03
   3   1   6   37.88    1.99
   3   1   6   35.04    1.77
  -4  -1  -6    4.77    0.75
  -4  -1  -6    3.91    0.45
   4   1   6    4.52    0.59
   4   1   6    3.55    0.66
  -5  -1  -6    6.04    0.94
  -5  -1  -6    5.97    0.89
  -5  -1  -6    5.63    0.63
   5   1   6    5.73    0.89
  -6  -1  -6    5.13    0.94
  -6  -1  -6    6.46    1.00
   6   1   6    4.64    0.87
   9  -2  -6   -0.27    0.48
  -9   2   6    1.40    0.66
  -9   2   6    1.46    0.52
   8  -2  -6    2.02    0.60
  -8   2   6    1.35    0.52
  -8   2   6    0.79    0.40
   7  -2  -6   13.41    1.33
  -7   2   6   12.45    1.11
   6  -2  -6    1.47    0.48
  -6   2   6    1.34    0.34
  -6   2   6    1.40    0.42
   5  -2  -6   16.23    1.18
  -5   2   6   16.85    1.16
  -5   2   6   19.31    1.01
   4  -2  -6    3.11    0.54
  -4   2   6    2.90    0.46
  -4   2   6    2.87    0.37
   3  -2  -6   18.55    1.27
   3  -2  -6   18.76    1.28
  -3   2   6   22.04    1.20
  -3   2   6   21.47    1.04
   2  -2  -6   57.22    2.79
   2  -2  -6   57.30    2.43
   2  -2  -6   58.16    2.76
  -2   2   6   55.76    2.64
  -2   2   6   55.89    2.41
   1  -2  -6   41.07    2.14
   1  -2  -6   40.73    2.18
   1  -2  -6   40.08    1.83
  -1   2   6   40.16    1.83
  -1   2   6   43.89    2.03
  -1   2   6   43.23    1.90
   0  -2  -6   61.71    3.02
   0  -2  -6   62.13    2.96
   0  -2  -6   59.09    2.58
   0   2   6   64.48    2.63
   0   2   6   59.81    2.63
   0   2   6   58.33    2.85
  -1  -2  -6    6.78    0.86
  -1  -2  -6    5.48    0.47
  -1  -2  -6    6.01    0.79
   1   2   6    6.14    0.51
   1   2   6    5.60    0.67
   1   2   6    5.48    0.55
  -2  -2  -6    3.33    0.42
  -2  -2  -6    2.91    0.46
  -2  -2  -6    3.28    0.64
  -2  -2  -6    3.21    0.65
   2   2   6    2.13    0.38
   2   2   6    2.65    0.42
   2   2   6    3.63    0.58
  -3  -2  -6    0.92    0.47
  -3  -2  -6    1.27    0.51
  -3  -2  -6    1.13    0.35
   3   2   6    1.78    0.40
   3   2   6    1.27    0.40
  -4  -2  -6    1.14    0.30
  -4  -2  -6    0.28    0.44
  -4  -2  -6    0.30    0.40
   4   2   6    0.30    0.30
   4   2   6    0.36    0.37
  -5  -2  -6    0.04    0.47
  -5  -2  -6   -0.55    0.41
  -5  -2  -6   -0.01    0.29
   5   2   6    0.18    0.44
  -6  -2  -6    4.91    0.96
  -6  -2  -6    4.66    0.97
   6   2   6    5.29    0.98
   9  -3  -6    3.08    0.83
  -9   3   6    3.54    0.81
  -9   3   6    3.18    0.66
   8  -3  -6    0.36    0.32
   8  -3  -6    0.66    0.50
  -8   3   6    0.46    0.45
   7  -3  -6    1.13    0.47
  -7   3   6    0.84    0.47
  -7   3   6    0.60    0.27
   6  -3  -6    2.86    0.61
  -6   3   6    3.91    0.51
  -6   3   6    3.09    0.58
   5  -3  -6   -0.48    0.32
   5  -3  -6   -0.20    0.26
  -5   3   6    0.45    0.25
  -5   3   6    0.21    0.19
   4  -3  -6    0.01    0.15
   4  -3  -6    0.04    0.30
   4  -3  -6    0.34    0.29
  -4   3   6    0.10    0.15
  -4   3   6    0.10    0.21
   3  -3  -6    0.69    0.34
   3  -3  -6    1.28    0.42
   3  -3  -6    1.18    0.24
  -3   3   6    1.02    0.28
  -3   3   6    0.85    0.23
   2  -3  -6   -0.22    0.12
   2  -3  -6    0.07    0.26
   2  -3  -6   -0.18    0.26
  -2   3   6    0.11    0.15
  -2   3   6   -0.09    0.12
   1  -3  -6    0.40    0.35
   1  -3  -6    1.06    0.43
  -1   3   6    0.87    0.22
  -1   3   6    0.35    0.20
  -1   3   6    0.63    0.20
   0  -3  -6    2.22    0.54
   0  -3  -6    2.60    0.53
   0   3   6    2.36    0.43
   0   3   6    2.38    0.36
   0   3   6    2.37    0.34
  -1  -3  -6    0.19    0.28
  -1  -3  -6    0.12    0.22
  -1  -3  -6   -0.14    0.29
   1   3   6    0.11    0.17
   1   3   6   -0.19    0.20
   1   3   6   -0.16    0.14
  -2  -3  -6    0.24    0.29
  -2  -3  -6   -0.20    0.28
  -2  -3  -6    0.41    0.35
   2   3   6   -0.10    0.28
   2   3   6    0.25    0.23
  -3  -3  -6    7.24    0.98
  -3  -3  -6    8.35    0.80
  -3  -3  -6    7.76    1.02
   3   3   6   10.71    1.09
   3   3   6    8.70    0.74
  -4  -3  -6    4.15    0.80
  -4  -3  -6    4.36    0.78
   4   3   6    5.19    0.81
   4   3   6    4.98    0.67
  -5  -3  -6    2.25    0.68
  -5  -3  -6    2.73    0.70
  -5  -3  -6    2.23    0.52
   5   3   6    3.19    0.76
   9  -4  -6    0.91    0.59
  -9   4   6    0.23    0.48
   8  -4  -6    4.36    0.63
   8  -4  -6    2.24    0.64
   8  -4  -6    2.86    0.71
  -8   4   6    4.06    0.83
   7  -4  -6    0.19    0.30
   7  -4  -6    0.34    0.40
   7  -4  -6    0.83    0.44
  -7   4   6    0.86    0.41
  -7   4   6    0.77    0.31
   6  -4  -6    2.42    0.54
   6  -4  -6    2.42    0.58
   6  -4  -6    2.62    0.55
  -6   4   6    4.43    0.50
  -6   4   6    1.64    0.45
   5  -4  -6   18.58    1.26
   5  -4  -6   17.73    1.23
  -5   4   6   15.30    1.12
  -5   4   6   18.26    1.01
   4  -4  -6   44.94    2.47
   4  -4  -6   50.85    2.49
  -4   4   6   48.04    2.34
  -4   4   6   47.73    2.14
   3  -4  -6    7.78    0.86
   3  -4  -6    8.57    0.94
  -3   4   6    8.36    0.66
  -3   4   6    6.01    0.52
   2  -4  -6  117.19    5.33
   2  -4  -6  113.40    5.08
   2  -4  -6  120.65    5.36
  -2   4   6  117.44    5.16
  -2   4   6  119.50    4.81
  -2   4   6  123.84    4.89
   1  -4  -6    9.95    0.93
   1  -4  -6   10.19    0.85
   1  -4  -6   11.43    0.98
  -1   4   6   11.54    0.74
  -1   4   6   12.52    0.73
   0  -4  -6   11.07    0.94
   0  -4  -6   10.31    1.11
   0  -4  -6   10.44    0.85
   0   4   6   10.12    0.71
   0   4   6   10.27    0.82
   0   4   6   10.62    0.71
  -1  -4  -6   11.06    0.99
  -1  -4  -6   10.34    0.85
  -1  -4  -6   10.97    1.23
   1   4   6   11.27    0.87
   1   4   6   10.50    0.77
  -2  -4  -6    0.56    0.37
  -2  -4  -6    0.26    0.27
  -2  -4  -6    0.69    0.47
   2   4   6    0.94    0.41
   2   4   6    0.43    0.27
  -3  -4  -6    2.61    0.67
  -3  -4  -6    2.84    0.50
  -3  -4  -6    2.60    0.62
   3   4   6    3.79    0.60
   3   4   6    4.88    0.75
  -4  -4  -6    0.04    0.42
  -4  -4  -6    0.15    0.49
   4   4   6   -0.22    0.26
  -5  -4  -6    0.70    0.58
  -5  -4  -6   -0.31    0.42
   9  -5  -6    0.73    0.57
  -9   5   6    0.84    0.55
   8  -5  -6    4.66    0.76
   8  -5  -6    5.11    0.73
   8  -5  -6    4.16    0.82
  -8   5   6    6.48    0.92
  -8   5   6    4.51    0.63
   7  -5  -6    8.78    0.98
   7  -5  -6    7.77    0.89
   7  -5  -6    8.69    1.00
  -7   5   6    9.00    0.73
  -7   5   6    8.44    0.95
   6  -5  -6    6.16    0.82
   6  -5  -6    5.04    0.70
   6  -5  -6    5.72    0.83
  -6   5   6    6.65    0.78
  -6   5   6    6.47    0.65
   5  -5  -6    6.24    0.77
   5  -5  -6    7.13    0.88
   5  -5  -6    7.93    0.90
  -5   5   6    4.51    0.66
  -5   5   6    6.93    0.58
   4  -5  -6   21.14    1.40
   4  -5  -6   21.07    1.32
   4  -5  -6   20.57    1.36
  -4   5   6   16.90    1.17
  -4   5   6   22.06    1.11
   3  -5  -6   10.53    0.94
   3  -5  -6   10.07    0.88
   3  -5  -6   11.60    1.17
  -3   5   6   10.92    0.78
  -3   5   6   11.69    0.71
   2  -5  -6   -0.15    0.31
   2  -5  -6   -0.24    0.20
   2  -5  -6    0.08    0.32
  -2   5   6    0.02    0.17
  -2   5   6   -0.15    0.17
  -2   5   6    0.02    0.17
   1  -5  -6   60.84    3.20
   1  -5  -6   66.04    3.13
   1  -5  -6   60.13    2.99
  -1   5   6   65.48    2.98
  -1   5   6   64.01    2.78
  -1   5   6   62.26    2.74
   0  -5  -6   16.48    1.28
   0  -5  -6   15.53    1.14
   0  -5  -6   14.06    1.08
   0   5   6   15.41    1.03
   0   5   6   13.85    0.90
  -1  -5  -6    7.04    1.02
  -1  -5  -6    7.34    0.89
  -1  -5  -6    8.49    0.88
   1   5   6    5.73    0.65
  -2  -5  -6    8.00    1.07
  -2  -5  -6   12.16    1.09
  -2  -5  -6   11.73    0.95
   2   5   6   11.38    0.87
  -3  -5  -6    5.17    0.70
  -3  -5  -6    5.14    0.90
  -3  -5  -6    6.31    0.88
   3   5   6    6.22    0.75
  -4  -5  -6    4.86    0.90
  -4  -5  -6    4.21    0.89
   4   5   6    3.80    0.71
   9  -6  -6   -0.31    0.48
   8  -6  -6    8.34    0.97
   8  -6  -6    9.34    1.14
  -8   6   6    7.55    0.82
   7  -6  -6    3.22    0.64
   7  -6  -6    3.79    0.75
   7  -6  -6    2.94    0.60
  -7   6   6    2.92    0.50
   6  -6  -6    2.39    0.55
   6  -6  -6    1.08    0.47
   6  -6  -6    1.63    0.51
  -6   6   6    1.34    0.34
  -6   6   6    1.79    0.49
   5  -6  -6    2.56    0.59
   5  -6  -6    4.37    0.67
   5  -6  -6    2.79    0.57
  -5   6   6    2.35    0.45
  -5   6   6    2.50    0.40
   4  -6  -6    4.16    0.72
   4  -6  -6    3.66    0.63
   4  -6  -6    2.77    0.56
  -4   6   6    3.36    0.42
  -4   6   6    3.98    0.54
   3  -6  -6    4.17    0.67
   3  -6  -6    3.75    0.65
   3  -6  -6    5.01    0.79
  -3   6   6    5.39    0.66
  -3   6   6    3.51    0.44
   2  -6  -6    0.19    0.27
   2  -6  -6    0.16    0.40
   2  -6  -6   -0.09    0.33
  -2   6   6    0.26    0.20
  -2   6   6    0.19    0.24
   1  -6  -6   13.26    1.05
   1  -6  -6   13.36    1.19
   1  -6  -6   13.14    1.05
  -1   6   6   13.28    0.85
   0  -6  -6    4.94    0.74
   0  -6  -6    6.35    0.80
   0  -6  -6    3.75    0.75
   0   6   6    5.47    0.58
  -1  -6  -6    4.04    0.82
  -1  -6  -6    3.85    0.65
  -1  -6  -6    4.15    0.71
   1   6   6    4.15    0.58
  -2  -6  -6    4.26    0.87
  -2  -6  -6    4.53    0.78
  -2  -6  -6    4.65    0.72
   2   6   6    3.56    0.56
  -3  -6  -6    0.66    0.63
  -3  -6  -6    1.84    0.56
   3   6   6    0.88    0.37
   9  -7  -6   -0.61    0.43
   9  -7  -6    0.23    0.41
  -9   7   6    0.93    0.41
   8  -7  -6    8.46    1.03
   8  -7  -6    5.85    0.91
  -8   7   6    7.99    0.82
   7  -7  -6    0.01    0.38
   7  -7  -6    0.23    0.40
   7  -7  -6   -0.06    0.31
  -7   7   6    0.42    0.26
   6  -7  -6    0.44    0.41
   6  -7  -6   -0.23    0.39
   6  -7  -6   -0.06    0.28
  -6   7   6    0.00    0.20
   5  -7  -6    4.13    0.70
   5  -7  -6    3.75    0.64
   5  -7  -6    2.58    0.62
  -5   7   6    2.89    0.43
   4  -7  -6    7.11    0.89
   4  -7  -6    6.94    0.96
   4  -7  -6    6.35    0.84
  -4   7   6    6.76    0.57
   3  -7  -6    1.18    0.46
   3  -7  -6    0.50    0.43
   3  -7  -6    1.45    0.47
  -3   7   6    1.16    0.28
   2  -7  -6    1.17    0.45
   2  -7  -6    1.62    0.44
   2  -7  -6    1.10    0.56
  -2   7   6    1.03    0.28
   1  -7  -6    3.58    0.64
   1  -7  -6    4.36    0.90
   1  -7  -6    3.54    0.66
  -1   7   6    2.44    0.41
   0  -7  -6    0.27    0.33
   0  -7  -6    0.61    0.52
   0  -7  -6    1.07    0.43
   0   7   6    0.30    0.23
  -1  -7  -6    1.69    0.57
  -1  -7  -6    0.85    0.44
  -1  -7  -6    0.11    0.36
   1   7   6    1.01    0.36
  -2  -7  -6   10.32    1.11
  -2  -7  -6    7.58    1.19
  -2  -7  -6    7.00    0.94
   2   7   6    8.88    0.92
   8  -8  -6    0.78    0.57
   8  -8  -6    0.24    0.41
  -8   8   6    0.10    0.28
   7  -8  -6    1.58    0.53
   7  -8  -6    0.79    0.56
  -7   8   6    1.24    0.39
   6  -8  -6    0.21    0.41
   6  -8  -6    0.11    0.34
   6  -8  -6    0.93    0.52
  -6   8   6    0.20    0.26
   5  -8  -6    1.12    0.46
   5  -8  -6    0.50    0.38
   5  -8  -6    1.24    0.54
  -5   8   6    0.94    0.31
   4  -8  -6    3.06    0.72
   4  -8  -6    1.19    0.46
   4  -8  -6    1.96    0.53
  -4   8   6    1.36    0.32
   3  -8  -6    5.53    0.91
   3  -8  -6    5.71    0.75
   3  -8  -6    3.84    0.73
  -3   8   6    4.14    0.50
   2  -8  -6    2.01    0.71
   2  -8  -6    1.74    0.53
   2  -8  -6    1.41    0.46
  -2   8   6    1.17    0.30
   1  -8  -6    2.74    0.64
   1  -8  -6    2.09    0.68
   1  -8  -6    3.14    0.55
  -1   8   6    1.96    0.40
   0  -8  -6    2.93    0.67
   0  -8  -6    3.53    0.61
   0  -8  -6    2.46    0.64
   0   8   6    3.02    0.51
  -1  -8  -6    6.39    0.81
  -1  -8  -6    2.98    0.80
   1   8   6    3.45    0.63
   7  -9  -6    0.36    0.44
   7  -9  -6    0.18    0.45
  -7   9   6   -0.09    0.26
   6  -9  -6    1.92    0.64
   6  -9  -6    2.04    0.58
  -6   9   6    1.15    0.35
   5  -9  -6    1.58    0.54
   5  -9  -6    0.54    0.52
   5  -9  -6    0.35    0.39
  -5   9   6    0.76    0.29
   4  -9  -6    6.14    1.03
   4  -9  -6    3.89    0.81
  -4   9   6    3.51    0.48
   3  -9  -6    0.02    0.42
   3  -9  -6    0.03    0.44
  -3   9   6    0.19    0.19
   2  -9  -6    2.77    0.68
   2  -9  -6    0.68    0.62
  -2   9   6    1.20    0.32
   1  -9  -6    0.36    0.39
   1  -9  -6    0.09    0.49
  -1   9   6    0.10    0.28
  -1  10  -7    0.16    0.27
  -2  10  -7    0.09    0.24
  -3  10  -7    0.98    0.33
  -4  10  -7    4.19    0.57
  -2  -9   7    1.13    0.53
  -1  -9   7   -0.41    0.34
   0  -9   7    0.92    0.44
  -1   9  -7    0.54    0.23
  -1   9  -7    0.85    0.28
  -2   9  -7    1.45    0.34
  -3   9  -7   -0.20    0.23
  -4   9  -7    0.87    0.33
  -5   9  -7    1.35    0.44
   5  -9   7    1.42    0.41
  -6   9  -7   -0.33    0.28
   6  -9   7    0.25    0.40
  -3  -8   7    0.26    0.47
  -2  -8   7    0.58    0.42
  -1  -8   7    0.41    0.34
   0   8  -7    1.11    0.26
   0  -8   7    0.88    0.38
  -1   8  -7    0.05    0.18
  -1   8  -7    0.04    0.21
   1  -8   7    0.03    0.28
  -2   8  -7    0.02    0.17
  -2   8  -7   -0.09    0.17
  -3   8  -7    0.01    0.21
   3  -8   7    0.07    0.27
  -4   8  -7    0.91    0.34
   4  -8   7    0.44    0.30
  -5   8  -7    4.40    0.64
   5  -8   7    2.73    0.57
  -6   8  -7    0.93    0.39
   6  -8   7    0.87    0.49
  -4  -7   7    0.52    0.36
  -4  -7   7    0.56    0.51
  -3  -7   7    3.75    0.58
  -3  -7   7    4.37    0.73
  -2  -7   7    0.25    0.27
  -2  -7   7   -0.25    0.33
   1   7  -7    0.67    0.24
  -1  -7   7    0.64    0.29
  -1  -7   7    0.87    0.36
   0   7  -7    1.27    0.26
   0  -7   7    2.02    0.41
   0  -7   7    1.66    0.38
  -1   7  -7   15.16    0.93
  -1   7  -7   16.57    0.91
   1  -7   7   15.88    0.97
   1  -7   7   17.80    1.00
  -2   7  -7    0.25    0.20
  -2   7  -7    0.40    0.22
   2  -7   7    0.43    0.27
  -3   7  -7    1.21    0.32
   3  -7   7    0.93    0.33
  -4   7  -7    0.07    0.23
   4  -7   7   -0.39    0.29
  -5   7  -7    1.20    0.38
   5  -7   7    1.51    0.49
  -6   7  -7    0.56    0.34
   6  -7   7    0.63    0.47
  -7   7  -7    0.86    0.42
   7  -7   7    1.50    0.53
  -5  -6   7    2.25    0.61
  -5  -6   7    0.17    0.42
  -4  -6   7    2.00    0.57
  -4  -6   7    1.97    0.52
  -3  -6   7    7.36    0.79
  -3  -6   7    5.72    0.77
   2   6  -7   -0.09    0.20
  -2  -6   7    0.54    0.36
  -2  -6   7   -0.18    0.24
   1   6  -7    5.76    0.55
  -1  -6   7    5.86    0.66
  -1  -6   7    5.49    0.59
   0   6  -7   55.23    2.37
   0  -6   7   54.10    2.49
  -1   6  -7   77.24    3.11
  -1   6  -7   69.02    3.12
   1  -6   7   75.22    3.35
   1  -6   7   72.91    3.14
  -2   6  -7    4.15    0.51
  -2   6  -7    3.99    0.46
   2  -6   7    3.48    0.51
  -3   6  -7    1.07    0.32
   3  -6   7    1.02    0.36
  -4   6  -7    0.10    0.23
   4  -6   7    0.31    0.32
  -5   6  -7    0.55    0.33
   5  -6   7    0.56    0.42
  -6   6  -7   -0.11    0.26
   6  -6   7    0.26    0.42
  -7   6  -7    0.36    0.35
   7  -6   7    0.00    0.42
  -6  -5   7   -0.17    0.34
  -6  -5   7    0.37    0.42
  -5  -5   7    2.89    0.64
  -5  -5   7    1.67    0.54
  -4  -5   7    7.05    0.84
  -4  -5   7    7.58    0.89
  -3  -5   7   -0.09    0.24
  -3  -5   7    0.00    0.27
   2   5  -7    4.78    0.51
   2   5  -7    3.98    0.66
  -2  -5   7    4.54    0.60
  -2  -5   7    6.20    0.68
   1   5  -7  157.47    6.28
   1   5  -7  156.42    6.86
  -1  -5   7  157.78    6.72
  -1  -5   7  159.09    6.53
   0   5  -7   60.67    3.02
   0   5  -7   61.56    2.67
   0  -5   7   66.56    2.77
  -1   5  -7   48.61    2.42
  -1   5  -7   47.54    2.10
  -1   5  -7   48.54    2.15
   1  -5   7   47.34    2.07
   1  -5   7   45.59    2.31
  -2   5  -7    7.15    0.59
  -2   5  -7    7.84    0.84
  -2   5  -7    6.30    0.52
   2  -5   7    5.33    0.62
  -3   5  -7   25.86    1.36
  -3   5  -7   25.95    1.56
   3  -5   7   24.67    1.46
  -4   5  -7   16.51    1.23
  -4   5  -7   15.50    1.01
   4  -5   7   13.81    1.08
  -5   5  -7    0.44    0.41
  -5   5  -7    0.81    0.37
   5  -5   7   -0.23    0.31
  -6   5  -7   -0.23    0.36
  -6   5  -7    0.32    0.31
   6  -5   7   -0.02    0.40
   7  -5   7    2.30    0.72
  -7  -4   7    4.45    0.77
  -7  -4   7    3.27    0.78
  -6  -4   7    2.15    0.59
  -6  -4   7    2.15    0.59
  -5  -4   7    4.17    0.73
  -5  -4   7    3.44    0.64
   4   4  -7    2.64    0.60
  -4  -4   7    3.75    0.62
  -4  -4   7    4.48    0.63
   3   4  -7   -0.63    0.29
   3   4  -7    0.09    0.19
  -3  -4   7   -0.48    0.18
  -3  -4   7   -0.04    0.25
   2   4  -7    3.46    0.42
   2   4  -7    3.53    0.64
  -2  -4   7    3.86    0.55
  -2  -4   7    4.60    0.55
   1   4  -7   37.88    2.05
   1   4  -7   40.28    1.75
  -1  -4   7   38.46    1.92
  -1  -4   7   38.80    1.85
   0   4  -7   16.45    1.15
   0   4  -7   17.72    0.92
   0   4  -7   15.47    0.96
   0  -4   7   16.67    1.01
   0  -4   7   18.85    0.94
  -1   4  -7    2.08    0.36
  -1   4  -7    2.43    0.35
  -1   4  -7    2.57    0.52
   1  -4   7    2.15    0.42
   1  -4   7    1.77    0.25
  -2   4  -7    7.05    0.62
  -2   4  -7    7.35    0.88
  -2   4  -7    7.66    0.58
  -2   4  -7    9.12    0.85
   2  -4   7    7.99    0.70
  -3   4  -7   25.91    1.42
  -3   4  -7   27.72    1.68
  -3   4  -7   30.14    1.53
   3  -4   7   26.57    1.57
  -4   4  -7    7.89    0.83
  -4   4  -7    5.95    0.87
   4  -4   7    5.99    0.78
  -5   4  -7    8.13    0.87
  -5   4  -7    8.33    1.04
   5  -4   7    8.90    1.02
  -6   4  -7   -0.05    0.33
  -6   4  -7    0.48    0.37
   6  -4   7   -0.01    0.40
  -7   4  -7    0.65    0.51
   7  -4   7   -0.03    0.50
  -7  -3   7   11.72    1.39
  -7  -3   7   10.89    1.21
   6   3  -7   10.12    1.18
  -6  -3   7   10.21    1.11
  -6  -3   7    8.98    1.11
   5   3  -7    1.01    0.50
  -5  -3   7    1.37    0.44
  -5  -3   7    0.42    0.36
   4   3  -7    0.00    0.41
  -4  -3   7    0.72    0.36
  -4  -3   7    1.07    0.38
   3   3  -7   11.04    0.94
   3   3  -7    9.19    0.65
  -3  -3   7    9.12    0.76
  -3  -3   7    9.55    0.78
   2   3  -7    5.92    0.48
   2   3  -7    6.53    0.78
  -2  -3   7    6.15    0.68
  -2  -3   7    5.95    0.62
   1   3  -7    2.16    0.46
   1   3  -7    1.84    0.29
  -1  -3   7    1.90    0.33
  -1  -3   7    2.12    0.36
   0   3  -7    0.88    0.25
   0   3  -7    1.03    0.23
   0   3  -7    0.94    0.36
   0  -3   7    0.57    0.20
   0  -3   7    0.76    0.25
  -1   3  -7    1.08    0.25
  -1   3  -7    0.93    0.39
  -1   3  -7    0.59    0.35
  -1   3  -7    0.85    0.25
   1  -3   7    0.81    0.29
   1  -3   7    1.07    0.19
  -2   3  -7   22.86    1.48
  -2   3  -7   23.23    1.26
  -2   3  -7   24.20    1.37
  -2   3  -7   25.86    1.24
   2  -3   7   23.47    1.18
   2  -3   7   22.63    1.38
  -3   3  -7    2.93    0.58
  -3   3  -7    2.96    0.50
  -3   3  -7    2.37    0.45
   3  -3   7    2.67    0.53
  -4   3  -7   13.22    1.20
  -4   3  -7   16.28    1.04
  -4   3  -7   14.16    1.01
   4  -3   7   14.74    1.13
  -5   3  -7    1.83    0.57
  -5   3  -7    2.24    0.47
  -5   3  -7    2.45    0.49
   5  -3   7    1.81    0.52
  -6   3  -7   10.42    1.21
   6  -3   7    9.99    1.19
  -7   3  -7    1.50    0.75
   7  -3   7    1.33    0.65
   8   2  -7    0.72    0.64
  -8  -2   7   -0.48    0.31
  -8  -2   7   -0.43    0.39
   7   2  -7    3.86    0.88
  -7  -2   7    5.19    0.89
  -7  -2   7    4.06    0.76
   6   2  -7    1.60    0.57
  -6  -2   7    2.54    0.58
  -6  -2   7    2.66    0.61
   5   2  -7    1.85    0.56
  -5  -2   7    1.57    0.44
  -5  -2   7    1.94    0.50
   4   2  -7    3.98    0.69
  -4  -2   7    3.37    0.56
  -4  -2   7    3.74    0.55
   3   2  -7    3.06    0.40
   3   2  -7    2.74    0.55
  -3  -2   7    2.90    0.34
  -3  -2   7    3.11    0.52
  -3  -2   7    2.17    0.42
   2   2  -7   26.95    1.56
   2   2  -7   27.00    1.28
  -2  -2   7   25.17    1.23
  -2  -2   7   25.73    1.44
   1   2  -7    6.91    0.77
   1   2  -7    6.17    0.47
   1   2  -7    7.04    0.56
  -1  -2   7    6.48    0.47
  -1  -2   7    7.25    0.59
   0   2  -7    0.53    0.18
   0   2  -7   -0.01    0.27
   0   2  -7    0.73    0.23
   0  -2   7    0.59    0.28
   0  -2   7    0.51    0.17
  -1   2  -7    1.85    0.44
  -1   2  -7    2.73    0.53
  -1   2  -7    3.06    0.42
  -1   2  -7    2.76    0.36
   1  -2   7    2.82    0.47
   1  -2   7    2.53    0.34
  -2   2  -7   10.04    0.73
  -2   2  -7    9.32    0.68
  -2   2  -7   11.79    0.89
  -2   2  -7   10.16    1.07
   2  -2   7   11.20    0.86
   2  -2   7   11.17    0.71
  -3   2  -7   81.44    3.95
  -3   2  -7   83.62    3.74
  -3   2  -7   79.33    3.53
   3  -2   7   82.18    3.84
  -4   2  -7    0.88    0.43
  -4   2  -7    0.98    0.44
  -4   2  -7    1.00    0.34
   4  -2   7    1.27    0.43
  -5   2  -7   10.87    0.94
  -5   2  -7   10.45    1.23
   5  -2   7   10.86    1.16
  -6   2  -7    0.01    0.43
   6  -2   7    0.14    0.44
  -7   2  -7    3.09    0.89
   7  -2   7    3.69    0.84
   8   1  -7    0.24    0.64
  -8  -1   7    0.37    0.40
  -8  -1   7   -0.24    0.49
   7   1  -7    0.72    0.57
  -7  -1   7    1.39    0.55
  -7  -1   7    0.19    0.38
   6   1  -7    8.16    1.09
  -6  -1   7    9.59    1.13
  -6  -1   7   10.26    1.04
   5   1  -7   15.57    1.19
  -5  -1   7   13.16    1.05
  -5  -1   7   12.92    1.01
   4   1  -7   11.29    0.98
   4   1  -7   10.95    0.75
  -4  -1   7   11.08    0.89
  -4  -1   7   11.91    0.71
   3   1  -7    0.14    0.31
   3   1  -7    0.01    0.14
  -3  -1   7   -0.02    0.09
  -3  -1   7    0.05    0.19
   2   1  -7   43.49    2.19
   2   1  -7   43.30    1.85
  -2  -1   7   36.07    2.02
   1   1  -7   17.17    0.96
   1   1  -7   16.66    0.89
   1   1  -7   18.22    1.21
  -1  -1   7   16.80    1.04
   0   1  -7   47.58    2.14
   0   1  -7   48.59    2.20
   0   1  -7   48.05    2.45
   0   1  -7   52.53    2.57
   0  -1   7   50.47    2.38
  -1   1  -7   29.48    1.71
  -1   1  -7   34.63    1.90
  -1   1  -7   31.06    1.54
   1  -1   7   30.74    1.51
   1  -1   7   33.01    1.73
  -2   1  -7   54.87    2.67
  -2   1  -7   51.52    2.79
  -2   1  -7   55.43    2.45
   2  -1   7   54.07    2.30
   2  -1   7   54.65    2.69
   2  -1   7   54.14    2.43
  -3   1  -7   55.66    2.94
  -3   1  -7   55.94    2.57
  -3   1  -7   57.00    2.78
   3  -1   7   58.19    2.84
   3  -1   7   54.71    2.54
  -4   1  -7   40.94    2.11
  -4   1  -7   35.67    2.23
   4  -1   7   36.86    2.12
  -5   1  -7   20.86    1.61
  -5   1  -7   19.26    1.38
   5  -1   7   21.90    1.52
  -6   1  -7   14.90    1.23
  -6   1  -7   16.05    1.47
   6  -1   7   16.43    1.44
  -7   1  -7   -0.08    0.51
   7  -1   7   -0.64    0.43
   9   0  -7    6.20    1.11
  -9   0   7    2.75    0.86
  -9   0   7    5.20    0.89
   8   0  -7    4.63    0.92
  -8   0   7    4.05    0.76
  -8   0   7    4.17    0.90
   7   0  -7    0.19    0.47
  -7   0   7    0.69    0.42
  -7   0   7    1.73    0.50
   6   0  -7   24.33    1.63
  -6   0   7   20.74    1.53
  -6   0   7   28.07    1.59
   5   0  -7   12.58    1.06
  -5   0   7   12.69    0.80
  -5   0   7   11.60    0.97
   4   0  -7   27.35    1.58
  -4   0   7   26.13    1.26
  -4   0   7   21.87    1.44
   3   0  -7    4.95    0.72
  -3   0   7    4.90    0.63
  -3   0   7    6.57    0.49
   2   0  -7    4.70    0.67
   2   0  -7    4.57    0.50
  -2   0   7    3.85    0.43
  -2   0   7    5.44    0.66
   1   0  -7    0.17    0.18
   1   0  -7   -0.02    0.27
   1   0  -7   -0.04    0.28
  -1   0   7   -0.07    0.16
  -1   0   7    0.50    0.19
   0   0  -7   22.37    1.48
   0   0  -7   22.59    1.40
   0   0  -7   23.66    1.21
   0   0   7   23.94    1.18
   0   0   7   23.82    1.33
  -1   0  -7   65.13    3.07
  -1   0  -7   62.77    2.76
  -1   0  -7   63.28    3.18
   1   0   7   63.42    2.76
   1   0   7   62.54    3.05
  -2   0  -7    0.49    0.40
  -2   0  -7    0.66    0.25
  -2   0  -7    0.74    0.41
   2   0   7    0.73    0.25
   2   0   7    0.79    0.33
  -3   0  -7    2.31    0.62
  -3   0  -7    1.88    0.38
  -3   0  -7    2.68    0.60
   3   0   7    2.96    0.58
   3   0   7    1.57    0.36
  -4   0  -7    5.50    0.81
  -4   0  -7    4.38    0.80
   4   0   7    5.54    0.80
  -5   0  -7    4.73    0.86
  -5   0  -7    6.67    0.91
   5   0   7    8.07    1.07
  -6   0  -7    7.01    1.11
  -6   0  -7    8.84    1.09
   6   0   7    9.76    1.28
   9  -1  -7    0.20    0.59
  -9   1   7    0.08    0.40
  -9   1   7   -0.10    0.46
   8  -1  -7   -0.07    0.47
  -8   1   7    0.97    0.52
  -8   1   7    0.49    0.40
   7  -1  -7    0.43    0.45
  -7   1   7   -0.35    0.26
   6  -1  -7   13.06    1.14
  -6   1   7   12.98    1.08
   5  -1  -7    4.10    0.69
  -5   1   7    4.64    0.65
  -5   1   7    5.45    0.57
   4  -1  -7    5.59    0.75
  -4   1   7    4.75    0.49
  -4   1   7    5.43    0.65
   3  -1  -7   60.21    2.94
   3  -1  -7   59.32    2.56
  -3   1   7   54.98    2.76
  -3   1   7   57.30    2.49
   2  -1  -7    5.87    0.79
   2  -1  -7    6.43    0.77
   2  -1  -7    6.12    0.51
  -2   1   7    7.38    0.78
  -2   1   7    5.67    0.47
   1  -1  -7    2.58    0.52
   1  -1  -7    2.03    0.32
   1  -1  -7    2.38    0.50
  -1   1   7    2.32    0.34
  -1   1   7    2.87    0.47
   0  -1  -7    0.98    0.26
   0  -1  -7    0.78    0.34
   0  -1  -7    0.94    0.42
   0   1   7    0.78    0.22
  -1  -1  -7   23.04    1.56
  -1  -1  -7   28.47    1.30
  -1  -1  -7   21.07    1.47
   1   1   7   25.04    1.29
   1   1   7   24.15    1.47
  -2  -1  -7   34.25    2.12
  -2  -1  -7   37.67    1.82
  -2  -1  -7   40.45    2.15
   2   1   7   39.44    1.87
   2   1   7   37.74    2.04
  -3  -1  -7   17.59    1.37
  -3  -1  -7   17.75    1.32
   3   1   7   16.09    1.23
   3   1   7   17.45    1.09
  -4  -1  -7   -0.26    0.37
  -4  -1  -7    1.18    0.51
  -4  -1  -7    0.83    0.30
   4   1   7    1.01    0.51
  -5  -1  -7    0.37    0.50
  -5  -1  -7    0.65    0.51
   5   1   7   -0.07    0.43
  -6  -1  -7    2.15    0.73
  -6  -1  -7    3.11    0.74
   6   1   7    2.41    0.75
   9  -2  -7    4.58    1.00
  -9   2   7    4.71    0.96
  -9   2   7    4.31    0.83
   8  -2  -7    0.60    0.53
  -8   2   7   -0.26    0.34
   7  -2  -7    0.99    0.50
  -7   2   7    0.71    0.40
   6  -2  -7   -0.23    0.30
  -6   2   7   -0.06    0.25
  -6   2   7    0.09    0.21
   5  -2  -7    1.82    0.49
  -5   2   7    2.55    0.48
  -5   2   7    2.43    0.39
   4  -2  -7    0.67    0.39
   4  -2  -7    0.21    0.32
   4  -2  -7   -0.16    0.16
  -4   2   7    0.34    0.22
  -4   2   7    0.14    0.16
   3  -2  -7    0.15    0.32
   3  -2  -7   -0.31    0.21
   3  -2  -7    0.09    0.09
  -3   2   7   -0.01    0.14
  -3   2   7    0.01    0.20
   2  -2  -7    9.24    0.94
   2  -2  -7    8.94    0.98
   2  -2  -7    8.10    0.60
  -2   2   7    8.73    0.60
  -2   2   7    9.03    0.70
   1  -2  -7   15.00    1.15
   1  -2  -7   16.66    0.91
  -1   2   7   16.63    0.93
  -1   2   7   18.03    1.06
  -1   2   7   14.94    0.94
   0  -2  -7    1.57    0.30
   0  -2  -7    0.91    0.40
   0  -2  -7    1.09    0.43
   0   2   7    1.06    0.31
   0   2   7    1.41    0.29
   0   2   7    1.73    0.33
  -1  -2  -7    3.38    0.65
  -1  -2  -7    4.27    0.49
  -1  -2  -7    3.76    0.65
   1   2   7    4.07    0.64
   1   2   7    4.35    0.56
   1   2   7    4.35    0.56
  -2  -2  -7   16.81    1.36
  -2  -2  -7   19.94    1.46
   2   2   7   20.95    1.19
   2   2   7   21.67    1.36
  -3  -2  -7   20.60    1.55
  -3  -2  -7   21.96    1.26
  -3  -2  -7   22.28    1.57
   3   2   7   20.74    1.28
   3   2   7   21.79    1.45
  -4  -2  -7    0.36    0.49
  -4  -2  -7    0.82    0.48
   4   2   7    1.28    0.46
  -5  -2  -7    9.36    1.25
  -5  -2  -7   14.15    1.45
   5   2   7   10.91    1.30
   9  -3  -7   -0.43    0.42
  -9   3   7   -0.50    0.33
  -9   3   7   -0.28    0.42
   8  -3  -7   11.89    1.37
  -8   3   7   12.33    1.36
   7  -3  -7   12.09    1.26
  -7   3   7   13.26    1.00
  -7   3   7   12.08    1.10
   6  -3  -7    2.30    0.61
   6  -3  -7    3.25    0.66
  -6   3   7    2.55    0.55
  -6   3   7    3.03    0.48
   5  -3  -7   35.95    2.18
   5  -3  -7   39.01    2.21
  -5   3   7   39.89    1.88
  -5   3   7   42.02    2.14
   4  -3  -7   17.69    1.04
   4  -3  -7   19.60    1.35
   4  -3  -7   18.27    1.33
  -4   3   7   19.77    1.06
  -4   3   7   19.52    1.21
   3  -3  -7    0.68    0.21
   3  -3  -7    0.77    0.36
   3  -3  -7    0.62    0.39
  -3   3   7    0.82    0.27
  -3   3   7    0.54    0.21
   2  -3  -7   14.57    1.17
   2  -3  -7   16.78    1.21
   2  -3  -7   17.18    0.91
  -2   3   7   16.79    1.04
  -2   3   7   15.85    0.92
   1  -3  -7   20.53    1.34
   1  -3  -7   15.75    1.26
  -1   3   7   20.26    1.08
  -1   3   7   18.95    1.14
  -1   3   7   17.48    1.02
   0  -3  -7   87.78    4.27
   0  -3  -7   92.96    4.33
   0   3   7   89.76    3.82
   0   3   7   88.52    3.84
   0   3   7   94.16    4.18
  -1  -3  -7    3.30    0.71
  -1  -3  -7    2.43    0.62
  -1  -3  -7    4.61    0.62
   1   3   7    3.32    0.52
   1   3   7    3.45    0.57
  -2  -3  -7    2.08    0.56
  -2  -3  -7    3.41    0.53
  -2  -3  -7    2.95    0.69
   2   3   7    4.28    0.67
   2   3   7    3.49    0.54
  -3  -3  -7   11.92    1.31
  -3  -3  -7   15.12    1.27
  -3  -3  -7   12.15    0.93
   3   3   7   13.52    0.98
   3   3   7   12.71    1.09
  -4  -3  -7    3.86    0.81
  -4  -3  -7    2.91    0.74
   4   3   7    5.58    0.91
  -5  -3  -7    3.28    0.80
  -5  -3  -7    2.53    0.78
   9  -4  -7    0.66    0.49
   9  -4  -7   -0.18    0.53
  -9   4   7    0.27    0.46
   8  -4  -7   -0.08    0.41
   8  -4  -7    0.01    0.45
   8  -4  -7    0.11    0.35
  -8   4   7    0.61    0.46
   7  -4  -7    6.84    0.99
   7  -4  -7    9.89    0.99
   7  -4  -7    5.20    0.84
  -7   4   7    8.89    0.86
  -7   4   7    8.64    0.98
   6  -4  -7    3.66    0.65
   6  -4  -7    2.85    0.64
  -6   4   7    2.80    0.46
  -6   4   7    2.47    0.52
   5  -4  -7   -0.30    0.29
   5  -4  -7   -0.04    0.36
  -5   4   7    0.06    0.20
  -5   4   7    0.05    0.23
   4  -4  -7   75.37    3.67
   4  -4  -7   74.46    3.68
  -4   4   7   76.48    3.55
  -4   4   7   76.89    3.25
   3  -4  -7   26.97    1.65
   3  -4  -7   25.70    1.64
  -3   4   7   25.15    1.30
  -3   4   7   25.64    1.45
   2  -4  -7    8.74    1.03
   2  -4  -7    8.84    0.99
  -2   4   7    7.90    0.66
  -2   4   7    8.72    0.72
  -2   4   7    8.14    0.63
   1  -4  -7   15.88    1.23
   1  -4  -7   15.26    1.21
   1  -4  -7   14.36    1.07
  -1   4   7   14.66    0.91
   0  -4  -7   17.65    1.45
   0  -4  -7   21.31    1.46
   0  -4  -7   20.04    1.29
   0   4   7   21.00    1.17
   0   4   7   22.71    1.35
  -1  -4  -7   21.67    1.57
  -1  -4  -7   21.34    1.34
  -1  -4  -7   20.40    1.47
   1   4   7   19.68    1.33
   1   4   7   23.22    1.27
  -2  -4  -7    2.76    0.74
  -2  -4  -7    2.37    0.51
  -2  -4  -7    2.33    0.63
   2   4   7    2.57    0.58
   2   4   7    1.66    0.40
  -3  -4  -7    2.09    0.58
  -3  -4  -7    1.43    0.53
  -3  -4  -7    0.91    0.40
   3   4   7    2.15    0.47
  -4  -4  -7    6.59    1.00
  -4  -4  -7    6.68    1.03
   9  -5  -7    2.69    0.79
  -9   5   7    2.06    0.63
   8  -5  -7    1.10    0.54
   8  -5  -7    1.09    0.53
   8  -5  -7    0.55    0.42
  -8   5   7    1.05    0.51
   7  -5  -7   -0.10    0.34
   7  -5  -7    0.00    0.36
   7  -5  -7   -0.16    0.27
  -7   5   7   -0.21    0.29
  -7   5   7    0.23    0.25
   6  -5  -7    0.44    0.42
   6  -5  -7    0.17    0.32
   6  -5  -7    0.89    0.44
  -6   5   7    0.55    0.28
  -6   5   7    1.63    0.49
   5  -5  -7    0.06    0.25
   5  -5  -7   -0.19    0.31
   5  -5  -7   -0.19    0.28
  -5   5   7    0.16    0.21
  -5   5   7    0.52    0.27
   4  -5  -7   12.48    1.06
   4  -5  -7   11.50    0.98
   4  -5  -7   12.88    1.09
  -4   5   7   12.27    0.90
  -4   5   7   12.17    0.80
   3  -5  -7    9.90    1.07
   3  -5  -7   10.24    1.01
   3  -5  -7   10.48    1.18
  -3   5   7   10.03    0.79
  -3   5   7   10.50    0.71
   2  -5  -7    1.73    0.59
   2  -5  -7    1.44    0.51
   2  -5  -7    1.43    0.43
  -2   5   7    0.93    0.33
  -2   5   7    0.86    0.25
   1  -5  -7    0.79    0.40
   1  -5  -7    1.40    0.50
   1  -5  -7    0.80    0.42
  -1   5   7    0.74    0.33
  -1   5   7    0.99    0.30
   0  -5  -7    0.83    0.42
   0  -5  -7    0.47    0.47
   0  -5  -7    0.81    0.39
   0   5   7    0.45    0.26
   0   5   7    0.56    0.32
  -1  -5  -7    1.96    0.55
  -1  -5  -7    2.18    0.66
  -1  -5  -7    1.22    0.42
   1   5   7    1.26    0.36
  -2  -5  -7    1.55    0.59
  -2  -5  -7    1.97    0.60
  -2  -5  -7    1.96    0.51
   2   5   7    1.48    0.41
  -3  -5  -7    0.46    0.54
  -3  -5  -7    0.00    0.48
   3   5   7   -0.07    0.31
   9  -6  -7   -0.81    0.47
   9  -6  -7   -0.44    0.37
   8  -6  -7   10.50    1.31
   8  -6  -7   10.00    1.13
  -8   6   7   12.27    0.97
   7  -6  -7    4.08    0.75
   7  -6  -7    3.43    0.68
   7  -6  -7    3.59    0.75
  -7   6   7    3.68    0.56
   6  -6  -7    0.27    0.31
   6  -6  -7    0.29    0.38
   6  -6  -7    0.22    0.41
  -6   6   7    0.28    0.25
   5  -6  -7    0.46    0.38
   5  -6  -7    0.27    0.42
   5  -6  -7    0.53    0.40
  -5   6   7    0.63    0.26
   4  -6  -7   27.60    1.68
   4  -6  -7   28.81    1.73
   4  -6  -7   25.42    1.73
  -4   6   7   26.33    1.38
   3  -6  -7    0.64    0.44
   3  -6  -7    0.84    0.36
   3  -6  -7    1.11    0.46
  -3   6   7    0.89    0.28
   2  -6  -7    1.38    0.51
   2  -6  -7    1.61    0.49
   2  -6  -7    1.21    0.44
  -2   6   7    0.69    0.26
   1  -6  -7    0.06    0.28
   1  -6  -7    0.51    0.39
   1  -6  -7    0.35    0.40
  -1   6   7    0.56    0.26
   0  -6  -7    0.67    0.45
   0  -6  -7    0.36    0.39
   0  -6  -7    0.21    0.33
   0   6   7    0.53    0.28
  -1  -6  -7    0.85    0.42
  -1  -6  -7    0.48    0.39
  -1  -6  -7   -0.69    0.34
   1   6   7    0.67    0.36
  -2  -6  -7    3.02    0.84
  -2  -6  -7    2.85    0.64
  -2  -6  -7    2.88    0.69
   2   6   7    2.39    0.53
   8  -7  -7    1.88    0.68
   8  -7  -7    1.56    0.52
  -8   7   7    0.50    0.29
   7  -7  -7    5.88    0.91
   7  -7  -7    5.21    0.89
   7  -7  -7    4.74    0.82
  -7   7   7    5.71    0.69
   6  -7  -7    0.46    0.37
   6  -7  -7    0.80    0.49
   6  -7  -7    1.13    0.50
  -6   7   7    0.54    0.28
   5  -7  -7   -0.10    0.39
   5  -7  -7    0.33    0.36
   5  -7  -7    0.57    0.49
  -5   7   7    0.38    0.27
   4  -7  -7    0.92    0.48
   4  -7  -7    0.83    0.40
   4  -7  -7    1.59    0.58
  -4   7   7    1.53    0.33
   3  -7  -7    4.67    0.88
   3  -7  -7    3.58    0.70
   3  -7  -7    4.76    0.74
  -3   7   7    3.97    0.51
   2  -7  -7    2.29    0.60
   2  -7  -7    1.67    0.51
   2  -7  -7    1.75    0.64
  -2   7   7    1.18    0.33
   1  -7  -7    1.23    0.51
   1  -7  -7    2.01    0.56
   1  -7  -7    2.30    0.68
  -1   7   7    1.91    0.42
   0  -7  -7    4.01    0.74
   0  -7  -7    4.49    0.90
   0  -7  -7    2.81    0.64
   0   7   7    3.67    0.56
  -1  -7  -7    3.37    0.68
  -1  -7  -7    2.54    0.74
  -1  -7  -7    1.81    0.61
   1   7   7    2.86    0.55
   7  -8  -7    0.13    0.37
   7  -8  -7    0.08    0.49
  -7   8   7   -0.03    0.27
   6  -8  -7    4.74    0.86
   6  -8  -7    3.38    0.72
   6  -8  -7    4.96    0.84
  -6   8   7    3.72    0.55
   5  -8  -7    4.02    0.80
   5  -8  -7    3.19    0.69
   5  -8  -7    5.81    0.93
  -5   8   7    4.51    0.56
   4  -8  -7    5.13    0.82
   4  -8  -7    4.00    0.86
   4  -8  -7    2.62    0.65
  -4   8   7    2.89    0.47
   3  -8  -7    0.15    0.38
   3  -8  -7   -0.15    0.40
   3  -8  -7    0.46    0.57
  -3   8   7    0.11    0.22
   2  -8  -7    0.30    0.39
   2  -8  -7    0.83    0.46
   2  -8  -7    0.14    0.49
  -2   8   7    0.90    0.32
   1  -8  -7    0.17    0.55
   1  -8  -7    1.00    0.52
   1  -8  -7    0.30    0.45
  -1   8   7    0.19    0.28
   0  -8  -7    0.34    0.42
   0  -8  -7    0.40    0.45
   0  -8  -7   -0.29    0.49
   0   8   7    0.47    0.31
   6  -9  -7   -0.40    0.39
   6  -9  -7    0.55    0.53
  -6   9   7    0.74    0.31
   5  -9  -7   -0.22    0.43
   5  -9  -7    1.47    0.67
   5  -9  -7    0.39    0.43
  -5   9   7   -0.23    0.22
   4  -9  -7    2.27    0.72
   4  -9  -7    0.69    0.48
   4  -9  -7    0.10    0.48
  -4   9   7    1.42    0.36
   3  -9  -7    0.58    0.53
   3  -9  -7    0.69    0.45
   3  -9  -7    1.00    0.61
  -3   9   7    0.35    0.27
  -2  10  -8    0.01    0.29
  -1  -9   8    0.27    0.42
  -1   9  -8    0.01    0.24
  -2   9  -8    0.03    0.25
  -3   9  -8   -0.12    0.25
  -4   9  -8    0.50    0.34
   4  -9   8    0.44    0.35
  -5   9  -8    0.05    0.32
   5  -9   8   -0.20    0.39
  -3  -8   8    0.76    0.46
  -3  -8   8   -0.29    0.29
  -2  -8   8    0.64    0.43
  -1  -8   8    2.25    0.51
   0  -8   8   -0.02    0.28
  -1   8  -8   -0.08    0.21
  -2   8  -8    0.47    0.30
   2  -8   8    0.27    0.30
  -3   8  -8    0.05    0.22
   3  -8   8    0.06    0.33
  -4   8  -8    0.28    0.30
   4  -8   8   -0.30    0.30
  -5   8  -8    0.92    0.40
   5  -8   8    1.63    0.52
  -6   8  -8    1.77    0.48
   6  -8   8    1.43    0.54
  -4  -7   8    4.69    0.80
  -4  -7   8    3.31    0.60
  -3  -7   8    1.03    0.41
  -3  -7   8    1.22    0.52
  -2  -7   8   -0.28    0.32
  -2  -7   8    0.24    0.30
  -1  -7   8    6.71    0.77
  -1  -7   8    5.26    0.60
   0  -7   8    9.17    0.85
   0  -7   8    8.66    0.78
  -1   7  -8    1.98    0.40
   1  -7   8    2.43    0.44
  -2   7  -8    0.06    0.23
   2  -7   8   -0.43    0.24
  -3   7  -8    0.33    0.27
   3  -7   8    0.05    0.30
  -4   7  -8    0.38    0.31
   4  -7   8    0.93    0.42
  -5   7  -8    3.21    0.61
   5  -7   8    3.10    0.67
  -6   7  -8    0.69    0.38
   6  -7   8    0.34    0.47
  -5  -6   8    0.89    0.48
  -5  -6   8    0.89    0.47
  -4  -6   8    1.33    0.48
  -4  -6   8    1.41    0.47
  -3  -6   8    1.19    0.40
  -3  -6   8    0.63    0.41
  -2  -6   8    3.98    0.61
  -2  -6   8    4.28    0.58
  -1  -6   8   20.90    1.24
  -1  -6   8   19.75    1.21
   0   6  -8   22.91    1.27
   0   6  -8   22.92    1.20
   0  -6   8   23.83    1.29
   1  -6   8    3.61    0.44
   1  -6   8    3.16    0.52
  -2   6  -8    3.15    0.46
   2  -6   8    1.67    0.44
  -3   6  -8    2.15    0.43
   3  -6   8    1.90    0.44
  -4   6  -8    2.50    0.49
   4  -6   8    1.92    0.51
  -5   6  -8   -0.15    0.30
   5  -6   8    0.14    0.41
  -6   6  -8    0.74    0.40
   6  -6   8    0.77    0.54
  -6  -5   8    1.52    0.58
  -6  -5   8    0.50    0.47
  -5  -5   8    0.62    0.42
  -5  -5   8    0.38    0.38
  -4  -5   8    1.69    0.51
  -4  -5   8    2.18    0.52
  -3  -5   8    4.34    0.63
  -3  -5   8    5.83    0.72
   2   5  -8    0.42    0.48
  -2  -5   8    0.05    0.23
  -2  -5   8    0.25    0.28
   1   5  -8   36.47    1.74
   1   5  -8   35.68    2.07
  -1  -5   8   36.06    1.85
  -1  -5   8   41.35    1.95
   0   5  -8   30.25    1.47
   0   5  -8   27.96    1.52
   0   5  -8   32.52    1.82
   0  -5   8   30.96    1.51
  -1   5  -8   12.84    1.10
  -1   5  -8   13.03    0.88
  -1   5  -8   13.35    0.83
   1  -5   8   13.86    0.76
   1  -5   8   13.09    0.99
  -2   5  -8   -0.01    0.22
  -2   5  -8    0.37    0.40
  -2   5  -8   -0.45    0.30
   2  -5   8   -0.06    0.26
  -3   5  -8    0.31    0.40
  -3   5  -8    1.73    0.42
  -3   5  -8    2.44    0.51
   3  -5   8    1.07    0.39
  -4   5  -8    0.63    0.34
  -4   5  -8    0.70    0.42
   4  -5   8   -0.24    0.32
  -5   5  -8    0.09    0.28
  -5   5  -8   -0.24    0.37
   5  -5   8    0.11    0.40
   6  -5   8   -0.56    0.33
   7  -5   8    1.75    0.70
  -7  -4   8    3.44    0.84
  -7  -4   8    2.53    0.69
  -6  -4   8    8.39    1.04
  -6  -4   8    7.89    0.99
  -5  -4   8    9.06    1.09
  -5  -4   8   10.47    1.09
   4   4  -8    3.40    0.73
  -4  -4   8    4.64    0.69
  -4  -4   8    5.06    0.70
  -3  -4   8    1.77    0.42
  -3  -4   8    1.64    0.42
   2   4  -8    0.51    0.23
   2   4  -8    0.46    0.38
  -2  -4   8    0.49    0.29
  -2  -4   8    0.33    0.24
   1   4  -8   15.48    0.86
   1   4  -8   15.14    1.17
  -1  -4   8   14.75    0.93
  -1  -4   8   13.90    0.97
   0   4  -8    6.09    0.62
   0   4  -8    5.82    0.79
   0   4  -8    6.27    0.51
   0  -4   8    4.42    0.59
   0  -4   8    5.69    0.49
  -1   4  -8    0.03    0.17
  -1   4  -8   -0.01    0.32
  -1   4  -8   -0.03    0.18
   1  -4   8    0.38    0.29
   1  -4   8    0.34    0.19
  -2   4  -8    2.52    0.56
  -2   4  -8    3.61    0.69
  -2   4  -8    3.01    0.48
   2  -4   8    2.58    0.51
  -3   4  -8    2.10    0.50
  -3   4  -8    2.76    0.50
  -3   4  -8    1.84    0.57
   3  -4   8    1.57    0.46
  -4   4  -8    1.80    0.41
  -4   4  -8    2.90    0.52
  -4   4  -8    3.27    0.73
   4  -4   8    2.30    0.54
  -5   4  -8    0.76    0.48
  -5   4  -8    1.00    0.39
   5  -4   8    0.08    0.40
  -6   4  -8   -0.07    0.47
   6  -4   8   -0.51    0.43
  -7   4  -8    1.55    0.61
   7  -4   8    0.81    0.57
  -7  -3   8    1.96    0.62
   6   3  -8    0.67    0.54
  -6  -3   8    0.87    0.45
  -6  -3   8    0.40    0.39
   5   3  -8    2.74    0.69
  -5  -3   8    2.57    0.57
  -5  -3   8    2.63    0.59
   4   3  -8    3.74    0.77
  -4  -3   8    4.69    0.70
  -4  -3   8    4.04    0.63
   3   3  -8   78.90    4.19
  -3  -3   8   92.21    4.12
  -3  -3   8   94.92    3.96
   2   3  -8    3.62    0.44
   2   3  -8    3.48    0.63
  -2  -3   8    3.11    0.50
  -2  -3   8    4.20    0.55
   1   3  -8   11.29    0.78
   1   3  -8   11.91    0.71
   1   3  -8   10.70    1.08
  -1  -3   8   10.77    0.81
  -1  -3   8   10.04    0.73
   0   3  -8    6.63    0.52
   0   3  -8    7.35    0.89
   0   3  -8    5.70    0.59
   0  -3   8    6.75    0.51
   0  -3   8    5.24    0.62
  -1   3  -8    4.00    0.51
  -1   3  -8    3.38    0.43
  -1   3  -8    4.17    0.71
  -1   3  -8    4.42    0.67
   1  -3   8    3.60    0.36
   1  -3   8    3.28    0.55
  -2   3  -8   20.99    1.45
  -2   3  -8   20.96    1.19
  -2   3  -8   20.32    1.31
   2  -3   8   18.75    1.29
  -3   3  -8    2.47    0.62
  -3   3  -8    0.46    0.28
  -3   3  -8    1.43    0.45
   3  -3   8    0.26    0.34
  -4   3  -8    1.90    0.64
  -4   3  -8    0.54    0.32
  -4   3  -8    2.14    0.52
   4  -3   8    0.81    0.43
  -5   3  -8    4.16    0.86
   5  -3   8    4.49    0.79
  -6   3  -8    0.45    0.51
   6  -3   8    0.58    0.41
  -7   3  -8    0.10    0.50
   7  -3   8    0.41    0.62
   8   2  -8   -0.21    0.58
  -8  -2   8    0.94    0.59
  -8  -2   8    0.25    0.48
   7   2  -8    9.35    1.23
  -7  -2   8    9.22    1.18
  -7  -2   8    8.49    1.08
   6   2  -8    1.08    0.59
  -6  -2   8    1.53    0.52
  -6  -2   8    1.18    0.48
   5   2  -8   -0.71    0.41
  -5  -2   8    0.03    0.32
  -5  -2   8    0.14    0.31
   4   2  -8    2.64    0.63
  -4  -2   8    3.15    0.55
  -4  -2   8    3.87    0.61
   3   2  -8   23.13    1.55
   3   2  -8   22.68    1.22
  -3  -2   8   24.30    1.36
  -3  -2   8   22.50    1.39
   2   2  -8    1.99    0.34
   2   2  -8    2.97    0.59
  -2  -2   8    2.63    0.49
  -2  -2   8    2.58    0.35
   1   2  -8    0.81    0.38
   1   2  -8    0.02    0.14
   1   2  -8   -0.15    0.18
  -1  -2   8   -0.05    0.15
  -1  -2   8   -0.13    0.17
   0   2  -8   34.71    1.67
   0   2  -8   36.95    2.00
   0   2  -8   34.43    1.73
   0   2  -8   38.52    2.09
   0  -2   8   35.14    1.66
   0  -2   8   36.48    1.87
  -1   2  -8   16.19    1.28
  -1   2  -8   15.85    0.92
  -1   2  -8   15.98    0.99
  -1   2  -8   16.74    1.16
   1  -2   8   15.06    0.91
   1  -2   8   15.70    1.11
  -2   2  -8   19.56    1.28
  -2   2  -8   19.05    1.43
  -2   2  -8   17.58    1.10
   2  -2   8   16.99    1.23
  -3   2  -8   52.37    2.76
  -3   2  -8   52.34    2.55
  -3   2  -8   48.23    2.35
   3  -2   8   45.88    2.56
  -4   2  -8    6.34    0.83
  -4   2  -8    4.67    0.86
  -4   2  -8    5.55    0.73
   4  -2   8    5.41    0.79
  -5   2  -8    2.17    0.66
  -5   2  -8    2.15    0.60
   5  -2   8    3.52    0.74
  -6   2  -8    3.61    0.90
   6  -2   8    6.15    0.99
   8   1  -8    0.93    0.64
  -8  -1   8    0.65    0.45
  -8  -1   8    2.10    0.70
   7   1  -8    3.83    0.85
  -7  -1   8    3.60    0.71
  -7  -1   8    5.39    0.85
   6   1  -8    3.24    0.79
  -6  -1   8    2.53    0.59
  -6  -1   8    2.92    0.62
   5   1  -8    2.92    0.64
  -5  -1   8    1.95    0.48
  -5  -1   8    2.07    0.51
   4   1  -8   70.72    3.42
  -4  -1   8   65.08    3.26
   3   1  -8   49.07    2.60
  -3  -1   8   47.59    2.43
   2   1  -8    9.18    0.70
   2   1  -8    7.69    0.94
  -2  -1   8    9.51    0.76
   1   1  -8    8.39    0.66
   1   1  -8    8.72    0.95
   1   1  -8    7.97    0.96
  -1  -1   8    8.27    0.71
  -1  -1   8    8.25    0.59
   0   1  -8   14.85    0.90
   0   1  -8   14.82    1.09
   0   1  -8   13.45    1.14
   0  -1   8   13.03    0.82
   0  -1   8   12.98    0.95
  -1   1  -8    0.01    0.38
  -1   1  -8   -0.12    0.32
  -1   1  -8    0.31    0.24
   1  -1   8    0.19    0.22
   1  -1   8   -0.05    0.31
  -2   1  -8   -0.01    0.36
  -2   1  -8    0.06    0.23
  -2   1  -8    0.19    0.40
   2  -1   8   -0.42    0.25
   2  -1   8    0.09    0.22
  -3   1  -8    5.25    0.67
  -3   1  -8    4.75    0.75
  -3   1  -8    3.35    0.69
   3  -1   8    4.54    0.73
  -4   1  -8   11.54    1.34
  -4   1  -8   13.43    1.12
   4  -1   8   12.05    1.11
  -5   1  -8    0.29    0.47
  -5   1  -8    0.50    0.42
   5  -1   8    0.12    0.39
  -6   1  -8   -0.56    0.43
   6  -1   8    0.78    0.46
   8   0  -8   -0.08    0.58
  -8   0   8    0.08    0.35
  -8   0   8   -0.11    0.41
   7   0  -8    0.91    0.59
  -7   0   8    1.88    0.59
  -7   0   8    0.94    0.50
   6   0  -8    9.18    1.14
  -6   0   8    9.23    1.07
   5   0  -8    1.32    0.48
  -5   0   8    0.93    0.38
   4   0  -8    1.90    0.56
  -4   0   8    1.62    0.42
  -4   0   8    2.08    0.38
   3   0  -8   33.26    1.54
   3   0  -8   29.26    1.79
  -3   0   8   30.36    1.44
  -3   0   8   24.00    1.58
   2   0  -8   10.73    0.74
   2   0  -8   11.23    0.98
   2   0  -8    9.38    1.04
  -2   0   8   10.29    0.81
  -2   0   8   10.25    0.68
   1   0  -8   11.87    0.80
   1   0  -8   13.22    1.04
   1   0  -8   12.05    1.08
  -1   0   8   13.21    0.91
  -1   0   8   10.98    0.75
   0   0  -8   18.84    1.31
   0   0  -8   19.59    1.11
   0   0  -8   20.73    1.45
   0   0   8   18.92    1.06
  -1   0  -8   83.76    3.62
  -1   0  -8   87.90    4.01
  -1   0  -8   86.22    4.15
   1   0   8   86.06    3.63
   1   0   8   79.25    3.97
  -2   0  -8    5.36    0.88
  -2   0  -8    3.97    0.54
  -2   0  -8    3.66    0.70
   2   0   8    4.39    0.68
   2   0   8    3.52    0.55
  -3   0  -8   -0.27    0.36
  -3   0  -8    0.27    0.42
   3   0   8   -0.13    0.28
  -4   0  -8    4.65    0.87
  -4   0  -8    3.97    0.75
   4   0   8    6.76    0.96
  -5   0  -8    1.61    0.60
  -5   0  -8    1.98    0.64
   5   0   8    0.43    0.49
  -6   0  -8    4.81    0.88
  -6   0  -8    4.30    0.98
   6   0   8    4.17    0.97
   9  -1  -8   -0.69    0.57
  -9   1   8    0.00    0.47
  -9   1   8   -0.07    0.41
   8  -1  -8    0.45    0.60
  -8   1   8    0.23    0.45
  -8   1   8    0.47    0.46
   7  -1  -8    0.35    0.46
  -7   1   8    0.33    0.39
   6  -1  -8   12.02    1.28
  -6   1   8   12.18    1.07
   5  -1  -8    6.61    0.93
  -5   1   8    7.31    0.60
  -5   1   8    6.46    0.83
   4  -1  -8    7.73    0.98
  -4   1   8    6.56    0.56
  -4   1   8    7.28    0.77
   3  -1  -8    7.87    0.93
   3  -1  -8    7.61    0.93
   3  -1  -8    7.26    0.61
  -3   1   8    7.79    0.86
  -3   1   8    6.11    0.53
   2  -1  -8   22.85    1.21
   2  -1  -8   22.15    1.47
   2  -1  -8   22.52    1.52
  -2   1   8   22.96    1.18
  -2   1   8   22.05    1.33
   1  -1  -8   12.01    1.08
   1  -1  -8   11.76    1.01
   1  -1  -8   11.78    0.78
  -1   1   8   11.35    0.87
  -1   1   8   11.33    0.76
   0  -1  -8   23.07    1.68
   0  -1  -8   25.44    1.63
   0  -1  -8   28.00    1.38
   0   1   8   27.04    1.36
  -1  -1  -8   26.28    1.78
  -1  -1  -8   26.84    1.42
  -1  -1  -8   27.17    1.72
   1   1   8   30.13    1.70
   1   1   8   26.86    1.44
  -2  -1  -8   53.42    2.91
  -2  -1  -8   57.57    3.04
   2   1   8   57.38    2.87
   2   1   8   56.72    2.63
  -3  -1  -8   16.37    1.44
  -3  -1  -8   16.27    1.37
   3   1   8   21.96    1.43
  -4  -1  -8    4.37    0.85
  -4  -1  -8    3.71    0.79
   4   1   8    4.18    0.76
  -5  -1  -8    0.97    0.51
  -5  -1  -8    0.10    0.52
   5   1   8    0.62    0.49
   9  -2  -8   -0.69    0.54
  -9   2   8    0.55    0.50
  -9   2   8   -0.69    0.45
   8  -2  -8    1.50    0.68
  -8   2   8    0.28    0.47
   7  -2  -8    0.78    0.50
  -7   2   8    1.08    0.42
   6  -2  -8    0.38    0.40
  -6   2   8   -0.27    0.26
   5  -2  -8    5.58    0.90
   5  -2  -8    5.23    0.84
  -5   2   8    3.89    0.63
  -5   2   8    6.00    0.61
   4  -2  -8   29.38    1.45
   4  -2  -8   23.17    1.66
   4  -2  -8   28.61    1.77
  -4   2   8   24.57    1.54
  -4   2   8   27.55    1.38
   3  -2  -8    0.00    0.33
   3  -2  -8    0.17    0.33
   3  -2  -8   -0.08    0.11
  -3   2   8   -0.06    0.20
  -3   2   8    0.21    0.20
   2  -2  -8    0.53    0.38
   2  -2  -8    0.62    0.22
   2  -2  -8    0.71    0.41
  -2   2   8    1.44    0.39
  -2   2   8    1.13    0.31
   1  -2  -8    6.87    0.64
   1  -2  -8    6.80    0.94
   1  -2  -8    5.66    0.82
  -1   2   8    6.21    0.71
  -1   2   8    7.30    0.60
  -1   2   8    6.92    0.81
   0  -2  -8    8.42    1.02
   0  -2  -8   10.06    1.19
   0   2   8    8.49    0.68
   0   2   8    9.89    0.87
  -1  -2  -8   -0.29    0.37
  -1  -2  -8   -0.26    0.28
   1   2   8   -0.32    0.23
   1   2   8   -0.30    0.15
  -2  -2  -8    2.24    0.64
  -2  -2  -8    0.95    0.49
   2   2   8    2.58    0.59
   2   2   8    2.09    0.47
  -3  -2  -8    8.48    1.09
  -3  -2  -8    5.81    0.92
  -3  -2  -8    7.25    0.78
   3   2   8    7.00    0.94
   3   2   8    5.22    0.72
  -4  -2  -8    2.98    0.80
  -4  -2  -8    2.71    0.76
   4   2   8    3.40    0.75
  -5  -2  -8   -0.23    0.51
  -5  -2  -8   -0.35    0.49
   5   2   8    0.26    0.53
   9  -3  -8   -0.65    0.51
  -9   3   8    0.23    0.50
   8  -3  -8    7.21    1.02
  -8   3   8    6.31    1.03
   7  -3  -8    0.55    0.43
   7  -3  -8    0.67    0.49
  -7   3   8    0.51    0.38
   6  -3  -8    2.46    0.65
   6  -3  -8    2.86    0.66
  -6   3   8    3.15    0.63
  -6   3   8    2.46    0.45
   5  -3  -8   21.60    1.54
   5  -3  -8   20.50    1.54
  -5   3   8   20.03    1.18
  -5   3   8   21.99    1.39
   4  -3  -8    1.65    0.55
   4  -3  -8    1.83    0.55
  -4   3   8    1.68    0.35
  -4   3   8    1.96    0.45
   3  -3  -8    4.01    0.73
   3  -3  -8    4.69    0.82
  -3   3   8    3.58    0.50
  -3   3   8    3.60    0.58
   2  -3  -8   30.49    1.94
  -2   3   8   32.30    1.56
  -2   3   8   30.85    1.72
   1  -3  -8   36.52    2.19
   1  -3  -8   38.48    2.26
  -1   3   8   39.25    1.86
   0  -3  -8    2.64    0.61
   0  -3  -8    2.45    0.62
   0   3   8    3.54    0.49
   0   3   8    4.35    0.67
  -1  -3  -8    8.48    1.14
  -1  -3  -8    7.07    0.83
   1   3   8    7.83    0.89
   1   3   8    7.77    0.82
  -2  -3  -8    6.27    0.95
  -2  -3  -8    4.86    0.85
   2   3   8    5.75    0.72
   2   3   8    6.88    0.94
  -3  -3  -8    1.15    0.56
  -3  -3  -8    1.50    0.45
  -3  -3  -8    0.44    0.58
   3   3   8    0.99    0.41
   3   3   8    1.01    0.47
  -4  -3  -8   -0.05    0.47
  -4  -3  -8    1.12    0.64
   4   3   8    0.81    0.53
   9  -4  -8    2.92    0.86
   9  -4  -8    2.88    0.79
  -9   4   8    4.93    0.97
   8  -4  -8    1.83    0.66
   8  -4  -8    2.42    0.66
   8  -4  -8    1.67    0.57
  -8   4   8    3.50    0.81
   7  -4  -8    3.24    0.75
   7  -4  -8    3.06    0.73
  -7   4   8    2.24    0.58
  -7   4   8    2.76    0.51
   6  -4  -8    0.76    0.45
   6  -4  -8    0.05    0.37
  -6   4   8    0.35    0.30
  -6   4   8    0.01    0.26
   5  -4  -8    2.72    0.66
   5  -4  -8    2.81    0.65
  -5   4   8    2.99    0.46
  -5   4   8    1.71    0.48
   4  -4  -8    0.60    0.47
   4  -4  -8    0.25    0.38
  -4   4   8    0.27    0.26
  -4   4   8    0.58    0.26
   3  -4  -8    0.03    0.34
   3  -4  -8    0.00    0.41
  -3   4   8    0.20    0.19
  -3   4   8    0.13    0.23
   2  -4  -8    7.70    0.98
   2  -4  -8    6.49    0.92
  -2   4   8    5.91    0.73
  -2   4   8    6.77    0.68
   1  -4  -8   12.88    1.04
   1  -4  -8   13.25    1.21
   1  -4  -8   15.35    1.24
  -1   4   8   13.65    0.91
  -1   4   8   13.51    1.02
   0  -4  -8   12.49    1.02
   0  -4  -8   13.71    1.17
   0  -4  -8   13.01    1.37
   0   4   8   12.73    0.90
   0   4   8   12.55    1.03
  -1  -4  -8    0.62    0.51
  -1  -4  -8    0.12    0.31
  -1  -4  -8   -0.21    0.36
   1   4   8    0.21    0.33
   1   4   8    0.30    0.27
  -2  -4  -8    1.16    0.42
  -2  -4  -8    0.59    0.50
  -2  -4  -8    0.24    0.44
   2   4   8    0.27    0.28
   2   4   8    1.33    0.47
  -3  -4  -8    0.69    0.57
  -3  -4  -8    0.56    0.51
   3   4   8    0.73    0.37
   9  -5  -8    0.19    0.55
   8  -5  -8    0.97    0.49
   8  -5  -8    0.64    0.56
   8  -5  -8    2.00    0.63
  -8   5   8    3.13    0.71
   7  -5  -8    5.98    0.85
   7  -5  -8    6.81    0.98
   7  -5  -8    7.47    1.09
  -7   5   8    8.40    0.84
  -7   5   8    5.95    0.83
   6  -5  -8    3.62    0.69
   6  -5  -8    4.67    0.79
   6  -5  -8    3.19    0.73
  -6   5   8    5.58    0.84
  -6   5   8    4.92    0.60
   5  -5  -8    1.59    0.52
   5  -5  -8    0.12    0.38
   5  -5  -8    0.73    0.39
  -5   5   8    0.31    0.25
  -5   5   8    0.81    0.36
   4  -5  -8    0.66    0.40
   4  -5  -8    0.82    0.41
   4  -5  -8    0.79    0.43
  -4   5   8    0.62    0.26
  -4   5   8    0.77    0.33
   3  -5  -8    0.09    0.38
   3  -5  -8    0.13    0.27
   3  -5  -8    0.14    0.37
  -3   5   8   -0.06    0.23
  -3   5   8   -0.31    0.15
   2  -5  -8    7.50    1.02
   2  -5  -8    6.53    0.95
   2  -5  -8    8.08    0.94
  -2   5   8    6.42    0.76
  -2   5   8    8.23    0.66
   1  -5  -8    1.33    0.43
   1  -5  -8    1.13    0.52
   1  -5  -8    1.26    0.51
  -1   5   8    1.19    0.44
  -1   5   8    0.96    0.31
   0  -5  -8   -0.14    0.40
   0  -5  -8   -0.04    0.34
   0  -5  -8   -0.11    0.28
   0   5   8   -0.24    0.18
  -1  -5  -8    6.95    1.01
  -1  -5  -8    7.54    0.91
  -1  -5  -8    6.83    1.06
   1   5   8    5.91    0.77
  -2  -5  -8    4.22    0.91
  -2  -5  -8    3.96    0.70
  -2  -5  -8    4.55    0.85
   2   5   8    3.55    0.61
  -3  -5  -8    0.24    0.55
  -3  -5  -8    0.30    0.52
   3   5   8    0.11    0.30
   8  -6  -8    0.63    0.52
   8  -6  -8   -0.01    0.36
   8  -6  -8   -0.09    0.45
   7  -6  -8   -0.19    0.38
   7  -6  -8   -0.08    0.36
   7  -6  -8    0.88    0.42
  -7   6   8    0.82    0.32
   6  -6  -8   -0.04    0.42
   6  -6  -8    1.08    0.53
   6  -6  -8    0.52    0.39
  -6   6   8    0.35    0.28
   5  -6  -8    0.87    0.50
   5  -6  -8    1.88    0.52
   5  -6  -8    1.06    0.53
  -5   6   8    1.47    0.36
   4  -6  -8    6.39    0.94
   4  -6  -8    7.39    1.04
   4  -6  -8    7.19    0.94
  -4   6   8    5.48    0.63
   3  -6  -8    0.61    0.48
   3  -6  -8    0.46    0.43
   3  -6  -8    1.42    0.46
  -3   6   8    0.74    0.29
   2  -6  -8    0.90    0.43
   2  -6  -8    0.75    0.51
   2  -6  -8    1.53    0.55
  -2   6   8    1.40    0.35
   1  -6  -8    9.26    1.23
   1  -6  -8    9.81    1.12
   1  -6  -8    9.33    1.13
  -1   6   8   11.50    0.84
   0  -6  -8    0.68    0.52
   0  -6  -8    0.23    0.38
   0  -6  -8    0.43    0.47
   0   6   8    0.43    0.31
  -1  -6  -8   -0.29    0.34
  -1  -6  -8    0.23    0.39
  -1  -6  -8    0.32    0.52
   1   6   8   -0.18    0.22
  -2  -6  -8    1.61    0.75
  -2  -6  -8    1.78    0.61
  -2  -6  -8    2.82    0.64
   2   6   8    3.06    0.63
   8  -7  -8    0.14    0.35
   8  -7  -8    0.96    0.51
  -8   7   8    0.09    0.31
   7  -7  -8   -0.12    0.41
   7  -7  -8    0.32    0.36
   7  -7  -8    0.09    0.48
  -7   7   8    0.21    0.33
   6  -7  -8    0.34    0.38
   6  -7  -8    0.75    0.51
   6  -7  -8   -0.18    0.39
  -6   7   8   -0.04    0.25
   5  -7  -8    1.19    0.46
   5  -7  -8    0.94    0.51
   5  -7  -8    0.81    0.50
  -5   7   8    0.91    0.34
   4  -7  -8    2.59    0.73
   4  -7  -8    3.80    0.75
  -4   7   8    2.39    0.42
   3  -7  -8    3.96    0.76
   3  -7  -8    4.59    0.80
   3  -7  -8    4.16    0.90
  -3   7   8    4.06    0.58
   2  -7  -8    2.58    0.62
   2  -7  -8    2.66    0.69
   2  -7  -8    2.34    0.70
  -2   7   8    2.50    0.47
   1  -7  -8    0.15    0.42
   1  -7  -8   -0.17    0.31
   1  -7  -8    0.08    0.42
  -1   7   8   -0.40    0.19
   0  -7  -8    3.59    0.75
   0  -7  -8    4.24    0.91
   0  -7  -8    5.69    0.88
   0   7   8    3.40    0.58
   7  -8  -8    0.18    0.40
   7  -8  -8    0.73    0.61
  -7   8   8    0.57    0.35
   6  -8  -8    6.61    1.05
   6  -8  -8    5.38    0.90
   6  -8  -8    6.91    1.04
  -6   8   8    7.02    0.74
   5  -8  -8    1.29    0.52
   5  -8  -8    0.13    0.48
   5  -8  -8   -0.39    0.38
  -5   8   8    0.36    0.29
   4  -8  -8    4.58    0.87
   4  -8  -8    4.29    0.82
   4  -8  -8    3.57    0.78
  -4   8   8    2.54    0.47
   3  -8  -8    6.65    1.03
   3  -8  -8    7.99    1.24
   3  -8  -8    8.94    1.07
  -3   8   8    7.38    0.76
   2  -8  -8   -0.10    0.42
   2  -8  -8    0.03    0.39
   2  -8  -8    1.37    0.58
  -2   8   8    0.11    0.28
   1  -8  -8    0.32    0.51
   1  -8  -8    0.58    0.45
   1  -8  -8    0.40    0.50
  -1   8   8   -0.29    0.24
   0   9  -9    1.26    0.38
  -1   9  -9   -0.04    0.27
  -2   9  -9    2.63    0.50
  -3   9  -9    0.21    0.31
   3  -9   9   -0.04    0.32
  -4   9  -9   -0.20    0.29
  -2  -8   9    1.91    0.54
  -2  -8   9    2.86    0.51
  -1  -8   9    3.03    0.59
  -1  -8   9    2.51    0.55
   0   8  -9    5.30    0.65
   0  -8   9    6.69    0.73
  -1   8  -9    1.79    0.41
   1  -8   9    1.64    0.43
  -2   8  -9    1.43    0.38
   2  -8   9    1.20    0.40
  -3   8  -9   -0.24    0.27
   3  -8   9    0.62    0.35
  -4   8  -9    0.21    0.34
   4  -8   9   -0.20    0.38
  -5   8  -9    0.37    0.33
   5  -8   9   -0.02    0.43
  -4  -7   9    1.23    0.49
  -4  -7   9    0.15    0.47
  -3  -7   9    0.77    0.36
  -3  -7   9    0.72    0.47
  -2  -7   9    4.25    0.60
  -2  -7   9    3.83    0.66
  -1  -7   9    3.36    0.58
   0   7  -9   12.31    0.91
   0  -7   9   11.65    0.92
   0  -7   9   12.47    1.00
  -1   7  -9    3.55    0.54
   1  -7   9    4.10    0.62
  -2   7  -9    0.37    0.28
   2  -7   9   -0.34    0.32
  -3   7  -9    1.78    0.47
   3  -7   9    1.24    0.48
  -4   7  -9    1.65    0.47
   4  -7   9    1.91    0.55
  -5   7  -9   -0.29    0.30
   5  -7   9   -0.13    0.38
  -5  -6   9    0.34    0.43
  -5  -6   9   -0.69    0.39
  -4  -6   9    0.26    0.39
  -4  -6   9    0.47    0.37
  -3  -6   9   -0.18    0.32
  -3  -6   9    0.17    0.32
  -2  -6   9    0.53    0.33
  -2  -6   9    0.36    0.35
  -1  -6   9    0.86    0.34
  -1  -6   9    0.48    0.34
   0   6  -9    0.63    0.30
   0  -6   9    1.01    0.35
   0  -6   9    0.53    0.37
  -1   6  -9    1.22    0.36
   1  -6   9    1.91    0.48
  -2   6  -9    0.26    0.29
  -2   6  -9   -0.05    0.46
   2  -6   9    0.04    0.32
  -3   6  -9   17.73    1.16
   3  -6   9   17.45    1.26
  -4   6  -9    2.43    0.53
   4  -6   9    2.22    0.58
  -5   6  -9   -0.12    0.29
   5  -6   9    0.46    0.45
   6  -6   9    0.27    0.46
  -6  -5   9   11.23    1.31
  -6  -5   9    9.33    1.17
  -5  -5   9    0.20    0.41
  -5  -5   9   -0.17    0.38
  -4  -5   9   -0.25    0.29
  -4  -5   9   -0.26    0.32
  -3  -5   9    2.40    0.50
  -3  -5   9    3.27    0.60
  -2  -5   9    1.57    0.42
  -2  -5   9    0.96    0.38
   1   5  -9    7.91    0.78
   1   5  -9    5.50    0.89
  -1  -5   9    5.70    0.68
  -1  -5   9    5.78    0.65
   0   5  -9    0.41    0.27
   0   5  -9    1.00    0.48
   0  -5   9    0.38    0.26
  -1   5  -9    2.87    0.47
  -1   5  -9    2.26    0.60
   1  -5   9    3.62    0.62
  -2   5  -9    2.37    0.47
  -2   5  -9    3.21    0.71
  -2   5  -9    1.51    0.55
   2  -5   9    2.26    0.50
  -3   5  -9    4.36    0.81
  -3   5  -9    5.09    0.74
  -3   5  -9    5.46    0.67
   3  -5   9    4.88    0.75
  -4   5  -9    0.52    0.33
  -4   5  -9    0.91    0.54
   4  -5   9    1.46    0.49
  -5   5  -9    2.42    0.60
   5  -5   9    1.99    0.59
   6  -5   9    2.85    0.73
  -6  -4   9    8.46    1.14
  -6  -4   9    7.52    1.02
  -5  -4   9    0.13    0.34
  -5  -4   9   -0.16    0.34
   4   4  -9    0.88    0.50
  -4  -4   9   -0.15    0.32
  -4  -4   9   -0.16    0.24
   3   4  -9   21.07    1.54
  -3  -4   9   20.88    1.36
   2   4  -9    1.21    0.53
  -2  -4   9    0.77    0.35
  -2  -4   9    0.54    0.30
   1   4  -9    3.83    0.56
   1   4  -9    4.70    0.76
  -1  -4   9    5.09    0.65
  -1  -4   9    4.71    0.56
   0   4  -9    0.29    0.39
   0   4  -9    0.10    0.23
   0  -4   9    0.16    0.20
  -1   4  -9    7.04    0.74
  -1   4  -9    7.28    0.94
  -1   4  -9    8.54    1.01
   1  -4   9    7.01    0.49
   1  -4   9    4.86    0.69
  -2   4  -9   10.97    1.09
  -2   4  -9   14.46    1.22
  -2   4  -9   12.19    0.90
   2  -4   9   10.43    0.96
  -3   4  -9    2.75    0.60
  -3   4  -9    2.78    0.67
  -3   4  -9    2.81    0.51
   3  -4   9    2.65    0.60
  -4   4  -9    0.47    0.51
  -4   4  -9    0.54    0.31
   4  -4   9    0.59    0.41
  -5   4  -9    0.06    0.50
   5  -4   9    1.10    0.50
  -6   4  -9   -0.58    0.49
   6  -4   9    0.09    0.43
  -7  -3   9    3.32    0.75
  -7  -3   9    2.41    0.67
   6   3  -9    2.60    0.75
  -6  -3   9    2.12    0.63
  -6  -3   9    2.32    0.59
   5   3  -9    0.20    0.47
  -5  -3   9   -0.17    0.34
  -5  -3   9    0.08    0.33
   4   3  -9    9.02    1.14
  -4  -3   9    7.48    0.89
  -4  -3   9    7.86    0.89
   3   3  -9   49.45    2.58
  -3  -3   9   46.34    2.25
  -3  -3   9   39.66    2.30
   2   3  -9    0.36    0.38
  -2  -3   9    0.22    0.25
  -2  -3   9   -0.03    0.25
   1   3  -9   -0.13    0.36
   1   3  -9   -0.20    0.21
  -1  -3   9    0.02    0.25
  -1  -3   9    0.06    0.22
   0   3  -9   11.96    1.08
   0   3  -9   13.91    1.20
   0   3  -9   12.31    0.87
   0  -3   9   10.39    0.72
  -1   3  -9    5.71    0.68
  -1   3  -9    9.01    1.10
  -1   3  -9    5.68    0.83
   1  -3   9    7.22    0.87
  -2   3  -9    1.24    0.54
  -2   3  -9    2.39    0.56
  -2   3  -9    0.84    0.31
   2  -3   9    0.22    0.32
  -3   3  -9    2.48    0.45
  -3   3  -9    2.83    0.71
  -3   3  -9    1.83    0.57
   3  -3   9    1.94    0.56
  -4   3  -9   10.49    1.07
  -4   3  -9    7.13    0.92
  -4   3  -9    9.72    1.25
   4  -3   9    9.52    1.15
  -5   3  -9    3.30    0.87
   5  -3   9    3.37    0.75
  -6   3  -9    1.15    0.73
   6  -3   9    0.59    0.57
   7   2  -9   -0.14    0.56
  -7  -2   9   -0.28    0.44
  -7  -2   9    0.14    0.44
   6   2  -9   14.00    1.47
  -6  -2   9   12.83    1.33
  -6  -2   9   13.33    1.17
   5   2  -9   -0.61    0.45
  -5  -2   9    0.06    0.33
  -5  -2   9    0.13    0.31
   4   2  -9    2.45    0.66
  -4  -2   9    2.11    0.53
  -4  -2   9    2.40    0.54
   3   2  -9    3.10    0.65
  -3  -2   9    2.10    0.49
   2   2  -9   11.29    0.86
   2   2  -9   12.29    1.11
  -2  -2   9   11.46    0.91
   1   2  -9    0.56    0.28
   1   2  -9    0.76    0.48
  -1  -2   9    0.32    0.28
   0   2  -9   20.89    1.22
   0   2  -9   20.83    1.43
   0   2  -9   20.01    1.53
  -1   2  -9   21.55    1.43
  -1   2  -9   21.56    1.57
  -1   2  -9   19.30    1.21
   1  -2   9   19.83    1.37
  -2   2  -9    2.90    0.63
  -2   2  -9    2.56    0.66
  -2   2  -9    2.19    0.48
   2  -2   9    1.78    0.53
  -3   2  -9    1.90    0.55
  -3   2  -9    1.14    0.59
  -3   2  -9    1.56    0.42
   3  -2   9    1.17    0.49
  -4   2  -9   10.13    1.29
  -4   2  -9    8.81    1.03
   4  -2   9   11.16    1.26
  -5   2  -9   11.17    1.19
  -5   2  -9    7.99    1.22
   5  -2   9    8.88    1.20
  -6   2  -9    3.12    0.95
   6  -2   9    4.77    0.97
   8   1  -9   -0.35    0.57
  -8  -1   9    2.00    0.64
  -8  -1   9    0.54    0.51
   7   1  -9   -0.11    0.59
  -7  -1   9   -0.44    0.33
  -7  -1   9   -0.55    0.32
   6   1  -9   -0.23    0.46
  -6  -1   9   -0.01    0.35
  -6  -1   9   -0.05    0.32
   5   1  -9   43.35    2.47
  -5  -1   9   36.06    2.22
  -5  -1   9   43.22    2.23
   4   1  -9    5.28    0.83
  -4  -1   9    4.12    0.68
   3   1  -9   -0.25    0.22
   3   1  -9    0.06    0.35
  -3  -1   9   -0.23    0.20
   2   1  -9   18.89    1.42
   2   1  -9   22.54    1.18
  -2  -1   9   19.97    1.24
  -2  -1   9   15.32    1.02
   1   1  -9    0.48    0.38
   1   1  -9    0.30    0.23
   1   1  -9    0.27    0.45
  -1  -1   9    0.45    0.22
  -1  -1   9    0.14    0.23
   0   1  -9    3.10    0.65
   0   1  -9    2.99    0.69
   0   1  -9    3.01    0.48
   0  -1   9    3.09    0.44
  -1   1  -9   14.11    1.13
  -1   1  -9   12.89    0.90
  -1   1  -9   10.16    1.20
   1  -1   9   11.62    1.04
  -2   1  -9   33.32    2.09
  -2   1  -9   27.68    1.62
  -2   1  -9   34.96    1.94
   2  -1   9   31.39    1.88
  -3   1  -9   10.20    1.26
  -3   1  -9    9.34    1.10
   3  -1   9   12.03    1.26
  -4   1  -9    0.37    0.46
  -4   1  -9    2.10    0.71
   4  -1   9    2.14    0.62
  -5   1  -9    3.58    0.86
  -5   1  -9    3.08    0.75
   5  -1   9    1.84    0.62
  -6   1  -9    0.55    0.66
   8   0  -9   -0.44    0.56
  -8   0   9   -0.18    0.36
  -8   0   9    0.24    0.46
   7   0  -9   -0.03    0.54
  -7   0   9    1.10    0.50
  -7   0   9    1.68    0.58
   6   0  -9    3.53    0.81
  -6   0   9    3.47    0.71
   5   0  -9    0.61    0.46
  -5   0   9    0.41    0.32
   4   0  -9    3.51    0.72
  -4   0   9    3.31    0.57
   3   0  -9    1.24    0.35
   3   0  -9    1.26    0.49
  -3   0   9    1.20    0.40
  -3   0   9    1.30    0.29
   2   0  -9    0.06    0.22
   2   0  -9   -0.48    0.29
   2   0  -9   -0.42    0.31
  -2   0   9   -0.02    0.19
  -2   0   9   -0.10    0.20
   1   0  -9   10.75    1.12
   1   0  -9   10.89    0.82
   1   0  -9   11.70    1.24
  -1   0   9   10.99    0.77
  -1   0   9   11.81    0.91
   0   0  -9    0.83    0.52
   0   0  -9    1.43    0.50
   0   0  -9    0.88    0.34
   0   0   9    1.40    0.37
  -1   0  -9   27.23    1.95
  -1   0  -9   30.91    1.88
  -1   0  -9   30.19    1.59
   1   0   9   29.45    1.57
   1   0   9   33.24    1.88
  -2   0  -9    6.47    0.92
  -2   0  -9    5.93    0.92
   2   0   9    7.12    0.88
  -3   0  -9    4.69    0.88
  -3   0  -9    7.55    1.05
   3   0   9    7.70    1.01
  -4   0  -9    1.87    0.68
  -4   0  -9    1.27    0.57
   4   0   9    1.64    0.58
  -5   0  -9    7.54    1.08
  -5   0  -9    5.33    1.03
   5   0   9    6.66    1.11
   8  -1  -9    1.27    0.68
  -8   1   9    1.46    0.54
  -8   1   9    1.61    0.65
   7  -1  -9    3.55    0.83
  -7   1   9    2.77    0.66
   6  -1  -9    0.43    0.53
  -6   1   9    0.73    0.39
   5  -1  -9    4.93    0.91
  -5   1   9    4.86    0.79
   4  -1  -9   10.92    1.19
   4  -1  -9   10.08    1.22
  -4   1   9   13.34    1.03
  -4   1   9   12.74    0.83
   3  -1  -9    0.11    0.32
   3  -1  -9   -0.22    0.32
   3  -1  -9   -0.30    0.19
  -3   1   9   -0.02    0.18
  -3   1   9    0.09    0.22
   2  -1  -9   15.90    1.00
   2  -1  -9   15.06    1.30
   2  -1  -9   18.24    1.31
  -2   1   9   15.35    1.10
  -2   1   9   15.77    0.97
   1  -1  -9    0.07    0.23
   1  -1  -9    0.57    0.45
   1  -1  -9    0.79    0.48
  -1   1   9    0.61    0.27
  -1   1   9    0.35    0.31
   0  -1  -9   35.73    2.03
   0  -1  -9   32.36    2.10
   0   1   9   26.78    1.80
   0   1   9   34.62    1.67
  -1  -1  -9   17.36    1.36
  -1  -1  -9   16.65    1.43
   1   1   9   15.99    1.27
   1   1   9   17.23    1.09
  -2  -1  -9    0.83    0.50
  -2  -1  -9    1.09    0.53
   2   1   9    0.79    0.45
  -3  -1  -9    0.87    0.51
  -3  -1  -9    1.42    0.62
   3   1   9    1.14    0.52
  -4  -1  -9    0.48    0.59
  -4  -1  -9   -0.16    0.41
   4   1   9    0.67    0.57
  -5  -1  -9    1.48    0.65
  -5  -1  -9    0.58    0.58
   5   1   9    0.64    0.63
   8  -2  -9    3.97    0.88
  -8   2   9    4.93    0.92
   7  -2  -9    3.08    0.74
  -7   2   9    2.70    0.70
   6  -2  -9    3.22    0.78
  -6   2   9    3.94    0.72
   5  -2  -9   24.96    1.74
   5  -2  -9   22.93    1.72
  -5   2   9   26.31    1.61
  -5   2   9   24.92    1.36
   4  -2  -9   29.87    1.97
   4  -2  -9   30.35    1.96
  -4   2   9   30.29    1.81
  -4   2   9   32.59    1.59
   3  -2  -9   13.34    1.16
   3  -2  -9   11.98    1.36
  -3   2   9   13.40    1.02
  -3   2   9   12.89    0.87
   2  -2  -9    7.72    1.04
   2  -2  -9    9.27    1.06
  -2   2   9    8.69    0.70
  -2   2   9    7.50    0.88
   1  -2  -9   99.87    4.92
   1  -2  -9   90.65    4.75
  -1   2   9  107.14    4.34
  -1   2   9  107.06    4.68
   0  -2  -9    7.25    0.99
   0  -2  -9    5.24    0.90
   0   2   9    6.42    0.85
   0   2   9    6.05    0.67
  -1  -2  -9    1.99    0.61
  -1  -2  -9    3.79    0.73
   1   2   9    3.90    0.72
   1   2   9    2.92    0.54
  -2  -2  -9    5.20    0.89
  -2  -2  -9    5.61    0.95
   2   2   9    6.12    0.81
  -3  -2  -9    4.25    0.89
  -3  -2  -9    3.52    0.81
  -3  -2  -9    3.99    0.62
   3   2   9    5.07    0.88
  -4  -2  -9   10.64    1.30
  -4  -2  -9    9.40    1.33
   4   2   9   10.50    1.32
   9  -3  -9    0.09    0.61
  -9   3   9    0.28    0.54
   8  -3  -9    1.01    0.58
   8  -3  -9   -0.18    0.43
  -8   3   9    0.31    0.47
   7  -3  -9    3.12    0.77
   7  -3  -9    3.14    0.78
  -7   3   9    1.80    0.61
   6  -3  -9    4.34    0.84
   6  -3  -9    5.61    0.93
  -6   3   9    4.62    0.74
   5  -3  -9    0.52    0.40
   5  -3  -9    0.45    0.46
  -5   3   9    1.09    0.35
  -5   3   9    1.01    0.37
   4  -3  -9   30.11    1.98
   4  -3  -9   31.24    2.04
  -4   3   9   32.21    1.85
  -4   3   9   33.83    1.65
   3  -3  -9   17.58    1.41
   3  -3  -9   14.85    1.31
  -3   3   9   18.13    1.06
  -3   3   9   15.68    1.15
   2  -3  -9    0.11    0.40
   2  -3  -9    0.95    0.48
  -2   3   9    0.13    0.28
  -2   3   9    0.33    0.24
   1  -3  -9   -0.14    0.36
   1  -3  -9    0.14    0.42
  -1   3   9    0.02    0.23
   0  -3  -9   16.77    1.40
   0  -3  -9   14.17    1.29
   0   3   9   14.06    1.17
   0   3   9   15.30    1.02
  -1  -3  -9    3.40    0.76
  -1  -3  -9    3.09    0.79
  -1  -3  -9    5.57    0.75
   1   3   9    3.30    0.65
   1   3   9    2.83    0.51
  -2  -3  -9   -0.05    0.50
  -2  -3  -9    0.42    0.54
  -2  -3  -9   -0.03    0.33
   2   3   9    0.05    0.25
   2   3   9   -0.37    0.30
  -3  -3  -9    3.36    0.83
  -3  -3  -9    2.04    0.77
   3   3   9    2.52    0.68
  -4  -3  -9    1.08    0.63
  -4  -3  -9    0.42    0.61
   8  -4  -9    0.77    0.48
   8  -4  -9    0.56    0.54
   8  -4  -9    1.31    0.68
  -8   4   9    0.37    0.48
   7  -4  -9    0.67    0.53
   7  -4  -9    1.42    0.63
  -7   4   9    1.09    0.47
   6  -4  -9   -0.27    0.36
   6  -4  -9   -0.34    0.37
  -6   4   9   -0.17    0.30
  -6   4   9    0.56    0.30
   5  -4  -9    1.10    0.53
   5  -4  -9    0.74    0.49
  -5   4   9    1.90    0.41
  -5   4   9    2.01    0.55
   4  -4  -9    0.81    0.50
   4  -4  -9    0.31    0.39
  -4   4   9    0.30    0.24
  -4   4   9    0.49    0.29
   3  -4  -9    1.55    0.59
   3  -4  -9    1.94    0.64
  -3   4   9    2.36    0.43
  -3   4   9    2.24    0.50
   2  -4  -9    1.66    0.63
   2  -4  -9    1.23    0.55
  -2   4   9    1.95    0.44
  -2   4   9    1.48    0.41
   1  -4  -9   11.76    1.14
   1  -4  -9    9.03    1.13
   1  -4  -9    8.14    1.10
  -1   4   9   10.21    1.09
  -1   4   9    9.66    0.79
   0  -4  -9    0.61    0.54
   0  -4  -9    1.16    0.50
   0  -4  -9    0.62    0.37
   0   4   9    1.25    0.45
   0   4   9    1.03    0.36
  -1  -4  -9    2.53    0.72
  -1  -4  -9    3.16    0.60
  -1  -4  -9    2.13    0.63
   1   4   9    2.84    0.57
   1   4   9    2.46    0.59
  -2  -4  -9    9.72    1.21
  -2  -4  -9    9.23    1.01
  -2  -4  -9    6.49    1.08
   2   4   9    9.02    0.97
  -3  -4  -9    1.15    0.59
  -3  -4  -9    0.96    0.64
   8  -5  -9    0.71    0.45
   8  -5  -9    1.01    0.58
   8  -5  -9    0.59    0.61
  -8   5   9    1.37    0.63
   7  -5  -9    9.18    1.26
   7  -5  -9    9.14    1.25
   7  -5  -9   11.32    1.23
  -7   5   9   12.28    1.27
   6  -5  -9    0.37    0.48
   6  -5  -9   -0.08    0.31
   6  -5  -9    0.57    0.47
  -6   5   9    0.47    0.29
  -6   5   9    0.23    0.35
   5  -5  -9    0.37    0.41
   5  -5  -9    0.54    0.47
   5  -5  -9    0.33    0.35
  -5   5   9    0.15    0.28
  -5   5   9    0.57    0.37
   4  -5  -9    6.77    1.01
   4  -5  -9    4.52    0.86
   4  -5  -9    6.13    0.86
  -4   5   9    7.24    0.91
  -4   5   9    6.13    0.70
   3  -5  -9    6.63    1.00
   3  -5  -9    7.17    0.92
   3  -5  -9    4.74    0.86
  -3   5   9    4.43    0.60
  -3   5   9    7.84    0.93
   2  -5  -9    1.21    0.56
   2  -5  -9    2.26    0.54
   2  -5  -9    1.63    0.57
  -2   5   9    0.95    0.33
   1  -5  -9    2.19    0.54
   1  -5  -9    1.72    0.60
   1  -5  -9    1.69    0.69
  -1   5   9    1.67    0.40
   0  -5  -9    0.14    0.41
   0  -5  -9    0.21    0.47
   0  -5  -9   -0.24    0.30
   0   5   9   -0.02    0.24
  -1  -5  -9    1.43    0.61
  -1  -5  -9    0.65    0.59
  -1  -5  -9    0.52    0.37
   1   5   9    0.79    0.39
  -2  -5  -9    0.81    0.59
  -2  -5  -9    2.19    0.57
  -2  -5  -9    1.53    0.62
   2   5   9    1.06    0.41
   8  -6  -9    1.28    0.54
   8  -6  -9    0.65    0.53
   8  -6  -9   -0.78    0.30
   7  -6  -9    0.07    0.37
   7  -6  -9   -0.05    0.45
   7  -6  -9   -0.07    0.45
  -7   6   9    0.31    0.32
   6  -6  -9    3.04    0.68
   6  -6  -9    4.12    0.88
   6  -6  -9    3.06    0.75
  -6   6   9    3.30    0.56
   5  -6  -9    1.35    0.60
   5  -6  -9    0.74    0.59
   5  -6  -9    0.91    0.42
  -5   6   9    1.14    0.33
   4  -6  -9    0.11    0.32
   4  -6  -9   -0.21    0.42
   4  -6  -9   -0.25    0.39
  -4   6   9    0.11    0.26
   3  -6  -9    0.68    0.43
   3  -6  -9    1.78    0.65
   3  -6  -9    0.86    0.55
  -3   6   9    0.48    0.30
   2  -6  -9    7.03    1.05
   2  -6  -9    4.76    0.95
   2  -6  -9    5.32    0.83
  -2   6   9    4.46    0.64
   1  -6  -9    0.23    0.35
   1  -6  -9    0.18    0.45
   1  -6  -9   -0.48    0.40
  -1   6   9   -0.21    0.28
   0  -6  -9    6.21    0.93
   0  -6  -9    6.02    0.95
   0  -6  -9    4.68    1.04
   0   6   9    6.93    0.86
  -1  -6  -9    4.18    0.79
  -1  -6  -9    4.36    0.91
  -1  -6  -9    4.37    1.05
   1   6   9    4.13    0.69
   7  -7  -9    0.13    0.46
   7  -7  -9    1.25    0.63
   7  -7  -9    0.43    0.44
  -7   7   9    0.26    0.33
   6  -7  -9    3.18    0.85
   6  -7  -9    4.30    0.84
   6  -7  -9    2.76    0.68
  -6   7   9    3.98    0.58
   5  -7  -9    0.73    0.59
   5  -7  -9    1.20    0.62
   5  -7  -9    0.42    0.38
  -5   7   9    0.53    0.33
   4  -7  -9   -0.52    0.31
   4  -7  -9   -0.10    0.44
   4  -7  -9    0.54    0.52
  -4   7   9   -0.10    0.25
   3  -7  -9    0.62    0.57
   3  -7  -9    0.82    0.47
   3  -7  -9    0.12    0.44
  -3   7   9    0.88    0.34
   2  -7  -9   -0.37    0.44
   2  -7  -9    0.01    0.37
   2  -7  -9   -0.19    0.42
  -2   7   9    0.05    0.26
   1  -7  -9    2.30    0.64
   1  -7  -9    2.38    0.71
   1  -7  -9    1.51    0.68
  -1   7   9    0.94    0.38
   5  -8  -9    0.69    0.47
   5  -8  -9    1.71    0.58
   5  -8  -9   -0.16    0.53
  -5   8   9    0.63    0.34
   4  -8  -9   -0.06    0.50
   4  -8  -9    0.01    0.46
   4  -8  -9    0.87    0.54
  -4   8   9   -0.05    0.25
   3  -8  -9    1.47    0.58
   3  -8  -9    2.99    0.87
   3  -8  -9    0.86    0.54
  -3   8   9    1.61    0.41
  -2  -8  10   -0.08    0.43
   1   8 -10    1.73    0.49
  -1  -8  10    1.48    0.55
   0   8 -10    4.88    0.70
   0  -8  10    7.46    0.82
  -1   8 -10    5.70    0.71
   1  -8  10    7.29    0.83
  -2   8 -10    1.46    0.47
   2  -8  10    1.15    0.43
  -3   8 -10    0.14    0.33
   3  -8  10   -0.08    0.39
  -4   8 -10    0.36    0.38
   4  -8  10   -0.08    0.44
  -3  -7  10    2.47    0.57
  -3  -7  10    2.55    0.65
  -2  -7  10    1.39    0.51
  -2  -7  10    1.22    0.44
   1   7 -10    0.47    0.39
  -1  -7  10    1.89    0.49
   0   7 -10   23.18    1.46
   0  -7  10   28.00    1.65
  -1   7 -10    7.64    0.85
   1  -7  10    9.10    0.95
  -2   7 -10    0.16    0.29
   2  -7  10    0.39    0.43
  -3   7 -10    4.66    0.70
   3  -7  10    4.03    0.69
  -4   7 -10    0.82    0.38
   4  -7  10   -0.07    0.40
  -5   7 -10    1.43    0.53
  -4  -6  10    1.26    0.50
  -4  -6  10    0.90    0.47
  -3  -6  10    1.15    0.44
  -3  -6  10    0.31    0.41
  -2  -6  10   -0.20    0.35
  -2  -6  10    0.07    0.29
   1   6 -10    0.03    0.31
  -1  -6  10    0.37    0.34
  -1  -6  10   -0.14    0.30
   0   6 -10   -0.16    0.25
   0  -6  10    0.15    0.38
  -1   6 -10    1.02    0.38
   1  -6  10    0.66    0.39
  -2   6 -10    0.09    0.32
  -2   6 -10   -0.36    0.52
   2  -6  10   -0.35    0.36
  -3   6 -10   -0.10    0.27
   3  -6  10   -0.30    0.32
  -4   6 -10    0.61    0.37
   4  -6  10    0.76    0.50
  -5   6 -10   -0.33    0.37
   5  -6  10    0.59    0.53
  -5  -5  10    0.15    0.42
  -5  -5  10    0.56    0.42
  -4  -5  10    0.42    0.37
  -4  -5  10    1.03    0.49
  -3  -5  10    1.36    0.45
  -3  -5  10    1.71    0.47
  -2  -5  10    2.35    0.49
  -2  -5  10    2.73    0.54
   1   5 -10    0.18    0.29
  -1  -5  10   -0.01    0.27
  -1  -5  10   -0.15    0.26
   0   5 -10    0.04    0.24
   0  -5  10    0.21    0.29
   0  -5  10   -0.19    0.20
  -1   5 -10   -0.19    0.24
  -1   5 -10   -0.25    0.48
   1  -5  10   -0.56    0.27
  -2   5 -10    0.37    0.46
  -2   5 -10    0.28    0.29
   2  -5  10    0.37    0.35
  -3   5 -10    0.75    0.37
   3  -5  10    0.19    0.42
  -4   5 -10   -0.24    0.31
   4  -5  10    0.77    0.45
   5  -5  10    3.35    0.84
  -6  -4  10   -0.18    0.45
  -6  -4  10    0.28    0.46
  -5  -4  10    0.27    0.36
  -5  -4  10    0.03    0.37
  -4  -4  10    3.25    0.65
  -4  -4  10    5.00    0.75
   3   4 -10    4.35    0.86
  -3  -4  10    5.44    0.73
  -3  -4  10    5.59    0.77
   2   4 -10    0.62    0.52
   2   4 -10    1.07    0.41
  -2  -4  10    0.73    0.35
  -2  -4  10    0.58    0.35
   1   4 -10    0.16    0.26
   1   4 -10    0.29    0.49
  -1  -4  10    0.81    0.36
  -1  -4  10    0.14    0.25
   0   4 -10    0.87    0.55
   0   4 -10    1.47    0.40
   0  -4  10    1.13    0.30
  -1   4 -10   14.19    1.37
  -1   4 -10   13.95    0.99
  -1   4 -10   14.07    1.45
   1  -4  10    9.73    1.11
  -2   4 -10    4.21    0.61
  -2   4 -10    5.48    0.85
  -2   4 -10    4.92    0.89
   2  -4  10    4.12    0.75
  -3   4 -10   -0.04    0.43
  -3   4 -10   -0.49    0.25
  -3   4 -10   -0.10    0.44
   3  -4  10    0.35    0.42
  -4   4 -10    5.07    0.95
   4  -4  10    6.90    1.03
  -5   4 -10    0.75    0.65
   5  -4  10    0.71    0.56
  -7  -3  10    0.67    0.58
  -6  -3  10   -0.23    0.40
  -6  -3  10   -0.30    0.36
   5   3 -10    2.36    0.75
  -5  -3  10    2.09    0.55
  -5  -3  10    2.09    0.54
   4   3 -10   11.15    1.29
  -4  -3  10   10.80    1.14
  -4  -3  10   12.14    1.04
   3   3 -10   41.98    2.43
  -3  -3  10   42.34    2.12
  -3  -3  10   36.87    2.16
   2   3 -10    2.31    0.71
   2   3 -10    2.15    0.49
  -2  -3  10    1.28    0.38
  -2  -3  10    2.03    0.49
   1   3 -10   -0.23    0.42
   1   3 -10   -0.07    0.26
  -1  -3  10   -0.08    0.25
  -1  -3  10    0.09    0.23
   0   3 -10    1.02    0.33
   0   3 -10    1.38    0.60
   0   3 -10    0.79    0.44
  -1   3 -10    0.74    0.35
  -1   3 -10    1.36    0.52
  -1   3 -10    0.79    0.49
   1  -3  10    0.46    0.36
  -2   3 -10   14.53    1.48
  -2   3 -10   12.13    0.98
  -2   3 -10   11.54    1.23
   2  -3  10   14.42    1.17
  -3   3 -10    6.62    1.11
  -3   3 -10    5.09    0.72
  -3   3 -10    6.84    0.90
   3  -3  10    6.73    0.99
  -4   3 -10    1.19    0.66
  -4   3 -10    1.40    0.59
   4  -3  10    1.68    0.65
  -5   3 -10    6.81    1.16
   5  -3  10    7.42    1.19
   7   2 -10   -0.33    0.58
  -7  -2  10    0.03    0.48
  -7  -2  10   -0.02    0.41
   6   2 -10    2.09    0.77
  -6  -2  10    1.88    0.60
  -6  -2  10    1.94    0.65
   5   2 -10   24.02    1.87
  -5  -2  10   20.52    1.54
  -5  -2  10   25.23    1.59
   4   2 -10    2.14    0.70
  -4  -2  10    2.46    0.59
  -4  -2  10    2.64    0.58
   3   2 -10    2.92    0.72
   3   2 -10    1.64    0.41
  -3  -2  10    1.84    0.47
   2   2 -10    2.49    0.48
   2   2 -10    3.20    0.71
  -2  -2  10    2.16    0.50
   1   2 -10    0.16    0.42
   1   2 -10    0.57    0.47
   1   2 -10   -0.02    0.25
  -1  -2  10   -0.04    0.27
   0   2 -10    0.92    0.49
   0   2 -10   -0.03    0.41
   0   2 -10    0.80    0.31
  -1   2 -10    0.14    0.42
  -1   2 -10    0.24    0.29
  -1   2 -10    0.15    0.42
   1  -2  10    0.16    0.29
  -2   2 -10    0.33    0.28
  -2   2 -10    0.40    0.51
  -2   2 -10    0.02    0.44
   2  -2  10    0.35    0.38
  -3   2 -10    0.08    0.48
  -3   2 -10    1.85    0.62
   3  -2  10    1.39    0.51
  -4   2 -10    0.80    0.64
  -4   2 -10    0.38    0.46
   4  -2  10   -0.06    0.42
  -5   2 -10    0.06    0.58
   5  -2  10   -0.24    0.49
   7   1 -10   -0.26    0.59
  -7  -1  10    0.50    0.55
  -7  -1  10    0.30    0.44
   6   1 -10   -0.50    0.52
  -6  -1  10    0.46    0.45
  -6  -1  10    1.30    0.51
   5   1 -10   36.23    2.35
  -5  -1  10   36.34    2.15
   4   1 -10    1.12    0.57
  -4  -1  10    1.08    0.43
   3   1 -10    0.30    0.43
   3   1 -10    0.11    0.26
  -3  -1  10    0.14    0.27
   2   1 -10   15.85    1.39
   2   1 -10   15.92    1.34
   2   1 -10   14.50    1.03
  -2  -1  10   16.29    1.15
   1   1 -10    3.44    0.75
   1   1 -10    4.20    0.59
   1   1 -10    4.41    0.81
  -1  -1  10    2.97    0.57
   0   1 -10    9.70    1.10
   0   1 -10    8.22    1.15
   0   1 -10    9.18    0.79
  -1   1 -10    2.92    0.69
  -1   1 -10    2.81    0.55
  -1   1 -10    3.15    0.76
   1  -1  10    2.49    0.58
  -2   1 -10   14.46    1.54
  -2   1 -10   14.28    1.27
   2  -1  10   15.96    1.28
  -3   1 -10   11.58    1.25
  -3   1 -10    8.31    1.23
   3  -1  10   10.07    1.20
  -4   1 -10    0.08    0.54
  -4   1 -10   -0.72    0.46
   4  -1  10   -0.21    0.39
  -5   1 -10    2.94    0.95
  -5   1 -10    4.41    0.92
   5  -1  10    4.12    0.85
   8   0 -10    1.60    0.77
  -8   0  10    1.32    0.58
  -8   0  10    0.20    0.51
   7   0 -10    0.79    0.64
  -7   0  10    1.66    0.54
  -7   0  10    2.17    0.64
   6   0 -10    8.15    1.21
  -6   0  10    8.71    1.09
   5   0 -10    0.17    0.46
  -5   0  10    0.18    0.31
   4   0 -10    0.17    0.39
  -4   0  10    0.20    0.27
   3   0 -10    2.39    0.64
   3   0 -10    2.71    0.49
   3   0 -10    1.88    0.65
  -3   0  10    2.39    0.51
   2   0 -10    1.85    0.61
   2   0 -10    2.81    0.68
   2   0 -10    2.99    0.50
  -2   0  10    2.73    0.60
   1   0 -10   12.73    0.94
   1   0 -10   12.37    1.32
   1   0 -10   13.54    1.43
  -1   0  10   13.85    1.07
   0   0 -10   17.69    1.35
   0   0 -10   15.96    1.41
   0   0  10   12.52    1.13
  -1   0 -10    4.90    0.83
  -1   0 -10    3.95    0.84
   1   0  10    4.53    0.76
  -2   0 -10   17.96    1.57
  -2   0 -10   16.57    1.40
   2   0  10   18.29    1.41
  -3   0 -10   17.86    1.62
  -3   0 -10   17.68    1.51
   3   0  10   18.57    1.49
  -4   0 -10    1.85    0.69
  -4   0 -10    1.93    0.76
   4   0  10    1.92    0.69
   8  -1 -10   -0.86    0.56
  -8   1  10   -0.23    0.42
  -8   1  10   -0.11    0.33
   7  -1 -10    5.06    1.01
  -7   1  10    6.55    1.04
   6  -1 -10    7.97    1.20
  -6   1  10    5.80    0.92
   5  -1 -10   -0.72    0.40
  -5   1  10    0.23    0.35
   4  -1 -10    1.17    0.54
   4  -1 -10    1.35    0.58
  -4   1  10    0.87    0.40
   3  -1 -10    2.27    0.64
   3  -1 -10    2.37    0.71
  -3   1  10    2.07    0.49
   2  -1 -10    7.97    1.15
   2  -1 -10    8.23    1.06
  -2   1  10    6.25    0.67
  -2   1  10    7.84    0.88
   1  -1 -10   11.32    1.31
   1  -1 -10   14.63    1.54
  -1   1  10   12.78    1.05
  -1   1  10   12.10    0.90
   0  -1 -10    1.22    0.60
   0  -1 -10    1.78    0.64
   0   1  10    1.20    0.48
  -1  -1 -10    6.21    0.97
  -1  -1 -10    5.24    0.98
   1   1  10    6.51    0.93
  -2  -1 -10    0.89    0.54
  -2  -1 -10    0.59    0.56
   2   1  10    0.95    0.50
  -3  -1 -10    3.06    0.83
  -3  -1 -10    2.84    0.83
   3   1  10    2.91    0.82
  -4  -1 -10    1.98    0.77
  -4  -1 -10    0.36    0.64
   4   1  10    0.66    0.63
   8  -2 -10   -0.37    0.55
  -8   2  10   -0.52    0.45
   7  -2 -10    0.35    0.56
  -7   2  10    0.63    0.46
   6  -2 -10    0.47    0.52
   6  -2 -10    0.76    0.44
  -6   2  10    0.69    0.42
   5  -2 -10   -0.51    0.36
   5  -2 -10    0.04    0.44
  -5   2  10   -0.11    0.24
   4  -2 -10   11.94    1.34
   4  -2 -10    9.10    1.17
  -4   2  10    9.38    1.07
  -4   2  10   13.72    0.98
   3  -2 -10    6.13    0.95
   3  -2 -10    4.24    0.91
  -3   2  10    6.60    0.76
  -3   2  10    7.34    0.91
   2  -2 -10    4.03    0.79
   2  -2 -10    5.22    0.94
  -2   2  10    5.45    0.68
  -2   2  10    5.87    0.87
   1  -2 -10   52.15    2.98
   1  -2 -10   50.30    2.84
  -1   2  10   50.43    2.42
   0  -2 -10    9.33    1.24
   0  -2 -10   11.57    1.29
   0   2  10   12.85    1.14
   0   2  10   13.97    0.98
  -1  -2 -10    0.88    0.61
  -1  -2 -10    0.17    0.47
   1   2  10    1.03    0.51
  -2  -2 -10    5.36    0.98
  -2  -2 -10    6.26    1.04
   2   2  10    4.68    0.89
  -3  -2 -10    0.45    0.56
  -3  -2 -10   -0.17    0.35
  -3  -2 -10    0.33    0.68
   3   2  10    1.01    0.56
   8  -3 -10    5.08    1.07
   8  -3 -10    4.35    0.95
  -8   3  10    9.18    1.23
   7  -3 -10    1.58    0.62
   7  -3 -10    1.89    0.72
  -7   3  10    1.01    0.53
   6  -3 -10    3.07    0.80
  -6   3  10    3.81    0.70
   5  -3 -10    0.55    0.48
   5  -3 -10    0.31    0.43
  -5   3  10    0.28    0.31
   4  -3 -10    0.11    0.34
   4  -3 -10    0.32    0.40
  -4   3  10    0.02    0.23
  -4   3  10   -0.11    0.26
   3  -3 -10    7.89    1.11
   3  -3 -10    7.42    1.11
  -3   3  10    7.73    0.78
  -3   3  10    6.33    0.80
   2  -3 -10    3.61    0.77
   2  -3 -10    2.71    0.75
  -2   3  10    3.77    0.58
  -2   3  10    4.97    0.78
   1  -3 -10    2.95    0.78
   1  -3 -10    3.44    0.82
  -1   3  10    3.85    0.60
  -1   3  10    3.90    0.70
   0  -3 -10    3.33    0.84
   0  -3 -10    2.82    0.70
   0   3  10    3.98    0.73
   0   3  10    3.25    0.57
  -1  -3 -10   -0.44    0.41
  -1  -3 -10    0.05    0.49
   1   3  10    0.11    0.38
  -2  -3 -10   -0.11    0.51
  -2  -3 -10    0.13    0.55
  -2  -3 -10    0.17    0.35
   2   3  10   -0.31    0.41
  -3  -3 -10   -0.76    0.50
  -3  -3 -10   -0.31    0.47
   8  -4 -10    1.07    0.67
   8  -4 -10    1.11    0.68
  -8   4  10    1.39    0.60
   7  -4 -10    8.01    1.27
   7  -4 -10    9.38    1.25
  -7   4  10    9.26    1.11
   6  -4 -10   -0.50    0.43
   6  -4 -10    0.06    0.48
  -6   4  10    0.02    0.30
   5  -4 -10    0.57    0.50
   5  -4 -10    0.94    0.52
  -5   4  10    0.49    0.35
  -5   4  10    0.16    0.28
   4  -4 -10    0.98    0.61
   4  -4 -10    1.79    0.62
  -4   4  10    1.08    0.34
  -4   4  10    1.71    0.53
   3  -4 -10   17.63    1.53
   3  -4 -10   19.78    1.53
  -3   4  10   17.80    1.14
  -3   4  10   17.07    1.27
   2  -4 -10    2.44    0.73
   2  -4 -10    1.18    0.63
  -2   4  10    2.01    0.44
  -2   4  10    1.80    0.53
   1  -4 -10    0.76    0.44
   1  -4 -10    0.60    0.53
  -1   4  10    0.55    0.45
  -1   4  10    0.32    0.29
   0  -4 -10    1.68    0.61
   0  -4 -10    2.79    0.76
   0  -4 -10    1.59    0.52
   0   4  10    1.96    0.58
   0   4  10    2.72    0.52
  -1  -4 -10    0.43    0.53
  -1  -4 -10    1.44    0.47
  -1  -4 -10    0.72    0.62
  -2  -4 -10    1.61    0.73
  -2  -4 -10    2.89    0.67
  -2  -4 -10    2.73    0.79
   8  -5 -10    0.64    0.60
   8  -5 -10    0.74    0.56
   8  -5 -10    0.14    0.41
   7  -5 -10    0.58    0.53
   7  -5 -10    0.17    0.36
   7  -5 -10   -0.54    0.37
   6  -5 -10    0.96    0.54
   6  -5 -10    0.40    0.49
   6  -5 -10    0.52    0.42
  -6   5  10    0.84    0.41
  -6   5  10    0.65    0.43
   5  -5 -10    1.68    0.66
   5  -5 -10    1.69    0.57
   5  -5 -10    0.98    0.57
  -5   5  10    1.10    0.43
  -5   5  10    1.34    0.41
   4  -5 -10    1.27    0.59
   4  -5 -10    3.01    0.68
   4  -5 -10    2.31    0.73
  -4   5  10    1.94    0.43
  -4   5  10    2.33    0.55
   3  -5 -10    3.30    0.76
   3  -5 -10    2.67    0.78
   3  -5 -10    4.96    0.80
  -3   5  10    3.17    0.52
   2  -5 -10    0.87    0.56
   2  -5 -10    0.00    0.46
   2  -5 -10    1.05    0.42
  -2   5  10    0.63    0.31
   1  -5 -10    0.21    0.53
   1  -5 -10    0.99    0.46
   1  -5 -10    1.06    0.57
  -1   5  10    0.47    0.30
   0  -5 -10   -0.04    0.57
   0  -5 -10    0.19    0.49
   0  -5 -10   -0.41    0.34
   0   5  10    0.04    0.29
  -1  -5 -10    0.34    0.53
  -1  -5 -10    0.29    0.46
  -1  -5 -10    1.70    0.68
   7  -6 -10   -0.46    0.31
   7  -6 -10    0.01    0.46
   7  -6 -10   -0.07    0.44
   6  -6 -10   -0.21    0.48
   6  -6 -10    0.27    0.40
   6  -6 -10    0.18    0.45
  -6   6  10    0.18    0.28
   5  -6 -10    0.88    0.47
   5  -6 -10    1.68    0.67
   5  -6 -10    1.06    0.60
  -5   6  10    1.67    0.43
   4  -6 -10   11.03    1.24
   4  -6 -10   11.58    1.39
   4  -6 -10   12.69    1.46
  -4   6  10   13.73    1.00
   3  -6 -10    2.01    0.59
   3  -6 -10    2.18    0.73
   3  -6 -10    3.50    0.89
  -3   6  10    2.18    0.48
   2  -6 -10    0.33    0.48
   2  -6 -10    0.55    0.42
   2  -6 -10    0.23    0.51
  -2   6  10    0.30    0.28
   1  -6 -10    0.59    0.60
   1  -6 -10    1.48    0.63
   1  -6 -10    0.79    0.48
  -1   6  10    1.03    0.42
   0  -6 -10    1.14    0.51
   0  -6 -10    1.77    0.76
   0  -6 -10    1.75    0.71
   0   6  10    2.02    0.52
   6  -7 -10    2.50    0.77
   6  -7 -10    2.84    0.76
   6  -7 -10    3.96    0.95
  -6   7  10    2.87    0.54
   5  -7 -10    0.59    0.59
   5  -7 -10    0.61    0.48
   5  -7 -10    1.48    0.65
  -5   7  10    0.78    0.33
   4  -7 -10   -0.14    0.57
   4  -7 -10    0.06    0.36
   4  -7 -10   -0.09    0.52
  -4   7  10   -0.56    0.21
   3  -7 -10    3.17    0.82
   3  -7 -10    3.13    0.72
   3  -7 -10    3.45    0.87
  -3   7  10    3.19    0.56
   2  -7 -10    0.18    0.52
   2  -7 -10    0.87    0.68
   2  -7 -10    1.09    0.52
  -2   7  10    0.09    0.31
   0   8 -11    2.91    0.60
   0  -8  11    4.69    0.76
  -1   8 -11    1.03    0.42
   1  -8  11    1.86    0.57
  -2   8 -11    0.57    0.38
   2  -8  11    0.40    0.42
  -2  -7  11   -0.07    0.42
  -2  -7  11    0.03    0.35
   1   7 -11   -0.39    0.32
   0   7 -11    1.01    0.40
   0  -7  11    1.54    0.56
  -1   7 -11    0.86    0.42
   1  -7  11    0.56    0.47
  -2   7 -11    0.39    0.33
   2  -7  11    0.69    0.47
  -3   7 -11    0.14    0.37
   3  -7  11   -0.45    0.40
  -4  -6  11    2.96    0.69
  -4  -6  11    2.24    0.64
  -3  -6  11   -0.07    0.36
  -3  -6  11    0.01    0.40
   2   6 -11   -0.56    0.34
  -2  -6  11    4.25    0.74
  -2  -6  11   -0.45    0.35
   1   6 -11    0.13    0.34
   0   6 -11    0.53    0.36
   0  -6  11   -0.32    0.42
  -1   6 -11   -0.04    0.52
  -1   6 -11    0.48    0.35
   1  -6  11    0.38    0.45
  -2   6 -11    5.65    0.77
   2  -6  11    3.96    0.72
  -3   6 -11    1.03    0.47
   3  -6  11    0.99    0.55
  -4   6 -11    0.27    0.37
   4  -6  11   -0.64    0.39
  -5  -5  11    1.08    0.46
  -5  -5  11    1.23    0.55
  -4  -5  11    0.73    0.42
  -4  -5  11    0.41    0.42
  -3  -5  11    0.29    0.39
  -3  -5  11    0.01    0.32
   2   5 -11    0.54    0.35
  -2  -5  11    2.18    0.51
  -2  -5  11    1.36    0.50
   1   5 -11    0.85    0.35
  -1  -5  11    0.38    0.32
  -1  -5  11    0.55    0.36
   0   5 -11    0.18    0.34
   0  -5  11   -0.45    0.35
  -1   5 -11    2.38    0.54
  -1   5 -11    3.78    0.85
   1  -5  11    3.54    0.68
  -2   5 -11    0.54    0.57
  -2   5 -11    0.07    0.30
   2  -5  11    0.25    0.40
  -3   5 -11    3.44    0.66
   3  -5  11    3.79    0.77
   4  -5  11   -0.52    0.41
  -5  -4  11   -0.30    0.35
  -5  -4  11    0.75    0.46
  -4  -4  11    2.31    0.57
  -4  -4  11    2.23    0.59
  -3  -4  11    0.40    0.34
  -3  -4  11    0.03    0.35
   2   4 -11    1.16    0.56
  -2  -4  11    1.36    0.41
  -2  -4  11    1.56    0.48
   1   4 -11   -0.20    0.28
   1   4 -11    0.10    0.46
  -1  -4  11    0.24    0.34
  -1  -4  11    0.52    0.30
   0   4 -11    5.27    0.98
   0   4 -11    4.97    0.69
   0   4 -11    6.59    1.03
   0  -4  11    3.71    0.67
  -1   4 -11    9.50    1.16
  -1   4 -11    9.93    1.28
  -1   4 -11    8.86    0.93
   1  -4  11    8.10    1.01
  -2   4 -11    3.32    0.74
  -2   4 -11    1.55    0.69
  -2   4 -11    2.95    0.55
   2  -4  11    2.76    0.65
  -3   4 -11    4.15    0.94
   3  -4  11    3.72    0.74
  -4   4 -11    5.62    1.05
   4  -4  11    6.31    0.99
  -6  -3  11    2.63    0.71
  -6  -3  11    2.99    0.69
   5   3 -11    1.18    0.70
  -5  -3  11    0.88    0.45
  -5  -3  11    1.46    0.52
   4   3 -11    1.14    0.69
  -4  -3  11    0.33    0.40
  -4  -3  11    0.36    0.39
   3   3 -11    2.30    0.53
   3   3 -11    2.06    0.70
  -3  -3  11    2.14    0.52
  -3  -3  11    2.07    0.54
   2   3 -11    5.15    0.69
   2   3 -11    5.74    0.99
  -2  -3  11    3.32    0.61
  -2  -3  11    5.99    0.71
   1   3 -11    1.49    0.68
   1   3 -11    0.38    0.45
   1   3 -11    0.79    0.34
  -1  -3  11    0.49    0.28
  -1  -3  11    0.53    0.36
   0   3 -11    1.99    0.66
   0   3 -11    1.52    0.45
   0   3 -11    1.22    0.63
   0  -3  11    2.25    0.58
  -1   3 -11   -0.02    0.48
  -1   3 -11   -0.30    0.43
  -1   3 -11    0.13    0.30
   1  -3  11   -0.09    0.39
  -2   3 -11    1.92    0.69
  -2   3 -11    2.40    0.81
   2  -3  11    2.17    0.63
  -3   3 -11    1.80    0.64
  -3   3 -11    2.46    0.84
   3  -3  11    2.33    0.64
  -4   3 -11    0.66    0.58
   4  -3  11    2.29    0.70
   7   2 -11    1.65    0.82
  -7  -2  11    3.86    0.89
  -7  -2  11    1.97    0.72
   6   2 -11    0.94    0.62
  -6  -2  11    0.75    0.50
  -6  -2  11    1.44    0.58
   5   2 -11   21.31    1.82
  -5  -2  11   18.99    1.51
  -5  -2  11   20.05    1.48
   4   2 -11    0.95    0.60
  -4  -2  11   -0.16    0.34
  -4  -2  11    0.04    0.29
   3   2 -11    0.46    0.56
   3   2 -11    0.32    0.36
  -3  -2  11    0.85    0.39
   2   2 -11    2.73    0.55
   2   2 -11    1.81    0.70
   2   2 -11    1.61    0.63
  -2  -2  11    2.24    0.55
   1   2 -11   23.86    1.80
   1   2 -11   21.38    1.35
   1   2 -11   20.93    1.60
  -1  -2  11   20.16    1.41
   0   2 -11    3.41    0.62
   0   2 -11    2.29    0.66
   0   2 -11    3.65    0.84
   0  -2  11    2.62    0.59
  -1   2 -11    0.30    0.52
  -1   2 -11    1.60    0.64
   1  -2  11    0.45    0.43
  -2   2 -11    3.49    0.79
  -2   2 -11    2.12    0.77
   2  -2  11    2.06    0.59
  -3   2 -11    3.25    0.95
  -3   2 -11    3.05    0.75
   3  -2  11    2.35    0.67
  -4   2 -11   -0.41    0.51
  -4   2 -11    1.14    0.56
   4  -2  11   -0.48    0.39
   7   1 -11    2.76    0.86
  -7  -1  11    1.07    0.56
  -7  -1  11    2.44    0.69
   6   1 -11    2.88    0.84
  -6  -1  11    3.55    0.75
  -6  -1  11    2.67    0.71
   5   1 -11    8.93    1.26
  -5  -1  11    7.01    1.01
   4   1 -11    0.80    0.61
  -4  -1  11    0.90    0.42
   3   1 -11   -0.63    0.34
   3   1 -11    0.23    0.51
  -3  -1  11    0.30    0.35
   2   1 -11   -0.17    0.27
   2   1 -11   -0.06    0.39
   2   1 -11    0.55    0.48
  -2  -1  11    0.17    0.33
   1   1 -11    0.56    0.55
   1   1 -11    0.44    0.47
  -1  -1  11    0.71    0.37
   0   1 -11    1.31    0.62
   0   1 -11    1.36    0.55
   0  -1  11    0.38    0.38
  -1   1 -11    0.47    0.50
  -1   1 -11    0.35    0.57
   1  -1  11    0.27    0.41
  -2   1 -11    0.04    0.49
  -2   1 -11    0.16    0.54
  -3   1 -11    2.61    0.85
  -3   1 -11    1.88    0.74
   3  -1  11    4.09    0.83
  -4   1 -11   -0.33    0.58
  -4   1 -11   -0.65    0.55
   4  -1  11    0.24    0.52
   7   0 -11    2.34    0.86
  -7   0  11    3.87    0.85
  -7   0  11    5.07    0.85
   6   0 -11    0.49    0.55
  -6   0  11    0.30    0.46
   5   0 -11    0.67    0.60
  -5   0  11    1.10    0.43
   4   0 -11   10.59    1.33
   4   0 -11    9.80    1.26
  -4   0  11    9.69    1.11
   3   0 -11    0.39    0.54
   3   0 -11    0.81    0.58
  -3   0  11    0.62    0.39
   2   0 -11   11.01    1.26
   2   0 -11    9.63    1.29
  -2   0  11   11.19    1.01
   1   0 -11    5.29    0.99
   1   0 -11    4.60    0.85
  -1   0  11    5.10    0.73
   0   0 -11    5.38    0.98
   0   0  11    7.66    1.01
  -1   0 -11    0.30    0.54
  -1   0 -11   -0.36    0.42
   1   0  11   -0.19    0.38
  -2   0 -11    0.57    0.57
  -2   0 -11   -0.71    0.43
   2   0  11    0.06    0.45
  -3   0 -11    0.34    0.61
  -3   0 -11    0.13    0.54
   3   0  11    0.01    0.51
  -4   0 -11    2.15    0.73
  -4   0 -11    2.45    0.76
   4   0  11    2.30    0.77
   7  -1 -11   10.49    1.48
  -7   1  11   13.49    1.44
   6  -1 -11    0.07    0.59
  -6   1  11    0.31    0.38
   5  -1 -11    0.01    0.47
   5  -1 -11   -0.42    0.47
  -5   1  11   -0.02    0.38
   4  -1 -11   21.38    1.71
   4  -1 -11   22.47    1.80
  -4   1  11   21.25    1.53
   3  -1 -11    3.39    0.84
   3  -1 -11    2.92    0.81
  -3   1  11    2.58    0.58
   2  -1 -11    2.06    0.65
   2  -1 -11    1.74    0.72
  -2   1  11    0.73    0.48
   1  -1 -11   36.59    2.43
   1  -1 -11   35.44    2.26
   0  -1 -11    1.31    0.64
   0  -1 -11    0.55    0.61
   0   1  11    0.88    0.48
  -1  -1 -11    0.10    0.45
  -1  -1 -11   -0.13    0.50
   1   1  11    0.23    0.44
  -2  -1 -11    2.24    0.74
  -2  -1 -11    2.25    0.77
   2   1  11    2.79    0.76
  -3  -1 -11    6.77    1.13
  -3  -1 -11    7.01    1.23
   3   1  11    7.76    1.14
   7  -2 -11    0.62    0.44
   7  -2 -11    0.29    0.54
  -7   2  11   -0.12    0.41
   6  -2 -11    2.15    0.73
   6  -2 -11    1.48    0.59
  -6   2  11    2.08    0.65
   5  -2 -11    0.51    0.51
   5  -2 -11    0.30    0.54
  -5   2  11    0.87    0.50
   4  -2 -11    0.40    0.48
   4  -2 -11    0.69    0.58
  -4   2  11    0.35    0.40
   3  -2 -11    1.58    0.67
   3  -2 -11    1.90    0.67
  -3   2  11    2.89    0.60
   2  -2 -11    1.82    0.73
   2  -2 -11    0.42    0.54
  -2   2  11    0.77    0.38
   1  -2 -11    0.63    0.55
   1  -2 -11    0.14    0.48
   0  -2 -11   19.71    1.70
   0  -2 -11   17.97    1.57
   0   2  11   17.50    1.47
  -1  -2 -11    1.51    0.72
  -1  -2 -11    0.83    0.59
   1   2  11    2.37    0.69
  -2  -2 -11    3.57    0.90
  -2  -2 -11    2.96    0.88
   2   2  11    3.27    0.77
  -3  -2 -11    0.48    0.63
   7  -3 -11    0.81    0.72
   7  -3 -11    0.54    0.69
  -7   3  11    0.48    0.40
   6  -3 -11    0.04    0.47
   6  -3 -11   -0.20    0.46
  -6   3  11    0.26    0.42
   5  -3 -11    0.01    0.46
   5  -3 -11    0.25    0.50
  -5   3  11    0.35    0.36
   4  -3 -11    3.16    0.79
   4  -3 -11    2.61    0.76
  -4   3  11    3.14    0.66
   3  -3 -11    4.40    0.94
   3  -3 -11    4.70    0.90
  -3   3  11    4.65    0.73
   2  -3 -11    1.78    0.65
   2  -3 -11    3.09    0.74
  -2   3  11    3.34    0.63
   1  -3 -11    0.22    0.54
   1  -3 -11   -0.06    0.43
  -1   3  11   -0.08    0.36
   0  -3 -11    1.83    0.65
   0  -3 -11    1.40    0.72
   0   3  11    1.88    0.60
  -1  -3 -11    1.25    0.70
  -1  -3 -11    1.23    0.51
  -1  -3 -11    1.81    0.65
   1   3  11    2.55    0.68
  -2  -3 -11    4.40    1.00
  -2  -3 -11    4.29    1.01
  -2  -3 -11    5.93    0.86
   2   3  11    6.01    1.09
   7  -4 -11    2.69    0.84
   7  -4 -11    1.95    0.71
  -7   4  11    1.33    0.55
   6  -4 -11   -0.19    0.55
   6  -4 -11   -0.39    0.45
  -6   4  11   -0.53    0.34
   5  -4 -11    0.24    0.54
   5  -4 -11    0.33    0.50
  -5   4  11   -0.01    0.37
   4  -4 -11    1.95    0.75
   4  -4 -11    2.46    0.78
  -4   4  11    2.18    0.57
   3  -4 -11   19.82    1.66
   3  -4 -11   20.66    1.74
  -3   4  11   20.82    1.44
  -3   4  11   18.57    1.26
   2  -4 -11    0.67    0.50
   2  -4 -11    0.65    0.57
  -2   4  11    1.15    0.46
   1  -4 -11    0.42    0.55
   1  -4 -11    0.33    0.54
  -1   4  11    1.08    0.52
   0  -4 -11    4.92    1.08
   0  -4 -11    6.00    1.11
   0  -4 -11    6.96    0.99
  -1  -4 -11    2.03    0.78
  -1  -4 -11    0.96    0.64
  -1  -4 -11    2.96    0.70
   7  -5 -11    0.21    0.50
   7  -5 -11    0.16    0.45
   7  -5 -11    0.70    0.62
   6  -5 -11    2.10    0.76
   6  -5 -11    3.38    0.74
   6  -5 -11    1.96    0.74
   5  -5 -11   -0.03    0.51
   5  -5 -11    0.79    0.51
   5  -5 -11    0.45    0.57
   4  -5 -11    1.22    0.64
   4  -5 -11    0.75    0.63
   4  -5 -11    0.03    0.40
  -4   5  11    0.57    0.32
   3  -5 -11   -0.01    0.49
   3  -5 -11   -0.09    0.51
   3  -5 -11   -0.02    0.40
  -3   5  11    0.03    0.28
   2  -5 -11    2.71    0.77
   2  -5 -11    3.89    0.74
   2  -5 -11    4.14    0.92
  -2   5  11    2.90    0.56
   1  -5 -11    0.01    0.38
   1  -5 -11    0.17    0.56
   1  -5 -11   -0.34    0.42
   0  -5 -11    1.30    0.62
   0  -5 -11    2.20    0.65
   0  -5 -11    2.68    0.83
   6  -6 -11    1.34    0.70
   6  -6 -11    0.72    0.53
   6  -6 -11    0.51    0.60
   5  -6 -11    4.33    0.94
   5  -6 -11    3.93    1.01
   5  -6 -11    4.62    0.86
   4  -6 -11   -0.76    0.43
   4  -6 -11    0.25    0.43
   4  -6 -11   -0.20    0.56
  -4   6  11   -0.03    0.30
   3  -6 -11    2.03    0.73
   3  -6 -11    1.66    0.72
   3  -6 -11    2.41    0.67
  -3   6  11    0.96    0.40
   2  -6 -11    0.34    0.52
   2  -6 -11    1.57    0.52
   2  -6 -11   -0.64    0.52
  -2   6  11    0.37    0.35
   1   7 -12    0.22    0.33
  -1  -7  12   -0.31    0.51
   0   7 -12    0.83    0.47
   0  -7  12    1.22    0.55
  -1   7 -12    1.83    0.48
   1  -7  12    0.35    0.51
   3   6 -12    0.08    0.41
  -3  -6  12   -0.21    0.37
   2   6 -12    0.87    0.44
  -2  -6  12    0.92    0.52
   1   6 -12    0.90    0.46
   0   6 -12   -0.22    0.29
   0  -6  12   -0.01    0.43
  -1   6 -12    0.34    0.36
  -1   6 -12    0.68    0.63
   1  -6  12   -0.16    0.41
  -2   6 -12    0.24    0.33
   2  -6  12    0.40    0.44
  -3   6 -12    1.59    0.56
   3  -6  12    0.64    0.57
  -4  -5  12    3.01    0.68
  -4  -5  12    2.49    0.64
   3   5 -12    0.94    0.47
  -3  -5  12    1.68    0.52
  -3  -5  12    1.28    0.56
   2   5 -12    4.84    0.75
  -2  -5  12    4.42    0.68
  -2  -5  12    4.17    0.74
   1   5 -12   -0.19    0.32
   0   5 -12    0.63    0.44
   0   5 -12   -0.07    0.61
   0  -5  12    0.51    0.47
  -1   5 -12    3.16    0.79
  -1   5 -12    1.95    0.52
   1  -5  12    2.61    0.63
  -2   5 -12    1.06    0.65
  -2   5 -12    0.52    0.42
   2  -5  12    1.57    0.56
   3  -5  12    2.01    0.68
  -5  -4  12    0.04    0.42
  -5  -4  12    1.04    0.55
  -4  -4  12    1.02    0.51
  -4  -4  12    0.64    0.45
   3   4 -12    0.63    0.38
  -3  -4  12   -0.30    0.30
  -3  -4  12   -0.06    0.34
   2   4 -12    1.13    0.41
  -2  -4  12   -0.07    0.35
  -2  -4  12    1.05    0.40
   1   4 -12    0.73    0.58
   1   4 -12    0.51    0.68
   1   4 -12    0.48    0.38
  -1  -4  12    0.26    0.33
   0   4 -12    0.88    0.59
   0   4 -12    1.01    0.45
   0   4 -12    0.94    0.64
   0  -4  12    1.01    0.51
  -1   4 -12    1.19    0.71
  -1   4 -12    0.79    0.64
  -1   4 -12    0.69    0.40
   1  -4  12    0.89    0.50
  -2   4 -12    0.52    0.64
  -2   4 -12   -0.23    0.59
   2  -4  12    0.46    0.53
  -3   4 -12    1.43    0.84
   3  -4  12    0.12    0.49
  -5  -3  12   -0.17    0.42
  -5  -3  12   -0.45    0.37
   4   3 -12    1.40    0.72
  -4  -3  12    1.32    0.51
  -4  -3  12    0.50    0.41
   3   3 -12   -0.02    0.33
   3   3 -12    1.82    0.72
  -3  -3  12    1.13    0.43
  -3  -3  12    0.49    0.40
   2   3 -12    0.14    0.34
   2   3 -12   -0.41    0.54
  -2  -3  12   -0.20    0.31
  -2  -3  12   -0.11    0.30
   1   3 -12    1.33    0.45
   1   3 -12    1.02    0.67
   1   3 -12    1.02    0.54
  -1  -3  12    1.49    0.40
  -1  -3  12    0.44    0.41
   0   3 -12    2.68    0.58
   0   3 -12    2.41    0.75
   0   3 -12    2.94    0.84
   0  -3  12    3.08    0.73
  -1   3 -12   -0.23    0.55
  -1   3 -12   -0.26    0.53
   1  -3  12    0.01    0.45
  -2   3 -12    1.54    0.67
  -2   3 -12    1.28    0.69
   2  -3  12    0.81    0.55
  -3   3 -12   11.98    1.39
  -3   3 -12   13.60    1.66
   3  -3  12   11.65    1.38
   6   2 -12    0.41    0.70
  -6  -2  12    1.33    0.61
  -6  -2  12    0.67    0.51
   5   2 -12    1.64    0.78
  -5  -2  12    1.95    0.58
  -5  -2  12    2.02    0.64
   4   2 -12    0.36    0.52
  -4  -2  12    0.02    0.33
  -4  -2  12    0.52    0.42
   3   2 -12    2.05    0.78
  -3  -2  12    1.90    0.55
   2   2 -12   -0.11    0.57
   2   2 -12    0.12    0.59
  -2  -2  12    0.08    0.36
   1   2 -12   11.54    1.45
   1   2 -12   10.58    1.36
  -1  -2  12    8.54    1.00
   0   2 -12    0.27    0.55
   0   2 -12    0.01    0.48
   0  -2  12    0.74    0.50
  -1   2 -12   -0.08    0.54
  -1   2 -12    0.05    0.48
   1  -2  12    0.94    0.51
  -2   2 -12   12.09    1.52
  -2   2 -12   11.57    1.38
   2  -2  12   13.20    1.39
  -3   2 -12    3.25    0.84
  -3   2 -12    0.96    0.76
   3  -2  12    0.70    0.59
   6   1 -12    0.27    0.74
  -6  -1  12    1.56    0.63
  -6  -1  12    0.19    0.45
   5   1 -12    0.06    0.59
  -5  -1  12   -0.28    0.36
   4   1 -12    0.90    0.67
  -4  -1  12    2.00    0.60
   3   1 -12    1.90    0.76
   3   1 -12    1.55    0.67
  -3  -1  12    1.56    0.51
   2   1 -12    4.53    0.94
   2   1 -12    2.01    0.78
  -2  -1  12    2.39    0.58
   1   1 -12    0.07    0.53
   1   1 -12    0.05    0.47
   0   1 -12    4.08    0.90
   0   1 -12    5.22    0.95
   0  -1  12    4.49    0.82
  -1   1 -12    3.07    0.91
  -1   1 -12    2.93    0.77
   1  -1  12    2.84    0.68
  -2   1 -12    0.96    0.66
  -2   1 -12    1.77    0.74
   2  -1  12    0.67    0.54
  -3   1 -12    4.60    0.98
  -3   1 -12    4.54    1.07
   3  -1  12    5.06    0.98
   7   0 -12   11.88    1.61
  -7   0  12   13.45    1.53
  -7   0  12   11.76    1.45
   6   0 -12   -0.28    0.62
  -6   0  12    0.36    0.47
   5   0 -12    2.30    0.73
   5   0 -12    1.87    0.80
  -5   0  12    0.90    0.50
   4   0 -12   10.10    1.34
   4   0 -12    9.08    1.30
  -4   0  12   12.02    1.27
   3   0 -12   10.53    1.37
   3   0 -12   10.08    1.41
  -3   0  12   11.78    1.22
   2   0 -12    0.93    0.51
   2   0 -12    0.84    0.56
  -2   0  12    0.33    0.41
   1   0 -12    1.01    0.66
   1   0 -12    1.44    0.63
   0   0 -12    8.71    1.34
   0   0 -12    6.83    1.03
   0   0  12    8.10    1.09
  -1   0 -12    1.65    0.72
  -1   0 -12    1.79    0.69
   1   0  12    1.27    0.58
  -2   0 -12    0.99    0.61
  -2   0 -12    0.59    0.59
   2   0  12   -0.58    0.42
  -3   0 -12    1.92    0.84
  -3   0 -12    2.94    0.88
   3   0  12    1.96    0.75
   7  -1 -12    3.88    0.94
   7  -1 -12    5.54    1.20
  -7   1  12    4.47    0.92
   6  -1 -12   -0.33    0.57
   6  -1 -12    1.08    0.69
  -6   1  12    1.97    0.57
   5  -1 -12    1.06    0.60
   5  -1 -12    0.25    0.49
  -5   1  12    1.86    0.58
   4  -1 -12    5.90    1.11
   4  -1 -12    7.12    1.15
  -4   1  12    5.25    0.85
   3  -1 -12    4.26    0.93
   3  -1 -12    5.35    1.09
  -3   1  12    5.51    0.93
   2  -1 -12   -0.44    0.45
   2  -1 -12   -0.36    0.41
  -2   1  12   -0.10    0.34
   1  -1 -12    0.30    0.50
   1  -1 -12   -0.31    0.44
   0  -1 -12    0.02    0.46
   0  -1 -12    0.14    0.51
   0   1  12    0.45    0.45
  -1  -1 -12    1.34    0.69
  -1  -1 -12    1.42    0.75
   1   1  12    2.16    0.72
  -2  -1 -12   -0.76    0.48
  -2  -1 -12    0.74    0.61
   2   1  12    0.80    0.62
   7  -2 -12    0.97    0.55
   7  -2 -12    1.35    0.81
  -7   2  12    1.01    0.57
   6  -2 -12    0.13    0.54
   6  -2 -12    0.87    0.62
  -6   2  12   -0.19    0.40
   5  -2 -12   -0.23    0.50
   5  -2 -12   -0.10    0.51
  -5   2  12    0.04    0.37
   4  -2 -12    3.59    0.94
   4  -2 -12    2.47    0.77
  -4   2  12    3.06    0.75
   3  -2 -12    0.12    0.52
   3  -2 -12   -0.18    0.47
  -3   2  12    0.10    0.33
   2  -2 -12    3.13    0.86
   2  -2 -12    3.36    0.83
  -2   2  12    3.27    0.65
   1  -2 -12    1.69    0.71
   1  -2 -12    1.01    0.59
  -1   2  12    0.95    0.51
   0  -2 -12   -0.83    0.49
   0  -2 -12   -0.30    0.46
   0   2  12   -0.10    0.45
  -1  -2 -12   -0.29    0.56
  -1  -2 -12   -0.36    0.45
   1   2  12   -0.21    0.47
   7  -3 -12    1.24    0.75
   7  -3 -12    1.64    0.82
  -7   3  12    2.75    0.76
   6  -3 -12    0.93    0.59
   6  -3 -12   -0.24    0.53
  -6   3  12    0.63    0.51
   5  -3 -12    0.66    0.56
   5  -3 -12    0.30    0.64
  -5   3  12   -0.57    0.32
   4  -3 -12    0.21    0.50
   4  -3 -12   -0.70    0.47
  -4   3  12   -0.12    0.36
   3  -3 -12    9.28    1.34
   3  -3 -12    7.35    1.14
  -3   3  12    8.39    1.03
   2  -3 -12    0.97    0.66
   1  -3 -12   -0.02    0.60
   1  -3 -12   -0.37    0.46
  -1   3  12   -0.15    0.42
   0  -3 -12    1.16    0.75
   0  -3 -12    0.76    0.59
   0   3  12    2.74    0.67
  -1  -3 -12    2.66    0.66
  -1  -3 -12    1.56    0.75
  -1  -3 -12    2.75    0.89
   6  -4 -12    1.51    0.74
   6  -4 -12    1.82    0.72
  -6   4  12    1.30    0.54
   5  -4 -12    0.68    0.56
   5  -4 -12    1.41    0.78
  -5   4  12    0.55    0.51
   4  -4 -12    7.47    1.19
   4  -4 -12    5.00    1.08
  -4   4  12    8.06    1.12
   3  -4 -12    5.49    1.14
   3  -4 -12    4.10    0.97
  -3   4  12    6.65    0.99
   2  -4 -12    2.61    0.78
   2  -4 -12    5.01    1.13
  -2   4  12    3.19    0.69
   1  -4 -12    0.25    0.39
   1  -4 -12    0.18    0.55
   1  -4 -12   -0.09    0.57
   5  -5 -12    3.51    0.98
   5  -5 -12    2.42    0.83
   5  -5 -12    3.53    0.76
   4  -5 -12    0.48    0.50
   4  -5 -12   -0.35    0.48
   4  -5 -12    0.27    0.68
   3  -5 -12   -0.16    0.54
   3  -5 -12   -0.52    0.49
   3  -5 -12    0.26    0.44
   2  -5 -12    0.05    0.57
   2  -5 -12    0.40    0.41
   2  -5 -12   -0.18    0.51
   0   6 -13    0.77    0.53
   2   5 -13    3.30    0.64
  -2  -5  13    4.23    0.81
   1   5 -13    0.17    0.60
   1   5 -13    0.13    0.37
   0   5 -13   -0.26    0.32
   0   5 -13   -0.28    0.64
   0  -5  13    0.03    0.48
  -1   5 -13   -0.27    0.64
   1  -5  13   -0.04    0.47
  -4  -4  13    1.63    0.59
  -3  -4  13    0.47    0.51
  -3  -4  13    0.36    0.45
  -2  -4  13    0.74    0.46
   1   4 -13    0.66    0.62
   0   4 -13    0.77    0.70
   0  -4  13    1.49    0.61
  -1   4 -13    1.15    0.71
   1  -4  13    1.67    0.62
  -2   4 -13   -0.67    0.50
   2  -4  13   -0.22    0.49
  -4  -3  13    2.34    0.65
  -4  -3  13    1.74    0.57
   3   3 -13    0.34    0.64
  -3  -3  13    0.51    0.46
  -3  -3  13    0.56    0.51
   2   3 -13    0.37    0.55
   2   3 -13    1.27    0.71
  -2  -3  13    0.94    0.41
  -2  -3  13    0.76    0.49
   1   3 -13    5.67    1.06
   1   3 -13    4.48    1.03
   0   3 -13    0.89    0.68
   0   3 -13    0.04    0.64
   0  -3  13   -0.02    0.50
  -1   3 -13   -0.55    0.61
  -1   3 -13   -0.42    0.56
   1  -3  13   -0.17    0.41
  -2   3 -13    7.10    1.27
  -2   3 -13    6.55    1.14
   2  -3  13    6.34    1.03
   5   2 -13    1.47    0.76
  -5  -2  13    0.07    0.47
  -5  -2  13    0.70    0.51
   4   2 -13    3.33    0.99
  -4  -2  13    2.80    0.70
  -4  -2  13    3.44    0.69
   3   2 -13    1.46    0.71
   3   2 -13    1.13    0.71
  -3  -2  13    0.13    0.47
   2   2 -13    0.61    0.62
   2   2 -13   -0.19    0.56
  -2  -2  13    0.00    0.39
   1   2 -13    0.50    0.63
   1   2 -13    0.60    0.59
   0   2 -13    0.04    0.59
   0   2 -13   -0.04    0.67
   0  -2  13    0.49    0.53
  -1   2 -13    0.23    0.55
  -1   2 -13    1.80    0.87
   1  -2  13    0.44    0.50
  -2   2 -13    0.10    0.73
  -2   2 -13    0.80    0.70
   2  -2  13    0.95    0.56
   5   1 -13    0.06    0.67
   5   1 -13    0.97    0.68
  -5  -1  13    0.38    0.44
   4   1 -13    1.61    0.75
   4   1 -13    1.99    0.83
  -4  -1  13    1.82    0.64
   3   1 -13    0.24    0.72
   3   1 -13    0.02    0.59
  -3  -1  13   -0.28    0.42
   2   1 -13    0.16    0.54
   2   1 -13    0.99    0.72
  -2  -1  13    0.70    0.48
   1   1 -13    1.14    0.80
   1   1 -13    2.32    0.76
   0   1 -13    0.54    0.65
   0   1 -13   -0.10    0.63
   0  -1  13    0.39    0.50
  -1   1 -13    1.82    0.88
  -1   1 -13    0.01    0.57
   1  -1  13    0.38    0.53
  -2   1 -13    1.34    0.79
  -2   1 -13    1.35    0.77
   2  -1  13    0.47    0.56
   6   0 -13    0.51    0.54
   6   0 -13   -0.19    0.60
  -6   0  13    0.24    0.54
   5   0 -13    0.10    0.58
   5   0 -13   -0.04    0.64
  -5   0  13    1.14    0.53
   4   0 -13    1.23    0.77
   4   0 -13    0.92    0.71
  -4   0  13    0.53    0.44
   3   0 -13    4.11    1.06
   3   0 -13    2.90    0.82
  -3   0  13    4.02    0.80
   2   0 -13    1.13    0.63
   2   0 -13    0.17    0.74
  -2   0  13    0.81    0.51
   1   0 -13    5.96    1.05
   1   0 -13    4.04    0.98
  -1   0  13    5.00    0.94
   0   0 -13    7.44    1.23
   0   0 -13    7.72    1.31
   0   0  13   10.28    1.27
  -1   0 -13    0.35    0.67
  -1   0 -13    1.36    0.67
   1   0  13    0.23    0.58
   6  -1 -13    1.96    0.74
   6  -1 -13   -0.19    0.70
  -6   1  13    0.97    0.58
   5  -1 -13   -0.55    0.56
   5  -1 -13   -0.17    0.50
  -5   1  13   -0.20    0.38
   4  -1 -13    1.13    0.68
   4  -1 -13   -0.25    0.47
  -4   1  13    0.07    0.43
   3  -1 -13    0.19    0.67
   3  -1 -13    1.26    0.77
  -3   1  13    0.44    0.52
   2  -1 -13   -0.18    0.60
   2  -1 -13    0.17    0.53
  -2   1  13    0.09    0.43
   1  -1 -13    0.17    0.57
   1  -1 -13    0.29    0.59
  -1   1  13    0.97    0.57
   0  -1 -13    1.64    0.62
   0  -1 -13   -0.09    0.59
   0   1  13    1.14    0.62
  -1  -1 -13    2.42    0.84
  -1  -1 -13    2.22    0.89
   1   1  13    1.48    0.65
   6  -2 -13    0.18    0.63
   6  -2 -13    1.38    0.66
  -6   2  13    0.38    0.47
   5  -2 -13    0.55    0.54
   5  -2 -13    0.56    0.67
  -5   2  13    0.92    0.56
   4  -2 -13    1.91    0.78
   4  -2 -13    0.76    0.65
  -4   2  13    0.82    0.54
   3  -2 -13    0.05    0.61
   3  -2 -13    0.36    0.59
  -3   2  13    0.19    0.42
   2  -2 -13    0.19    0.51
   2  -2 -13    0.34    0.71
   1  -2 -13   -0.74    0.56
   1  -2 -13    1.55    0.74
  -1   2  13    0.44    0.59
   0  -2 -13   -0.18    0.51
   0  -2 -13    0.05    0.56
   0   2  13    0.32    0.52
   5  -3 -13    0.48    0.63
   5  -3 -13    0.19    0.60
  -5   3  13    0.25    0.41
   4  -3 -13    2.64    0.87
   4  -3 -13    2.68    0.91
  -4   3  13    1.30    0.58
   3  -3 -13    0.94    0.64
   3  -3 -13    2.21    0.87
  -3   3  13    2.42    0.71
   2  -3 -13   -0.03    0.55
   2  -3 -13    0.05    0.68
   1  -3 -13    0.54    0.60
   1  -3 -13   -0.01    0.59
  -1   3  13    0.35    0.55
   3   3 -14   -0.39    0.52
  -3  -3  14    0.30    0.51
   2   3 -14    0.14    0.71
  -2  -3  14    0.54    0.50
   1   3 -14    0.15    0.59
   1   3 -14    0.29    0.65
  -1  -3  14    0.87    0.50
   0   3 -14    1.82    0.79
   0   3 -14    1.70    0.79
   0  -3  14    0.86    0.60
   3   2 -14    0.37    0.84
   3   2 -14    1.06    0.75
  -3  -2  14    0.76    0.57
   2   2 -14    1.03    0.86
   2   2 -14    0.05    0.58
  -2  -2  14    0.18    0.45
   1   2 -14    5.46    1.14
   1   2 -14    3.20    0.88
  -1  -2  14    5.56    0.94
   0   2 -14    1.00    0.61
   0   2 -14   -0.23    0.68
   0  -2  14    0.72    0.70
   4   1 -14    3.82    0.98
   4   1 -14    5.25    1.24
  -4  -1  14    5.28    1.02
   3   1 -14    5.59    1.17
   3   1 -14    6.23    1.34
  -3  -1  14    7.56    1.09
   2   1 -14   -0.25    0.57
   2   1 -14    1.68    0.86
  -2  -1  14    0.76    0.55
   1   1 -14    1.85    0.83
   1   1 -14    1.52    0.78
  -1  -1  14    2.37    0.70
   0   1 -14    5.84    1.24
   0   1 -14    4.12    0.92
   0  -1  14    6.78    1.09
   4   0 -14    0.34    0.69
   4   0 -14   -0.84    0.55
  -4   0  14    0.65    0.53
   3   0 -14   -0.21    0.58
   3   0 -14   -0.44    0.51
  -3   0  14   -0.33    0.39
   2   0 -14    0.57    0.66
   2   0 -14    0.62    0.77
   1   0 -14    0.16    0.71
   1   0 -14    0.19    0.58
  -1   0  14    1.38    0.68
   4  -1 -14    1.90    0.85
   4  -1 -14    0.67    0.73
  -4   1  14    1.03    0.61
   3  -1 -14   -0.31    0.64
   3  -1 -14    0.51    0.70
  -3   1  14   -0.52    0.44
   2  -1 -14   -0.13    0.58
   2  -1 -14    0.08    0.56
   1  -1 -14    0.32    0.64
   1  -1 -14    0.20    0.69
   0   0   0    0.00    0.00
;
_shelx_hkl_checksum              82266
_olex2_submission_special_instructions 'No special instructions were received'
#END Tags that were not found in dictionaries
loop_
_space_group_symop_operation_xyz
'x, y, z'
'-x, -y, -z'
loop_
_atom_site_label
_atom_site_type_symbol
_atom_site_fract_x
_atom_site_fract_y
_atom_site_fract_z
_atom_site_U_iso_or_equiv
_atom_site_adp_type
_atom_site_occupancy
_atom_site_site_symmetry_order
_atom_site_calc_flag
_atom_site_refinement_flags_posn
_atom_site_refinement_flags_adp
_atom_site_refinement_flags_occupancy
C1 C 0.8799(2) 0.5351(2) 0.63913(15) 0.0405(4) Uani 1 1 d . . .
C2 C 0.8361(2) 0.5774(2) 0.52274(15) 0.0378(4) Uani 1 1 d . . .
C3 C 0.6804(2) 0.4677(2) 0.43120(15) 0.0412(4) Uani 1 1 d . . .
H3 H 0.6511 0.4966 0.3531 0.049 Uiso 1 1 calc R U .
C4 C 0.5694(2) 0.3161(2) 0.45583(16) 0.0415(4) Uani 1 1 d . . .
C5 C 0.4625(2) 0.0677(2) 0.25711(15) 0.0404(4) Uani 1 1 d . . .
C7 C 0.6223(2) -0.0430(2) 0.17150(15) 0.0384(4) Uani 1 1 d . . .
C8 C 0.7608(2) -0.0860(2) 0.13453(16) 0.0446(4) Uani 1 1 d . . .
H8 H 0.8899 -0.0292 0.1752 0.054 Uiso 1 1 calc R U .
C9 C 0.7043(3) -0.2166(2) 0.03474(17) 0.0470(4) Uani 1 1 d . . .
C10 C 0.8490(3) -0.2688(3) -0.0089(2) 0.0673(6) Uani 1 1 d . . .
H10A H 0.9751 -0.2010 0.0421 0.101 Uiso 0.5 1 calc R U P
H10B H 0.8421 -0.2529 -0.0934 0.101 Uiso 0.5 1 calc R U P
H10C H 0.8236 -0.3864 -0.0037 0.101 Uiso 0.5 1 calc R U P
H10D H 0.7854 -0.3593 -0.0788 0.101 Uiso 0.5 1 calc R U P
H10E H 0.9184 -0.3073 0.0568 0.101 Uiso 0.5 1 calc R U P
H10F H 0.9369 -0.1738 -0.0330 0.101 Uiso 0.5 1 calc R U P
C11 C 0.9159(3) 0.7854(3) 0.3972(2) 0.0603(5) Uani 1 1 d . . .
H11A H 0.9110 0.7032 0.3311 0.090 Uiso 1 1 calc R U .
H11B H 1.0147 0.8923 0.3987 0.090 Uiso 1 1 calc R U .
H11C H 0.7942 0.7989 0.3841 0.090 Uiso 1 1 calc R U .
C12 C 0.4326(2) -0.1277(2) 0.10931(15) 0.0396(4) Uani 1 1 d . . .
C13 C 0.3704(3) -0.2561(2) 0.00886(16) 0.0471(4) Uani 1 1 d . . .
H13 H 0.2412 -0.3104 -0.0326 0.056 Uiso 1 1 calc R U .
C14 C 0.5108(3) -0.2982(2) -0.02577(17) 0.0501(4) Uani 1 1 d . . .
H14 H 0.4757 -0.3850 -0.0927 0.060 Uiso 1 1 calc R U .
C15 C 0.6089(3) 0.2761(2) 0.57186(17) 0.0470(4) Uani 1 1 d . . .
H15 H 0.5311 0.1744 0.5891 0.056 Uiso 1 1 calc R U .
C16 C 0.7644(3) 0.3867(2) 0.66351(17) 0.0476(4) Uani 1 1 d . . .
H16 H 0.7902 0.3595 0.7425 0.057 Uiso 1 1 calc R U .
N1 N 0.63594(19) 0.08342(17) 0.26663(13) 0.0413(3) Uani 1 1 d . . .
O1 O 1.0341(2) 0.63773(19) 0.72999(12) 0.0547(4) Uani 1 1 d . . .
O2 O 0.32735(15) -0.05725(14) 0.16473(11) 0.0439(3) Uani 1 1 d . . .
O5 O 0.95697(18) 0.72953(15) 0.51130(12) 0.0519(3) Uani 1 1 d . . .
S1 S 0.36448(6) 0.17900(6) 0.34008(5) 0.05411(16) Uani 1 1 d . . .
H1O H 1.106(3) 0.713(3) 0.700(2) 0.074(8) Uiso 1 1 d . . .
loop_
_atom_site_aniso_label
_atom_site_aniso_U_11
_atom_site_aniso_U_22
_atom_site_aniso_U_33
_atom_site_aniso_U_23
_atom_site_aniso_U_13
_atom_site_aniso_U_12
C1 0.0390(9) 0.0432(9) 0.0386(9) 0.0043(7) 0.0103(7) 0.0147(7)
C2 0.0390(9) 0.0350(8) 0.0423(9) 0.0091(7) 0.0140(7) 0.0145(7)
C3 0.0416(9) 0.0448(10) 0.0394(9) 0.0090(7) 0.0098(7) 0.0187(7)
C4 0.0348(8) 0.0410(9) 0.0465(10) 0.0026(7) 0.0103(7) 0.0126(7)
C5 0.0352(9) 0.0358(8) 0.0411(9) 0.0067(7) 0.0031(7) 0.0058(7)
C7 0.0363(8) 0.0365(8) 0.0358(8) 0.0101(6) 0.0030(7) 0.0080(7)
C8 0.0372(9) 0.0459(10) 0.0451(10) 0.0116(7) 0.0055(7) 0.0105(7)
C9 0.0489(10) 0.0451(10) 0.0470(10) 0.0130(8) 0.0131(8) 0.0157(8)
C10 0.0620(13) 0.0667(14) 0.0733(15) 0.0021(11) 0.0213(11) 0.0238(11)
C11 0.0645(13) 0.0527(12) 0.0687(13) 0.0298(10) 0.0225(11) 0.0199(10)
C12 0.0381(9) 0.0349(8) 0.0396(9) 0.0108(7) 0.0050(7) 0.0079(7)
C13 0.0403(9) 0.0393(9) 0.0460(10) 0.0041(7) -0.0005(8) 0.0033(7)
C14 0.0593(11) 0.0407(10) 0.0419(10) 0.0028(7) 0.0082(8) 0.0121(8)
C15 0.0437(10) 0.0417(10) 0.0559(11) 0.0146(8) 0.0181(8) 0.0115(8)
C16 0.0479(10) 0.0532(11) 0.0421(10) 0.0168(8) 0.0130(8) 0.0164(8)
N1 0.0354(7) 0.0395(8) 0.0401(8) 0.0044(6) 0.0026(6) 0.0078(6)
O1 0.0469(8) 0.0601(9) 0.0408(7) 0.0058(6) 0.0049(6) 0.0042(6)
O2 0.0317(6) 0.0389(6) 0.0497(7) 0.0031(5) 0.0005(5) 0.0059(5)
O5 0.0520(7) 0.0418(7) 0.0536(8) 0.0145(6) 0.0104(6) 0.0077(6)
S1 0.0351(2) 0.0543(3) 0.0630(3) -0.0049(2) 0.0057(2) 0.0119(2)
loop_
_atom_type_symbol
_atom_type_description
_atom_type_scat_dispersion_real
_atom_type_scat_dispersion_imag
_atom_type_scat_source
C C 0.0033 0.0016 'International Tables Vol C Tables 4.2.6.8 and 6.1.1.4'
N N 0.0061 0.0033 'International Tables Vol C Tables 4.2.6.8 and 6.1.1.4'
O O 0.0106 0.0060 'International Tables Vol C Tables 4.2.6.8 and 6.1.1.4'
S S 0.1246 0.1234 'International Tables Vol C Tables 4.2.6.8 and 6.1.1.4'
H H 0.0000 0.0000 'International Tables Vol C Tables 4.2.6.8 and 6.1.1.4'
loop_
_geom_angle_atom_site_label_1
_geom_angle_atom_site_label_2
_geom_angle_atom_site_label_3
_geom_angle
C16 C1 C2 119.29(16)
O1 C1 C2 121.87(16)
O1 C1 C16 118.84(16)
C3 C2 C1 120.33(15)
O5 C2 C1 113.72(14)
O5 C2 C3 125.95(15)
C2 C3 H3 120.2
C4 C3 C2 119.70(16)
C4 C3 H3 120.2
C3 C4 S1 119.62(13)
C15 C4 C3 120.12(16)
C15 C4 S1 120.11(14)
N1 C5 O2 115.97(15)
N1 C5 S1 131.03(13)
O2 C5 S1 113.00(12)
C8 C7 C12 119.74(16)
C8 C7 N1 131.06(15)
C12 C7 N1 109.18(15)
C7 C8 H8 120.8
C7 C8 C9 118.38(16)
C9 C8 H8 120.8
C8 C9 C10 120.56(17)
C8 C9 C14 119.86(17)
C14 C9 C10 119.58(17)
C9 C10 H10A 109.5
C9 C10 H10B 109.5
C9 C10 H10C 109.5
C9 C10 H10D 109.5
C9 C10 H10E 109.5
C9 C10 H10F 109.5
H10A C10 H10B 109.5
H10A C10 H10C 109.5
H10A C10 H10D 141.1
H10A C10 H10E 56.3
H10A C10 H10F 56.3
H10B C10 H10C 109.5
H10B C10 H10D 56.3
H10B C10 H10E 141.1
H10B C10 H10F 56.3
H10C C10 H10D 56.3
H10C C10 H10E 56.3
H10C C10 H10F 141.1
H10D C10 H10E 109.5
H10D C10 H10F 109.5
H10E C10 H10F 109.5
H11A C11 H11B 109.5
H11A C11 H11C 109.5
H11B C11 H11C 109.5
O5 C11 H11A 109.5
O5 C11 H11B 109.5
O5 C11 H11C 109.5
C7 C12 C13 123.84(17)
O2 C12 C7 107.11(14)
O2 C12 C13 129.04(15)
C12 C13 H13 122.3
C14 C13 C12 115.47(16)
C14 C13 H13 122.3
C9 C14 H14 118.7
C13 C14 C9 122.69(17)
C13 C14 H14 118.7
C4 C15 H15 120.0
C4 C15 C16 119.99(17)
C16 C15 H15 120.0
C1 C16 C15 120.51(17)
C1 C16 H16 119.7
C15 C16 H16 119.7
C5 N1 C7 103.66(13)
C1 O1 H1O 109.4(16)
C12 O2 C5 104.08(12)
C2 O5 C11 117.06(14)
C5 S1 C4 101.79(8)
loop_
_geom_bond_atom_site_label_1
_geom_bond_atom_site_label_2
_geom_bond_distance
C1 C2 1.383(2)
C1 C16 1.359(2)
C1 O1 1.352(2)
C2 C3 1.379(2)
C2 O5 1.3444(19)
C3 H3 0.9300
C3 C4 1.368(2)
C4 C15 1.368(3)
C4 S1 1.7700(17)
C5 N1 1.269(2)
C5 O2 1.3708(18)
C5 S1 1.7204(18)
C7 C8 1.363(2)
C7 C12 1.373(2)
C7 N1 1.409(2)
C8 H8 0.9300
C8 C9 1.388(2)
C9 C10 1.482(3)
C9 C14 1.389(3)
C10 H10A 0.9600
C10 H10B 0.9600
C10 H10C 0.9600
C10 H10D 0.9600
C10 H10E 0.9600
C10 H10F 0.9600
C11 H11A 0.9600
C11 H11B 0.9600
C11 H11C 0.9600
C11 O5 1.410(2)
C12 C13 1.376(2)
C12 O2 1.370(2)
C13 H13 0.9300
C13 C14 1.361(3)
C14 H14 0.9300
C15 H15 0.9300
C15 C16 1.382(2)
C16 H16 0.9300
O1 H1O 0.84(2)
loop_
_geom_hbond_atom_site_label_D
_geom_hbond_atom_site_label_H
_geom_hbond_atom_site_label_A
_geom_hbond_distance_DH
_geom_hbond_distance_HA
_geom_hbond_distance_DA
_geom_hbond_angle_DHA
_geom_hbond_site_symmetry_A
O1 H1O N1 0.84(2) 2.07(2) 2.805(2) 146(2) 2_766
O1 H1O N1 0.84(2) 2.07(2) 2.805(2) 146(2) 2_766
O1 H1O O5 0.84(2) 2.21(2) 2.6392(19) 111.7(19) .
O1 H1O O5 0.84(2) 2.21(2) 2.6392(19) 111.7(19) .
loop_
_geom_torsion_atom_site_label_1
_geom_torsion_atom_site_label_2
_geom_torsion_atom_site_label_3
_geom_torsion_atom_site_label_4
_geom_torsion
C1 C2 C3 C4 -0.1(3)
C1 C2 O5 C11 -176.88(16)
C2 C1 C16 C15 2.4(3)
C2 C3 C4 C15 2.1(3)
C2 C3 C4 S1 177.63(12)
C3 C2 O5 C11 3.1(3)
C3 C4 C15 C16 -1.8(3)
C3 C4 S1 C5 85.67(15)
C4 C15 C16 C1 -0.5(3)
C7 C8 C9 C10 -179.77(17)
C7 C8 C9 C14 0.9(3)
C7 C12 C13 C14 1.0(3)
C7 C12 O2 C5 0.48(17)
C8 C7 C12 C13 -0.4(3)
C8 C7 C12 O2 -179.16(14)
C8 C7 N1 C5 178.76(18)
C8 C9 C14 C13 -0.3(3)
C10 C9 C14 C13 -179.59(19)
C12 C7 C8 C9 -0.6(2)
C12 C7 N1 C5 0.32(18)
C12 C13 C14 C9 -0.7(3)
C13 C12 O2 C5 -178.16(17)
C15 C4 S1 C5 -98.81(15)
C16 C1 C2 C3 -2.1(3)
C16 C1 C2 O5 177.87(15)
N1 C5 O2 C12 -0.31(19)
N1 C5 S1 C4 -4.80(19)
N1 C7 C8 C9 -178.89(16)
N1 C7 C12 C13 178.22(16)
N1 C7 C12 O2 -0.51(18)
O1 C1 C2 C3 178.31(15)
O1 C1 C2 O5 -1.7(2)
O1 C1 C16 C15 -177.98(16)
O2 C5 N1 C7 0.00(19)
O2 C5 S1 C4 176.00(12)
O2 C12 C13 C14 179.48(16)
O5 C2 C3 C4 179.86(15)
S1 C4 C15 C16 -177.30(14)
S1 C5 N1 C7 -179.18(14)
S1 C5 O2 C12 179.02(11)
